
     RDKit          2D

 20 20  0  0  0  0  0  0  0  0999 V2000
   21.5260   -1.2990    0.0000 C   0  0  0  0  0  0  0  0  0  0  0  0
   20.7760   -0.0000    0.0000 C   0  0  0  0  0  0  0  0  0  0  0  0
   21.5260    1.2990    0.0000 O   0  0  0  0  0  0  0  0  0  0  0  0
   19.2760   -0.0000    0.0000 C   0  0  0  0  0  0  0  0  0  0  0  0
   17.7760   -0.0000    0.0000 C   0  0  0  0  0  0  0  0  0  0  0  0
   16.2760   -0.0000    0.0000 C   0  0  0  0  0  0  0  0  0  0  0  0
   14.7760   -0.0000    0.0000 C   0  0  0  0  0  0  0  0  0  0  0  0
   13.2760   -0.0000    0.0000 C   0  0  0  0  0  0  0  0  0  0  0  0
   11.7760   -0.0000    0.0000 C   0  0  0  0  0  0  0  0  0  0  0  0
   10.2760   -0.0000    0.0000 C   0  0  0  0  0  0  0  0  0  0  0  0
    8.7760   -0.0000    0.0000 C   0  0  0  0  0  0  0  0  0  0  0  0
    7.2760   -0.0000    0.0000 C   0  0  0  0  0  0  0  0  0  0  0  0
    5.7760   -0.0000    0.0000 C   0  0  0  0  0  0  0  0  0  0  0  0
    4.2760   -0.0000    0.0000 C   0  0  0  0  0  0  0  0  0  0  0  0
    2.7760    0.0000    0.0000 C   0  0  0  0  0  0  0  0  0  0  0  0
    1.2760    0.0000    0.0000 C   0  0  0  0  0  0  0  0  0  0  0  0
    0.3943    1.2135    0.0000 C   0  0  0  0  0  0  0  0  0  0  0  0
   -1.0323    0.7500    0.0000 C   0  0  0  0  0  0  0  0  0  0  0  0
   -1.0323   -0.7500    0.0000 C   0  0  0  0  0  0  0  0  0  0  0  0
    0.3943   -1.2135    0.0000 C   0  0  0  0  0  0  0  0  0  0  0  0
  1  2  1  0
  2  3  2  0
  2  4  1  0
  4  5  3  0
  5  6  1  0
  6  7  3  0
  7  8  1  0
  8  9  3  0
  9 10  1  0
 10 11  3  0
 11 12  1  0
 12 13  3  0
 13 14  1  0
 14 15  3  0
 15 16  1  0
 16 17  2  0
 17 18  1  0
 18 19  2  0
 19 20  1  0
 20 16  1  0
M  END
>  <Title>  (1) 
idAAAAgen13

$$$$

     RDKit          2D

 27 29  0  0  0  0  0  0  0  0999 V2000
   -7.3284   14.7120    0.0000 C   0  0  0  0  0  0  0  0  0  0  0  0
   -7.3284   13.2120    0.0000 C   0  0  0  0  0  0  0  0  0  0  0  0
   -7.3284   11.7120    0.0000 C   0  0  0  0  0  0  0  0  0  0  0  0
   -7.3284   10.2120    0.0000 C   0  0  0  0  0  0  0  0  0  0  0  0
   -7.3284    8.7120    0.0000 C   0  0  0  0  0  0  0  0  0  0  0  0
   -7.3284    7.2120    0.0000 C   0  0  0  0  0  0  0  0  0  0  0  0
   -7.3284    5.7120    0.0000 C   0  0  0  0  0  0  0  0  0  0  0  0
   -7.3284    4.2120    0.0000 C   0  0  0  0  0  0  0  0  0  0  0  0
   -7.3284    2.7120    0.0000 N   0  0  0  0  0  0  0  0  0  0  0  0
   -8.5419    1.8303    0.0000 N   0  0  0  0  0  0  0  0  0  0  0  0
   -8.0784    0.4038    0.0000 N   0  0  0  0  0  0  0  0  0  0  0  0
   -6.5784    0.4038    0.0000 N   0  0  0  0  0  0  0  0  0  0  0  0
   -6.1149    1.8303    0.0000 C   0  0  0  0  0  0  0  0  0  0  0  0
   -4.6883    2.2939    0.0000 N   0  0  0  0  0  0  0  0  0  0  0  0
   -3.5736    1.2902    0.0000 C   0  0  0  0  0  0  0  0  0  0  0  0
   -3.8855   -0.1771    0.0000 O   0  0  0  0  0  0  0  0  0  0  0  0
   -2.1470    1.7537    0.0000 C   0  0  0  0  0  0  0  0  0  0  0  0
   -1.8351    3.2209    0.0000 C   0  0  0  0  0  0  0  0  0  0  0  0
   -0.4086    3.6844    0.0000 C   0  0  0  0  0  0  0  0  0  0  0  0
    0.7062    2.6807    0.0000 C   0  0  0  0  0  0  0  0  0  0  0  0
    2.1328    3.1443    0.0000 C   0  0  0  0  0  0  0  0  0  0  0  0
    0.3943    1.2135    0.0000 C   0  0  0  0  0  0  0  0  0  0  0  0
    1.2760    0.0000    0.0000 C   0  0  0  0  0  0  0  0  0  0  0  0
    0.3943   -1.2135    0.0000 C   0  0  0  0  0  0  0  0  0  0  0  0
   -1.0323   -0.7500    0.0000 C   0  0  0  0  0  0  0  0  0  0  0  0
   -2.2458   -1.6317    0.0000 C   0  0  0  0  0  0  0  0  0  0  0  0
   -1.0323    0.7500    0.0000 C   0  0  0  0  0  0  0  0  0  0  0  0
  1  2  3  0
  2  3  1  0
  3  4  3  0
  4  5  1  0
  5  6  3  0
  6  7  1  0
  7  8  3  0
  8  9  1  0
  9 10  1  0
 10 11  2  0
 11 12  1  0
 12 13  2  0
 13 14  1  0
 14 15  1  0
 15 16  2  0
 15 17  1  0
 17 18  1  0
 18 19  1  0
 19 20  2  0
 20 21  1  0
 20 22  1  0
 22 23  2  0
 23 24  1  0
 24 25  1  0
 25 26  1  0
 25 27  2  0
 13  9  1  0
 27 17  1  0
 27 22  1  0
M  END
>  <Title>  (2) 
idAAABgen13

$$$$

     RDKit          2D

 20 20  0  0  0  0  0  0  0  0999 V2000
   21.5260   -1.2990    0.0000 C   0  0  0  0  0  0  0  0  0  0  0  0
   20.7760   -0.0000    0.0000 C   0  0  0  0  0  0  0  0  0  0  0  0
   21.5260    1.2990    0.0000 O   0  0  0  0  0  0  0  0  0  0  0  0
   19.2760   -0.0000    0.0000 C   0  0  0  0  0  0  0  0  0  0  0  0
   17.7760   -0.0000    0.0000 C   0  0  0  0  0  0  0  0  0  0  0  0
   16.2760   -0.0000    0.0000 C   0  0  0  0  0  0  0  0  0  0  0  0
   14.7760   -0.0000    0.0000 C   0  0  0  0  0  0  0  0  0  0  0  0
   13.2760   -0.0000    0.0000 C   0  0  0  0  0  0  0  0  0  0  0  0
   11.7760   -0.0000    0.0000 C   0  0  0  0  0  0  0  0  0  0  0  0
   10.2760   -0.0000    0.0000 C   0  0  0  0  0  0  0  0  0  0  0  0
    8.7760   -0.0000    0.0000 C   0  0  0  0  0  0  0  0  0  0  0  0
    7.2760   -0.0000    0.0000 C   0  0  0  0  0  0  0  0  0  0  0  0
    5.7760   -0.0000    0.0000 C   0  0  0  0  0  0  0  0  0  0  0  0
    4.2760   -0.0000    0.0000 C   0  0  0  0  0  0  0  0  0  0  0  0
    2.7760    0.0000    0.0000 C   0  0  0  0  0  0  0  0  0  0  0  0
    1.2760    0.0000    0.0000 C   0  0  0  0  0  0  0  0  0  0  0  0
    0.3943    1.2135    0.0000 C   0  0  0  0  0  0  0  0  0  0  0  0
   -1.0323    0.7500    0.0000 C   0  0  0  0  0  0  0  0  0  0  0  0
   -1.0323   -0.7500    0.0000 C   0  0  0  0  0  0  0  0  0  0  0  0
    0.3943   -1.2135    0.0000 C   0  0  0  0  0  0  0  0  0  0  0  0
  1  2  1  0
  2  3  2  0
  2  4  1  0
  4  5  3  0
  5  6  1  0
  6  7  3  0
  7  8  1  0
  8  9  3  0
  9 10  1  0
 10 11  3  0
 11 12  1  0
 12 13  3  0
 13 14  1  0
 14 15  3  0
 15 16  1  0
 16 17  2  0
 17 18  1  0
 18 19  2  0
 19 20  1  0
 20 16  1  0
M  END
>  <Title>  (3) 
idAAACgen13

$$$$

     RDKit          2D

 12 12  0  0  0  0  0  0  0  0999 V2000
   10.5000    0.0000    0.0000 C   0  0  0  0  0  0  0  0  0  0  0  0
    9.0000    0.0000    0.0000 C   0  0  0  0  0  0  0  0  0  0  0  0
    7.5000    0.0000    0.0000 C   0  0  0  0  0  0  0  0  0  0  0  0
    6.0000    0.0000    0.0000 C   0  0  0  0  0  0  0  0  0  0  0  0
    4.5000    0.0000    0.0000 C   0  0  0  0  0  0  0  0  0  0  0  0
    3.0000    0.0000    0.0000 C   0  0  0  0  0  0  0  0  0  0  0  0
    1.5000    0.0000    0.0000 C   0  0  0  0  0  0  0  0  0  0  0  0
    0.7500   -1.2990    0.0000 C   0  0  0  0  0  0  0  0  0  0  0  0
   -0.7500   -1.2990    0.0000 C   0  0  0  0  0  0  0  0  0  0  0  0
   -1.5000    0.0000    0.0000 C   0  0  0  0  0  0  0  0  0  0  0  0
   -0.7500    1.2990    0.0000 C   0  0  0  0  0  0  0  0  0  0  0  0
    0.7500    1.2990    0.0000 C   0  0  0  0  0  0  0  0  0  0  0  0
  1  2  3  0
  2  3  1  0
  3  4  3  0
  4  5  1  0
  5  6  3  0
  6  7  1  0
  7  8  2  0
  8  9  1  0
  9 10  2  0
 10 11  1  0
 11 12  2  0
 12  7  1  0
M  END
>  <Title>  (4) 
idAAADgen13

$$$$

     RDKit          2D

  8  7  0  0  0  0  0  0  0  0999 V2000
    0.0000    0.0000    0.0000 C   0  0  0  0  0  0  0  0  0  0  0  0
    1.2990    0.7500    0.0000 C   0  0  0  0  0  0  0  0  0  0  0  0
    2.5981   -0.0000    0.0000 C   0  0  0  0  0  0  0  0  0  0  0  0
    3.8971    0.7500    0.0000 C   0  0  0  0  0  0  0  0  0  0  0  0
    3.8971    2.2500    0.0000 O   0  0  0  0  0  0  0  0  0  0  0  0
    5.1962   -0.0000    0.0000 C   0  0  0  0  0  0  0  0  0  0  0  0
    6.4952    0.7500    0.0000 C   0  0  0  0  0  0  0  0  0  0  0  0
    5.1962   -1.5000    0.0000 F   0  0  0  0  0  0  0  0  0  0  0  0
  1  2  2  0
  2  3  1  0
  3  4  1  0
  4  5  2  0
  4  6  1  0
  6  7  1  0
  6  8  1  0
M  END
>  <Title>  (5) 
idAAAEgen13

$$$$

     RDKit          2D

 30 30  0  0  0  0  0  0  0  0999 V2000
   19.5000    0.0000    0.0000 C   0  0  0  0  0  0  0  0  0  0  0  0
   18.0000    0.0000    0.0000 C   0  0  0  0  0  0  0  0  0  0  0  0
   16.5000    0.0000    0.0000 C   0  0  0  0  0  0  0  0  0  0  0  0
   15.0000    0.0000    0.0000 C   0  0  0  0  0  0  0  0  0  0  0  0
   13.5000    0.0000    0.0000 C   0  0  0  0  0  0  0  0  0  0  0  0
   12.0000    0.0000    0.0000 C   0  0  0  0  0  0  0  0  0  0  0  0
   10.5000    0.0000    0.0000 C   0  0  0  0  0  0  0  0  0  0  0  0
    9.0000    0.0000    0.0000 C   0  0  0  0  0  0  0  0  0  0  0  0
    7.5000    0.0000    0.0000 C   0  0  0  0  0  0  0  0  0  0  0  0
    6.0000    0.0000    0.0000 C   0  0  0  0  0  0  0  0  0  0  0  0
    4.5000    0.0000    0.0000 C   0  0  0  0  0  0  0  0  0  0  0  0
    3.0000    0.0000    0.0000 C   0  0  0  0  0  0  0  0  0  0  0  0
    1.5000    0.0000    0.0000 C   0  0  0  0  0  0  0  0  0  0  0  0
    0.7500   -1.2990    0.0000 C   0  0  0  0  0  0  0  0  0  0  0  0
   -0.7500   -1.2990    0.0000 C   0  0  0  0  0  0  0  0  0  0  0  0
   -1.5000    0.0000    0.0000 C   0  0  0  0  0  0  0  0  0  0  0  0
   -0.7500    1.2990    0.0000 C   0  0  0  0  0  0  0  0  0  0  0  0
   -1.5000    2.5981    0.0000 C   0  0  0  0  0  0  0  0  0  0  0  0
   -2.2500    3.8971    0.0000 C   0  0  0  0  0  0  0  0  0  0  0  0
   -3.0000    5.1962    0.0000 C   0  0  0  0  0  0  0  0  0  0  0  0
   -3.7500    6.4952    0.0000 C   0  0  0  0  0  0  0  0  0  0  0  0
   -4.5000    7.7942    0.0000 C   0  0  0  0  0  0  0  0  0  0  0  0
   -5.2500    9.0933    0.0000 C   0  0  0  0  0  0  0  0  0  0  0  0
   -6.0000   10.3923    0.0000 C   0  0  0  0  0  0  0  0  0  0  0  0
   -6.7500   11.6913    0.0000 C   0  0  0  0  0  0  0  0  0  0  0  0
   -7.5000   12.9904    0.0000 C   0  0  0  0  0  0  0  0  0  0  0  0
   -8.2500   14.2894    0.0000 C   0  0  0  0  0  0  0  0  0  0  0  0
   -9.0000   15.5885    0.0000 C   0  0  0  0  0  0  0  0  0  0  0  0
   -9.7500   16.8875    0.0000 C   0  0  0  0  0  0  0  0  0  0  0  0
    0.7500    1.2990    0.0000 C   0  0  0  0  0  0  0  0  0  0  0  0
  1  2  3  0
  2  3  1  0
  3  4  3  0
  4  5  1  0
  5  6  3  0
  6  7  1  0
  7  8  3  0
  8  9  1  0
  9 10  3  0
 10 11  1  0
 11 12  3  0
 12 13  1  0
 13 14  2  0
 14 15  1  0
 15 16  2  0
 16 17  1  0
 17 18  1  0
 18 19  3  0
 19 20  1  0
 20 21  3  0
 21 22  1  0
 22 23  3  0
 23 24  1  0
 24 25  3  0
 25 26  1  0
 26 27  3  0
 27 28  1  0
 28 29  3  0
 17 30  2  0
 30 13  1  0
M  END
>  <Title>  (6) 
idAAAFgen13

$$$$

     RDKit          2D

  5  5  0  0  0  0  0  0  0  0999 V2000
    1.2760    0.0000    0.0000 C   0  0  0  0  0  0  0  0  0  0  0  0
    0.3943    1.2135    0.0000 C   0  0  0  0  0  0  0  0  0  0  0  0
   -1.0323    0.7500    0.0000 C   0  0  0  0  0  0  0  0  0  0  0  0
   -1.0323   -0.7500    0.0000 C   0  0  0  0  0  0  0  0  0  0  0  0
    0.3943   -1.2135    0.0000 C   0  0  0  0  0  0  0  0  0  0  0  0
  1  2  2  0
  2  3  1  0
  3  4  1  0
  4  5  2  0
  5  1  1  0
M  END
>  <Title>  (7) 
idAAAGgen13

$$$$

     RDKit          2D

 18 18  0  0  0  0  0  0  0  0999 V2000
   19.5000    0.0000    0.0000 C   0  0  0  0  0  0  0  0  0  0  0  0
   18.0000    0.0000    0.0000 C   0  0  0  0  0  0  0  0  0  0  0  0
   16.5000    0.0000    0.0000 C   0  0  0  0  0  0  0  0  0  0  0  0
   15.0000    0.0000    0.0000 C   0  0  0  0  0  0  0  0  0  0  0  0
   13.5000    0.0000    0.0000 C   0  0  0  0  0  0  0  0  0  0  0  0
   12.0000    0.0000    0.0000 C   0  0  0  0  0  0  0  0  0  0  0  0
   10.5000    0.0000    0.0000 C   0  0  0  0  0  0  0  0  0  0  0  0
    9.0000    0.0000    0.0000 C   0  0  0  0  0  0  0  0  0  0  0  0
    7.5000    0.0000    0.0000 C   0  0  0  0  0  0  0  0  0  0  0  0
    6.0000    0.0000    0.0000 C   0  0  0  0  0  0  0  0  0  0  0  0
    4.5000    0.0000    0.0000 C   0  0  0  0  0  0  0  0  0  0  0  0
    3.0000    0.0000    0.0000 C   0  0  0  0  0  0  0  0  0  0  0  0
    1.5000    0.0000    0.0000 C   0  0  0  0  0  0  0  0  0  0  0  0
    0.7500   -1.2990    0.0000 C   0  0  0  0  0  0  0  0  0  0  0  0
   -0.7500   -1.2990    0.0000 C   0  0  0  0  0  0  0  0  0  0  0  0
   -1.5000    0.0000    0.0000 C   0  0  0  0  0  0  0  0  0  0  0  0
   -0.7500    1.2990    0.0000 C   0  0  0  0  0  0  0  0  0  0  0  0
    0.7500    1.2990    0.0000 C   0  0  0  0  0  0  0  0  0  0  0  0
  1  2  3  0
  2  3  1  0
  3  4  3  0
  4  5  1  0
  5  6  3  0
  6  7  1  0
  7  8  3  0
  8  9  1  0
  9 10  3  0
 10 11  1  0
 11 12  3  0
 12 13  1  0
 13 14  2  0
 14 15  1  0
 15 16  2  0
 16 17  1  0
 17 18  2  0
 18 13  1  0
M  END
>  <Title>  (8) 
idAAAHgen13

$$$$

     RDKit          2D

  5  5  0  0  0  0  0  0  0  0999 V2000
    1.2760    0.0000    0.0000 C   0  0  0  0  0  0  0  0  0  0  0  0
    0.3943    1.2135    0.0000 C   0  0  0  0  0  0  0  0  0  0  0  0
   -1.0323    0.7500    0.0000 C   0  0  0  0  0  0  0  0  0  0  0  0
   -1.0323   -0.7500    0.0000 C   0  0  0  0  0  0  0  0  0  0  0  0
    0.3943   -1.2135    0.0000 C   0  0  0  0  0  0  0  0  0  0  0  0
  1  2  2  0
  2  3  1  0
  3  4  1  0
  4  5  2  0
  5  1  1  0
M  END
>  <Title>  (9) 
idAAAIgen13

$$$$

     RDKit          2D

 73 73  0  0  0  0  0  0  0  0999 V2000
  103.2760   -0.0000    0.0000 C   0  0  0  0  0  0  0  0  0  0  0  0
  101.7760   -0.0000    0.0000 C   0  0  0  0  0  0  0  0  0  0  0  0
  100.2760   -0.0000    0.0000 C   0  0  0  0  0  0  0  0  0  0  0  0
   98.7760   -0.0000    0.0000 C   0  0  0  0  0  0  0  0  0  0  0  0
   97.2760   -0.0000    0.0000 C   0  0  0  0  0  0  0  0  0  0  0  0
   95.7760   -0.0000    0.0000 C   0  0  0  0  0  0  0  0  0  0  0  0
   94.2760   -0.0000    0.0000 C   0  0  0  0  0  0  0  0  0  0  0  0
   92.7760   -0.0000    0.0000 C   0  0  0  0  0  0  0  0  0  0  0  0
   91.2760   -0.0000    0.0000 C   0  0  0  0  0  0  0  0  0  0  0  0
   89.7760   -0.0000    0.0000 C   0  0  0  0  0  0  0  0  0  0  0  0
   88.2760   -0.0000    0.0000 C   0  0  0  0  0  0  0  0  0  0  0  0
   86.7760   -0.0000    0.0000 C   0  0  0  0  0  0  0  0  0  0  0  0
   85.2760   -0.0000    0.0000 C   0  0  0  0  0  0  0  0  0  0  0  0
   83.7760   -0.0000    0.0000 C   0  0  0  0  0  0  0  0  0  0  0  0
   82.2760   -0.0000    0.0000 C   0  0  0  0  0  0  0  0  0  0  0  0
   80.7760   -0.0000    0.0000 C   0  0  0  0  0  0  0  0  0  0  0  0
   79.2760   -0.0000    0.0000 C   0  0  0  0  0  0  0  0  0  0  0  0
   77.7760   -0.0000    0.0000 C   0  0  0  0  0  0  0  0  0  0  0  0
   76.2760   -0.0000    0.0000 C   0  0  0  0  0  0  0  0  0  0  0  0
   74.7760   -0.0000    0.0000 C   0  0  0  0  0  0  0  0  0  0  0  0
   73.2760   -0.0000    0.0000 C   0  0  0  0  0  0  0  0  0  0  0  0
   71.7760   -0.0000    0.0000 C   0  0  0  0  0  0  0  0  0  0  0  0
   70.2760   -0.0000    0.0000 C   0  0  0  0  0  0  0  0  0  0  0  0
   68.7760   -0.0000    0.0000 C   0  0  0  0  0  0  0  0  0  0  0  0
   67.2760   -0.0000    0.0000 C   0  0  0  0  0  0  0  0  0  0  0  0
   65.7760   -0.0000    0.0000 C   0  0  0  0  0  0  0  0  0  0  0  0
   64.2760   -0.0000    0.0000 C   0  0  0  0  0  0  0  0  0  0  0  0
   62.7760   -0.0000    0.0000 C   0  0  0  0  0  0  0  0  0  0  0  0
   61.2760   -0.0000    0.0000 C   0  0  0  0  0  0  0  0  0  0  0  0
   59.7760   -0.0000    0.0000 C   0  0  0  0  0  0  0  0  0  0  0  0
   58.2760   -0.0000    0.0000 C   0  0  0  0  0  0  0  0  0  0  0  0
   56.7760   -0.0000    0.0000 C   0  0  0  0  0  0  0  0  0  0  0  0
   55.2760   -0.0000    0.0000 C   0  0  0  0  0  0  0  0  0  0  0  0
   53.7760   -0.0000    0.0000 C   0  0  0  0  0  0  0  0  0  0  0  0
   52.2760   -0.0000    0.0000 C   0  0  0  0  0  0  0  0  0  0  0  0
   50.7760   -0.0000    0.0000 C   0  0  0  0  0  0  0  0  0  0  0  0
   49.2760   -0.0000    0.0000 C   0  0  0  0  0  0  0  0  0  0  0  0
   47.7760   -0.0000    0.0000 C   0  0  0  0  0  0  0  0  0  0  0  0
   46.2760   -0.0000    0.0000 C   0  0  0  0  0  0  0  0  0  0  0  0
   44.7760   -0.0000    0.0000 C   0  0  0  0  0  0  0  0  0  0  0  0
   43.2760   -0.0000    0.0000 C   0  0  0  0  0  0  0  0  0  0  0  0
   41.7760   -0.0000    0.0000 C   0  0  0  0  0  0  0  0  0  0  0  0
   40.2760   -0.0000    0.0000 C   0  0  0  0  0  0  0  0  0  0  0  0
   38.7760   -0.0000    0.0000 C   0  0  0  0  0  0  0  0  0  0  0  0
   37.2760   -0.0000    0.0000 C   0  0  0  0  0  0  0  0  0  0  0  0
   35.7760   -0.0000    0.0000 C   0  0  0  0  0  0  0  0  0  0  0  0
   34.2760   -0.0000    0.0000 C   0  0  0  0  0  0  0  0  0  0  0  0
   32.7760   -0.0000    0.0000 C   0  0  0  0  0  0  0  0  0  0  0  0
   31.2760   -0.0000    0.0000 C   0  0  0  0  0  0  0  0  0  0  0  0
   29.7760   -0.0000    0.0000 C   0  0  0  0  0  0  0  0  0  0  0  0
   28.2760   -0.0000    0.0000 C   0  0  0  0  0  0  0  0  0  0  0  0
   26.7760   -0.0000    0.0000 C   0  0  0  0  0  0  0  0  0  0  0  0
   25.2760   -0.0000    0.0000 C   0  0  0  0  0  0  0  0  0  0  0  0
   23.7760   -0.0000    0.0000 C   0  0  0  0  0  0  0  0  0  0  0  0
   22.2760   -0.0000    0.0000 C   0  0  0  0  0  0  0  0  0  0  0  0
   20.7760   -0.0000    0.0000 C   0  0  0  0  0  0  0  0  0  0  0  0
   19.2760   -0.0000    0.0000 C   0  0  0  0  0  0  0  0  0  0  0  0
   17.7760   -0.0000    0.0000 C   0  0  0  0  0  0  0  0  0  0  0  0
   16.2760   -0.0000    0.0000 C   0  0  0  0  0  0  0  0  0  0  0  0
   14.7760   -0.0000    0.0000 C   0  0  0  0  0  0  0  0  0  0  0  0
   13.2760   -0.0000    0.0000 C   0  0  0  0  0  0  0  0  0  0  0  0
   11.7760   -0.0000    0.0000 C   0  0  0  0  0  0  0  0  0  0  0  0
   10.2760   -0.0000    0.0000 C   0  0  0  0  0  0  0  0  0  0  0  0
    8.7760   -0.0000    0.0000 C   0  0  0  0  0  0  0  0  0  0  0  0
    7.2760   -0.0000    0.0000 C   0  0  0  0  0  0  0  0  0  0  0  0
    5.7760   -0.0000    0.0000 C   0  0  0  0  0  0  0  0  0  0  0  0
    4.2760   -0.0000    0.0000 C   0  0  0  0  0  0  0  0  0  0  0  0
    2.7760    0.0000    0.0000 C   0  0  0  0  0  0  0  0  0  0  0  0
    1.2760    0.0000    0.0000 C   0  0  0  0  0  0  0  0  0  0  0  0
    0.3943    1.2135    0.0000 C   0  0  0  0  0  0  0  0  0  0  0  0
   -1.0323    0.7500    0.0000 C   0  0  0  0  0  0  0  0  0  0  0  0
   -1.0323   -0.7500    0.0000 C   0  0  0  0  0  0  0  0  0  0  0  0
    0.3943   -1.2135    0.0000 C   0  0  0  0  0  0  0  0  0  0  0  0
  1  2  3  0
  2  3  1  0
  3  4  3  0
  4  5  1  0
  5  6  3  0
  6  7  1  0
  7  8  3  0
  8  9  1  0
  9 10  3  0
 10 11  1  0
 11 12  3  0
 12 13  1  0
 13 14  3  0
 14 15  1  0
 15 16  3  0
 16 17  1  0
 17 18  3  0
 18 19  1  0
 19 20  3  0
 20 21  1  0
 21 22  3  0
 22 23  1  0
 23 24  3  0
 24 25  1  0
 25 26  3  0
 26 27  1  0
 27 28  3  0
 28 29  1  0
 29 30  3  0
 30 31  1  0
 31 32  3  0
 32 33  1  0
 33 34  3  0
 34 35  1  0
 35 36  3  0
 36 37  1  0
 37 38  3  0
 38 39  1  0
 39 40  3  0
 40 41  1  0
 41 42  3  0
 42 43  1  0
 43 44  3  0
 44 45  1  0
 45 46  3  0
 46 47  1  0
 47 48  3  0
 48 49  1  0
 49 50  3  0
 50 51  1  0
 51 52  3  0
 52 53  1  0
 53 54  3  0
 54 55  1  0
 55 56  3  0
 56 57  1  0
 57 58  3  0
 58 59  1  0
 59 60  3  0
 60 61  1  0
 61 62  3  0
 62 63  1  0
 63 64  3  0
 64 65  1  0
 65 66  3  0
 66 67  1  0
 67 68  3  0
 68 69  1  0
 69 70  2  0
 70 71  1  0
 71 72  2  0
 72 73  1  0
 73 69  1  0
M  END
>  <Title>  (10) 
idAAAJgen13

$$$$

     RDKit          2D

  6  6  0  0  0  0  0  0  0  0999 V2000
    1.5000    0.0000    0.0000 C   0  0  0  0  0  0  0  0  0  0  0  0
    0.7500   -1.2990    0.0000 C   0  0  0  0  0  0  0  0  0  0  0  0
   -0.7500   -1.2990    0.0000 C   0  0  0  0  0  0  0  0  0  0  0  0
   -1.5000    0.0000    0.0000 C   0  0  0  0  0  0  0  0  0  0  0  0
   -0.7500    1.2990    0.0000 C   0  0  0  0  0  0  0  0  0  0  0  0
    0.7500    1.2990    0.0000 C   0  0  0  0  0  0  0  0  0  0  0  0
  1  2  2  0
  2  3  1  0
  3  4  2  0
  4  5  1  0
  5  6  2  0
  6  1  1  0
M  END
>  <Title>  (11) 
idAAAKgen13

$$$$

     RDKit          2D

  5  5  0  0  0  0  0  0  0  0999 V2000
    1.2760    0.0000    0.0000 C   0  0  0  0  0  0  0  0  0  0  0  0
    0.3943    1.2135    0.0000 C   0  0  0  0  0  0  0  0  0  0  0  0
   -1.0323    0.7500    0.0000 C   0  0  0  0  0  0  0  0  0  0  0  0
   -1.0323   -0.7500    0.0000 C   0  0  0  0  0  0  0  0  0  0  0  0
    0.3943   -1.2135    0.0000 C   0  0  0  0  0  0  0  0  0  0  0  0
  1  2  2  0
  2  3  1  0
  3  4  1  0
  4  5  2  0
  5  1  1  0
M  END
>  <Title>  (12) 
idAAALgen13

$$$$

     RDKit          2D

 35 34  0  0  0  0  0  0  0  0999 V2000
    0.0000    0.0000    0.0000 C   0  0  0  0  0  0  0  0  0  0  0  0
   -0.0000   -1.5000    0.0000 C   0  0  0  0  0  0  0  0  0  0  0  0
   -0.0000   -3.0000    0.0000 C   0  0  0  0  0  0  0  0  0  0  0  0
   -0.0000   -4.5000    0.0000 C   0  0  0  0  0  0  0  0  0  0  0  0
   -0.0000   -6.0000    0.0000 C   0  0  0  0  0  0  0  0  0  0  0  0
   -0.0000   -7.5000    0.0000 C   0  0  0  0  0  0  0  0  0  0  0  0
   -0.0000   -9.0000    0.0000 C   0  0  0  0  0  0  0  0  0  0  0  0
   -0.0000  -10.5000    0.0000 C   0  0  0  0  0  0  0  0  0  0  0  0
   -0.0000  -12.0000    0.0000 C   0  0  0  0  0  0  0  0  0  0  0  0
   -0.0000  -13.5000    0.0000 C   0  0  0  0  0  0  0  0  0  0  0  0
   -0.0000  -15.0000    0.0000 C   0  0  0  0  0  0  0  0  0  0  0  0
   -0.0000  -16.5000    0.0000 C   0  0  0  0  0  0  0  0  0  0  0  0
   -0.0000  -18.0000    0.0000 C   0  0  0  0  0  0  0  0  0  0  0  0
   -0.0000  -19.5000    0.0000 C   0  0  0  0  0  0  0  0  0  0  0  0
   -0.0000  -21.0000    0.0000 C   0  0  0  0  0  0  0  0  0  0  0  0
   -0.0000  -22.5000    0.0000 C   0  0  0  0  0  0  0  0  0  0  0  0
   -0.0000  -24.0000    0.0000 C   0  0  0  0  0  0  0  0  0  0  0  0
   -0.0000  -25.5000    0.0000 C   0  0  0  0  0  0  0  0  0  0  0  0
   -0.0000  -27.0000    0.0000 C   0  0  0  0  0  0  0  0  0  0  0  0
   -0.0000  -28.5000    0.0000 C   0  0  0  0  0  0  0  0  0  0  0  0
   -0.0000  -30.0000    0.0000 C   0  0  0  0  0  0  0  0  0  0  0  0
   -0.0000  -31.5000    0.0000 C   0  0  0  0  0  0  0  0  0  0  0  0
   -0.0000  -33.0000    0.0000 C   0  0  0  0  0  0  0  0  0  0  0  0
   -0.0000  -34.5000    0.0000 C   0  0  0  0  0  0  0  0  0  0  0  0
   -0.0000  -36.0000    0.0000 C   0  0  0  0  0  0  0  0  0  0  0  0
    1.2990  -36.7500    0.0000 N   0  0  0  0  0  0  0  0  0  0  0  0
    1.2990  -38.2500    0.0000 C   0  0  0  0  0  0  0  0  0  0  0  0
   -0.0000  -39.0000    0.0000 O   0  0  0  0  0  0  0  0  0  0  0  0
    2.5981  -39.0000    0.0000 N   0  0  0  0  0  0  0  0  0  0  0  0
    2.5981  -40.5000    0.0000 C   0  0  0  0  0  0  0  0  0  0  0  0
    3.8971  -41.2500    0.0000 C   0  0  0  0  0  0  0  0  0  0  0  0
    1.2990  -41.2500    0.0000 C   0  0  0  0  0  0  0  0  0  0  0  0
    1.2990  -42.7500    0.0000 C   0  0  0  0  0  0  0  0  0  0  0  0
   -0.0000  -43.5000    0.0000 C   0  0  0  0  0  0  0  0  0  0  0  0
    2.5981  -43.5000    0.0000 C   0  0  0  0  0  0  0  0  0  0  0  0
  1  2  3  0
  2  3  1  0
  3  4  3  0
  4  5  1  0
  5  6  3  0
  6  7  1  0
  7  8  3  0
  8  9  1  0
  9 10  3  0
 10 11  1  0
 11 12  3  0
 12 13  1  0
 13 14  3  0
 14 15  1  0
 15 16  3  0
 16 17  1  0
 17 18  3  0
 18 19  1  0
 19 20  3  0
 20 21  1  0
 21 22  3  0
 22 23  1  0
 23 24  3  0
 24 25  1  0
 25 26  1  0
 26 27  1  0
 27 28  2  0
 27 29  1  0
 29 30  1  0
 30 31  1  0
 30 32  1  0
 32 33  1  0
 33 34  1  0
 33 35  1  0
M  END
>  <Title>  (13) 
idAAAMgen13

$$$$

     RDKit          2D

  6  6  0  0  0  0  0  0  0  0999 V2000
    1.5000    0.0000    0.0000 C   0  0  0  0  0  0  0  0  0  0  0  0
    0.7500   -1.2990    0.0000 C   0  0  0  0  0  0  0  0  0  0  0  0
   -0.7500   -1.2990    0.0000 C   0  0  0  0  0  0  0  0  0  0  0  0
   -1.5000    0.0000    0.0000 C   0  0  0  0  0  0  0  0  0  0  0  0
   -0.7500    1.2990    0.0000 C   0  0  0  0  0  0  0  0  0  0  0  0
    0.7500    1.2990    0.0000 C   0  0  0  0  0  0  0  0  0  0  0  0
  1  2  2  0
  2  3  1  0
  3  4  2  0
  4  5  1  0
  5  6  2  0
  6  1  1  0
M  END
>  <Title>  (14) 
idAAANgen13

$$$$

     RDKit          2D

 11 11  0  0  0  0  0  0  0  0999 V2000
   10.2760   -0.0000    0.0000 C   0  0  0  0  0  0  0  0  0  0  0  0
    8.7760   -0.0000    0.0000 C   0  0  0  0  0  0  0  0  0  0  0  0
    7.2760   -0.0000    0.0000 C   0  0  0  0  0  0  0  0  0  0  0  0
    5.7760   -0.0000    0.0000 C   0  0  0  0  0  0  0  0  0  0  0  0
    4.2760   -0.0000    0.0000 C   0  0  0  0  0  0  0  0  0  0  0  0
    2.7760    0.0000    0.0000 C   0  0  0  0  0  0  0  0  0  0  0  0
    1.2760    0.0000    0.0000 C   0  0  0  0  0  0  0  0  0  0  0  0
    0.3943    1.2135    0.0000 C   0  0  0  0  0  0  0  0  0  0  0  0
   -1.0323    0.7500    0.0000 C   0  0  0  0  0  0  0  0  0  0  0  0
   -1.0323   -0.7500    0.0000 C   0  0  0  0  0  0  0  0  0  0  0  0
    0.3943   -1.2135    0.0000 C   0  0  0  0  0  0  0  0  0  0  0  0
  1  2  3  0
  2  3  1  0
  3  4  3  0
  4  5  1  0
  5  6  3  0
  6  7  1  0
  7  8  2  0
  8  9  1  0
  9 10  1  0
 10 11  2  0
 11  7  1  0
M  END
>  <Title>  (15) 
idAAAOgen13

$$$$

     RDKit          2D

  6  6  0  0  0  0  0  0  0  0999 V2000
    1.5000    0.0000    0.0000 C   0  0  0  0  0  0  0  0  0  0  0  0
    0.7500   -1.2990    0.0000 C   0  0  0  0  0  0  0  0  0  0  0  0
   -0.7500   -1.2990    0.0000 C   0  0  0  0  0  0  0  0  0  0  0  0
   -1.5000    0.0000    0.0000 C   0  0  0  0  0  0  0  0  0  0  0  0
   -0.7500    1.2990    0.0000 C   0  0  0  0  0  0  0  0  0  0  0  0
    0.7500    1.2990    0.0000 C   0  0  0  0  0  0  0  0  0  0  0  0
  1  2  2  0
  2  3  1  0
  3  4  2  0
  4  5  1  0
  5  6  2  0
  6  1  1  0
M  END
>  <Title>  (16) 
idAAAPgen13

$$$$

     RDKit          2D

 11 11  0  0  0  0  0  0  0  0999 V2000
   10.2760   -0.0000    0.0000 C   0  0  0  0  0  0  0  0  0  0  0  0
    8.7760   -0.0000    0.0000 C   0  0  0  0  0  0  0  0  0  0  0  0
    7.2760   -0.0000    0.0000 C   0  0  0  0  0  0  0  0  0  0  0  0
    5.7760   -0.0000    0.0000 C   0  0  0  0  0  0  0  0  0  0  0  0
    4.2760   -0.0000    0.0000 C   0  0  0  0  0  0  0  0  0  0  0  0
    2.7760    0.0000    0.0000 C   0  0  0  0  0  0  0  0  0  0  0  0
    1.2760    0.0000    0.0000 C   0  0  0  0  0  0  0  0  0  0  0  0
    0.3943    1.2135    0.0000 C   0  0  0  0  0  0  0  0  0  0  0  0
   -1.0323    0.7500    0.0000 C   0  0  0  0  0  0  0  0  0  0  0  0
   -1.0323   -0.7500    0.0000 C   0  0  0  0  0  0  0  0  0  0  0  0
    0.3943   -1.2135    0.0000 C   0  0  0  0  0  0  0  0  0  0  0  0
  1  2  3  0
  2  3  1  0
  3  4  3  0
  4  5  1  0
  5  6  3  0
  6  7  1  0
  7  8  2  0
  8  9  1  0
  9 10  1  0
 10 11  2  0
 11  7  1  0
M  END
>  <Title>  (17) 
idAAAQgen13

$$$$

     RDKit          2D

 51 54  0  0  0  0  0  0  0  0999 V2000
  -43.5000   -2.5981    0.0000 C   0  0  0  0  0  0  0  0  0  0  0  0
  -42.0000   -2.5981    0.0000 C   0  0  0  0  0  0  0  0  0  0  0  0
  -40.5000   -2.5981    0.0000 C   0  0  0  0  0  0  0  0  0  0  0  0
  -39.0000   -2.5981    0.0000 C   0  0  0  0  0  0  0  0  0  0  0  0
  -37.5000   -2.5981    0.0000 C   0  0  0  0  0  0  0  0  0  0  0  0
  -36.0000   -2.5981    0.0000 C   0  0  0  0  0  0  0  0  0  0  0  0
  -34.5000   -2.5981    0.0000 C   0  0  0  0  0  0  0  0  0  0  0  0
  -33.0000   -2.5981    0.0000 C   0  0  0  0  0  0  0  0  0  0  0  0
  -31.5000   -2.5981    0.0000 C   0  0  0  0  0  0  0  0  0  0  0  0
  -30.0000   -2.5981    0.0000 C   0  0  0  0  0  0  0  0  0  0  0  0
  -28.5000   -2.5981    0.0000 C   0  0  0  0  0  0  0  0  0  0  0  0
  -27.0000   -2.5981    0.0000 C   0  0  0  0  0  0  0  0  0  0  0  0
  -25.5000   -2.5981    0.0000 C   0  0  0  0  0  0  0  0  0  0  0  0
  -24.0000   -2.5981    0.0000 C   0  0  0  0  0  0  0  0  0  0  0  0
  -22.5000   -2.5981    0.0000 C   0  0  0  0  0  0  0  0  0  0  0  0
  -21.0000   -2.5981    0.0000 C   0  0  0  0  0  0  0  0  0  0  0  0
  -19.5000   -2.5981    0.0000 C   0  0  0  0  0  0  0  0  0  0  0  0
  -18.0000   -2.5981    0.0000 C   0  0  0  0  0  0  0  0  0  0  0  0
  -16.5000   -2.5981    0.0000 C   0  0  0  0  0  0  0  0  0  0  0  0
  -15.0000   -2.5981    0.0000 C   0  0  0  0  0  0  0  0  0  0  0  0
  -13.5000   -2.5981    0.0000 C   0  0  0  0  0  0  0  0  0  0  0  0
  -12.0000   -2.5981    0.0000 C   0  0  0  0  0  0  0  0  0  0  0  0
  -10.5000   -2.5981    0.0000 C   0  0  0  0  0  0  0  0  0  0  0  0
   -9.0000   -2.5981    0.0000 C   0  0  0  0  0  0  0  0  0  0  0  0
   -7.5000   -2.5981    0.0000 C   0  0  0  0  0  0  0  0  0  0  0  0
   -6.0000   -2.5981    0.0000 C   0  0  0  0  0  0  0  0  0  0  0  0
   -4.5000   -2.5981    0.0000 C   0  0  0  0  0  0  0  0  0  0  0  0
   -3.0000   -2.5981    0.0000 C   0  0  0  0  0  0  0  0  0  0  0  0
   -1.5000   -2.5981    0.0000 C   0  0  0  0  0  0  0  0  0  0  0  0
   -0.7500   -3.8971    0.0000 C   0  0  0  0  0  0  0  0  0  0  0  0
    0.7500   -3.8971    0.0000 N   0  0  0  0  0  0  0  0  0  0  0  0
    1.5000   -2.5981    0.0000 C   0  0  0  0  0  0  0  0  0  0  0  0
    3.0000   -2.5981    0.0000 C   0  0  0  0  0  0  0  0  0  0  0  0
    3.7500   -3.8971    0.0000 N   0  0  0  0  0  0  0  0  0  0  0  0
    5.2418   -4.0539    0.0000 C   0  0  0  0  0  0  0  0  0  0  0  0
    5.5537   -5.5211    0.0000 C   0  0  0  0  0  0  0  0  0  0  0  0
    4.2546   -6.2711    0.0000 C   0  0  0  0  0  0  0  0  0  0  0  0
    4.0978   -7.7629    0.0000 N   0  0  0  0  0  0  0  0  0  0  0  0
    2.7275   -8.3730    0.0000 C   0  0  0  0  0  0  0  0  0  0  0  0
    2.5707   -9.8648    0.0000 C   0  0  0  0  0  0  0  0  0  0  0  0
    3.7842  -10.7465    0.0000 N   0  0  0  0  0  0  0  0  0  0  0  0
    5.1546  -10.1364    0.0000 N   0  0  0  0  0  0  0  0  0  0  0  0
    5.3113   -8.6446    0.0000 N   0  0  0  0  0  0  0  0  0  0  0  0
    3.1399   -5.2674    0.0000 C   0  0  0  0  0  0  0  0  0  0  0  0
    1.6727   -5.5793    0.0000 O   0  0  0  0  0  0  0  0  0  0  0  0
    0.7500   -1.2990    0.0000 C   0  0  0  0  0  0  0  0  0  0  0  0
    1.5000    0.0000    0.0000 C   0  0  0  0  0  0  0  0  0  0  0  0
    0.7500    1.2990    0.0000 C   0  0  0  0  0  0  0  0  0  0  0  0
   -0.7500    1.2990    0.0000 C   0  0  0  0  0  0  0  0  0  0  0  0
   -1.5000    0.0000    0.0000 C   0  0  0  0  0  0  0  0  0  0  0  0
   -0.7500   -1.2990    0.0000 C   0  0  0  0  0  0  0  0  0  0  0  0
  1  2  3  0
  2  3  1  0
  3  4  3  0
  4  5  1  0
  5  6  3  0
  6  7  1  0
  7  8  3  0
  8  9  1  0
  9 10  3  0
 10 11  1  0
 11 12  3  0
 12 13  1  0
 13 14  3  0
 14 15  1  0
 15 16  3  0
 16 17  1  0
 17 18  3  0
 18 19  1  0
 19 20  3  0
 20 21  1  0
 21 22  3  0
 22 23  1  0
 23 24  3  0
 24 25  1  0
 25 26  3  0
 26 27  1  0
 27 28  3  0
 28 29  1  0
 29 30  1  0
 30 31  1  0
 31 32  1  0
 32 33  1  0
 33 34  1  0
 34 35  1  0
 35 36  1  0
 36 37  1  0
 37 38  1  0
 38 39  1  0
 39 40  1  0
 40 41  2  0
 41 42  1  0
 42 43  2  0
 37 44  1  0
 44 45  2  0
 32 46  1  0
 46 47  2  0
 47 48  1  0
 48 49  2  0
 49 50  1  0
 50 51  2  0
 51 29  1  0
 44 34  1  0
 51 46  1  0
 43 38  1  0
M  END
>  <Title>  (18) 
idAAARgen13

$$$$

     RDKit          2D

  7  6  0  0  0  0  0  0  0  0999 V2000
    0.0000    0.0000    0.0000 C   0  0  0  0  0  0  0  0  0  0  0  0
    1.2990    0.7500    0.0000 C   0  0  0  0  0  0  0  0  0  0  0  0
    2.5981   -0.0000    0.0000 C   0  0  0  0  0  0  0  0  0  0  0  0
    3.8971    0.7500    0.0000 N   0  0  0  0  0  0  0  0  0  0  0  0
    5.1962   -0.0000    0.0000 C   0  0  0  0  0  0  0  0  0  0  0  0
    6.4952    0.7500    0.0000 C   0  0  0  0  0  0  0  0  0  0  0  0
    7.7942   -0.0000    0.0000 C   0  0  0  0  0  0  0  0  0  0  0  0
  1  2  1  0
  2  3  2  3
  3  4  1  0
  4  5  1  0
  5  6  1  0
  6  7  1  0
M  END
>  <Title>  (19) 
idAAASgen13

$$$$

     RDKit          2D

 17 17  0  0  0  0  0  0  0  0999 V2000
   19.2760   -0.0000    0.0000 C   0  0  0  0  0  0  0  0  0  0  0  0
   17.7760   -0.0000    0.0000 C   0  0  0  0  0  0  0  0  0  0  0  0
   16.2760   -0.0000    0.0000 C   0  0  0  0  0  0  0  0  0  0  0  0
   14.7760   -0.0000    0.0000 C   0  0  0  0  0  0  0  0  0  0  0  0
   13.2760   -0.0000    0.0000 C   0  0  0  0  0  0  0  0  0  0  0  0
   11.7760   -0.0000    0.0000 C   0  0  0  0  0  0  0  0  0  0  0  0
   10.2760   -0.0000    0.0000 C   0  0  0  0  0  0  0  0  0  0  0  0
    8.7760   -0.0000    0.0000 C   0  0  0  0  0  0  0  0  0  0  0  0
    7.2760   -0.0000    0.0000 C   0  0  0  0  0  0  0  0  0  0  0  0
    5.7760   -0.0000    0.0000 C   0  0  0  0  0  0  0  0  0  0  0  0
    4.2760   -0.0000    0.0000 C   0  0  0  0  0  0  0  0  0  0  0  0
    2.7760    0.0000    0.0000 C   0  0  0  0  0  0  0  0  0  0  0  0
    1.2760    0.0000    0.0000 C   0  0  0  0  0  0  0  0  0  0  0  0
    0.3943    1.2135    0.0000 C   0  0  0  0  0  0  0  0  0  0  0  0
   -1.0323    0.7500    0.0000 C   0  0  0  0  0  0  0  0  0  0  0  0
   -1.0323   -0.7500    0.0000 C   0  0  0  0  0  0  0  0  0  0  0  0
    0.3943   -1.2135    0.0000 C   0  0  0  0  0  0  0  0  0  0  0  0
  1  2  3  0
  2  3  1  0
  3  4  3  0
  4  5  1  0
  5  6  3  0
  6  7  1  0
  7  8  3  0
  8  9  1  0
  9 10  3  0
 10 11  1  0
 11 12  3  0
 12 13  1  0
 13 14  2  0
 14 15  1  0
 15 16  2  0
 16 17  1  0
 17 13  1  0
M  END
>  <Title>  (20) 
idAAATgen13

$$$$

     RDKit          2D

  7  6  0  0  0  0  0  0  0  0999 V2000
    0.0000    0.0000    0.0000 C   0  0  0  0  0  0  0  0  0  0  0  0
   -0.0000   -1.5000    0.0000 C   0  0  0  0  0  0  0  0  0  0  0  0
   -0.0000   -3.0000    0.0000 C   0  0  0  0  0  0  0  0  0  0  0  0
   -0.0000   -4.5000    0.0000 C   0  0  0  0  0  0  0  0  0  0  0  0
   -0.0000   -6.0000    0.0000 C   0  0  0  0  0  0  0  0  0  0  0  0
    1.2990   -6.7500    0.0000 C   0  0  0  0  0  0  0  0  0  0  0  0
   -1.2990   -6.7500    0.0000 Br  0  0  0  0  0  0  0  0  0  0  0  0
  1  2  3  0
  2  3  1  0
  3  4  3  0
  4  5  1  0
  5  6  1  0
  5  7  1  0
M  END
>  <Title>  (21) 
idAAAUgen13

$$$$

     RDKit          2D

  9  9  0  0  0  0  0  0  0  0999 V2000
    5.0260   -1.2990    0.0000 C   0  0  0  0  0  0  0  0  0  0  0  0
    3.5260   -1.2990    0.0000 C   0  0  0  0  0  0  0  0  0  0  0  0
    2.7760    0.0000    0.0000 C   0  0  0  0  0  0  0  0  0  0  0  0
    3.5260    1.2990    0.0000 O   0  0  0  0  0  0  0  0  0  0  0  0
    1.2760    0.0000    0.0000 N   0  0  0  0  0  0  0  0  0  0  0  0
    0.3943    1.2135    0.0000 C   0  0  0  0  0  0  0  0  0  0  0  0
   -1.0323    0.7500    0.0000 C   0  0  0  0  0  0  0  0  0  0  0  0
   -1.0323   -0.7500    0.0000 C   0  0  0  0  0  0  0  0  0  0  0  0
    0.3943   -1.2135    0.0000 C   0  0  0  0  0  0  0  0  0  0  0  0
  1  2  1  0
  2  3  1  0
  3  4  2  0
  3  5  1  0
  5  6  1  0
  6  7  2  0
  7  8  1  0
  8  9  2  0
  9  5  1  0
M  END
>  <Title>  (22) 
idAAAVgen13

$$$$

     RDKit          2D

  7  7  0  0  0  0  0  0  0  0999 V2000
    3.0000    0.0000    0.0000 O   0  0  0  0  0  0  0  0  0  0  0  0
    1.5000    0.0000    0.0000 C   0  0  0  0  0  0  0  0  0  0  0  0
    0.7500   -1.2990    0.0000 C   0  0  0  0  0  0  0  0  0  0  0  0
   -0.7500   -1.2990    0.0000 C   0  0  0  0  0  0  0  0  0  0  0  0
   -1.5000    0.0000    0.0000 C   0  0  0  0  0  0  0  0  0  0  0  0
   -0.7500    1.2990    0.0000 C   0  0  0  0  0  0  0  0  0  0  0  0
    0.7500    1.2990    0.0000 C   0  0  0  0  0  0  0  0  0  0  0  0
  1  2  1  0
  2  3  2  0
  3  4  1  0
  4  5  2  0
  5  6  1  0
  6  7  2  0
  7  2  1  0
M  END
>  <Title>  (23) 
idAAAWgen13

$$$$

     RDKit          2D

 12 13  0  0  0  0  0  0  0  0999 V2000
    1.5000    0.0000    0.0000 C   0  0  0  0  0  0  0  0  0  0  0  0
    0.7500   -1.2990    0.0000 C   0  0  0  0  0  0  0  0  0  0  0  0
   -0.7500   -1.2990    0.0000 C   0  0  0  0  0  0  0  0  0  0  0  0
   -1.5000    0.0000    0.0000 C   0  0  0  0  0  0  0  0  0  0  0  0
   -3.0000    0.0000    0.0000 N   0  0  0  0  0  0  0  0  0  0  0  0
   -3.7500    1.2990    0.0000 C   0  0  0  0  0  0  0  0  0  0  0  0
   -5.2500    1.2990    0.0000 C   0  0  0  0  0  0  0  0  0  0  0  0
   -6.0000    0.0000    0.0000 N   0  0  0  0  0  0  0  0  0  0  0  0
   -5.2500   -1.2990    0.0000 N   0  0  0  0  0  0  0  0  0  0  0  0
   -3.7500   -1.2990    0.0000 N   0  0  0  0  0  0  0  0  0  0  0  0
   -0.7500    1.2990    0.0000 C   0  0  0  0  0  0  0  0  0  0  0  0
    0.7500    1.2990    0.0000 C   0  0  0  0  0  0  0  0  0  0  0  0
  1  2  2  0
  2  3  1  0
  3  4  1  0
  4  5  1  0
  5  6  1  0
  6  7  1  0
  7  8  2  0
  8  9  1  0
  9 10  2  0
  4 11  1  0
 11 12  2  0
 12  1  1  0
 10  5  1  0
M  END
>  <Title>  (24) 
idAAAXgen13

$$$$

     RDKit          2D

  7  7  0  0  0  0  0  0  0  0999 V2000
    3.0000    0.0000    0.0000 O   0  0  0  0  0  0  0  0  0  0  0  0
    1.5000    0.0000    0.0000 C   0  0  0  0  0  0  0  0  0  0  0  0
    0.7500   -1.2990    0.0000 C   0  0  0  0  0  0  0  0  0  0  0  0
   -0.7500   -1.2990    0.0000 C   0  0  0  0  0  0  0  0  0  0  0  0
   -1.5000    0.0000    0.0000 C   0  0  0  0  0  0  0  0  0  0  0  0
   -0.7500    1.2990    0.0000 C   0  0  0  0  0  0  0  0  0  0  0  0
    0.7500    1.2990    0.0000 C   0  0  0  0  0  0  0  0  0  0  0  0
  1  2  1  0
  2  3  2  0
  3  4  1  0
  4  5  2  0
  5  6  1  0
  6  7  2  0
  7  2  1  0
M  END
>  <Title>  (25) 
idAAAYgen13

$$$$

     RDKit          2D

 27 28  0  0  0  0  0  0  0  0999 V2000
  -12.8055  -13.0174    0.0000 C   0  0  0  0  0  0  0  0  0  0  0  0
  -13.1937  -11.5685    0.0000 C   0  0  0  0  0  0  0  0  0  0  0  0
  -12.1331  -10.5079    0.0000 C   0  0  0  0  0  0  0  0  0  0  0  0
  -12.5213   -9.0590    0.0000 C   0  0  0  0  0  0  0  0  0  0  0  0
  -13.9702   -8.6707    0.0000 O   0  0  0  0  0  0  0  0  0  0  0  0
  -11.4606   -7.9983    0.0000 N   0  0  0  0  0  0  0  0  0  0  0  0
  -11.8489   -6.5494    0.0000 C   0  0  0  0  0  0  0  0  0  0  0  0
  -13.2977   -6.1612    0.0000 C   0  0  0  0  0  0  0  0  0  0  0  0
  -10.7882   -5.4888    0.0000 C   0  0  0  0  0  0  0  0  0  0  0  0
   -9.3393   -5.8770    0.0000 C   0  0  0  0  0  0  0  0  0  0  0  0
   -8.2786   -4.8163    0.0000 N   0  0  0  0  0  0  0  0  0  0  0  0
   -6.8298   -5.2046    0.0000 C   0  0  0  0  0  0  0  0  0  0  0  0
   -6.4415   -6.6535    0.0000 O   0  0  0  0  0  0  0  0  0  0  0  0
   -5.7691   -4.1439    0.0000 N   0  0  0  0  0  0  0  0  0  0  0  0
   -4.3202   -4.5321    0.0000 C   0  0  0  0  0  0  0  0  0  0  0  0
   -3.9320   -5.9810    0.0000 O   0  0  0  0  0  0  0  0  0  0  0  0
   -3.2595   -3.4715    0.0000 N   0  0  0  0  0  0  0  0  0  0  0  0
   -1.8107   -3.8597    0.0000 C   0  0  0  0  0  0  0  0  0  0  0  0
   -1.4224   -5.3086    0.0000 O   0  0  0  0  0  0  0  0  0  0  0  0
   -0.7500   -2.7990    0.0000 C   0  0  0  0  0  0  0  0  0  0  0  0
    0.7500   -2.7990    0.0000 C   0  0  0  0  0  0  0  0  0  0  0  0
    0.7500   -1.2990    0.0000 C   0  0  0  0  0  0  0  0  0  0  0  0
    1.5000    0.0000    0.0000 C   0  0  0  0  0  0  0  0  0  0  0  0
    0.7500    1.2990    0.0000 C   0  0  0  0  0  0  0  0  0  0  0  0
   -0.7500    1.2990    0.0000 C   0  0  0  0  0  0  0  0  0  0  0  0
   -1.5000    0.0000    0.0000 C   0  0  0  0  0  0  0  0  0  0  0  0
   -0.7500   -1.2990    0.0000 C   0  0  0  0  0  0  0  0  0  0  0  0
  1  2  1  0
  2  3  1  0
  3  4  1  0
  4  5  2  0
  4  6  1  0
  6  7  1  0
  7  8  1  0
  7  9  1  0
  9 10  1  0
 10 11  1  0
 11 12  1  0
 12 13  2  0
 12 14  1  0
 14 15  1  0
 15 16  2  0
 15 17  1  0
 17 18  1  0
 18 19  2  0
 18 20  1  0
 20 21  1  0
 21 22  1  0
 22 23  2  0
 23 24  1  0
 24 25  2  0
 25 26  1  0
 26 27  2  0
 27 20  1  0
 27 22  1  0
M  END
>  <Title>  (26) 
idAAAZgen13

$$$$

     RDKit          2D

 17 17  0  0  0  0  0  0  0  0999 V2000
   18.0000    0.0000    0.0000 O   0  0  0  0  0  0  0  0  0  0  0  0
   16.5000    0.0000    0.0000 C   0  0  0  0  0  0  0  0  0  0  0  0
   15.0000    0.0000    0.0000 C   0  0  0  0  0  0  0  0  0  0  0  0
   13.5000    0.0000    0.0000 C   0  0  0  0  0  0  0  0  0  0  0  0
   12.0000    0.0000    0.0000 C   0  0  0  0  0  0  0  0  0  0  0  0
   10.5000    0.0000    0.0000 C   0  0  0  0  0  0  0  0  0  0  0  0
    9.0000    0.0000    0.0000 C   0  0  0  0  0  0  0  0  0  0  0  0
    7.5000    0.0000    0.0000 C   0  0  0  0  0  0  0  0  0  0  0  0
    6.0000    0.0000    0.0000 C   0  0  0  0  0  0  0  0  0  0  0  0
    4.5000    0.0000    0.0000 C   0  0  0  0  0  0  0  0  0  0  0  0
    3.0000    0.0000    0.0000 C   0  0  0  0  0  0  0  0  0  0  0  0
    1.5000    0.0000    0.0000 C   0  0  0  0  0  0  0  0  0  0  0  0
    0.7500   -1.2990    0.0000 C   0  0  0  0  0  0  0  0  0  0  0  0
   -0.7500   -1.2990    0.0000 C   0  0  0  0  0  0  0  0  0  0  0  0
   -1.5000    0.0000    0.0000 C   0  0  0  0  0  0  0  0  0  0  0  0
   -0.7500    1.2990    0.0000 C   0  0  0  0  0  0  0  0  0  0  0  0
    0.7500    1.2990    0.0000 C   0  0  0  0  0  0  0  0  0  0  0  0
  1  2  1  0
  2  3  3  0
  3  4  1  0
  4  5  3  0
  5  6  1  0
  6  7  3  0
  7  8  1  0
  8  9  3  0
  9 10  1  0
 10 11  3  0
 11 12  1  0
 12 13  2  0
 13 14  1  0
 14 15  2  0
 15 16  1  0
 16 17  2  0
 17 12  1  0
M  END
>  <Title>  (27) 
idAABAgen13

$$$$

     RDKit          2D

 38 37  0  0  0  0  0  0  0  0999 V2000
    0.0000    0.0000    0.0000 C   0  0  0  0  0  0  0  0  0  0  0  0
   -0.0000   -1.5000    0.0000 C   0  0  0  0  0  0  0  0  0  0  0  0
   -0.0000   -3.0000    0.0000 C   0  0  0  0  0  0  0  0  0  0  0  0
   -0.0000   -4.5000    0.0000 C   0  0  0  0  0  0  0  0  0  0  0  0
   -0.0000   -6.0000    0.0000 C   0  0  0  0  0  0  0  0  0  0  0  0
   -0.0000   -7.5000    0.0000 C   0  0  0  0  0  0  0  0  0  0  0  0
   -0.0000   -9.0000    0.0000 C   0  0  0  0  0  0  0  0  0  0  0  0
   -0.0000  -10.5000    0.0000 C   0  0  0  0  0  0  0  0  0  0  0  0
   -0.0000  -12.0000    0.0000 C   0  0  0  0  0  0  0  0  0  0  0  0
   -0.0000  -13.5000    0.0000 C   0  0  0  0  0  0  0  0  0  0  0  0
   -0.0000  -15.0000    0.0000 C   0  0  0  0  0  0  0  0  0  0  0  0
   -0.0000  -16.5000    0.0000 C   0  0  0  0  0  0  0  0  0  0  0  0
   -0.0000  -18.0000    0.0000 C   0  0  0  0  0  0  0  0  0  0  0  0
   -0.0000  -19.5000    0.0000 C   0  0  0  0  0  0  0  0  0  0  0  0
   -0.0000  -21.0000    0.0000 C   0  0  0  0  0  0  0  0  0  0  0  0
   -0.0000  -22.5000    0.0000 C   0  0  0  0  0  0  0  0  0  0  0  0
   -0.0000  -24.0000    0.0000 C   0  0  0  0  0  0  0  0  0  0  0  0
   -0.0000  -25.5000    0.0000 C   0  0  0  0  0  0  0  0  0  0  0  0
   -0.0000  -27.0000    0.0000 C   0  0  0  0  0  0  0  0  0  0  0  0
   -0.0000  -28.5000    0.0000 C   0  0  0  0  0  0  0  0  0  0  0  0
   -0.0000  -30.0000    0.0000 C   0  0  0  0  0  0  0  0  0  0  0  0
   -0.0000  -31.5000    0.0000 C   0  0  0  0  0  0  0  0  0  0  0  0
   -0.0000  -33.0000    0.0000 C   0  0  0  0  0  0  0  0  0  0  0  0
   -0.0000  -34.5000    0.0000 C   0  0  0  0  0  0  0  0  0  0  0  0
   -0.0000  -36.0000    0.0000 C   0  0  0  0  0  0  0  0  0  0  0  0
   -0.0000  -37.5000    0.0000 C   0  0  0  0  0  0  0  0  0  0  0  0
   -0.0000  -39.0000    0.0000 C   0  0  0  0  0  0  0  0  0  0  0  0
    1.2990  -39.7500    0.0000 N   0  0  0  0  0  0  0  0  0  0  0  0
    1.2990  -41.2500    0.0000 C   0  0  0  0  0  0  0  0  0  0  0  0
   -0.0000  -42.0000    0.0000 O   0  0  0  0  0  0  0  0  0  0  0  0
    2.5981  -42.0000    0.0000 N   0  0  0  0  0  0  0  0  0  0  0  0
    2.5981  -43.5000    0.0000 C   0  0  0  0  0  0  0  0  0  0  0  0
    1.2990  -44.2500    0.0000 C   0  0  0  0  0  0  0  0  0  0  0  0
    1.2990  -45.7500    0.0000 C   0  0  0  0  0  0  0  0  0  0  0  0
    3.8971  -44.2500    0.0000 C   0  0  0  0  0  0  0  0  0  0  0  0
    3.8971  -45.7500    0.0000 C   0  0  0  0  0  0  0  0  0  0  0  0
    5.1962  -46.5000    0.0000 C   0  0  0  0  0  0  0  0  0  0  0  0
    2.5981  -46.5000    0.0000 C   0  0  0  0  0  0  0  0  0  0  0  0
  1  2  3  0
  2  3  1  0
  3  4  3  0
  4  5  1  0
  5  6  3  0
  6  7  1  0
  7  8  3  0
  8  9  1  0
  9 10  3  0
 10 11  1  0
 11 12  3  0
 12 13  1  0
 13 14  3  0
 14 15  1  0
 15 16  3  0
 16 17  1  0
 17 18  3  0
 18 19  1  0
 19 20  3  0
 20 21  1  0
 21 22  3  0
 22 23  1  0
 23 24  3  0
 24 25  1  0
 25 26  3  0
 26 27  1  0
 27 28  1  0
 28 29  1  0
 29 30  2  0
 29 31  1  0
 31 32  1  0
 32 33  1  0
 33 34  2  0
 32 35  1  0
 35 36  1  0
 36 37  1  0
 36 38  1  0
M  END
>  <Title>  (28) 
idAABBgen13

$$$$

     RDKit          2D

 19 18  0  0  0  0  0  0  0  0999 V2000
    0.0000    0.0000    0.0000 C   0  0  0  0  0  0  0  0  0  0  0  0
   -0.0000   -1.5000    0.0000 C   0  0  0  0  0  0  0  0  0  0  0  0
   -0.0000   -3.0000    0.0000 C   0  0  0  0  0  0  0  0  0  0  0  0
   -0.0000   -4.5000    0.0000 C   0  0  0  0  0  0  0  0  0  0  0  0
   -0.0000   -6.0000    0.0000 C   0  0  0  0  0  0  0  0  0  0  0  0
   -0.0000   -7.5000    0.0000 C   0  0  0  0  0  0  0  0  0  0  0  0
   -0.0000   -9.0000    0.0000 C   0  0  0  0  0  0  0  0  0  0  0  0
   -0.0000  -10.5000    0.0000 C   0  0  0  0  0  0  0  0  0  0  0  0
   -0.0000  -12.0000    0.0000 C   0  0  0  0  0  0  0  0  0  0  0  0
    1.2990  -12.7500    0.0000 N   0  0  0  0  0  0  0  0  0  0  0  0
    1.2990  -14.2500    0.0000 C   0  0  0  0  0  0  0  0  0  0  0  0
   -0.0000  -15.0000    0.0000 O   0  0  0  0  0  0  0  0  0  0  0  0
    2.5981  -15.0000    0.0000 N   0  0  0  0  0  0  0  0  0  0  0  0
    2.5981  -16.5000    0.0000 C   0  0  0  0  0  0  0  0  0  0  0  0
    3.8971  -17.2500    0.0000 C   0  0  0  0  0  0  0  0  0  0  0  0
    1.2990  -17.2500    0.0000 C   0  0  0  0  0  0  0  0  0  0  0  0
    1.2990  -18.7500    0.0000 C   0  0  0  0  0  0  0  0  0  0  0  0
    0.0000  -19.5000    0.0000 C   0  0  0  0  0  0  0  0  0  0  0  0
    2.5981  -19.5000    0.0000 C   0  0  0  0  0  0  0  0  0  0  0  0
  1  2  3  0
  2  3  1  0
  3  4  3  0
  4  5  1  0
  5  6  3  0
  6  7  1  0
  7  8  3  0
  8  9  1  0
  9 10  1  0
 10 11  1  0
 11 12  2  0
 11 13  1  0
 13 14  1  0
 14 15  1  0
 14 16  1  0
 16 17  1  0
 17 18  1  0
 17 19  1  0
M  END
>  <Title>  (29) 
idAABCgen13

$$$$

     RDKit          2D

 12 12  0  0  0  0  0  0  0  0999 V2000
    7.2760    0.0000    0.0000 C   0  0  0  0  0  0  0  0  0  0  0  0
    5.7760    0.0000    0.0000 C   0  0  0  0  0  0  0  0  0  0  0  0
    5.0260   -1.2990    0.0000 C   0  0  0  0  0  0  0  0  0  0  0  0
    5.7760   -2.5981    0.0000 C   0  0  0  0  0  0  0  0  0  0  0  0
    3.5260   -1.2990    0.0000 N   0  0  0  0  0  0  0  0  0  0  0  0
    2.7760    0.0000    0.0000 C   0  0  0  0  0  0  0  0  0  0  0  0
    3.5260    1.2990    0.0000 O   0  0  0  0  0  0  0  0  0  0  0  0
    1.2760    0.0000    0.0000 C   0  0  0  0  0  0  0  0  0  0  0  0
    0.3943    1.2135    0.0000 C   0  0  0  0  0  0  0  0  0  0  0  0
   -1.0323    0.7500    0.0000 C   0  0  0  0  0  0  0  0  0  0  0  0
   -1.0323   -0.7500    0.0000 C   0  0  0  0  0  0  0  0  0  0  0  0
    0.3943   -1.2135    0.0000 C   0  0  0  0  0  0  0  0  0  0  0  0
  1  2  2  0
  2  3  1  0
  3  4  1  0
  3  5  1  0
  5  6  1  0
  6  7  2  0
  6  8  1  0
  8  9  2  0
  9 10  1  0
 10 11  2  0
 11 12  1  0
 12  8  1  0
M  END
>  <Title>  (30) 
idAABDgen13

$$$$

     RDKit          2D

  4  3  0  0  0  0  0  0  0  0999 V2000
    0.0000    0.0000    0.0000 C   0  0  0  0  0  0  0  0  0  0  0  0
    1.2990    0.7500    0.0000 C   0  0  0  0  0  0  0  0  0  0  0  0
    2.5981   -0.0000    0.0000 C   0  0  0  0  0  0  0  0  0  0  0  0
    1.2990    2.2500    0.0000 C   0  0  0  0  0  0  0  0  0  0  0  0
  1  2  2  0
  2  3  1  0
  2  4  1  0
M  END
>  <Title>  (31) 
idAABEgen13

$$$$

     RDKit          2D

 22 23  0  0  0  0  0  0  0  0999 V2000
   19.2760   -0.0000    0.0000 C   0  0  0  0  0  0  0  0  0  0  0  0
   17.7760   -0.0000    0.0000 C   0  0  0  0  0  0  0  0  0  0  0  0
   16.2760   -0.0000    0.0000 C   0  0  0  0  0  0  0  0  0  0  0  0
   14.7760   -0.0000    0.0000 C   0  0  0  0  0  0  0  0  0  0  0  0
   13.2760   -0.0000    0.0000 C   0  0  0  0  0  0  0  0  0  0  0  0
   11.7760   -0.0000    0.0000 C   0  0  0  0  0  0  0  0  0  0  0  0
   10.2760   -0.0000    0.0000 C   0  0  0  0  0  0  0  0  0  0  0  0
    8.7760   -0.0000    0.0000 C   0  0  0  0  0  0  0  0  0  0  0  0
    7.2760   -0.0000    0.0000 C   0  0  0  0  0  0  0  0  0  0  0  0
    5.7760   -0.0000    0.0000 C   0  0  0  0  0  0  0  0  0  0  0  0
    4.2760   -0.0000    0.0000 C   0  0  0  0  0  0  0  0  0  0  0  0
    2.7760    0.0000    0.0000 C   0  0  0  0  0  0  0  0  0  0  0  0
    1.2760    0.0000    0.0000 C   0  0  0  0  0  0  0  0  0  0  0  0
    0.3943    1.2135    0.0000 C   0  0  0  0  0  0  0  0  0  0  0  0
   -1.0323    0.7500    0.0000 N   0  0  0  0  0  0  0  0  0  0  0  0
   -2.2458    1.6317    0.0000 C   0  0  0  0  0  0  0  0  0  0  0  0
   -3.6724    1.1682    0.0000 C   0  0  0  0  0  0  0  0  0  0  0  0
   -4.5541    2.3817    0.0000 C   0  0  0  0  0  0  0  0  0  0  0  0
   -3.6724    3.5952    0.0000 C   0  0  0  0  0  0  0  0  0  0  0  0
   -2.2458    3.1317    0.0000 C   0  0  0  0  0  0  0  0  0  0  0  0
   -1.0323   -0.7500    0.0000 N   0  0  0  0  0  0  0  0  0  0  0  0
    0.3943   -1.2135    0.0000 C   0  0  0  0  0  0  0  0  0  0  0  0
  1  2  3  0
  2  3  1  0
  3  4  3  0
  4  5  1  0
  5  6  3  0
  6  7  1  0
  7  8  3  0
  8  9  1  0
  9 10  3  0
 10 11  1  0
 11 12  3  0
 12 13  1  0
 13 14  2  0
 14 15  1  0
 15 16  1  0
 16 17  2  0
 17 18  1  0
 18 19  1  0
 19 20  1  0
 15 21  1  0
 21 22  1  0
 22 13  1  0
 20 16  1  0
M  END
>  <Title>  (32) 
idAABFgen13

$$$$

     RDKit          2D

  6  5  0  0  0  0  0  0  0  0999 V2000
    0.0000    0.0000    0.0000 C   0  0  0  0  0  0  0  0  0  0  0  0
   -0.0000   -1.5000    0.0000 C   0  0  0  0  0  0  0  0  0  0  0  0
   -0.0000   -3.0000    0.0000 C   0  0  0  0  0  0  0  0  0  0  0  0
    1.2990   -3.7500    0.0000 C   0  0  0  0  0  0  0  0  0  0  0  0
    1.2990   -5.2500    0.0000 C   0  0  0  0  0  0  0  0  0  0  0  0
    2.5981   -6.0000    0.0000 C   0  0  0  0  0  0  0  0  0  0  0  0
  1  2  3  0
  2  3  1  0
  3  4  1  0
  4  5  2  3
  5  6  1  0
M  END
>  <Title>  (33) 
idAABGgen13

$$$$

     RDKit          2D

 19 19  0  0  0  0  0  0  0  0999 V2000
   12.7500   -6.4952    0.0000 C   0  0  0  0  0  0  0  0  0  0  0  0
   12.0000   -5.1962    0.0000 C   0  0  0  0  0  0  0  0  0  0  0  0
   10.5000   -5.1962    0.0000 C   0  0  0  0  0  0  0  0  0  0  0  0
    9.7500   -3.8971    0.0000 C   0  0  0  0  0  0  0  0  0  0  0  0
    8.2500   -3.8971    0.0000 N   0  0  0  0  0  0  0  0  0  0  0  0
    7.5000   -2.5981    0.0000 C   0  0  0  0  0  0  0  0  0  0  0  0
    8.2500   -1.2990    0.0000 O   0  0  0  0  0  0  0  0  0  0  0  0
    6.0000   -2.5981    0.0000 N   0  0  0  0  0  0  0  0  0  0  0  0
    5.2500   -1.2990    0.0000 C   0  0  0  0  0  0  0  0  0  0  0  0
    6.0000    0.0000    0.0000 O   0  0  0  0  0  0  0  0  0  0  0  0
    3.7500   -1.2990    0.0000 N   0  0  0  0  0  0  0  0  0  0  0  0
    3.0000    0.0000    0.0000 C   0  0  0  0  0  0  0  0  0  0  0  0
    3.7500    1.2990    0.0000 O   0  0  0  0  0  0  0  0  0  0  0  0
    1.5000    0.0000    0.0000 C   0  0  0  0  0  0  0  0  0  0  0  0
    0.7500   -1.2990    0.0000 C   0  0  0  0  0  0  0  0  0  0  0  0
   -0.7500   -1.2990    0.0000 C   0  0  0  0  0  0  0  0  0  0  0  0
   -1.5000    0.0000    0.0000 C   0  0  0  0  0  0  0  0  0  0  0  0
   -0.7500    1.2990    0.0000 C   0  0  0  0  0  0  0  0  0  0  0  0
    0.7500    1.2990    0.0000 C   0  0  0  0  0  0  0  0  0  0  0  0
  1  2  2  0
  2  3  1  0
  3  4  1  0
  4  5  1  0
  5  6  1  0
  6  7  2  0
  6  8  1  0
  8  9  1  0
  9 10  2  0
  9 11  1  0
 11 12  1  0
 12 13  2  0
 12 14  1  0
 14 15  2  0
 15 16  1  0
 16 17  2  0
 17 18  1  0
 18 19  2  0
 19 14  1  0
M  END
>  <Title>  (34) 
idAABHgen13

$$$$

     RDKit          2D

  7  7  0  0  0  0  0  0  0  0999 V2000
    3.5260   -1.2990    0.0000 C   0  0  0  0  0  0  0  0  0  0  0  0
    2.7760    0.0000    0.0000 C   0  0  0  0  0  0  0  0  0  0  0  0
    1.2760    0.0000    0.0000 N   0  0  0  0  0  0  0  0  0  0  0  0
    0.3943    1.2135    0.0000 C   0  0  0  0  0  0  0  0  0  0  0  0
   -1.0323    0.7500    0.0000 C   0  0  0  0  0  0  0  0  0  0  0  0
   -1.0323   -0.7500    0.0000 C   0  0  0  0  0  0  0  0  0  0  0  0
    0.3943   -1.2135    0.0000 C   0  0  0  0  0  0  0  0  0  0  0  0
  1  2  2  0
  2  3  1  0
  3  4  1  0
  4  5  2  0
  5  6  1  0
  6  7  2  0
  7  3  1  0
M  END
>  <Title>  (35) 
idAABIgen13

$$$$

     RDKit          2D

  3  2  0  0  0  0  0  0  0  0999 V2000
    0.0000    0.0000    0.0000 C   0  0  0  0  0  0  0  0  0  0  0  0
    1.2990    0.7500    0.0000 C   0  0  0  0  0  0  0  0  0  0  0  0
    2.5981   -0.0000    0.0000 C   0  0  0  0  0  0  0  0  0  0  0  0
  1  2  1  0
  2  3  1  0
M  END
>  <Title>  (36) 
idAABJgen13

$$$$

     RDKit          2D

 73 73  0  0  0  0  0  0  0  0999 V2000
  103.2760   -0.0000    0.0000 C   0  0  0  0  0  0  0  0  0  0  0  0
  101.7760   -0.0000    0.0000 C   0  0  0  0  0  0  0  0  0  0  0  0
  100.2760   -0.0000    0.0000 C   0  0  0  0  0  0  0  0  0  0  0  0
   98.7760   -0.0000    0.0000 C   0  0  0  0  0  0  0  0  0  0  0  0
   97.2760   -0.0000    0.0000 C   0  0  0  0  0  0  0  0  0  0  0  0
   95.7760   -0.0000    0.0000 C   0  0  0  0  0  0  0  0  0  0  0  0
   94.2760   -0.0000    0.0000 C   0  0  0  0  0  0  0  0  0  0  0  0
   92.7760   -0.0000    0.0000 C   0  0  0  0  0  0  0  0  0  0  0  0
   91.2760   -0.0000    0.0000 C   0  0  0  0  0  0  0  0  0  0  0  0
   89.7760   -0.0000    0.0000 C   0  0  0  0  0  0  0  0  0  0  0  0
   88.2760   -0.0000    0.0000 C   0  0  0  0  0  0  0  0  0  0  0  0
   86.7760   -0.0000    0.0000 C   0  0  0  0  0  0  0  0  0  0  0  0
   85.2760   -0.0000    0.0000 C   0  0  0  0  0  0  0  0  0  0  0  0
   83.7760   -0.0000    0.0000 C   0  0  0  0  0  0  0  0  0  0  0  0
   82.2760   -0.0000    0.0000 C   0  0  0  0  0  0  0  0  0  0  0  0
   80.7760   -0.0000    0.0000 C   0  0  0  0  0  0  0  0  0  0  0  0
   79.2760   -0.0000    0.0000 C   0  0  0  0  0  0  0  0  0  0  0  0
   77.7760   -0.0000    0.0000 C   0  0  0  0  0  0  0  0  0  0  0  0
   76.2760   -0.0000    0.0000 C   0  0  0  0  0  0  0  0  0  0  0  0
   74.7760   -0.0000    0.0000 C   0  0  0  0  0  0  0  0  0  0  0  0
   73.2760   -0.0000    0.0000 C   0  0  0  0  0  0  0  0  0  0  0  0
   71.7760   -0.0000    0.0000 C   0  0  0  0  0  0  0  0  0  0  0  0
   70.2760   -0.0000    0.0000 C   0  0  0  0  0  0  0  0  0  0  0  0
   68.7760   -0.0000    0.0000 C   0  0  0  0  0  0  0  0  0  0  0  0
   67.2760   -0.0000    0.0000 C   0  0  0  0  0  0  0  0  0  0  0  0
   65.7760   -0.0000    0.0000 C   0  0  0  0  0  0  0  0  0  0  0  0
   64.2760   -0.0000    0.0000 C   0  0  0  0  0  0  0  0  0  0  0  0
   62.7760   -0.0000    0.0000 C   0  0  0  0  0  0  0  0  0  0  0  0
   61.2760   -0.0000    0.0000 C   0  0  0  0  0  0  0  0  0  0  0  0
   59.7760   -0.0000    0.0000 C   0  0  0  0  0  0  0  0  0  0  0  0
   58.2760   -0.0000    0.0000 C   0  0  0  0  0  0  0  0  0  0  0  0
   56.7760   -0.0000    0.0000 C   0  0  0  0  0  0  0  0  0  0  0  0
   55.2760   -0.0000    0.0000 C   0  0  0  0  0  0  0  0  0  0  0  0
   53.7760   -0.0000    0.0000 C   0  0  0  0  0  0  0  0  0  0  0  0
   52.2760   -0.0000    0.0000 C   0  0  0  0  0  0  0  0  0  0  0  0
   50.7760   -0.0000    0.0000 C   0  0  0  0  0  0  0  0  0  0  0  0
   49.2760   -0.0000    0.0000 C   0  0  0  0  0  0  0  0  0  0  0  0
   47.7760   -0.0000    0.0000 C   0  0  0  0  0  0  0  0  0  0  0  0
   46.2760   -0.0000    0.0000 C   0  0  0  0  0  0  0  0  0  0  0  0
   44.7760   -0.0000    0.0000 C   0  0  0  0  0  0  0  0  0  0  0  0
   43.2760   -0.0000    0.0000 C   0  0  0  0  0  0  0  0  0  0  0  0
   41.7760   -0.0000    0.0000 C   0  0  0  0  0  0  0  0  0  0  0  0
   40.2760   -0.0000    0.0000 C   0  0  0  0  0  0  0  0  0  0  0  0
   38.7760   -0.0000    0.0000 C   0  0  0  0  0  0  0  0  0  0  0  0
   37.2760   -0.0000    0.0000 C   0  0  0  0  0  0  0  0  0  0  0  0
   35.7760   -0.0000    0.0000 C   0  0  0  0  0  0  0  0  0  0  0  0
   34.2760   -0.0000    0.0000 C   0  0  0  0  0  0  0  0  0  0  0  0
   32.7760   -0.0000    0.0000 C   0  0  0  0  0  0  0  0  0  0  0  0
   31.2760   -0.0000    0.0000 C   0  0  0  0  0  0  0  0  0  0  0  0
   29.7760   -0.0000    0.0000 C   0  0  0  0  0  0  0  0  0  0  0  0
   28.2760   -0.0000    0.0000 C   0  0  0  0  0  0  0  0  0  0  0  0
   26.7760   -0.0000    0.0000 C   0  0  0  0  0  0  0  0  0  0  0  0
   25.2760   -0.0000    0.0000 C   0  0  0  0  0  0  0  0  0  0  0  0
   23.7760   -0.0000    0.0000 C   0  0  0  0  0  0  0  0  0  0  0  0
   22.2760   -0.0000    0.0000 C   0  0  0  0  0  0  0  0  0  0  0  0
   20.7760   -0.0000    0.0000 C   0  0  0  0  0  0  0  0  0  0  0  0
   19.2760   -0.0000    0.0000 C   0  0  0  0  0  0  0  0  0  0  0  0
   17.7760   -0.0000    0.0000 C   0  0  0  0  0  0  0  0  0  0  0  0
   16.2760   -0.0000    0.0000 C   0  0  0  0  0  0  0  0  0  0  0  0
   14.7760   -0.0000    0.0000 C   0  0  0  0  0  0  0  0  0  0  0  0
   13.2760   -0.0000    0.0000 C   0  0  0  0  0  0  0  0  0  0  0  0
   11.7760   -0.0000    0.0000 C   0  0  0  0  0  0  0  0  0  0  0  0
   10.2760   -0.0000    0.0000 C   0  0  0  0  0  0  0  0  0  0  0  0
    8.7760   -0.0000    0.0000 C   0  0  0  0  0  0  0  0  0  0  0  0
    7.2760   -0.0000    0.0000 C   0  0  0  0  0  0  0  0  0  0  0  0
    5.7760   -0.0000    0.0000 C   0  0  0  0  0  0  0  0  0  0  0  0
    4.2760   -0.0000    0.0000 C   0  0  0  0  0  0  0  0  0  0  0  0
    2.7760    0.0000    0.0000 C   0  0  0  0  0  0  0  0  0  0  0  0
    1.2760    0.0000    0.0000 C   0  0  0  0  0  0  0  0  0  0  0  0
    0.3943    1.2135    0.0000 C   0  0  0  0  0  0  0  0  0  0  0  0
   -1.0323    0.7500    0.0000 C   0  0  0  0  0  0  0  0  0  0  0  0
   -1.0323   -0.7500    0.0000 C   0  0  0  0  0  0  0  0  0  0  0  0
    0.3943   -1.2135    0.0000 C   0  0  0  0  0  0  0  0  0  0  0  0
  1  2  3  0
  2  3  1  0
  3  4  3  0
  4  5  1  0
  5  6  3  0
  6  7  1  0
  7  8  3  0
  8  9  1  0
  9 10  3  0
 10 11  1  0
 11 12  3  0
 12 13  1  0
 13 14  3  0
 14 15  1  0
 15 16  3  0
 16 17  1  0
 17 18  3  0
 18 19  1  0
 19 20  3  0
 20 21  1  0
 21 22  3  0
 22 23  1  0
 23 24  3  0
 24 25  1  0
 25 26  3  0
 26 27  1  0
 27 28  3  0
 28 29  1  0
 29 30  3  0
 30 31  1  0
 31 32  3  0
 32 33  1  0
 33 34  3  0
 34 35  1  0
 35 36  3  0
 36 37  1  0
 37 38  3  0
 38 39  1  0
 39 40  3  0
 40 41  1  0
 41 42  3  0
 42 43  1  0
 43 44  3  0
 44 45  1  0
 45 46  3  0
 46 47  1  0
 47 48  3  0
 48 49  1  0
 49 50  3  0
 50 51  1  0
 51 52  3  0
 52 53  1  0
 53 54  3  0
 54 55  1  0
 55 56  3  0
 56 57  1  0
 57 58  3  0
 58 59  1  0
 59 60  3  0
 60 61  1  0
 61 62  3  0
 62 63  1  0
 63 64  3  0
 64 65  1  0
 65 66  3  0
 66 67  1  0
 67 68  3  0
 68 69  1  0
 69 70  2  0
 70 71  1  0
 71 72  2  0
 72 73  1  0
 73 69  1  0
M  END
>  <Title>  (37) 
idAABKgen13

$$$$

     RDKit          2D

  3  2  0  0  0  0  0  0  0  0999 V2000
    0.0000    0.0000    0.0000 C   0  0  0  0  0  0  0  0  0  0  0  0
    1.2990    0.7500    0.0000 C   0  0  0  0  0  0  0  0  0  0  0  0
    2.5981   -0.0000    0.0000 C   0  0  0  0  0  0  0  0  0  0  0  0
  1  2  1  0
  2  3  1  0
M  END
>  <Title>  (38) 
idAABLgen13

$$$$

     RDKit          2D

 73 73  0  0  0  0  0  0  0  0999 V2000
  103.2760   -0.0000    0.0000 C   0  0  0  0  0  0  0  0  0  0  0  0
  101.7760   -0.0000    0.0000 C   0  0  0  0  0  0  0  0  0  0  0  0
  100.2760   -0.0000    0.0000 C   0  0  0  0  0  0  0  0  0  0  0  0
   98.7760   -0.0000    0.0000 C   0  0  0  0  0  0  0  0  0  0  0  0
   97.2760   -0.0000    0.0000 C   0  0  0  0  0  0  0  0  0  0  0  0
   95.7760   -0.0000    0.0000 C   0  0  0  0  0  0  0  0  0  0  0  0
   94.2760   -0.0000    0.0000 C   0  0  0  0  0  0  0  0  0  0  0  0
   92.7760   -0.0000    0.0000 C   0  0  0  0  0  0  0  0  0  0  0  0
   91.2760   -0.0000    0.0000 C   0  0  0  0  0  0  0  0  0  0  0  0
   89.7760   -0.0000    0.0000 C   0  0  0  0  0  0  0  0  0  0  0  0
   88.2760   -0.0000    0.0000 C   0  0  0  0  0  0  0  0  0  0  0  0
   86.7760   -0.0000    0.0000 C   0  0  0  0  0  0  0  0  0  0  0  0
   85.2760   -0.0000    0.0000 C   0  0  0  0  0  0  0  0  0  0  0  0
   83.7760   -0.0000    0.0000 C   0  0  0  0  0  0  0  0  0  0  0  0
   82.2760   -0.0000    0.0000 C   0  0  0  0  0  0  0  0  0  0  0  0
   80.7760   -0.0000    0.0000 C   0  0  0  0  0  0  0  0  0  0  0  0
   79.2760   -0.0000    0.0000 C   0  0  0  0  0  0  0  0  0  0  0  0
   77.7760   -0.0000    0.0000 C   0  0  0  0  0  0  0  0  0  0  0  0
   76.2760   -0.0000    0.0000 C   0  0  0  0  0  0  0  0  0  0  0  0
   74.7760   -0.0000    0.0000 C   0  0  0  0  0  0  0  0  0  0  0  0
   73.2760   -0.0000    0.0000 C   0  0  0  0  0  0  0  0  0  0  0  0
   71.7760   -0.0000    0.0000 C   0  0  0  0  0  0  0  0  0  0  0  0
   70.2760   -0.0000    0.0000 C   0  0  0  0  0  0  0  0  0  0  0  0
   68.7760   -0.0000    0.0000 C   0  0  0  0  0  0  0  0  0  0  0  0
   67.2760   -0.0000    0.0000 C   0  0  0  0  0  0  0  0  0  0  0  0
   65.7760   -0.0000    0.0000 C   0  0  0  0  0  0  0  0  0  0  0  0
   64.2760   -0.0000    0.0000 C   0  0  0  0  0  0  0  0  0  0  0  0
   62.7760   -0.0000    0.0000 C   0  0  0  0  0  0  0  0  0  0  0  0
   61.2760   -0.0000    0.0000 C   0  0  0  0  0  0  0  0  0  0  0  0
   59.7760   -0.0000    0.0000 C   0  0  0  0  0  0  0  0  0  0  0  0
   58.2760   -0.0000    0.0000 C   0  0  0  0  0  0  0  0  0  0  0  0
   56.7760   -0.0000    0.0000 C   0  0  0  0  0  0  0  0  0  0  0  0
   55.2760   -0.0000    0.0000 C   0  0  0  0  0  0  0  0  0  0  0  0
   53.7760   -0.0000    0.0000 C   0  0  0  0  0  0  0  0  0  0  0  0
   52.2760   -0.0000    0.0000 C   0  0  0  0  0  0  0  0  0  0  0  0
   50.7760   -0.0000    0.0000 C   0  0  0  0  0  0  0  0  0  0  0  0
   49.2760   -0.0000    0.0000 C   0  0  0  0  0  0  0  0  0  0  0  0
   47.7760   -0.0000    0.0000 C   0  0  0  0  0  0  0  0  0  0  0  0
   46.2760   -0.0000    0.0000 C   0  0  0  0  0  0  0  0  0  0  0  0
   44.7760   -0.0000    0.0000 C   0  0  0  0  0  0  0  0  0  0  0  0
   43.2760   -0.0000    0.0000 C   0  0  0  0  0  0  0  0  0  0  0  0
   41.7760   -0.0000    0.0000 C   0  0  0  0  0  0  0  0  0  0  0  0
   40.2760   -0.0000    0.0000 C   0  0  0  0  0  0  0  0  0  0  0  0
   38.7760   -0.0000    0.0000 C   0  0  0  0  0  0  0  0  0  0  0  0
   37.2760   -0.0000    0.0000 C   0  0  0  0  0  0  0  0  0  0  0  0
   35.7760   -0.0000    0.0000 C   0  0  0  0  0  0  0  0  0  0  0  0
   34.2760   -0.0000    0.0000 C   0  0  0  0  0  0  0  0  0  0  0  0
   32.7760   -0.0000    0.0000 C   0  0  0  0  0  0  0  0  0  0  0  0
   31.2760   -0.0000    0.0000 C   0  0  0  0  0  0  0  0  0  0  0  0
   29.7760   -0.0000    0.0000 C   0  0  0  0  0  0  0  0  0  0  0  0
   28.2760   -0.0000    0.0000 C   0  0  0  0  0  0  0  0  0  0  0  0
   26.7760   -0.0000    0.0000 C   0  0  0  0  0  0  0  0  0  0  0  0
   25.2760   -0.0000    0.0000 C   0  0  0  0  0  0  0  0  0  0  0  0
   23.7760   -0.0000    0.0000 C   0  0  0  0  0  0  0  0  0  0  0  0
   22.2760   -0.0000    0.0000 C   0  0  0  0  0  0  0  0  0  0  0  0
   20.7760   -0.0000    0.0000 C   0  0  0  0  0  0  0  0  0  0  0  0
   19.2760   -0.0000    0.0000 C   0  0  0  0  0  0  0  0  0  0  0  0
   17.7760   -0.0000    0.0000 C   0  0  0  0  0  0  0  0  0  0  0  0
   16.2760   -0.0000    0.0000 C   0  0  0  0  0  0  0  0  0  0  0  0
   14.7760   -0.0000    0.0000 C   0  0  0  0  0  0  0  0  0  0  0  0
   13.2760   -0.0000    0.0000 C   0  0  0  0  0  0  0  0  0  0  0  0
   11.7760   -0.0000    0.0000 C   0  0  0  0  0  0  0  0  0  0  0  0
   10.2760   -0.0000    0.0000 C   0  0  0  0  0  0  0  0  0  0  0  0
    8.7760   -0.0000    0.0000 C   0  0  0  0  0  0  0  0  0  0  0  0
    7.2760   -0.0000    0.0000 C   0  0  0  0  0  0  0  0  0  0  0  0
    5.7760   -0.0000    0.0000 C   0  0  0  0  0  0  0  0  0  0  0  0
    4.2760   -0.0000    0.0000 C   0  0  0  0  0  0  0  0  0  0  0  0
    2.7760    0.0000    0.0000 C   0  0  0  0  0  0  0  0  0  0  0  0
    1.2760    0.0000    0.0000 C   0  0  0  0  0  0  0  0  0  0  0  0
    0.3943    1.2135    0.0000 C   0  0  0  0  0  0  0  0  0  0  0  0
   -1.0323    0.7500    0.0000 C   0  0  0  0  0  0  0  0  0  0  0  0
   -1.0323   -0.7500    0.0000 C   0  0  0  0  0  0  0  0  0  0  0  0
    0.3943   -1.2135    0.0000 C   0  0  0  0  0  0  0  0  0  0  0  0
  1  2  3  0
  2  3  1  0
  3  4  3  0
  4  5  1  0
  5  6  3  0
  6  7  1  0
  7  8  3  0
  8  9  1  0
  9 10  3  0
 10 11  1  0
 11 12  3  0
 12 13  1  0
 13 14  3  0
 14 15  1  0
 15 16  3  0
 16 17  1  0
 17 18  3  0
 18 19  1  0
 19 20  3  0
 20 21  1  0
 21 22  3  0
 22 23  1  0
 23 24  3  0
 24 25  1  0
 25 26  3  0
 26 27  1  0
 27 28  3  0
 28 29  1  0
 29 30  3  0
 30 31  1  0
 31 32  3  0
 32 33  1  0
 33 34  3  0
 34 35  1  0
 35 36  3  0
 36 37  1  0
 37 38  3  0
 38 39  1  0
 39 40  3  0
 40 41  1  0
 41 42  3  0
 42 43  1  0
 43 44  3  0
 44 45  1  0
 45 46  3  0
 46 47  1  0
 47 48  3  0
 48 49  1  0
 49 50  3  0
 50 51  1  0
 51 52  3  0
 52 53  1  0
 53 54  3  0
 54 55  1  0
 55 56  3  0
 56 57  1  0
 57 58  3  0
 58 59  1  0
 59 60  3  0
 60 61  1  0
 61 62  3  0
 62 63  1  0
 63 64  3  0
 64 65  1  0
 65 66  3  0
 66 67  1  0
 67 68  3  0
 68 69  1  0
 69 70  2  0
 70 71  1  0
 71 72  2  0
 72 73  1  0
 73 69  1  0
M  END
>  <Title>  (39) 
idAABMgen13

$$$$

     RDKit          2D

  3  2  0  0  0  0  0  0  0  0999 V2000
    0.0000    0.0000    0.0000 C   0  0  0  0  0  0  0  0  0  0  0  0
    1.2990    0.7500    0.0000 C   0  0  0  0  0  0  0  0  0  0  0  0
    2.5981   -0.0000    0.0000 C   0  0  0  0  0  0  0  0  0  0  0  0
  1  2  1  0
  2  3  1  0
M  END
>  <Title>  (40) 
idAABNgen13

$$$$

     RDKit          2D

 73 73  0  0  0  0  0  0  0  0999 V2000
  103.2760   -0.0000    0.0000 C   0  0  0  0  0  0  0  0  0  0  0  0
  101.7760   -0.0000    0.0000 C   0  0  0  0  0  0  0  0  0  0  0  0
  100.2760   -0.0000    0.0000 C   0  0  0  0  0  0  0  0  0  0  0  0
   98.7760   -0.0000    0.0000 C   0  0  0  0  0  0  0  0  0  0  0  0
   97.2760   -0.0000    0.0000 C   0  0  0  0  0  0  0  0  0  0  0  0
   95.7760   -0.0000    0.0000 C   0  0  0  0  0  0  0  0  0  0  0  0
   94.2760   -0.0000    0.0000 C   0  0  0  0  0  0  0  0  0  0  0  0
   92.7760   -0.0000    0.0000 C   0  0  0  0  0  0  0  0  0  0  0  0
   91.2760   -0.0000    0.0000 C   0  0  0  0  0  0  0  0  0  0  0  0
   89.7760   -0.0000    0.0000 C   0  0  0  0  0  0  0  0  0  0  0  0
   88.2760   -0.0000    0.0000 C   0  0  0  0  0  0  0  0  0  0  0  0
   86.7760   -0.0000    0.0000 C   0  0  0  0  0  0  0  0  0  0  0  0
   85.2760   -0.0000    0.0000 C   0  0  0  0  0  0  0  0  0  0  0  0
   83.7760   -0.0000    0.0000 C   0  0  0  0  0  0  0  0  0  0  0  0
   82.2760   -0.0000    0.0000 C   0  0  0  0  0  0  0  0  0  0  0  0
   80.7760   -0.0000    0.0000 C   0  0  0  0  0  0  0  0  0  0  0  0
   79.2760   -0.0000    0.0000 C   0  0  0  0  0  0  0  0  0  0  0  0
   77.7760   -0.0000    0.0000 C   0  0  0  0  0  0  0  0  0  0  0  0
   76.2760   -0.0000    0.0000 C   0  0  0  0  0  0  0  0  0  0  0  0
   74.7760   -0.0000    0.0000 C   0  0  0  0  0  0  0  0  0  0  0  0
   73.2760   -0.0000    0.0000 C   0  0  0  0  0  0  0  0  0  0  0  0
   71.7760   -0.0000    0.0000 C   0  0  0  0  0  0  0  0  0  0  0  0
   70.2760   -0.0000    0.0000 C   0  0  0  0  0  0  0  0  0  0  0  0
   68.7760   -0.0000    0.0000 C   0  0  0  0  0  0  0  0  0  0  0  0
   67.2760   -0.0000    0.0000 C   0  0  0  0  0  0  0  0  0  0  0  0
   65.7760   -0.0000    0.0000 C   0  0  0  0  0  0  0  0  0  0  0  0
   64.2760   -0.0000    0.0000 C   0  0  0  0  0  0  0  0  0  0  0  0
   62.7760   -0.0000    0.0000 C   0  0  0  0  0  0  0  0  0  0  0  0
   61.2760   -0.0000    0.0000 C   0  0  0  0  0  0  0  0  0  0  0  0
   59.7760   -0.0000    0.0000 C   0  0  0  0  0  0  0  0  0  0  0  0
   58.2760   -0.0000    0.0000 C   0  0  0  0  0  0  0  0  0  0  0  0
   56.7760   -0.0000    0.0000 C   0  0  0  0  0  0  0  0  0  0  0  0
   55.2760   -0.0000    0.0000 C   0  0  0  0  0  0  0  0  0  0  0  0
   53.7760   -0.0000    0.0000 C   0  0  0  0  0  0  0  0  0  0  0  0
   52.2760   -0.0000    0.0000 C   0  0  0  0  0  0  0  0  0  0  0  0
   50.7760   -0.0000    0.0000 C   0  0  0  0  0  0  0  0  0  0  0  0
   49.2760   -0.0000    0.0000 C   0  0  0  0  0  0  0  0  0  0  0  0
   47.7760   -0.0000    0.0000 C   0  0  0  0  0  0  0  0  0  0  0  0
   46.2760   -0.0000    0.0000 C   0  0  0  0  0  0  0  0  0  0  0  0
   44.7760   -0.0000    0.0000 C   0  0  0  0  0  0  0  0  0  0  0  0
   43.2760   -0.0000    0.0000 C   0  0  0  0  0  0  0  0  0  0  0  0
   41.7760   -0.0000    0.0000 C   0  0  0  0  0  0  0  0  0  0  0  0
   40.2760   -0.0000    0.0000 C   0  0  0  0  0  0  0  0  0  0  0  0
   38.7760   -0.0000    0.0000 C   0  0  0  0  0  0  0  0  0  0  0  0
   37.2760   -0.0000    0.0000 C   0  0  0  0  0  0  0  0  0  0  0  0
   35.7760   -0.0000    0.0000 C   0  0  0  0  0  0  0  0  0  0  0  0
   34.2760   -0.0000    0.0000 C   0  0  0  0  0  0  0  0  0  0  0  0
   32.7760   -0.0000    0.0000 C   0  0  0  0  0  0  0  0  0  0  0  0
   31.2760   -0.0000    0.0000 C   0  0  0  0  0  0  0  0  0  0  0  0
   29.7760   -0.0000    0.0000 C   0  0  0  0  0  0  0  0  0  0  0  0
   28.2760   -0.0000    0.0000 C   0  0  0  0  0  0  0  0  0  0  0  0
   26.7760   -0.0000    0.0000 C   0  0  0  0  0  0  0  0  0  0  0  0
   25.2760   -0.0000    0.0000 C   0  0  0  0  0  0  0  0  0  0  0  0
   23.7760   -0.0000    0.0000 C   0  0  0  0  0  0  0  0  0  0  0  0
   22.2760   -0.0000    0.0000 C   0  0  0  0  0  0  0  0  0  0  0  0
   20.7760   -0.0000    0.0000 C   0  0  0  0  0  0  0  0  0  0  0  0
   19.2760   -0.0000    0.0000 C   0  0  0  0  0  0  0  0  0  0  0  0
   17.7760   -0.0000    0.0000 C   0  0  0  0  0  0  0  0  0  0  0  0
   16.2760   -0.0000    0.0000 C   0  0  0  0  0  0  0  0  0  0  0  0
   14.7760   -0.0000    0.0000 C   0  0  0  0  0  0  0  0  0  0  0  0
   13.2760   -0.0000    0.0000 C   0  0  0  0  0  0  0  0  0  0  0  0
   11.7760   -0.0000    0.0000 C   0  0  0  0  0  0  0  0  0  0  0  0
   10.2760   -0.0000    0.0000 C   0  0  0  0  0  0  0  0  0  0  0  0
    8.7760   -0.0000    0.0000 C   0  0  0  0  0  0  0  0  0  0  0  0
    7.2760   -0.0000    0.0000 C   0  0  0  0  0  0  0  0  0  0  0  0
    5.7760   -0.0000    0.0000 C   0  0  0  0  0  0  0  0  0  0  0  0
    4.2760   -0.0000    0.0000 C   0  0  0  0  0  0  0  0  0  0  0  0
    2.7760    0.0000    0.0000 C   0  0  0  0  0  0  0  0  0  0  0  0
    1.2760    0.0000    0.0000 C   0  0  0  0  0  0  0  0  0  0  0  0
    0.3943    1.2135    0.0000 C   0  0  0  0  0  0  0  0  0  0  0  0
   -1.0323    0.7500    0.0000 C   0  0  0  0  0  0  0  0  0  0  0  0
   -1.0323   -0.7500    0.0000 C   0  0  0  0  0  0  0  0  0  0  0  0
    0.3943   -1.2135    0.0000 C   0  0  0  0  0  0  0  0  0  0  0  0
  1  2  3  0
  2  3  1  0
  3  4  3  0
  4  5  1  0
  5  6  3  0
  6  7  1  0
  7  8  3  0
  8  9  1  0
  9 10  3  0
 10 11  1  0
 11 12  3  0
 12 13  1  0
 13 14  3  0
 14 15  1  0
 15 16  3  0
 16 17  1  0
 17 18  3  0
 18 19  1  0
 19 20  3  0
 20 21  1  0
 21 22  3  0
 22 23  1  0
 23 24  3  0
 24 25  1  0
 25 26  3  0
 26 27  1  0
 27 28  3  0
 28 29  1  0
 29 30  3  0
 30 31  1  0
 31 32  3  0
 32 33  1  0
 33 34  3  0
 34 35  1  0
 35 36  3  0
 36 37  1  0
 37 38  3  0
 38 39  1  0
 39 40  3  0
 40 41  1  0
 41 42  3  0
 42 43  1  0
 43 44  3  0
 44 45  1  0
 45 46  3  0
 46 47  1  0
 47 48  3  0
 48 49  1  0
 49 50  3  0
 50 51  1  0
 51 52  3  0
 52 53  1  0
 53 54  3  0
 54 55  1  0
 55 56  3  0
 56 57  1  0
 57 58  3  0
 58 59  1  0
 59 60  3  0
 60 61  1  0
 61 62  3  0
 62 63  1  0
 63 64  3  0
 64 65  1  0
 65 66  3  0
 66 67  1  0
 67 68  3  0
 68 69  1  0
 69 70  2  0
 70 71  1  0
 71 72  2  0
 72 73  1  0
 73 69  1  0
M  END
>  <Title>  (41) 
idAABOgen13

$$$$

     RDKit          2D

 10 10  0  0  0  0  0  0  0  0999 V2000
   10.0607    0.0000    0.0000 C   0  0  0  0  0  0  0  0  0  0  0  0
    8.5607    0.0000    0.0000 C   0  0  0  0  0  0  0  0  0  0  0  0
    7.0607    0.0000    0.0000 C   0  0  0  0  0  0  0  0  0  0  0  0
    5.5607    0.0000    0.0000 C   0  0  0  0  0  0  0  0  0  0  0  0
    4.0607    0.0000    0.0000 C   0  0  0  0  0  0  0  0  0  0  0  0
    2.5607    0.0000    0.0000 C   0  0  0  0  0  0  0  0  0  0  0  0
    1.0607    0.0000    0.0000 C   0  0  0  0  0  0  0  0  0  0  0  0
   -0.0000   -1.0607    0.0000 C   0  0  0  0  0  0  0  0  0  0  0  0
   -1.0607    0.0000    0.0000 C   0  0  0  0  0  0  0  0  0  0  0  0
    0.0000    1.0607    0.0000 C   0  0  0  0  0  0  0  0  0  0  0  0
  1  2  3  0
  2  3  1  0
  3  4  3  0
  4  5  1  0
  5  6  3  0
  6  7  1  0
  7  8  1  0
  8  9  1  0
  9 10  1  0
 10  7  1  0
M  END
>  <Title>  (42) 
idAABPgen13

$$$$

     RDKit          2D

 73 73  0  0  0  0  0  0  0  0999 V2000
  103.2760   -0.0000    0.0000 C   0  0  0  0  0  0  0  0  0  0  0  0
  101.7760   -0.0000    0.0000 C   0  0  0  0  0  0  0  0  0  0  0  0
  100.2760   -0.0000    0.0000 C   0  0  0  0  0  0  0  0  0  0  0  0
   98.7760   -0.0000    0.0000 C   0  0  0  0  0  0  0  0  0  0  0  0
   97.2760   -0.0000    0.0000 C   0  0  0  0  0  0  0  0  0  0  0  0
   95.7760   -0.0000    0.0000 C   0  0  0  0  0  0  0  0  0  0  0  0
   94.2760   -0.0000    0.0000 C   0  0  0  0  0  0  0  0  0  0  0  0
   92.7760   -0.0000    0.0000 C   0  0  0  0  0  0  0  0  0  0  0  0
   91.2760   -0.0000    0.0000 C   0  0  0  0  0  0  0  0  0  0  0  0
   89.7760   -0.0000    0.0000 C   0  0  0  0  0  0  0  0  0  0  0  0
   88.2760   -0.0000    0.0000 C   0  0  0  0  0  0  0  0  0  0  0  0
   86.7760   -0.0000    0.0000 C   0  0  0  0  0  0  0  0  0  0  0  0
   85.2760   -0.0000    0.0000 C   0  0  0  0  0  0  0  0  0  0  0  0
   83.7760   -0.0000    0.0000 C   0  0  0  0  0  0  0  0  0  0  0  0
   82.2760   -0.0000    0.0000 C   0  0  0  0  0  0  0  0  0  0  0  0
   80.7760   -0.0000    0.0000 C   0  0  0  0  0  0  0  0  0  0  0  0
   79.2760   -0.0000    0.0000 C   0  0  0  0  0  0  0  0  0  0  0  0
   77.7760   -0.0000    0.0000 C   0  0  0  0  0  0  0  0  0  0  0  0
   76.2760   -0.0000    0.0000 C   0  0  0  0  0  0  0  0  0  0  0  0
   74.7760   -0.0000    0.0000 C   0  0  0  0  0  0  0  0  0  0  0  0
   73.2760   -0.0000    0.0000 C   0  0  0  0  0  0  0  0  0  0  0  0
   71.7760   -0.0000    0.0000 C   0  0  0  0  0  0  0  0  0  0  0  0
   70.2760   -0.0000    0.0000 C   0  0  0  0  0  0  0  0  0  0  0  0
   68.7760   -0.0000    0.0000 C   0  0  0  0  0  0  0  0  0  0  0  0
   67.2760   -0.0000    0.0000 C   0  0  0  0  0  0  0  0  0  0  0  0
   65.7760   -0.0000    0.0000 C   0  0  0  0  0  0  0  0  0  0  0  0
   64.2760   -0.0000    0.0000 C   0  0  0  0  0  0  0  0  0  0  0  0
   62.7760   -0.0000    0.0000 C   0  0  0  0  0  0  0  0  0  0  0  0
   61.2760   -0.0000    0.0000 C   0  0  0  0  0  0  0  0  0  0  0  0
   59.7760   -0.0000    0.0000 C   0  0  0  0  0  0  0  0  0  0  0  0
   58.2760   -0.0000    0.0000 C   0  0  0  0  0  0  0  0  0  0  0  0
   56.7760   -0.0000    0.0000 C   0  0  0  0  0  0  0  0  0  0  0  0
   55.2760   -0.0000    0.0000 C   0  0  0  0  0  0  0  0  0  0  0  0
   53.7760   -0.0000    0.0000 C   0  0  0  0  0  0  0  0  0  0  0  0
   52.2760   -0.0000    0.0000 C   0  0  0  0  0  0  0  0  0  0  0  0
   50.7760   -0.0000    0.0000 C   0  0  0  0  0  0  0  0  0  0  0  0
   49.2760   -0.0000    0.0000 C   0  0  0  0  0  0  0  0  0  0  0  0
   47.7760   -0.0000    0.0000 C   0  0  0  0  0  0  0  0  0  0  0  0
   46.2760   -0.0000    0.0000 C   0  0  0  0  0  0  0  0  0  0  0  0
   44.7760   -0.0000    0.0000 C   0  0  0  0  0  0  0  0  0  0  0  0
   43.2760   -0.0000    0.0000 C   0  0  0  0  0  0  0  0  0  0  0  0
   41.7760   -0.0000    0.0000 C   0  0  0  0  0  0  0  0  0  0  0  0
   40.2760   -0.0000    0.0000 C   0  0  0  0  0  0  0  0  0  0  0  0
   38.7760   -0.0000    0.0000 C   0  0  0  0  0  0  0  0  0  0  0  0
   37.2760   -0.0000    0.0000 C   0  0  0  0  0  0  0  0  0  0  0  0
   35.7760   -0.0000    0.0000 C   0  0  0  0  0  0  0  0  0  0  0  0
   34.2760   -0.0000    0.0000 C   0  0  0  0  0  0  0  0  0  0  0  0
   32.7760   -0.0000    0.0000 C   0  0  0  0  0  0  0  0  0  0  0  0
   31.2760   -0.0000    0.0000 C   0  0  0  0  0  0  0  0  0  0  0  0
   29.7760   -0.0000    0.0000 C   0  0  0  0  0  0  0  0  0  0  0  0
   28.2760   -0.0000    0.0000 C   0  0  0  0  0  0  0  0  0  0  0  0
   26.7760   -0.0000    0.0000 C   0  0  0  0  0  0  0  0  0  0  0  0
   25.2760   -0.0000    0.0000 C   0  0  0  0  0  0  0  0  0  0  0  0
   23.7760   -0.0000    0.0000 C   0  0  0  0  0  0  0  0  0  0  0  0
   22.2760   -0.0000    0.0000 C   0  0  0  0  0  0  0  0  0  0  0  0
   20.7760   -0.0000    0.0000 C   0  0  0  0  0  0  0  0  0  0  0  0
   19.2760   -0.0000    0.0000 C   0  0  0  0  0  0  0  0  0  0  0  0
   17.7760   -0.0000    0.0000 C   0  0  0  0  0  0  0  0  0  0  0  0
   16.2760   -0.0000    0.0000 C   0  0  0  0  0  0  0  0  0  0  0  0
   14.7760   -0.0000    0.0000 C   0  0  0  0  0  0  0  0  0  0  0  0
   13.2760   -0.0000    0.0000 C   0  0  0  0  0  0  0  0  0  0  0  0
   11.7760   -0.0000    0.0000 C   0  0  0  0  0  0  0  0  0  0  0  0
   10.2760   -0.0000    0.0000 C   0  0  0  0  0  0  0  0  0  0  0  0
    8.7760   -0.0000    0.0000 C   0  0  0  0  0  0  0  0  0  0  0  0
    7.2760   -0.0000    0.0000 C   0  0  0  0  0  0  0  0  0  0  0  0
    5.7760   -0.0000    0.0000 C   0  0  0  0  0  0  0  0  0  0  0  0
    4.2760   -0.0000    0.0000 C   0  0  0  0  0  0  0  0  0  0  0  0
    2.7760    0.0000    0.0000 C   0  0  0  0  0  0  0  0  0  0  0  0
    1.2760    0.0000    0.0000 C   0  0  0  0  0  0  0  0  0  0  0  0
    0.3943    1.2135    0.0000 C   0  0  0  0  0  0  0  0  0  0  0  0
   -1.0323    0.7500    0.0000 C   0  0  0  0  0  0  0  0  0  0  0  0
   -1.0323   -0.7500    0.0000 C   0  0  0  0  0  0  0  0  0  0  0  0
    0.3943   -1.2135    0.0000 C   0  0  0  0  0  0  0  0  0  0  0  0
  1  2  3  0
  2  3  1  0
  3  4  3  0
  4  5  1  0
  5  6  3  0
  6  7  1  0
  7  8  3  0
  8  9  1  0
  9 10  3  0
 10 11  1  0
 11 12  3  0
 12 13  1  0
 13 14  3  0
 14 15  1  0
 15 16  3  0
 16 17  1  0
 17 18  3  0
 18 19  1  0
 19 20  3  0
 20 21  1  0
 21 22  3  0
 22 23  1  0
 23 24  3  0
 24 25  1  0
 25 26  3  0
 26 27  1  0
 27 28  3  0
 28 29  1  0
 29 30  3  0
 30 31  1  0
 31 32  3  0
 32 33  1  0
 33 34  3  0
 34 35  1  0
 35 36  3  0
 36 37  1  0
 37 38  3  0
 38 39  1  0
 39 40  3  0
 40 41  1  0
 41 42  3  0
 42 43  1  0
 43 44  3  0
 44 45  1  0
 45 46  3  0
 46 47  1  0
 47 48  3  0
 48 49  1  0
 49 50  3  0
 50 51  1  0
 51 52  3  0
 52 53  1  0
 53 54  3  0
 54 55  1  0
 55 56  3  0
 56 57  1  0
 57 58  3  0
 58 59  1  0
 59 60  3  0
 60 61  1  0
 61 62  3  0
 62 63  1  0
 63 64  3  0
 64 65  1  0
 65 66  3  0
 66 67  1  0
 67 68  3  0
 68 69  1  0
 69 70  2  0
 70 71  1  0
 71 72  2  0
 72 73  1  0
 73 69  1  0
M  END
>  <Title>  (43) 
idAABQgen13

$$$$

     RDKit          2D

 19 21  0  0  0  0  0  0  0  0999 V2000
    5.7760   -2.5981    0.0000 C   0  0  0  0  0  0  0  0  0  0  0  0
    5.0260   -1.2990    0.0000 C   0  0  0  0  0  0  0  0  0  0  0  0
    3.5260   -1.2990    0.0000 C   0  0  0  0  0  0  0  0  0  0  0  0
    2.7760    0.0000    0.0000 C   0  0  0  0  0  0  0  0  0  0  0  0
    3.5260    1.2990    0.0000 O   0  0  0  0  0  0  0  0  0  0  0  0
    1.2760    0.0000    0.0000 N   0  0  0  0  0  0  0  0  0  0  0  0
    0.3943    1.2135    0.0000 C   0  0  0  0  0  0  0  0  0  0  0  0
   -1.0323    0.7500    0.0000 C   0  0  0  0  0  0  0  0  0  0  0  0
   -2.4589    1.2135    0.0000 C   0  0  0  0  0  0  0  0  0  0  0  0
   -3.3405    0.0000    0.0000 C   0  0  0  0  0  0  0  0  0  0  0  0
   -2.4589   -1.2135    0.0000 C   0  0  0  0  0  0  0  0  0  0  0  0
   -2.9224   -2.6401    0.0000 N   0  0  0  0  0  0  0  0  0  0  0  0
   -4.3896   -2.9520    0.0000 C   0  0  0  0  0  0  0  0  0  0  0  0
   -4.8531   -4.3786    0.0000 C   0  0  0  0  0  0  0  0  0  0  0  0
   -3.8494   -5.4933    0.0000 C   0  0  0  0  0  0  0  0  0  0  0  0
   -2.3822   -5.1814    0.0000 C   0  0  0  0  0  0  0  0  0  0  0  0
   -1.9187   -3.7548    0.0000 N   0  0  0  0  0  0  0  0  0  0  0  0
   -1.0323   -0.7500    0.0000 C   0  0  0  0  0  0  0  0  0  0  0  0
    0.3943   -1.2135    0.0000 C   0  0  0  0  0  0  0  0  0  0  0  0
  1  2  1  0
  2  3  1  0
  3  4  1  0
  4  5  2  0
  4  6  1  0
  6  7  1  0
  7  8  1  0
  8  9  2  0
  9 10  1  0
 10 11  2  0
 11 12  1  0
 12 13  1  0
 13 14  1  0
 14 15  2  0
 15 16  1  0
 16 17  1  0
 11 18  1  0
 18 19  1  0
 19  6  1  0
 18  8  1  0
 17 12  1  0
M  END
>  <Title>  (44) 
idAABRgen13

$$$$

     RDKit          2D

  9 10  0  0  0  0  0  0  0  0999 V2000
   -1.2135   -2.7256    0.0000 C   0  0  0  0  0  0  0  0  0  0  0  0
   -0.0000   -3.6073    0.0000 N   0  0  0  0  0  0  0  0  0  0  0  0
    1.2135   -2.7256    0.0000 C   0  0  0  0  0  0  0  0  0  0  0  0
    0.7500   -1.2990    0.0000 C   0  0  0  0  0  0  0  0  0  0  0  0
    1.5000    0.0000    0.0000 C   0  0  0  0  0  0  0  0  0  0  0  0
    0.7500    1.2990    0.0000 C   0  0  0  0  0  0  0  0  0  0  0  0
   -0.7500    1.2990    0.0000 C   0  0  0  0  0  0  0  0  0  0  0  0
   -1.5000    0.0000    0.0000 C   0  0  0  0  0  0  0  0  0  0  0  0
   -0.7500   -1.2990    0.0000 C   0  0  0  0  0  0  0  0  0  0  0  0
  1  2  2  0
  2  3  1  0
  3  4  1  0
  4  5  2  0
  5  6  1  0
  6  7  2  0
  7  8  1  0
  8  9  2  0
  9  1  1  0
  9  4  1  0
M  END
>  <Title>  (45) 
idAABSgen13

$$$$

     RDKit          2D

 17 18  0  0  0  0  0  0  0  0999 V2000
   -8.2786   -4.8163    0.0000 C   0  0  0  0  0  0  0  0  0  0  0  0
   -6.8298   -5.2046    0.0000 C   0  0  0  0  0  0  0  0  0  0  0  0
   -6.4415   -6.6535    0.0000 F   0  0  0  0  0  0  0  0  0  0  0  0
   -5.7691   -4.1439    0.0000 N   0  0  0  0  0  0  0  0  0  0  0  0
   -4.3202   -4.5321    0.0000 C   0  0  0  0  0  0  0  0  0  0  0  0
   -3.9320   -5.9810    0.0000 O   0  0  0  0  0  0  0  0  0  0  0  0
   -3.2595   -3.4715    0.0000 N   0  0  0  0  0  0  0  0  0  0  0  0
   -1.8107   -3.8597    0.0000 C   0  0  0  0  0  0  0  0  0  0  0  0
   -1.4224   -5.3086    0.0000 O   0  0  0  0  0  0  0  0  0  0  0  0
   -0.7500   -2.7990    0.0000 C   0  0  0  0  0  0  0  0  0  0  0  0
    0.7500   -2.7990    0.0000 C   0  0  0  0  0  0  0  0  0  0  0  0
    0.7500   -1.2990    0.0000 C   0  0  0  0  0  0  0  0  0  0  0  0
    1.5000    0.0000    0.0000 C   0  0  0  0  0  0  0  0  0  0  0  0
    0.7500    1.2990    0.0000 C   0  0  0  0  0  0  0  0  0  0  0  0
   -0.7500    1.2990    0.0000 C   0  0  0  0  0  0  0  0  0  0  0  0
   -1.5000    0.0000    0.0000 C   0  0  0  0  0  0  0  0  0  0  0  0
   -0.7500   -1.2990    0.0000 C   0  0  0  0  0  0  0  0  0  0  0  0
  1  2  1  0
  2  3  1  0
  2  4  1  0
  4  5  1  0
  5  6  2  0
  5  7  1  0
  7  8  1  0
  8  9  2  0
  8 10  1  0
 10 11  1  0
 11 12  1  0
 12 13  2  0
 13 14  1  0
 14 15  2  0
 15 16  1  0
 16 17  2  0
 17 10  1  0
 17 12  1  0
M  END
>  <Title>  (46) 
idAABTgen13

$$$$

     RDKit          2D

  8  7  0  0  0  0  0  0  0  0999 V2000
    0.0000    0.0000    0.0000 C   0  0  0  0  0  0  0  0  0  0  0  0
    1.2990    0.7500    0.0000 N   0  0  0  0  0  0  0  0  0  0  0  0
    2.5981   -0.0000    0.0000 C   0  0  0  0  0  0  0  0  0  0  0  0
    3.8971    0.7500    0.0000 C   0  0  0  0  0  0  0  0  0  0  0  0
    2.5981   -1.5000    0.0000 C   0  0  0  0  0  0  0  0  0  0  0  0
    3.8971   -2.2500    0.0000 C   0  0  0  0  0  0  0  0  0  0  0  0
    3.8971   -3.7500    0.0000 C   0  0  0  0  0  0  0  0  0  0  0  0
    5.1962   -1.5000    0.0000 C   0  0  0  0  0  0  0  0  0  0  0  0
  1  2  1  0
  2  3  1  0
  3  4  1  0
  3  5  1  0
  5  6  1  0
  6  7  1  0
  6  8  1  0
M  END
>  <Title>  (47) 
idAABUgen13

$$$$

     RDKit          2D

 10  9  0  0  0  0  0  0  0  0999 V2000
    0.0000    0.0000    0.0000 C   0  0  0  0  0  0  0  0  0  0  0  0
    1.2990    0.7500    0.0000 C   0  0  0  0  0  0  0  0  0  0  0  0
    2.5981   -0.0000    0.0000 C   0  0  0  0  0  0  0  0  0  0  0  0
    3.8971    0.7500    0.0000 C   0  0  0  0  0  0  0  0  0  0  0  0
    5.1962   -0.0000    0.0000 C   0  0  0  0  0  0  0  0  0  0  0  0
    6.4952    0.7500    0.0000 C   0  0  0  0  0  0  0  0  0  0  0  0
    5.1962   -1.5000    0.0000 N   0  0  0  0  0  0  0  0  0  0  0  0
    6.4952   -2.2500    0.0000 C   0  0  0  0  0  0  0  0  0  0  0  0
    6.4952   -3.7500    0.0000 C   0  0  0  0  0  0  0  0  0  0  0  0
    7.7942   -1.5000    0.0000 O   0  0  0  0  0  0  0  0  0  0  0  0
  1  2  1  0
  2  3  2  3
  3  4  1  0
  4  5  1  0
  5  6  1  0
  5  7  1  0
  7  8  1  0
  8  9  1  0
  8 10  2  0
M  END
>  <Title>  (48) 
idAABVgen13

$$$$

     RDKit          2D

 33 33  0  0  0  0  0  0  0  0999 V2000
   39.7500   -1.2990    0.0000 C   0  0  0  0  0  0  0  0  0  0  0  0
   39.0000    0.0000    0.0000 C   0  0  0  0  0  0  0  0  0  0  0  0
   39.7500    1.2990    0.0000 O   0  0  0  0  0  0  0  0  0  0  0  0
   37.5000    0.0000    0.0000 C   0  0  0  0  0  0  0  0  0  0  0  0
   36.0000    0.0000    0.0000 C   0  0  0  0  0  0  0  0  0  0  0  0
   34.5000    0.0000    0.0000 C   0  0  0  0  0  0  0  0  0  0  0  0
   33.0000    0.0000    0.0000 C   0  0  0  0  0  0  0  0  0  0  0  0
   31.5000    0.0000    0.0000 C   0  0  0  0  0  0  0  0  0  0  0  0
   30.0000    0.0000    0.0000 C   0  0  0  0  0  0  0  0  0  0  0  0
   28.5000    0.0000    0.0000 C   0  0  0  0  0  0  0  0  0  0  0  0
   27.0000    0.0000    0.0000 C   0  0  0  0  0  0  0  0  0  0  0  0
   25.5000    0.0000    0.0000 C   0  0  0  0  0  0  0  0  0  0  0  0
   24.0000    0.0000    0.0000 C   0  0  0  0  0  0  0  0  0  0  0  0
   22.5000    0.0000    0.0000 C   0  0  0  0  0  0  0  0  0  0  0  0
   21.0000    0.0000    0.0000 C   0  0  0  0  0  0  0  0  0  0  0  0
   19.5000    0.0000    0.0000 C   0  0  0  0  0  0  0  0  0  0  0  0
   18.0000    0.0000    0.0000 C   0  0  0  0  0  0  0  0  0  0  0  0
   16.5000    0.0000    0.0000 C   0  0  0  0  0  0  0  0  0  0  0  0
   15.0000    0.0000    0.0000 C   0  0  0  0  0  0  0  0  0  0  0  0
   13.5000    0.0000    0.0000 C   0  0  0  0  0  0  0  0  0  0  0  0
   12.0000    0.0000    0.0000 C   0  0  0  0  0  0  0  0  0  0  0  0
   10.5000    0.0000    0.0000 C   0  0  0  0  0  0  0  0  0  0  0  0
    9.0000    0.0000    0.0000 C   0  0  0  0  0  0  0  0  0  0  0  0
    7.5000    0.0000    0.0000 C   0  0  0  0  0  0  0  0  0  0  0  0
    6.0000    0.0000    0.0000 C   0  0  0  0  0  0  0  0  0  0  0  0
    4.5000    0.0000    0.0000 C   0  0  0  0  0  0  0  0  0  0  0  0
    3.0000    0.0000    0.0000 C   0  0  0  0  0  0  0  0  0  0  0  0
    1.5000    0.0000    0.0000 C   0  0  0  0  0  0  0  0  0  0  0  0
    0.7500   -1.2990    0.0000 C   0  0  0  0  0  0  0  0  0  0  0  0
   -0.7500   -1.2990    0.0000 C   0  0  0  0  0  0  0  0  0  0  0  0
   -1.5000    0.0000    0.0000 C   0  0  0  0  0  0  0  0  0  0  0  0
   -0.7500    1.2990    0.0000 C   0  0  0  0  0  0  0  0  0  0  0  0
    0.7500    1.2990    0.0000 C   0  0  0  0  0  0  0  0  0  0  0  0
  1  2  1  0
  2  3  2  0
  2  4  1  0
  4  5  3  0
  5  6  1  0
  6  7  3  0
  7  8  1  0
  8  9  3  0
  9 10  1  0
 10 11  3  0
 11 12  1  0
 12 13  3  0
 13 14  1  0
 14 15  3  0
 15 16  1  0
 16 17  3  0
 17 18  1  0
 18 19  3  0
 19 20  1  0
 20 21  3  0
 21 22  1  0
 22 23  3  0
 23 24  1  0
 24 25  3  0
 25 26  1  0
 26 27  3  0
 27 28  1  0
 28 29  2  0
 29 30  1  0
 30 31  2  0
 31 32  1  0
 32 33  2  0
 33 28  1  0
M  END
>  <Title>  (49) 
idAABWgen13

$$$$

     RDKit          2D

 10  9  0  0  0  0  0  0  0  0999 V2000
    0.0000    0.0000    0.0000 C   0  0  0  0  0  0  0  0  0  0  0  0
    1.2990    0.7500    0.0000 C   0  0  0  0  0  0  0  0  0  0  0  0
    2.5981   -0.0000    0.0000 C   0  0  0  0  0  0  0  0  0  0  0  0
    3.8971    0.7500    0.0000 C   0  0  0  0  0  0  0  0  0  0  0  0
    5.1962   -0.0000    0.0000 C   0  0  0  0  0  0  0  0  0  0  0  0
    6.4952    0.7500    0.0000 C   0  0  0  0  0  0  0  0  0  0  0  0
    5.1962   -1.5000    0.0000 N   0  0  0  0  0  0  0  0  0  0  0  0
    6.4952   -2.2500    0.0000 C   0  0  0  0  0  0  0  0  0  0  0  0
    6.4952   -3.7500    0.0000 C   0  0  0  0  0  0  0  0  0  0  0  0
    7.7942   -1.5000    0.0000 O   0  0  0  0  0  0  0  0  0  0  0  0
  1  2  2  0
  2  3  1  0
  3  4  1  0
  4  5  1  0
  5  6  1  0
  5  7  1  0
  7  8  1  0
  8  9  1  0
  8 10  2  0
M  END
>  <Title>  (50) 
idAABXgen13

$$$$

     RDKit          2D

  6  5  0  0  0  0  0  0  0  0999 V2000
    0.0000    0.0000    0.0000 C   0  0  0  0  0  0  0  0  0  0  0  0
    1.2990    0.7500    0.0000 C   0  0  0  0  0  0  0  0  0  0  0  0
    2.5981   -0.0000    0.0000 C   0  0  0  0  0  0  0  0  0  0  0  0
    3.8971    0.7500    0.0000 C   0  0  0  0  0  0  0  0  0  0  0  0
    5.1962   -0.0000    0.0000 C   0  0  0  0  0  0  0  0  0  0  0  0
    3.8971    2.2500    0.0000 F   0  0  0  0  0  0  0  0  0  0  0  0
  1  2  2  0
  2  3  1  0
  3  4  1  0
  4  5  1  0
  4  6  1  0
M  END
>  <Title>  (51) 
idAAAAgen13

$$$$

     RDKit          2D

 44 49  0  0  0  0  0  0  0  0999 V2000
   -4.4985    5.1246    0.0000 C   0  0  0  0  0  0  0  0  0  0  0  0
   -4.9620    3.6981    0.0000 C   0  0  0  0  0  0  0  0  0  0  0  0
   -3.9583    2.5833    0.0000 C   0  0  0  0  0  0  0  0  0  0  0  0
   -4.4218    1.1568    0.0000 C   0  0  0  0  0  0  0  0  0  0  0  0
   -5.8891    0.8449    0.0000 O   0  0  0  0  0  0  0  0  0  0  0  0
   -3.4182    0.0420    0.0000 N   0  0  0  0  0  0  0  0  0  0  0  0
   -3.8817   -1.3846    0.0000 C   0  0  0  0  0  0  0  0  0  0  0  0
   -5.3083   -1.8481    0.0000 N   0  0  0  0  0  0  0  0  0  0  0  0
   -5.3083   -3.3481    0.0000 N   0  0  0  0  0  0  0  0  0  0  0  0
   -3.8817   -3.8116    0.0000 N   0  0  0  0  0  0  0  0  0  0  0  0
   -3.0000   -2.5981    0.0000 N   0  0  0  0  0  0  0  0  0  0  0  0
   -1.5000   -2.5981    0.0000 C   0  0  0  0  0  0  0  0  0  0  0  0
   -0.7500   -3.8971    0.0000 C   0  0  0  0  0  0  0  0  0  0  0  0
    0.7500   -3.8971    0.0000 C   0  0  0  0  0  0  0  0  0  0  0  0
    1.5000   -2.5981    0.0000 C   0  0  0  0  0  0  0  0  0  0  0  0
    3.0000   -2.5981    0.0000 C   0  0  0  0  0  0  0  0  0  0  0  0
    3.7500   -1.2990    0.0000 O   0  0  0  0  0  0  0  0  0  0  0  0
    3.7500   -3.8971    0.0000 N   0  0  0  0  0  0  0  0  0  0  0  0
    5.2500   -3.8971    0.0000 C   0  0  0  0  0  0  0  0  0  0  0  0
    6.1317   -2.6836    0.0000 N   0  0  0  0  0  0  0  0  0  0  0  0
    7.5583   -3.1471    0.0000 N   0  0  0  0  0  0  0  0  0  0  0  0
    7.5583   -4.6471    0.0000 N   0  0  0  0  0  0  0  0  0  0  0  0
    6.1317   -5.1106    0.0000 N   0  0  0  0  0  0  0  0  0  0  0  0
    5.6682   -6.5372    0.0000 N   0  0  0  0  0  0  0  0  0  0  0  0
    6.5498   -7.7508    0.0000 C   0  0  0  0  0  0  0  0  0  0  0  0
    5.6682   -8.9643    0.0000 C   0  0  0  0  0  0  0  0  0  0  0  0
    4.2416   -8.5008    0.0000 C   0  0  0  0  0  0  0  0  0  0  0  0
    3.0280   -9.3824    0.0000 C   0  0  0  0  0  0  0  0  0  0  0  0
    3.1848  -10.8742    0.0000 O   0  0  0  0  0  0  0  0  0  0  0  0
    1.6577   -8.7723    0.0000 N   0  0  0  0  0  0  0  0  0  0  0  0
    0.4442   -9.6540    0.0000 C   0  0  0  0  0  0  0  0  0  0  0  0
   -0.9261   -9.0439    0.0000 N   0  0  0  0  0  0  0  0  0  0  0  0
   -2.1396   -9.9256    0.0000 N   0  0  0  0  0  0  0  0  0  0  0  0
   -1.9829  -11.4174    0.0000 N   0  0  0  0  0  0  0  0  0  0  0  0
   -0.6125  -12.0275    0.0000 N   0  0  0  0  0  0  0  0  0  0  0  0
    0.6010  -11.1458    0.0000 N   0  0  0  0  0  0  0  0  0  0  0  0
    4.2416   -7.0008    0.0000 C   0  0  0  0  0  0  0  0  0  0  0  0
    3.0280   -6.1191    0.0000 O   0  0  0  0  0  0  0  0  0  0  0  0
    0.7500   -1.2990    0.0000 C   0  0  0  0  0  0  0  0  0  0  0  0
    1.5000    0.0000    0.0000 C   0  0  0  0  0  0  0  0  0  0  0  0
    0.7500    1.2990    0.0000 C   0  0  0  0  0  0  0  0  0  0  0  0
   -0.7500    1.2990    0.0000 C   0  0  0  0  0  0  0  0  0  0  0  0
   -1.5000    0.0000    0.0000 C   0  0  0  0  0  0  0  0  0  0  0  0
   -0.7500   -1.2990    0.0000 C   0  0  0  0  0  0  0  0  0  0  0  0
  1  2  2  0
  2  3  1  0
  3  4  1  0
  4  5  2  0
  4  6  1  0
  6  7  1  0
  7  8  2  0
  8  9  1  0
  9 10  2  0
 10 11  1  0
 11 12  1  0
 12 13  2  0
 13 14  1  0
 14 15  2  0
 15 16  1  0
 16 17  2  0
 16 18  1  0
 18 19  1  0
 19 20  2  0
 20 21  1  0
 21 22  2  0
 22 23  1  0
 23 24  1  0
 24 25  1  0
 25 26  1  0
 26 27  1  0
 27 28  1  0
 28 29  2  0
 28 30  1  0
 30 31  1  0
 31 32  2  0
 32 33  1  0
 33 34  2  0
 34 35  1  0
 35 36  2  0
 27 37  1  0
 37 38  2  0
 15 39  1  0
 39 40  2  0
 40 41  1  0
 41 42  2  0
 42 43  1  0
 43 44  2  0
 11  7  1  0
 44 12  1  0
 23 19  1  0
 37 24  1  0
 44 39  1  0
 36 31  1  0
M  END
>  <Title>  (52) 
idAAABgen13

$$$$

     RDKit          2D

 19 21  0  0  0  0  0  0  0  0999 V2000
  -11.0894    6.0401    0.0000 C   0  0  0  0  0  0  0  0  0  0  0  0
   -9.8759    5.1584    0.0000 C   0  0  0  0  0  0  0  0  0  0  0  0
   -8.6624    4.2767    0.0000 C   0  0  0  0  0  0  0  0  0  0  0  0
   -7.4488    3.3950    0.0000 C   0  0  0  0  0  0  0  0  0  0  0  0
   -6.2353    2.5134    0.0000 C   0  0  0  0  0  0  0  0  0  0  0  0
   -5.0218    1.6317    0.0000 C   0  0  0  0  0  0  0  0  0  0  0  0
   -3.8083    0.7500    0.0000 N   0  0  0  0  0  0  0  0  0  0  0  0
   -3.8083   -0.7500    0.0000 C   0  0  0  0  0  0  0  0  0  0  0  0
   -2.3817   -1.2135    0.0000 C   0  0  0  0  0  0  0  0  0  0  0  0
   -1.5000    0.0000    0.0000 C   0  0  0  0  0  0  0  0  0  0  0  0
   -2.3817    1.2135    0.0000 C   0  0  0  0  0  0  0  0  0  0  0  0
   -0.7500   -1.2990    0.0000 C   0  0  0  0  0  0  0  0  0  0  0  0
   -1.5000   -2.5981    0.0000 O   0  0  0  0  0  0  0  0  0  0  0  0
    0.7500   -1.2990    0.0000 C   0  0  0  0  0  0  0  0  0  0  0  0
    1.5000    0.0000    0.0000 C   0  0  0  0  0  0  0  0  0  0  0  0
    0.7500    1.2990    0.0000 C   0  0  0  0  0  0  0  0  0  0  0  0
   -0.7500    1.2990    0.0000 C   0  0  0  0  0  0  0  0  0  0  0  0
   -0.3828    0.5621    0.0000 N   0  0  0  0  0  0  0  0  0  0  0  0
    0.2954   -0.6125    0.0000 C   0  0  0  0  0  0  0  0  0  0  0  0
  1  2  3  0
  2  3  1  0
  3  4  3  0
  4  5  1  0
  5  6  3  0
  6  7  1  0
  7  8  1  0
  8  9  1  0
  9 10  1  0
 10 11  1  0
 10 12  1  0
 12 13  2  0
 12 14  1  0
 14 15  1  0
 15 16  1  0
 16 17  1  0
 17 18  1  0
 18 19  1  0
 11  7  1  0
 19 14  1  0
 17 10  1  0
M  END
>  <Title>  (53) 
idAAACgen13

$$$$

     RDKit          2D

  6  5  0  0  0  0  0  0  0  0999 V2000
    0.0000    0.0000    0.0000 C   0  0  0  0  0  0  0  0  0  0  0  0
    1.2990    0.7500    0.0000 C   0  0  0  0  0  0  0  0  0  0  0  0
    2.5981   -0.0000    0.0000 C   0  0  0  0  0  0  0  0  0  0  0  0
    3.8971    0.7500    0.0000 C   0  0  0  0  0  0  0  0  0  0  0  0
    5.1962   -0.0000    0.0000 C   0  0  0  0  0  0  0  0  0  0  0  0
    6.4952    0.7500    0.0000 C   0  0  0  0  0  0  0  0  0  0  0  0
  1  2  2  0
  2  3  1  0
  3  4  1  0
  4  5  2  3
  5  6  1  0
M  END
>  <Title>  (54) 
idAAADgen13

$$$$

     RDKit          2D

  6  5  0  0  0  0  0  0  0  0999 V2000
    0.0000    0.0000    0.0000 C   0  0  0  0  0  0  0  0  0  0  0  0
   -0.0000   -1.5000    0.0000 C   0  0  0  0  0  0  0  0  0  0  0  0
   -0.0000   -3.0000    0.0000 C   0  0  0  0  0  0  0  0  0  0  0  0
    1.2990   -3.7500    0.0000 C   0  0  0  0  0  0  0  0  0  0  0  0
    1.2990   -5.2500    0.0000 C   0  0  0  0  0  0  0  0  0  0  0  0
    2.5981   -6.0000    0.0000 O   0  0  0  0  0  0  0  0  0  0  0  0
  1  2  3  0
  2  3  1  0
  3  4  1  0
  4  5  2  3
  5  6  1  0
M  END
>  <Title>  (55) 
idAAAEgen13

$$$$

     RDKit          2D

 20 19  0  0  0  0  0  0  0  0999 V2000
    0.0000    0.0000    0.0000 C   0  0  0  0  0  0  0  0  0  0  0  0
   -0.0000   -1.5000    0.0000 C   0  0  0  0  0  0  0  0  0  0  0  0
   -0.0000   -3.0000    0.0000 C   0  0  0  0  0  0  0  0  0  0  0  0
   -0.0000   -4.5000    0.0000 C   0  0  0  0  0  0  0  0  0  0  0  0
   -0.0000   -6.0000    0.0000 C   0  0  0  0  0  0  0  0  0  0  0  0
   -0.0000   -7.5000    0.0000 C   0  0  0  0  0  0  0  0  0  0  0  0
   -0.0000   -9.0000    0.0000 C   0  0  0  0  0  0  0  0  0  0  0  0
   -0.0000  -10.5000    0.0000 C   0  0  0  0  0  0  0  0  0  0  0  0
   -0.0000  -12.0000    0.0000 C   0  0  0  0  0  0  0  0  0  0  0  0
   -0.0000  -13.5000    0.0000 C   0  0  0  0  0  0  0  0  0  0  0  0
   -0.0000  -15.0000    0.0000 C   0  0  0  0  0  0  0  0  0  0  0  0
   -0.0000  -16.5000    0.0000 C   0  0  0  0  0  0  0  0  0  0  0  0
   -0.0000  -18.0000    0.0000 C   0  0  0  0  0  0  0  0  0  0  0  0
   -0.0000  -19.5000    0.0000 C   0  0  0  0  0  0  0  0  0  0  0  0
   -0.0000  -21.0000    0.0000 C   0  0  0  0  0  0  0  0  0  0  0  0
   -0.0000  -22.5000    0.0000 C   0  0  0  0  0  0  0  0  0  0  0  0
   -0.0000  -24.0000    0.0000 C   0  0  0  0  0  0  0  0  0  0  0  0
   -0.0000  -25.5000    0.0000 C   0  0  0  0  0  0  0  0  0  0  0  0
   -0.0000  -27.0000    0.0000 C   0  0  0  0  0  0  0  0  0  0  0  0
   -0.0000  -28.5000    0.0000 N   0  0  0  0  0  0  0  0  0  0  0  0
  1  2  3  0
  2  3  1  0
  3  4  3  0
  4  5  1  0
  5  6  3  0
  6  7  1  0
  7  8  3  0
  8  9  1  0
  9 10  3  0
 10 11  1  0
 11 12  3  0
 12 13  1  0
 13 14  3  0
 14 15  1  0
 15 16  3  0
 16 17  1  0
 17 18  3  0
 18 19  1  0
 19 20  3  0
M  END
>  <Title>  (56) 
idAAAFgen13

$$$$

     RDKit          2D

 16 16  0  0  0  0  0  0  0  0999 V2000
   16.5000    0.0000    0.0000 C   0  0  0  0  0  0  0  0  0  0  0  0
   15.0000    0.0000    0.0000 C   0  0  0  0  0  0  0  0  0  0  0  0
   13.5000    0.0000    0.0000 C   0  0  0  0  0  0  0  0  0  0  0  0
   12.0000    0.0000    0.0000 C   0  0  0  0  0  0  0  0  0  0  0  0
   10.5000    0.0000    0.0000 C   0  0  0  0  0  0  0  0  0  0  0  0
    9.0000    0.0000    0.0000 C   0  0  0  0  0  0  0  0  0  0  0  0
    7.5000    0.0000    0.0000 C   0  0  0  0  0  0  0  0  0  0  0  0
    6.0000    0.0000    0.0000 C   0  0  0  0  0  0  0  0  0  0  0  0
    4.5000    0.0000    0.0000 C   0  0  0  0  0  0  0  0  0  0  0  0
    3.0000    0.0000    0.0000 C   0  0  0  0  0  0  0  0  0  0  0  0
    1.5000    0.0000    0.0000 C   0  0  0  0  0  0  0  0  0  0  0  0
    0.7500   -1.2990    0.0000 C   0  0  0  0  0  0  0  0  0  0  0  0
   -0.7500   -1.2990    0.0000 C   0  0  0  0  0  0  0  0  0  0  0  0
   -1.5000    0.0000    0.0000 C   0  0  0  0  0  0  0  0  0  0  0  0
   -0.7500    1.2990    0.0000 C   0  0  0  0  0  0  0  0  0  0  0  0
    0.7500    1.2990    0.0000 C   0  0  0  0  0  0  0  0  0  0  0  0
  1  2  3  0
  2  3  1  0
  3  4  3  0
  4  5  1  0
  5  6  3  0
  6  7  1  0
  7  8  3  0
  8  9  1  0
  9 10  3  0
 10 11  1  0
 11 12  2  0
 12 13  1  0
 13 14  2  0
 14 15  1  0
 15 16  2  0
 16 11  1  0
M  END
>  <Title>  (57) 
idAAAGgen13

$$$$

     RDKit          2D

 46 46  0  0  0  0  0  0  0  0999 V2000
   61.5000    0.0000    0.0000 C   0  0  0  0  0  0  0  0  0  0  0  0
   60.0000    0.0000    0.0000 C   0  0  0  0  0  0  0  0  0  0  0  0
   58.5000    0.0000    0.0000 C   0  0  0  0  0  0  0  0  0  0  0  0
   57.0000    0.0000    0.0000 C   0  0  0  0  0  0  0  0  0  0  0  0
   55.5000    0.0000    0.0000 C   0  0  0  0  0  0  0  0  0  0  0  0
   54.0000    0.0000    0.0000 C   0  0  0  0  0  0  0  0  0  0  0  0
   52.5000    0.0000    0.0000 C   0  0  0  0  0  0  0  0  0  0  0  0
   51.0000    0.0000    0.0000 C   0  0  0  0  0  0  0  0  0  0  0  0
   49.5000    0.0000    0.0000 C   0  0  0  0  0  0  0  0  0  0  0  0
   48.0000    0.0000    0.0000 C   0  0  0  0  0  0  0  0  0  0  0  0
   46.5000    0.0000    0.0000 C   0  0  0  0  0  0  0  0  0  0  0  0
   45.0000    0.0000    0.0000 C   0  0  0  0  0  0  0  0  0  0  0  0
   43.5000    0.0000    0.0000 C   0  0  0  0  0  0  0  0  0  0  0  0
   42.0000    0.0000    0.0000 C   0  0  0  0  0  0  0  0  0  0  0  0
   40.5000    0.0000    0.0000 C   0  0  0  0  0  0  0  0  0  0  0  0
   39.0000    0.0000    0.0000 C   0  0  0  0  0  0  0  0  0  0  0  0
   37.5000    0.0000    0.0000 C   0  0  0  0  0  0  0  0  0  0  0  0
   36.0000    0.0000    0.0000 C   0  0  0  0  0  0  0  0  0  0  0  0
   34.5000    0.0000    0.0000 C   0  0  0  0  0  0  0  0  0  0  0  0
   33.0000    0.0000    0.0000 C   0  0  0  0  0  0  0  0  0  0  0  0
   31.5000    0.0000    0.0000 C   0  0  0  0  0  0  0  0  0  0  0  0
   30.0000    0.0000    0.0000 C   0  0  0  0  0  0  0  0  0  0  0  0
   28.5000    0.0000    0.0000 C   0  0  0  0  0  0  0  0  0  0  0  0
   27.0000    0.0000    0.0000 C   0  0  0  0  0  0  0  0  0  0  0  0
   25.5000    0.0000    0.0000 C   0  0  0  0  0  0  0  0  0  0  0  0
   24.0000    0.0000    0.0000 C   0  0  0  0  0  0  0  0  0  0  0  0
   22.5000    0.0000    0.0000 C   0  0  0  0  0  0  0  0  0  0  0  0
   21.0000    0.0000    0.0000 C   0  0  0  0  0  0  0  0  0  0  0  0
   19.5000    0.0000    0.0000 C   0  0  0  0  0  0  0  0  0  0  0  0
   18.0000    0.0000    0.0000 C   0  0  0  0  0  0  0  0  0  0  0  0
   16.5000    0.0000    0.0000 C   0  0  0  0  0  0  0  0  0  0  0  0
   15.0000    0.0000    0.0000 C   0  0  0  0  0  0  0  0  0  0  0  0
   13.5000    0.0000    0.0000 C   0  0  0  0  0  0  0  0  0  0  0  0
   12.0000    0.0000    0.0000 C   0  0  0  0  0  0  0  0  0  0  0  0
   10.5000    0.0000    0.0000 C   0  0  0  0  0  0  0  0  0  0  0  0
    9.0000    0.0000    0.0000 C   0  0  0  0  0  0  0  0  0  0  0  0
    7.5000    0.0000    0.0000 C   0  0  0  0  0  0  0  0  0  0  0  0
    6.0000    0.0000    0.0000 C   0  0  0  0  0  0  0  0  0  0  0  0
    4.5000    0.0000    0.0000 C   0  0  0  0  0  0  0  0  0  0  0  0
    3.0000    0.0000    0.0000 C   0  0  0  0  0  0  0  0  0  0  0  0
    1.5000    0.0000    0.0000 C   0  0  0  0  0  0  0  0  0  0  0  0
    0.7500   -1.2990    0.0000 C   0  0  0  0  0  0  0  0  0  0  0  0
   -0.7500   -1.2990    0.0000 C   0  0  0  0  0  0  0  0  0  0  0  0
   -1.5000    0.0000    0.0000 C   0  0  0  0  0  0  0  0  0  0  0  0
   -0.7500    1.2990    0.0000 C   0  0  0  0  0  0  0  0  0  0  0  0
    0.7500    1.2990    0.0000 C   0  0  0  0  0  0  0  0  0  0  0  0
  1  2  3  0
  2  3  1  0
  3  4  3  0
  4  5  1  0
  5  6  3  0
  6  7  1  0
  7  8  3  0
  8  9  1  0
  9 10  3  0
 10 11  1  0
 11 12  3  0
 12 13  1  0
 13 14  3  0
 14 15  1  0
 15 16  3  0
 16 17  1  0
 17 18  3  0
 18 19  1  0
 19 20  3  0
 20 21  1  0
 21 22  3  0
 22 23  1  0
 23 24  3  0
 24 25  1  0
 25 26  3  0
 26 27  1  0
 27 28  3  0
 28 29  1  0
 29 30  3  0
 30 31  1  0
 31 32  3  0
 32 33  1  0
 33 34  3  0
 34 35  1  0
 35 36  3  0
 36 37  1  0
 37 38  3  0
 38 39  1  0
 39 40  3  0
 40 41  1  0
 41 42  2  0
 42 43  1  0
 43 44  2  0
 44 45  1  0
 45 46  2  0
 46 41  1  0
M  END
>  <Title>  (58) 
idAAAHgen13

$$$$

     RDKit          2D

 87 89  0  0  0  0  0  0  0  0999 V2000
    8.1786    7.8323    0.0000 C   0  0  0  0  0  0  0  0  0  0  0  0
    9.6195    7.4155    0.0000 C   0  0  0  0  0  0  0  0  0  0  0  0
   10.1403    8.8222    0.0000 C   0  0  0  0  0  0  0  0  0  0  0  0
   10.8604   10.1380    0.0000 C   0  0  0  0  0  0  0  0  0  0  0  0
   11.7644   11.3350    0.0000 C   0  0  0  0  0  0  0  0  0  0  0  0
   12.8331   12.3876    0.0000 C   0  0  0  0  0  0  0  0  0  0  0  0
   14.0436   13.2734    0.0000 C   0  0  0  0  0  0  0  0  0  0  0  0
   15.3702   13.9735    0.0000 C   0  0  0  0  0  0  0  0  0  0  0  0
   16.7846   14.4729    0.0000 C   0  0  0  0  0  0  0  0  0  0  0  0
   18.2567   14.7611    0.0000 C   0  0  0  0  0  0  0  0  0  0  0  0
   19.7550   14.8319    0.0000 C   0  0  0  0  0  0  0  0  0  0  0  0
   21.2477   14.6838    0.0000 C   0  0  0  0  0  0  0  0  0  0  0  0
   22.7029   14.3200    0.0000 C   0  0  0  0  0  0  0  0  0  0  0  0
   24.0896   13.7481    0.0000 C   0  0  0  0  0  0  0  0  0  0  0  0
   25.3783   12.9804    0.0000 C   0  0  0  0  0  0  0  0  0  0  0  0
   26.5414   12.0333    0.0000 C   0  0  0  0  0  0  0  0  0  0  0  0
   27.5543   10.9269    0.0000 C   0  0  0  0  0  0  0  0  0  0  0  0
   28.3953    9.6848    0.0000 C   0  0  0  0  0  0  0  0  0  0  0  0
   29.0465    8.3335    0.0000 C   0  0  0  0  0  0  0  0  0  0  0  0
   29.4939    6.9018    0.0000 C   0  0  0  0  0  0  0  0  0  0  0  0
   29.7282    5.4203    0.0000 C   0  0  0  0  0  0  0  0  0  0  0  0
   29.7442    3.9203    0.0000 C   0  0  0  0  0  0  0  0  0  0  0  0
   29.5417    2.4341    0.0000 C   0  0  0  0  0  0  0  0  0  0  0  0
   29.1249    0.9931    0.0000 C   0  0  0  0  0  0  0  0  0  0  0  0
   28.5028   -0.3718    0.0000 C   0  0  0  0  0  0  0  0  0  0  0  0
   27.6886   -1.6315    0.0000 C   0  0  0  0  0  0  0  0  0  0  0  0
   26.6996   -2.7593    0.0000 C   0  0  0  0  0  0  0  0  0  0  0  0
   25.5570   -3.7311    0.0000 C   0  0  0  0  0  0  0  0  0  0  0  0
   24.2850   -4.5262    0.0000 C   0  0  0  0  0  0  0  0  0  0  0  0
   22.9108   -5.1276    0.0000 C   0  0  0  0  0  0  0  0  0  0  0  0
   21.4637   -5.5225    0.0000 C   0  0  0  0  0  0  0  0  0  0  0  0
   19.9746   -5.7024    0.0000 C   0  0  0  0  0  0  0  0  0  0  0  0
   18.4751   -5.6637    0.0000 C   0  0  0  0  0  0  0  0  0  0  0  0
   16.9972   -5.4070    0.0000 C   0  0  0  0  0  0  0  0  0  0  0  0
   15.5724   -4.9379    0.0000 C   0  0  0  0  0  0  0  0  0  0  0  0
   14.2312   -4.2663    0.0000 C   0  0  0  0  0  0  0  0  0  0  0  0
   13.0020   -3.4066    0.0000 C   0  0  0  0  0  0  0  0  0  0  0  0
   11.9111   -2.3771    0.0000 C   0  0  0  0  0  0  0  0  0  0  0  0
   10.9817   -1.1998    0.0000 C   0  0  0  0  0  0  0  0  0  0  0  0
   10.2336    0.1004    0.0000 C   0  0  0  0  0  0  0  0  0  0  0  0
    9.6828    1.4956    0.0000 C   0  0  0  0  0  0  0  0  0  0  0  0
    9.0976    0.0000    0.0000 C   0  0  0  0  0  0  0  0  0  0  0  0
    8.9910   -1.3887    0.0000 C   0  0  0  0  0  0  0  0  0  0  0  0
    8.6736   -2.7449    0.0000 C   0  0  0  0  0  0  0  0  0  0  0  0
    8.1530   -4.0368    0.0000 C   0  0  0  0  0  0  0  0  0  0  0  0
    7.4412   -5.2340    0.0000 C   0  0  0  0  0  0  0  0  0  0  0  0
    6.5550   -6.3086    0.0000 C   0  0  0  0  0  0  0  0  0  0  0  0
    5.5152   -7.2353    0.0000 C   0  0  0  0  0  0  0  0  0  0  0  0
    4.3461   -7.9924    0.0000 C   0  0  0  0  0  0  0  0  0  0  0  0
    3.0751   -8.5621    0.0000 C   0  0  0  0  0  0  0  0  0  0  0  0
    1.7321   -8.9312    0.0000 C   0  0  0  0  0  0  0  0  0  0  0  0
    0.3485   -9.0909    0.0000 C   0  0  0  0  0  0  0  0  0  0  0  0
   -1.0433   -9.0376    0.0000 C   0  0  0  0  0  0  0  0  0  0  0  0
   -2.4107   -8.7724    0.0000 C   0  0  0  0  0  0  0  0  0  0  0  0
   -3.7215   -8.3016    0.0000 C   0  0  0  0  0  0  0  0  0  0  0  0
   -4.9452   -7.6362    0.0000 C   0  0  0  0  0  0  0  0  0  0  0  0
   -6.0529   -6.7919    0.0000 C   0  0  0  0  0  0  0  0  0  0  0  0
   -7.0187   -5.7883    0.0000 C   0  0  0  0  0  0  0  0  0  0  0  0
   -7.8200   -4.6491    0.0000 C   0  0  0  0  0  0  0  0  0  0  0  0
   -8.4381   -3.4008    0.0000 C   0  0  0  0  0  0  0  0  0  0  0  0
   -8.8583   -2.0729    0.0000 C   0  0  0  0  0  0  0  0  0  0  0  0
   -9.0709   -0.6964    0.0000 C   0  0  0  0  0  0  0  0  0  0  0  0
   -9.0709    0.6964    0.0000 C   0  0  0  0  0  0  0  0  0  0  0  0
   -8.8583    2.0729    0.0000 C   0  0  0  0  0  0  0  0  0  0  0  0
   -8.4381    3.4008    0.0000 C   0  0  0  0  0  0  0  0  0  0  0  0
   -7.8200    4.6491    0.0000 C   0  0  0  0  0  0  0  0  0  0  0  0
   -7.0187    5.7883    0.0000 C   0  0  0  0  0  0  0  0  0  0  0  0
   -6.0529    6.7919    0.0000 C   0  0  0  0  0  0  0  0  0  0  0  0
   -4.9452    7.6362    0.0000 C   0  0  0  0  0  0  0  0  0  0  0  0
   -3.7215    8.3016    0.0000 C   0  0  0  0  0  0  0  0  0  0  0  0
   -2.4107    8.7724    0.0000 C   0  0  0  0  0  0  0  0  0  0  0  0
   -1.0433    9.0376    0.0000 C   0  0  0  0  0  0  0  0  0  0  0  0
    0.3485    9.0909    0.0000 C   0  0  0  0  0  0  0  0  0  0  0  0
    1.7321    8.9312    0.0000 C   0  0  0  0  0  0  0  0  0  0  0  0
    3.0751    8.5621    0.0000 C   0  0  0  0  0  0  0  0  0  0  0  0
    4.3461    7.9924    0.0000 C   0  0  0  0  0  0  0  0  0  0  0  0
    5.5152    7.2353    0.0000 C   0  0  0  0  0  0  0  0  0  0  0  0
    6.5550    6.3086    0.0000 C   0  0  0  0  0  0  0  0  0  0  0  0
    7.4412    5.2340    0.0000 C   0  0  0  0  0  0  0  0  0  0  0  0
    8.1530    4.0368    0.0000 C   0  0  0  0  0  0  0  0  0  0  0  0
    9.3410    2.9561    0.0000 C   0  0  0  0  0  0  0  0  0  0  0  0
    9.2155    4.4509    0.0000 C   0  0  0  0  0  0  0  0  0  0  0  0
   10.4653    3.6214    0.0000 C   0  0  0  0  0  0  0  0  0  0  0  0
   11.8086    4.2890    0.0000 C   0  0  0  0  0  0  0  0  0  0  0  0
   11.9020    5.7860    0.0000 C   0  0  0  0  0  0  0  0  0  0  0  0
   10.6523    6.6155    0.0000 C   0  0  0  0  0  0  0  0  0  0  0  0
    9.3090    5.9480    0.0000 C   0  0  0  0  0  0  0  0  0  0  0  0
  1  2  1  0
  2  3  1  0
  3  4  1  0
  4  5  1  0
  5  6  1  0
  6  7  1  0
  7  8  1  0
  8  9  1  0
  9 10  1  0
 10 11  1  0
 11 12  1  0
 12 13  1  0
 13 14  1  0
 14 15  1  0
 15 16  1  0
 16 17  1  0
 17 18  1  0
 18 19  1  0
 19 20  1  0
 20 21  1  0
 21 22  1  0
 22 23  1  0
 23 24  1  0
 24 25  1  0
 25 26  1  0
 26 27  1  0
 27 28  1  0
 28 29  1  0
 29 30  1  0
 30 31  1  0
 31 32  1  0
 32 33  1  0
 33 34  1  0
 34 35  1  0
 35 36  1  0
 36 37  1  0
 37 38  1  0
 38 39  1  0
 39 40  1  0
 40 41  1  0
 41 42  1  0
 42 43  2  0
 43 44  1  0
 44 45  2  0
 45 46  1  0
 46 47  2  0
 47 48  1  0
 48 49  2  0
 49 50  1  0
 50 51  2  0
 51 52  1  0
 52 53  2  0
 53 54  1  0
 54 55  2  0
 55 56  1  0
 56 57  2  0
 57 58  1  0
 58 59  2  0
 59 60  1  0
 60 61  2  0
 61 62  1  0
 62 63  2  0
 63 64  1  0
 64 65  2  0
 65 66  1  0
 66 67  2  0
 67 68  1  0
 68 69  2  0
 69 70  1  0
 70 71  2  0
 71 72  1  0
 72 73  2  0
 73 74  1  0
 74 75  2  0
 75 76  1  0
 76 77  2  0
 77 78  1  0
 78 79  2  0
 79 80  1  0
 80 81  2  0
 81 82  1  0
 82 83  2  0
 83 84  1  0
 84 85  2  0
 85 86  1  0
 86 87  2  0
 87  2  1  0
 81 41  1  0
 87 82  1  0
M  END
>  <Title>  (59) 
idAAAIgen13

$$$$

     RDKit          2D

 42 43  0  0  0  0  0  0  0  0999 V2000
    9.0822    0.0000    0.0000 C   0  0  0  0  0  0  0  0  0  0  0  0
    8.9583   -1.4949    0.0000 C   0  0  0  0  0  0  0  0  0  0  0  0
    8.5901   -2.9490    0.0000 C   0  0  0  0  0  0  0  0  0  0  0  0
    7.9875   -4.3226    0.0000 C   0  0  0  0  0  0  0  0  0  0  0  0
    7.1671   -5.5784    0.0000 C   0  0  0  0  0  0  0  0  0  0  0  0
    6.1512   -6.6820    0.0000 C   0  0  0  0  0  0  0  0  0  0  0  0
    4.9675   -7.6033    0.0000 C   0  0  0  0  0  0  0  0  0  0  0  0
    3.6483   -8.3172    0.0000 C   0  0  0  0  0  0  0  0  0  0  0  0
    2.2295   -8.8043    0.0000 C   0  0  0  0  0  0  0  0  0  0  0  0
    0.7500   -9.0512    0.0000 C   0  0  0  0  0  0  0  0  0  0  0  0
   -0.7500   -9.0512    0.0000 C   0  0  0  0  0  0  0  0  0  0  0  0
   -2.2295   -8.8043    0.0000 C   0  0  0  0  0  0  0  0  0  0  0  0
   -3.6483   -8.3172    0.0000 C   0  0  0  0  0  0  0  0  0  0  0  0
   -4.9675   -7.6033    0.0000 C   0  0  0  0  0  0  0  0  0  0  0  0
   -6.1512   -6.6820    0.0000 C   0  0  0  0  0  0  0  0  0  0  0  0
   -7.1671   -5.5784    0.0000 C   0  0  0  0  0  0  0  0  0  0  0  0
   -7.9875   -4.3226    0.0000 C   0  0  0  0  0  0  0  0  0  0  0  0
   -8.5901   -2.9490    0.0000 C   0  0  0  0  0  0  0  0  0  0  0  0
   -8.9583   -1.4949    0.0000 C   0  0  0  0  0  0  0  0  0  0  0  0
   -9.0822    0.0000    0.0000 C   0  0  0  0  0  0  0  0  0  0  0  0
   -8.9583    1.4949    0.0000 C   0  0  0  0  0  0  0  0  0  0  0  0
   -8.5901    2.9490    0.0000 C   0  0  0  0  0  0  0  0  0  0  0  0
   -7.9875    4.3226    0.0000 C   0  0  0  0  0  0  0  0  0  0  0  0
   -7.1671    5.5784    0.0000 C   0  0  0  0  0  0  0  0  0  0  0  0
   -6.1512    6.6820    0.0000 C   0  0  0  0  0  0  0  0  0  0  0  0
   -4.9675    7.6033    0.0000 C   0  0  0  0  0  0  0  0  0  0  0  0
   -3.6483    8.3172    0.0000 C   0  0  0  0  0  0  0  0  0  0  0  0
   -2.2295    8.8043    0.0000 C   0  0  0  0  0  0  0  0  0  0  0  0
   -0.7500    9.0512    0.0000 C   0  0  0  0  0  0  0  0  0  0  0  0
    0.7500    9.0512    0.0000 C   0  0  0  0  0  0  0  0  0  0  0  0
    2.2295    8.8043    0.0000 C   0  0  0  0  0  0  0  0  0  0  0  0
    3.6483    8.3172    0.0000 C   0  0  0  0  0  0  0  0  0  0  0  0
    4.9675    7.6033    0.0000 C   0  0  0  0  0  0  0  0  0  0  0  0
    6.1512    6.6820    0.0000 C   0  0  0  0  0  0  0  0  0  0  0  0
    6.5990    8.1136    0.0000 C   0  0  0  0  0  0  0  0  0  0  0  0
    8.0627    8.4416    0.0000 C   0  0  0  0  0  0  0  0  0  0  0  0
    9.0786    7.3380    0.0000 C   0  0  0  0  0  0  0  0  0  0  0  0
    8.6308    5.9064    0.0000 C   0  0  0  0  0  0  0  0  0  0  0  0
    7.1671    5.5784    0.0000 C   0  0  0  0  0  0  0  0  0  0  0  0
    7.9875    4.3226    0.0000 C   0  0  0  0  0  0  0  0  0  0  0  0
    8.5901    2.9490    0.0000 C   0  0  0  0  0  0  0  0  0  0  0  0
    8.9583    1.4949    0.0000 C   0  0  0  0  0  0  0  0  0  0  0  0
  1  2  2  0
  2  3  1  0
  3  4  1  0
  4  5  1  0
  5  6  1  0
  6  7  1  0
  7  8  1  0
  8  9  1  0
  9 10  1  0
 10 11  1  0
 11 12  1  0
 12 13  1  0
 13 14  1  0
 14 15  1  0
 15 16  1  0
 16 17  1  0
 17 18  1  0
 18 19  1  0
 19 20  1  0
 20 21  1  0
 21 22  1  0
 22 23  1  0
 23 24  1  0
 24 25  1  0
 25 26  1  0
 26 27  1  0
 27 28  1  0
 28 29  1  0
 29 30  1  0
 30 31  1  0
 31 32  1  0
 32 33  1  0
 33 34  1  0
 34 35  2  0
 35 36  1  0
 36 37  2  0
 37 38  1  0
 38 39  2  0
 39 40  1  0
 40 41  2  0
 41 42  1  0
 42  1  1  0
 39 34  1  0
M  END
>  <Title>  (60) 
idAAAJgen13

$$$$

     RDKit          2D

 50 56  0  0  0  0  0  0  0  0999 V2000
   -4.1907   -4.1860    0.0000 C   0  0  0  0  0  0  0  0  0  0  0  0
   -4.3865   -2.6988    0.0000 C   0  0  0  0  0  0  0  0  0  0  0  0
   -5.7723   -2.1248    0.0000 C   0  0  0  0  0  0  0  0  0  0  0  0
   -5.9681   -0.6376    0.0000 C   0  0  0  0  0  0  0  0  0  0  0  0
   -4.7781    0.2755    0.0000 C   0  0  0  0  0  0  0  0  0  0  0  0
   -4.9739    1.7627    0.0000 N   0  0  0  0  0  0  0  0  0  0  0  0
   -3.7838    2.6758    0.0000 C   0  0  0  0  0  0  0  0  0  0  0  0
   -3.9796    4.1630    0.0000 C   0  0  0  0  0  0  0  0  0  0  0  0
   -5.3655    4.7370    0.0000 N   0  0  0  0  0  0  0  0  0  0  0  0
   -6.5555    3.8239    0.0000 N   0  0  0  0  0  0  0  0  0  0  0  0
   -6.3597    2.3367    0.0000 N   0  0  0  0  0  0  0  0  0  0  0  0
   -3.3923   -0.2985    0.0000 C   0  0  0  0  0  0  0  0  0  0  0  0
   -2.2022    0.6146    0.0000 O   0  0  0  0  0  0  0  0  0  0  0  0
   -3.1965   -1.7857    0.0000 N   0  0  0  0  0  0  0  0  0  0  0  0
   -1.8107   -2.3597    0.0000 C   0  0  0  0  0  0  0  0  0  0  0  0
   -1.8107   -3.8597    0.0000 C   0  0  0  0  0  0  0  0  0  0  0  0
   -0.7500   -4.9204    0.0000 C   0  0  0  0  0  0  0  0  0  0  0  0
    0.7500   -4.9204    0.0000 C   0  0  0  0  0  0  0  0  0  0  0  0
    1.3240   -6.3062    0.0000 C   0  0  0  0  0  0  0  0  0  0  0  0
    2.8112   -6.5020    0.0000 O   0  0  0  0  0  0  0  0  0  0  0  0
    0.4109   -7.4962    0.0000 N   0  0  0  0  0  0  0  0  0  0  0  0
    0.9849   -8.8820    0.0000 C   0  0  0  0  0  0  0  0  0  0  0  0
    2.4435   -9.2322    0.0000 N   0  0  0  0  0  0  0  0  0  0  0  0
    2.5612  -10.7276    0.0000 N   0  0  0  0  0  0  0  0  0  0  0  0
    1.1753  -11.3016    0.0000 N   0  0  0  0  0  0  0  0  0  0  0  0
    0.2012  -10.1610    0.0000 N   0  0  0  0  0  0  0  0  0  0  0  0
   -1.2942  -10.2787    0.0000 N   0  0  0  0  0  0  0  0  0  0  0  0
   -2.0780  -11.5576    0.0000 C   0  0  0  0  0  0  0  0  0  0  0  0
   -3.5365  -11.2075    0.0000 C   0  0  0  0  0  0  0  0  0  0  0  0
   -3.6542   -9.7121    0.0000 N   0  0  0  0  0  0  0  0  0  0  0  0
   -4.9332   -8.9283    0.0000 C   0  0  0  0  0  0  0  0  0  0  0  0
   -6.2514   -9.6441    0.0000 O   0  0  0  0  0  0  0  0  0  0  0  0
   -4.8939   -7.4289    0.0000 N   0  0  0  0  0  0  0  0  0  0  0  0
   -6.1729   -6.6451    0.0000 C   0  0  0  0  0  0  0  0  0  0  0  0
   -6.1336   -5.1456    0.0000 N   0  0  0  0  0  0  0  0  0  0  0  0
   -7.4126   -4.3619    0.0000 N   0  0  0  0  0  0  0  0  0  0  0  0
   -8.7308   -5.0776    0.0000 N   0  0  0  0  0  0  0  0  0  0  0  0
   -8.7700   -6.5771    0.0000 N   0  0  0  0  0  0  0  0  0  0  0  0
   -7.4911   -7.3608    0.0000 N   0  0  0  0  0  0  0  0  0  0  0  0
   -2.2684   -9.1381    0.0000 C   0  0  0  0  0  0  0  0  0  0  0  0
   -1.9182   -7.6795    0.0000 O   0  0  0  0  0  0  0  0  0  0  0  0
    1.8107   -3.8597    0.0000 C   0  0  0  0  0  0  0  0  0  0  0  0
    3.1965   -4.4337    0.0000 O   0  0  0  0  0  0  0  0  0  0  0  0
    1.8107   -2.3597    0.0000 O   0  0  0  0  0  0  0  0  0  0  0  0
    0.7500   -1.2990    0.0000 C   0  0  0  0  0  0  0  0  0  0  0  0
    1.5000    0.0000    0.0000 C   0  0  0  0  0  0  0  0  0  0  0  0
    0.7500    1.2990    0.0000 C   0  0  0  0  0  0  0  0  0  0  0  0
   -0.7500    1.2990    0.0000 C   0  0  0  0  0  0  0  0  0  0  0  0
   -1.5000    0.0000    0.0000 C   0  0  0  0  0  0  0  0  0  0  0  0
   -0.7500   -1.2990    0.0000 C   0  0  0  0  0  0  0  0  0  0  0  0
  1  2  1  0
  2  3  2  0
  3  4  1  0
  4  5  2  0
  5  6  1  0
  6  7  1  0
  7  8  1  0
  8  9  2  0
  9 10  1  0
 10 11  2  0
  5 12  1  0
 12 13  2  0
 12 14  1  0
 14 15  1  0
 15 16  2  0
 16 17  1  0
 17 18  2  0
 18 19  1  0
 19 20  2  0
 19 21  1  0
 21 22  1  0
 22 23  2  0
 23 24  1  0
 24 25  2  0
 25 26  1  0
 26 27  1  0
 27 28  1  0
 28 29  1  0
 29 30  1  0
 30 31  1  0
 31 32  2  0
 31 33  1  0
 33 34  1  0
 34 35  2  0
 35 36  1  0
 36 37  2  0
 37 38  1  0
 38 39  2  0
 30 40  1  0
 40 41  2  0
 18 42  1  0
 42 43  2  0
 42 44  1  0
 44 45  1  0
 45 46  2  0
 46 47  1  0
 47 48  2  0
 48 49  1  0
 49 50  2  0
 14  2  1  0
 50 15  1  0
 11  6  1  0
 26 22  1  0
 40 27  1  0
 50 45  1  0
 39 34  1  0
M  END
>  <Title>  (61) 
idAAAKgen13

$$$$

     RDKit          2D

  7  7  0  0  0  0  0  0  0  0999 V2000
    3.0000    0.0000    0.0000 O   0  0  0  0  0  0  0  0  0  0  0  0
    1.5000    0.0000    0.0000 C   0  0  0  0  0  0  0  0  0  0  0  0
    0.7500   -1.2990    0.0000 C   0  0  0  0  0  0  0  0  0  0  0  0
   -0.7500   -1.2990    0.0000 C   0  0  0  0  0  0  0  0  0  0  0  0
   -1.5000    0.0000    0.0000 C   0  0  0  0  0  0  0  0  0  0  0  0
   -0.7500    1.2990    0.0000 N   0  0  0  0  0  0  0  0  0  0  0  0
    0.7500    1.2990    0.0000 C   0  0  0  0  0  0  0  0  0  0  0  0
  1  2  1  0
  2  3  2  0
  3  4  1  0
  4  5  2  0
  5  6  1  0
  6  7  1  0
  7  2  1  0
M  END
>  <Title>  (62) 
idAAALgen13

$$$$

     RDKit          2D

 14 15  0  0  0  0  0  0  0  0999 V2000
   -6.1696    0.7681    0.0000 C   0  0  0  0  0  0  0  0  0  0  0  0
   -4.8819    1.5375    0.0000 C   0  0  0  0  0  0  0  0  0  0  0  0
   -3.5718    0.8070    0.0000 C   0  0  0  0  0  0  0  0  0  0  0  0
   -2.2841    1.5763    0.0000 C   0  0  0  0  0  0  0  0  0  0  0  0
   -2.4186    3.0703    0.0000 C   0  0  0  0  0  0  0  0  0  0  0  0
   -3.8230    3.5974    0.0000 C   0  0  0  0  0  0  0  0  0  0  0  0
   -1.3344    4.1069    0.0000 C   0  0  0  0  0  0  0  0  0  0  0  0
    0.1520    3.9056    0.0000 C   0  0  0  0  0  0  0  0  0  0  0  0
    0.9214    2.6179    0.0000 C   0  0  0  0  0  0  0  0  0  0  0  0
    0.3943    1.2135    0.0000 C   0  0  0  0  0  0  0  0  0  0  0  0
    1.2760    0.0000    0.0000 N   0  0  0  0  0  0  0  0  0  0  0  0
    0.3943   -1.2135    0.0000 N   0  0  0  0  0  0  0  0  0  0  0  0
   -1.0323   -0.7500    0.0000 N   0  0  0  0  0  0  0  0  0  0  0  0
   -1.0323    0.7500    0.0000 N   0  0  0  0  0  0  0  0  0  0  0  0
  1  2  1  0
  2  3  1  0
  3  4  2  3
  4  5  1  0
  5  6  1  0
  5  7  1  0
  7  8  1  0
  8  9  1  0
  9 10  1  0
 10 11  2  0
 11 12  1  0
 12 13  2  0
 13 14  1  0
 14  4  1  0
 14 10  1  0
M  END
>  <Title>  (63) 
idAAAMgen13

$$$$

     RDKit          2D

 36 40  0  0  0  0  0  0  0  0999 V2000
   -3.0000   -2.5981    0.0000 C   0  0  0  0  0  0  0  0  0  0  0  0
   -1.5000   -2.5981    0.0000 C   0  0  0  0  0  0  0  0  0  0  0  0
   -0.7500   -3.8971    0.0000 C   0  0  0  0  0  0  0  0  0  0  0  0
    0.7500   -3.8971    0.0000 C   0  0  0  0  0  0  0  0  0  0  0  0
    1.5000   -2.5981    0.0000 C   0  0  0  0  0  0  0  0  0  0  0  0
    3.0000   -2.5981    0.0000 C   0  0  0  0  0  0  0  0  0  0  0  0
    3.7500   -1.2990    0.0000 O   0  0  0  0  0  0  0  0  0  0  0  0
    3.7500   -3.8971    0.0000 N   0  0  0  0  0  0  0  0  0  0  0  0
    5.2500   -3.8971    0.0000 C   0  0  0  0  0  0  0  0  0  0  0  0
    6.1317   -2.6836    0.0000 N   0  0  0  0  0  0  0  0  0  0  0  0
    7.5583   -3.1471    0.0000 N   0  0  0  0  0  0  0  0  0  0  0  0
    7.5583   -4.6471    0.0000 N   0  0  0  0  0  0  0  0  0  0  0  0
    6.1317   -5.1106    0.0000 N   0  0  0  0  0  0  0  0  0  0  0  0
    5.6682   -6.5372    0.0000 C   0  0  0  0  0  0  0  0  0  0  0  0
    6.5498   -7.7508    0.0000 C   0  0  0  0  0  0  0  0  0  0  0  0
    5.6682   -8.9643    0.0000 C   0  0  0  0  0  0  0  0  0  0  0  0
    4.2416   -8.5008    0.0000 C   0  0  0  0  0  0  0  0  0  0  0  0
    3.0280   -9.3824    0.0000 O   0  0  0  0  0  0  0  0  0  0  0  0
    1.6577   -8.7723    0.0000 C   0  0  0  0  0  0  0  0  0  0  0  0
    1.5009   -7.2805    0.0000 O   0  0  0  0  0  0  0  0  0  0  0  0
    0.4442   -9.6540    0.0000 N   0  0  0  0  0  0  0  0  0  0  0  0
   -0.9261   -9.0439    0.0000 C   0  0  0  0  0  0  0  0  0  0  0  0
   -1.0829   -7.5521    0.0000 N   0  0  0  0  0  0  0  0  0  0  0  0
   -2.4532   -6.9420    0.0000 N   0  0  0  0  0  0  0  0  0  0  0  0
   -3.6668   -7.8237    0.0000 N   0  0  0  0  0  0  0  0  0  0  0  0
   -3.5100   -9.3155    0.0000 N   0  0  0  0  0  0  0  0  0  0  0  0
   -2.1396   -9.9256    0.0000 N   0  0  0  0  0  0  0  0  0  0  0  0
    4.2416   -7.0008    0.0000 C   0  0  0  0  0  0  0  0  0  0  0  0
    3.0280   -6.1191    0.0000 C   0  0  0  0  0  0  0  0  0  0  0  0
    3.1848   -4.6273    0.0000 O   0  0  0  0  0  0  0  0  0  0  0  0
    0.7500   -1.2990    0.0000 C   0  0  0  0  0  0  0  0  0  0  0  0
    1.5000    0.0000    0.0000 C   0  0  0  0  0  0  0  0  0  0  0  0
    0.7500    1.2990    0.0000 C   0  0  0  0  0  0  0  0  0  0  0  0
   -0.7500    1.2990    0.0000 C   0  0  0  0  0  0  0  0  0  0  0  0
   -1.5000    0.0000    0.0000 C   0  0  0  0  0  0  0  0  0  0  0  0
   -0.7500   -1.2990    0.0000 C   0  0  0  0  0  0  0  0  0  0  0  0
  1  2  1  0
  2  3  1  0
  3  4  2  0
  4  5  1  0
  5  6  1  0
  6  7  2  0
  6  8  1  0
  8  9  1  0
  9 10  2  0
 10 11  1  0
 11 12  2  0
 12 13  1  0
 13 14  1  0
 14 15  2  0
 15 16  1  0
 16 17  2  0
 17 18  1  0
 18 19  1  0
 19 20  2  0
 19 21  1  0
 21 22  1  0
 22 23  2  0
 23 24  1  0
 24 25  2  0
 25 26  1  0
 26 27  2  0
 17 28  1  0
 28 29  1  0
 29 30  1  0
  5 31  1  0
 31 32  2  0
 32 33  1  0
 33 34  2  0
 34 35  1  0
 35 36  2  0
 36  2  1  0
 13  9  1  0
 28 14  1  0
 36 31  1  0
 27 22  1  0
M  END
>  <Title>  (64) 
idAAANgen13

$$$$

     RDKit          2D

  4  3  0  0  0  0  0  0  0  0999 V2000
    0.0000    0.0000    0.0000 C   0  0  0  0  0  0  0  0  0  0  0  0
    1.2990    0.7500    0.0000 C   0  0  0  0  0  0  0  0  0  0  0  0
    2.5981    1.5000    0.0000 C   0  0  0  0  0  0  0  0  0  0  0  0
    3.8971    2.2500    0.0000 C   0  0  0  0  0  0  0  0  0  0  0  0
  1  2  1  0
  2  3  3  0
  3  4  1  0
M  END
>  <Title>  (65) 
idAAAOgen13

$$$$

     RDKit          2D

  8  8  0  0  0  0  0  0  0  0999 V2000
    5.0260   -1.2990    0.0000 C   0  0  0  0  0  0  0  0  0  0  0  0
    3.5260   -1.2990    0.0000 C   0  0  0  0  0  0  0  0  0  0  0  0
    2.7760    0.0000    0.0000 C   0  0  0  0  0  0  0  0  0  0  0  0
    1.2760    0.0000    0.0000 C   0  0  0  0  0  0  0  0  0  0  0  0
    0.3943    1.2135    0.0000 C   0  0  0  0  0  0  0  0  0  0  0  0
   -1.0323    0.7500    0.0000 C   0  0  0  0  0  0  0  0  0  0  0  0
   -1.0323   -0.7500    0.0000 C   0  0  0  0  0  0  0  0  0  0  0  0
    0.3943   -1.2135    0.0000 C   0  0  0  0  0  0  0  0  0  0  0  0
  1  2  2  0
  2  3  1  0
  3  4  1  0
  4  5  2  0
  5  6  1  0
  6  7  2  0
  7  8  1  0
  8  4  1  0
M  END
>  <Title>  (66) 
idAAAPgen13

$$$$

     RDKit          2D

 71 72  0  0  0  0  0  0  0  0999 V2000
   -2.2371   -1.0554    0.0000 C   0  0  0  0  0  0  0  0  0  0  0  0
   -2.4960    0.4221    0.0000 C   0  0  0  0  0  0  0  0  0  0  0  0
   -3.9840    0.2327    0.0000 C   0  0  0  0  0  0  0  0  0  0  0  0
   -5.4832    0.1835    0.0000 C   0  0  0  0  0  0  0  0  0  0  0  0
   -6.9804    0.2749    0.0000 C   0  0  0  0  0  0  0  0  0  0  0  0
   -8.4625    0.5060    0.0000 C   0  0  0  0  0  0  0  0  0  0  0  0
   -9.9164    0.8750    0.0000 C   0  0  0  0  0  0  0  0  0  0  0  0
  -11.3294    1.3785    0.0000 C   0  0  0  0  0  0  0  0  0  0  0  0
  -12.6890    2.0120    0.0000 C   0  0  0  0  0  0  0  0  0  0  0  0
  -13.9833    2.7701    0.0000 C   0  0  0  0  0  0  0  0  0  0  0  0
  -15.2010    3.6461    0.0000 C   0  0  0  0  0  0  0  0  0  0  0  0
  -16.3313    4.6323    0.0000 C   0  0  0  0  0  0  0  0  0  0  0  0
  -17.3642    5.7199    0.0000 C   0  0  0  0  0  0  0  0  0  0  0  0
  -18.2908    6.8995    0.0000 C   0  0  0  0  0  0  0  0  0  0  0  0
  -19.1028    8.1607    0.0000 C   0  0  0  0  0  0  0  0  0  0  0  0
  -19.7932    9.4924    0.0000 C   0  0  0  0  0  0  0  0  0  0  0  0
  -20.3558   10.8829    0.0000 C   0  0  0  0  0  0  0  0  0  0  0  0
  -20.7858   12.3199    0.0000 C   0  0  0  0  0  0  0  0  0  0  0  0
  -21.0793   13.7909    0.0000 C   0  0  0  0  0  0  0  0  0  0  0  0
  -21.2337   15.2830    0.0000 C   0  0  0  0  0  0  0  0  0  0  0  0
  -21.2478   16.7829    0.0000 C   0  0  0  0  0  0  0  0  0  0  0  0
  -21.1213   18.2776    0.0000 C   0  0  0  0  0  0  0  0  0  0  0  0
  -20.8555   19.7538    0.0000 C   0  0  0  0  0  0  0  0  0  0  0  0
  -20.4526   21.1987    0.0000 C   0  0  0  0  0  0  0  0  0  0  0  0
  -19.9161   22.5995    0.0000 C   0  0  0  0  0  0  0  0  0  0  0  0
  -19.2508   23.9439    0.0000 C   0  0  0  0  0  0  0  0  0  0  0  0
  -18.4626   25.2201    0.0000 C   0  0  0  0  0  0  0  0  0  0  0  0
  -17.5583   26.4169    0.0000 C   0  0  0  0  0  0  0  0  0  0  0  0
  -16.5459   27.5237    0.0000 C   0  0  0  0  0  0  0  0  0  0  0  0
  -15.4344   28.5309    0.0000 C   0  0  0  0  0  0  0  0  0  0  0  0
  -14.2334   29.4295    0.0000 C   0  0  0  0  0  0  0  0  0  0  0  0
  -12.9535   30.2118    0.0000 C   0  0  0  0  0  0  0  0  0  0  0  0
  -11.6060   30.8707    0.0000 C   0  0  0  0  0  0  0  0  0  0  0  0
  -10.2027   31.4006    0.0000 C   0  0  0  0  0  0  0  0  0  0  0  0
   -8.7559   31.7968    0.0000 C   0  0  0  0  0  0  0  0  0  0  0  0
   -7.2785   32.0557    0.0000 C   0  0  0  0  0  0  0  0  0  0  0  0
   -5.7832   32.1751    0.0000 C   0  0  0  0  0  0  0  0  0  0  0  0
   -4.2834   32.1540    0.0000 C   0  0  0  0  0  0  0  0  0  0  0  0
   -2.7921   31.9926    0.0000 C   0  0  0  0  0  0  0  0  0  0  0  0
   -1.3225   31.6922    0.0000 C   0  0  0  0  0  0  0  0  0  0  0  0
    0.1126   31.2555    0.0000 C   0  0  0  0  0  0  0  0  0  0  0  0
    1.5004   30.6864    0.0000 C   0  0  0  0  0  0  0  0  0  0  0  0
    2.8288   29.9898    0.0000 C   0  0  0  0  0  0  0  0  0  0  0  0
    4.0862   29.1718    0.0000 C   0  0  0  0  0  0  0  0  0  0  0  0
    5.2614   28.2397    0.0000 C   0  0  0  0  0  0  0  0  0  0  0  0
    6.3442   27.2017    0.0000 C   0  0  0  0  0  0  0  0  0  0  0  0
    7.3251   26.0668    0.0000 C   0  0  0  0  0  0  0  0  0  0  0  0
    8.1953   24.8451    0.0000 C   0  0  0  0  0  0  0  0  0  0  0  0
    8.9474   23.5472    0.0000 C   0  0  0  0  0  0  0  0  0  0  0  0
    9.5746   22.1846    0.0000 C   0  0  0  0  0  0  0  0  0  0  0  0
   10.0714   20.7693    0.0000 C   0  0  0  0  0  0  0  0  0  0  0  0
   10.4335   19.3137    0.0000 C   0  0  0  0  0  0  0  0  0  0  0  0
   10.6578   17.8305    0.0000 C   0  0  0  0  0  0  0  0  0  0  0  0
   10.7421   16.3329    0.0000 C   0  0  0  0  0  0  0  0  0  0  0  0
   10.6859   14.8339    0.0000 C   0  0  0  0  0  0  0  0  0  0  0  0
   10.4895   13.3468    0.0000 C   0  0  0  0  0  0  0  0  0  0  0  0
   10.1547   11.8847    0.0000 C   0  0  0  0  0  0  0  0  0  0  0  0
    9.6845   10.4603    0.0000 C   0  0  0  0  0  0  0  0  0  0  0  0
    9.0830    9.0862    0.0000 C   0  0  0  0  0  0  0  0  0  0  0  0
    8.3554    7.7744    0.0000 C   0  0  0  0  0  0  0  0  0  0  0  0
    7.5082    6.5366    0.0000 C   0  0  0  0  0  0  0  0  0  0  0  0
    6.5489    5.3835    0.0000 C   0  0  0  0  0  0  0  0  0  0  0  0
    5.4857    4.3253    0.0000 C   0  0  0  0  0  0  0  0  0  0  0  0
    4.3282    3.3714    0.0000 C   0  0  0  0  0  0  0  0  0  0  0  0
    3.0863    2.5300    0.0000 C   0  0  0  0  0  0  0  0  0  0  0  0
    1.7712    1.8086    0.0000 C   0  0  0  0  0  0  0  0  0  0  0  0
    0.3943    1.2135    0.0000 C   0  0  0  0  0  0  0  0  0  0  0  0
    1.2760    0.0000    0.0000 C   0  0  0  0  0  0  0  0  0  0  0  0
    0.3943   -1.2135    0.0000 C   0  0  0  0  0  0  0  0  0  0  0  0
   -1.0323   -0.7500    0.0000 C   0  0  0  0  0  0  0  0  0  0  0  0
   -1.0323    0.7500    0.0000 C   0  0  0  0  0  0  0  0  0  0  0  0
  1  2  1  0
  2  3  1  0
  3  4  1  0
  4  5  1  0
  5  6  1  0
  6  7  1  0
  7  8  1  0
  8  9  1  0
  9 10  1  0
 10 11  1  0
 11 12  1  0
 12 13  1  0
 13 14  1  0
 14 15  1  0
 15 16  1  0
 16 17  1  0
 17 18  1  0
 18 19  1  0
 19 20  1  0
 20 21  1  0
 21 22  1  0
 22 23  1  0
 23 24  1  0
 24 25  1  0
 25 26  1  0
 26 27  1  0
 27 28  1  0
 28 29  1  0
 29 30  1  0
 30 31  1  0
 31 32  1  0
 32 33  1  0
 33 34  1  0
 34 35  1  0
 35 36  1  0
 36 37  1  0
 37 38  1  0
 38 39  1  0
 39 40  1  0
 40 41  1  0
 41 42  1  0
 42 43  1  0
 43 44  1  0
 44 45  1  0
 45 46  1  0
 46 47  1  0
 47 48  1  0
 48 49  1  0
 49 50  1  0
 50 51  1  0
 51 52  1  0
 52 53  1  0
 53 54  1  0
 54 55  2  0
 55 56  1  0
 56 57  2  0
 57 58  1  0
 58 59  2  0
 59 60  1  0
 60 61  2  0
 61 62  1  0
 62 63  2  0
 63 64  1  0
 64 65  2  0
 65 66  1  0
 66 67  2  0
 67 68  1  0
 68 69  2  0
 69 70  1  0
 70 71  2  0
 71  2  1  0
 71 67  1  0
M  END
>  <Title>  (67) 
idAAAQgen13

$$$$

     RDKit          2D

 26 29  0  0  0  0  0  0  0  0999 V2000
   -3.1476   -2.1380    0.0000 C   0  0  0  0  0  0  0  0  0  0  0  0
   -1.6852   -2.4718    0.0000 C   0  0  0  0  0  0  0  0  0  0  0  0
   -1.3515   -3.9342    0.0000 C   0  0  0  0  0  0  0  0  0  0  0  0
   -0.0000   -4.5850    0.0000 C   0  0  0  0  0  0  0  0  0  0  0  0
    1.3515   -3.9342    0.0000 C   0  0  0  0  0  0  0  0  0  0  0  0
    1.6852   -2.4718    0.0000 C   0  0  0  0  0  0  0  0  0  0  0  0
    3.1476   -2.1380    0.0000 C   0  0  0  0  0  0  0  0  0  0  0  0
    3.5898   -0.7046    0.0000 O   0  0  0  0  0  0  0  0  0  0  0  0
    4.1679   -3.2376    0.0000 N   0  0  0  0  0  0  0  0  0  0  0  0
    5.6303   -2.9038    0.0000 C   0  0  0  0  0  0  0  0  0  0  0  0
    6.2198   -1.5245    0.0000 N   0  0  0  0  0  0  0  0  0  0  0  0
    7.7138   -1.6590    0.0000 N   0  0  0  0  0  0  0  0  0  0  0  0
    8.0476   -3.1214    0.0000 N   0  0  0  0  0  0  0  0  0  0  0  0
    6.7599   -3.8907    0.0000 N   0  0  0  0  0  0  0  0  0  0  0  0
    6.6254   -5.3847    0.0000 N   0  0  0  0  0  0  0  0  0  0  0  0
    5.2644   -6.0152    0.0000 C   0  0  0  0  0  0  0  0  0  0  0  0
    5.1299   -7.5092    0.0000 C   0  0  0  0  0  0  0  0  0  0  0  0
    6.3565   -8.3726    0.0000 N   0  0  0  0  0  0  0  0  0  0  0  0
    7.7175   -7.7421    0.0000 N   0  0  0  0  0  0  0  0  0  0  0  0
    7.8520   -6.2481    0.0000 N   0  0  0  0  0  0  0  0  0  0  0  0
    0.7500   -1.2990    0.0000 C   0  0  0  0  0  0  0  0  0  0  0  0
    1.5000    0.0000    0.0000 C   0  0  0  0  0  0  0  0  0  0  0  0
    0.7500    1.2990    0.0000 C   0  0  0  0  0  0  0  0  0  0  0  0
   -0.7500    1.2990    0.0000 C   0  0  0  0  0  0  0  0  0  0  0  0
   -1.5000    0.0000    0.0000 C   0  0  0  0  0  0  0  0  0  0  0  0
   -0.7500   -1.2990    0.0000 C   0  0  0  0  0  0  0  0  0  0  0  0
  1  2  1  0
  2  3  1  0
  3  4  2  0
  4  5  1  0
  5  6  1  0
  6  7  1  0
  7  8  2  0
  7  9  1  0
  9 10  1  0
 10 11  2  0
 11 12  1  0
 12 13  2  0
 13 14  1  0
 14 15  1  0
 15 16  1  0
 16 17  1  0
 17 18  2  0
 18 19  1  0
 19 20  2  0
  6 21  1  0
 21 22  2  0
 22 23  1  0
 23 24  2  0
 24 25  1  0
 25 26  2  0
 26  2  1  0
 14 10  1  0
 20 15  1  0
 26 21  1  0
M  END
>  <Title>  (68) 
idAAARgen13

$$$$

     RDKit          2D

 35 39  0  0  0  0  0  0  0  0999 V2000
    8.2500    3.8971    0.0000 C   0  0  0  0  0  0  0  0  0  0  0  0
    7.5000    2.5981    0.0000 C   0  0  0  0  0  0  0  0  0  0  0  0
    8.2500    1.2990    0.0000 C   0  0  0  0  0  0  0  0  0  0  0  0
    7.5000    0.0000    0.0000 C   0  0  0  0  0  0  0  0  0  0  0  0
    6.0000    0.0000    0.0000 C   0  0  0  0  0  0  0  0  0  0  0  0
    5.2500   -1.2990    0.0000 O   0  0  0  0  0  0  0  0  0  0  0  0
    6.0000   -2.5981    0.0000 C   0  0  0  0  0  0  0  0  0  0  0  0
    7.5000   -2.5981    0.0000 O   0  0  0  0  0  0  0  0  0  0  0  0
    5.2500   -3.8971    0.0000 N   0  0  0  0  0  0  0  0  0  0  0  0
    6.0000   -5.1962    0.0000 C   0  0  0  0  0  0  0  0  0  0  0  0
    7.4918   -5.3529    0.0000 N   0  0  0  0  0  0  0  0  0  0  0  0
    7.8037   -6.8202    0.0000 N   0  0  0  0  0  0  0  0  0  0  0  0
    6.5046   -7.5702    0.0000 N   0  0  0  0  0  0  0  0  0  0  0  0
    5.3899   -6.5665    0.0000 N   0  0  0  0  0  0  0  0  0  0  0  0
    3.9227   -6.8783    0.0000 C   0  0  0  0  0  0  0  0  0  0  0  0
    2.8080   -5.8746    0.0000 C   0  0  0  0  0  0  0  0  0  0  0  0
    1.5089   -6.6246    0.0000 C   0  0  0  0  0  0  0  0  0  0  0  0
    1.8208   -8.0919    0.0000 C   0  0  0  0  0  0  0  0  0  0  0  0
    0.8171   -9.2066    0.0000 C   0  0  0  0  0  0  0  0  0  0  0  0
    1.2806  -10.6332    0.0000 O   0  0  0  0  0  0  0  0  0  0  0  0
   -0.6501   -8.8947    0.0000 N   0  0  0  0  0  0  0  0  0  0  0  0
   -1.6538  -10.0094    0.0000 C   0  0  0  0  0  0  0  0  0  0  0  0
   -1.1903  -11.4360    0.0000 N   0  0  0  0  0  0  0  0  0  0  0  0
   -2.1940  -12.5507    0.0000 N   0  0  0  0  0  0  0  0  0  0  0  0
   -3.6612  -12.2389    0.0000 N   0  0  0  0  0  0  0  0  0  0  0  0
   -4.1247  -10.8123    0.0000 N   0  0  0  0  0  0  0  0  0  0  0  0
   -3.1210   -9.6976    0.0000 N   0  0  0  0  0  0  0  0  0  0  0  0
    3.3126   -8.2487    0.0000 C   0  0  0  0  0  0  0  0  0  0  0  0
    4.0626   -9.5477    0.0000 O   0  0  0  0  0  0  0  0  0  0  0  0
    5.2500    1.2990    0.0000 C   0  0  0  0  0  0  0  0  0  0  0  0
    3.7500    1.2990    0.0000 C   0  0  0  0  0  0  0  0  0  0  0  0
    3.0000    2.5981    0.0000 C   0  0  0  0  0  0  0  0  0  0  0  0
    3.7500    3.8971    0.0000 C   0  0  0  0  0  0  0  0  0  0  0  0
    5.2500    3.8971    0.0000 C   0  0  0  0  0  0  0  0  0  0  0  0
    6.0000    2.5981    0.0000 C   0  0  0  0  0  0  0  0  0  0  0  0
  1  2  1  0
  2  3  1  0
  3  4  2  0
  4  5  1  0
  5  6  1  0
  6  7  1  0
  7  8  2  0
  7  9  1  0
  9 10  1  0
 10 11  2  0
 11 12  1  0
 12 13  2  0
 13 14  1  0
 14 15  1  0
 15 16  2  0
 16 17  1  0
 17 18  2  0
 18 19  1  0
 19 20  2  0
 19 21  1  0
 21 22  1  0
 22 23  2  0
 23 24  1  0
 24 25  2  0
 25 26  1  0
 26 27  2  0
 18 28  1  0
 28 29  2  0
  5 30  1  0
 30 31  2  0
 31 32  1  0
 32 33  2  0
 33 34  1  0
 34 35  2  0
 35  2  1  0
 14 10  1  0
 28 15  1  0
 35 30  1  0
 27 22  1  0
M  END
>  <Title>  (69) 
idAAASgen13

$$$$

     RDKit          2D

  6  5  0  0  0  0  0  0  0  0999 V2000
    0.0000    0.0000    0.0000 C   0  0  0  0  0  0  0  0  0  0  0  0
   -0.0000   -1.5000    0.0000 C   0  0  0  0  0  0  0  0  0  0  0  0
   -0.0000   -3.0000    0.0000 C   0  0  0  0  0  0  0  0  0  0  0  0
   -0.0000   -4.5000    0.0000 C   0  0  0  0  0  0  0  0  0  0  0  0
   -0.0000   -6.0000    0.0000 C   0  0  0  0  0  0  0  0  0  0  0  0
   -0.0000   -7.5000    0.0000 C   0  0  0  0  0  0  0  0  0  0  0  0
  1  2  3  0
  2  3  1  0
  3  4  3  0
  4  5  1  0
  5  6  3  0
M  END
>  <Title>  (70) 
idAAATgen13

$$$$

     RDKit          2D

 35 39  0  0  0  0  0  0  0  0999 V2000
   -3.1965   -1.7857    0.0000 C   0  0  0  0  0  0  0  0  0  0  0  0
   -1.8107   -2.3597    0.0000 C   0  0  0  0  0  0  0  0  0  0  0  0
   -1.8107   -3.8597    0.0000 C   0  0  0  0  0  0  0  0  0  0  0  0
   -0.7500   -4.9204    0.0000 C   0  0  0  0  0  0  0  0  0  0  0  0
    0.7500   -4.9204    0.0000 C   0  0  0  0  0  0  0  0  0  0  0  0
    1.8107   -3.8597    0.0000 C   0  0  0  0  0  0  0  0  0  0  0  0
    1.8107   -2.3597    0.0000 C   0  0  0  0  0  0  0  0  0  0  0  0
    3.1965   -1.7857    0.0000 C   0  0  0  0  0  0  0  0  0  0  0  0
    3.3923   -0.2985    0.0000 O   0  0  0  0  0  0  0  0  0  0  0  0
    4.3865   -2.6988    0.0000 N   0  0  0  0  0  0  0  0  0  0  0  0
    5.7723   -2.1248    0.0000 C   0  0  0  0  0  0  0  0  0  0  0  0
    6.1225   -0.6662    0.0000 N   0  0  0  0  0  0  0  0  0  0  0  0
    7.6179   -0.5485    0.0000 N   0  0  0  0  0  0  0  0  0  0  0  0
    8.1919   -1.9344    0.0000 N   0  0  0  0  0  0  0  0  0  0  0  0
    7.0513   -2.9085    0.0000 N   0  0  0  0  0  0  0  0  0  0  0  0
    7.1690   -4.4039    0.0000 N   0  0  0  0  0  0  0  0  0  0  0  0
    8.4479   -5.1877    0.0000 C   0  0  0  0  0  0  0  0  0  0  0  0
    8.0978   -6.6462    0.0000 C   0  0  0  0  0  0  0  0  0  0  0  0
    6.6024   -6.7639    0.0000 N   0  0  0  0  0  0  0  0  0  0  0  0
    5.8186   -8.0429    0.0000 C   0  0  0  0  0  0  0  0  0  0  0  0
    6.5344   -9.3611    0.0000 O   0  0  0  0  0  0  0  0  0  0  0  0
    4.3192   -8.0036    0.0000 N   0  0  0  0  0  0  0  0  0  0  0  0
    3.5354   -9.2826    0.0000 C   0  0  0  0  0  0  0  0  0  0  0  0
    4.1094  -10.6684    0.0000 C   0  0  0  0  0  0  0  0  0  0  0  0
    2.9688  -11.6426    0.0000 C   0  0  0  0  0  0  0  0  0  0  0  0
    1.6899  -10.8588    0.0000 C   0  0  0  0  0  0  0  0  0  0  0  0
    2.0400   -9.4002    0.0000 C   0  0  0  0  0  0  0  0  0  0  0  0
    6.0284   -5.3781    0.0000 C   0  0  0  0  0  0  0  0  0  0  0  0
    4.5698   -5.0279    0.0000 O   0  0  0  0  0  0  0  0  0  0  0  0
    0.7500   -1.2990    0.0000 C   0  0  0  0  0  0  0  0  0  0  0  0
    1.5000    0.0000    0.0000 C   0  0  0  0  0  0  0  0  0  0  0  0
    0.7500    1.2990    0.0000 C   0  0  0  0  0  0  0  0  0  0  0  0
   -0.7500    1.2990    0.0000 C   0  0  0  0  0  0  0  0  0  0  0  0
   -1.5000    0.0000    0.0000 C   0  0  0  0  0  0  0  0  0  0  0  0
   -0.7500   -1.2990    0.0000 C   0  0  0  0  0  0  0  0  0  0  0  0
  1  2  1  0
  2  3  1  0
  3  4  2  0
  4  5  1  0
  5  6  1  0
  6  7  1  0
  7  8  1  0
  8  9  2  0
  8 10  1  0
 10 11  1  0
 11 12  2  0
 12 13  1  0
 13 14  2  0
 14 15  1  0
 15 16  1  0
 16 17  1  0
 17 18  1  0
 18 19  1  0
 19 20  1  0
 20 21  2  0
 20 22  1  0
 22 23  1  0
 23 24  1  0
 24 25  2  0
 25 26  1  0
 26 27  1  0
 19 28  1  0
 28 29  2  0
  7 30  1  0
 30 31  2  0
 31 32  1  0
 32 33  2  0
 33 34  1  0
 34 35  2  0
 35  2  1  0
 15 11  1  0
 28 16  1  0
 35 30  1  0
 27 23  1  0
M  END
>  <Title>  (71) 
idAAAUgen13

$$$$

     RDKit          2D

 35 39  0  0  0  0  0  0  0  0999 V2000
   -3.1965   -1.7857    0.0000 C   0  0  0  0  0  0  0  0  0  0  0  0
   -1.8107   -2.3597    0.0000 C   0  0  0  0  0  0  0  0  0  0  0  0
   -1.8107   -3.8597    0.0000 C   0  0  0  0  0  0  0  0  0  0  0  0
   -0.7500   -4.9204    0.0000 C   0  0  0  0  0  0  0  0  0  0  0  0
    0.7500   -4.9204    0.0000 C   0  0  0  0  0  0  0  0  0  0  0  0
    1.8107   -3.8597    0.0000 C   0  0  0  0  0  0  0  0  0  0  0  0
    1.8107   -2.3597    0.0000 C   0  0  0  0  0  0  0  0  0  0  0  0
    3.1965   -1.7857    0.0000 C   0  0  0  0  0  0  0  0  0  0  0  0
    3.3923   -0.2985    0.0000 O   0  0  0  0  0  0  0  0  0  0  0  0
    4.3865   -2.6988    0.0000 N   0  0  0  0  0  0  0  0  0  0  0  0
    5.7723   -2.1248    0.0000 C   0  0  0  0  0  0  0  0  0  0  0  0
    6.1225   -0.6662    0.0000 N   0  0  0  0  0  0  0  0  0  0  0  0
    7.6179   -0.5485    0.0000 N   0  0  0  0  0  0  0  0  0  0  0  0
    8.1919   -1.9344    0.0000 N   0  0  0  0  0  0  0  0  0  0  0  0
    7.0513   -2.9085    0.0000 N   0  0  0  0  0  0  0  0  0  0  0  0
    7.1690   -4.4039    0.0000 N   0  0  0  0  0  0  0  0  0  0  0  0
    6.1948   -5.5445    0.0000 C   0  0  0  0  0  0  0  0  0  0  0  0
    7.3354   -6.5187    0.0000 C   0  0  0  0  0  0  0  0  0  0  0  0
    7.4531   -8.0141    0.0000 C   0  0  0  0  0  0  0  0  0  0  0  0
    8.8070   -8.6598    0.0000 O   0  0  0  0  0  0  0  0  0  0  0  0
    6.2169   -8.8637    0.0000 N   0  0  0  0  0  0  0  0  0  0  0  0
    6.3346  -10.3591    0.0000 C   0  0  0  0  0  0  0  0  0  0  0  0
    5.0984  -11.2087    0.0000 N   0  0  0  0  0  0  0  0  0  0  0  0
    5.2161  -12.7040    0.0000 N   0  0  0  0  0  0  0  0  0  0  0  0
    6.5700  -13.3498    0.0000 N   0  0  0  0  0  0  0  0  0  0  0  0
    7.8062  -12.5002    0.0000 N   0  0  0  0  0  0  0  0  0  0  0  0
    7.6885  -11.0048    0.0000 N   0  0  0  0  0  0  0  0  0  0  0  0
    8.3096   -5.3781    0.0000 C   0  0  0  0  0  0  0  0  0  0  0  0
    9.8050   -5.2604    0.0000 O   0  0  0  0  0  0  0  0  0  0  0  0
    0.7500   -1.2990    0.0000 C   0  0  0  0  0  0  0  0  0  0  0  0
    1.5000    0.0000    0.0000 C   0  0  0  0  0  0  0  0  0  0  0  0
    0.7500    1.2990    0.0000 C   0  0  0  0  0  0  0  0  0  0  0  0
   -0.7500    1.2990    0.0000 C   0  0  0  0  0  0  0  0  0  0  0  0
   -1.5000    0.0000    0.0000 C   0  0  0  0  0  0  0  0  0  0  0  0
   -0.7500   -1.2990    0.0000 C   0  0  0  0  0  0  0  0  0  0  0  0
  1  2  1  0
  2  3  1  0
  3  4  1  0
  4  5  1  0
  5  6  1  0
  6  7  1  0
  7  8  1  0
  8  9  2  0
  8 10  1  0
 10 11  1  0
 11 12  2  0
 12 13  1  0
 13 14  2  0
 14 15  1  0
 15 16  1  0
 16 17  1  0
 17 18  2  0
 18 19  1  0
 19 20  2  0
 19 21  1  0
 21 22  1  0
 22 23  2  0
 23 24  1  0
 24 25  2  0
 25 26  1  0
 26 27  2  0
 18 28  1  0
 28 29  2  0
  7 30  1  0
 30 31  2  0
 31 32  1  0
 32 33  2  0
 33 34  1  0
 34 35  2  0
 35  2  1  0
 15 11  1  0
 28 16  1  0
 35 30  1  0
 27 22  1  0
M  END
>  <Title>  (72) 
idAAAVgen13

$$$$

     RDKit          2D

 75 79  0  0  0  0  0  0  0  0999 V2000
   -8.6192   -2.3780    0.0000 C   0  0  0  0  0  0  0  0  0  0  0  0
   -7.7900   -3.6280    0.0000 C   0  0  0  0  0  0  0  0  0  0  0  0
   -8.9941   -4.5225    0.0000 C   0  0  0  0  0  0  0  0  0  0  0  0
  -10.0962   -5.5400    0.0000 C   0  0  0  0  0  0  0  0  0  0  0  0
  -11.0840   -6.6689    0.0000 C   0  0  0  0  0  0  0  0  0  0  0  0
  -11.9462   -7.8963    0.0000 C   0  0  0  0  0  0  0  0  0  0  0  0
  -12.6730   -9.2085    0.0000 C   0  0  0  0  0  0  0  0  0  0  0  0
  -13.2562  -10.5904    0.0000 C   0  0  0  0  0  0  0  0  0  0  0  0
  -13.6893  -12.0266    0.0000 C   0  0  0  0  0  0  0  0  0  0  0  0
  -13.9672  -13.5006    0.0000 C   0  0  0  0  0  0  0  0  0  0  0  0
  -14.0869  -14.9958    0.0000 C   0  0  0  0  0  0  0  0  0  0  0  0
  -14.0469  -16.4953    0.0000 C   0  0  0  0  0  0  0  0  0  0  0  0
  -13.8479  -17.9820    0.0000 C   0  0  0  0  0  0  0  0  0  0  0  0
  -13.4919  -19.4391    0.0000 C   0  0  0  0  0  0  0  0  0  0  0  0
  -12.9830  -20.8502    0.0000 C   0  0  0  0  0  0  0  0  0  0  0  0
  -12.3270  -22.1992    0.0000 C   0  0  0  0  0  0  0  0  0  0  0  0
  -11.5314  -23.4708    0.0000 C   0  0  0  0  0  0  0  0  0  0  0  0
  -10.6051  -24.6506    0.0000 C   0  0  0  0  0  0  0  0  0  0  0  0
   -9.5587  -25.7253    0.0000 C   0  0  0  0  0  0  0  0  0  0  0  0
   -8.4039  -26.6826    0.0000 C   0  0  0  0  0  0  0  0  0  0  0  0
   -7.1540  -27.5118    0.0000 C   0  0  0  0  0  0  0  0  0  0  0  0
   -5.8229  -28.2035    0.0000 C   0  0  0  0  0  0  0  0  0  0  0  0
   -4.4259  -28.7497    0.0000 C   0  0  0  0  0  0  0  0  0  0  0  0
   -2.9788  -29.1444    0.0000 C   0  0  0  0  0  0  0  0  0  0  0  0
   -1.4979  -29.3830    0.0000 C   0  0  0  0  0  0  0  0  0  0  0  0
   -0.0000  -29.4628    0.0000 C   0  0  0  0  0  0  0  0  0  0  0  0
    1.4979  -29.3830    0.0000 C   0  0  0  0  0  0  0  0  0  0  0  0
    2.9788  -29.1444    0.0000 C   0  0  0  0  0  0  0  0  0  0  0  0
    4.4259  -28.7497    0.0000 C   0  0  0  0  0  0  0  0  0  0  0  0
    5.8229  -28.2035    0.0000 C   0  0  0  0  0  0  0  0  0  0  0  0
    7.1540  -27.5118    0.0000 C   0  0  0  0  0  0  0  0  0  0  0  0
    8.4039  -26.6826    0.0000 C   0  0  0  0  0  0  0  0  0  0  0  0
    9.5587  -25.7253    0.0000 C   0  0  0  0  0  0  0  0  0  0  0  0
   10.6051  -24.6506    0.0000 C   0  0  0  0  0  0  0  0  0  0  0  0
   11.5314  -23.4708    0.0000 C   0  0  0  0  0  0  0  0  0  0  0  0
   12.3270  -22.1992    0.0000 C   0  0  0  0  0  0  0  0  0  0  0  0
   12.9830  -20.8502    0.0000 C   0  0  0  0  0  0  0  0  0  0  0  0
   13.4919  -19.4391    0.0000 C   0  0  0  0  0  0  0  0  0  0  0  0
   13.8479  -17.9820    0.0000 C   0  0  0  0  0  0  0  0  0  0  0  0
   14.0469  -16.4953    0.0000 C   0  0  0  0  0  0  0  0  0  0  0  0
   14.0869  -14.9958    0.0000 C   0  0  0  0  0  0  0  0  0  0  0  0
   13.9672  -13.5006    0.0000 C   0  0  0  0  0  0  0  0  0  0  0  0
   13.6893  -12.0266    0.0000 C   0  0  0  0  0  0  0  0  0  0  0  0
   13.2562  -10.5904    0.0000 C   0  0  0  0  0  0  0  0  0  0  0  0
   12.6730   -9.2085    0.0000 C   0  0  0  0  0  0  0  0  0  0  0  0
   11.9462   -7.8963    0.0000 C   0  0  0  0  0  0  0  0  0  0  0  0
   11.0840   -6.6689    0.0000 C   0  0  0  0  0  0  0  0  0  0  0  0
   10.0962   -5.5400    0.0000 C   0  0  0  0  0  0  0  0  0  0  0  0
    8.9941   -4.5225    0.0000 C   0  0  0  0  0  0  0  0  0  0  0  0
    7.7900   -3.6280    0.0000 C   0  0  0  0  0  0  0  0  0  0  0  0
    6.4977   -2.8665    0.0000 C   0  0  0  0  0  0  0  0  0  0  0  0
    5.1317   -2.2467    0.0000 C   0  0  0  0  0  0  0  0  0  0  0  0
    3.7076   -1.7756    0.0000 C   0  0  0  0  0  0  0  0  0  0  0  0
    3.8591   -3.2679    0.0000 C   0  0  0  0  0  0  0  0  0  0  0  0
    2.4866   -3.8731    0.0000 C   0  0  0  0  0  0  0  0  0  0  0  0
    1.4869   -2.7548    0.0000 C   0  0  0  0  0  0  0  0  0  0  0  0
    2.2415   -1.4585    0.0000 C   0  0  0  0  0  0  0  0  0  0  0  0
    0.7500   -1.2990    0.0000 C   0  0  0  0  0  0  0  0  0  0  0  0
    1.5000    0.0000    0.0000 C   0  0  0  0  0  0  0  0  0  0  0  0
    0.7500    1.2990    0.0000 C   0  0  0  0  0  0  0  0  0  0  0  0
   -0.7500    1.2990    0.0000 C   0  0  0  0  0  0  0  0  0  0  0  0
   -1.5000    0.0000    0.0000 C   0  0  0  0  0  0  0  0  0  0  0  0
   -0.7500   -1.2990    0.0000 C   0  0  0  0  0  0  0  0  0  0  0  0
   -2.2415   -1.4585    0.0000 C   0  0  0  0  0  0  0  0  0  0  0  0
   -1.2339   -2.5696    0.0000 C   0  0  0  0  0  0  0  0  0  0  0  0
   -1.6923   -3.9978    0.0000 C   0  0  0  0  0  0  0  0  0  0  0  0
   -3.1584   -4.3149    0.0000 C   0  0  0  0  0  0  0  0  0  0  0  0
   -4.1661   -3.2038    0.0000 C   0  0  0  0  0  0  0  0  0  0  0  0
   -3.7076   -1.7756    0.0000 C   0  0  0  0  0  0  0  0  0  0  0  0
   -5.1317   -2.2467    0.0000 C   0  0  0  0  0  0  0  0  0  0  0  0
   -4.9855   -0.7538    0.0000 C   0  0  0  0  0  0  0  0  0  0  0  0
   -6.2053    0.1192    0.0000 C   0  0  0  0  0  0  0  0  0  0  0  0
   -7.5712   -0.5006    0.0000 C   0  0  0  0  0  0  0  0  0  0  0  0
   -7.7174   -1.9934    0.0000 C   0  0  0  0  0  0  0  0  0  0  0  0
   -6.4977   -2.8665    0.0000 C   0  0  0  0  0  0  0  0  0  0  0  0
  1  2  1  0
  2  3  1  0
  3  4  1  0
  4  5  1  0
  5  6  1  0
  6  7  1  0
  7  8  1  0
  8  9  1  0
  9 10  1  0
 10 11  1  0
 11 12  1  0
 12 13  1  0
 13 14  1  0
 14 15  1  0
 15 16  1  0
 16 17  1  0
 17 18  1  0
 18 19  1  0
 19 20  1  0
 20 21  1  0
 21 22  1  0
 22 23  1  0
 23 24  1  0
 24 25  1  0
 25 26  1  0
 26 27  1  0
 27 28  1  0
 28 29  1  0
 29 30  1  0
 30 31  1  0
 31 32  1  0
 32 33  1  0
 33 34  1  0
 34 35  2  0
 35 36  1  0
 36 37  2  0
 37 38  1  0
 38 39  2  0
 39 40  1  0
 40 41  2  0
 41 42  1  0
 42 43  2  0
 43 44  1  0
 44 45  2  0
 45 46  1  0
 46 47  2  0
 47 48  1  0
 48 49  2  0
 49 50  1  0
 50 51  2  0
 51 52  1  0
 52 53  2  0
 53 54  1  0
 54 55  2  0
 55 56  1  0
 56 57  2  0
 57 58  1  0
 58 59  2  0
 59 60  1  0
 60 61  2  0
 61 62  1  0
 62 63  2  0
 63 64  1  0
 64 65  2  0
 65 66  1  0
 66 67  2  0
 67 68  1  0
 68 69  2  0
 69 70  1  0
 70 71  2  0
 71 72  1  0
 72 73  2  0
 73 74  1  0
 74 75  2  0
 75  2  1  0
 57 53  1  0
 63 58  1  0
 69 64  1  0
 75 70  1  0
M  END
>  <Title>  (73) 
idAAAWgen13

$$$$

     RDKit          2D

 41 46  0  0  0  0  0  0  0  0999 V2000
   -1.3240   -6.3062    0.0000 C   0  0  0  0  0  0  0  0  0  0  0  0
   -0.7500   -4.9204    0.0000 C   0  0  0  0  0  0  0  0  0  0  0  0
    0.7500   -4.9204    0.0000 C   0  0  0  0  0  0  0  0  0  0  0  0
    1.8107   -3.8597    0.0000 C   0  0  0  0  0  0  0  0  0  0  0  0
    1.8107   -2.3597    0.0000 C   0  0  0  0  0  0  0  0  0  0  0  0
    3.1965   -1.7857    0.0000 C   0  0  0  0  0  0  0  0  0  0  0  0
    3.3923   -0.2985    0.0000 O   0  0  0  0  0  0  0  0  0  0  0  0
    4.3865   -2.6988    0.0000 N   0  0  0  0  0  0  0  0  0  0  0  0
    5.7723   -2.1248    0.0000 C   0  0  0  0  0  0  0  0  0  0  0  0
    6.1225   -0.6662    0.0000 N   0  0  0  0  0  0  0  0  0  0  0  0
    7.6179   -0.5485    0.0000 N   0  0  0  0  0  0  0  0  0  0  0  0
    8.1919   -1.9344    0.0000 N   0  0  0  0  0  0  0  0  0  0  0  0
    7.0513   -2.9085    0.0000 N   0  0  0  0  0  0  0  0  0  0  0  0
    7.1690   -4.4039    0.0000 C   0  0  0  0  0  0  0  0  0  0  0  0
    8.4479   -5.1877    0.0000 C   0  0  0  0  0  0  0  0  0  0  0  0
    8.0978   -6.6462    0.0000 C   0  0  0  0  0  0  0  0  0  0  0  0
    6.6024   -6.7639    0.0000 C   0  0  0  0  0  0  0  0  0  0  0  0
    5.8186   -8.0429    0.0000 O   0  0  0  0  0  0  0  0  0  0  0  0
    4.3192   -8.0036    0.0000 C   0  0  0  0  0  0  0  0  0  0  0  0
    3.6034   -6.6854    0.0000 O   0  0  0  0  0  0  0  0  0  0  0  0
    3.5354   -9.2826    0.0000 N   0  0  0  0  0  0  0  0  0  0  0  0
    2.0359   -9.2433    0.0000 C   0  0  0  0  0  0  0  0  0  0  0  0
    1.3202   -7.9251    0.0000 N   0  0  0  0  0  0  0  0  0  0  0  0
   -0.1793   -7.8858    0.0000 N   0  0  0  0  0  0  0  0  0  0  0  0
   -0.9630   -9.1648    0.0000 N   0  0  0  0  0  0  0  0  0  0  0  0
   -0.2473  -10.4830    0.0000 N   0  0  0  0  0  0  0  0  0  0  0  0
    1.2522  -10.5223    0.0000 N   0  0  0  0  0  0  0  0  0  0  0  0
    6.0284   -5.3781    0.0000 C   0  0  0  0  0  0  0  0  0  0  0  0
    4.5698   -5.0279    0.0000 O   0  0  0  0  0  0  0  0  0  0  0  0
    0.7500   -1.2990    0.0000 C   0  0  0  0  0  0  0  0  0  0  0  0
    1.5000    0.0000    0.0000 C   0  0  0  0  0  0  0  0  0  0  0  0
    0.7500    1.2990    0.0000 C   0  0  0  0  0  0  0  0  0  0  0  0
   -0.7500    1.2990    0.0000 C   0  0  0  0  0  0  0  0  0  0  0  0
   -1.5000    0.0000    0.0000 C   0  0  0  0  0  0  0  0  0  0  0  0
   -0.7500   -1.2990    0.0000 C   0  0  0  0  0  0  0  0  0  0  0  0
   -1.8107   -2.3597    0.0000 C   0  0  0  0  0  0  0  0  0  0  0  0
   -3.1097   -1.6097    0.0000 C   0  0  0  0  0  0  0  0  0  0  0  0
   -4.4087   -2.3597    0.0000 C   0  0  0  0  0  0  0  0  0  0  0  0
   -4.4087   -3.8597    0.0000 C   0  0  0  0  0  0  0  0  0  0  0  0
   -3.1097   -4.6097    0.0000 C   0  0  0  0  0  0  0  0  0  0  0  0
   -1.8107   -3.8597    0.0000 C   0  0  0  0  0  0  0  0  0  0  0  0
  1  2  1  0
  2  3  1  0
  3  4  2  0
  4  5  1  0
  5  6  1  0
  6  7  2  0
  6  8  1  0
  8  9  1  0
  9 10  2  0
 10 11  1  0
 11 12  2  0
 12 13  1  0
 13 14  1  0
 14 15  2  0
 15 16  1  0
 16 17  2  0
 17 18  1  0
 18 19  1  0
 19 20  2  0
 19 21  1  0
 21 22  1  0
 22 23  2  0
 23 24  1  0
 24 25  2  0
 25 26  1  0
 26 27  2  0
 17 28  1  0
 28 29  2  0
  5 30  1  0
 30 31  2  0
 31 32  1  0
 32 33  2  0
 33 34  1  0
 34 35  2  0
 35 36  1  0
 36 37  2  0
 37 38  1  0
 38 39  2  0
 39 40  1  0
 40 41  2  0
 41  2  1  0
 13  9  1  0
 28 14  1  0
 35 30  1  0
 41 36  1  0
 27 22  1  0
M  END
>  <Title>  (74) 
idAAAXgen13

$$$$

     RDKit          2D

  8  7  0  0  0  0  0  0  0  0999 V2000
    0.0000    0.0000    0.0000 C   0  0  0  0  0  0  0  0  0  0  0  0
    1.2990    0.7500    0.0000 C   0  0  0  0  0  0  0  0  0  0  0  0
    2.5981   -0.0000    0.0000 C   0  0  0  0  0  0  0  0  0  0  0  0
    3.8971    0.7500    0.0000 C   0  0  0  0  0  0  0  0  0  0  0  0
    5.1962   -0.0000    0.0000 C   0  0  0  0  0  0  0  0  0  0  0  0
    6.4952    0.7500    0.0000 C   0  0  0  0  0  0  0  0  0  0  0  0
    7.7942   -0.0000    0.0000 C   0  0  0  0  0  0  0  0  0  0  0  0
    6.4952    2.2500    0.0000 O   0  0  0  0  0  0  0  0  0  0  0  0
  1  2  2  0
  2  3  1  0
  3  4  1  0
  4  5  1  0
  5  6  1  0
  6  7  1  0
  6  8  2  0
M  END
>  <Title>  (75) 
idAAAYgen13

$$$$

     RDKit          2D

 14 15  0  0  0  0  0  0  0  0999 V2000
    5.7760   -2.5981    0.0000 C   0  0  0  0  0  0  0  0  0  0  0  0
    5.0260   -1.2990    0.0000 C   0  0  0  0  0  0  0  0  0  0  0  0
    3.5260   -1.2990    0.0000 C   0  0  0  0  0  0  0  0  0  0  0  0
    2.7760    0.0000    0.0000 N   0  0  0  0  0  0  0  0  0  0  0  0
    1.2760    0.0000    0.0000 C   0  0  0  0  0  0  0  0  0  0  0  0
    0.3943    1.2135    0.0000 N   0  0  0  0  0  0  0  0  0  0  0  0
   -1.0323    0.7500    0.0000 N   0  0  0  0  0  0  0  0  0  0  0  0
   -1.0323   -0.7500    0.0000 N   0  0  0  0  0  0  0  0  0  0  0  0
    0.3943   -1.2135    0.0000 N   0  0  0  0  0  0  0  0  0  0  0  0
    0.8578   -2.6401    0.0000 C   0  0  0  0  0  0  0  0  0  0  0  0
    2.2844   -3.1036    0.0000 C   0  0  0  0  0  0  0  0  0  0  0  0
    2.2844   -4.6036    0.0000 C   0  0  0  0  0  0  0  0  0  0  0  0
    0.8578   -5.0672    0.0000 C   0  0  0  0  0  0  0  0  0  0  0  0
   -0.0239   -3.8536    0.0000 C   0  0  0  0  0  0  0  0  0  0  0  0
  1  2  1  0
  2  3  1  0
  3  4  1  0
  4  5  1  0
  5  6  2  0
  6  7  1  0
  7  8  2  0
  8  9  1  0
  9 10  1  0
 10 11  2  0
 11 12  1  0
 12 13  1  0
 13 14  2  0
  9  5  1  0
 14 10  1  0
M  END
>  <Title>  (76) 
idAAAZgen13

$$$$

     RDKit          2D

 81 82  0  0  0  0  0  0  0  0999 V2000
   -0.3559    2.9552    0.0000 C   0  0  0  0  0  0  0  0  0  0  0  0
    0.8918    3.7877    0.0000 C   0  0  0  0  0  0  0  0  0  0  0  0
    0.1169    5.0721    0.0000 C   0  0  0  0  0  0  0  0  0  0  0  0
   -0.5379    6.4216    0.0000 C   0  0  0  0  0  0  0  0  0  0  0  0
   -1.0674    7.8250    0.0000 C   0  0  0  0  0  0  0  0  0  0  0  0
   -1.4670    9.2708    0.0000 C   0  0  0  0  0  0  0  0  0  0  0  0
   -1.7335   10.7470    0.0000 C   0  0  0  0  0  0  0  0  0  0  0  0
   -1.8647   12.2412    0.0000 C   0  0  0  0  0  0  0  0  0  0  0  0
   -1.8595   13.7412    0.0000 C   0  0  0  0  0  0  0  0  0  0  0  0
   -1.7178   15.2345    0.0000 C   0  0  0  0  0  0  0  0  0  0  0  0
   -1.4410   16.7087    0.0000 C   0  0  0  0  0  0  0  0  0  0  0  0
   -1.0312   18.1517    0.0000 C   0  0  0  0  0  0  0  0  0  0  0  0
   -0.4920   19.5514    0.0000 C   0  0  0  0  0  0  0  0  0  0  0  0
    0.1724   20.8963    0.0000 C   0  0  0  0  0  0  0  0  0  0  0  0
    0.9562   22.1752    0.0000 C   0  0  0  0  0  0  0  0  0  0  0  0
    1.8531   23.3775    0.0000 C   0  0  0  0  0  0  0  0  0  0  0  0
    2.8556   24.4932    0.0000 C   0  0  0  0  0  0  0  0  0  0  0  0
    3.9555   25.5132    0.0000 C   0  0  0  0  0  0  0  0  0  0  0  0
    5.1435   26.4290    0.0000 C   0  0  0  0  0  0  0  0  0  0  0  0
    6.4099   27.2329    0.0000 C   0  0  0  0  0  0  0  0  0  0  0  0
    7.7441   27.9183    0.0000 C   0  0  0  0  0  0  0  0  0  0  0  0
    9.1352   28.4796    0.0000 C   0  0  0  0  0  0  0  0  0  0  0  0
   10.5715   28.9120    0.0000 C   0  0  0  0  0  0  0  0  0  0  0  0
   12.0412   29.2121    0.0000 C   0  0  0  0  0  0  0  0  0  0  0  0
   13.5320   29.3772    0.0000 C   0  0  0  0  0  0  0  0  0  0  0  0
   15.0318   29.4061    0.0000 C   0  0  0  0  0  0  0  0  0  0  0  0
   16.5279   29.2985    0.0000 C   0  0  0  0  0  0  0  0  0  0  0  0
   18.0080   29.0553    0.0000 C   0  0  0  0  0  0  0  0  0  0  0  0
   19.4600   28.6785    0.0000 C   0  0  0  0  0  0  0  0  0  0  0  0
   20.8716   28.1712    0.0000 C   0  0  0  0  0  0  0  0  0  0  0  0
   22.2312   27.5377    0.0000 C   0  0  0  0  0  0  0  0  0  0  0  0
   23.5276   26.7831    0.0000 C   0  0  0  0  0  0  0  0  0  0  0  0
   24.7500   25.9138    0.0000 C   0  0  0  0  0  0  0  0  0  0  0  0
   25.8883   24.9370    0.0000 C   0  0  0  0  0  0  0  0  0  0  0  0
   26.9331   23.8606    0.0000 C   0  0  0  0  0  0  0  0  0  0  0  0
   27.8757   22.6938    0.0000 C   0  0  0  0  0  0  0  0  0  0  0  0
   28.7082   21.4460    0.0000 C   0  0  0  0  0  0  0  0  0  0  0  0
   29.4238   20.1277    0.0000 C   0  0  0  0  0  0  0  0  0  0  0  0
   30.0166   18.7498    0.0000 C   0  0  0  0  0  0  0  0  0  0  0  0
   30.4816   17.3237    0.0000 C   0  0  0  0  0  0  0  0  0  0  0  0
   30.8150   15.8613    0.0000 C   0  0  0  0  0  0  0  0  0  0  0  0
   31.0141   14.3745    0.0000 C   0  0  0  0  0  0  0  0  0  0  0  0
   31.0771   12.8758    0.0000 C   0  0  0  0  0  0  0  0  0  0  0  0
   31.0036   11.3776    0.0000 C   0  0  0  0  0  0  0  0  0  0  0  0
   30.7941    9.8923    0.0000 C   0  0  0  0  0  0  0  0  0  0  0  0
   30.4505    8.4322    0.0000 C   0  0  0  0  0  0  0  0  0  0  0  0
   29.9755    7.0094    0.0000 C   0  0  0  0  0  0  0  0  0  0  0  0
   29.3731    5.6357    0.0000 C   0  0  0  0  0  0  0  0  0  0  0  0
   28.6482    4.3225    0.0000 C   0  0  0  0  0  0  0  0  0  0  0  0
   27.8070    3.0806    0.0000 C   0  0  0  0  0  0  0  0  0  0  0  0
   26.8563    1.9203    0.0000 C   0  0  0  0  0  0  0  0  0  0  0  0
   25.8040    0.8514    0.0000 C   0  0  0  0  0  0  0  0  0  0  0  0
   24.6589   -0.1175    0.0000 C   0  0  0  0  0  0  0  0  0  0  0  0
   23.4304   -0.9782    0.0000 C   0  0  0  0  0  0  0  0  0  0  0  0
   22.1287   -1.7237    0.0000 C   0  0  0  0  0  0  0  0  0  0  0  0
   20.7647   -2.3477    0.0000 C   0  0  0  0  0  0  0  0  0  0  0  0
   19.3495   -2.8450    0.0000 C   0  0  0  0  0  0  0  0  0  0  0  0
   17.8950   -3.2117    0.0000 C   0  0  0  0  0  0  0  0  0  0  0  0
   16.4132   -3.4445    0.0000 C   0  0  0  0  0  0  0  0  0  0  0  0
   14.9164   -3.5416    0.0000 C   0  0  0  0  0  0  0  0  0  0  0  0
   13.4169   -3.5022    0.0000 C   0  0  0  0  0  0  0  0  0  0  0  0
   11.9272   -3.3266    0.0000 C   0  0  0  0  0  0  0  0  0  0  0  0
   10.4596   -3.0163    0.0000 C   0  0  0  0  0  0  0  0  0  0  0  0
    9.0264   -2.5738    0.0000 C   0  0  0  0  0  0  0  0  0  0  0  0
    7.6393   -2.0028    0.0000 C   0  0  0  0  0  0  0  0  0  0  0  0
    6.3099   -1.3081    0.0000 C   0  0  0  0  0  0  0  0  0  0  0  0
    5.0492   -0.4953    0.0000 C   0  0  0  0  0  0  0  0  0  0  0  0
    3.8676    0.4287    0.0000 C   0  0  0  0  0  0  0  0  0  0  0  0
    2.7750    1.4564    0.0000 C   0  0  0  0  0  0  0  0  0  0  0  0
    3.1339    0.0000    0.0000 C   0  0  0  0  0  0  0  0  0  0  0  0
    2.7750   -1.4564    0.0000 C   0  0  0  0  0  0  0  0  0  0  0  0
    1.7803   -2.5792    0.0000 C   0  0  0  0  0  0  0  0  0  0  0  0
    0.3778   -3.1111    0.0000 C   0  0  0  0  0  0  0  0  0  0  0  0
   -1.1113   -2.9303    0.0000 C   0  0  0  0  0  0  0  0  0  0  0  0
   -2.3458   -2.0782    0.0000 C   0  0  0  0  0  0  0  0  0  0  0  0
   -3.0429   -0.7500    0.0000 C   0  0  0  0  0  0  0  0  0  0  0  0
   -3.0429    0.7500    0.0000 C   0  0  0  0  0  0  0  0  0  0  0  0
   -2.3458    2.0782    0.0000 C   0  0  0  0  0  0  0  0  0  0  0  0
   -1.1113    2.9303    0.0000 C   0  0  0  0  0  0  0  0  0  0  0  0
    0.3778    3.1111    0.0000 C   0  0  0  0  0  0  0  0  0  0  0  0
    1.7803    2.5792    0.0000 C   0  0  0  0  0  0  0  0  0  0  0  0
  1  2  1  0
  2  3  1  0
  3  4  1  0
  4  5  1  0
  5  6  1  0
  6  7  1  0
  7  8  1  0
  8  9  1  0
  9 10  1  0
 10 11  1  0
 11 12  1  0
 12 13  1  0
 13 14  1  0
 14 15  1  0
 15 16  1  0
 16 17  1  0
 17 18  1  0
 18 19  1  0
 19 20  1  0
 20 21  1  0
 21 22  1  0
 22 23  1  0
 23 24  1  0
 24 25  1  0
 25 26  1  0
 26 27  1  0
 27 28  1  0
 28 29  1  0
 29 30  1  0
 30 31  1  0
 31 32  1  0
 32 33  1  0
 33 34  1  0
 34 35  1  0
 35 36  1  0
 36 37  1  0
 37 38  1  0
 38 39  1  0
 39 40  1  0
 40 41  1  0
 41 42  1  0
 42 43  1  0
 43 44  1  0
 44 45  1  0
 45 46  1  0
 46 47  1  0
 47 48  1  0
 48 49  1  0
 49 50  1  0
 50 51  1  0
 51 52  1  0
 52 53  1  0
 53 54  1  0
 54 55  1  0
 55 56  1  0
 56 57  1  0
 57 58  1  0
 58 59  1  0
 59 60  1  0
 60 61  1  0
 61 62  1  0
 62 63  1  0
 63 64  1  0
 64 65  1  0
 65 66  1  0
 66 67  1  0
 67 68  1  0
 68 69  1  0
 69 70  1  0
 70 71  2  0
 71 72  1  0
 72 73  2  0
 73 74  1  0
 74 75  2  0
 75 76  1  0
 76 77  2  0
 77 78  1  0
 78 79  2  0
 79 80  1  0
 80 81  2  0
 81  2  1  0
 81 69  1  0
M  END
>  <Title>  (77) 
idAABAgen13

$$$$

     RDKit          2D

 53 57  0  0  0  0  0  0  0  0999 V2000
  -31.5000   -2.5981    0.0000 C   0  0  0  0  0  0  0  0  0  0  0  0
  -30.0000   -2.5981    0.0000 C   0  0  0  0  0  0  0  0  0  0  0  0
  -28.5000   -2.5981    0.0000 C   0  0  0  0  0  0  0  0  0  0  0  0
  -27.0000   -2.5981    0.0000 C   0  0  0  0  0  0  0  0  0  0  0  0
  -25.5000   -2.5981    0.0000 C   0  0  0  0  0  0  0  0  0  0  0  0
  -24.0000   -2.5981    0.0000 C   0  0  0  0  0  0  0  0  0  0  0  0
  -22.5000   -2.5981    0.0000 C   0  0  0  0  0  0  0  0  0  0  0  0
  -21.0000   -2.5981    0.0000 C   0  0  0  0  0  0  0  0  0  0  0  0
  -19.5000   -2.5981    0.0000 C   0  0  0  0  0  0  0  0  0  0  0  0
  -18.0000   -2.5981    0.0000 C   0  0  0  0  0  0  0  0  0  0  0  0
  -16.5000   -2.5981    0.0000 C   0  0  0  0  0  0  0  0  0  0  0  0
  -15.0000   -2.5981    0.0000 C   0  0  0  0  0  0  0  0  0  0  0  0
  -13.5000   -2.5981    0.0000 C   0  0  0  0  0  0  0  0  0  0  0  0
  -12.0000   -2.5981    0.0000 C   0  0  0  0  0  0  0  0  0  0  0  0
  -10.5000   -2.5981    0.0000 C   0  0  0  0  0  0  0  0  0  0  0  0
   -9.0000   -2.5981    0.0000 C   0  0  0  0  0  0  0  0  0  0  0  0
   -7.5000   -2.5981    0.0000 C   0  0  0  0  0  0  0  0  0  0  0  0
   -6.0000   -2.5981    0.0000 C   0  0  0  0  0  0  0  0  0  0  0  0
   -4.5000   -2.5981    0.0000 C   0  0  0  0  0  0  0  0  0  0  0  0
   -3.0000   -2.5981    0.0000 C   0  0  0  0  0  0  0  0  0  0  0  0
   -1.5000   -2.5981    0.0000 C   0  0  0  0  0  0  0  0  0  0  0  0
   -0.7500   -3.8971    0.0000 C   0  0  0  0  0  0  0  0  0  0  0  0
    0.7500   -3.8971    0.0000 C   0  0  0  0  0  0  0  0  0  0  0  0
    1.5000   -2.5981    0.0000 C   0  0  0  0  0  0  0  0  0  0  0  0
    3.0000   -2.5981    0.0000 C   0  0  0  0  0  0  0  0  0  0  0  0
    3.7500   -1.2990    0.0000 O   0  0  0  0  0  0  0  0  0  0  0  0
    3.7500   -3.8971    0.0000 N   0  0  0  0  0  0  0  0  0  0  0  0
    5.2500   -3.8971    0.0000 C   0  0  0  0  0  0  0  0  0  0  0  0
    6.1317   -2.6836    0.0000 N   0  0  0  0  0  0  0  0  0  0  0  0
    7.5583   -3.1471    0.0000 N   0  0  0  0  0  0  0  0  0  0  0  0
    7.5583   -4.6471    0.0000 N   0  0  0  0  0  0  0  0  0  0  0  0
    6.1317   -5.1106    0.0000 N   0  0  0  0  0  0  0  0  0  0  0  0
    5.6682   -6.5372    0.0000 N   0  0  0  0  0  0  0  0  0  0  0  0
    6.5498   -7.7508    0.0000 C   0  0  0  0  0  0  0  0  0  0  0  0
    5.6682   -8.9643    0.0000 C   0  0  0  0  0  0  0  0  0  0  0  0
    4.2416   -8.5008    0.0000 N   0  0  0  0  0  0  0  0  0  0  0  0
    3.0280   -9.3824    0.0000 C   0  0  0  0  0  0  0  0  0  0  0  0
    3.1848  -10.8742    0.0000 O   0  0  0  0  0  0  0  0  0  0  0  0
    1.6577   -8.7723    0.0000 N   0  0  0  0  0  0  0  0  0  0  0  0
    0.4442   -9.6540    0.0000 C   0  0  0  0  0  0  0  0  0  0  0  0
   -0.9261   -9.0439    0.0000 N   0  0  0  0  0  0  0  0  0  0  0  0
   -2.1396   -9.9256    0.0000 N   0  0  0  0  0  0  0  0  0  0  0  0
   -1.9829  -11.4174    0.0000 N   0  0  0  0  0  0  0  0  0  0  0  0
   -0.6125  -12.0275    0.0000 N   0  0  0  0  0  0  0  0  0  0  0  0
    0.6010  -11.1458    0.0000 N   0  0  0  0  0  0  0  0  0  0  0  0
    4.2416   -7.0008    0.0000 C   0  0  0  0  0  0  0  0  0  0  0  0
    3.0280   -6.1191    0.0000 O   0  0  0  0  0  0  0  0  0  0  0  0
    0.7500   -1.2990    0.0000 C   0  0  0  0  0  0  0  0  0  0  0  0
    1.5000    0.0000    0.0000 C   0  0  0  0  0  0  0  0  0  0  0  0
    0.7500    1.2990    0.0000 C   0  0  0  0  0  0  0  0  0  0  0  0
   -0.7500    1.2990    0.0000 C   0  0  0  0  0  0  0  0  0  0  0  0
   -1.5000    0.0000    0.0000 C   0  0  0  0  0  0  0  0  0  0  0  0
   -0.7500   -1.2990    0.0000 C   0  0  0  0  0  0  0  0  0  0  0  0
  1  2  3  0
  2  3  1  0
  3  4  3  0
  4  5  1  0
  5  6  3  0
  6  7  1  0
  7  8  3  0
  8  9  1  0
  9 10  3  0
 10 11  1  0
 11 12  3  0
 12 13  1  0
 13 14  3  0
 14 15  1  0
 15 16  3  0
 16 17  1  0
 17 18  3  0
 18 19  1  0
 19 20  3  0
 20 21  1  0
 21 22  2  0
 22 23  1  0
 23 24  2  0
 24 25  1  0
 25 26  2  0
 25 27  1  0
 27 28  1  0
 28 29  2  0
 29 30  1  0
 30 31  2  0
 31 32  1  0
 32 33  1  0
 33 34  1  0
 34 35  1  0
 35 36  1  0
 36 37  1  0
 37 38  2  0
 37 39  1  0
 39 40  1  0
 40 41  2  0
 41 42  1  0
 42 43  2  0
 43 44  1  0
 44 45  2  0
 36 46  1  0
 46 47  2  0
 24 48  1  0
 48 49  2  0
 49 50  1  0
 50 51  2  0
 51 52  1  0
 52 53  2  0
 53 21  1  0
 32 28  1  0
 46 33  1  0
 53 48  1  0
 45 40  1  0
M  END
>  <Title>  (78) 
idAABBgen13

$$$$

     RDKit          2D

 75 79  0  0  0  0  0  0  0  0999 V2000
    2.9481   13.6598    0.0000 C   0  0  0  0  0  0  0  0  0  0  0  0
    4.2260   12.8743    0.0000 C   0  0  0  0  0  0  0  0  0  0  0  0
    5.0988   14.0943    0.0000 C   0  0  0  0  0  0  0  0  0  0  0  0
    6.1328   15.1809    0.0000 C   0  0  0  0  0  0  0  0  0  0  0  0
    7.3080   16.1131    0.0000 C   0  0  0  0  0  0  0  0  0  0  0  0
    8.6015   16.8726    0.0000 C   0  0  0  0  0  0  0  0  0  0  0  0
    9.9881   17.4447    0.0000 C   0  0  0  0  0  0  0  0  0  0  0  0
   11.4408   17.8183    0.0000 C   0  0  0  0  0  0  0  0  0  0  0  0
   12.9314   17.9860    0.0000 C   0  0  0  0  0  0  0  0  0  0  0  0
   14.4308   17.9447    0.0000 C   0  0  0  0  0  0  0  0  0  0  0  0
   15.9099   17.6951    0.0000 C   0  0  0  0  0  0  0  0  0  0  0  0
   17.3399   17.2420    0.0000 C   0  0  0  0  0  0  0  0  0  0  0  0
   18.6929   16.5944    0.0000 C   0  0  0  0  0  0  0  0  0  0  0  0
   19.9426   15.7648    0.0000 C   0  0  0  0  0  0  0  0  0  0  0  0
   21.0646   14.7693    0.0000 C   0  0  0  0  0  0  0  0  0  0  0  0
   22.0372   13.6274    0.0000 C   0  0  0  0  0  0  0  0  0  0  0  0
   22.8414   12.3612    0.0000 C   0  0  0  0  0  0  0  0  0  0  0  0
   23.4616   10.9954    0.0000 C   0  0  0  0  0  0  0  0  0  0  0  0
   23.8856    9.5565    0.0000 C   0  0  0  0  0  0  0  0  0  0  0  0
   24.1053    8.0727    0.0000 C   0  0  0  0  0  0  0  0  0  0  0  0
   24.1163    6.5728    0.0000 C   0  0  0  0  0  0  0  0  0  0  0  0
   23.9185    5.0859    0.0000 C   0  0  0  0  0  0  0  0  0  0  0  0
   23.5156    3.6410    0.0000 C   0  0  0  0  0  0  0  0  0  0  0  0
   22.9156    2.2662    0.0000 C   0  0  0  0  0  0  0  0  0  0  0  0
   22.1301    0.9883    0.0000 C   0  0  0  0  0  0  0  0  0  0  0  0
   21.1744   -0.1678    0.0000 C   0  0  0  0  0  0  0  0  0  0  0  0
   20.0671   -1.1797    0.0000 C   0  0  0  0  0  0  0  0  0  0  0  0
   18.8297   -2.0276    0.0000 C   0  0  0  0  0  0  0  0  0  0  0  0
   17.4864   -2.6950    0.0000 C   0  0  0  0  0  0  0  0  0  0  0  0
   16.0633   -3.1690    0.0000 C   0  0  0  0  0  0  0  0  0  0  0  0
   14.5880   -3.4403    0.0000 C   0  0  0  0  0  0  0  0  0  0  0  0
   13.0893   -3.5037    0.0000 C   0  0  0  0  0  0  0  0  0  0  0  0
   11.5964   -3.3579    0.0000 C   0  0  0  0  0  0  0  0  0  0  0  0
   10.1384   -3.0057    0.0000 C   0  0  0  0  0  0  0  0  0  0  0  0
    8.7435   -2.4540    0.0000 C   0  0  0  0  0  0  0  0  0  0  0  0
    7.4390   -1.7136    0.0000 C   0  0  0  0  0  0  0  0  0  0  0  0
    6.2502   -0.7988    0.0000 C   0  0  0  0  0  0  0  0  0  0  0  0
    5.2003    0.2725    0.0000 C   0  0  0  0  0  0  0  0  0  0  0  0
    4.3098    1.4795    0.0000 C   0  0  0  0  0  0  0  0  0  0  0  0
    3.8567   -0.0000    0.0000 C   0  0  0  0  0  0  0  0  0  0  0  0
    3.6477   -1.2523    0.0000 C   0  0  0  0  0  0  0  0  0  0  0  0
    3.0434   -2.3688    0.0000 C   0  0  0  0  0  0  0  0  0  0  0  0
    2.1094   -3.2287    0.0000 C   0  0  0  0  0  0  0  0  0  0  0  0
    0.9468   -3.7386    0.0000 C   0  0  0  0  0  0  0  0  0  0  0  0
   -0.3185   -3.8435    0.0000 C   0  0  0  0  0  0  0  0  0  0  0  0
   -1.5492   -3.5318    0.0000 C   0  0  0  0  0  0  0  0  0  0  0  0
   -2.6120   -2.8374    0.0000 C   0  0  0  0  0  0  0  0  0  0  0  0
   -3.3918   -1.8356    0.0000 C   0  0  0  0  0  0  0  0  0  0  0  0
   -3.8041   -0.6348    0.0000 C   0  0  0  0  0  0  0  0  0  0  0  0
   -3.8041    0.6348    0.0000 C   0  0  0  0  0  0  0  0  0  0  0  0
   -3.3918    1.8356    0.0000 C   0  0  0  0  0  0  0  0  0  0  0  0
   -2.6120    2.8374    0.0000 C   0  0  0  0  0  0  0  0  0  0  0  0
   -1.5492    3.5318    0.0000 C   0  0  0  0  0  0  0  0  0  0  0  0
   -0.3185    3.8435    0.0000 C   0  0  0  0  0  0  0  0  0  0  0  0
    0.9468    3.7386    0.0000 C   0  0  0  0  0  0  0  0  0  0  0  0
    2.1094    3.2287    0.0000 C   0  0  0  0  0  0  0  0  0  0  0  0
    3.5958    2.7988    0.0000 C   0  0  0  0  0  0  0  0  0  0  0  0
    3.0725    4.2045    0.0000 C   0  0  0  0  0  0  0  0  0  0  0  0
    4.5024    3.7515    0.0000 C   0  0  0  0  0  0  0  0  0  0  0  0
    5.6097    4.7633    0.0000 C   0  0  0  0  0  0  0  0  0  0  0  0
    5.2871    6.2282    0.0000 C   0  0  0  0  0  0  0  0  0  0  0  0
    3.8571    6.6812    0.0000 C   0  0  0  0  0  0  0  0  0  0  0  0
    2.7498    5.6694    0.0000 C   0  0  0  0  0  0  0  0  0  0  0  0
    2.6342    7.1649    0.0000 C   0  0  0  0  0  0  0  0  0  0  0  0
    1.2909    6.4975    0.0000 C   0  0  0  0  0  0  0  0  0  0  0  0
    0.0412    7.3271    0.0000 C   0  0  0  0  0  0  0  0  0  0  0  0
    0.1348    8.8242    0.0000 C   0  0  0  0  0  0  0  0  0  0  0  0
    1.4781    9.4916    0.0000 C   0  0  0  0  0  0  0  0  0  0  0  0
    2.7278    8.6620    0.0000 C   0  0  0  0  0  0  0  0  0  0  0  0
    3.0289   10.1315    0.0000 C   0  0  0  0  0  0  0  0  0  0  0  0
    1.7882   10.5197    0.0000 C   0  0  0  0  0  0  0  0  0  0  0  0
    1.2695   11.1287    0.0000 C   0  0  0  0  0  0  0  0  0  0  0  0
    1.5376   11.8824    0.0000 C   0  0  0  0  0  0  0  0  0  0  0  0
    2.3244   12.0272    0.0000 C   0  0  0  0  0  0  0  0  0  0  0  0
    3.5316   11.5447    0.0000 C   0  0  0  0  0  0  0  0  0  0  0  0
  1  2  1  0
  2  3  1  0
  3  4  1  0
  4  5  1  0
  5  6  1  0
  6  7  1  0
  7  8  1  0
  8  9  1  0
  9 10  1  0
 10 11  1  0
 11 12  1  0
 12 13  1  0
 13 14  1  0
 14 15  1  0
 15 16  1  0
 16 17  1  0
 17 18  1  0
 18 19  1  0
 19 20  1  0
 20 21  1  0
 21 22  1  0
 22 23  1  0
 23 24  1  0
 24 25  1  0
 25 26  1  0
 26 27  1  0
 27 28  1  0
 28 29  1  0
 29 30  1  0
 30 31  1  0
 31 32  1  0
 32 33  1  0
 33 34  1  0
 34 35  1  0
 35 36  1  0
 36 37  1  0
 37 38  1  0
 38 39  1  0
 39 40  1  0
 40 41  1  0
 41 42  1  0
 42 43  2  0
 43 44  1  0
 44 45  2  0
 45 46  1  0
 46 47  2  0
 47 48  1  0
 48 49  2  0
 49 50  1  0
 50 51  2  0
 51 52  1  0
 52 53  2  0
 53 54  1  0
 54 55  2  0
 55 56  1  0
 56 57  2  0
 57 58  1  0
 58 59  2  0
 59 60  1  0
 60 61  2  0
 61 62  1  0
 62 63  2  0
 63 64  1  0
 64 65  2  0
 65 66  1  0
 66 67  2  0
 67 68  1  0
 68 69  2  0
 69 70  1  0
 70 71  2  0
 71 72  1  0
 72 73  2  0
 73 74  1  0
 74 75  2  0
 75  2  1  0
 57 39  1  0
 63 58  1  0
 69 64  1  0
 75 70  1  0
M  END
>  <Title>  (79) 
idAABCgen13

$$$$

     RDKit          2D

 20 20  0  0  0  0  0  0  0  0999 V2000
   21.7500   -1.2990    0.0000 C   0  0  0  0  0  0  0  0  0  0  0  0
   20.2500   -1.2990    0.0000 C   0  0  0  0  0  0  0  0  0  0  0  0
   18.7500   -1.2990    0.0000 C   0  0  0  0  0  0  0  0  0  0  0  0
   18.0000    0.0000    0.0000 C   0  0  0  0  0  0  0  0  0  0  0  0
   16.5000    0.0000    0.0000 C   0  0  0  0  0  0  0  0  0  0  0  0
   15.0000    0.0000    0.0000 C   0  0  0  0  0  0  0  0  0  0  0  0
   13.5000    0.0000    0.0000 C   0  0  0  0  0  0  0  0  0  0  0  0
   12.0000    0.0000    0.0000 C   0  0  0  0  0  0  0  0  0  0  0  0
   10.5000    0.0000    0.0000 C   0  0  0  0  0  0  0  0  0  0  0  0
    9.0000    0.0000    0.0000 C   0  0  0  0  0  0  0  0  0  0  0  0
    7.5000    0.0000    0.0000 C   0  0  0  0  0  0  0  0  0  0  0  0
    6.0000    0.0000    0.0000 C   0  0  0  0  0  0  0  0  0  0  0  0
    4.5000    0.0000    0.0000 C   0  0  0  0  0  0  0  0  0  0  0  0
    3.0000    0.0000    0.0000 C   0  0  0  0  0  0  0  0  0  0  0  0
    1.5000    0.0000    0.0000 C   0  0  0  0  0  0  0  0  0  0  0  0
    0.7500   -1.2990    0.0000 C   0  0  0  0  0  0  0  0  0  0  0  0
   -0.7500   -1.2990    0.0000 C   0  0  0  0  0  0  0  0  0  0  0  0
   -1.5000    0.0000    0.0000 C   0  0  0  0  0  0  0  0  0  0  0  0
   -0.7500    1.2990    0.0000 C   0  0  0  0  0  0  0  0  0  0  0  0
    0.7500    1.2990    0.0000 C   0  0  0  0  0  0  0  0  0  0  0  0
  1  2  3  0
  2  3  1  0
  3  4  2  3
  4  5  1  0
  5  6  3  0
  6  7  1  0
  7  8  3  0
  8  9  1  0
  9 10  3  0
 10 11  1  0
 11 12  3  0
 12 13  1  0
 13 14  3  0
 14 15  1  0
 15 16  2  0
 16 17  1  0
 17 18  2  0
 18 19  1  0
 19 20  2  0
 20 15  1  0
M  END
>  <Title>  (80) 
idAABDgen13

$$$$

     RDKit          2D

 13 14  0  0  0  0  0  0  0  0999 V2000
   -5.2500   -3.8971    0.0000 C   0  0  0  0  0  0  0  0  0  0  0  0
   -3.7500   -3.8971    0.0000 C   0  0  0  0  0  0  0  0  0  0  0  0
   -3.0000   -2.5981    0.0000 C   0  0  0  0  0  0  0  0  0  0  0  0
   -1.5000   -2.5981    0.0000 N   0  0  0  0  0  0  0  0  0  0  0  0
   -0.7500   -3.8971    0.0000 C   0  0  0  0  0  0  0  0  0  0  0  0
    0.7500   -3.8971    0.0000 C   0  0  0  0  0  0  0  0  0  0  0  0
    1.5000   -2.5981    0.0000 C   0  0  0  0  0  0  0  0  0  0  0  0
    0.7500   -1.2990    0.0000 C   0  0  0  0  0  0  0  0  0  0  0  0
    1.5000    0.0000    0.0000 C   0  0  0  0  0  0  0  0  0  0  0  0
    0.7500    1.2990    0.0000 C   0  0  0  0  0  0  0  0  0  0  0  0
   -0.7500    1.2990    0.0000 C   0  0  0  0  0  0  0  0  0  0  0  0
   -1.5000    0.0000    0.0000 C   0  0  0  0  0  0  0  0  0  0  0  0
   -0.7500   -1.2990    0.0000 C   0  0  0  0  0  0  0  0  0  0  0  0
  1  2  1  0
  2  3  1  0
  3  4  1  0
  4  5  1  0
  5  6  1  0
  6  7  1  0
  7  8  1  0
  8  9  2  0
  9 10  1  0
 10 11  2  0
 11 12  1  0
 12 13  2  0
 13  4  1  0
 13  8  1  0
M  END
>  <Title>  (81) 
idAABEgen13

$$$$

     RDKit          2D

 25 25  0  0  0  0  0  0  0  0999 V2000
   31.2760   -0.0000    0.0000 C   0  0  0  0  0  0  0  0  0  0  0  0
   29.7760   -0.0000    0.0000 C   0  0  0  0  0  0  0  0  0  0  0  0
   28.2760   -0.0000    0.0000 C   0  0  0  0  0  0  0  0  0  0  0  0
   26.7760   -0.0000    0.0000 C   0  0  0  0  0  0  0  0  0  0  0  0
   25.2760   -0.0000    0.0000 C   0  0  0  0  0  0  0  0  0  0  0  0
   23.7760   -0.0000    0.0000 C   0  0  0  0  0  0  0  0  0  0  0  0
   22.2760   -0.0000    0.0000 C   0  0  0  0  0  0  0  0  0  0  0  0
   20.7760   -0.0000    0.0000 C   0  0  0  0  0  0  0  0  0  0  0  0
   19.2760   -0.0000    0.0000 C   0  0  0  0  0  0  0  0  0  0  0  0
   17.7760   -0.0000    0.0000 C   0  0  0  0  0  0  0  0  0  0  0  0
   16.2760   -0.0000    0.0000 C   0  0  0  0  0  0  0  0  0  0  0  0
   14.7760   -0.0000    0.0000 C   0  0  0  0  0  0  0  0  0  0  0  0
   13.2760   -0.0000    0.0000 C   0  0  0  0  0  0  0  0  0  0  0  0
   11.7760   -0.0000    0.0000 C   0  0  0  0  0  0  0  0  0  0  0  0
   10.2760   -0.0000    0.0000 C   0  0  0  0  0  0  0  0  0  0  0  0
    8.7760   -0.0000    0.0000 C   0  0  0  0  0  0  0  0  0  0  0  0
    7.2760   -0.0000    0.0000 C   0  0  0  0  0  0  0  0  0  0  0  0
    5.7760   -0.0000    0.0000 C   0  0  0  0  0  0  0  0  0  0  0  0
    4.2760   -0.0000    0.0000 C   0  0  0  0  0  0  0  0  0  0  0  0
    2.7760    0.0000    0.0000 C   0  0  0  0  0  0  0  0  0  0  0  0
    1.2760    0.0000    0.0000 C   0  0  0  0  0  0  0  0  0  0  0  0
    0.3943    1.2135    0.0000 C   0  0  0  0  0  0  0  0  0  0  0  0
   -1.0323    0.7500    0.0000 C   0  0  0  0  0  0  0  0  0  0  0  0
   -1.0323   -0.7500    0.0000 C   0  0  0  0  0  0  0  0  0  0  0  0
    0.3943   -1.2135    0.0000 C   0  0  0  0  0  0  0  0  0  0  0  0
  1  2  3  0
  2  3  1  0
  3  4  3  0
  4  5  1  0
  5  6  3  0
  6  7  1  0
  7  8  3  0
  8  9  1  0
  9 10  3  0
 10 11  1  0
 11 12  3  0
 12 13  1  0
 13 14  3  0
 14 15  1  0
 15 16  3  0
 16 17  1  0
 17 18  3  0
 18 19  1  0
 19 20  3  0
 20 21  1  0
 21 22  2  0
 22 23  1  0
 23 24  2  0
 24 25  1  0
 25 21  1  0
M  END
>  <Title>  (82) 
idAABFgen13

$$$$

     RDKit          2D

 34 38  0  0  0  0  0  0  0  0999 V2000
   -3.0000   -2.5981    0.0000 C   0  0  0  0  0  0  0  0  0  0  0  0
   -1.5000   -2.5981    0.0000 C   0  0  0  0  0  0  0  0  0  0  0  0
   -0.7500   -3.8971    0.0000 C   0  0  0  0  0  0  0  0  0  0  0  0
    0.7500   -3.8971    0.0000 N   0  0  0  0  0  0  0  0  0  0  0  0
    1.5000   -2.5981    0.0000 C   0  0  0  0  0  0  0  0  0  0  0  0
    3.0000   -2.5981    0.0000 C   0  0  0  0  0  0  0  0  0  0  0  0
    3.7500   -1.2990    0.0000 O   0  0  0  0  0  0  0  0  0  0  0  0
    3.7500   -3.8971    0.0000 N   0  0  0  0  0  0  0  0  0  0  0  0
    5.2500   -3.8971    0.0000 C   0  0  0  0  0  0  0  0  0  0  0  0
    6.1317   -2.6836    0.0000 N   0  0  0  0  0  0  0  0  0  0  0  0
    7.5583   -3.1471    0.0000 N   0  0  0  0  0  0  0  0  0  0  0  0
    7.5583   -4.6471    0.0000 N   0  0  0  0  0  0  0  0  0  0  0  0
    6.1317   -5.1106    0.0000 N   0  0  0  0  0  0  0  0  0  0  0  0
    5.6682   -6.5372    0.0000 N   0  0  0  0  0  0  0  0  0  0  0  0
    6.5498   -7.7508    0.0000 C   0  0  0  0  0  0  0  0  0  0  0  0
    5.6682   -8.9643    0.0000 C   0  0  0  0  0  0  0  0  0  0  0  0
    4.2416   -8.5008    0.0000 C   0  0  0  0  0  0  0  0  0  0  0  0
    3.0280   -9.3824    0.0000 C   0  0  0  0  0  0  0  0  0  0  0  0
    3.1848  -10.8742    0.0000 O   0  0  0  0  0  0  0  0  0  0  0  0
    1.6577   -8.7723    0.0000 N   0  0  0  0  0  0  0  0  0  0  0  0
    0.4442   -9.6540    0.0000 C   0  0  0  0  0  0  0  0  0  0  0  0
   -0.9261   -9.0439    0.0000 N   0  0  0  0  0  0  0  0  0  0  0  0
   -2.1396   -9.9256    0.0000 N   0  0  0  0  0  0  0  0  0  0  0  0
   -1.9829  -11.4174    0.0000 N   0  0  0  0  0  0  0  0  0  0  0  0
   -0.6125  -12.0275    0.0000 N   0  0  0  0  0  0  0  0  0  0  0  0
    0.6010  -11.1458    0.0000 N   0  0  0  0  0  0  0  0  0  0  0  0
    4.2416   -7.0008    0.0000 C   0  0  0  0  0  0  0  0  0  0  0  0
    3.0280   -6.1191    0.0000 O   0  0  0  0  0  0  0  0  0  0  0  0
    0.7500   -1.2990    0.0000 C   0  0  0  0  0  0  0  0  0  0  0  0
    1.5000    0.0000    0.0000 C   0  0  0  0  0  0  0  0  0  0  0  0
    0.7500    1.2990    0.0000 C   0  0  0  0  0  0  0  0  0  0  0  0
   -0.7500    1.2990    0.0000 C   0  0  0  0  0  0  0  0  0  0  0  0
   -1.5000    0.0000    0.0000 C   0  0  0  0  0  0  0  0  0  0  0  0
   -0.7500   -1.2990    0.0000 C   0  0  0  0  0  0  0  0  0  0  0  0
  1  2  1  0
  2  3  1  0
  3  4  1  0
  4  5  1  0
  5  6  1  0
  6  7  2  0
  6  8  1  0
  8  9  1  0
  9 10  2  0
 10 11  1  0
 11 12  2  0
 12 13  1  0
 13 14  1  0
 14 15  1  0
 15 16  1  0
 16 17  1  0
 17 18  1  0
 18 19  2  0
 18 20  1  0
 20 21  1  0
 21 22  2  0
 22 23  1  0
 23 24  2  0
 24 25  1  0
 25 26  2  0
 17 27  1  0
 27 28  2  0
  5 29  1  0
 29 30  2  0
 30 31  1  0
 31 32  2  0
 32 33  1  0
 33 34  2  0
 34  2  1  0
 13  9  1  0
 27 14  1  0
 34 29  1  0
 26 21  1  0
M  END
>  <Title>  (83) 
idAABGgen13

$$$$

     RDKit          2D

 21 22  0  0  0  0  0  0  0  0999 V2000
   -4.9023   -9.1838    0.0000 C   0  0  0  0  0  0  0  0  0  0  0  0
   -4.4388   -7.7572    0.0000 C   0  0  0  0  0  0  0  0  0  0  0  0
   -2.9716   -7.4453    0.0000 C   0  0  0  0  0  0  0  0  0  0  0  0
   -2.5081   -6.0187    0.0000 C   0  0  0  0  0  0  0  0  0  0  0  0
   -1.0409   -5.7068    0.0000 C   0  0  0  0  0  0  0  0  0  0  0  0
   -0.0372   -6.8216    0.0000 O   0  0  0  0  0  0  0  0  0  0  0  0
   -0.5773   -4.2803    0.0000 N   0  0  0  0  0  0  0  0  0  0  0  0
    0.8899   -3.9684    0.0000 C   0  0  0  0  0  0  0  0  0  0  0  0
    2.0046   -4.9721    0.0000 N   0  0  0  0  0  0  0  0  0  0  0  0
    3.3037   -4.2221    0.0000 N   0  0  0  0  0  0  0  0  0  0  0  0
    2.9918   -2.7549    0.0000 N   0  0  0  0  0  0  0  0  0  0  0  0
    1.5000   -2.5981    0.0000 N   0  0  0  0  0  0  0  0  0  0  0  0
    0.7500   -1.2990    0.0000 C   0  0  0  0  0  0  0  0  0  0  0  0
    1.5000    0.0000    0.0000 C   0  0  0  0  0  0  0  0  0  0  0  0
    0.7500    1.2990    0.0000 C   0  0  0  0  0  0  0  0  0  0  0  0
   -0.7500    1.2990    0.0000 C   0  0  0  0  0  0  0  0  0  0  0  0
   -1.5000    2.5981    0.0000 O   0  0  0  0  0  0  0  0  0  0  0  0
   -0.7500    3.8971    0.0000 C   0  0  0  0  0  0  0  0  0  0  0  0
   -1.5000    0.0000    0.0000 C   0  0  0  0  0  0  0  0  0  0  0  0
   -3.0000    0.0000    0.0000 O   0  0  0  0  0  0  0  0  0  0  0  0
   -0.7500   -1.2990    0.0000 C   0  0  0  0  0  0  0  0  0  0  0  0
  1  2  2  0
  2  3  1  0
  3  4  1  0
  4  5  1  0
  5  6  2  0
  5  7  1  0
  7  8  1  0
  8  9  2  0
  9 10  1  0
 10 11  2  0
 11 12  1  0
 12 13  1  0
 13 14  2  0
 14 15  1  0
 15 16  2  0
 16 17  1  0
 17 18  1  0
 16 19  1  0
 19 20  1  0
 19 21  1  0
 12  8  1  0
 21 13  1  0
M  END
>  <Title>  (84) 
idAABHgen13

$$$$

     RDKit          2D

 41 46  0  0  0  0  0  0  0  0999 V2000
   -2.3737   -6.1885    0.0000 C   0  0  0  0  0  0  0  0  0  0  0  0
   -1.4095   -5.0395    0.0000 C   0  0  0  0  0  0  0  0  0  0  0  0
   -0.0000   -5.5525    0.0000 C   0  0  0  0  0  0  0  0  0  0  0  0
    1.4095   -5.0395    0.0000 C   0  0  0  0  0  0  0  0  0  0  0  0
    2.1595   -3.7404    0.0000 C   0  0  0  0  0  0  0  0  0  0  0  0
    1.8991   -2.2632    0.0000 C   0  0  0  0  0  0  0  0  0  0  0  0
    3.1981   -1.5132    0.0000 C   0  0  0  0  0  0  0  0  0  0  0  0
    3.1981   -0.0132    0.0000 O   0  0  0  0  0  0  0  0  0  0  0  0
    4.4971   -2.2632    0.0000 N   0  0  0  0  0  0  0  0  0  0  0  0
    5.7962   -1.5132    0.0000 C   0  0  0  0  0  0  0  0  0  0  0  0
    5.9530   -0.0214    0.0000 N   0  0  0  0  0  0  0  0  0  0  0  0
    7.4202    0.2904    0.0000 N   0  0  0  0  0  0  0  0  0  0  0  0
    8.1702   -1.0086    0.0000 N   0  0  0  0  0  0  0  0  0  0  0  0
    7.1665   -2.1233    0.0000 N   0  0  0  0  0  0  0  0  0  0  0  0
    7.4784   -3.5905    0.0000 N   0  0  0  0  0  0  0  0  0  0  0  0
    8.8487   -4.2007    0.0000 C   0  0  0  0  0  0  0  0  0  0  0  0
    8.6919   -5.6924    0.0000 C   0  0  0  0  0  0  0  0  0  0  0  0
    7.2247   -6.0043    0.0000 N   0  0  0  0  0  0  0  0  0  0  0  0
    6.6146   -7.3746    0.0000 C   0  0  0  0  0  0  0  0  0  0  0  0
    7.4962   -8.5881    0.0000 O   0  0  0  0  0  0  0  0  0  0  0  0
    5.1228   -7.5314    0.0000 N   0  0  0  0  0  0  0  0  0  0  0  0
    4.5127   -8.9017    0.0000 C   0  0  0  0  0  0  0  0  0  0  0  0
    3.0209   -9.0585    0.0000 N   0  0  0  0  0  0  0  0  0  0  0  0
    2.4108  -10.4288    0.0000 N   0  0  0  0  0  0  0  0  0  0  0  0
    3.2925  -11.6424    0.0000 N   0  0  0  0  0  0  0  0  0  0  0  0
    4.7843  -11.4856    0.0000 N   0  0  0  0  0  0  0  0  0  0  0  0
    5.3944  -10.1153    0.0000 N   0  0  0  0  0  0  0  0  0  0  0  0
    6.4747   -4.7053    0.0000 C   0  0  0  0  0  0  0  0  0  0  0  0
    4.9829   -4.5485    0.0000 O   0  0  0  0  0  0  0  0  0  0  0  0
    0.7500   -1.2990    0.0000 C   0  0  0  0  0  0  0  0  0  0  0  0
    1.5000    0.0000    0.0000 C   0  0  0  0  0  0  0  0  0  0  0  0
    0.7500    1.2990    0.0000 C   0  0  0  0  0  0  0  0  0  0  0  0
   -0.7500    1.2990    0.0000 C   0  0  0  0  0  0  0  0  0  0  0  0
   -1.5000    0.0000    0.0000 C   0  0  0  0  0  0  0  0  0  0  0  0
   -0.7500   -1.2990    0.0000 C   0  0  0  0  0  0  0  0  0  0  0  0
   -1.8991   -2.2632    0.0000 C   0  0  0  0  0  0  0  0  0  0  0  0
   -3.0481   -1.2990    0.0000 C   0  0  0  0  0  0  0  0  0  0  0  0
   -4.4577   -1.8121    0.0000 C   0  0  0  0  0  0  0  0  0  0  0  0
   -4.7181   -3.2893    0.0000 C   0  0  0  0  0  0  0  0  0  0  0  0
   -3.5691   -4.2535    0.0000 C   0  0  0  0  0  0  0  0  0  0  0  0
   -2.1595   -3.7404    0.0000 C   0  0  0  0  0  0  0  0  0  0  0  0
  1  2  1  0
  2  3  1  0
  3  4  1  0
  4  5  1  0
  5  6  2  0
  6  7  1  0
  7  8  2  0
  7  9  1  0
  9 10  1  0
 10 11  2  0
 11 12  1  0
 12 13  2  0
 13 14  1  0
 14 15  1  0
 15 16  1  0
 16 17  1  0
 17 18  1  0
 18 19  1  0
 19 20  2  0
 19 21  1  0
 21 22  1  0
 22 23  2  0
 23 24  1  0
 24 25  2  0
 25 26  1  0
 26 27  2  0
 18 28  1  0
 28 29  2  0
  6 30  1  0
 30 31  2  0
 31 32  1  0
 32 33  2  0
 33 34  1  0
 34 35  2  0
 35 36  1  0
 36 37  2  0
 37 38  1  0
 38 39  2  0
 39 40  1  0
 40 41  2  0
 41  2  1  0
 14 10  1  0
 28 15  1  0
 35 30  1  0
 41 36  1  0
 27 22  1  0
M  END
>  <Title>  (85) 
idAABIgen13

$$$$

     RDKit          2D

 80 82  0  0  0  0  0  0  0  0999 V2000
    9.4753   -8.0015    0.0000 C   0  0  0  0  0  0  0  0  0  0  0  0
   10.8245   -7.3461    0.0000 C   0  0  0  0  0  0  0  0  0  0  0  0
   11.6052   -8.6270    0.0000 C   0  0  0  0  0  0  0  0  0  0  0  0
   12.6142   -9.7369    0.0000 C   0  0  0  0  0  0  0  0  0  0  0  0
   13.8150  -10.6358    0.0000 C   0  0  0  0  0  0  0  0  0  0  0  0
   15.1643  -11.2912    0.0000 C   0  0  0  0  0  0  0  0  0  0  0  0
   16.6132  -11.6794    0.0000 C   0  0  0  0  0  0  0  0  0  0  0  0
   18.1093  -11.7864    0.0000 C   0  0  0  0  0  0  0  0  0  0  0  0
   19.5987  -11.6084    0.0000 C   0  0  0  0  0  0  0  0  0  0  0  0
   21.0275  -11.1516    0.0000 C   0  0  0  0  0  0  0  0  0  0  0  0
   22.3440  -10.4328    0.0000 C   0  0  0  0  0  0  0  0  0  0  0  0
   23.5007   -9.4777    0.0000 C   0  0  0  0  0  0  0  0  0  0  0  0
   24.4557   -8.3211    0.0000 C   0  0  0  0  0  0  0  0  0  0  0  0
   25.1746   -7.0045    0.0000 C   0  0  0  0  0  0  0  0  0  0  0  0
   25.6314   -5.5758    0.0000 C   0  0  0  0  0  0  0  0  0  0  0  0
   25.8094   -4.0864    0.0000 C   0  0  0  0  0  0  0  0  0  0  0  0
   25.7024   -2.5902    0.0000 C   0  0  0  0  0  0  0  0  0  0  0  0
   25.3142   -1.1413    0.0000 C   0  0  0  0  0  0  0  0  0  0  0  0
   24.6588    0.2079    0.0000 C   0  0  0  0  0  0  0  0  0  0  0  0
   23.7599    1.4087    0.0000 C   0  0  0  0  0  0  0  0  0  0  0  0
   22.6499    2.4177    0.0000 C   0  0  0  0  0  0  0  0  0  0  0  0
   21.3691    3.1984    0.0000 C   0  0  0  0  0  0  0  0  0  0  0  0
   19.9637    3.7226    0.0000 C   0  0  0  0  0  0  0  0  0  0  0  0
   18.4845    3.9714    0.0000 C   0  0  0  0  0  0  0  0  0  0  0  0
   16.9849    3.9357    0.0000 C   0  0  0  0  0  0  0  0  0  0  0  0
   15.5192    3.6168    0.0000 C   0  0  0  0  0  0  0  0  0  0  0  0
   14.1403    3.0264    0.0000 C   0  0  0  0  0  0  0  0  0  0  0  0
   12.8980    2.1856    0.0000 C   0  0  0  0  0  0  0  0  0  0  0  0
   11.8374    1.1249    0.0000 C   0  0  0  0  0  0  0  0  0  0  0  0
   10.9966   -0.1173    0.0000 C   0  0  0  0  0  0  0  0  0  0  0  0
   10.4061   -1.4962    0.0000 C   0  0  0  0  0  0  0  0  0  0  0  0
    9.8132   -0.0000    0.0000 C   0  0  0  0  0  0  0  0  0  0  0  0
    9.7133    1.3966    0.0000 C   0  0  0  0  0  0  0  0  0  0  0  0
    9.4157    2.7647    0.0000 C   0  0  0  0  0  0  0  0  0  0  0  0
    8.9264    4.0765    0.0000 C   0  0  0  0  0  0  0  0  0  0  0  0
    8.2554    5.3054    0.0000 C   0  0  0  0  0  0  0  0  0  0  0  0
    7.4163    6.4263    0.0000 C   0  0  0  0  0  0  0  0  0  0  0  0
    6.4263    7.4163    0.0000 C   0  0  0  0  0  0  0  0  0  0  0  0
    5.3054    8.2554    0.0000 C   0  0  0  0  0  0  0  0  0  0  0  0
    4.0765    8.9264    0.0000 C   0  0  0  0  0  0  0  0  0  0  0  0
    2.7647    9.4157    0.0000 C   0  0  0  0  0  0  0  0  0  0  0  0
    1.3966    9.7133    0.0000 C   0  0  0  0  0  0  0  0  0  0  0  0
    0.0000    9.8132    0.0000 C   0  0  0  0  0  0  0  0  0  0  0  0
   -1.3966    9.7133    0.0000 C   0  0  0  0  0  0  0  0  0  0  0  0
   -2.7647    9.4157    0.0000 C   0  0  0  0  0  0  0  0  0  0  0  0
   -4.0765    8.9264    0.0000 C   0  0  0  0  0  0  0  0  0  0  0  0
   -5.3054    8.2554    0.0000 C   0  0  0  0  0  0  0  0  0  0  0  0
   -6.4263    7.4163    0.0000 C   0  0  0  0  0  0  0  0  0  0  0  0
   -7.4163    6.4263    0.0000 C   0  0  0  0  0  0  0  0  0  0  0  0
   -8.2554    5.3054    0.0000 C   0  0  0  0  0  0  0  0  0  0  0  0
   -8.9264    4.0765    0.0000 C   0  0  0  0  0  0  0  0  0  0  0  0
   -9.4157    2.7647    0.0000 C   0  0  0  0  0  0  0  0  0  0  0  0
   -9.7133    1.3966    0.0000 C   0  0  0  0  0  0  0  0  0  0  0  0
   -9.8132    0.0000    0.0000 C   0  0  0  0  0  0  0  0  0  0  0  0
   -9.7133   -1.3966    0.0000 C   0  0  0  0  0  0  0  0  0  0  0  0
   -9.4157   -2.7647    0.0000 C   0  0  0  0  0  0  0  0  0  0  0  0
   -8.9264   -4.0765    0.0000 C   0  0  0  0  0  0  0  0  0  0  0  0
   -8.2554   -5.3054    0.0000 C   0  0  0  0  0  0  0  0  0  0  0  0
   -7.4163   -6.4263    0.0000 C   0  0  0  0  0  0  0  0  0  0  0  0
   -6.4263   -7.4163    0.0000 C   0  0  0  0  0  0  0  0  0  0  0  0
   -5.3054   -8.2554    0.0000 C   0  0  0  0  0  0  0  0  0  0  0  0
   -4.0765   -8.9264    0.0000 C   0  0  0  0  0  0  0  0  0  0  0  0
   -2.7647   -9.4157    0.0000 C   0  0  0  0  0  0  0  0  0  0  0  0
   -1.3966   -9.7133    0.0000 C   0  0  0  0  0  0  0  0  0  0  0  0
   -0.0000   -9.8132    0.0000 C   0  0  0  0  0  0  0  0  0  0  0  0
    1.3966   -9.7133    0.0000 C   0  0  0  0  0  0  0  0  0  0  0  0
    2.7647   -9.4157    0.0000 C   0  0  0  0  0  0  0  0  0  0  0  0
    4.0765   -8.9264    0.0000 C   0  0  0  0  0  0  0  0  0  0  0  0
    5.3054   -8.2554    0.0000 C   0  0  0  0  0  0  0  0  0  0  0  0
    6.4263   -7.4163    0.0000 C   0  0  0  0  0  0  0  0  0  0  0  0
    7.4163   -6.4263    0.0000 C   0  0  0  0  0  0  0  0  0  0  0  0
    8.2554   -5.3054    0.0000 C   0  0  0  0  0  0  0  0  0  0  0  0
    8.9264   -4.0765    0.0000 C   0  0  0  0  0  0  0  0  0  0  0  0
   10.0873   -2.9619    0.0000 C   0  0  0  0  0  0  0  0  0  0  0  0
   10.0516   -4.4615    0.0000 C   0  0  0  0  0  0  0  0  0  0  0  0
   11.2083   -3.5064    0.0000 C   0  0  0  0  0  0  0  0  0  0  0  0
   12.6137   -4.0306    0.0000 C   0  0  0  0  0  0  0  0  0  0  0  0
   12.8625   -5.5099    0.0000 C   0  0  0  0  0  0  0  0  0  0  0  0
   11.7058   -6.4649    0.0000 C   0  0  0  0  0  0  0  0  0  0  0  0
   10.3003   -5.9407    0.0000 C   0  0  0  0  0  0  0  0  0  0  0  0
  1  2  1  0
  2  3  1  0
  3  4  1  0
  4  5  1  0
  5  6  1  0
  6  7  1  0
  7  8  1  0
  8  9  1  0
  9 10  1  0
 10 11  1  0
 11 12  1  0
 12 13  1  0
 13 14  1  0
 14 15  1  0
 15 16  1  0
 16 17  1  0
 17 18  1  0
 18 19  1  0
 19 20  1  0
 20 21  1  0
 21 22  1  0
 22 23  1  0
 23 24  1  0
 24 25  1  0
 25 26  1  0
 26 27  1  0
 27 28  1  0
 28 29  1  0
 29 30  1  0
 30 31  1  0
 31 32  1  0
 32 33  1  0
 33 34  1  0
 34 35  1  0
 35 36  1  0
 36 37  1  0
 37 38  1  0
 38 39  1  0
 39 40  1  0
 40 41  1  0
 41 42  1  0
 42 43  1  0
 43 44  1  0
 44 45  1  0
 45 46  1  0
 46 47  1  0
 47 48  2  0
 48 49  1  0
 49 50  2  0
 50 51  1  0
 51 52  2  0
 52 53  1  0
 53 54  2  0
 54 55  1  0
 55 56  2  0
 56 57  1  0
 57 58  2  0
 58 59  1  0
 59 60  2  0
 60 61  1  0
 61 62  2  0
 62 63  1  0
 63 64  2  0
 64 65  1  0
 65 66  2  0
 66 67  1  0
 67 68  2  0
 68 69  1  0
 69 70  2  0
 70 71  1  0
 71 72  2  0
 72 73  1  0
 73 74  2  0
 74 75  1  0
 75 76  2  0
 76 77  1  0
 77 78  2  0
 78 79  1  0
 79 80  2  0
 80  2  1  0
 74 31  1  0
 80 75  1  0
M  END
>  <Title>  (86) 
idAABJgen13

$$$$

     RDKit          2D

 79 80  0  0  0  0  0  0  0  0999 V2000
   -2.2116   -1.0660    0.0000 C   0  0  0  0  0  0  0  0  0  0  0  0
   -2.4927    0.4075    0.0000 C   0  0  0  0  0  0  0  0  0  0  0  0
   -3.9766    0.1883    0.0000 C   0  0  0  0  0  0  0  0  0  0  0  0
   -5.4736    0.0942    0.0000 C   0  0  0  0  0  0  0  0  0  0  0  0
   -6.9733    0.1256    0.0000 C   0  0  0  0  0  0  0  0  0  0  0  0
   -8.4651    0.2824    0.0000 C   0  0  0  0  0  0  0  0  0  0  0  0
   -9.9385    0.5634    0.0000 C   0  0  0  0  0  0  0  0  0  0  0  0
  -11.3832    0.9668    0.0000 C   0  0  0  0  0  0  0  0  0  0  0  0
  -12.7892    1.4897    0.0000 C   0  0  0  0  0  0  0  0  0  0  0  0
  -14.1464    2.1283    0.0000 C   0  0  0  0  0  0  0  0  0  0  0  0
  -15.4454    2.8783    0.0000 C   0  0  0  0  0  0  0  0  0  0  0  0
  -16.6772    3.7344    0.0000 C   0  0  0  0  0  0  0  0  0  0  0  0
  -17.8329    4.6906    0.0000 C   0  0  0  0  0  0  0  0  0  0  0  0
  -18.9046    5.7400    0.0000 C   0  0  0  0  0  0  0  0  0  0  0  0
  -19.8848    6.8755    0.0000 C   0  0  0  0  0  0  0  0  0  0  0  0
  -20.7664    8.0891    0.0000 C   0  0  0  0  0  0  0  0  0  0  0  0
  -21.5435    9.3721    0.0000 C   0  0  0  0  0  0  0  0  0  0  0  0
  -22.2104   10.7157    0.0000 C   0  0  0  0  0  0  0  0  0  0  0  0
  -22.7626   12.1103    0.0000 C   0  0  0  0  0  0  0  0  0  0  0  0
  -23.1962   13.5463    0.0000 C   0  0  0  0  0  0  0  0  0  0  0  0
  -23.5080   15.0135    0.0000 C   0  0  0  0  0  0  0  0  0  0  0  0
  -23.6960   16.5017    0.0000 C   0  0  0  0  0  0  0  0  0  0  0  0
  -23.7589   18.0004    0.0000 C   0  0  0  0  0  0  0  0  0  0  0  0
  -23.6960   19.4991    0.0000 C   0  0  0  0  0  0  0  0  0  0  0  0
  -23.5080   20.9873    0.0000 C   0  0  0  0  0  0  0  0  0  0  0  0
  -23.1962   22.4545    0.0000 C   0  0  0  0  0  0  0  0  0  0  0  0
  -22.7626   23.8905    0.0000 C   0  0  0  0  0  0  0  0  0  0  0  0
  -22.2104   25.2851    0.0000 C   0  0  0  0  0  0  0  0  0  0  0  0
  -21.5435   26.6287    0.0000 C   0  0  0  0  0  0  0  0  0  0  0  0
  -20.7664   27.9117    0.0000 C   0  0  0  0  0  0  0  0  0  0  0  0
  -19.8848   29.1253    0.0000 C   0  0  0  0  0  0  0  0  0  0  0  0
  -18.9046   30.2608    0.0000 C   0  0  0  0  0  0  0  0  0  0  0  0
  -17.8329   31.3103    0.0000 C   0  0  0  0  0  0  0  0  0  0  0  0
  -16.6772   32.2664    0.0000 C   0  0  0  0  0  0  0  0  0  0  0  0
  -15.4454   33.1225    0.0000 C   0  0  0  0  0  0  0  0  0  0  0  0
  -14.1464   33.8725    0.0000 C   0  0  0  0  0  0  0  0  0  0  0  0
  -12.7892   34.5111    0.0000 C   0  0  0  0  0  0  0  0  0  0  0  0
  -11.3832   35.0340    0.0000 C   0  0  0  0  0  0  0  0  0  0  0  0
   -9.9385   35.4374    0.0000 C   0  0  0  0  0  0  0  0  0  0  0  0
   -8.4651   35.7184    0.0000 C   0  0  0  0  0  0  0  0  0  0  0  0
   -6.9733   35.8752    0.0000 C   0  0  0  0  0  0  0  0  0  0  0  0
   -5.4736   35.9066    0.0000 C   0  0  0  0  0  0  0  0  0  0  0  0
   -3.9766   35.8125    0.0000 C   0  0  0  0  0  0  0  0  0  0  0  0
   -2.4927   35.5933    0.0000 C   0  0  0  0  0  0  0  0  0  0  0  0
   -1.0323   35.2508    0.0000 C   0  0  0  0  0  0  0  0  0  0  0  0
    0.3943   34.7873    0.0000 C   0  0  0  0  0  0  0  0  0  0  0  0
    1.7771   34.2060    0.0000 C   0  0  0  0  0  0  0  0  0  0  0  0
    3.1064   33.5111    0.0000 C   0  0  0  0  0  0  0  0  0  0  0  0
    4.3729   32.7073    0.0000 C   0  0  0  0  0  0  0  0  0  0  0  0
    5.5677   31.8004    0.0000 C   0  0  0  0  0  0  0  0  0  0  0  0
    6.6824   30.7967    0.0000 C   0  0  0  0  0  0  0  0  0  0  0  0
    7.7092   29.7033    0.0000 C   0  0  0  0  0  0  0  0  0  0  0  0
    8.6409   28.5277    0.0000 C   0  0  0  0  0  0  0  0  0  0  0  0
    9.4710   27.2784    0.0000 C   0  0  0  0  0  0  0  0  0  0  0  0
   10.1937   25.9639    0.0000 C   0  0  0  0  0  0  0  0  0  0  0  0
   10.8038   24.5936    0.0000 C   0  0  0  0  0  0  0  0  0  0  0  0
   11.2971   23.1770    0.0000 C   0  0  0  0  0  0  0  0  0  0  0  0
   11.6701   21.7241    0.0000 C   0  0  0  0  0  0  0  0  0  0  0  0
   11.9203   20.2451    0.0000 C   0  0  0  0  0  0  0  0  0  0  0  0
   12.0458   18.7504    0.0000 C   0  0  0  0  0  0  0  0  0  0  0  0
   12.0458   17.2504    0.0000 C   0  0  0  0  0  0  0  0  0  0  0  0
   11.9203   15.7557    0.0000 C   0  0  0  0  0  0  0  0  0  0  0  0
   11.6701   14.2767    0.0000 C   0  0  0  0  0  0  0  0  0  0  0  0
   11.2971   12.8238    0.0000 C   0  0  0  0  0  0  0  0  0  0  0  0
   10.8038   11.4072    0.0000 C   0  0  0  0  0  0  0  0  0  0  0  0
   10.1937   10.0369    0.0000 C   0  0  0  0  0  0  0  0  0  0  0  0
    9.4710    8.7225    0.0000 C   0  0  0  0  0  0  0  0  0  0  0  0
    8.6409    7.4731    0.0000 C   0  0  0  0  0  0  0  0  0  0  0  0
    7.7092    6.2975    0.0000 C   0  0  0  0  0  0  0  0  0  0  0  0
    6.6824    5.2041    0.0000 C   0  0  0  0  0  0  0  0  0  0  0  0
    5.5677    4.2004    0.0000 C   0  0  0  0  0  0  0  0  0  0  0  0
    4.3729    3.2935    0.0000 C   0  0  0  0  0  0  0  0  0  0  0  0
    3.1064    2.4897    0.0000 C   0  0  0  0  0  0  0  0  0  0  0  0
    1.7771    1.7948    0.0000 C   0  0  0  0  0  0  0  0  0  0  0  0
    0.3943    1.2135    0.0000 C   0  0  0  0  0  0  0  0  0  0  0  0
    1.2760    0.0000    0.0000 C   0  0  0  0  0  0  0  0  0  0  0  0
    0.3943   -1.2135    0.0000 C   0  0  0  0  0  0  0  0  0  0  0  0
   -1.0323   -0.7500    0.0000 C   0  0  0  0  0  0  0  0  0  0  0  0
   -1.0323    0.7500    0.0000 C   0  0  0  0  0  0  0  0  0  0  0  0
  1  2  1  0
  2  3  1  0
  3  4  1  0
  4  5  1  0
  5  6  1  0
  6  7  1  0
  7  8  1  0
  8  9  1  0
  9 10  1  0
 10 11  1  0
 11 12  1  0
 12 13  1  0
 13 14  1  0
 14 15  1  0
 15 16  1  0
 16 17  1  0
 17 18  1  0
 18 19  1  0
 19 20  1  0
 20 21  1  0
 21 22  1  0
 22 23  1  0
 23 24  1  0
 24 25  1  0
 25 26  1  0
 26 27  1  0
 27 28  1  0
 28 29  1  0
 29 30  1  0
 30 31  1  0
 31 32  1  0
 32 33  1  0
 33 34  1  0
 34 35  1  0
 35 36  1  0
 36 37  1  0
 37 38  1  0
 38 39  1  0
 39 40  1  0
 40 41  1  0
 41 42  1  0
 42 43  1  0
 43 44  1  0
 44 45  1  0
 45 46  1  0
 46 47  1  0
 47 48  1  0
 48 49  1  0
 49 50  1  0
 50 51  1  0
 51 52  1  0
 52 53  1  0
 53 54  1  0
 54 55  1  0
 55 56  1  0
 56 57  1  0
 57 58  1  0
 58 59  2  0
 59 60  1  0
 60 61  2  0
 61 62  1  0
 62 63  2  0
 63 64  1  0
 64 65  2  0
 65 66  1  0
 66 67  2  0
 67 68  1  0
 68 69  2  0
 69 70  1  0
 70 71  2  0
 71 72  1  0
 72 73  2  0
 73 74  1  0
 74 75  2  0
 75 76  1  0
 76 77  2  0
 77 78  1  0
 78 79  2  0
 79  2  1  0
 79 75  1  0
M  END
>  <Title>  (87) 
idAABKgen13

$$$$

     RDKit          2D

 64 64  0  0  0  0  0  0  0  0999 V2000
   88.5000    0.0000    0.0000 C   0  0  0  0  0  0  0  0  0  0  0  0
   87.0000    0.0000    0.0000 C   0  0  0  0  0  0  0  0  0  0  0  0
   85.5000    0.0000    0.0000 C   0  0  0  0  0  0  0  0  0  0  0  0
   84.0000    0.0000    0.0000 C   0  0  0  0  0  0  0  0  0  0  0  0
   82.5000    0.0000    0.0000 C   0  0  0  0  0  0  0  0  0  0  0  0
   81.0000    0.0000    0.0000 C   0  0  0  0  0  0  0  0  0  0  0  0
   79.5000    0.0000    0.0000 C   0  0  0  0  0  0  0  0  0  0  0  0
   78.0000    0.0000    0.0000 C   0  0  0  0  0  0  0  0  0  0  0  0
   76.5000    0.0000    0.0000 C   0  0  0  0  0  0  0  0  0  0  0  0
   75.0000    0.0000    0.0000 C   0  0  0  0  0  0  0  0  0  0  0  0
   73.5000    0.0000    0.0000 C   0  0  0  0  0  0  0  0  0  0  0  0
   72.0000    0.0000    0.0000 C   0  0  0  0  0  0  0  0  0  0  0  0
   70.5000    0.0000    0.0000 C   0  0  0  0  0  0  0  0  0  0  0  0
   69.0000    0.0000    0.0000 C   0  0  0  0  0  0  0  0  0  0  0  0
   67.5000    0.0000    0.0000 C   0  0  0  0  0  0  0  0  0  0  0  0
   66.0000    0.0000    0.0000 C   0  0  0  0  0  0  0  0  0  0  0  0
   64.5000    0.0000    0.0000 C   0  0  0  0  0  0  0  0  0  0  0  0
   63.0000    0.0000    0.0000 C   0  0  0  0  0  0  0  0  0  0  0  0
   61.5000    0.0000    0.0000 C   0  0  0  0  0  0  0  0  0  0  0  0
   60.0000    0.0000    0.0000 C   0  0  0  0  0  0  0  0  0  0  0  0
   58.5000    0.0000    0.0000 C   0  0  0  0  0  0  0  0  0  0  0  0
   57.0000    0.0000    0.0000 C   0  0  0  0  0  0  0  0  0  0  0  0
   55.5000    0.0000    0.0000 C   0  0  0  0  0  0  0  0  0  0  0  0
   54.0000    0.0000    0.0000 C   0  0  0  0  0  0  0  0  0  0  0  0
   52.5000    0.0000    0.0000 C   0  0  0  0  0  0  0  0  0  0  0  0
   51.0000    0.0000    0.0000 C   0  0  0  0  0  0  0  0  0  0  0  0
   49.5000    0.0000    0.0000 C   0  0  0  0  0  0  0  0  0  0  0  0
   48.0000    0.0000    0.0000 C   0  0  0  0  0  0  0  0  0  0  0  0
   46.5000    0.0000    0.0000 C   0  0  0  0  0  0  0  0  0  0  0  0
   45.0000    0.0000    0.0000 C   0  0  0  0  0  0  0  0  0  0  0  0
   43.5000    0.0000    0.0000 C   0  0  0  0  0  0  0  0  0  0  0  0
   42.0000    0.0000    0.0000 C   0  0  0  0  0  0  0  0  0  0  0  0
   40.5000    0.0000    0.0000 C   0  0  0  0  0  0  0  0  0  0  0  0
   39.0000    0.0000    0.0000 C   0  0  0  0  0  0  0  0  0  0  0  0
   37.5000    0.0000    0.0000 C   0  0  0  0  0  0  0  0  0  0  0  0
   36.0000    0.0000    0.0000 C   0  0  0  0  0  0  0  0  0  0  0  0
   34.5000    0.0000    0.0000 C   0  0  0  0  0  0  0  0  0  0  0  0
   33.0000    0.0000    0.0000 C   0  0  0  0  0  0  0  0  0  0  0  0
   31.5000    0.0000    0.0000 C   0  0  0  0  0  0  0  0  0  0  0  0
   30.0000    0.0000    0.0000 C   0  0  0  0  0  0  0  0  0  0  0  0
   28.5000    0.0000    0.0000 C   0  0  0  0  0  0  0  0  0  0  0  0
   27.0000    0.0000    0.0000 C   0  0  0  0  0  0  0  0  0  0  0  0
   25.5000    0.0000    0.0000 C   0  0  0  0  0  0  0  0  0  0  0  0
   24.0000    0.0000    0.0000 C   0  0  0  0  0  0  0  0  0  0  0  0
   22.5000    0.0000    0.0000 C   0  0  0  0  0  0  0  0  0  0  0  0
   21.0000    0.0000    0.0000 C   0  0  0  0  0  0  0  0  0  0  0  0
   19.5000    0.0000    0.0000 C   0  0  0  0  0  0  0  0  0  0  0  0
   18.0000    0.0000    0.0000 C   0  0  0  0  0  0  0  0  0  0  0  0
   16.5000    0.0000    0.0000 C   0  0  0  0  0  0  0  0  0  0  0  0
   15.0000    0.0000    0.0000 C   0  0  0  0  0  0  0  0  0  0  0  0
   13.5000    0.0000    0.0000 C   0  0  0  0  0  0  0  0  0  0  0  0
   12.0000    0.0000    0.0000 C   0  0  0  0  0  0  0  0  0  0  0  0
   10.5000    0.0000    0.0000 C   0  0  0  0  0  0  0  0  0  0  0  0
    9.0000    0.0000    0.0000 C   0  0  0  0  0  0  0  0  0  0  0  0
    7.5000    0.0000    0.0000 C   0  0  0  0  0  0  0  0  0  0  0  0
    6.0000    0.0000    0.0000 C   0  0  0  0  0  0  0  0  0  0  0  0
    4.5000    0.0000    0.0000 C   0  0  0  0  0  0  0  0  0  0  0  0
    3.0000    0.0000    0.0000 C   0  0  0  0  0  0  0  0  0  0  0  0
    1.5000    0.0000    0.0000 C   0  0  0  0  0  0  0  0  0  0  0  0
    0.7500   -1.2990    0.0000 C   0  0  0  0  0  0  0  0  0  0  0  0
   -0.7500   -1.2990    0.0000 C   0  0  0  0  0  0  0  0  0  0  0  0
   -1.5000    0.0000    0.0000 C   0  0  0  0  0  0  0  0  0  0  0  0
   -0.7500    1.2990    0.0000 C   0  0  0  0  0  0  0  0  0  0  0  0
    0.7500    1.2990    0.0000 C   0  0  0  0  0  0  0  0  0  0  0  0
  1  2  3  0
  2  3  1  0
  3  4  3  0
  4  5  1  0
  5  6  3  0
  6  7  1  0
  7  8  3  0
  8  9  1  0
  9 10  3  0
 10 11  1  0
 11 12  3  0
 12 13  1  0
 13 14  3  0
 14 15  1  0
 15 16  3  0
 16 17  1  0
 17 18  3  0
 18 19  1  0
 19 20  3  0
 20 21  1  0
 21 22  3  0
 22 23  1  0
 23 24  3  0
 24 25  1  0
 25 26  3  0
 26 27  1  0
 27 28  3  0
 28 29  1  0
 29 30  3  0
 30 31  1  0
 31 32  3  0
 32 33  1  0
 33 34  3  0
 34 35  1  0
 35 36  3  0
 36 37  1  0
 37 38  3  0
 38 39  1  0
 39 40  3  0
 40 41  1  0
 41 42  3  0
 42 43  1  0
 43 44  3  0
 44 45  1  0
 45 46  3  0
 46 47  1  0
 47 48  3  0
 48 49  1  0
 49 50  3  0
 50 51  1  0
 51 52  3  0
 52 53  1  0
 53 54  3  0
 54 55  1  0
 55 56  3  0
 56 57  1  0
 57 58  3  0
 58 59  1  0
 59 60  2  0
 60 61  1  0
 61 62  2  0
 62 63  1  0
 63 64  2  0
 64 59  1  0
M  END
>  <Title>  (88) 
idAABLgen13

$$$$

     RDKit          2D

 35 39  0  0  0  0  0  0  0  0999 V2000
   -3.1476   -2.1380    0.0000 C   0  0  0  0  0  0  0  0  0  0  0  0
   -1.6852   -2.4718    0.0000 C   0  0  0  0  0  0  0  0  0  0  0  0
   -1.3515   -3.9342    0.0000 C   0  0  0  0  0  0  0  0  0  0  0  0
   -0.0000   -4.5850    0.0000 C   0  0  0  0  0  0  0  0  0  0  0  0
    1.3515   -3.9342    0.0000 N   0  0  0  0  0  0  0  0  0  0  0  0
    1.6852   -2.4718    0.0000 C   0  0  0  0  0  0  0  0  0  0  0  0
    3.1476   -2.1380    0.0000 C   0  0  0  0  0  0  0  0  0  0  0  0
    3.5898   -0.7046    0.0000 O   0  0  0  0  0  0  0  0  0  0  0  0
    4.1679   -3.2376    0.0000 N   0  0  0  0  0  0  0  0  0  0  0  0
    5.6303   -2.9038    0.0000 C   0  0  0  0  0  0  0  0  0  0  0  0
    6.2198   -1.5245    0.0000 N   0  0  0  0  0  0  0  0  0  0  0  0
    7.7138   -1.6590    0.0000 N   0  0  0  0  0  0  0  0  0  0  0  0
    8.0476   -3.1214    0.0000 N   0  0  0  0  0  0  0  0  0  0  0  0
    6.7599   -3.8907    0.0000 N   0  0  0  0  0  0  0  0  0  0  0  0
    6.6254   -5.3847    0.0000 C   0  0  0  0  0  0  0  0  0  0  0  0
    7.7550   -6.3716    0.0000 C   0  0  0  0  0  0  0  0  0  0  0  0
    7.1655   -7.7509    0.0000 C   0  0  0  0  0  0  0  0  0  0  0  0
    5.6715   -7.6164    0.0000 C   0  0  0  0  0  0  0  0  0  0  0  0
    4.6846   -8.7460    0.0000 C   0  0  0  0  0  0  0  0  0  0  0  0
    5.1694  -10.1655    0.0000 O   0  0  0  0  0  0  0  0  0  0  0  0
    3.2129   -8.4561    0.0000 N   0  0  0  0  0  0  0  0  0  0  0  0
    2.2260   -9.5857    0.0000 C   0  0  0  0  0  0  0  0  0  0  0  0
    0.7543   -9.2959    0.0000 N   0  0  0  0  0  0  0  0  0  0  0  0
   -0.2326  -10.4255    0.0000 N   0  0  0  0  0  0  0  0  0  0  0  0
    0.2522  -11.8450    0.0000 N   0  0  0  0  0  0  0  0  0  0  0  0
    1.7239  -12.1348    0.0000 N   0  0  0  0  0  0  0  0  0  0  0  0
    2.7108  -11.0052    0.0000 N   0  0  0  0  0  0  0  0  0  0  0  0
    5.3378   -6.1540    0.0000 C   0  0  0  0  0  0  0  0  0  0  0  0
    3.9585   -5.5645    0.0000 O   0  0  0  0  0  0  0  0  0  0  0  0
    0.7500   -1.2990    0.0000 C   0  0  0  0  0  0  0  0  0  0  0  0
    1.5000    0.0000    0.0000 C   0  0  0  0  0  0  0  0  0  0  0  0
    0.7500    1.2990    0.0000 C   0  0  0  0  0  0  0  0  0  0  0  0
   -0.7500    1.2990    0.0000 C   0  0  0  0  0  0  0  0  0  0  0  0
   -1.5000    0.0000    0.0000 C   0  0  0  0  0  0  0  0  0  0  0  0
   -0.7500   -1.2990    0.0000 C   0  0  0  0  0  0  0  0  0  0  0  0
  1  2  1  0
  2  3  1  0
  3  4  1  0
  4  5  1  0
  5  6  1  0
  6  7  1  0
  7  8  2  0
  7  9  1  0
  9 10  1  0
 10 11  2  0
 11 12  1  0
 12 13  2  0
 13 14  1  0
 14 15  1  0
 15 16  2  0
 16 17  1  0
 17 18  2  0
 18 19  1  0
 19 20  2  0
 19 21  1  0
 21 22  1  0
 22 23  2  0
 23 24  1  0
 24 25  2  0
 25 26  1  0
 26 27  2  0
 18 28  1  0
 28 29  2  0
  6 30  1  0
 30 31  2  0
 31 32  1  0
 32 33  2  0
 33 34  1  0
 34 35  2  0
 35  2  1  0
 14 10  1  0
 28 15  1  0
 35 30  1  0
 27 22  1  0
M  END
>  <Title>  (89) 
idAABMgen13

$$$$

     RDKit          2D

 84 86  0  0  0  0  0  0  0  0999 V2000
   -2.4304    0.0656    0.0000 C   0  0  0  0  0  0  0  0  0  0  0  0
   -2.2449   -1.4229    0.0000 C   0  0  0  0  0  0  0  0  0  0  0  0
   -3.7244   -1.6698    0.0000 C   0  0  0  0  0  0  0  0  0  0  0  0
   -5.1785   -2.0380    0.0000 C   0  0  0  0  0  0  0  0  0  0  0  0
   -6.5972   -2.5251    0.0000 C   0  0  0  0  0  0  0  0  0  0  0  0
   -7.9709   -3.1276    0.0000 C   0  0  0  0  0  0  0  0  0  0  0  0
   -9.2901   -3.8415    0.0000 C   0  0  0  0  0  0  0  0  0  0  0  0
  -10.5459   -4.6620    0.0000 C   0  0  0  0  0  0  0  0  0  0  0  0
  -11.7296   -5.5833    0.0000 C   0  0  0  0  0  0  0  0  0  0  0  0
  -12.8332   -6.5992    0.0000 C   0  0  0  0  0  0  0  0  0  0  0  0
  -13.8491   -7.7028    0.0000 C   0  0  0  0  0  0  0  0  0  0  0  0
  -14.7704   -8.8865    0.0000 C   0  0  0  0  0  0  0  0  0  0  0  0
  -15.5908  -10.1423    0.0000 C   0  0  0  0  0  0  0  0  0  0  0  0
  -16.3047  -11.4615    0.0000 C   0  0  0  0  0  0  0  0  0  0  0  0
  -16.9073  -12.8351    0.0000 C   0  0  0  0  0  0  0  0  0  0  0  0
  -17.3943  -14.2538    0.0000 C   0  0  0  0  0  0  0  0  0  0  0  0
  -17.7626  -15.7079    0.0000 C   0  0  0  0  0  0  0  0  0  0  0  0
  -18.0095  -17.1875    0.0000 C   0  0  0  0  0  0  0  0  0  0  0  0
  -18.1333  -18.6824    0.0000 C   0  0  0  0  0  0  0  0  0  0  0  0
  -18.1333  -20.1824    0.0000 C   0  0  0  0  0  0  0  0  0  0  0  0
  -18.0095  -21.6772    0.0000 C   0  0  0  0  0  0  0  0  0  0  0  0
  -17.7626  -23.1568    0.0000 C   0  0  0  0  0  0  0  0  0  0  0  0
  -17.3943  -24.6109    0.0000 C   0  0  0  0  0  0  0  0  0  0  0  0
  -16.9073  -26.0296    0.0000 C   0  0  0  0  0  0  0  0  0  0  0  0
  -16.3047  -27.4033    0.0000 C   0  0  0  0  0  0  0  0  0  0  0  0
  -15.5908  -28.7225    0.0000 C   0  0  0  0  0  0  0  0  0  0  0  0
  -14.7704  -29.9782    0.0000 C   0  0  0  0  0  0  0  0  0  0  0  0
  -13.8491  -31.1619    0.0000 C   0  0  0  0  0  0  0  0  0  0  0  0
  -12.8332  -32.2655    0.0000 C   0  0  0  0  0  0  0  0  0  0  0  0
  -11.7296  -33.2815    0.0000 C   0  0  0  0  0  0  0  0  0  0  0  0
  -10.5459  -34.2028    0.0000 C   0  0  0  0  0  0  0  0  0  0  0  0
   -9.2901  -35.0232    0.0000 C   0  0  0  0  0  0  0  0  0  0  0  0
   -7.9709  -35.7371    0.0000 C   0  0  0  0  0  0  0  0  0  0  0  0
   -6.5972  -36.3397    0.0000 C   0  0  0  0  0  0  0  0  0  0  0  0
   -5.1785  -36.8267    0.0000 C   0  0  0  0  0  0  0  0  0  0  0  0
   -3.7244  -37.1949    0.0000 C   0  0  0  0  0  0  0  0  0  0  0  0
   -2.2449  -37.4418    0.0000 C   0  0  0  0  0  0  0  0  0  0  0  0
   -0.7500  -37.5657    0.0000 C   0  0  0  0  0  0  0  0  0  0  0  0
    0.7500  -37.5657    0.0000 C   0  0  0  0  0  0  0  0  0  0  0  0
    2.2449  -37.4418    0.0000 C   0  0  0  0  0  0  0  0  0  0  0  0
    3.7244  -37.1949    0.0000 C   0  0  0  0  0  0  0  0  0  0  0  0
    5.1785  -36.8267    0.0000 C   0  0  0  0  0  0  0  0  0  0  0  0
    6.5972  -36.3397    0.0000 C   0  0  0  0  0  0  0  0  0  0  0  0
    7.9709  -35.7371    0.0000 C   0  0  0  0  0  0  0  0  0  0  0  0
    9.2901  -35.0232    0.0000 C   0  0  0  0  0  0  0  0  0  0  0  0
   10.5459  -34.2028    0.0000 C   0  0  0  0  0  0  0  0  0  0  0  0
   11.7296  -33.2815    0.0000 C   0  0  0  0  0  0  0  0  0  0  0  0
   12.8332  -32.2655    0.0000 C   0  0  0  0  0  0  0  0  0  0  0  0
   13.8491  -31.1619    0.0000 C   0  0  0  0  0  0  0  0  0  0  0  0
   14.7704  -29.9782    0.0000 C   0  0  0  0  0  0  0  0  0  0  0  0
   15.5908  -28.7225    0.0000 C   0  0  0  0  0  0  0  0  0  0  0  0
   16.3047  -27.4033    0.0000 C   0  0  0  0  0  0  0  0  0  0  0  0
   16.9073  -26.0296    0.0000 C   0  0  0  0  0  0  0  0  0  0  0  0
   17.3943  -24.6109    0.0000 C   0  0  0  0  0  0  0  0  0  0  0  0
   17.7626  -23.1568    0.0000 C   0  0  0  0  0  0  0  0  0  0  0  0
   18.0095  -21.6772    0.0000 C   0  0  0  0  0  0  0  0  0  0  0  0
   18.1333  -20.1824    0.0000 C   0  0  0  0  0  0  0  0  0  0  0  0
   18.1333  -18.6824    0.0000 C   0  0  0  0  0  0  0  0  0  0  0  0
   18.0095  -17.1875    0.0000 C   0  0  0  0  0  0  0  0  0  0  0  0
   17.7626  -15.7079    0.0000 C   0  0  0  0  0  0  0  0  0  0  0  0
   17.3943  -14.2538    0.0000 C   0  0  0  0  0  0  0  0  0  0  0  0
   16.9073  -12.8351    0.0000 C   0  0  0  0  0  0  0  0  0  0  0  0
   16.3047  -11.4615    0.0000 C   0  0  0  0  0  0  0  0  0  0  0  0
   15.5908  -10.1423    0.0000 C   0  0  0  0  0  0  0  0  0  0  0  0
   14.7704   -8.8865    0.0000 C   0  0  0  0  0  0  0  0  0  0  0  0
   13.8491   -7.7028    0.0000 C   0  0  0  0  0  0  0  0  0  0  0  0
   12.8332   -6.5992    0.0000 C   0  0  0  0  0  0  0  0  0  0  0  0
   11.7296   -5.5833    0.0000 C   0  0  0  0  0  0  0  0  0  0  0  0
   10.5459   -4.6620    0.0000 C   0  0  0  0  0  0  0  0  0  0  0  0
    9.2901   -3.8415    0.0000 C   0  0  0  0  0  0  0  0  0  0  0  0
    7.9709   -3.1276    0.0000 C   0  0  0  0  0  0  0  0  0  0  0  0
    6.5972   -2.5251    0.0000 C   0  0  0  0  0  0  0  0  0  0  0  0
    5.1785   -2.0380    0.0000 C   0  0  0  0  0  0  0  0  0  0  0  0
    3.7244   -1.6698    0.0000 C   0  0  0  0  0  0  0  0  0  0  0  0
    3.9468   -3.1532    0.0000 C   0  0  0  0  0  0  0  0  0  0  0  0
    2.6047   -3.8231    0.0000 C   0  0  0  0  0  0  0  0  0  0  0  0
    1.5529   -2.7537    0.0000 C   0  0  0  0  0  0  0  0  0  0  0  0
    2.2449   -1.4229    0.0000 C   0  0  0  0  0  0  0  0  0  0  0  0
    0.7500   -1.2990    0.0000 C   0  0  0  0  0  0  0  0  0  0  0  0
    1.5000    0.0000    0.0000 C   0  0  0  0  0  0  0  0  0  0  0  0
    0.7500    1.2990    0.0000 C   0  0  0  0  0  0  0  0  0  0  0  0
   -0.7500    1.2990    0.0000 C   0  0  0  0  0  0  0  0  0  0  0  0
   -1.5000    0.0000    0.0000 C   0  0  0  0  0  0  0  0  0  0  0  0
   -0.7500   -1.2990    0.0000 C   0  0  0  0  0  0  0  0  0  0  0  0
  1  2  1  0
  2  3  1  0
  3  4  1  0
  4  5  1  0
  5  6  1  0
  6  7  1  0
  7  8  1  0
  8  9  1  0
  9 10  1  0
 10 11  1  0
 11 12  1  0
 12 13  1  0
 13 14  1  0
 14 15  1  0
 15 16  1  0
 16 17  1  0
 17 18  1  0
 18 19  1  0
 19 20  2  0
 20 21  1  0
 21 22  2  0
 22 23  1  0
 23 24  2  0
 24 25  1  0
 25 26  2  0
 26 27  1  0
 27 28  2  0
 28 29  1  0
 29 30  2  0
 30 31  1  0
 31 32  2  0
 32 33  1  0
 33 34  2  0
 34 35  1  0
 35 36  2  0
 36 37  1  0
 37 38  2  0
 38 39  1  0
 39 40  2  0
 40 41  1  0
 41 42  2  0
 42 43  1  0
 43 44  2  0
 44 45  1  0
 45 46  2  0
 46 47  1  0
 47 48  2  0
 48 49  1  0
 49 50  2  0
 50 51  1  0
 51 52  2  0
 52 53  1  0
 53 54  2  0
 54 55  1  0
 55 56  2  0
 56 57  1  0
 57 58  2  0
 58 59  1  0
 59 60  2  0
 60 61  1  0
 61 62  2  0
 62 63  1  0
 63 64  2  0
 64 65  1  0
 65 66  2  0
 66 67  1  0
 67 68  2  0
 68 69  1  0
 69 70  2  0
 70 71  1  0
 71 72  2  0
 72 73  1  0
 73 74  2  0
 74 75  1  0
 75 76  2  0
 76 77  1  0
 77 78  2  0
 78 79  1  0
 79 80  2  0
 80 81  1  0
 81 82  2  0
 82 83  1  0
 83 84  2  0
 84  2  1  0
 78 74  1  0
 84 79  1  0
M  END
>  <Title>  (90) 
idAABNgen13

$$$$

     RDKit          2D

 14 15  0  0  0  0  0  0  0  0999 V2000
   -6.8298   -5.2046    0.0000 C   0  0  0  0  0  0  0  0  0  0  0  0
   -5.7691   -4.1439    0.0000 C   0  0  0  0  0  0  0  0  0  0  0  0
   -4.3202   -4.5321    0.0000 C   0  0  0  0  0  0  0  0  0  0  0  0
   -3.2595   -3.4715    0.0000 C   0  0  0  0  0  0  0  0  0  0  0  0
   -1.8107   -3.8597    0.0000 C   0  0  0  0  0  0  0  0  0  0  0  0
   -1.4224   -5.3086    0.0000 O   0  0  0  0  0  0  0  0  0  0  0  0
   -0.7500   -2.7990    0.0000 N   0  0  0  0  0  0  0  0  0  0  0  0
    0.7500   -2.7990    0.0000 C   0  0  0  0  0  0  0  0  0  0  0  0
    0.7500   -1.2990    0.0000 C   0  0  0  0  0  0  0  0  0  0  0  0
    1.5000    0.0000    0.0000 C   0  0  0  0  0  0  0  0  0  0  0  0
    0.7500    1.2990    0.0000 C   0  0  0  0  0  0  0  0  0  0  0  0
   -0.7500    1.2990    0.0000 C   0  0  0  0  0  0  0  0  0  0  0  0
   -1.5000    0.0000    0.0000 C   0  0  0  0  0  0  0  0  0  0  0  0
   -0.7500   -1.2990    0.0000 C   0  0  0  0  0  0  0  0  0  0  0  0
  1  2  2  0
  2  3  1  0
  3  4  1  0
  4  5  1  0
  5  6  2  0
  5  7  1  0
  7  8  1  0
  8  9  1  0
  9 10  2  0
 10 11  1  0
 11 12  2  0
 12 13  1  0
 13 14  2  0
 14  7  1  0
 14  9  1  0
M  END
>  <Title>  (91) 
idAABOgen13

$$$$

     RDKit          2D

  8  7  0  0  0  0  0  0  0  0999 V2000
    0.0000    0.0000    0.0000 C   0  0  0  0  0  0  0  0  0  0  0  0
   -0.0000   -1.5000    0.0000 C   0  0  0  0  0  0  0  0  0  0  0  0
   -0.0000   -3.0000    0.0000 C   0  0  0  0  0  0  0  0  0  0  0  0
   -0.0000   -4.5000    0.0000 C   0  0  0  0  0  0  0  0  0  0  0  0
   -0.0000   -6.0000    0.0000 C   0  0  0  0  0  0  0  0  0  0  0  0
    1.2990   -6.7500    0.0000 C   0  0  0  0  0  0  0  0  0  0  0  0
    1.2990   -8.2500    0.0000 C   0  0  0  0  0  0  0  0  0  0  0  0
    1.2990   -9.7500    0.0000 C   0  0  0  0  0  0  0  0  0  0  0  0
  1  2  3  0
  2  3  1  0
  3  4  3  0
  4  5  1  0
  5  6  2  3
  6  7  1  0
  7  8  3  0
M  END
>  <Title>  (92) 
idAABPgen13

$$$$

     RDKit          2D

 22 24  0  0  0  0  0  0  0  0999 V2000
    9.0696  -12.0048    0.0000 C   0  0  0  0  0  0  0  0  0  0  0  0
    8.6814  -10.5559    0.0000 C   0  0  0  0  0  0  0  0  0  0  0  0
    7.2325  -10.1677    0.0000 C   0  0  0  0  0  0  0  0  0  0  0  0
    6.8443   -8.7188    0.0000 C   0  0  0  0  0  0  0  0  0  0  0  0
    5.3954   -8.3306    0.0000 C   0  0  0  0  0  0  0  0  0  0  0  0
    4.3347   -9.3912    0.0000 O   0  0  0  0  0  0  0  0  0  0  0  0
    5.0071   -6.8817    0.0000 N   0  0  0  0  0  0  0  0  0  0  0  0
    3.5583   -6.4934    0.0000 N   0  0  0  0  0  0  0  0  0  0  0  0
    2.2592   -7.2434    0.0000 C   0  0  0  0  0  0  0  0  0  0  0  0
    1.5092   -5.9444    0.0000 C   0  0  0  0  0  0  0  0  0  0  0  0
    0.7592   -4.6454    0.0000 O   0  0  0  0  0  0  0  0  0  0  0  0
    2.0583   -3.8954    0.0000 C   0  0  0  0  0  0  0  0  0  0  0  0
    2.4465   -2.4465    0.0000 C   0  0  0  0  0  0  0  0  0  0  0  0
    1.3858   -1.3858    0.0000 C   0  0  0  0  0  0  0  0  0  0  0  0
    1.9598    0.0000    0.0000 C   0  0  0  0  0  0  0  0  0  0  0  0
    1.3858    1.3858    0.0000 C   0  0  0  0  0  0  0  0  0  0  0  0
    0.0000    1.9598    0.0000 C   0  0  0  0  0  0  0  0  0  0  0  0
   -1.3858    1.3858    0.0000 C   0  0  0  0  0  0  0  0  0  0  0  0
   -1.9598    0.0000    0.0000 C   0  0  0  0  0  0  0  0  0  0  0  0
   -1.3858   -1.3858    0.0000 C   0  0  0  0  0  0  0  0  0  0  0  0
   -0.0000   -1.9598    0.0000 C   0  0  0  0  0  0  0  0  0  0  0  0
    2.8083   -5.1944    0.0000 C   0  0  0  0  0  0  0  0  0  0  0  0
  1  2  2  0
  2  3  1  0
  3  4  1  0
  4  5  1  0
  5  6  2  0
  5  7  1  0
  7  8  1  0
  8  9  1  0
  9 10  1  0
 10 11  1  0
 11 12  1  0
 12 13  1  0
 13 14  1  0
 14 15  1  0
 15 16  1  0
 16 17  2  0
 17 18  1  0
 18 19  2  0
 19 20  1  0
 20 21  1  0
 12 22  1  0
 22  8  1  0
 22 10  1  0
 21 14  1  0
M  END
>  <Title>  (93) 
idAABQgen13

$$$$

     RDKit          2D

 11 11  0  0  0  0  0  0  0  0999 V2000
    7.2760   -2.5981    0.0000 C   0  0  0  0  0  0  0  0  0  0  0  0
    5.7760   -2.5981    0.0000 C   0  0  0  0  0  0  0  0  0  0  0  0
    5.0260   -1.2990    0.0000 C   0  0  0  0  0  0  0  0  0  0  0  0
    3.5260   -1.2990    0.0000 C   0  0  0  0  0  0  0  0  0  0  0  0
    2.7760    0.0000    0.0000 C   0  0  0  0  0  0  0  0  0  0  0  0
    3.5260    1.2990    0.0000 O   0  0  0  0  0  0  0  0  0  0  0  0
    1.2760    0.0000    0.0000 N   0  0  0  0  0  0  0  0  0  0  0  0
    0.3943    1.2135    0.0000 C   0  0  0  0  0  0  0  0  0  0  0  0
   -1.0323    0.7500    0.0000 C   0  0  0  0  0  0  0  0  0  0  0  0
   -1.0323   -0.7500    0.0000 C   0  0  0  0  0  0  0  0  0  0  0  0
    0.3943   -1.2135    0.0000 C   0  0  0  0  0  0  0  0  0  0  0  0
  1  2  2  0
  2  3  1  0
  3  4  1  0
  4  5  1  0
  5  6  2  0
  5  7  1  0
  7  8  1  0
  8  9  2  0
  9 10  1  0
 10 11  1  0
 11  7  1  0
M  END
>  <Title>  (94) 
idAABRgen13

$$$$

     RDKit          2D

  5  4  0  0  0  0  0  0  0  0999 V2000
    0.0000    0.0000    0.0000 C   0  0  0  0  0  0  0  0  0  0  0  0
    1.2990    0.7500    0.0000 C   0  0  0  0  0  0  0  0  0  0  0  0
    2.5981   -0.0000    0.0000 C   0  0  0  0  0  0  0  0  0  0  0  0
    1.2990    2.2500    0.0000 O   0  0  0  0  0  0  0  0  0  0  0  0
    2.5981    3.0000    0.0000 O   0  0  0  0  0  0  0  0  0  0  0  0
  1  2  1  0
  2  3  1  0
  2  4  1  0
  4  5  1  0
M  END
>  <Title>  (95) 
idAABSgen13

$$$$

     RDKit          2D

 33 37  0  0  0  0  0  0  0  0999 V2000
   -3.0000   -2.5981    0.0000 C   0  0  0  0  0  0  0  0  0  0  0  0
   -1.5000   -2.5981    0.0000 C   0  0  0  0  0  0  0  0  0  0  0  0
   -0.7500   -3.8971    0.0000 C   0  0  0  0  0  0  0  0  0  0  0  0
    0.7500   -3.8971    0.0000 C   0  0  0  0  0  0  0  0  0  0  0  0
    1.5000   -2.5981    0.0000 C   0  0  0  0  0  0  0  0  0  0  0  0
    3.0000   -2.5981    0.0000 C   0  0  0  0  0  0  0  0  0  0  0  0
    3.6508   -1.2466    0.0000 C   0  0  0  0  0  0  0  0  0  0  0  0
    5.1132   -0.9128    0.0000 C   0  0  0  0  0  0  0  0  0  0  0  0
    6.2860   -1.8481    0.0000 N   0  0  0  0  0  0  0  0  0  0  0  0
    6.2860   -3.3481    0.0000 N   0  0  0  0  0  0  0  0  0  0  0  0
    5.1132   -4.2833    0.0000 N   0  0  0  0  0  0  0  0  0  0  0  0
    3.6508   -3.9495    0.0000 N   0  0  0  0  0  0  0  0  0  0  0  0
    2.7156   -5.1223    0.0000 C   0  0  0  0  0  0  0  0  0  0  0  0
    1.2171   -5.0550    0.0000 C   0  0  0  0  0  0  0  0  0  0  0  0
    0.6900   -6.4593    0.0000 C   0  0  0  0  0  0  0  0  0  0  0  0
    1.8628   -7.3946    0.0000 C   0  0  0  0  0  0  0  0  0  0  0  0
    1.7955   -8.8931    0.0000 C   0  0  0  0  0  0  0  0  0  0  0  0
    3.0596   -9.7006    0.0000 O   0  0  0  0  0  0  0  0  0  0  0  0
    0.4641   -9.5840    0.0000 N   0  0  0  0  0  0  0  0  0  0  0  0
    0.3968  -11.0825    0.0000 C   0  0  0  0  0  0  0  0  0  0  0  0
    1.6609  -11.8900    0.0000 N   0  0  0  0  0  0  0  0  0  0  0  0
    1.5936  -13.3885    0.0000 N   0  0  0  0  0  0  0  0  0  0  0  0
    0.2622  -14.0795    0.0000 N   0  0  0  0  0  0  0  0  0  0  0  0
   -1.0019  -13.2720    0.0000 N   0  0  0  0  0  0  0  0  0  0  0  0
   -0.9346  -11.7735    0.0000 N   0  0  0  0  0  0  0  0  0  0  0  0
    3.1146   -6.5682    0.0000 C   0  0  0  0  0  0  0  0  0  0  0  0
    4.5190   -7.0953    0.0000 O   0  0  0  0  0  0  0  0  0  0  0  0
    0.7500   -1.2990    0.0000 C   0  0  0  0  0  0  0  0  0  0  0  0
    1.5000    0.0000    0.0000 C   0  0  0  0  0  0  0  0  0  0  0  0
    0.7500    1.2990    0.0000 C   0  0  0  0  0  0  0  0  0  0  0  0
   -0.7500    1.2990    0.0000 C   0  0  0  0  0  0  0  0  0  0  0  0
   -1.5000    0.0000    0.0000 C   0  0  0  0  0  0  0  0  0  0  0  0
   -0.7500   -1.2990    0.0000 C   0  0  0  0  0  0  0  0  0  0  0  0
  1  2  1  0
  2  3  2  0
  3  4  1  0
  4  5  2  0
  5  6  1  0
  6  7  2  0
  7  8  1  0
  8  9  2  0
  9 10  1  0
 10 11  2  0
 11 12  1  0
 12 13  1  0
 13 14  2  0
 14 15  1  0
 15 16  2  0
 16 17  1  0
 17 18  2  0
 17 19  1  0
 19 20  1  0
 20 21  2  0
 21 22  1  0
 22 23  2  0
 23 24  1  0
 24 25  2  0
 16 26  1  0
 26 27  2  0
  5 28  1  0
 28 29  2  0
 29 30  1  0
 30 31  2  0
 31 32  1  0
 32 33  2  0
 33  2  1  0
 12  6  1  0
 26 13  1  0
 33 28  1  0
 25 20  1  0
M  END
>  <Title>  (96) 
idAABTgen13

$$$$

     RDKit          2D

 63 65  0  0  0  0  0  0  0  0999 V2000
   -2.4960    0.0080    0.0000 C   0  0  0  0  0  0  0  0  0  0  0  0
   -2.2402   -1.4700    0.0000 C   0  0  0  0  0  0  0  0  0  0  0  0
   -3.7012   -1.8098    0.0000 C   0  0  0  0  0  0  0  0  0  0  0  0
   -5.1140   -2.3138    0.0000 C   0  0  0  0  0  0  0  0  0  0  0  0
   -6.4601   -2.9757    0.0000 C   0  0  0  0  0  0  0  0  0  0  0  0
   -7.7220   -3.7866    0.0000 C   0  0  0  0  0  0  0  0  0  0  0  0
   -8.8832   -4.7362    0.0000 C   0  0  0  0  0  0  0  0  0  0  0  0
   -9.9286   -5.8119    0.0000 C   0  0  0  0  0  0  0  0  0  0  0  0
  -10.8446   -6.9997    0.0000 C   0  0  0  0  0  0  0  0  0  0  0  0
  -11.6192   -8.2842    0.0000 C   0  0  0  0  0  0  0  0  0  0  0  0
  -12.2423   -9.6487    0.0000 C   0  0  0  0  0  0  0  0  0  0  0  0
  -12.7058  -11.0753    0.0000 C   0  0  0  0  0  0  0  0  0  0  0  0
  -13.0037  -12.5454    0.0000 C   0  0  0  0  0  0  0  0  0  0  0  0
  -13.1321  -14.0399    0.0000 C   0  0  0  0  0  0  0  0  0  0  0  0
  -13.0892  -15.5393    0.0000 C   0  0  0  0  0  0  0  0  0  0  0  0
  -12.8758  -17.0240    0.0000 C   0  0  0  0  0  0  0  0  0  0  0  0
  -12.4944  -18.4747    0.0000 C   0  0  0  0  0  0  0  0  0  0  0  0
  -11.9502  -19.8725    0.0000 C   0  0  0  0  0  0  0  0  0  0  0  0
  -11.2502  -21.1992    0.0000 C   0  0  0  0  0  0  0  0  0  0  0  0
  -10.4036  -22.4374    0.0000 C   0  0  0  0  0  0  0  0  0  0  0  0
   -9.4213  -23.5710    0.0000 C   0  0  0  0  0  0  0  0  0  0  0  0
   -8.3162  -24.5853    0.0000 C   0  0  0  0  0  0  0  0  0  0  0  0
   -7.1026  -25.4669    0.0000 C   0  0  0  0  0  0  0  0  0  0  0  0
   -5.7965  -26.2045    0.0000 C   0  0  0  0  0  0  0  0  0  0  0  0
   -4.4148  -26.7884    0.0000 C   0  0  0  0  0  0  0  0  0  0  0  0
   -2.9756  -27.2110    0.0000 C   0  0  0  0  0  0  0  0  0  0  0  0
   -1.4976  -27.4668    0.0000 C   0  0  0  0  0  0  0  0  0  0  0  0
    0.0000  -27.5525    0.0000 C   0  0  0  0  0  0  0  0  0  0  0  0
    1.4976  -27.4668    0.0000 C   0  0  0  0  0  0  0  0  0  0  0  0
    2.9756  -27.2110    0.0000 C   0  0  0  0  0  0  0  0  0  0  0  0
    4.4148  -26.7884    0.0000 C   0  0  0  0  0  0  0  0  0  0  0  0
    5.7965  -26.2045    0.0000 C   0  0  0  0  0  0  0  0  0  0  0  0
    7.1026  -25.4669    0.0000 C   0  0  0  0  0  0  0  0  0  0  0  0
    8.3162  -24.5853    0.0000 C   0  0  0  0  0  0  0  0  0  0  0  0
    9.4213  -23.5710    0.0000 C   0  0  0  0  0  0  0  0  0  0  0  0
   10.4036  -22.4374    0.0000 C   0  0  0  0  0  0  0  0  0  0  0  0
   11.2502  -21.1992    0.0000 C   0  0  0  0  0  0  0  0  0  0  0  0
   11.9502  -19.8725    0.0000 C   0  0  0  0  0  0  0  0  0  0  0  0
   12.4944  -18.4747    0.0000 C   0  0  0  0  0  0  0  0  0  0  0  0
   12.8758  -17.0240    0.0000 C   0  0  0  0  0  0  0  0  0  0  0  0
   13.0892  -15.5393    0.0000 C   0  0  0  0  0  0  0  0  0  0  0  0
   13.1321  -14.0399    0.0000 C   0  0  0  0  0  0  0  0  0  0  0  0
   13.0037  -12.5454    0.0000 C   0  0  0  0  0  0  0  0  0  0  0  0
   12.7058  -11.0753    0.0000 C   0  0  0  0  0  0  0  0  0  0  0  0
   12.2423   -9.6487    0.0000 C   0  0  0  0  0  0  0  0  0  0  0  0
   11.6192   -8.2842    0.0000 C   0  0  0  0  0  0  0  0  0  0  0  0
   10.8446   -6.9997    0.0000 C   0  0  0  0  0  0  0  0  0  0  0  0
    9.9286   -5.8119    0.0000 C   0  0  0  0  0  0  0  0  0  0  0  0
    8.8832   -4.7362    0.0000 C   0  0  0  0  0  0  0  0  0  0  0  0
    7.7220   -3.7866    0.0000 C   0  0  0  0  0  0  0  0  0  0  0  0
    6.4601   -2.9757    0.0000 C   0  0  0  0  0  0  0  0  0  0  0  0
    5.1140   -2.3138    0.0000 C   0  0  0  0  0  0  0  0  0  0  0  0
    3.7012   -1.8098    0.0000 C   0  0  0  0  0  0  0  0  0  0  0  0
    3.8296   -3.3043    0.0000 C   0  0  0  0  0  0  0  0  0  0  0  0
    2.4479   -3.8882    0.0000 C   0  0  0  0  0  0  0  0  0  0  0  0
    1.4656   -2.7545    0.0000 C   0  0  0  0  0  0  0  0  0  0  0  0
    2.2402   -1.4700    0.0000 C   0  0  0  0  0  0  0  0  0  0  0  0
    0.7500   -1.2990    0.0000 C   0  0  0  0  0  0  0  0  0  0  0  0
    1.5000    0.0000    0.0000 C   0  0  0  0  0  0  0  0  0  0  0  0
    0.7500    1.2990    0.0000 C   0  0  0  0  0  0  0  0  0  0  0  0
   -0.7500    1.2990    0.0000 C   0  0  0  0  0  0  0  0  0  0  0  0
   -1.5000    0.0000    0.0000 C   0  0  0  0  0  0  0  0  0  0  0  0
   -0.7500   -1.2990    0.0000 C   0  0  0  0  0  0  0  0  0  0  0  0
  1  2  1  0
  2  3  1  0
  3  4  1  0
  4  5  1  0
  5  6  1  0
  6  7  1  0
  7  8  1  0
  8  9  1  0
  9 10  1  0
 10 11  1  0
 11 12  1  0
 12 13  1  0
 13 14  1  0
 14 15  1  0
 15 16  1  0
 16 17  1  0
 17 18  1  0
 18 19  1  0
 19 20  1  0
 20 21  1  0
 21 22  1  0
 22 23  1  0
 23 24  1  0
 24 25  1  0
 25 26  1  0
 26 27  1  0
 27 28  1  0
 28 29  1  0
 29 30  1  0
 30 31  1  0
 31 32  1  0
 32 33  1  0
 33 34  1  0
 34 35  1  0
 35 36  1  0
 36 37  1  0
 37 38  1  0
 38 39  1  0
 39 40  1  0
 40 41  1  0
 41 42  1  0
 42 43  1  0
 43 44  1  0
 44 45  1  0
 45 46  1  0
 46 47  1  0
 47 48  1  0
 48 49  1  0
 49 50  1  0
 50 51  1  0
 51 52  1  0
 52 53  1  0
 53 54  1  0
 54 55  2  0
 55 56  1  0
 56 57  2  0
 57 58  1  0
 58 59  2  0
 59 60  1  0
 60 61  2  0
 61 62  1  0
 62 63  2  0
 63  2  1  0
 57 53  1  0
 63 58  1  0
M  END
>  <Title>  (97) 
idAABUgen13

$$$$

     RDKit          2D

  5  4  0  0  0  0  0  0  0  0999 V2000
    0.0000    0.0000    0.0000 C   0  0  0  0  0  0  0  0  0  0  0  0
    1.2990    0.7500    0.0000 C   0  0  0  0  0  0  0  0  0  0  0  0
    2.5981   -0.0000    0.0000 C   0  0  0  0  0  0  0  0  0  0  0  0
    3.8971    0.7500    0.0000 C   0  0  0  0  0  0  0  0  0  0  0  0
    5.1962   -0.0000    0.0000 C   0  0  0  0  0  0  0  0  0  0  0  0
  1  2  2  0
  2  3  1  0
  3  4  1  0
  4  5  1  0
M  END
>  <Title>  (98) 
idAABVgen13

$$$$

     RDKit          2D

  9  9  0  0  0  0  0  0  0  0999 V2000
    7.2760   -0.0000    0.0000 C   0  0  0  0  0  0  0  0  0  0  0  0
    5.7760   -0.0000    0.0000 C   0  0  0  0  0  0  0  0  0  0  0  0
    4.2760   -0.0000    0.0000 C   0  0  0  0  0  0  0  0  0  0  0  0
    2.7760    0.0000    0.0000 C   0  0  0  0  0  0  0  0  0  0  0  0
    1.2760    0.0000    0.0000 C   0  0  0  0  0  0  0  0  0  0  0  0
    0.3943    1.2135    0.0000 C   0  0  0  0  0  0  0  0  0  0  0  0
   -1.0323    0.7500    0.0000 C   0  0  0  0  0  0  0  0  0  0  0  0
   -1.0323   -0.7500    0.0000 C   0  0  0  0  0  0  0  0  0  0  0  0
    0.3943   -1.2135    0.0000 N   0  0  0  0  0  0  0  0  0  0  0  0
  1  2  3  0
  2  3  1  0
  3  4  3  0
  4  5  1  0
  5  6  2  0
  6  7  1  0
  7  8  2  0
  8  9  1  0
  9  5  1  0
M  END
>  <Title>  (99) 
idAABWgen13

$$$$

     RDKit          2D

 71 72  0  0  0  0  0  0  0  0999 V2000
   -2.2371   -1.0554    0.0000 C   0  0  0  0  0  0  0  0  0  0  0  0
   -2.4960    0.4221    0.0000 C   0  0  0  0  0  0  0  0  0  0  0  0
   -3.9840    0.2327    0.0000 C   0  0  0  0  0  0  0  0  0  0  0  0
   -5.4832    0.1835    0.0000 C   0  0  0  0  0  0  0  0  0  0  0  0
   -6.9804    0.2749    0.0000 C   0  0  0  0  0  0  0  0  0  0  0  0
   -8.4625    0.5060    0.0000 C   0  0  0  0  0  0  0  0  0  0  0  0
   -9.9164    0.8750    0.0000 C   0  0  0  0  0  0  0  0  0  0  0  0
  -11.3294    1.3785    0.0000 C   0  0  0  0  0  0  0  0  0  0  0  0
  -12.6890    2.0120    0.0000 C   0  0  0  0  0  0  0  0  0  0  0  0
  -13.9833    2.7701    0.0000 C   0  0  0  0  0  0  0  0  0  0  0  0
  -15.2010    3.6461    0.0000 C   0  0  0  0  0  0  0  0  0  0  0  0
  -16.3313    4.6323    0.0000 C   0  0  0  0  0  0  0  0  0  0  0  0
  -17.3642    5.7199    0.0000 C   0  0  0  0  0  0  0  0  0  0  0  0
  -18.2908    6.8995    0.0000 C   0  0  0  0  0  0  0  0  0  0  0  0
  -19.1028    8.1607    0.0000 C   0  0  0  0  0  0  0  0  0  0  0  0
  -19.7932    9.4924    0.0000 C   0  0  0  0  0  0  0  0  0  0  0  0
  -20.3558   10.8829    0.0000 C   0  0  0  0  0  0  0  0  0  0  0  0
  -20.7858   12.3199    0.0000 C   0  0  0  0  0  0  0  0  0  0  0  0
  -21.0793   13.7909    0.0000 C   0  0  0  0  0  0  0  0  0  0  0  0
  -21.2337   15.2830    0.0000 C   0  0  0  0  0  0  0  0  0  0  0  0
  -21.2478   16.7829    0.0000 C   0  0  0  0  0  0  0  0  0  0  0  0
  -21.1213   18.2776    0.0000 C   0  0  0  0  0  0  0  0  0  0  0  0
  -20.8555   19.7538    0.0000 C   0  0  0  0  0  0  0  0  0  0  0  0
  -20.4526   21.1987    0.0000 C   0  0  0  0  0  0  0  0  0  0  0  0
  -19.9161   22.5995    0.0000 C   0  0  0  0  0  0  0  0  0  0  0  0
  -19.2508   23.9439    0.0000 C   0  0  0  0  0  0  0  0  0  0  0  0
  -18.4626   25.2201    0.0000 C   0  0  0  0  0  0  0  0  0  0  0  0
  -17.5583   26.4169    0.0000 C   0  0  0  0  0  0  0  0  0  0  0  0
  -16.5459   27.5237    0.0000 C   0  0  0  0  0  0  0  0  0  0  0  0
  -15.4344   28.5309    0.0000 C   0  0  0  0  0  0  0  0  0  0  0  0
  -14.2334   29.4295    0.0000 C   0  0  0  0  0  0  0  0  0  0  0  0
  -12.9535   30.2118    0.0000 C   0  0  0  0  0  0  0  0  0  0  0  0
  -11.6060   30.8707    0.0000 C   0  0  0  0  0  0  0  0  0  0  0  0
  -10.2027   31.4006    0.0000 C   0  0  0  0  0  0  0  0  0  0  0  0
   -8.7559   31.7968    0.0000 C   0  0  0  0  0  0  0  0  0  0  0  0
   -7.2785   32.0557    0.0000 C   0  0  0  0  0  0  0  0  0  0  0  0
   -5.7832   32.1751    0.0000 C   0  0  0  0  0  0  0  0  0  0  0  0
   -4.2834   32.1540    0.0000 C   0  0  0  0  0  0  0  0  0  0  0  0
   -2.7921   31.9926    0.0000 C   0  0  0  0  0  0  0  0  0  0  0  0
   -1.3225   31.6922    0.0000 C   0  0  0  0  0  0  0  0  0  0  0  0
    0.1126   31.2555    0.0000 C   0  0  0  0  0  0  0  0  0  0  0  0
    1.5004   30.6864    0.0000 C   0  0  0  0  0  0  0  0  0  0  0  0
    2.8288   29.9898    0.0000 C   0  0  0  0  0  0  0  0  0  0  0  0
    4.0862   29.1718    0.0000 C   0  0  0  0  0  0  0  0  0  0  0  0
    5.2614   28.2397    0.0000 C   0  0  0  0  0  0  0  0  0  0  0  0
    6.3442   27.2017    0.0000 C   0  0  0  0  0  0  0  0  0  0  0  0
    7.3251   26.0668    0.0000 C   0  0  0  0  0  0  0  0  0  0  0  0
    8.1953   24.8451    0.0000 C   0  0  0  0  0  0  0  0  0  0  0  0
    8.9474   23.5472    0.0000 C   0  0  0  0  0  0  0  0  0  0  0  0
    9.5746   22.1846    0.0000 C   0  0  0  0  0  0  0  0  0  0  0  0
   10.0714   20.7693    0.0000 C   0  0  0  0  0  0  0  0  0  0  0  0
   10.4335   19.3137    0.0000 C   0  0  0  0  0  0  0  0  0  0  0  0
   10.6578   17.8305    0.0000 C   0  0  0  0  0  0  0  0  0  0  0  0
   10.7421   16.3329    0.0000 C   0  0  0  0  0  0  0  0  0  0  0  0
   10.6859   14.8339    0.0000 C   0  0  0  0  0  0  0  0  0  0  0  0
   10.4895   13.3468    0.0000 C   0  0  0  0  0  0  0  0  0  0  0  0
   10.1547   11.8847    0.0000 C   0  0  0  0  0  0  0  0  0  0  0  0
    9.6845   10.4603    0.0000 C   0  0  0  0  0  0  0  0  0  0  0  0
    9.0830    9.0862    0.0000 C   0  0  0  0  0  0  0  0  0  0  0  0
    8.3554    7.7744    0.0000 C   0  0  0  0  0  0  0  0  0  0  0  0
    7.5082    6.5366    0.0000 C   0  0  0  0  0  0  0  0  0  0  0  0
    6.5489    5.3835    0.0000 C   0  0  0  0  0  0  0  0  0  0  0  0
    5.4857    4.3253    0.0000 C   0  0  0  0  0  0  0  0  0  0  0  0
    4.3282    3.3714    0.0000 C   0  0  0  0  0  0  0  0  0  0  0  0
    3.0863    2.5300    0.0000 C   0  0  0  0  0  0  0  0  0  0  0  0
    1.7712    1.8086    0.0000 C   0  0  0  0  0  0  0  0  0  0  0  0
    0.3943    1.2135    0.0000 C   0  0  0  0  0  0  0  0  0  0  0  0
    1.2760    0.0000    0.0000 C   0  0  0  0  0  0  0  0  0  0  0  0
    0.3943   -1.2135    0.0000 C   0  0  0  0  0  0  0  0  0  0  0  0
   -1.0323   -0.7500    0.0000 C   0  0  0  0  0  0  0  0  0  0  0  0
   -1.0323    0.7500    0.0000 C   0  0  0  0  0  0  0  0  0  0  0  0
  1  2  1  0
  2  3  1  0
  3  4  1  0
  4  5  1  0
  5  6  1  0
  6  7  1  0
  7  8  1  0
  8  9  1  0
  9 10  1  0
 10 11  1  0
 11 12  1  0
 12 13  1  0
 13 14  1  0
 14 15  1  0
 15 16  1  0
 16 17  1  0
 17 18  1  0
 18 19  1  0
 19 20  1  0
 20 21  1  0
 21 22  1  0
 22 23  1  0
 23 24  1  0
 24 25  1  0
 25 26  1  0
 26 27  1  0
 27 28  1  0
 28 29  1  0
 29 30  1  0
 30 31  1  0
 31 32  1  0
 32 33  1  0
 33 34  1  0
 34 35  1  0
 35 36  1  0
 36 37  1  0
 37 38  1  0
 38 39  1  0
 39 40  1  0
 40 41  1  0
 41 42  1  0
 42 43  1  0
 43 44  1  0
 44 45  1  0
 45 46  1  0
 46 47  1  0
 47 48  1  0
 48 49  1  0
 49 50  1  0
 50 51  1  0
 51 52  1  0
 52 53  1  0
 53 54  1  0
 54 55  1  0
 55 56  1  0
 56 57  1  0
 57 58  1  0
 58 59  1  0
 59 60  1  0
 60 61  1  0
 61 62  1  0
 62 63  2  0
 63 64  1  0
 64 65  2  0
 65 66  1  0
 66 67  2  0
 67 68  1  0
 68 69  2  0
 69 70  1  0
 70 71  2  0
 71  2  1  0
 71 67  1  0
M  END
>  <Title>  (100) 
idAABXgen13

$$$$

     RDKit          2D

 35 39  0  0  0  0  0  0  0  0999 V2000
   -3.1476   -2.1380    0.0000 C   0  0  0  0  0  0  0  0  0  0  0  0
   -1.6852   -2.4718    0.0000 C   0  0  0  0  0  0  0  0  0  0  0  0
   -1.3515   -3.9342    0.0000 C   0  0  0  0  0  0  0  0  0  0  0  0
   -0.0000   -4.5850    0.0000 C   0  0  0  0  0  0  0  0  0  0  0  0
    1.3515   -3.9342    0.0000 C   0  0  0  0  0  0  0  0  0  0  0  0
    1.6852   -2.4718    0.0000 C   0  0  0  0  0  0  0  0  0  0  0  0
    3.1476   -2.1380    0.0000 C   0  0  0  0  0  0  0  0  0  0  0  0
    3.5898   -0.7046    0.0000 O   0  0  0  0  0  0  0  0  0  0  0  0
    4.1679   -3.2376    0.0000 N   0  0  0  0  0  0  0  0  0  0  0  0
    5.6303   -2.9038    0.0000 C   0  0  0  0  0  0  0  0  0  0  0  0
    6.2198   -1.5245    0.0000 N   0  0  0  0  0  0  0  0  0  0  0  0
    7.7138   -1.6590    0.0000 N   0  0  0  0  0  0  0  0  0  0  0  0
    8.0476   -3.1214    0.0000 N   0  0  0  0  0  0  0  0  0  0  0  0
    6.7599   -3.8907    0.0000 N   0  0  0  0  0  0  0  0  0  0  0  0
    6.6254   -5.3847    0.0000 N   0  0  0  0  0  0  0  0  0  0  0  0
    7.7550   -6.3716    0.0000 C   0  0  0  0  0  0  0  0  0  0  0  0
    7.1655   -7.7509    0.0000 C   0  0  0  0  0  0  0  0  0  0  0  0
    5.6715   -7.6164    0.0000 N   0  0  0  0  0  0  0  0  0  0  0  0
    4.6846   -8.7460    0.0000 C   0  0  0  0  0  0  0  0  0  0  0  0
    5.1694  -10.1655    0.0000 O   0  0  0  0  0  0  0  0  0  0  0  0
    3.2129   -8.4561    0.0000 N   0  0  0  0  0  0  0  0  0  0  0  0
    2.2260   -9.5857    0.0000 C   0  0  0  0  0  0  0  0  0  0  0  0
    0.7543   -9.2959    0.0000 N   0  0  0  0  0  0  0  0  0  0  0  0
   -0.2326  -10.4255    0.0000 N   0  0  0  0  0  0  0  0  0  0  0  0
    0.2522  -11.8450    0.0000 N   0  0  0  0  0  0  0  0  0  0  0  0
    1.7239  -12.1348    0.0000 N   0  0  0  0  0  0  0  0  0  0  0  0
    2.7108  -11.0052    0.0000 N   0  0  0  0  0  0  0  0  0  0  0  0
    5.3378   -6.1540    0.0000 C   0  0  0  0  0  0  0  0  0  0  0  0
    3.9585   -5.5645    0.0000 O   0  0  0  0  0  0  0  0  0  0  0  0
    0.7500   -1.2990    0.0000 C   0  0  0  0  0  0  0  0  0  0  0  0
    1.5000    0.0000    0.0000 C   0  0  0  0  0  0  0  0  0  0  0  0
    0.7500    1.2990    0.0000 C   0  0  0  0  0  0  0  0  0  0  0  0
   -0.7500    1.2990    0.0000 C   0  0  0  0  0  0  0  0  0  0  0  0
   -1.5000    0.0000    0.0000 C   0  0  0  0  0  0  0  0  0  0  0  0
   -0.7500   -1.2990    0.0000 C   0  0  0  0  0  0  0  0  0  0  0  0
  1  2  1  0
  2  3  2  0
  3  4  1  0
  4  5  1  0
  5  6  1  0
  6  7  1  0
  7  8  2  0
  7  9  1  0
  9 10  1  0
 10 11  2  0
 11 12  1  0
 12 13  2  0
 13 14  1  0
 14 15  1  0
 15 16  1  0
 16 17  1  0
 17 18  1  0
 18 19  1  0
 19 20  2  0
 19 21  1  0
 21 22  1  0
 22 23  2  0
 23 24  1  0
 24 25  2  0
 25 26  1  0
 26 27  2  0
 18 28  1  0
 28 29  2  0
  6 30  1  0
 30 31  2  0
 31 32  1  0
 32 33  2  0
 33 34  1  0
 34 35  2  0
 35  2  1  0
 14 10  1  0
 28 15  1  0
 35 30  1  0
 27 22  1  0
M  END
>  <Title>  (101) 
idAABYgen13

$$$$

     RDKit          2D

 72 71  0  0  0  0  0  0  0  0999 V2000
    0.0000    0.0000    0.0000 C   0  0  0  0  0  0  0  0  0  0  0  0
   -0.0000   -1.5000    0.0000 C   0  0  0  0  0  0  0  0  0  0  0  0
   -0.0000   -3.0000    0.0000 C   0  0  0  0  0  0  0  0  0  0  0  0
   -0.0000   -4.5000    0.0000 C   0  0  0  0  0  0  0  0  0  0  0  0
   -0.0000   -6.0000    0.0000 C   0  0  0  0  0  0  0  0  0  0  0  0
   -0.0000   -7.5000    0.0000 C   0  0  0  0  0  0  0  0  0  0  0  0
   -0.0000   -9.0000    0.0000 C   0  0  0  0  0  0  0  0  0  0  0  0
   -0.0000  -10.5000    0.0000 C   0  0  0  0  0  0  0  0  0  0  0  0
   -0.0000  -12.0000    0.0000 C   0  0  0  0  0  0  0  0  0  0  0  0
   -0.0000  -13.5000    0.0000 C   0  0  0  0  0  0  0  0  0  0  0  0
   -0.0000  -15.0000    0.0000 C   0  0  0  0  0  0  0  0  0  0  0  0
   -0.0000  -16.5000    0.0000 C   0  0  0  0  0  0  0  0  0  0  0  0
   -0.0000  -18.0000    0.0000 C   0  0  0  0  0  0  0  0  0  0  0  0
   -0.0000  -19.5000    0.0000 C   0  0  0  0  0  0  0  0  0  0  0  0
   -0.0000  -21.0000    0.0000 C   0  0  0  0  0  0  0  0  0  0  0  0
   -0.0000  -22.5000    0.0000 C   0  0  0  0  0  0  0  0  0  0  0  0
   -0.0000  -24.0000    0.0000 C   0  0  0  0  0  0  0  0  0  0  0  0
   -0.0000  -25.5000    0.0000 C   0  0  0  0  0  0  0  0  0  0  0  0
   -0.0000  -27.0000    0.0000 C   0  0  0  0  0  0  0  0  0  0  0  0
   -0.0000  -28.5000    0.0000 C   0  0  0  0  0  0  0  0  0  0  0  0
   -0.0000  -30.0000    0.0000 C   0  0  0  0  0  0  0  0  0  0  0  0
   -0.0000  -31.5000    0.0000 C   0  0  0  0  0  0  0  0  0  0  0  0
   -0.0000  -33.0000    0.0000 C   0  0  0  0  0  0  0  0  0  0  0  0
   -0.0000  -34.5000    0.0000 C   0  0  0  0  0  0  0  0  0  0  0  0
   -0.0000  -36.0000    0.0000 C   0  0  0  0  0  0  0  0  0  0  0  0
   -0.0000  -37.5000    0.0000 C   0  0  0  0  0  0  0  0  0  0  0  0
   -0.0000  -39.0000    0.0000 C   0  0  0  0  0  0  0  0  0  0  0  0
   -0.0000  -40.5000    0.0000 C   0  0  0  0  0  0  0  0  0  0  0  0
   -0.0000  -42.0000    0.0000 C   0  0  0  0  0  0  0  0  0  0  0  0
   -0.0000  -43.5000    0.0000 C   0  0  0  0  0  0  0  0  0  0  0  0
   -0.0000  -45.0000    0.0000 C   0  0  0  0  0  0  0  0  0  0  0  0
   -0.0000  -46.5000    0.0000 C   0  0  0  0  0  0  0  0  0  0  0  0
   -0.0000  -48.0000    0.0000 C   0  0  0  0  0  0  0  0  0  0  0  0
   -0.0000  -49.5000    0.0000 C   0  0  0  0  0  0  0  0  0  0  0  0
   -0.0000  -51.0000    0.0000 C   0  0  0  0  0  0  0  0  0  0  0  0
   -0.0000  -52.5000    0.0000 C   0  0  0  0  0  0  0  0  0  0  0  0
   -0.0000  -54.0000    0.0000 C   0  0  0  0  0  0  0  0  0  0  0  0
   -0.0000  -55.5000    0.0000 C   0  0  0  0  0  0  0  0  0  0  0  0
   -0.0000  -57.0000    0.0000 C   0  0  0  0  0  0  0  0  0  0  0  0
   -0.0000  -58.5000    0.0000 C   0  0  0  0  0  0  0  0  0  0  0  0
   -0.0000  -60.0000    0.0000 C   0  0  0  0  0  0  0  0  0  0  0  0
   -0.0000  -61.5000    0.0000 C   0  0  0  0  0  0  0  0  0  0  0  0
   -0.0000  -63.0000    0.0000 C   0  0  0  0  0  0  0  0  0  0  0  0
   -0.0000  -64.5000    0.0000 C   0  0  0  0  0  0  0  0  0  0  0  0
   -0.0000  -66.0000    0.0000 C   0  0  0  0  0  0  0  0  0  0  0  0
   -0.0000  -67.5000    0.0000 C   0  0  0  0  0  0  0  0  0  0  0  0
   -0.0000  -69.0000    0.0000 C   0  0  0  0  0  0  0  0  0  0  0  0
   -0.0000  -70.5000    0.0000 C   0  0  0  0  0  0  0  0  0  0  0  0
   -0.0000  -72.0000    0.0000 C   0  0  0  0  0  0  0  0  0  0  0  0
   -0.0000  -73.5000    0.0000 C   0  0  0  0  0  0  0  0  0  0  0  0
   -0.0000  -75.0000    0.0000 C   0  0  0  0  0  0  0  0  0  0  0  0
   -0.0000  -76.5000    0.0000 C   0  0  0  0  0  0  0  0  0  0  0  0
   -0.0000  -78.0000    0.0000 C   0  0  0  0  0  0  0  0  0  0  0  0
   -0.0000  -79.5000    0.0000 C   0  0  0  0  0  0  0  0  0  0  0  0
   -0.0000  -81.0000    0.0000 C   0  0  0  0  0  0  0  0  0  0  0  0
   -0.0000  -82.5000    0.0000 C   0  0  0  0  0  0  0  0  0  0  0  0
   -0.0000  -84.0000    0.0000 C   0  0  0  0  0  0  0  0  0  0  0  0
   -0.0000  -85.5000    0.0000 C   0  0  0  0  0  0  0  0  0  0  0  0
   -0.0000  -87.0000    0.0000 C   0  0  0  0  0  0  0  0  0  0  0  0
   -0.0000  -88.5000    0.0000 C   0  0  0  0  0  0  0  0  0  0  0  0
   -0.0000  -90.0000    0.0000 C   0  0  0  0  0  0  0  0  0  0  0  0
   -0.0000  -91.5000    0.0000 C   0  0  0  0  0  0  0  0  0  0  0  0
   -0.0000  -93.0000    0.0000 C   0  0  0  0  0  0  0  0  0  0  0  0
   -0.0000  -94.5000    0.0000 C   0  0  0  0  0  0  0  0  0  0  0  0
   -0.0000  -96.0000    0.0000 C   0  0  0  0  0  0  0  0  0  0  0  0
   -0.0000  -97.5000    0.0000 C   0  0  0  0  0  0  0  0  0  0  0  0
   -0.0000  -99.0000    0.0000 C   0  0  0  0  0  0  0  0  0  0  0  0
   -0.0000 -100.5000    0.0000 C   0  0  0  0  0  0  0  0  0  0  0  0
   -0.0000 -102.0000    0.0000 C   0  0  0  0  0  0  0  0  0  0  0  0
   -0.0000 -103.5000    0.0000 C   0  0  0  0  0  0  0  0  0  0  0  0
   -0.0000 -105.0000    0.0000 C   0  0  0  0  0  0  0  0  0  0  0  0
   -0.0000 -106.5000    0.0000 C   0  0  0  0  0  0  0  0  0  0  0  0
  1  2  3  0
  2  3  1  0
  3  4  3  0
  4  5  1  0
  5  6  3  0
  6  7  1  0
  7  8  3  0
  8  9  1  0
  9 10  3  0
 10 11  1  0
 11 12  3  0
 12 13  1  0
 13 14  3  0
 14 15  1  0
 15 16  3  0
 16 17  1  0
 17 18  3  0
 18 19  1  0
 19 20  3  0
 20 21  1  0
 21 22  3  0
 22 23  1  0
 23 24  3  0
 24 25  1  0
 25 26  3  0
 26 27  1  0
 27 28  3  0
 28 29  1  0
 29 30  3  0
 30 31  1  0
 31 32  3  0
 32 33  1  0
 33 34  3  0
 34 35  1  0
 35 36  3  0
 36 37  1  0
 37 38  3  0
 38 39  1  0
 39 40  3  0
 40 41  1  0
 41 42  3  0
 42 43  1  0
 43 44  3  0
 44 45  1  0
 45 46  3  0
 46 47  1  0
 47 48  3  0
 48 49  1  0
 49 50  3  0
 50 51  1  0
 51 52  3  0
 52 53  1  0
 53 54  3  0
 54 55  1  0
 55 56  3  0
 56 57  1  0
 57 58  3  0
 58 59  1  0
 59 60  3  0
 60 61  1  0
 61 62  3  0
 62 63  1  0
 63 64  3  0
 64 65  1  0
 65 66  3  0
 66 67  1  0
 67 68  3  0
 68 69  1  0
 69 70  3  0
 70 71  1  0
 71 72  3  0
M  END
>  <Title>  (102) 
idAABZgen13

$$$$

     RDKit          2D

  5  5  0  0  0  0  0  0  0  0999 V2000
    2.5607    0.0000    0.0000 C   0  0  0  0  0  0  0  0  0  0  0  0
    1.0607    0.0000    0.0000 C   0  0  0  0  0  0  0  0  0  0  0  0
   -0.0000   -1.0607    0.0000 C   0  0  0  0  0  0  0  0  0  0  0  0
   -1.0607    0.0000    0.0000 C   0  0  0  0  0  0  0  0  0  0  0  0
    0.0000    1.0607    0.0000 C   0  0  0  0  0  0  0  0  0  0  0  0
  1  2  1  0
  2  3  1  0
  3  4  2  0
  4  5  1  0
  5  2  1  0
M  END
>  <Title>  (103) 
idAACAgen13

$$$$

     RDKit          2D

  6  5  0  0  0  0  0  0  0  0999 V2000
    0.0000    0.0000    0.0000 C   0  0  0  0  0  0  0  0  0  0  0  0
    1.2990    0.7500    0.0000 C   0  0  0  0  0  0  0  0  0  0  0  0
    2.5981   -0.0000    0.0000 C   0  0  0  0  0  0  0  0  0  0  0  0
    3.8971    0.7500    0.0000 C   0  0  0  0  0  0  0  0  0  0  0  0
    5.1962   -0.0000    0.0000 C   0  0  0  0  0  0  0  0  0  0  0  0
    3.8971    2.2500    0.0000 C   0  0  0  0  0  0  0  0  0  0  0  0
  1  2  2  0
  2  3  1  0
  3  4  2  3
  4  5  1  0
  4  6  1  0
M  END
>  <Title>  (104) 
idAACBgen13

$$$$

     RDKit          2D

  9  8  0  0  0  0  0  0  0  0999 V2000
    0.0000    0.0000    0.0000 C   0  0  0  0  0  0  0  0  0  0  0  0
   -0.0000   -1.5000    0.0000 C   0  0  0  0  0  0  0  0  0  0  0  0
   -0.0000   -3.0000    0.0000 C   0  0  0  0  0  0  0  0  0  0  0  0
    1.2990   -3.7500    0.0000 C   0  0  0  0  0  0  0  0  0  0  0  0
    1.2990   -5.2500    0.0000 C   0  0  0  0  0  0  0  0  0  0  0  0
    2.5981   -6.0000    0.0000 C   0  0  0  0  0  0  0  0  0  0  0  0
    2.5981   -7.5000    0.0000 C   0  0  0  0  0  0  0  0  0  0  0  0
    3.8971   -8.2500    0.0000 C   0  0  0  0  0  0  0  0  0  0  0  0
    1.2990   -8.2500    0.0000 C   0  0  0  0  0  0  0  0  0  0  0  0
  1  2  3  0
  2  3  1  0
  3  4  1  0
  4  5  1  0
  5  6  1  0
  6  7  1  0
  7  8  1  0
  7  9  1  0
M  END
>  <Title>  (105) 
idAACCgen13

$$$$

     RDKit          2D

 11 11  0  0  0  0  0  0  0  0999 V2000
    7.2760   -2.5981    0.0000 C   0  0  0  0  0  0  0  0  0  0  0  0
    5.7760   -2.5981    0.0000 C   0  0  0  0  0  0  0  0  0  0  0  0
    5.0260   -1.2990    0.0000 C   0  0  0  0  0  0  0  0  0  0  0  0
    3.5260   -1.2990    0.0000 C   0  0  0  0  0  0  0  0  0  0  0  0
    2.7760    0.0000    0.0000 C   0  0  0  0  0  0  0  0  0  0  0  0
    3.5260    1.2990    0.0000 O   0  0  0  0  0  0  0  0  0  0  0  0
    1.2760    0.0000    0.0000 N   0  0  0  0  0  0  0  0  0  0  0  0
    0.3943    1.2135    0.0000 C   0  0  0  0  0  0  0  0  0  0  0  0
   -1.0323    0.7500    0.0000 C   0  0  0  0  0  0  0  0  0  0  0  0
   -1.0323   -0.7500    0.0000 C   0  0  0  0  0  0  0  0  0  0  0  0
    0.3943   -1.2135    0.0000 C   0  0  0  0  0  0  0  0  0  0  0  0
  1  2  2  0
  2  3  1  0
  3  4  1  0
  4  5  1  0
  5  6  2  0
  5  7  1  0
  7  8  1  0
  8  9  2  0
  9 10  1  0
 10 11  2  0
 11  7  1  0
M  END
>  <Title>  (106) 
idAACDgen13

$$$$

     RDKit          2D

 11 10  0  0  0  0  0  0  0  0999 V2000
    0.0000    0.0000    0.0000 C   0  0  0  0  0  0  0  0  0  0  0  0
    1.2990    0.7500    0.0000 C   0  0  0  0  0  0  0  0  0  0  0  0
    2.5981   -0.0000    0.0000 C   0  0  0  0  0  0  0  0  0  0  0  0
    3.8971    0.7500    0.0000 C   0  0  0  0  0  0  0  0  0  0  0  0
    5.1962   -0.0000    0.0000 N   0  0  0  0  0  0  0  0  0  0  0  0
    6.4952    0.7500    0.0000 C   0  0  0  0  0  0  0  0  0  0  0  0
    6.4952    2.2500    0.0000 O   0  0  0  0  0  0  0  0  0  0  0  0
    7.7942   -0.0000    0.0000 C   0  0  0  0  0  0  0  0  0  0  0  0
    9.0933    0.7500    0.0000 C   0  0  0  0  0  0  0  0  0  0  0  0
   10.3923   -0.0000    0.0000 C   0  0  0  0  0  0  0  0  0  0  0  0
    9.0933    2.2500    0.0000 C   0  0  0  0  0  0  0  0  0  0  0  0
  1  2  2  0
  2  3  1  0
  3  4  1  0
  4  5  1  0
  5  6  1  0
  6  7  2  0
  6  8  1  0
  8  9  1  0
  9 10  1  0
  9 11  1  0
M  END
>  <Title>  (107) 
idAACEgen13

$$$$

     RDKit          2D

 73 75  0  0  0  0  0  0  0  0999 V2000
   -2.4597    0.0405    0.0000 C   0  0  0  0  0  0  0  0  0  0  0  0
   -2.2430   -1.4438    0.0000 C   0  0  0  0  0  0  0  0  0  0  0  0
   -3.7151   -1.7320    0.0000 C   0  0  0  0  0  0  0  0  0  0  0  0
   -5.1524   -2.1609    0.0000 C   0  0  0  0  0  0  0  0  0  0  0  0
   -6.5417   -2.7266    0.0000 C   0  0  0  0  0  0  0  0  0  0  0  0
   -7.8699   -3.4236    0.0000 C   0  0  0  0  0  0  0  0  0  0  0  0
   -9.1246   -4.2457    0.0000 C   0  0  0  0  0  0  0  0  0  0  0  0
  -10.2941   -5.1849    0.0000 C   0  0  0  0  0  0  0  0  0  0  0  0
  -11.3675   -6.2327    0.0000 C   0  0  0  0  0  0  0  0  0  0  0  0
  -12.3347   -7.3792    0.0000 C   0  0  0  0  0  0  0  0  0  0  0  0
  -13.1868   -8.6137    0.0000 C   0  0  0  0  0  0  0  0  0  0  0  0
  -13.9158   -9.9246    0.0000 C   0  0  0  0  0  0  0  0  0  0  0  0
  -14.5149  -11.2998    0.0000 C   0  0  0  0  0  0  0  0  0  0  0  0
  -14.9784  -12.7264    0.0000 C   0  0  0  0  0  0  0  0  0  0  0  0
  -15.3021  -14.1910    0.0000 C   0  0  0  0  0  0  0  0  0  0  0  0
  -15.4829  -15.6801    0.0000 C   0  0  0  0  0  0  0  0  0  0  0  0
  -15.5191  -17.1797    0.0000 C   0  0  0  0  0  0  0  0  0  0  0  0
  -15.4105  -18.6757    0.0000 C   0  0  0  0  0  0  0  0  0  0  0  0
  -15.1579  -20.1543    0.0000 C   0  0  0  0  0  0  0  0  0  0  0  0
  -14.7639  -21.6016    0.0000 C   0  0  0  0  0  0  0  0  0  0  0  0
  -14.2320  -23.0042    0.0000 C   0  0  0  0  0  0  0  0  0  0  0  0
  -13.5672  -24.3488    0.0000 C   0  0  0  0  0  0  0  0  0  0  0  0
  -12.7757  -25.6230    0.0000 C   0  0  0  0  0  0  0  0  0  0  0  0
  -11.8650  -26.8149    0.0000 C   0  0  0  0  0  0  0  0  0  0  0  0
  -10.8434  -27.9133    0.0000 C   0  0  0  0  0  0  0  0  0  0  0  0
   -9.7207  -28.9080    0.0000 C   0  0  0  0  0  0  0  0  0  0  0  0
   -8.5072  -29.7896    0.0000 C   0  0  0  0  0  0  0  0  0  0  0  0
   -7.2142  -30.5501    0.0000 C   0  0  0  0  0  0  0  0  0  0  0  0
   -5.8539  -31.1822    0.0000 C   0  0  0  0  0  0  0  0  0  0  0  0
   -4.4389  -31.6800    0.0000 C   0  0  0  0  0  0  0  0  0  0  0  0
   -2.9825  -32.0390    0.0000 C   0  0  0  0  0  0  0  0  0  0  0  0
   -1.4982  -32.2557    0.0000 C   0  0  0  0  0  0  0  0  0  0  0  0
   -0.0000  -32.3282    0.0000 C   0  0  0  0  0  0  0  0  0  0  0  0
    1.4982  -32.2557    0.0000 C   0  0  0  0  0  0  0  0  0  0  0  0
    2.9825  -32.0390    0.0000 C   0  0  0  0  0  0  0  0  0  0  0  0
    4.4389  -31.6800    0.0000 C   0  0  0  0  0  0  0  0  0  0  0  0
    5.8539  -31.1822    0.0000 C   0  0  0  0  0  0  0  0  0  0  0  0
    7.2142  -30.5501    0.0000 C   0  0  0  0  0  0  0  0  0  0  0  0
    8.5072  -29.7896    0.0000 C   0  0  0  0  0  0  0  0  0  0  0  0
    9.7207  -28.9080    0.0000 C   0  0  0  0  0  0  0  0  0  0  0  0
   10.8434  -27.9133    0.0000 C   0  0  0  0  0  0  0  0  0  0  0  0
   11.8650  -26.8149    0.0000 C   0  0  0  0  0  0  0  0  0  0  0  0
   12.7757  -25.6230    0.0000 C   0  0  0  0  0  0  0  0  0  0  0  0
   13.5672  -24.3488    0.0000 C   0  0  0  0  0  0  0  0  0  0  0  0
   14.2320  -23.0042    0.0000 C   0  0  0  0  0  0  0  0  0  0  0  0
   14.7639  -21.6016    0.0000 C   0  0  0  0  0  0  0  0  0  0  0  0
   15.1579  -20.1543    0.0000 C   0  0  0  0  0  0  0  0  0  0  0  0
   15.4105  -18.6757    0.0000 C   0  0  0  0  0  0  0  0  0  0  0  0
   15.5191  -17.1797    0.0000 C   0  0  0  0  0  0  0  0  0  0  0  0
   15.4829  -15.6801    0.0000 C   0  0  0  0  0  0  0  0  0  0  0  0
   15.3021  -14.1910    0.0000 C   0  0  0  0  0  0  0  0  0  0  0  0
   14.9784  -12.7264    0.0000 C   0  0  0  0  0  0  0  0  0  0  0  0
   14.5149  -11.2998    0.0000 C   0  0  0  0  0  0  0  0  0  0  0  0
   13.9158   -9.9246    0.0000 C   0  0  0  0  0  0  0  0  0  0  0  0
   13.1868   -8.6137    0.0000 C   0  0  0  0  0  0  0  0  0  0  0  0
   12.3347   -7.3792    0.0000 C   0  0  0  0  0  0  0  0  0  0  0  0
   11.3675   -6.2327    0.0000 C   0  0  0  0  0  0  0  0  0  0  0  0
   10.2941   -5.1849    0.0000 C   0  0  0  0  0  0  0  0  0  0  0  0
    9.1246   -4.2457    0.0000 C   0  0  0  0  0  0  0  0  0  0  0  0
    7.8699   -3.4236    0.0000 C   0  0  0  0  0  0  0  0  0  0  0  0
    6.5417   -2.7266    0.0000 C   0  0  0  0  0  0  0  0  0  0  0  0
    5.1524   -2.1609    0.0000 C   0  0  0  0  0  0  0  0  0  0  0  0
    3.7151   -1.7320    0.0000 C   0  0  0  0  0  0  0  0  0  0  0  0
    3.8959   -3.2211    0.0000 C   0  0  0  0  0  0  0  0  0  0  0  0
    2.5355   -3.8532    0.0000 C   0  0  0  0  0  0  0  0  0  0  0  0
    1.5140   -2.7548    0.0000 C   0  0  0  0  0  0  0  0  0  0  0  0
    2.2430   -1.4438    0.0000 C   0  0  0  0  0  0  0  0  0  0  0  0
    0.7500   -1.2990    0.0000 C   0  0  0  0  0  0  0  0  0  0  0  0
    1.5000    0.0000    0.0000 C   0  0  0  0  0  0  0  0  0  0  0  0
    0.7500    1.2990    0.0000 C   0  0  0  0  0  0  0  0  0  0  0  0
   -0.7500    1.2990    0.0000 C   0  0  0  0  0  0  0  0  0  0  0  0
   -1.5000    0.0000    0.0000 C   0  0  0  0  0  0  0  0  0  0  0  0
   -0.7500   -1.2990    0.0000 C   0  0  0  0  0  0  0  0  0  0  0  0
  1  2  1  0
  2  3  1  0
  3  4  1  0
  4  5  1  0
  5  6  1  0
  6  7  1  0
  7  8  1  0
  8  9  1  0
  9 10  1  0
 10 11  1  0
 11 12  1  0
 12 13  1  0
 13 14  1  0
 14 15  1  0
 15 16  1  0
 16 17  1  0
 17 18  1  0
 18 19  1  0
 19 20  1  0
 20 21  1  0
 21 22  1  0
 22 23  1  0
 23 24  1  0
 24 25  1  0
 25 26  1  0
 26 27  1  0
 27 28  1  0
 28 29  1  0
 29 30  1  0
 30 31  1  0
 31 32  1  0
 32 33  1  0
 33 34  1  0
 34 35  2  0
 35 36  1  0
 36 37  2  0
 37 38  1  0
 38 39  2  0
 39 40  1  0
 40 41  2  0
 41 42  1  0
 42 43  2  0
 43 44  1  0
 44 45  2  0
 45 46  1  0
 46 47  2  0
 47 48  1  0
 48 49  2  0
 49 50  1  0
 50 51  2  0
 51 52  1  0
 52 53  2  0
 53 54  1  0
 54 55  2  0
 55 56  1  0
 56 57  2  0
 57 58  1  0
 58 59  2  0
 59 60  1  0
 60 61  2  0
 61 62  1  0
 62 63  2  0
 63 64  1  0
 64 65  2  0
 65 66  1  0
 66 67  2  0
 67 68  1  0
 68 69  2  0
 69 70  1  0
 70 71  2  0
 71 72  1  0
 72 73  2  0
 73  2  1  0
 67 63  1  0
 73 68  1  0
M  END
>  <Title>  (108) 
idAACFgen13

$$$$

     RDKit          2D

 74 77  0  0  0  0  0  0  0  0999 V2000
   -5.6638   -0.7952    0.0000 C   0  0  0  0  0  0  0  0  0  0  0  0
   -5.1428   -2.2018    0.0000 C   0  0  0  0  0  0  0  0  0  0  0  0
   -6.5212   -2.7933    0.0000 C   0  0  0  0  0  0  0  0  0  0  0  0
   -7.8328   -3.5213    0.0000 C   0  0  0  0  0  0  0  0  0  0  0  0
   -9.0639   -4.3782    0.0000 C   0  0  0  0  0  0  0  0  0  0  0  0
  -10.2020   -5.3552    0.0000 C   0  0  0  0  0  0  0  0  0  0  0  0
  -11.2355   -6.4424    0.0000 C   0  0  0  0  0  0  0  0  0  0  0  0
  -12.1537   -7.6286    0.0000 C   0  0  0  0  0  0  0  0  0  0  0  0
  -12.9471   -8.9015    0.0000 C   0  0  0  0  0  0  0  0  0  0  0  0
  -13.6077  -10.2483    0.0000 C   0  0  0  0  0  0  0  0  0  0  0  0
  -14.1287  -11.6549    0.0000 C   0  0  0  0  0  0  0  0  0  0  0  0
  -14.5046  -13.1070    0.0000 C   0  0  0  0  0  0  0  0  0  0  0  0
  -14.7318  -14.5897    0.0000 C   0  0  0  0  0  0  0  0  0  0  0  0
  -14.8077  -16.0878    0.0000 C   0  0  0  0  0  0  0  0  0  0  0  0
  -14.7318  -17.5859    0.0000 C   0  0  0  0  0  0  0  0  0  0  0  0
  -14.5046  -19.0686    0.0000 C   0  0  0  0  0  0  0  0  0  0  0  0
  -14.1287  -20.5207    0.0000 C   0  0  0  0  0  0  0  0  0  0  0  0
  -13.6077  -21.9273    0.0000 C   0  0  0  0  0  0  0  0  0  0  0  0
  -12.9471  -23.2740    0.0000 C   0  0  0  0  0  0  0  0  0  0  0  0
  -12.1537  -24.5470    0.0000 C   0  0  0  0  0  0  0  0  0  0  0  0
  -11.2355  -25.7331    0.0000 C   0  0  0  0  0  0  0  0  0  0  0  0
  -10.2020  -26.8203    0.0000 C   0  0  0  0  0  0  0  0  0  0  0  0
   -9.0639  -27.7974    0.0000 C   0  0  0  0  0  0  0  0  0  0  0  0
   -7.8328  -28.6543    0.0000 C   0  0  0  0  0  0  0  0  0  0  0  0
   -6.5212  -29.3822    0.0000 C   0  0  0  0  0  0  0  0  0  0  0  0
   -5.1428  -29.9738    0.0000 C   0  0  0  0  0  0  0  0  0  0  0  0
   -3.7116  -30.4228    0.0000 C   0  0  0  0  0  0  0  0  0  0  0  0
   -2.2423  -30.7248    0.0000 C   0  0  0  0  0  0  0  0  0  0  0  0
   -0.7500  -30.8765    0.0000 C   0  0  0  0  0  0  0  0  0  0  0  0
    0.7500  -30.8765    0.0000 C   0  0  0  0  0  0  0  0  0  0  0  0
    2.2423  -30.7248    0.0000 C   0  0  0  0  0  0  0  0  0  0  0  0
    3.7116  -30.4228    0.0000 C   0  0  0  0  0  0  0  0  0  0  0  0
    5.1428  -29.9738    0.0000 C   0  0  0  0  0  0  0  0  0  0  0  0
    6.5212  -29.3822    0.0000 C   0  0  0  0  0  0  0  0  0  0  0  0
    7.8328  -28.6543    0.0000 C   0  0  0  0  0  0  0  0  0  0  0  0
    9.0639  -27.7974    0.0000 C   0  0  0  0  0  0  0  0  0  0  0  0
   10.2020  -26.8203    0.0000 C   0  0  0  0  0  0  0  0  0  0  0  0
   11.2355  -25.7331    0.0000 C   0  0  0  0  0  0  0  0  0  0  0  0
   12.1537  -24.5470    0.0000 C   0  0  0  0  0  0  0  0  0  0  0  0
   12.9471  -23.2740    0.0000 C   0  0  0  0  0  0  0  0  0  0  0  0
   13.6077  -21.9273    0.0000 C   0  0  0  0  0  0  0  0  0  0  0  0
   14.1287  -20.5207    0.0000 C   0  0  0  0  0  0  0  0  0  0  0  0
   14.5046  -19.0686    0.0000 C   0  0  0  0  0  0  0  0  0  0  0  0
   14.7318  -17.5859    0.0000 C   0  0  0  0  0  0  0  0  0  0  0  0
   14.8077  -16.0878    0.0000 C   0  0  0  0  0  0  0  0  0  0  0  0
   14.7318  -14.5897    0.0000 C   0  0  0  0  0  0  0  0  0  0  0  0
   14.5046  -13.1070    0.0000 C   0  0  0  0  0  0  0  0  0  0  0  0
   14.1287  -11.6549    0.0000 C   0  0  0  0  0  0  0  0  0  0  0  0
   13.6077  -10.2483    0.0000 C   0  0  0  0  0  0  0  0  0  0  0  0
   12.9471   -8.9015    0.0000 C   0  0  0  0  0  0  0  0  0  0  0  0
   12.1537   -7.6286    0.0000 C   0  0  0  0  0  0  0  0  0  0  0  0
   11.2355   -6.4424    0.0000 C   0  0  0  0  0  0  0  0  0  0  0  0
   10.2020   -5.3552    0.0000 C   0  0  0  0  0  0  0  0  0  0  0  0
    9.0639   -4.3782    0.0000 C   0  0  0  0  0  0  0  0  0  0  0  0
    7.8328   -3.5213    0.0000 C   0  0  0  0  0  0  0  0  0  0  0  0
    6.5212   -2.7933    0.0000 C   0  0  0  0  0  0  0  0  0  0  0  0
    5.1428   -2.2018    0.0000 C   0  0  0  0  0  0  0  0  0  0  0  0
    3.7116   -1.7527    0.0000 C   0  0  0  0  0  0  0  0  0  0  0  0
    3.8785   -3.2434    0.0000 C   0  0  0  0  0  0  0  0  0  0  0  0
    2.5123   -3.8628    0.0000 C   0  0  0  0  0  0  0  0  0  0  0  0
    1.5011   -2.7549    0.0000 C   0  0  0  0  0  0  0  0  0  0  0  0
    2.2423   -1.4508    0.0000 C   0  0  0  0  0  0  0  0  0  0  0  0
    0.7500   -1.2990    0.0000 C   0  0  0  0  0  0  0  0  0  0  0  0
    1.5000    0.0000    0.0000 C   0  0  0  0  0  0  0  0  0  0  0  0
    0.7500    1.2990    0.0000 C   0  0  0  0  0  0  0  0  0  0  0  0
   -0.7500    1.2990    0.0000 C   0  0  0  0  0  0  0  0  0  0  0  0
   -1.5000    0.0000    0.0000 C   0  0  0  0  0  0  0  0  0  0  0  0
   -0.7500   -1.2990    0.0000 C   0  0  0  0  0  0  0  0  0  0  0  0
   -2.2423   -1.4508    0.0000 C   0  0  0  0  0  0  0  0  0  0  0  0
   -1.2462   -2.5723    0.0000 C   0  0  0  0  0  0  0  0  0  0  0  0
   -1.7193   -3.9957    0.0000 C   0  0  0  0  0  0  0  0  0  0  0  0
   -3.1886   -4.2976    0.0000 C   0  0  0  0  0  0  0  0  0  0  0  0
   -4.1848   -3.1762    0.0000 C   0  0  0  0  0  0  0  0  0  0  0  0
   -3.7116   -1.7527    0.0000 C   0  0  0  0  0  0  0  0  0  0  0  0
  1  2  1  0
  2  3  1  0
  3  4  1  0
  4  5  1  0
  5  6  1  0
  6  7  1  0
  7  8  1  0
  8  9  1  0
  9 10  1  0
 10 11  1  0
 11 12  1  0
 12 13  1  0
 13 14  1  0
 14 15  1  0
 15 16  1  0
 16 17  1  0
 17 18  1  0
 18 19  1  0
 19 20  1  0
 20 21  1  0
 21 22  1  0
 22 23  1  0
 23 24  1  0
 24 25  1  0
 25 26  1  0
 26 27  1  0
 27 28  1  0
 28 29  1  0
 29 30  1  0
 30 31  1  0
 31 32  1  0
 32 33  1  0
 33 34  1  0
 34 35  1  0
 35 36  1  0
 36 37  1  0
 37 38  1  0
 38 39  1  0
 39 40  1  0
 40 41  1  0
 41 42  1  0
 42 43  1  0
 43 44  1  0
 44 45  1  0
 45 46  1  0
 46 47  1  0
 47 48  1  0
 48 49  1  0
 49 50  1  0
 50 51  1  0
 51 52  1  0
 52 53  1  0
 53 54  2  0
 54 55  1  0
 55 56  2  0
 56 57  1  0
 57 58  2  0
 58 59  1  0
 59 60  2  0
 60 61  1  0
 61 62  2  0
 62 63  1  0
 63 64  2  0
 64 65  1  0
 65 66  2  0
 66 67  1  0
 67 68  2  0
 68 69  1  0
 69 70  2  0
 70 71  1  0
 71 72  2  0
 72 73  1  0
 73 74  2  0
 74  2  1  0
 62 58  1  0
 68 63  1  0
 74 69  1  0
M  END
>  <Title>  (109) 
idAACGgen13

$$$$

     RDKit          2D

  5  4  0  0  0  0  0  0  0  0999 V2000
    0.0000    0.0000    0.0000 C   0  0  0  0  0  0  0  0  0  0  0  0
    1.2990    0.7500    0.0000 C   0  0  0  0  0  0  0  0  0  0  0  0
    2.5981   -0.0000    0.0000 C   0  0  0  0  0  0  0  0  0  0  0  0
    3.8971    0.7500    0.0000 C   0  0  0  0  0  0  0  0  0  0  0  0
    5.1962   -0.0000    0.0000 C   0  0  0  0  0  0  0  0  0  0  0  0
  1  2  1  0
  2  3  1  0
  3  4  1  0
  4  5  1  0
M  END
>  <Title>  (110) 
idAACHgen13

$$$$

     RDKit          2D

 19 21  0  0  0  0  0  0  0  0999 V2000
   -5.7691   -4.1439    0.0000 C   0  0  0  0  0  0  0  0  0  0  0  0
   -4.3202   -4.5321    0.0000 C   0  0  0  0  0  0  0  0  0  0  0  0
   -3.2595   -3.4715    0.0000 C   0  0  0  0  0  0  0  0  0  0  0  0
   -1.8107   -3.8597    0.0000 C   0  0  0  0  0  0  0  0  0  0  0  0
   -1.4224   -5.3086    0.0000 O   0  0  0  0  0  0  0  0  0  0  0  0
   -0.7500   -2.7990    0.0000 N   0  0  0  0  0  0  0  0  0  0  0  0
    0.7500   -2.7990    0.0000 C   0  0  0  0  0  0  0  0  0  0  0  0
    0.7500   -1.2990    0.0000 C   0  0  0  0  0  0  0  0  0  0  0  0
    1.5000    0.0000    0.0000 C   0  0  0  0  0  0  0  0  0  0  0  0
    0.7500    1.2990    0.0000 C   0  0  0  0  0  0  0  0  0  0  0  0
   -0.7500    1.2990    0.0000 C   0  0  0  0  0  0  0  0  0  0  0  0
   -1.5000    2.5981    0.0000 C   0  0  0  0  0  0  0  0  0  0  0  0
   -0.7500    3.8971    0.0000 N   0  0  0  0  0  0  0  0  0  0  0  0
   -1.3601    5.2674    0.0000 C   0  0  0  0  0  0  0  0  0  0  0  0
   -0.2454    6.2711    0.0000 C   0  0  0  0  0  0  0  0  0  0  0  0
    1.0537    5.5211    0.0000 C   0  0  0  0  0  0  0  0  0  0  0  0
    0.7418    4.0539    0.0000 C   0  0  0  0  0  0  0  0  0  0  0  0
   -1.5000    0.0000    0.0000 C   0  0  0  0  0  0  0  0  0  0  0  0
   -0.7500   -1.2990    0.0000 C   0  0  0  0  0  0  0  0  0  0  0  0
  1  2  1  0
  2  3  1  0
  3  4  1  0
  4  5  2  0
  4  6  1  0
  6  7  1  0
  7  8  1  0
  8  9  1  0
  9 10  1  0
 10 11  1  0
 11 12  1  0
 12 13  1  0
 13 14  1  0
 14 15  1  0
 15 16  1  0
 16 17  1  0
 11 18  1  0
 18 19  1  0
 19  6  1  0
 19  8  1  0
 17 13  1  0
M  END
>  <Title>  (111) 
idAACIgen13

$$$$

     RDKit          2D

 42 47  0  0  0  0  0  0  0  0999 V2000
   -3.1771   -5.9156    0.0000 C   0  0  0  0  0  0  0  0  0  0  0  0
   -1.9635   -5.0339    0.0000 C   0  0  0  0  0  0  0  0  0  0  0  0
   -0.7500   -5.9156    0.0000 C   0  0  0  0  0  0  0  0  0  0  0  0
    0.7500   -5.9156    0.0000 C   0  0  0  0  0  0  0  0  0  0  0  0
    1.9635   -5.0339    0.0000 C   0  0  0  0  0  0  0  0  0  0  0  0
    2.4271   -3.6073    0.0000 C   0  0  0  0  0  0  0  0  0  0  0  0
    1.9635   -2.1807    0.0000 C   0  0  0  0  0  0  0  0  0  0  0  0
    3.1771   -1.2990    0.0000 C   0  0  0  0  0  0  0  0  0  0  0  0
    3.0203    0.1927    0.0000 O   0  0  0  0  0  0  0  0  0  0  0  0
    4.5474   -1.9091    0.0000 N   0  0  0  0  0  0  0  0  0  0  0  0
    5.7609   -1.0275    0.0000 C   0  0  0  0  0  0  0  0  0  0  0  0
    5.7609    0.4725    0.0000 N   0  0  0  0  0  0  0  0  0  0  0  0
    7.1875    0.9361    0.0000 N   0  0  0  0  0  0  0  0  0  0  0  0
    8.0692   -0.2775    0.0000 N   0  0  0  0  0  0  0  0  0  0  0  0
    7.1875   -1.4910    0.0000 N   0  0  0  0  0  0  0  0  0  0  0  0
    7.6510   -2.9176    0.0000 C   0  0  0  0  0  0  0  0  0  0  0  0
    9.0776   -3.3811    0.0000 C   0  0  0  0  0  0  0  0  0  0  0  0
    9.0776   -4.8811    0.0000 C   0  0  0  0  0  0  0  0  0  0  0  0
    7.6510   -5.3446    0.0000 C   0  0  0  0  0  0  0  0  0  0  0  0
    7.1875   -6.7712    0.0000 C   0  0  0  0  0  0  0  0  0  0  0  0
    8.1912   -7.8859    0.0000 O   0  0  0  0  0  0  0  0  0  0  0  0
    5.7203   -7.0831    0.0000 N   0  0  0  0  0  0  0  0  0  0  0  0
    5.2567   -8.5097    0.0000 C   0  0  0  0  0  0  0  0  0  0  0  0
    3.7895   -8.8215    0.0000 N   0  0  0  0  0  0  0  0  0  0  0  0
    3.3260  -10.2481    0.0000 N   0  0  0  0  0  0  0  0  0  0  0  0
    4.3297  -11.3628    0.0000 N   0  0  0  0  0  0  0  0  0  0  0  0
    5.7969  -11.0510    0.0000 N   0  0  0  0  0  0  0  0  0  0  0  0
    6.2604   -9.6244    0.0000 N   0  0  0  0  0  0  0  0  0  0  0  0
    6.7693   -4.1311    0.0000 C   0  0  0  0  0  0  0  0  0  0  0  0
    5.2693   -4.1311    0.0000 O   0  0  0  0  0  0  0  0  0  0  0  0
    0.7500   -1.2990    0.0000 C   0  0  0  0  0  0  0  0  0  0  0  0
    1.5000    0.0000    0.0000 C   0  0  0  0  0  0  0  0  0  0  0  0
    0.7500    1.2990    0.0000 C   0  0  0  0  0  0  0  0  0  0  0  0
   -0.7500    1.2990    0.0000 C   0  0  0  0  0  0  0  0  0  0  0  0
   -1.5000    0.0000    0.0000 C   0  0  0  0  0  0  0  0  0  0  0  0
   -0.7500   -1.2990    0.0000 C   0  0  0  0  0  0  0  0  0  0  0  0
   -1.9635   -2.1807    0.0000 C   0  0  0  0  0  0  0  0  0  0  0  0
   -2.9672   -1.0660    0.0000 C   0  0  0  0  0  0  0  0  0  0  0  0
   -4.4344   -1.3779    0.0000 C   0  0  0  0  0  0  0  0  0  0  0  0
   -4.8980   -2.8045    0.0000 C   0  0  0  0  0  0  0  0  0  0  0  0
   -3.8943   -3.9192    0.0000 C   0  0  0  0  0  0  0  0  0  0  0  0
   -2.4271   -3.6073    0.0000 C   0  0  0  0  0  0  0  0  0  0  0  0
  1  2  1  0
  2  3  1  0
  3  4  2  0
  4  5  1  0
  5  6  1  0
  6  7  1  0
  7  8  1  0
  8  9  2  0
  8 10  1  0
 10 11  1  0
 11 12  2  0
 12 13  1  0
 13 14  2  0
 14 15  1  0
 15 16  1  0
 16 17  2  0
 17 18  1  0
 18 19  2  0
 19 20  1  0
 20 21  2  0
 20 22  1  0
 22 23  1  0
 23 24  2  0
 24 25  1  0
 25 26  2  0
 26 27  1  0
 27 28  2  0
 19 29  1  0
 29 30  2  0
  7 31  1  0
 31 32  2  0
 32 33  1  0
 33 34  2  0
 34 35  1  0
 35 36  2  0
 36 37  1  0
 37 38  2  0
 38 39  1  0
 39 40  2  0
 40 41  1  0
 41 42  2  0
 42  2  1  0
 15 11  1  0
 29 16  1  0
 36 31  1  0
 42 37  1  0
 28 23  1  0
M  END
>  <Title>  (112) 
idAACJgen13

$$$$

     RDKit          2D

 11 12  0  0  0  0  0  0  0  0999 V2000
   -2.9499    4.2246    0.0000 C   0  0  0  0  0  0  0  0  0  0  0  0
   -1.8351    3.2209    0.0000 C   0  0  0  0  0  0  0  0  0  0  0  0
   -0.4086    3.6844    0.0000 C   0  0  0  0  0  0  0  0  0  0  0  0
    0.7062    2.6807    0.0000 C   0  0  0  0  0  0  0  0  0  0  0  0
    0.3943    1.2135    0.0000 C   0  0  0  0  0  0  0  0  0  0  0  0
    1.2760    0.0000    0.0000 N   0  0  0  0  0  0  0  0  0  0  0  0
    0.3943   -1.2135    0.0000 N   0  0  0  0  0  0  0  0  0  0  0  0
   -1.0323   -0.7500    0.0000 N   0  0  0  0  0  0  0  0  0  0  0  0
   -1.0323    0.7500    0.0000 N   0  0  0  0  0  0  0  0  0  0  0  0
   -2.1470    1.7537    0.0000 C   0  0  0  0  0  0  0  0  0  0  0  0
   -3.5736    1.2902    0.0000 O   0  0  0  0  0  0  0  0  0  0  0  0
  1  2  1  0
  2  3  1  0
  3  4  1  0
  4  5  1  0
  5  6  2  0
  6  7  1  0
  7  8  2  0
  8  9  1  0
  9 10  1  0
 10 11  2  0
 10  2  1  0
  9  5  1  0
M  END
>  <Title>  (113) 
idAACKgen13

$$$$

     RDKit          2D

 14 15  0  0  0  0  0  0  0  0999 V2000
   -2.5981   -8.1073    0.0000 C   0  0  0  0  0  0  0  0  0  0  0  0
   -1.2990   -7.3573    0.0000 C   0  0  0  0  0  0  0  0  0  0  0  0
   -1.2990   -5.8573    0.0000 C   0  0  0  0  0  0  0  0  0  0  0  0
   -0.0000   -5.1073    0.0000 C   0  0  0  0  0  0  0  0  0  0  0  0
    1.2990   -5.8573    0.0000 O   0  0  0  0  0  0  0  0  0  0  0  0
   -0.0000   -3.6073    0.0000 N   0  0  0  0  0  0  0  0  0  0  0  0
    1.2135   -2.7256    0.0000 C   0  0  0  0  0  0  0  0  0  0  0  0
    0.7500   -1.2990    0.0000 C   0  0  0  0  0  0  0  0  0  0  0  0
    1.5000    0.0000    0.0000 C   0  0  0  0  0  0  0  0  0  0  0  0
    0.7500    1.2990    0.0000 C   0  0  0  0  0  0  0  0  0  0  0  0
   -0.7500    1.2990    0.0000 C   0  0  0  0  0  0  0  0  0  0  0  0
   -1.5000    0.0000    0.0000 C   0  0  0  0  0  0  0  0  0  0  0  0
   -0.7500   -1.2990    0.0000 C   0  0  0  0  0  0  0  0  0  0  0  0
   -1.2135   -2.7256    0.0000 C   0  0  0  0  0  0  0  0  0  0  0  0
  1  2  1  0
  2  3  1  0
  3  4  1  0
  4  5  2  0
  4  6  1  0
  6  7  1  0
  7  8  1  0
  8  9  2  0
  9 10  1  0
 10 11  2  0
 11 12  1  0
 12 13  2  0
 13 14  1  0
 14  6  1  0
 13  8  1  0
M  END
>  <Title>  (114) 
idAACLgen13

$$$$

     RDKit          2D

 44 49  0  0  0  0  0  0  0  0999 V2000
   -3.1981   -1.5132    0.0000 C   0  0  0  0  0  0  0  0  0  0  0  0
   -1.8991   -2.2632    0.0000 C   0  0  0  0  0  0  0  0  0  0  0  0
   -2.1595   -3.7404    0.0000 C   0  0  0  0  0  0  0  0  0  0  0  0
   -1.4095   -5.0395    0.0000 C   0  0  0  0  0  0  0  0  0  0  0  0
   -0.0000   -5.5525    0.0000 C   0  0  0  0  0  0  0  0  0  0  0  0
    1.4095   -5.0395    0.0000 C   0  0  0  0  0  0  0  0  0  0  0  0
    2.1595   -3.7404    0.0000 C   0  0  0  0  0  0  0  0  0  0  0  0
    1.8991   -2.2632    0.0000 C   0  0  0  0  0  0  0  0  0  0  0  0
    3.1981   -1.5132    0.0000 C   0  0  0  0  0  0  0  0  0  0  0  0
    3.1981   -0.0132    0.0000 O   0  0  0  0  0  0  0  0  0  0  0  0
    4.4971   -2.2632    0.0000 N   0  0  0  0  0  0  0  0  0  0  0  0
    5.7962   -1.5132    0.0000 C   0  0  0  0  0  0  0  0  0  0  0  0
    5.9530   -0.0214    0.0000 N   0  0  0  0  0  0  0  0  0  0  0  0
    7.4202    0.2904    0.0000 N   0  0  0  0  0  0  0  0  0  0  0  0
    8.1702   -1.0086    0.0000 N   0  0  0  0  0  0  0  0  0  0  0  0
    7.1665   -2.1233    0.0000 N   0  0  0  0  0  0  0  0  0  0  0  0
    7.4784   -3.5905    0.0000 C   0  0  0  0  0  0  0  0  0  0  0  0
    6.3636   -4.5942    0.0000 C   0  0  0  0  0  0  0  0  0  0  0  0
    6.6755   -6.0615    0.0000 C   0  0  0  0  0  0  0  0  0  0  0  0
    8.1021   -6.5250    0.0000 C   0  0  0  0  0  0  0  0  0  0  0  0
    9.2168   -5.5213    0.0000 C   0  0  0  0  0  0  0  0  0  0  0  0
    8.9050   -4.0541    0.0000 C   0  0  0  0  0  0  0  0  0  0  0  0
   10.0197   -3.0504    0.0000 C   0  0  0  0  0  0  0  0  0  0  0  0
    9.8629   -1.5586    0.0000 C   0  0  0  0  0  0  0  0  0  0  0  0
   11.2332   -0.9485    0.0000 C   0  0  0  0  0  0  0  0  0  0  0  0
   12.2369   -2.0632    0.0000 C   0  0  0  0  0  0  0  0  0  0  0  0
   13.7287   -1.9064    0.0000 O   0  0  0  0  0  0  0  0  0  0  0  0
   14.6104   -3.1199    0.0000 C   0  0  0  0  0  0  0  0  0  0  0  0
   14.0002   -4.4903    0.0000 O   0  0  0  0  0  0  0  0  0  0  0  0
   16.1021   -2.9631    0.0000 N   0  0  0  0  0  0  0  0  0  0  0  0
   16.9838   -4.1767    0.0000 C   0  0  0  0  0  0  0  0  0  0  0  0
   16.3737   -5.5470    0.0000 N   0  0  0  0  0  0  0  0  0  0  0  0
   17.2554   -6.7605    0.0000 N   0  0  0  0  0  0  0  0  0  0  0  0
   18.7472   -6.6037    0.0000 N   0  0  0  0  0  0  0  0  0  0  0  0
   19.3573   -5.2334    0.0000 N   0  0  0  0  0  0  0  0  0  0  0  0
   18.4756   -4.0199    0.0000 N   0  0  0  0  0  0  0  0  0  0  0  0
   11.4869   -3.3622    0.0000 C   0  0  0  0  0  0  0  0  0  0  0  0
   12.0970   -4.7326    0.0000 O   0  0  0  0  0  0  0  0  0  0  0  0
    0.7500   -1.2990    0.0000 C   0  0  0  0  0  0  0  0  0  0  0  0
    1.5000    0.0000    0.0000 C   0  0  0  0  0  0  0  0  0  0  0  0
    0.7500    1.2990    0.0000 C   0  0  0  0  0  0  0  0  0  0  0  0
   -0.7500    1.2990    0.0000 C   0  0  0  0  0  0  0  0  0  0  0  0
   -1.5000    0.0000    0.0000 C   0  0  0  0  0  0  0  0  0  0  0  0
   -0.7500   -1.2990    0.0000 C   0  0  0  0  0  0  0  0  0  0  0  0
  1  2  1  0
  2  3  1  0
  3  4  1  0
  4  5  1  0
  5  6  1  0
  6  7  1  0
  7  8  1  0
  8  9  1  0
  9 10  2  0
  9 11  1  0
 11 12  1  0
 12 13  2  0
 13 14  1  0
 14 15  2  0
 15 16  1  0
 16 17  1  0
 17 18  2  0
 18 19  1  0
 19 20  2  0
 20 21  1  0
 21 22  2  0
 22 23  1  0
 23 24  2  0
 24 25  1  0
 25 26  2  0
 26 27  1  0
 27 28  1  0
 28 29  2  0
 28 30  1  0
 30 31  1  0
 31 32  2  0
 32 33  1  0
 33 34  2  0
 34 35  1  0
 35 36  2  0
 26 37  1  0
 37 38  2  0
  8 39  1  0
 39 40  2  0
 40 41  1  0
 41 42  2  0
 42 43  1  0
 43 44  2  0
 44  2  1  0
 16 12  1  0
 22 17  1  0
 37 23  1  0
 44 39  1  0
 36 31  1  0
M  END
>  <Title>  (115) 
idAACMgen13

$$$$

     RDKit          2D

 52 52  0  0  0  0  0  0  0  0999 V2000
   70.5000    0.0000    0.0000 C   0  0  0  0  0  0  0  0  0  0  0  0
   69.0000    0.0000    0.0000 C   0  0  0  0  0  0  0  0  0  0  0  0
   67.5000    0.0000    0.0000 C   0  0  0  0  0  0  0  0  0  0  0  0
   66.0000    0.0000    0.0000 C   0  0  0  0  0  0  0  0  0  0  0  0
   64.5000    0.0000    0.0000 C   0  0  0  0  0  0  0  0  0  0  0  0
   63.0000    0.0000    0.0000 C   0  0  0  0  0  0  0  0  0  0  0  0
   61.5000    0.0000    0.0000 C   0  0  0  0  0  0  0  0  0  0  0  0
   60.0000    0.0000    0.0000 C   0  0  0  0  0  0  0  0  0  0  0  0
   58.5000    0.0000    0.0000 C   0  0  0  0  0  0  0  0  0  0  0  0
   57.0000    0.0000    0.0000 C   0  0  0  0  0  0  0  0  0  0  0  0
   55.5000    0.0000    0.0000 C   0  0  0  0  0  0  0  0  0  0  0  0
   54.0000    0.0000    0.0000 C   0  0  0  0  0  0  0  0  0  0  0  0
   52.5000    0.0000    0.0000 C   0  0  0  0  0  0  0  0  0  0  0  0
   51.0000    0.0000    0.0000 C   0  0  0  0  0  0  0  0  0  0  0  0
   49.5000    0.0000    0.0000 C   0  0  0  0  0  0  0  0  0  0  0  0
   48.0000    0.0000    0.0000 C   0  0  0  0  0  0  0  0  0  0  0  0
   46.5000    0.0000    0.0000 C   0  0  0  0  0  0  0  0  0  0  0  0
   45.0000    0.0000    0.0000 C   0  0  0  0  0  0  0  0  0  0  0  0
   43.5000    0.0000    0.0000 C   0  0  0  0  0  0  0  0  0  0  0  0
   42.0000    0.0000    0.0000 C   0  0  0  0  0  0  0  0  0  0  0  0
   40.5000    0.0000    0.0000 C   0  0  0  0  0  0  0  0  0  0  0  0
   39.0000    0.0000    0.0000 C   0  0  0  0  0  0  0  0  0  0  0  0
   37.5000    0.0000    0.0000 C   0  0  0  0  0  0  0  0  0  0  0  0
   36.0000    0.0000    0.0000 C   0  0  0  0  0  0  0  0  0  0  0  0
   34.5000    0.0000    0.0000 C   0  0  0  0  0  0  0  0  0  0  0  0
   33.0000    0.0000    0.0000 C   0  0  0  0  0  0  0  0  0  0  0  0
   31.5000    0.0000    0.0000 C   0  0  0  0  0  0  0  0  0  0  0  0
   30.0000    0.0000    0.0000 C   0  0  0  0  0  0  0  0  0  0  0  0
   28.5000    0.0000    0.0000 C   0  0  0  0  0  0  0  0  0  0  0  0
   27.0000    0.0000    0.0000 C   0  0  0  0  0  0  0  0  0  0  0  0
   25.5000    0.0000    0.0000 C   0  0  0  0  0  0  0  0  0  0  0  0
   24.0000    0.0000    0.0000 C   0  0  0  0  0  0  0  0  0  0  0  0
   22.5000    0.0000    0.0000 C   0  0  0  0  0  0  0  0  0  0  0  0
   21.0000    0.0000    0.0000 C   0  0  0  0  0  0  0  0  0  0  0  0
   19.5000    0.0000    0.0000 C   0  0  0  0  0  0  0  0  0  0  0  0
   18.0000    0.0000    0.0000 C   0  0  0  0  0  0  0  0  0  0  0  0
   16.5000    0.0000    0.0000 C   0  0  0  0  0  0  0  0  0  0  0  0
   15.0000    0.0000    0.0000 C   0  0  0  0  0  0  0  0  0  0  0  0
   13.5000    0.0000    0.0000 C   0  0  0  0  0  0  0  0  0  0  0  0
   12.0000    0.0000    0.0000 C   0  0  0  0  0  0  0  0  0  0  0  0
   10.5000    0.0000    0.0000 C   0  0  0  0  0  0  0  0  0  0  0  0
    9.0000    0.0000    0.0000 C   0  0  0  0  0  0  0  0  0  0  0  0
    7.5000    0.0000    0.0000 C   0  0  0  0  0  0  0  0  0  0  0  0
    6.0000    0.0000    0.0000 C   0  0  0  0  0  0  0  0  0  0  0  0
    4.5000    0.0000    0.0000 C   0  0  0  0  0  0  0  0  0  0  0  0
    3.0000    0.0000    0.0000 C   0  0  0  0  0  0  0  0  0  0  0  0
    1.5000    0.0000    0.0000 C   0  0  0  0  0  0  0  0  0  0  0  0
    0.7500   -1.2990    0.0000 C   0  0  0  0  0  0  0  0  0  0  0  0
   -0.7500   -1.2990    0.0000 C   0  0  0  0  0  0  0  0  0  0  0  0
   -1.5000    0.0000    0.0000 C   0  0  0  0  0  0  0  0  0  0  0  0
   -0.7500    1.2990    0.0000 C   0  0  0  0  0  0  0  0  0  0  0  0
    0.7500    1.2990    0.0000 C   0  0  0  0  0  0  0  0  0  0  0  0
  1  2  3  0
  2  3  1  0
  3  4  3  0
  4  5  1  0
  5  6  3  0
  6  7  1  0
  7  8  3  0
  8  9  1  0
  9 10  3  0
 10 11  1  0
 11 12  3  0
 12 13  1  0
 13 14  3  0
 14 15  1  0
 15 16  3  0
 16 17  1  0
 17 18  3  0
 18 19  1  0
 19 20  3  0
 20 21  1  0
 21 22  3  0
 22 23  1  0
 23 24  3  0
 24 25  1  0
 25 26  3  0
 26 27  1  0
 27 28  3  0
 28 29  1  0
 29 30  3  0
 30 31  1  0
 31 32  3  0
 32 33  1  0
 33 34  3  0
 34 35  1  0
 35 36  3  0
 36 37  1  0
 37 38  3  0
 38 39  1  0
 39 40  3  0
 40 41  1  0
 41 42  3  0
 42 43  1  0
 43 44  3  0
 44 45  1  0
 45 46  3  0
 46 47  1  0
 47 48  2  0
 48 49  1  0
 49 50  2  0
 50 51  1  0
 51 52  2  0
 52 47  1  0
M  END
>  <Title>  (116) 
idAACNgen13

$$$$

     RDKit          2D

 72 75  0  0  0  0  0  0  0  0999 V2000
   -5.8134    7.1476    0.0000 C   0  0  0  0  0  0  0  0  0  0  0  0
   -4.4500    7.7730    0.0000 C   0  0  0  0  0  0  0  0  0  0  0  0
   -4.9980    9.1693    0.0000 C   0  0  0  0  0  0  0  0  0  0  0  0
   -5.3862   10.6182    0.0000 C   0  0  0  0  0  0  0  0  0  0  0  0
   -5.6098   12.1015    0.0000 C   0  0  0  0  0  0  0  0  0  0  0  0
   -5.6659   13.6004    0.0000 C   0  0  0  0  0  0  0  0  0  0  0  0
   -5.5538   15.0962    0.0000 C   0  0  0  0  0  0  0  0  0  0  0  0
   -5.2749   16.5701    0.0000 C   0  0  0  0  0  0  0  0  0  0  0  0
   -4.8328   18.0034    0.0000 C   0  0  0  0  0  0  0  0  0  0  0  0
   -4.2330   19.3783    0.0000 C   0  0  0  0  0  0  0  0  0  0  0  0
   -3.4830   20.6773    0.0000 C   0  0  0  0  0  0  0  0  0  0  0  0
   -2.5922   21.8842    0.0000 C   0  0  0  0  0  0  0  0  0  0  0  0
   -1.5720   22.9838    0.0000 C   0  0  0  0  0  0  0  0  0  0  0  0
   -0.4350   23.9622    0.0000 C   0  0  0  0  0  0  0  0  0  0  0  0
    0.8043   24.8072    0.0000 C   0  0  0  0  0  0  0  0  0  0  0  0
    2.1305   25.5081    0.0000 C   0  0  0  0  0  0  0  0  0  0  0  0
    3.5268   26.0561    0.0000 C   0  0  0  0  0  0  0  0  0  0  0  0
    4.9757   26.4443    0.0000 C   0  0  0  0  0  0  0  0  0  0  0  0
    6.4590   26.6679    0.0000 C   0  0  0  0  0  0  0  0  0  0  0  0
    7.9579   26.7240    0.0000 C   0  0  0  0  0  0  0  0  0  0  0  0
    9.4537   26.6119    0.0000 C   0  0  0  0  0  0  0  0  0  0  0  0
   10.9276   26.3330    0.0000 C   0  0  0  0  0  0  0  0  0  0  0  0
   12.3609   25.8909    0.0000 C   0  0  0  0  0  0  0  0  0  0  0  0
   13.7358   25.2911    0.0000 C   0  0  0  0  0  0  0  0  0  0  0  0
   15.0348   24.5411    0.0000 C   0  0  0  0  0  0  0  0  0  0  0  0
   16.2417   23.6503    0.0000 C   0  0  0  0  0  0  0  0  0  0  0  0
   17.3413   22.6301    0.0000 C   0  0  0  0  0  0  0  0  0  0  0  0
   18.3197   21.4931    0.0000 C   0  0  0  0  0  0  0  0  0  0  0  0
   19.1647   20.2538    0.0000 C   0  0  0  0  0  0  0  0  0  0  0  0
   19.8656   18.9276    0.0000 C   0  0  0  0  0  0  0  0  0  0  0  0
   20.4136   17.5313    0.0000 C   0  0  0  0  0  0  0  0  0  0  0  0
   20.8018   16.0824    0.0000 C   0  0  0  0  0  0  0  0  0  0  0  0
   21.0254   14.5991    0.0000 C   0  0  0  0  0  0  0  0  0  0  0  0
   21.0815   13.1002    0.0000 C   0  0  0  0  0  0  0  0  0  0  0  0
   20.9694   11.6044    0.0000 C   0  0  0  0  0  0  0  0  0  0  0  0
   20.6905   10.1305    0.0000 C   0  0  0  0  0  0  0  0  0  0  0  0
   20.2484    8.6972    0.0000 C   0  0  0  0  0  0  0  0  0  0  0  0
   19.6486    7.3223    0.0000 C   0  0  0  0  0  0  0  0  0  0  0  0
   18.8986    6.0233    0.0000 C   0  0  0  0  0  0  0  0  0  0  0  0
   18.0078    4.8164    0.0000 C   0  0  0  0  0  0  0  0  0  0  0  0
   16.9876    3.7168    0.0000 C   0  0  0  0  0  0  0  0  0  0  0  0
   15.8506    2.7384    0.0000 C   0  0  0  0  0  0  0  0  0  0  0  0
   14.6113    1.8934    0.0000 C   0  0  0  0  0  0  0  0  0  0  0  0
   13.2851    1.1925    0.0000 C   0  0  0  0  0  0  0  0  0  0  0  0
   11.8888    0.6445    0.0000 C   0  0  0  0  0  0  0  0  0  0  0  0
   10.4399    0.2563    0.0000 C   0  0  0  0  0  0  0  0  0  0  0  0
    8.9566    0.0327    0.0000 C   0  0  0  0  0  0  0  0  0  0  0  0
    7.4577   -0.0234    0.0000 C   0  0  0  0  0  0  0  0  0  0  0  0
    5.9619    0.0887    0.0000 C   0  0  0  0  0  0  0  0  0  0  0  0
    4.4880    0.3676    0.0000 C   0  0  0  0  0  0  0  0  0  0  0  0
    3.0547    0.8097    0.0000 C   0  0  0  0  0  0  0  0  0  0  0  0
    1.6798    1.4095    0.0000 C   0  0  0  0  0  0  0  0  0  0  0  0
    2.1929    0.0000    0.0000 C   0  0  0  0  0  0  0  0  0  0  0  0
    1.6798   -1.4095    0.0000 C   0  0  0  0  0  0  0  0  0  0  0  0
    0.3808   -2.1595    0.0000 C   0  0  0  0  0  0  0  0  0  0  0  0
   -1.0964   -1.8991    0.0000 C   0  0  0  0  0  0  0  0  0  0  0  0
   -2.0606   -0.7500    0.0000 C   0  0  0  0  0  0  0  0  0  0  0  0
   -2.0606    0.7500    0.0000 C   0  0  0  0  0  0  0  0  0  0  0  0
   -1.0964    1.8991    0.0000 C   0  0  0  0  0  0  0  0  0  0  0  0
    0.3808    2.1595    0.0000 C   0  0  0  0  0  0  0  0  0  0  0  0
   -0.8261    3.0503    0.0000 C   0  0  0  0  0  0  0  0  0  0  0  0
    0.6072    3.4924    0.0000 C   0  0  0  0  0  0  0  0  0  0  0  0
    0.9410    4.9548    0.0000 C   0  0  0  0  0  0  0  0  0  0  0  0
   -0.1585    5.9751    0.0000 C   0  0  0  0  0  0  0  0  0  0  0  0
   -1.5919    5.5329    0.0000 C   0  0  0  0  0  0  0  0  0  0  0  0
   -1.9257    4.0705    0.0000 C   0  0  0  0  0  0  0  0  0  0  0  0
   -2.9041    5.2075    0.0000 C   0  0  0  0  0  0  0  0  0  0  0  0
   -3.5549    3.8560    0.0000 C   0  0  0  0  0  0  0  0  0  0  0  0
   -5.0508    3.7439    0.0000 C   0  0  0  0  0  0  0  0  0  0  0  0
   -5.8957    4.9833    0.0000 C   0  0  0  0  0  0  0  0  0  0  0  0
   -5.2449    6.3347    0.0000 C   0  0  0  0  0  0  0  0  0  0  0  0
   -3.7491    6.4468    0.0000 C   0  0  0  0  0  0  0  0  0  0  0  0
  1  2  1  0
  2  3  1  0
  3  4  1  0
  4  5  1  0
  5  6  1  0
  6  7  1  0
  7  8  1  0
  8  9  1  0
  9 10  1  0
 10 11  1  0
 11 12  1  0
 12 13  1  0
 13 14  1  0
 14 15  1  0
 15 16  1  0
 16 17  1  0
 17 18  1  0
 18 19  1  0
 19 20  1  0
 20 21  1  0
 21 22  1  0
 22 23  1  0
 23 24  1  0
 24 25  1  0
 25 26  1  0
 26 27  1  0
 27 28  1  0
 28 29  1  0
 29 30  1  0
 30 31  1  0
 31 32  1  0
 32 33  1  0
 33 34  1  0
 34 35  1  0
 35 36  1  0
 36 37  1  0
 37 38  1  0
 38 39  1  0
 39 40  1  0
 40 41  1  0
 41 42  1  0
 42 43  1  0
 43 44  1  0
 44 45  1  0
 45 46  1  0
 46 47  1  0
 47 48  1  0
 48 49  1  0
 49 50  1  0
 50 51  1  0
 51 52  1  0
 52 53  1  0
 53 54  1  0
 54 55  1  0
 55 56  2  0
 56 57  1  0
 57 58  2  0
 58 59  1  0
 59 60  2  0
 60 61  1  0
 61 62  2  0
 62 63  1  0
 63 64  2  0
 64 65  1  0
 65 66  2  0
 66 67  1  0
 67 68  2  0
 68 69  1  0
 69 70  2  0
 70 71  1  0
 71 72  2  0
 72  2  1  0
 60 52  1  0
 66 61  1  0
 72 67  1  0
M  END
>  <Title>  (117) 
idAACOgen13

$$$$

     RDKit          2D

 37 41  0  0  0  0  0  0  0  0999 V2000
   -5.6303   -2.9038    0.0000 C   0  0  0  0  0  0  0  0  0  0  0  0
   -4.1679   -3.2376    0.0000 C   0  0  0  0  0  0  0  0  0  0  0  0
   -3.1476   -2.1380    0.0000 C   0  0  0  0  0  0  0  0  0  0  0  0
   -1.6852   -2.4718    0.0000 C   0  0  0  0  0  0  0  0  0  0  0  0
   -1.3515   -3.9342    0.0000 C   0  0  0  0  0  0  0  0  0  0  0  0
   -0.0000   -4.5850    0.0000 C   0  0  0  0  0  0  0  0  0  0  0  0
    1.3515   -3.9342    0.0000 C   0  0  0  0  0  0  0  0  0  0  0  0
    1.6852   -2.4718    0.0000 C   0  0  0  0  0  0  0  0  0  0  0  0
    3.1476   -2.1380    0.0000 C   0  0  0  0  0  0  0  0  0  0  0  0
    3.5898   -0.7046    0.0000 O   0  0  0  0  0  0  0  0  0  0  0  0
    4.1679   -3.2376    0.0000 N   0  0  0  0  0  0  0  0  0  0  0  0
    5.6303   -2.9038    0.0000 C   0  0  0  0  0  0  0  0  0  0  0  0
    6.2198   -1.5245    0.0000 N   0  0  0  0  0  0  0  0  0  0  0  0
    7.7138   -1.6590    0.0000 N   0  0  0  0  0  0  0  0  0  0  0  0
    8.0476   -3.1214    0.0000 N   0  0  0  0  0  0  0  0  0  0  0  0
    6.7599   -3.8907    0.0000 N   0  0  0  0  0  0  0  0  0  0  0  0
    6.6254   -5.3847    0.0000 N   0  0  0  0  0  0  0  0  0  0  0  0
    7.7550   -6.3716    0.0000 C   0  0  0  0  0  0  0  0  0  0  0  0
    7.1655   -7.7509    0.0000 C   0  0  0  0  0  0  0  0  0  0  0  0
    5.6715   -7.6164    0.0000 N   0  0  0  0  0  0  0  0  0  0  0  0
    4.6846   -8.7460    0.0000 C   0  0  0  0  0  0  0  0  0  0  0  0
    5.1694  -10.1655    0.0000 O   0  0  0  0  0  0  0  0  0  0  0  0
    3.2129   -8.4561    0.0000 N   0  0  0  0  0  0  0  0  0  0  0  0
    2.2260   -9.5857    0.0000 C   0  0  0  0  0  0  0  0  0  0  0  0
    0.7543   -9.2959    0.0000 N   0  0  0  0  0  0  0  0  0  0  0  0
   -0.2326  -10.4255    0.0000 N   0  0  0  0  0  0  0  0  0  0  0  0
    0.2522  -11.8450    0.0000 N   0  0  0  0  0  0  0  0  0  0  0  0
    1.7239  -12.1348    0.0000 N   0  0  0  0  0  0  0  0  0  0  0  0
    2.7108  -11.0052    0.0000 N   0  0  0  0  0  0  0  0  0  0  0  0
    5.3378   -6.1540    0.0000 C   0  0  0  0  0  0  0  0  0  0  0  0
    3.9585   -5.5645    0.0000 O   0  0  0  0  0  0  0  0  0  0  0  0
    0.7500   -1.2990    0.0000 C   0  0  0  0  0  0  0  0  0  0  0  0
    1.5000    0.0000    0.0000 C   0  0  0  0  0  0  0  0  0  0  0  0
    0.7500    1.2990    0.0000 C   0  0  0  0  0  0  0  0  0  0  0  0
   -0.7500    1.2990    0.0000 C   0  0  0  0  0  0  0  0  0  0  0  0
   -1.5000    0.0000    0.0000 C   0  0  0  0  0  0  0  0  0  0  0  0
   -0.7500   -1.2990    0.0000 C   0  0  0  0  0  0  0  0  0  0  0  0
  1  2  1  0
  2  3  1  0
  3  4  1  0
  4  5  1  0
  5  6  1  0
  6  7  1  0
  7  8  1  0
  8  9  1  0
  9 10  2  0
  9 11  1  0
 11 12  1  0
 12 13  2  0
 13 14  1  0
 14 15  2  0
 15 16  1  0
 16 17  1  0
 17 18  1  0
 18 19  1  0
 19 20  1  0
 20 21  1  0
 21 22  2  0
 21 23  1  0
 23 24  1  0
 24 25  2  0
 25 26  1  0
 26 27  2  0
 27 28  1  0
 28 29  2  0
 20 30  1  0
 30 31  2  0
  8 32  1  0
 32 33  2  0
 33 34  1  0
 34 35  2  0
 35 36  1  0
 36 37  2  0
 37  4  1  0
 16 12  1  0
 30 17  1  0
 37 32  1  0
 29 24  1  0
M  END
>  <Title>  (118) 
idAACPgen13

$$$$

     RDKit          2D

 32 35  0  0  0  0  0  0  0  0999 V2000
    3.2286   -0.0000    0.0000 C   0  0  0  0  0  0  0  0  0  0  0  0
    1.7286    0.0000    0.0000 C   0  0  0  0  0  0  0  0  0  0  0  0
    1.0777    1.3515    0.0000 C   0  0  0  0  0  0  0  0  0  0  0  0
   -0.3846    1.6852    0.0000 C   0  0  0  0  0  0  0  0  0  0  0  0
   -1.5574    0.7500    0.0000 C   0  0  0  0  0  0  0  0  0  0  0  0
   -1.5574   -0.7500    0.0000 C   0  0  0  0  0  0  0  0  0  0  0  0
   -2.9088   -1.4008    0.0000 C   0  0  0  0  0  0  0  0  0  0  0  0
   -3.0209   -2.8966    0.0000 O   0  0  0  0  0  0  0  0  0  0  0  0
   -4.1482   -0.5558    0.0000 N   0  0  0  0  0  0  0  0  0  0  0  0
   -5.4997   -1.2067    0.0000 C   0  0  0  0  0  0  0  0  0  0  0  0
   -5.7675   -2.6826    0.0000 N   0  0  0  0  0  0  0  0  0  0  0  0
   -7.2539   -2.8839    0.0000 N   0  0  0  0  0  0  0  0  0  0  0  0
   -7.9047   -1.5325    0.0000 N   0  0  0  0  0  0  0  0  0  0  0  0
   -6.8205   -0.4959    0.0000 N   0  0  0  0  0  0  0  0  0  0  0  0
   -7.0219    0.9906    0.0000 N   0  0  0  0  0  0  0  0  0  0  0  0
   -8.3428    1.7014    0.0000 C   0  0  0  0  0  0  0  0  0  0  0  0
   -8.0750    3.1773    0.0000 C   0  0  0  0  0  0  0  0  0  0  0  0
   -6.5885    3.3786    0.0000 N   0  0  0  0  0  0  0  0  0  0  0  0
   -5.8777    4.6995    0.0000 C   0  0  0  0  0  0  0  0  0  0  0  0
   -6.6663    5.9755    0.0000 O   0  0  0  0  0  0  0  0  0  0  0  0
   -4.3784    4.7444    0.0000 N   0  0  0  0  0  0  0  0  0  0  0  0
   -3.6676    6.0653    0.0000 C   0  0  0  0  0  0  0  0  0  0  0  0
   -2.1683    6.1101    0.0000 N   0  0  0  0  0  0  0  0  0  0  0  0
   -1.4575    7.4310    0.0000 N   0  0  0  0  0  0  0  0  0  0  0  0
   -2.2460    8.7071    0.0000 N   0  0  0  0  0  0  0  0  0  0  0  0
   -3.7453    8.6622    0.0000 N   0  0  0  0  0  0  0  0  0  0  0  0
   -4.4561    7.3413    0.0000 N   0  0  0  0  0  0  0  0  0  0  0  0
   -5.9377    2.0272    0.0000 C   0  0  0  0  0  0  0  0  0  0  0  0
   -4.4618    1.7593    0.0000 O   0  0  0  0  0  0  0  0  0  0  0  0
   -0.3846   -1.6852    0.0000 C   0  0  0  0  0  0  0  0  0  0  0  0
   -0.7184   -3.1476    0.0000 O   0  0  0  0  0  0  0  0  0  0  0  0
    1.0777   -1.3515    0.0000 N   0  0  0  0  0  0  0  0  0  0  0  0
  1  2  1  0
  2  3  1  0
  3  4  1  0
  4  5  1  0
  5  6  1  0
  6  7  1  0
  7  8  2  0
  7  9  1  0
  9 10  1  0
 10 11  2  0
 11 12  1  0
 12 13  2  0
 13 14  1  0
 14 15  1  0
 15 16  1  0
 16 17  1  0
 17 18  1  0
 18 19  1  0
 19 20  2  0
 19 21  1  0
 21 22  1  0
 22 23  2  0
 23 24  1  0
 24 25  2  0
 25 26  1  0
 26 27  2  0
 18 28  1  0
 28 29  2  0
  6 30  1  0
 30 31  2  0
 30 32  1  0
 32  2  1  0
 14 10  1  0
 28 15  1  0
 27 22  1  0
M  END
>  <Title>  (119) 
idAACQgen13

$$$$

     RDKit          2D

 78 78  0  0  0  0  0  0  0  0999 V2000
  109.5000    0.0000    0.0000 C   0  0  0  0  0  0  0  0  0  0  0  0
  108.0000    0.0000    0.0000 C   0  0  0  0  0  0  0  0  0  0  0  0
  106.5000    0.0000    0.0000 C   0  0  0  0  0  0  0  0  0  0  0  0
  105.0000    0.0000    0.0000 C   0  0  0  0  0  0  0  0  0  0  0  0
  103.5000    0.0000    0.0000 C   0  0  0  0  0  0  0  0  0  0  0  0
  102.0000    0.0000    0.0000 C   0  0  0  0  0  0  0  0  0  0  0  0
  100.5000    0.0000    0.0000 C   0  0  0  0  0  0  0  0  0  0  0  0
   99.0000    0.0000    0.0000 C   0  0  0  0  0  0  0  0  0  0  0  0
   97.5000    0.0000    0.0000 C   0  0  0  0  0  0  0  0  0  0  0  0
   96.0000    0.0000    0.0000 C   0  0  0  0  0  0  0  0  0  0  0  0
   94.5000    0.0000    0.0000 C   0  0  0  0  0  0  0  0  0  0  0  0
   93.0000    0.0000    0.0000 C   0  0  0  0  0  0  0  0  0  0  0  0
   91.5000    0.0000    0.0000 C   0  0  0  0  0  0  0  0  0  0  0  0
   90.0000    0.0000    0.0000 C   0  0  0  0  0  0  0  0  0  0  0  0
   88.5000    0.0000    0.0000 C   0  0  0  0  0  0  0  0  0  0  0  0
   87.0000    0.0000    0.0000 C   0  0  0  0  0  0  0  0  0  0  0  0
   85.5000    0.0000    0.0000 C   0  0  0  0  0  0  0  0  0  0  0  0
   84.0000    0.0000    0.0000 C   0  0  0  0  0  0  0  0  0  0  0  0
   82.5000    0.0000    0.0000 C   0  0  0  0  0  0  0  0  0  0  0  0
   81.0000    0.0000    0.0000 C   0  0  0  0  0  0  0  0  0  0  0  0
   79.5000    0.0000    0.0000 C   0  0  0  0  0  0  0  0  0  0  0  0
   78.0000    0.0000    0.0000 C   0  0  0  0  0  0  0  0  0  0  0  0
   76.5000    0.0000    0.0000 C   0  0  0  0  0  0  0  0  0  0  0  0
   75.0000    0.0000    0.0000 C   0  0  0  0  0  0  0  0  0  0  0  0
   73.5000    0.0000    0.0000 C   0  0  0  0  0  0  0  0  0  0  0  0
   72.0000    0.0000    0.0000 C   0  0  0  0  0  0  0  0  0  0  0  0
   70.5000    0.0000    0.0000 C   0  0  0  0  0  0  0  0  0  0  0  0
   69.0000    0.0000    0.0000 C   0  0  0  0  0  0  0  0  0  0  0  0
   67.5000    0.0000    0.0000 C   0  0  0  0  0  0  0  0  0  0  0  0
   66.0000    0.0000    0.0000 C   0  0  0  0  0  0  0  0  0  0  0  0
   64.5000    0.0000    0.0000 C   0  0  0  0  0  0  0  0  0  0  0  0
   63.0000    0.0000    0.0000 C   0  0  0  0  0  0  0  0  0  0  0  0
   61.5000    0.0000    0.0000 C   0  0  0  0  0  0  0  0  0  0  0  0
   60.0000    0.0000    0.0000 C   0  0  0  0  0  0  0  0  0  0  0  0
   58.5000    0.0000    0.0000 C   0  0  0  0  0  0  0  0  0  0  0  0
   57.0000    0.0000    0.0000 C   0  0  0  0  0  0  0  0  0  0  0  0
   55.5000    0.0000    0.0000 C   0  0  0  0  0  0  0  0  0  0  0  0
   54.0000    0.0000    0.0000 C   0  0  0  0  0  0  0  0  0  0  0  0
   52.5000    0.0000    0.0000 C   0  0  0  0  0  0  0  0  0  0  0  0
   51.0000    0.0000    0.0000 C   0  0  0  0  0  0  0  0  0  0  0  0
   49.5000    0.0000    0.0000 C   0  0  0  0  0  0  0  0  0  0  0  0
   48.0000    0.0000    0.0000 C   0  0  0  0  0  0  0  0  0  0  0  0
   46.5000    0.0000    0.0000 C   0  0  0  0  0  0  0  0  0  0  0  0
   45.0000    0.0000    0.0000 C   0  0  0  0  0  0  0  0  0  0  0  0
   43.5000    0.0000    0.0000 C   0  0  0  0  0  0  0  0  0  0  0  0
   42.0000    0.0000    0.0000 C   0  0  0  0  0  0  0  0  0  0  0  0
   40.5000    0.0000    0.0000 C   0  0  0  0  0  0  0  0  0  0  0  0
   39.0000    0.0000    0.0000 C   0  0  0  0  0  0  0  0  0  0  0  0
   37.5000    0.0000    0.0000 C   0  0  0  0  0  0  0  0  0  0  0  0
   36.0000    0.0000    0.0000 C   0  0  0  0  0  0  0  0  0  0  0  0
   34.5000    0.0000    0.0000 C   0  0  0  0  0  0  0  0  0  0  0  0
   33.0000    0.0000    0.0000 C   0  0  0  0  0  0  0  0  0  0  0  0
   31.5000    0.0000    0.0000 C   0  0  0  0  0  0  0  0  0  0  0  0
   30.0000    0.0000    0.0000 C   0  0  0  0  0  0  0  0  0  0  0  0
   28.5000    0.0000    0.0000 C   0  0  0  0  0  0  0  0  0  0  0  0
   27.0000    0.0000    0.0000 C   0  0  0  0  0  0  0  0  0  0  0  0
   25.5000    0.0000    0.0000 C   0  0  0  0  0  0  0  0  0  0  0  0
   24.0000    0.0000    0.0000 C   0  0  0  0  0  0  0  0  0  0  0  0
   22.5000    0.0000    0.0000 C   0  0  0  0  0  0  0  0  0  0  0  0
   21.0000    0.0000    0.0000 C   0  0  0  0  0  0  0  0  0  0  0  0
   19.5000    0.0000    0.0000 C   0  0  0  0  0  0  0  0  0  0  0  0
   18.0000    0.0000    0.0000 C   0  0  0  0  0  0  0  0  0  0  0  0
   16.5000    0.0000    0.0000 C   0  0  0  0  0  0  0  0  0  0  0  0
   15.0000    0.0000    0.0000 C   0  0  0  0  0  0  0  0  0  0  0  0
   13.5000    0.0000    0.0000 C   0  0  0  0  0  0  0  0  0  0  0  0
   12.0000    0.0000    0.0000 C   0  0  0  0  0  0  0  0  0  0  0  0
   10.5000    0.0000    0.0000 C   0  0  0  0  0  0  0  0  0  0  0  0
    9.0000    0.0000    0.0000 C   0  0  0  0  0  0  0  0  0  0  0  0
    7.5000    0.0000    0.0000 C   0  0  0  0  0  0  0  0  0  0  0  0
    6.0000    0.0000    0.0000 C   0  0  0  0  0  0  0  0  0  0  0  0
    4.5000    0.0000    0.0000 C   0  0  0  0  0  0  0  0  0  0  0  0
    3.0000    0.0000    0.0000 C   0  0  0  0  0  0  0  0  0  0  0  0
    1.5000    0.0000    0.0000 C   0  0  0  0  0  0  0  0  0  0  0  0
    0.7500   -1.2990    0.0000 C   0  0  0  0  0  0  0  0  0  0  0  0
   -0.7500   -1.2990    0.0000 C   0  0  0  0  0  0  0  0  0  0  0  0
   -1.5000    0.0000    0.0000 C   0  0  0  0  0  0  0  0  0  0  0  0
   -0.7500    1.2990    0.0000 C   0  0  0  0  0  0  0  0  0  0  0  0
    0.7500    1.2990    0.0000 C   0  0  0  0  0  0  0  0  0  0  0  0
  1  2  3  0
  2  3  1  0
  3  4  3  0
  4  5  1  0
  5  6  3  0
  6  7  1  0
  7  8  3  0
  8  9  1  0
  9 10  3  0
 10 11  1  0
 11 12  3  0
 12 13  1  0
 13 14  3  0
 14 15  1  0
 15 16  3  0
 16 17  1  0
 17 18  3  0
 18 19  1  0
 19 20  3  0
 20 21  1  0
 21 22  3  0
 22 23  1  0
 23 24  3  0
 24 25  1  0
 25 26  3  0
 26 27  1  0
 27 28  3  0
 28 29  1  0
 29 30  3  0
 30 31  1  0
 31 32  3  0
 32 33  1  0
 33 34  3  0
 34 35  1  0
 35 36  3  0
 36 37  1  0
 37 38  3  0
 38 39  1  0
 39 40  3  0
 40 41  1  0
 41 42  3  0
 42 43  1  0
 43 44  3  0
 44 45  1  0
 45 46  3  0
 46 47  1  0
 47 48  3  0
 48 49  1  0
 49 50  3  0
 50 51  1  0
 51 52  3  0
 52 53  1  0
 53 54  3  0
 54 55  1  0
 55 56  3  0
 56 57  1  0
 57 58  3  0
 58 59  1  0
 59 60  3  0
 60 61  1  0
 61 62  3  0
 62 63  1  0
 63 64  3  0
 64 65  1  0
 65 66  3  0
 66 67  1  0
 67 68  3  0
 68 69  1  0
 69 70  3  0
 70 71  1  0
 71 72  3  0
 72 73  1  0
 73 74  2  0
 74 75  1  0
 75 76  2  0
 76 77  1  0
 77 78  2  0
 78 73  1  0
M  END
>  <Title>  (120) 
idAACRgen13

$$$$

     RDKit          2D

 31 35  0  0  0  0  0  0  0  0999 V2000
   -3.0000   -2.5981    0.0000 C   0  0  0  0  0  0  0  0  0  0  0  0
   -1.5000   -2.5981    0.0000 C   0  0  0  0  0  0  0  0  0  0  0  0
   -0.7500   -3.8971    0.0000 C   0  0  0  0  0  0  0  0  0  0  0  0
    0.7500   -3.8971    0.0000 C   0  0  0  0  0  0  0  0  0  0  0  0
    1.5000   -2.5981    0.0000 C   0  0  0  0  0  0  0  0  0  0  0  0
    3.0000   -2.5981    0.0000 C   0  0  0  0  0  0  0  0  0  0  0  0
    3.7500   -1.2990    0.0000 O   0  0  0  0  0  0  0  0  0  0  0  0
    3.7500   -3.8971    0.0000 N   0  0  0  0  0  0  0  0  0  0  0  0
    5.2500   -3.8971    0.0000 C   0  0  0  0  0  0  0  0  0  0  0  0
    6.1317   -2.6836    0.0000 N   0  0  0  0  0  0  0  0  0  0  0  0
    7.5583   -3.1471    0.0000 N   0  0  0  0  0  0  0  0  0  0  0  0
    7.5583   -4.6471    0.0000 N   0  0  0  0  0  0  0  0  0  0  0  0
    6.1317   -5.1106    0.0000 N   0  0  0  0  0  0  0  0  0  0  0  0
    5.6682   -6.5372    0.0000 N   0  0  0  0  0  0  0  0  0  0  0  0
    6.5498   -7.7508    0.0000 C   0  0  0  0  0  0  0  0  0  0  0  0
    5.6682   -8.9643    0.0000 C   0  0  0  0  0  0  0  0  0  0  0  0
    4.2416   -8.5008    0.0000 N   0  0  0  0  0  0  0  0  0  0  0  0
    3.0280   -9.3824    0.0000 C   0  0  0  0  0  0  0  0  0  0  0  0
    1.6577   -8.7723    0.0000 N   0  0  0  0  0  0  0  0  0  0  0  0
    0.4442   -9.6540    0.0000 N   0  0  0  0  0  0  0  0  0  0  0  0
    0.6010  -11.1458    0.0000 N   0  0  0  0  0  0  0  0  0  0  0  0
    1.9713  -11.7559    0.0000 N   0  0  0  0  0  0  0  0  0  0  0  0
    3.1848  -10.8742    0.0000 N   0  0  0  0  0  0  0  0  0  0  0  0
    4.2416   -7.0008    0.0000 C   0  0  0  0  0  0  0  0  0  0  0  0
    3.0280   -6.1191    0.0000 O   0  0  0  0  0  0  0  0  0  0  0  0
    0.7500   -1.2990    0.0000 C   0  0  0  0  0  0  0  0  0  0  0  0
    1.5000    0.0000    0.0000 C   0  0  0  0  0  0  0  0  0  0  0  0
    0.7500    1.2990    0.0000 C   0  0  0  0  0  0  0  0  0  0  0  0
   -0.7500    1.2990    0.0000 C   0  0  0  0  0  0  0  0  0  0  0  0
   -1.5000    0.0000    0.0000 C   0  0  0  0  0  0  0  0  0  0  0  0
   -0.7500   -1.2990    0.0000 C   0  0  0  0  0  0  0  0  0  0  0  0
  1  2  1  0
  2  3  2  0
  3  4  1  0
  4  5  2  0
  5  6  1  0
  6  7  2  0
  6  8  1  0
  8  9  1  0
  9 10  2  0
 10 11  1  0
 11 12  2  0
 12 13  1  0
 13 14  1  0
 14 15  1  0
 15 16  1  0
 16 17  1  0
 17 18  1  0
 18 19  2  0
 19 20  1  0
 20 21  2  0
 21 22  1  0
 22 23  2  0
 17 24  1  0
 24 25  2  0
  5 26  1  0
 26 27  2  0
 27 28  1  0
 28 29  2  0
 29 30  1  0
 30 31  2  0
 31  2  1  0
 13  9  1  0
 24 14  1  0
 31 26  1  0
 23 18  1  0
M  END
>  <Title>  (121) 
idAACSgen13

$$$$

     RDKit          2D

 10  9  0  0  0  0  0  0  0  0999 V2000
    0.0000    0.0000    0.0000 C   0  0  0  0  0  0  0  0  0  0  0  0
   -0.0000   -1.5000    0.0000 C   0  0  0  0  0  0  0  0  0  0  0  0
   -0.0000   -3.0000    0.0000 C   0  0  0  0  0  0  0  0  0  0  0  0
    1.2990   -3.7500    0.0000 C   0  0  0  0  0  0  0  0  0  0  0  0
    1.2990   -5.2500    0.0000 C   0  0  0  0  0  0  0  0  0  0  0  0
    2.5981   -6.0000    0.0000 C   0  0  0  0  0  0  0  0  0  0  0  0
    2.5981   -7.5000    0.0000 C   0  0  0  0  0  0  0  0  0  0  0  0
    3.8971   -8.2500    0.0000 C   0  0  0  0  0  0  0  0  0  0  0  0
    3.8971   -9.7500    0.0000 C   0  0  0  0  0  0  0  0  0  0  0  0
    5.1962   -7.5000    0.0000 C   0  0  0  0  0  0  0  0  0  0  0  0
  1  2  3  0
  2  3  1  0
  3  4  1  0
  4  5  1  0
  5  6  1  0
  6  7  1  0
  7  8  1  0
  8  9  1  0
  8 10  1  0
M  END
>  <Title>  (122) 
idAACTgen13

$$$$

     RDKit          2D

  8  8  0  0  0  0  0  0  0  0999 V2000
    7.0607    0.0000    0.0000 C   0  0  0  0  0  0  0  0  0  0  0  0
    5.5607    0.0000    0.0000 C   0  0  0  0  0  0  0  0  0  0  0  0
    4.0607    0.0000    0.0000 C   0  0  0  0  0  0  0  0  0  0  0  0
    2.5607    0.0000    0.0000 C   0  0  0  0  0  0  0  0  0  0  0  0
    1.0607    0.0000    0.0000 N   0  0  0  0  0  0  0  0  0  0  0  0
   -0.0000   -1.0607    0.0000 C   0  0  0  0  0  0  0  0  0  0  0  0
   -1.0607    0.0000    0.0000 C   0  0  0  0  0  0  0  0  0  0  0  0
    0.0000    1.0607    0.0000 C   0  0  0  0  0  0  0  0  0  0  0  0
  1  2  3  0
  2  3  1  0
  3  4  3  0
  4  5  1  0
  5  6  1  0
  6  7  2  0
  7  8  1  0
  8  5  1  0
M  END
>  <Title>  (123) 
idAACUgen13

$$$$

     RDKit          2D

 19 20  0  0  0  0  0  0  0  0999 V2000
    7.3324    1.3845    0.0000 C   0  0  0  0  0  0  0  0  0  0  0  0
    5.8351    1.2947    0.0000 C   0  0  0  0  0  0  0  0  0  0  0  0
    4.3378    1.2050    0.0000 C   0  0  0  0  0  0  0  0  0  0  0  0
    3.5115    2.4569    0.0000 C   0  0  0  0  0  0  0  0  0  0  0  0
    4.0385    3.8613    0.0000 N   0  0  0  0  0  0  0  0  0  0  0  0
    2.8658    4.7965    0.0000 N   0  0  0  0  0  0  0  0  0  0  0  0
    1.6139    3.9701    0.0000 N   0  0  0  0  0  0  0  0  0  0  0  0
    2.0130    2.5242    0.0000 N   0  0  0  0  0  0  0  0  0  0  0  0
    1.0777    1.3515    0.0000 C   0  0  0  0  0  0  0  0  0  0  0  0
    1.7286    0.0000    0.0000 C   0  0  0  0  0  0  0  0  0  0  0  0
    1.0777   -1.3515    0.0000 C   0  0  0  0  0  0  0  0  0  0  0  0
   -0.3846   -1.6852    0.0000 C   0  0  0  0  0  0  0  0  0  0  0  0
   -0.7184   -3.1476    0.0000 O   0  0  0  0  0  0  0  0  0  0  0  0
    0.3812   -4.1679    0.0000 C   0  0  0  0  0  0  0  0  0  0  0  0
   -1.5574   -0.7500    0.0000 C   0  0  0  0  0  0  0  0  0  0  0  0
   -2.9088   -1.4008    0.0000 O   0  0  0  0  0  0  0  0  0  0  0  0
   -1.5574    0.7500    0.0000 C   0  0  0  0  0  0  0  0  0  0  0  0
   -2.9088    1.4008    0.0000 C   0  0  0  0  0  0  0  0  0  0  0  0
   -0.3846    1.6852    0.0000 C   0  0  0  0  0  0  0  0  0  0  0  0
  1  2  3  0
  2  3  1  0
  3  4  1  0
  4  5  2  0
  5  6  1  0
  6  7  2  0
  7  8  1  0
  8  9  1  0
  9 10  2  0
 10 11  1  0
 11 12  2  0
 12 13  1  0
 13 14  1  0
 12 15  1  0
 15 16  1  0
 15 17  1  0
 17 18  1  0
 17 19  1  0
  8  4  1  0
 19  9  1  0
M  END
>  <Title>  (124) 
idAACVgen13

$$$$

     RDKit          2D

  7  6  0  0  0  0  0  0  0  0999 V2000
    0.0000    0.0000    0.0000 C   0  0  0  0  0  0  0  0  0  0  0  0
   -0.0000   -1.5000    0.0000 C   0  0  0  0  0  0  0  0  0  0  0  0
   -0.0000   -3.0000    0.0000 C   0  0  0  0  0  0  0  0  0  0  0  0
    1.2990   -3.7500    0.0000 C   0  0  0  0  0  0  0  0  0  0  0  0
    1.2990   -5.2500    0.0000 C   0  0  0  0  0  0  0  0  0  0  0  0
    2.5981   -6.0000    0.0000 C   0  0  0  0  0  0  0  0  0  0  0  0
   -0.0000   -6.0000    0.0000 N   0  0  0  0  0  0  0  0  0  0  0  0
  1  2  3  0
  2  3  1  0
  3  4  1  0
  4  5  1  0
  5  6  1  0
  5  7  1  0
M  END
>  <Title>  (125) 
idAACWgen13

$$$$

     RDKit          2D

 10  9  0  0  0  0  0  0  0  0999 V2000
    0.0000    0.0000    0.0000 C   0  0  0  0  0  0  0  0  0  0  0  0
   -0.0000   -1.5000    0.0000 C   0  0  0  0  0  0  0  0  0  0  0  0
   -0.0000   -3.0000    0.0000 C   0  0  0  0  0  0  0  0  0  0  0  0
   -0.0000   -4.5000    0.0000 C   0  0  0  0  0  0  0  0  0  0  0  0
   -0.0000   -6.0000    0.0000 C   0  0  0  0  0  0  0  0  0  0  0  0
   -0.0000   -7.5000    0.0000 C   0  0  0  0  0  0  0  0  0  0  0  0
   -0.0000   -9.0000    0.0000 C   0  0  0  0  0  0  0  0  0  0  0  0
    1.2990   -9.7500    0.0000 C   0  0  0  0  0  0  0  0  0  0  0  0
    1.2990  -11.2500    0.0000 C   0  0  0  0  0  0  0  0  0  0  0  0
    1.2990  -12.7500    0.0000 C   0  0  0  0  0  0  0  0  0  0  0  0
  1  2  3  0
  2  3  1  0
  3  4  3  0
  4  5  1  0
  5  6  3  0
  6  7  1  0
  7  8  2  3
  8  9  1  0
  9 10  3  0
M  END
>  <Title>  (126) 
idAACXgen13

$$$$

     RDKit          2D

  5  4  0  0  0  0  0  0  0  0999 V2000
    0.0000    0.0000    0.0000 C   0  0  0  0  0  0  0  0  0  0  0  0
    1.2990    0.7500    0.0000 C   0  0  0  0  0  0  0  0  0  0  0  0
    2.5981   -0.0000    0.0000 C   0  0  0  0  0  0  0  0  0  0  0  0
    3.8971    0.7500    0.0000 C   0  0  0  0  0  0  0  0  0  0  0  0
    5.1962   -0.0000    0.0000 O   0  0  0  0  0  0  0  0  0  0  0  0
  1  2  2  0
  2  3  1  0
  3  4  2  3
  4  5  1  0
M  END
>  <Title>  (127) 
idAACYgen13

$$$$

     RDKit          2D

 41 46  0  0  0  0  0  0  0  0999 V2000
   -1.3240   -6.3062    0.0000 C   0  0  0  0  0  0  0  0  0  0  0  0
   -0.7500   -4.9204    0.0000 C   0  0  0  0  0  0  0  0  0  0  0  0
    0.7500   -4.9204    0.0000 C   0  0  0  0  0  0  0  0  0  0  0  0
    1.8107   -3.8597    0.0000 C   0  0  0  0  0  0  0  0  0  0  0  0
    1.8107   -2.3597    0.0000 C   0  0  0  0  0  0  0  0  0  0  0  0
    3.1965   -1.7857    0.0000 C   0  0  0  0  0  0  0  0  0  0  0  0
    3.3923   -0.2985    0.0000 O   0  0  0  0  0  0  0  0  0  0  0  0
    4.3865   -2.6988    0.0000 N   0  0  0  0  0  0  0  0  0  0  0  0
    5.7723   -2.1248    0.0000 C   0  0  0  0  0  0  0  0  0  0  0  0
    6.1225   -0.6662    0.0000 N   0  0  0  0  0  0  0  0  0  0  0  0
    7.6179   -0.5485    0.0000 N   0  0  0  0  0  0  0  0  0  0  0  0
    8.1919   -1.9344    0.0000 N   0  0  0  0  0  0  0  0  0  0  0  0
    7.0513   -2.9085    0.0000 N   0  0  0  0  0  0  0  0  0  0  0  0
    7.1690   -4.4039    0.0000 N   0  0  0  0  0  0  0  0  0  0  0  0
    8.4479   -5.1877    0.0000 C   0  0  0  0  0  0  0  0  0  0  0  0
    8.0978   -6.6462    0.0000 C   0  0  0  0  0  0  0  0  0  0  0  0
    6.6024   -6.7639    0.0000 N   0  0  0  0  0  0  0  0  0  0  0  0
    5.8186   -8.0429    0.0000 C   0  0  0  0  0  0  0  0  0  0  0  0
    6.5344   -9.3611    0.0000 O   0  0  0  0  0  0  0  0  0  0  0  0
    4.3192   -8.0036    0.0000 N   0  0  0  0  0  0  0  0  0  0  0  0
    3.5354   -9.2826    0.0000 C   0  0  0  0  0  0  0  0  0  0  0  0
    2.0359   -9.2433    0.0000 N   0  0  0  0  0  0  0  0  0  0  0  0
    1.2522  -10.5223    0.0000 N   0  0  0  0  0  0  0  0  0  0  0  0
    1.9679  -11.8405    0.0000 N   0  0  0  0  0  0  0  0  0  0  0  0
    3.4674  -11.8797    0.0000 N   0  0  0  0  0  0  0  0  0  0  0  0
    4.2512  -10.6008    0.0000 N   0  0  0  0  0  0  0  0  0  0  0  0
    6.0284   -5.3781    0.0000 C   0  0  0  0  0  0  0  0  0  0  0  0
    4.5698   -5.0279    0.0000 O   0  0  0  0  0  0  0  0  0  0  0  0
    0.7500   -1.2990    0.0000 C   0  0  0  0  0  0  0  0  0  0  0  0
    1.5000    0.0000    0.0000 C   0  0  0  0  0  0  0  0  0  0  0  0
    0.7500    1.2990    0.0000 C   0  0  0  0  0  0  0  0  0  0  0  0
   -0.7500    1.2990    0.0000 C   0  0  0  0  0  0  0  0  0  0  0  0
   -1.5000    0.0000    0.0000 C   0  0  0  0  0  0  0  0  0  0  0  0
   -0.7500   -1.2990    0.0000 C   0  0  0  0  0  0  0  0  0  0  0  0
   -1.8107   -2.3597    0.0000 C   0  0  0  0  0  0  0  0  0  0  0  0
   -3.1097   -1.6097    0.0000 C   0  0  0  0  0  0  0  0  0  0  0  0
   -4.4087   -2.3597    0.0000 C   0  0  0  0  0  0  0  0  0  0  0  0
   -4.4087   -3.8597    0.0000 C   0  0  0  0  0  0  0  0  0  0  0  0
   -5.7078   -4.6097    0.0000 O   0  0  0  0  0  0  0  0  0  0  0  0
   -3.1097   -4.6097    0.0000 C   0  0  0  0  0  0  0  0  0  0  0  0
   -1.8107   -3.8597    0.0000 C   0  0  0  0  0  0  0  0  0  0  0  0
  1  2  1  0
  2  3  1  0
  3  4  2  0
  4  5  1  0
  5  6  1  0
  6  7  2  0
  6  8  1  0
  8  9  1  0
  9 10  2  0
 10 11  1  0
 11 12  2  0
 12 13  1  0
 13 14  1  0
 14 15  1  0
 15 16  1  0
 16 17  1  0
 17 18  1  0
 18 19  2  0
 18 20  1  0
 20 21  1  0
 21 22  2  0
 22 23  1  0
 23 24  2  0
 24 25  1  0
 25 26  2  0
 17 27  1  0
 27 28  2  0
  5 29  1  0
 29 30  2  0
 30 31  1  0
 31 32  2  0
 32 33  1  0
 33 34  2  0
 34 35  1  0
 35 36  2  0
 36 37  1  0
 37 38  2  0
 38 39  1  0
 38 40  1  0
 40 41  2  0
 41  2  1  0
 13  9  1  0
 27 14  1  0
 34 29  1  0
 41 35  1  0
 26 21  1  0
M  END
>  <Title>  (128) 
idAACZgen13

$$$$

     RDKit          2D

 86 87  0  0  0  0  0  0  0  0999 V2000
   -2.1933   -1.0733    0.0000 C   0  0  0  0  0  0  0  0  0  0  0  0
   -2.4902    0.3970    0.0000 C   0  0  0  0  0  0  0  0  0  0  0  0
   -3.9708    0.1567    0.0000 C   0  0  0  0  0  0  0  0  0  0  0  0
   -5.4655    0.0304    0.0000 C   0  0  0  0  0  0  0  0  0  0  0  0
   -6.9654    0.0189    0.0000 C   0  0  0  0  0  0  0  0  0  0  0  0
   -8.4619    0.1223    0.0000 C   0  0  0  0  0  0  0  0  0  0  0  0
   -9.9460    0.3399    0.0000 C   0  0  0  0  0  0  0  0  0  0  0  0
  -11.4091    0.6705    0.0000 C   0  0  0  0  0  0  0  0  0  0  0  0
  -12.8426    1.1121    0.0000 C   0  0  0  0  0  0  0  0  0  0  0  0
  -14.2381    1.6621    0.0000 C   0  0  0  0  0  0  0  0  0  0  0  0
  -15.5874    2.3174    0.0000 C   0  0  0  0  0  0  0  0  0  0  0  0
  -16.8826    3.0740    0.0000 C   0  0  0  0  0  0  0  0  0  0  0  0
  -18.1161    3.9276    0.0000 C   0  0  0  0  0  0  0  0  0  0  0  0
  -19.2806    4.8731    0.0000 C   0  0  0  0  0  0  0  0  0  0  0  0
  -20.3693    5.9049    0.0000 C   0  0  0  0  0  0  0  0  0  0  0  0
  -21.3759    7.0170    0.0000 C   0  0  0  0  0  0  0  0  0  0  0  0
  -22.2943    8.2030    0.0000 C   0  0  0  0  0  0  0  0  0  0  0  0
  -23.1193    9.4557    0.0000 C   0  0  0  0  0  0  0  0  0  0  0  0
  -23.8460   10.7680    0.0000 C   0  0  0  0  0  0  0  0  0  0  0  0
  -24.4700   12.1320    0.0000 C   0  0  0  0  0  0  0  0  0  0  0  0
  -24.9879   13.5398    0.0000 C   0  0  0  0  0  0  0  0  0  0  0  0
  -25.3964   14.9831    0.0000 C   0  0  0  0  0  0  0  0  0  0  0  0
  -25.6933   16.4534    0.0000 C   0  0  0  0  0  0  0  0  0  0  0  0
  -25.8767   17.9421    0.0000 C   0  0  0  0  0  0  0  0  0  0  0  0
  -25.9456   19.4406    0.0000 C   0  0  0  0  0  0  0  0  0  0  0  0
  -25.8997   20.9399    0.0000 C   0  0  0  0  0  0  0  0  0  0  0  0
  -25.7391   22.4312    0.0000 C   0  0  0  0  0  0  0  0  0  0  0  0
  -25.4648   23.9059    0.0000 C   0  0  0  0  0  0  0  0  0  0  0  0
  -25.0784   25.3553    0.0000 C   0  0  0  0  0  0  0  0  0  0  0  0
  -24.5822   26.7709    0.0000 C   0  0  0  0  0  0  0  0  0  0  0  0
  -23.9791   28.1443    0.0000 C   0  0  0  0  0  0  0  0  0  0  0  0
  -23.2726   29.4675    0.0000 C   0  0  0  0  0  0  0  0  0  0  0  0
  -22.4670   30.7328    0.0000 C   0  0  0  0  0  0  0  0  0  0  0  0
  -21.5668   31.9326    0.0000 C   0  0  0  0  0  0  0  0  0  0  0  0
  -20.5774   33.0601    0.0000 C   0  0  0  0  0  0  0  0  0  0  0  0
  -19.5046   34.1085    0.0000 C   0  0  0  0  0  0  0  0  0  0  0  0
  -18.3547   35.0717    0.0000 C   0  0  0  0  0  0  0  0  0  0  0  0
  -17.1345   35.9440    0.0000 C   0  0  0  0  0  0  0  0  0  0  0  0
  -15.8511   36.7204    0.0000 C   0  0  0  0  0  0  0  0  0  0  0  0
  -14.5120   37.3963    0.0000 C   0  0  0  0  0  0  0  0  0  0  0  0
  -13.1250   37.9677    0.0000 C   0  0  0  0  0  0  0  0  0  0  0  0
  -11.6985   38.4312    0.0000 C   0  0  0  0  0  0  0  0  0  0  0  0
  -10.2406   38.7841    0.0000 C   0  0  0  0  0  0  0  0  0  0  0  0
   -8.7599   39.0245    0.0000 C   0  0  0  0  0  0  0  0  0  0  0  0
   -7.2653   39.1507    0.0000 C   0  0  0  0  0  0  0  0  0  0  0  0
   -5.7653   39.1622    0.0000 C   0  0  0  0  0  0  0  0  0  0  0  0
   -4.2689   39.0589    0.0000 C   0  0  0  0  0  0  0  0  0  0  0  0
   -2.7847   38.8413    0.0000 C   0  0  0  0  0  0  0  0  0  0  0  0
   -1.3216   38.5107    0.0000 C   0  0  0  0  0  0  0  0  0  0  0  0
    0.1119   38.0691    0.0000 C   0  0  0  0  0  0  0  0  0  0  0  0
    1.5074   37.5190    0.0000 C   0  0  0  0  0  0  0  0  0  0  0  0
    2.8567   36.8638    0.0000 C   0  0  0  0  0  0  0  0  0  0  0  0
    4.1519   36.1071    0.0000 C   0  0  0  0  0  0  0  0  0  0  0  0
    5.3854   35.2536    0.0000 C   0  0  0  0  0  0  0  0  0  0  0  0
    6.5499   34.3081    0.0000 C   0  0  0  0  0  0  0  0  0  0  0  0
    7.6386   33.2763    0.0000 C   0  0  0  0  0  0  0  0  0  0  0  0
    8.6451   32.1641    0.0000 C   0  0  0  0  0  0  0  0  0  0  0  0
    9.5636   30.9782    0.0000 C   0  0  0  0  0  0  0  0  0  0  0  0
   10.3886   29.7254    0.0000 C   0  0  0  0  0  0  0  0  0  0  0  0
   11.1152   28.4132    0.0000 C   0  0  0  0  0  0  0  0  0  0  0  0
   11.7393   27.0492    0.0000 C   0  0  0  0  0  0  0  0  0  0  0  0
   12.2571   25.6414    0.0000 C   0  0  0  0  0  0  0  0  0  0  0  0
   12.6657   24.1981    0.0000 C   0  0  0  0  0  0  0  0  0  0  0  0
   12.9625   22.7278    0.0000 C   0  0  0  0  0  0  0  0  0  0  0  0
   13.1460   21.2390    0.0000 C   0  0  0  0  0  0  0  0  0  0  0  0
   13.2149   19.7406    0.0000 C   0  0  0  0  0  0  0  0  0  0  0  0
   13.1689   18.2413    0.0000 C   0  0  0  0  0  0  0  0  0  0  0  0
   13.0083   16.7500    0.0000 C   0  0  0  0  0  0  0  0  0  0  0  0
   12.7340   15.2752    0.0000 C   0  0  0  0  0  0  0  0  0  0  0  0
   12.3477   13.8259    0.0000 C   0  0  0  0  0  0  0  0  0  0  0  0
   11.8515   12.4103    0.0000 C   0  0  0  0  0  0  0  0  0  0  0  0
   11.2484   11.0369    0.0000 C   0  0  0  0  0  0  0  0  0  0  0  0
   10.5419    9.7137    0.0000 C   0  0  0  0  0  0  0  0  0  0  0  0
    9.7362    8.4484    0.0000 C   0  0  0  0  0  0  0  0  0  0  0  0
    8.8361    7.2485    0.0000 C   0  0  0  0  0  0  0  0  0  0  0  0
    7.8467    6.1211    0.0000 C   0  0  0  0  0  0  0  0  0  0  0  0
    6.7739    5.0727    0.0000 C   0  0  0  0  0  0  0  0  0  0  0  0
    5.6240    4.1095    0.0000 C   0  0  0  0  0  0  0  0  0  0  0  0
    4.4038    3.2371    0.0000 C   0  0  0  0  0  0  0  0  0  0  0  0
    3.1203    2.4608    0.0000 C   0  0  0  0  0  0  0  0  0  0  0  0
    1.7812    1.7849    0.0000 C   0  0  0  0  0  0  0  0  0  0  0  0
    0.3943    1.2135    0.0000 C   0  0  0  0  0  0  0  0  0  0  0  0
    1.2760    0.0000    0.0000 C   0  0  0  0  0  0  0  0  0  0  0  0
    0.3943   -1.2135    0.0000 C   0  0  0  0  0  0  0  0  0  0  0  0
   -1.0323   -0.7500    0.0000 C   0  0  0  0  0  0  0  0  0  0  0  0
   -1.0323    0.7500    0.0000 C   0  0  0  0  0  0  0  0  0  0  0  0
  1  2  1  0
  2  3  1  0
  3  4  1  0
  4  5  1  0
  5  6  1  0
  6  7  1  0
  7  8  1  0
  8  9  1  0
  9 10  1  0
 10 11  1  0
 11 12  1  0
 12 13  1  0
 13 14  1  0
 14 15  1  0
 15 16  1  0
 16 17  1  0
 17 18  1  0
 18 19  1  0
 19 20  1  0
 20 21  1  0
 21 22  2  0
 22 23  1  0
 23 24  2  0
 24 25  1  0
 25 26  2  0
 26 27  1  0
 27 28  2  0
 28 29  1  0
 29 30  2  0
 30 31  1  0
 31 32  2  0
 32 33  1  0
 33 34  2  0
 34 35  1  0
 35 36  2  0
 36 37  1  0
 37 38  2  0
 38 39  1  0
 39 40  2  0
 40 41  1  0
 41 42  2  0
 42 43  1  0
 43 44  2  0
 44 45  1  0
 45 46  2  0
 46 47  1  0
 47 48  2  0
 48 49  1  0
 49 50  2  0
 50 51  1  0
 51 52  2  0
 52 53  1  0
 53 54  2  0
 54 55  1  0
 55 56  2  0
 56 57  1  0
 57 58  2  0
 58 59  1  0
 59 60  2  0
 60 61  1  0
 61 62  2  0
 62 63  1  0
 63 64  2  0
 64 65  1  0
 65 66  2  0
 66 67  1  0
 67 68  2  0
 68 69  1  0
 69 70  2  0
 70 71  1  0
 71 72  2  0
 72 73  1  0
 73 74  2  0
 74 75  1  0
 75 76  2  0
 76 77  1  0
 77 78  2  0
 78 79  1  0
 79 80  2  0
 80 81  1  0
 81 82  2  0
 82 83  1  0
 83 84  2  0
 84 85  1  0
 85 86  2  0
 86  2  1  0
 86 82  1  0
M  END
>  <Title>  (129) 
idAADAgen13

$$$$

     RDKit          2D

  4  3  0  0  0  0  0  0  0  0999 V2000
    0.0000    0.0000    0.0000 C   0  0  0  0  0  0  0  0  0  0  0  0
   -0.0000   -1.5000    0.0000 C   0  0  0  0  0  0  0  0  0  0  0  0
   -0.0000   -3.0000    0.0000 C   0  0  0  0  0  0  0  0  0  0  0  0
   -0.0000   -4.5000    0.0000 C   0  0  0  0  0  0  0  0  0  0  0  0
  1  2  3  0
  2  3  1  0
  3  4  3  0
M  END
>  <Title>  (130) 
idAADBgen13

$$$$

     RDKit          2D

 44 49  0  0  0  0  0  0  0  0999 V2000
   -4.2479   -5.2363    0.0000 C   0  0  0  0  0  0  0  0  0  0  0  0
   -2.7990   -4.8481    0.0000 C   0  0  0  0  0  0  0  0  0  0  0  0
   -2.0490   -6.1471    0.0000 C   0  0  0  0  0  0  0  0  0  0  0  0
   -0.7500   -6.8971    0.0000 C   0  0  0  0  0  0  0  0  0  0  0  0
    0.7500   -6.8971    0.0000 C   0  0  0  0  0  0  0  0  0  0  0  0
    2.0490   -6.1471    0.0000 C   0  0  0  0  0  0  0  0  0  0  0  0
    2.7990   -4.8481    0.0000 C   0  0  0  0  0  0  0  0  0  0  0  0
    2.7990   -3.3481    0.0000 C   0  0  0  0  0  0  0  0  0  0  0  0
    2.0490   -2.0490    0.0000 C   0  0  0  0  0  0  0  0  0  0  0  0
    3.1097   -0.9884    0.0000 C   0  0  0  0  0  0  0  0  0  0  0  0
    2.7215    0.4605    0.0000 O   0  0  0  0  0  0  0  0  0  0  0  0
    4.5586   -1.3766    0.0000 N   0  0  0  0  0  0  0  0  0  0  0  0
    5.6192   -0.3159    0.0000 C   0  0  0  0  0  0  0  0  0  0  0  0
    5.3846    1.1656    0.0000 N   0  0  0  0  0  0  0  0  0  0  0  0
    6.7211    1.8466    0.0000 N   0  0  0  0  0  0  0  0  0  0  0  0
    7.7818    0.7859    0.0000 N   0  0  0  0  0  0  0  0  0  0  0  0
    7.1008   -0.5506    0.0000 N   0  0  0  0  0  0  0  0  0  0  0  0
    7.7818   -1.8871    0.0000 N   0  0  0  0  0  0  0  0  0  0  0  0
    9.2633   -2.1218    0.0000 C   0  0  0  0  0  0  0  0  0  0  0  0
    9.4979   -3.6033    0.0000 C   0  0  0  0  0  0  0  0  0  0  0  0
    8.1614   -4.2843    0.0000 N   0  0  0  0  0  0  0  0  0  0  0  0
    7.9268   -5.7658    0.0000 C   0  0  0  0  0  0  0  0  0  0  0  0
    9.0925   -6.7098    0.0000 O   0  0  0  0  0  0  0  0  0  0  0  0
    6.5264   -6.3034    0.0000 N   0  0  0  0  0  0  0  0  0  0  0  0
    6.2918   -7.7849    0.0000 C   0  0  0  0  0  0  0  0  0  0  0  0
    4.8914   -8.3224    0.0000 N   0  0  0  0  0  0  0  0  0  0  0  0
    4.6567   -9.8040    0.0000 N   0  0  0  0  0  0  0  0  0  0  0  0
    5.8225  -10.7480    0.0000 N   0  0  0  0  0  0  0  0  0  0  0  0
    7.2228  -10.2104    0.0000 N   0  0  0  0  0  0  0  0  0  0  0  0
    7.4575   -8.7289    0.0000 N   0  0  0  0  0  0  0  0  0  0  0  0
    7.1008   -3.2236    0.0000 C   0  0  0  0  0  0  0  0  0  0  0  0
    5.6192   -3.4583    0.0000 O   0  0  0  0  0  0  0  0  0  0  0  0
    0.7500   -1.2990    0.0000 C   0  0  0  0  0  0  0  0  0  0  0  0
    1.5000    0.0000    0.0000 C   0  0  0  0  0  0  0  0  0  0  0  0
    0.7500    1.2990    0.0000 C   0  0  0  0  0  0  0  0  0  0  0  0
   -0.7500    1.2990    0.0000 C   0  0  0  0  0  0  0  0  0  0  0  0
   -1.5000    0.0000    0.0000 C   0  0  0  0  0  0  0  0  0  0  0  0
   -0.7500   -1.2990    0.0000 C   0  0  0  0  0  0  0  0  0  0  0  0
   -2.0490   -2.0490    0.0000 C   0  0  0  0  0  0  0  0  0  0  0  0
   -2.7990   -0.7500    0.0000 C   0  0  0  0  0  0  0  0  0  0  0  0
   -4.2990   -0.7500    0.0000 C   0  0  0  0  0  0  0  0  0  0  0  0
   -5.0490   -2.0490    0.0000 C   0  0  0  0  0  0  0  0  0  0  0  0
   -4.2990   -3.3481    0.0000 C   0  0  0  0  0  0  0  0  0  0  0  0
   -2.7990   -3.3481    0.0000 C   0  0  0  0  0  0  0  0  0  0  0  0
  1  2  1  0
  2  3  1  0
  3  4  1  0
  4  5  1  0
  5  6  1  0
  6  7  1  0
  7  8  1  0
  8  9  1  0
  9 10  1  0
 10 11  2  0
 10 12  1  0
 12 13  1  0
 13 14  2  0
 14 15  1  0
 15 16  2  0
 16 17  1  0
 17 18  1  0
 18 19  1  0
 19 20  1  0
 20 21  1  0
 21 22  1  0
 22 23  2  0
 22 24  1  0
 24 25  1  0
 25 26  2  0
 26 27  1  0
 27 28  2  0
 28 29  1  0
 29 30  2  0
 21 31  1  0
 31 32  2  0
  9 33  1  0
 33 34  2  0
 34 35  1  0
 35 36  2  0
 36 37  1  0
 37 38  2  0
 38 39  1  0
 39 40  2  0
 40 41  1  0
 41 42  2  0
 42 43  1  0
 43 44  2  0
 44  2  1  0
 17 13  1  0
 31 18  1  0
 38 33  1  0
 44 39  1  0
 30 25  1  0
M  END
>  <Title>  (131) 
idAADCgen13

$$$$

     RDKit          2D

  7  6  0  0  0  0  0  0  0  0999 V2000
    0.0000    0.0000    0.0000 C   0  0  0  0  0  0  0  0  0  0  0  0
   -0.0000   -1.5000    0.0000 C   0  0  0  0  0  0  0  0  0  0  0  0
   -0.0000   -3.0000    0.0000 C   0  0  0  0  0  0  0  0  0  0  0  0
   -0.0000   -4.5000    0.0000 C   0  0  0  0  0  0  0  0  0  0  0  0
   -0.0000   -6.0000    0.0000 C   0  0  0  0  0  0  0  0  0  0  0  0
    1.2990   -6.7500    0.0000 C   0  0  0  0  0  0  0  0  0  0  0  0
    1.2990   -8.2500    0.0000 C   0  0  0  0  0  0  0  0  0  0  0  0
  1  2  3  0
  2  3  1  0
  3  4  3  0
  4  5  1  0
  5  6  1  0
  6  7  1  0
M  END
>  <Title>  (132) 
idAADDgen13

$$$$

     RDKit          2D

 23 26  0  0  0  0  0  0  0  0999 V2000
   -4.5000   -2.5981    0.0000 N   0  0  0  0  0  0  0  0  0  0  0  0
   -3.0000   -2.5981    0.0000 C   0  0  0  0  0  0  0  0  0  0  0  0
   -1.5000   -2.5981    0.0000 C   0  0  0  0  0  0  0  0  0  0  0  0
   -0.7500   -3.8971    0.0000 C   0  0  0  0  0  0  0  0  0  0  0  0
    0.7500   -3.8971    0.0000 C   0  0  0  0  0  0  0  0  0  0  0  0
    1.5000   -2.5981    0.0000 C   0  0  0  0  0  0  0  0  0  0  0  0
    3.0000   -2.5981    0.0000 N   0  0  0  0  0  0  0  0  0  0  0  0
    3.8817   -1.3846    0.0000 C   0  0  0  0  0  0  0  0  0  0  0  0
    5.3083   -1.8481    0.0000 C   0  0  0  0  0  0  0  0  0  0  0  0
    5.3083   -3.3481    0.0000 C   0  0  0  0  0  0  0  0  0  0  0  0
    6.5218   -4.2298    0.0000 N   0  0  0  0  0  0  0  0  0  0  0  0
    7.9484   -3.7662    0.0000 C   0  0  0  0  0  0  0  0  0  0  0  0
    8.8301   -4.9798    0.0000 C   0  0  0  0  0  0  0  0  0  0  0  0
    7.9484   -6.1933    0.0000 C   0  0  0  0  0  0  0  0  0  0  0  0
    6.5218   -5.7298    0.0000 C   0  0  0  0  0  0  0  0  0  0  0  0
    3.8817   -3.8116    0.0000 C   0  0  0  0  0  0  0  0  0  0  0  0
    3.4182   -5.2382    0.0000 O   0  0  0  0  0  0  0  0  0  0  0  0
    0.7500   -1.2990    0.0000 C   0  0  0  0  0  0  0  0  0  0  0  0
    1.5000    0.0000    0.0000 C   0  0  0  0  0  0  0  0  0  0  0  0
    0.7500    1.2990    0.0000 C   0  0  0  0  0  0  0  0  0  0  0  0
   -0.7500    1.2990    0.0000 C   0  0  0  0  0  0  0  0  0  0  0  0
   -1.5000    0.0000    0.0000 C   0  0  0  0  0  0  0  0  0  0  0  0
   -0.7500   -1.2990    0.0000 C   0  0  0  0  0  0  0  0  0  0  0  0
  1  2  3  0
  2  3  1  0
  3  4  2  0
  4  5  1  0
  5  6  2  0
  6  7  1  0
  7  8  1  0
  8  9  1  0
  9 10  2  0
 10 11  1  0
 11 12  1  0
 12 13  1  0
 13 14  1  0
 14 15  1  0
 10 16  1  0
 16 17  2  0
  6 18  1  0
 18 19  2  0
 19 20  1  0
 20 21  2  0
 21 22  1  0
 22 23  2  0
 23  3  1  0
 16  7  1  0
 23 18  1  0
 15 11  1  0
M  END
>  <Title>  (133) 
idAADEgen13

$$$$

     RDKit          2D

 11 12  0  0  0  0  0  0  0  0999 V2000
    1.6559    3.8844    0.0000 C   0  0  0  0  0  0  0  0  0  0  0  0
    0.1935    4.2182    0.0000 C   0  0  0  0  0  0  0  0  0  0  0  0
   -0.8268    3.1186    0.0000 C   0  0  0  0  0  0  0  0  0  0  0  0
   -0.3846    1.6852    0.0000 C   0  0  0  0  0  0  0  0  0  0  0  0
    1.0777    1.3515    0.0000 C   0  0  0  0  0  0  0  0  0  0  0  0
    2.0980    2.4510    0.0000 C   0  0  0  0  0  0  0  0  0  0  0  0
    1.7286    0.0000    0.0000 C   0  0  0  0  0  0  0  0  0  0  0  0
    1.0777   -1.3515    0.0000 C   0  0  0  0  0  0  0  0  0  0  0  0
   -0.3846   -1.6852    0.0000 C   0  0  0  0  0  0  0  0  0  0  0  0
   -1.5574   -0.7500    0.0000 C   0  0  0  0  0  0  0  0  0  0  0  0
   -1.5574    0.7500    0.0000 C   0  0  0  0  0  0  0  0  0  0  0  0
  1  2  2  0
  2  3  1  0
  3  4  2  0
  4  5  1  0
  5  6  2  0
  5  7  1  0
  7  8  1  0
  8  9  1  0
  9 10  1  0
 10 11  1  0
  6  1  1  0
 11  4  1  0
M  END
>  <Title>  (134) 
idAADFgen13

$$$$

     RDKit          2D

103105  0  0  0  0  0  0  0  0999 V2000
   10.6875    7.8269    0.0000 C   0  0  0  0  0  0  0  0  0  0  0  0
   12.1355    7.4355    0.0000 C   0  0  0  0  0  0  0  0  0  0  0  0
   12.6189    8.8555    0.0000 C   0  0  0  0  0  0  0  0  0  0  0  0
   13.2799   10.2020    0.0000 C   0  0  0  0  0  0  0  0  0  0  0  0
   14.1077   11.4529    0.0000 C   0  0  0  0  0  0  0  0  0  0  0  0
   15.0886   12.5877    0.0000 C   0  0  0  0  0  0  0  0  0  0  0  0
   16.2066   13.5878    0.0000 C   0  0  0  0  0  0  0  0  0  0  0  0
   17.4433   14.4366    0.0000 C   0  0  0  0  0  0  0  0  0  0  0  0
   18.7784   15.1204    0.0000 C   0  0  0  0  0  0  0  0  0  0  0  0
   20.1899   15.6278    0.0000 C   0  0  0  0  0  0  0  0  0  0  0  0
   21.6548   15.9505    0.0000 C   0  0  0  0  0  0  0  0  0  0  0  0
   23.1489   16.0833    0.0000 C   0  0  0  0  0  0  0  0  0  0  0  0
   24.6477   16.0239    0.0000 C   0  0  0  0  0  0  0  0  0  0  0  0
   26.1267   15.7734    0.0000 C   0  0  0  0  0  0  0  0  0  0  0  0
   27.5614   15.3357    0.0000 C   0  0  0  0  0  0  0  0  0  0  0  0
   28.9284   14.7182    0.0000 C   0  0  0  0  0  0  0  0  0  0  0  0
   30.2052   13.9310    0.0000 C   0  0  0  0  0  0  0  0  0  0  0  0
   31.3709   12.9869    0.0000 C   0  0  0  0  0  0  0  0  0  0  0  0
   32.4062   11.9016    0.0000 C   0  0  0  0  0  0  0  0  0  0  0  0
   33.2943   10.6927    0.0000 C   0  0  0  0  0  0  0  0  0  0  0  0
   34.0205    9.3802    0.0000 C   0  0  0  0  0  0  0  0  0  0  0  0
   34.5729    7.9856    0.0000 C   0  0  0  0  0  0  0  0  0  0  0  0
   34.9424    6.5319    0.0000 C   0  0  0  0  0  0  0  0  0  0  0  0
   35.1230    5.0428    0.0000 C   0  0  0  0  0  0  0  0  0  0  0  0
   35.1117    3.5428    0.0000 C   0  0  0  0  0  0  0  0  0  0  0  0
   34.9087    2.0566    0.0000 C   0  0  0  0  0  0  0  0  0  0  0  0
   34.5173    0.6086    0.0000 C   0  0  0  0  0  0  0  0  0  0  0  0
   33.9439   -0.7775    0.0000 C   0  0  0  0  0  0  0  0  0  0  0  0
   33.1980   -2.0789    0.0000 C   0  0  0  0  0  0  0  0  0  0  0  0
   32.2918   -3.2742    0.0000 C   0  0  0  0  0  0  0  0  0  0  0  0
   31.2402   -4.3438    0.0000 C   0  0  0  0  0  0  0  0  0  0  0  0
   30.0604   -5.2702    0.0000 C   0  0  0  0  0  0  0  0  0  0  0  0
   28.7718   -6.0381    0.0000 C   0  0  0  0  0  0  0  0  0  0  0  0
   27.3957   -6.6349    0.0000 C   0  0  0  0  0  0  0  0  0  0  0  0
   25.9545   -7.0508    0.0000 C   0  0  0  0  0  0  0  0  0  0  0  0
   24.4720   -7.2790    0.0000 C   0  0  0  0  0  0  0  0  0  0  0  0
   22.9724   -7.3158    0.0000 C   0  0  0  0  0  0  0  0  0  0  0  0
   21.4805   -7.1605    0.0000 C   0  0  0  0  0  0  0  0  0  0  0  0
   20.0206   -6.8157    0.0000 C   0  0  0  0  0  0  0  0  0  0  0  0
   18.6169   -6.2871    0.0000 C   0  0  0  0  0  0  0  0  0  0  0  0
   17.2923   -5.5832    0.0000 C   0  0  0  0  0  0  0  0  0  0  0  0
   16.0685   -4.7158    0.0000 C   0  0  0  0  0  0  0  0  0  0  0  0
   14.9657   -3.6990    0.0000 C   0  0  0  0  0  0  0  0  0  0  0  0
   14.0020   -2.5495    0.0000 C   0  0  0  0  0  0  0  0  0  0  0  0
   13.1932   -1.2863    0.0000 C   0  0  0  0  0  0  0  0  0  0  0  0
   12.5526    0.0700    0.0000 C   0  0  0  0  0  0  0  0  0  0  0  0
   12.0907    1.4972    0.0000 C   0  0  0  0  0  0  0  0  0  0  0  0
   11.4831    0.0000    0.0000 C   0  0  0  0  0  0  0  0  0  0  0  0
   11.3960   -1.4111    0.0000 C   0  0  0  0  0  0  0  0  0  0  0  0
   11.1362   -2.8009    0.0000 C   0  0  0  0  0  0  0  0  0  0  0  0
   10.7076   -4.1482    0.0000 C   0  0  0  0  0  0  0  0  0  0  0  0
   10.1167   -5.4326    0.0000 C   0  0  0  0  0  0  0  0  0  0  0  0
    9.3724   -6.6346    0.0000 C   0  0  0  0  0  0  0  0  0  0  0  0
    8.4861   -7.7361    0.0000 C   0  0  0  0  0  0  0  0  0  0  0  0
    7.4711   -8.7203    0.0000 C   0  0  0  0  0  0  0  0  0  0  0  0
    6.3428   -9.5723    0.0000 C   0  0  0  0  0  0  0  0  0  0  0  0
    5.1184  -10.2792    0.0000 C   0  0  0  0  0  0  0  0  0  0  0  0
    3.8164  -10.8303    0.0000 C   0  0  0  0  0  0  0  0  0  0  0  0
    2.4566  -11.2172    0.0000 C   0  0  0  0  0  0  0  0  0  0  0  0
    1.0595  -11.4341    0.0000 C   0  0  0  0  0  0  0  0  0  0  0  0
   -0.3536  -11.4776    0.0000 C   0  0  0  0  0  0  0  0  0  0  0  0
   -1.7614  -11.3472    0.0000 C   0  0  0  0  0  0  0  0  0  0  0  0
   -3.1425  -11.0447    0.0000 C   0  0  0  0  0  0  0  0  0  0  0  0
   -4.4759  -10.5748    0.0000 C   0  0  0  0  0  0  0  0  0  0  0  0
   -5.7415   -9.9446    0.0000 C   0  0  0  0  0  0  0  0  0  0  0  0
   -6.9201   -9.1637    0.0000 C   0  0  0  0  0  0  0  0  0  0  0  0
   -7.9937   -8.2438    0.0000 C   0  0  0  0  0  0  0  0  0  0  0  0
   -8.9462   -7.1990    0.0000 C   0  0  0  0  0  0  0  0  0  0  0  0
   -9.7631   -6.0451    0.0000 C   0  0  0  0  0  0  0  0  0  0  0  0
  -10.4320   -4.7995    0.0000 C   0  0  0  0  0  0  0  0  0  0  0  0
  -10.9427   -3.4811    0.0000 C   0  0  0  0  0  0  0  0  0  0  0  0
  -11.2875   -2.1100    0.0000 C   0  0  0  0  0  0  0  0  0  0  0  0
  -11.4613   -0.7069    0.0000 C   0  0  0  0  0  0  0  0  0  0  0  0
  -11.4613    0.7069    0.0000 C   0  0  0  0  0  0  0  0  0  0  0  0
  -11.2875    2.1100    0.0000 C   0  0  0  0  0  0  0  0  0  0  0  0
  -10.9427    3.4811    0.0000 C   0  0  0  0  0  0  0  0  0  0  0  0
  -10.4320    4.7995    0.0000 C   0  0  0  0  0  0  0  0  0  0  0  0
   -9.7631    6.0451    0.0000 C   0  0  0  0  0  0  0  0  0  0  0  0
   -8.9462    7.1990    0.0000 C   0  0  0  0  0  0  0  0  0  0  0  0
   -7.9937    8.2438    0.0000 C   0  0  0  0  0  0  0  0  0  0  0  0
   -6.9201    9.1637    0.0000 C   0  0  0  0  0  0  0  0  0  0  0  0
   -5.7415    9.9446    0.0000 C   0  0  0  0  0  0  0  0  0  0  0  0
   -4.4759   10.5748    0.0000 C   0  0  0  0  0  0  0  0  0  0  0  0
   -3.1425   11.0447    0.0000 C   0  0  0  0  0  0  0  0  0  0  0  0
   -1.7614   11.3472    0.0000 C   0  0  0  0  0  0  0  0  0  0  0  0
   -0.3536   11.4776    0.0000 C   0  0  0  0  0  0  0  0  0  0  0  0
    1.0595   11.4341    0.0000 C   0  0  0  0  0  0  0  0  0  0  0  0
    2.4566   11.2172    0.0000 C   0  0  0  0  0  0  0  0  0  0  0  0
    3.8164   10.8303    0.0000 C   0  0  0  0  0  0  0  0  0  0  0  0
    5.1184   10.2792    0.0000 C   0  0  0  0  0  0  0  0  0  0  0  0
    6.3428    9.5723    0.0000 C   0  0  0  0  0  0  0  0  0  0  0  0
    7.4711    8.7203    0.0000 C   0  0  0  0  0  0  0  0  0  0  0  0
    8.4861    7.7361    0.0000 C   0  0  0  0  0  0  0  0  0  0  0  0
    9.3724    6.6346    0.0000 C   0  0  0  0  0  0  0  0  0  0  0  0
   10.1167    5.4326    0.0000 C   0  0  0  0  0  0  0  0  0  0  0  0
   10.7076    4.1482    0.0000 C   0  0  0  0  0  0  0  0  0  0  0  0
   11.8151    2.9716    0.0000 C   0  0  0  0  0  0  0  0  0  0  0  0
   11.7303    4.4692    0.0000 C   0  0  0  0  0  0  0  0  0  0  0  0
   12.9723    3.6281    0.0000 C   0  0  0  0  0  0  0  0  0  0  0  0
   14.3217    4.2832    0.0000 C   0  0  0  0  0  0  0  0  0  0  0  0
   14.4291    5.7794    0.0000 C   0  0  0  0  0  0  0  0  0  0  0  0
   13.1871    6.6204    0.0000 C   0  0  0  0  0  0  0  0  0  0  0  0
   11.8377    5.9654    0.0000 C   0  0  0  0  0  0  0  0  0  0  0  0
  1  2  1  0
  2  3  1  0
  3  4  1  0
  4  5  1  0
  5  6  1  0
  6  7  1  0
  7  8  1  0
  8  9  1  0
  9 10  1  0
 10 11  1  0
 11 12  1  0
 12 13  1  0
 13 14  1  0
 14 15  1  0
 15 16  1  0
 16 17  1  0
 17 18  1  0
 18 19  1  0
 19 20  1  0
 20 21  1  0
 21 22  1  0
 22 23  1  0
 23 24  1  0
 24 25  1  0
 25 26  1  0
 26 27  1  0
 27 28  1  0
 28 29  1  0
 29 30  1  0
 30 31  1  0
 31 32  1  0
 32 33  1  0
 33 34  1  0
 34 35  1  0
 35 36  1  0
 36 37  1  0
 37 38  1  0
 38 39  1  0
 39 40  1  0
 40 41  1  0
 41 42  1  0
 42 43  1  0
 43 44  1  0
 44 45  1  0
 45 46  1  0
 46 47  1  0
 47 48  1  0
 48 49  1  0
 49 50  1  0
 50 51  1  0
 51 52  1  0
 52 53  1  0
 53 54  1  0
 54 55  1  0
 55 56  1  0
 56 57  1  0
 57 58  1  0
 58 59  1  0
 59 60  1  0
 60 61  1  0
 61 62  1  0
 62 63  1  0
 63 64  1  0
 64 65  1  0
 65 66  1  0
 66 67  1  0
 67 68  1  0
 68 69  1  0
 69 70  1  0
 70 71  1  0
 71 72  1  0
 72 73  1  0
 73 74  1  0
 74 75  1  0
 75 76  1  0
 76 77  1  0
 77 78  1  0
 78 79  1  0
 79 80  1  0
 80 81  1  0
 81 82  1  0
 82 83  1  0
 83 84  1  0
 84 85  1  0
 85 86  1  0
 86 87  1  0
 87 88  1  0
 88 89  1  0
 89 90  1  0
 90 91  1  0
 91 92  1  0
 92 93  2  0
 93 94  1  0
 94 95  2  0
 95 96  1  0
 96 97  2  0
 97 98  1  0
 98 99  2  0
 99100  1  0
100101  2  0
101102  1  0
102103  2  0
103  2  1  0
 97 47  1  0
103 98  1  0
M  END
>  <Title>  (135) 
idAADGgen13

$$$$

     RDKit          2D

 34 38  0  0  0  0  0  0  0  0999 V2000
   -3.0000   -2.5981    0.0000 C   0  0  0  0  0  0  0  0  0  0  0  0
   -1.5000   -2.5981    0.0000 C   0  0  0  0  0  0  0  0  0  0  0  0
   -0.7500   -3.8971    0.0000 C   0  0  0  0  0  0  0  0  0  0  0  0
    0.7500   -3.8971    0.0000 C   0  0  0  0  0  0  0  0  0  0  0  0
    1.5000   -2.5981    0.0000 C   0  0  0  0  0  0  0  0  0  0  0  0
    3.0000   -2.5981    0.0000 C   0  0  0  0  0  0  0  0  0  0  0  0
    3.7500   -1.2990    0.0000 O   0  0  0  0  0  0  0  0  0  0  0  0
    3.7500   -3.8971    0.0000 N   0  0  0  0  0  0  0  0  0  0  0  0
    5.2500   -3.8971    0.0000 C   0  0  0  0  0  0  0  0  0  0  0  0
    6.1317   -2.6836    0.0000 N   0  0  0  0  0  0  0  0  0  0  0  0
    7.5583   -3.1471    0.0000 N   0  0  0  0  0  0  0  0  0  0  0  0
    7.5583   -4.6471    0.0000 N   0  0  0  0  0  0  0  0  0  0  0  0
    6.1317   -5.1106    0.0000 N   0  0  0  0  0  0  0  0  0  0  0  0
    5.6682   -6.5372    0.0000 C   0  0  0  0  0  0  0  0  0  0  0  0
    6.5498   -7.7508    0.0000 C   0  0  0  0  0  0  0  0  0  0  0  0
    5.6682   -8.9643    0.0000 C   0  0  0  0  0  0  0  0  0  0  0  0
    4.2416   -8.5008    0.0000 C   0  0  0  0  0  0  0  0  0  0  0  0
    3.0280   -9.3824    0.0000 C   0  0  0  0  0  0  0  0  0  0  0  0
    3.1848  -10.8742    0.0000 O   0  0  0  0  0  0  0  0  0  0  0  0
    1.6577   -8.7723    0.0000 N   0  0  0  0  0  0  0  0  0  0  0  0
    0.4442   -9.6540    0.0000 C   0  0  0  0  0  0  0  0  0  0  0  0
   -0.9261   -9.0439    0.0000 N   0  0  0  0  0  0  0  0  0  0  0  0
   -2.1396   -9.9256    0.0000 N   0  0  0  0  0  0  0  0  0  0  0  0
   -1.9829  -11.4174    0.0000 N   0  0  0  0  0  0  0  0  0  0  0  0
   -0.6125  -12.0275    0.0000 N   0  0  0  0  0  0  0  0  0  0  0  0
    0.6010  -11.1458    0.0000 N   0  0  0  0  0  0  0  0  0  0  0  0
    4.2416   -7.0008    0.0000 C   0  0  0  0  0  0  0  0  0  0  0  0
    3.0280   -6.1191    0.0000 O   0  0  0  0  0  0  0  0  0  0  0  0
    0.7500   -1.2990    0.0000 C   0  0  0  0  0  0  0  0  0  0  0  0
    1.5000    0.0000    0.0000 C   0  0  0  0  0  0  0  0  0  0  0  0
    0.7500    1.2990    0.0000 C   0  0  0  0  0  0  0  0  0  0  0  0
   -0.7500    1.2990    0.0000 C   0  0  0  0  0  0  0  0  0  0  0  0
   -1.5000    0.0000    0.0000 C   0  0  0  0  0  0  0  0  0  0  0  0
   -0.7500   -1.2990    0.0000 C   0  0  0  0  0  0  0  0  0  0  0  0
  1  2  1  0
  2  3  1  0
  3  4  1  0
  4  5  1  0
  5  6  1  0
  6  7  2  0
  6  8  1  0
  8  9  1  0
  9 10  2  0
 10 11  1  0
 11 12  2  0
 12 13  1  0
 13 14  1  0
 14 15  2  0
 15 16  1  0
 16 17  2  0
 17 18  1  0
 18 19  2  0
 18 20  1  0
 20 21  1  0
 21 22  2  0
 22 23  1  0
 23 24  2  0
 24 25  1  0
 25 26  2  0
 17 27  1  0
 27 28  2  0
  5 29  1  0
 29 30  2  0
 30 31  1  0
 31 32  2  0
 32 33  1  0
 33 34  2  0
 34  2  1  0
 13  9  1  0
 27 14  1  0
 34 29  1  0
 26 21  1  0
M  END
>  <Title>  (136) 
idAADHgen13

$$$$

     RDKit          2D

 11 12  0  0  0  0  0  0  0  0999 V2000
   -4.7084   -3.0832    0.0000 C   0  0  0  0  0  0  0  0  0  0  0  0
   -3.2595   -3.4715    0.0000 C   0  0  0  0  0  0  0  0  0  0  0  0
   -1.8107   -3.8597    0.0000 C   0  0  0  0  0  0  0  0  0  0  0  0
   -0.7500   -2.7990    0.0000 C   0  0  0  0  0  0  0  0  0  0  0  0
    0.7500   -2.7990    0.0000 C   0  0  0  0  0  0  0  0  0  0  0  0
    0.7500   -1.2990    0.0000 C   0  0  0  0  0  0  0  0  0  0  0  0
    1.5000    0.0000    0.0000 C   0  0  0  0  0  0  0  0  0  0  0  0
    0.7500    1.2990    0.0000 C   0  0  0  0  0  0  0  0  0  0  0  0
   -0.7500    1.2990    0.0000 N   0  0  0  0  0  0  0  0  0  0  0  0
   -1.5000    0.0000    0.0000 C   0  0  0  0  0  0  0  0  0  0  0  0
   -0.7500   -1.2990    0.0000 C   0  0  0  0  0  0  0  0  0  0  0  0
  1  2  3  0
  2  3  1  0
  3  4  1  0
  4  5  1  0
  5  6  1  0
  6  7  2  0
  7  8  1  0
  8  9  2  0
  9 10  1  0
 10 11  2  0
 11  4  1  0
 11  6  1  0
M  END
>  <Title>  (137) 
idAADIgen13

$$$$

     RDKit          2D

 82 84  0  0  0  0  0  0  0  0999 V2000
   -2.9793    5.1704    0.0000 C   0  0  0  0  0  0  0  0  0  0  0  0
   -1.6876    5.9331    0.0000 C   0  0  0  0  0  0  0  0  0  0  0  0
   -2.3899    7.2586    0.0000 C   0  0  0  0  0  0  0  0  0  0  0  0
   -2.9668    8.6432    0.0000 C   0  0  0  0  0  0  0  0  0  0  0  0
   -3.4135   10.0751    0.0000 C   0  0  0  0  0  0  0  0  0  0  0  0
   -3.7262   11.5422    0.0000 C   0  0  0  0  0  0  0  0  0  0  0  0
   -3.9022   13.0318    0.0000 C   0  0  0  0  0  0  0  0  0  0  0  0
   -3.9400   14.5314    0.0000 C   0  0  0  0  0  0  0  0  0  0  0  0
   -3.8393   16.0280    0.0000 C   0  0  0  0  0  0  0  0  0  0  0  0
   -3.6009   17.5089    0.0000 C   0  0  0  0  0  0  0  0  0  0  0  0
   -3.2269   18.9615    0.0000 C   0  0  0  0  0  0  0  0  0  0  0  0
   -2.7204   20.3734    0.0000 C   0  0  0  0  0  0  0  0  0  0  0  0
   -2.0859   21.7326    0.0000 C   0  0  0  0  0  0  0  0  0  0  0  0
   -1.3286   23.0274    0.0000 C   0  0  0  0  0  0  0  0  0  0  0  0
   -0.4551   24.2468    0.0000 C   0  0  0  0  0  0  0  0  0  0  0  0
    0.5272   25.3805    0.0000 C   0  0  0  0  0  0  0  0  0  0  0  0
    1.6099   26.4186    0.0000 C   0  0  0  0  0  0  0  0  0  0  0  0
    2.7838   27.3525    0.0000 C   0  0  0  0  0  0  0  0  0  0  0  0
    4.0388   28.1740    0.0000 C   0  0  0  0  0  0  0  0  0  0  0  0
    5.3643   28.8762    0.0000 C   0  0  0  0  0  0  0  0  0  0  0  0
    6.7489   29.4531    0.0000 C   0  0  0  0  0  0  0  0  0  0  0  0
    8.1808   29.8999    0.0000 C   0  0  0  0  0  0  0  0  0  0  0  0
    9.6478   30.2126    0.0000 C   0  0  0  0  0  0  0  0  0  0  0  0
   11.1375   30.3885    0.0000 C   0  0  0  0  0  0  0  0  0  0  0  0
   12.6370   30.4263    0.0000 C   0  0  0  0  0  0  0  0  0  0  0  0
   14.1336   30.3256    0.0000 C   0  0  0  0  0  0  0  0  0  0  0  0
   15.6146   30.0872    0.0000 C   0  0  0  0  0  0  0  0  0  0  0  0
   17.0672   29.7132    0.0000 C   0  0  0  0  0  0  0  0  0  0  0  0
   18.4791   29.2068    0.0000 C   0  0  0  0  0  0  0  0  0  0  0  0
   19.8383   28.5722    0.0000 C   0  0  0  0  0  0  0  0  0  0  0  0
   21.1331   27.8150    0.0000 C   0  0  0  0  0  0  0  0  0  0  0  0
   22.3525   26.9415    0.0000 C   0  0  0  0  0  0  0  0  0  0  0  0
   23.4861   25.9592    0.0000 C   0  0  0  0  0  0  0  0  0  0  0  0
   24.5243   24.8765    0.0000 C   0  0  0  0  0  0  0  0  0  0  0  0
   25.4581   23.7026    0.0000 C   0  0  0  0  0  0  0  0  0  0  0  0
   26.2796   22.4476    0.0000 C   0  0  0  0  0  0  0  0  0  0  0  0
   26.9819   21.1221    0.0000 C   0  0  0  0  0  0  0  0  0  0  0  0
   27.5588   19.7375    0.0000 C   0  0  0  0  0  0  0  0  0  0  0  0
   28.0055   18.3056    0.0000 C   0  0  0  0  0  0  0  0  0  0  0  0
   28.3182   16.8385    0.0000 C   0  0  0  0  0  0  0  0  0  0  0  0
   28.4942   15.3489    0.0000 C   0  0  0  0  0  0  0  0  0  0  0  0
   28.5320   13.8493    0.0000 C   0  0  0  0  0  0  0  0  0  0  0  0
   28.4313   12.3527    0.0000 C   0  0  0  0  0  0  0  0  0  0  0  0
   28.1929   10.8718    0.0000 C   0  0  0  0  0  0  0  0  0  0  0  0
   27.8189    9.4192    0.0000 C   0  0  0  0  0  0  0  0  0  0  0  0
   27.3124    8.0072    0.0000 C   0  0  0  0  0  0  0  0  0  0  0  0
   26.6779    6.6481    0.0000 C   0  0  0  0  0  0  0  0  0  0  0  0
   25.9206    5.3533    0.0000 C   0  0  0  0  0  0  0  0  0  0  0  0
   25.0471    4.1338    0.0000 C   0  0  0  0  0  0  0  0  0  0  0  0
   24.0648    3.0002    0.0000 C   0  0  0  0  0  0  0  0  0  0  0  0
   22.9821    1.9621    0.0000 C   0  0  0  0  0  0  0  0  0  0  0  0
   21.8083    1.0282    0.0000 C   0  0  0  0  0  0  0  0  0  0  0  0
   20.5532    0.2067    0.0000 C   0  0  0  0  0  0  0  0  0  0  0  0
   19.2278   -0.4955    0.0000 C   0  0  0  0  0  0  0  0  0  0  0  0
   17.8431   -1.0725    0.0000 C   0  0  0  0  0  0  0  0  0  0  0  0
   16.4112   -1.5192    0.0000 C   0  0  0  0  0  0  0  0  0  0  0  0
   14.9442   -1.8319    0.0000 C   0  0  0  0  0  0  0  0  0  0  0  0
   13.4545   -2.0079    0.0000 C   0  0  0  0  0  0  0  0  0  0  0  0
   11.9550   -2.0457    0.0000 C   0  0  0  0  0  0  0  0  0  0  0  0
   10.4584   -1.9449    0.0000 C   0  0  0  0  0  0  0  0  0  0  0  0
    8.9774   -1.7065    0.0000 C   0  0  0  0  0  0  0  0  0  0  0  0
    7.5248   -1.3325    0.0000 C   0  0  0  0  0  0  0  0  0  0  0  0
    6.1129   -0.8261    0.0000 C   0  0  0  0  0  0  0  0  0  0  0  0
    4.7537   -0.1915    0.0000 C   0  0  0  0  0  0  0  0  0  0  0  0
    3.4589    0.5657    0.0000 C   0  0  0  0  0  0  0  0  0  0  0  0
    2.2395    1.4392    0.0000 C   0  0  0  0  0  0  0  0  0  0  0  0
    2.6621    0.0000    0.0000 C   0  0  0  0  0  0  0  0  0  0  0  0
    2.2395   -1.4392    0.0000 C   0  0  0  0  0  0  0  0  0  0  0  0
    1.1059   -2.4215    0.0000 C   0  0  0  0  0  0  0  0  0  0  0  0
   -0.3789   -2.6350    0.0000 C   0  0  0  0  0  0  0  0  0  0  0  0
   -1.7433   -2.0119    0.0000 C   0  0  0  0  0  0  0  0  0  0  0  0
   -2.5543   -0.7500    0.0000 C   0  0  0  0  0  0  0  0  0  0  0  0
   -2.5543    0.7500    0.0000 C   0  0  0  0  0  0  0  0  0  0  0  0
   -1.7433    2.0119    0.0000 C   0  0  0  0  0  0  0  0  0  0  0  0
   -0.3789    2.6350    0.0000 C   0  0  0  0  0  0  0  0  0  0  0  0
    1.1059    2.4215    0.0000 C   0  0  0  0  0  0  0  0  0  0  0  0
    0.0677    3.5042    0.0000 C   0  0  0  0  0  0  0  0  0  0  0  0
    1.5512    3.7260    0.0000 C   0  0  0  0  0  0  0  0  0  0  0  0
    2.1009    5.1217    0.0000 C   0  0  0  0  0  0  0  0  0  0  0  0
    1.1671    6.2955    0.0000 C   0  0  0  0  0  0  0  0  0  0  0  0
   -0.3164    6.0737    0.0000 C   0  0  0  0  0  0  0  0  0  0  0  0
   -0.8661    4.6781    0.0000 C   0  0  0  0  0  0  0  0  0  0  0  0
  1  2  1  0
  2  3  1  0
  3  4  1  0
  4  5  1  0
  5  6  1  0
  6  7  1  0
  7  8  1  0
  8  9  1  0
  9 10  1  0
 10 11  1  0
 11 12  1  0
 12 13  1  0
 13 14  1  0
 14 15  1  0
 15 16  1  0
 16 17  1  0
 17 18  1  0
 18 19  1  0
 19 20  1  0
 20 21  1  0
 21 22  1  0
 22 23  1  0
 23 24  1  0
 24 25  1  0
 25 26  1  0
 26 27  1  0
 27 28  1  0
 28 29  1  0
 29 30  1  0
 30 31  1  0
 31 32  1  0
 32 33  1  0
 33 34  1  0
 34 35  1  0
 35 36  1  0
 36 37  1  0
 37 38  1  0
 38 39  1  0
 39 40  1  0
 40 41  1  0
 41 42  1  0
 42 43  1  0
 43 44  1  0
 44 45  1  0
 45 46  1  0
 46 47  1  0
 47 48  1  0
 48 49  1  0
 49 50  1  0
 50 51  1  0
 51 52  1  0
 52 53  1  0
 53 54  1  0
 54 55  1  0
 55 56  1  0
 56 57  1  0
 57 58  1  0
 58 59  1  0
 59 60  1  0
 60 61  1  0
 61 62  1  0
 62 63  1  0
 63 64  1  0
 64 65  1  0
 65 66  1  0
 66 67  1  0
 67 68  1  0
 68 69  1  0
 69 70  2  0
 70 71  1  0
 71 72  2  0
 72 73  1  0
 73 74  2  0
 74 75  1  0
 75 76  2  0
 76 77  1  0
 77 78  2  0
 78 79  1  0
 79 80  2  0
 80 81  1  0
 81 82  2  0
 82  2  1  0
 76 66  1  0
 82 77  1  0
M  END
>  <Title>  (138) 
idAADJgen13

$$$$

     RDKit          2D

  4  3  0  0  0  0  0  0  0  0999 V2000
    0.0000    0.0000    0.0000 C   0  0  0  0  0  0  0  0  0  0  0  0
    1.2990    0.7500    0.0000 C   0  0  0  0  0  0  0  0  0  0  0  0
    2.5981   -0.0000    0.0000 C   0  0  0  0  0  0  0  0  0  0  0  0
    3.8971    0.7500    0.0000 O   0  0  0  0  0  0  0  0  0  0  0  0
  1  2  1  0
  2  3  2  3
  3  4  1  0
M  END
>  <Title>  (139) 
idAADKgen13

$$$$

     RDKit          2D

 39 43  0  0  0  0  0  0  0  0999 V2000
   -3.1771   -1.2990    0.0000 C   0  0  0  0  0  0  0  0  0  0  0  0
   -1.9635   -2.1807    0.0000 C   0  0  0  0  0  0  0  0  0  0  0  0
   -2.4271   -3.6073    0.0000 C   0  0  0  0  0  0  0  0  0  0  0  0
   -1.9635   -5.0339    0.0000 C   0  0  0  0  0  0  0  0  0  0  0  0
   -0.7500   -5.9156    0.0000 C   0  0  0  0  0  0  0  0  0  0  0  0
    0.7500   -5.9156    0.0000 C   0  0  0  0  0  0  0  0  0  0  0  0
    1.9635   -5.0339    0.0000 C   0  0  0  0  0  0  0  0  0  0  0  0
    3.1771   -5.9156    0.0000 C   0  0  0  0  0  0  0  0  0  0  0  0
    4.5474   -5.3055    0.0000 O   0  0  0  0  0  0  0  0  0  0  0  0
    3.0203   -7.4073    0.0000 N   0  0  0  0  0  0  0  0  0  0  0  0
    4.2338   -8.2890    0.0000 C   0  0  0  0  0  0  0  0  0  0  0  0
    5.6604   -7.8255    0.0000 N   0  0  0  0  0  0  0  0  0  0  0  0
    6.5420   -9.0390    0.0000 N   0  0  0  0  0  0  0  0  0  0  0  0
    5.6604  -10.2525    0.0000 N   0  0  0  0  0  0  0  0  0  0  0  0
    4.2338   -9.7890    0.0000 N   0  0  0  0  0  0  0  0  0  0  0  0
    3.0203  -10.6707    0.0000 N   0  0  0  0  0  0  0  0  0  0  0  0
    3.0203  -12.1707    0.0000 C   0  0  0  0  0  0  0  0  0  0  0  0
    1.5937  -12.6342    0.0000 C   0  0  0  0  0  0  0  0  0  0  0  0
    0.7120  -11.4207    0.0000 N   0  0  0  0  0  0  0  0  0  0  0  0
   -0.7880  -11.4207    0.0000 C   0  0  0  0  0  0  0  0  0  0  0  0
   -1.5380  -12.7197    0.0000 O   0  0  0  0  0  0  0  0  0  0  0  0
   -1.5380  -10.1217    0.0000 N   0  0  0  0  0  0  0  0  0  0  0  0
   -3.0380  -10.1217    0.0000 C   0  0  0  0  0  0  0  0  0  0  0  0
   -3.7880   -8.8226    0.0000 N   0  0  0  0  0  0  0  0  0  0  0  0
   -5.2880   -8.8226    0.0000 N   0  0  0  0  0  0  0  0  0  0  0  0
   -6.0380  -10.1217    0.0000 N   0  0  0  0  0  0  0  0  0  0  0  0
   -5.2880  -11.4207    0.0000 N   0  0  0  0  0  0  0  0  0  0  0  0
   -3.7880  -11.4207    0.0000 N   0  0  0  0  0  0  0  0  0  0  0  0
    1.5937  -10.2072    0.0000 C   0  0  0  0  0  0  0  0  0  0  0  0
    1.1301   -8.7806    0.0000 O   0  0  0  0  0  0  0  0  0  0  0  0
    2.4271   -3.6073    0.0000 C   0  0  0  0  0  0  0  0  0  0  0  0
    3.9271   -3.6073    0.0000 O   0  0  0  0  0  0  0  0  0  0  0  0
    1.9635   -2.1807    0.0000 O   0  0  0  0  0  0  0  0  0  0  0  0
    0.7500   -1.2990    0.0000 C   0  0  0  0  0  0  0  0  0  0  0  0
    1.5000    0.0000    0.0000 C   0  0  0  0  0  0  0  0  0  0  0  0
    0.7500    1.2990    0.0000 C   0  0  0  0  0  0  0  0  0  0  0  0
   -0.7500    1.2990    0.0000 C   0  0  0  0  0  0  0  0  0  0  0  0
   -1.5000    0.0000    0.0000 C   0  0  0  0  0  0  0  0  0  0  0  0
   -0.7500   -1.2990    0.0000 C   0  0  0  0  0  0  0  0  0  0  0  0
  1  2  1  0
  2  3  1  0
  3  4  2  0
  4  5  1  0
  5  6  1  0
  6  7  1  0
  7  8  1  0
  8  9  2  0
  8 10  1  0
 10 11  1  0
 11 12  2  0
 12 13  1  0
 13 14  2  0
 14 15  1  0
 15 16  1  0
 16 17  1  0
 17 18  1  0
 18 19  1  0
 19 20  1  0
 20 21  2  0
 20 22  1  0
 22 23  1  0
 23 24  2  0
 24 25  1  0
 25 26  2  0
 26 27  1  0
 27 28  2  0
 19 29  1  0
 29 30  2  0
  7 31  1  0
 31 32  2  0
 31 33  1  0
 33 34  1  0
 34 35  2  0
 35 36  1  0
 36 37  2  0
 37 38  1  0
 38 39  2  0
 39  2  1  0
 15 11  1  0
 29 16  1  0
 39 34  1  0
 28 23  1  0
M  END
>  <Title>  (140) 
idAADLgen13

$$$$

     RDKit          2D

  6  6  0  0  0  0  0  0  0  0999 V2000
    2.7760    0.0000    0.0000 C   0  0  0  0  0  0  0  0  0  0  0  0
    1.2760    0.0000    0.0000 C   0  0  0  0  0  0  0  0  0  0  0  0
    0.3943    1.2135    0.0000 C   0  0  0  0  0  0  0  0  0  0  0  0
   -1.0323    0.7500    0.0000 C   0  0  0  0  0  0  0  0  0  0  0  0
   -1.0323   -0.7500    0.0000 C   0  0  0  0  0  0  0  0  0  0  0  0
    0.3943   -1.2135    0.0000 C   0  0  0  0  0  0  0  0  0  0  0  0
  1  2  1  0
  2  3  1  0
  3  4  2  0
  4  5  1  0
  5  6  1  0
  6  2  1  0
M  END
>  <Title>  (141) 
idAADMgen13

$$$$

     RDKit          2D

 31 35  0  0  0  0  0  0  0  0999 V2000
   -3.0000   -2.5981    0.0000 C   0  0  0  0  0  0  0  0  0  0  0  0
   -1.5000   -2.5981    0.0000 C   0  0  0  0  0  0  0  0  0  0  0  0
   -0.7500   -3.8971    0.0000 C   0  0  0  0  0  0  0  0  0  0  0  0
    0.7500   -3.8971    0.0000 C   0  0  0  0  0  0  0  0  0  0  0  0
    1.5000   -2.5981    0.0000 C   0  0  0  0  0  0  0  0  0  0  0  0
    3.0000   -2.5981    0.0000 C   0  0  0  0  0  0  0  0  0  0  0  0
    3.7500   -1.2990    0.0000 O   0  0  0  0  0  0  0  0  0  0  0  0
    3.7500   -3.8971    0.0000 N   0  0  0  0  0  0  0  0  0  0  0  0
    5.2500   -3.8971    0.0000 C   0  0  0  0  0  0  0  0  0  0  0  0
    6.1317   -2.6836    0.0000 N   0  0  0  0  0  0  0  0  0  0  0  0
    7.5583   -3.1471    0.0000 N   0  0  0  0  0  0  0  0  0  0  0  0
    7.5583   -4.6471    0.0000 N   0  0  0  0  0  0  0  0  0  0  0  0
    6.1317   -5.1106    0.0000 N   0  0  0  0  0  0  0  0  0  0  0  0
    5.6682   -6.5372    0.0000 C   0  0  0  0  0  0  0  0  0  0  0  0
    6.5498   -7.7508    0.0000 C   0  0  0  0  0  0  0  0  0  0  0  0
    5.6682   -8.9643    0.0000 C   0  0  0  0  0  0  0  0  0  0  0  0
    4.2416   -8.5008    0.0000 C   0  0  0  0  0  0  0  0  0  0  0  0
    3.0280   -9.3824    0.0000 N   0  0  0  0  0  0  0  0  0  0  0  0
    1.6577   -8.7723    0.0000 N   0  0  0  0  0  0  0  0  0  0  0  0
    0.3587   -9.5223    0.0000 C   0  0  0  0  0  0  0  0  0  0  0  0
   -0.7560   -8.5186    0.0000 C   0  0  0  0  0  0  0  0  0  0  0  0
   -0.1459   -7.1483    0.0000 C   0  0  0  0  0  0  0  0  0  0  0  0
    1.3459   -7.3051    0.0000 N   0  0  0  0  0  0  0  0  0  0  0  0
    4.2416   -7.0008    0.0000 C   0  0  0  0  0  0  0  0  0  0  0  0
    3.0280   -6.1191    0.0000 O   0  0  0  0  0  0  0  0  0  0  0  0
    0.7500   -1.2990    0.0000 C   0  0  0  0  0  0  0  0  0  0  0  0
    1.5000    0.0000    0.0000 C   0  0  0  0  0  0  0  0  0  0  0  0
    0.7500    1.2990    0.0000 C   0  0  0  0  0  0  0  0  0  0  0  0
   -0.7500    1.2990    0.0000 C   0  0  0  0  0  0  0  0  0  0  0  0
   -1.5000    0.0000    0.0000 C   0  0  0  0  0  0  0  0  0  0  0  0
   -0.7500   -1.2990    0.0000 C   0  0  0  0  0  0  0  0  0  0  0  0
  1  2  1  0
  2  3  1  0
  3  4  1  0
  4  5  1  0
  5  6  1  0
  6  7  2  0
  6  8  1  0
  8  9  1  0
  9 10  2  0
 10 11  1  0
 11 12  2  0
 12 13  1  0
 13 14  1  0
 14 15  2  0
 15 16  1  0
 16 17  2  0
 17 18  1  0
 18 19  1  0
 19 20  1  0
 20 21  2  0
 21 22  1  0
 22 23  2  0
 17 24  1  0
 24 25  2  0
  5 26  1  0
 26 27  2  0
 27 28  1  0
 28 29  2  0
 29 30  1  0
 30 31  2  0
 31  2  1  0
 13  9  1  0
 24 14  1  0
 31 26  1  0
 23 19  1  0
M  END
>  <Title>  (142) 
idAADNgen13

$$$$

     RDKit          2D

 10 11  0  0  0  0  0  0  0  0999 V2000
    1.5000    0.0000    0.0000 C   0  0  0  0  0  0  0  0  0  0  0  0
    0.7500   -1.2990    0.0000 C   0  0  0  0  0  0  0  0  0  0  0  0
   -0.7500   -1.2990    0.0000 C   0  0  0  0  0  0  0  0  0  0  0  0
   -1.5000    0.0000    0.0000 C   0  0  0  0  0  0  0  0  0  0  0  0
   -0.7500    1.2990    0.0000 C   0  0  0  0  0  0  0  0  0  0  0  0
    0.7500    1.2990    0.0000 C   0  0  0  0  0  0  0  0  0  0  0  0
   -1.5000    2.5981    0.0000 C   0  0  0  0  0  0  0  0  0  0  0  0
   -3.0000    2.5981    0.0000 C   0  0  0  0  0  0  0  0  0  0  0  0
   -3.7500    1.2990    0.0000 C   0  0  0  0  0  0  0  0  0  0  0  0
   -3.0000    0.0000    0.0000 C   0  0  0  0  0  0  0  0  0  0  0  0
  1  2  2  0
  2  3  1  0
  3  4  2  0
  4  5  1  0
  5  6  2  0
  5  7  1  0
  7  8  1  0
  8  9  1  0
  9 10  1  0
  6  1  1  0
 10  4  1  0
M  END
>  <Title>  (143) 
idAADOgen13

$$$$

     RDKit          2D

 32 36  0  0  0  0  0  0  0  0999 V2000
   -3.0000   -2.5981    0.0000 C   0  0  0  0  0  0  0  0  0  0  0  0
   -1.5000   -2.5981    0.0000 C   0  0  0  0  0  0  0  0  0  0  0  0
   -0.7500   -3.8971    0.0000 C   0  0  0  0  0  0  0  0  0  0  0  0
    0.7500   -3.8971    0.0000 C   0  0  0  0  0  0  0  0  0  0  0  0
    1.5000   -2.5981    0.0000 C   0  0  0  0  0  0  0  0  0  0  0  0
    3.0000   -2.5981    0.0000 O   0  0  0  0  0  0  0  0  0  0  0  0
    3.7500   -3.8971    0.0000 C   0  0  0  0  0  0  0  0  0  0  0  0
    5.2418   -4.0539    0.0000 N   0  0  0  0  0  0  0  0  0  0  0  0
    5.5537   -5.5211    0.0000 N   0  0  0  0  0  0  0  0  0  0  0  0
    4.2546   -6.2711    0.0000 N   0  0  0  0  0  0  0  0  0  0  0  0
    3.1399   -5.2674    0.0000 N   0  0  0  0  0  0  0  0  0  0  0  0
    1.6727   -5.5793    0.0000 N   0  0  0  0  0  0  0  0  0  0  0  0
    1.0626   -6.9496    0.0000 C   0  0  0  0  0  0  0  0  0  0  0  0
   -0.4292   -6.7928    0.0000 C   0  0  0  0  0  0  0  0  0  0  0  0
   -0.7411   -5.3256    0.0000 C   0  0  0  0  0  0  0  0  0  0  0  0
   -2.1114   -4.7155    0.0000 C   0  0  0  0  0  0  0  0  0  0  0  0
   -2.2682   -3.2237    0.0000 O   0  0  0  0  0  0  0  0  0  0  0  0
   -3.3249   -5.5972    0.0000 N   0  0  0  0  0  0  0  0  0  0  0  0
   -4.6952   -4.9871    0.0000 C   0  0  0  0  0  0  0  0  0  0  0  0
   -4.8520   -3.4953    0.0000 N   0  0  0  0  0  0  0  0  0  0  0  0
   -6.2224   -2.8852    0.0000 N   0  0  0  0  0  0  0  0  0  0  0  0
   -7.4359   -3.7669    0.0000 N   0  0  0  0  0  0  0  0  0  0  0  0
   -7.2791   -5.2586    0.0000 N   0  0  0  0  0  0  0  0  0  0  0  0
   -5.9088   -5.8687    0.0000 N   0  0  0  0  0  0  0  0  0  0  0  0
    0.5580   -4.5756    0.0000 C   0  0  0  0  0  0  0  0  0  0  0  0
    0.7147   -3.0838    0.0000 O   0  0  0  0  0  0  0  0  0  0  0  0
    0.7500   -1.2990    0.0000 C   0  0  0  0  0  0  0  0  0  0  0  0
    1.5000    0.0000    0.0000 C   0  0  0  0  0  0  0  0  0  0  0  0
    0.7500    1.2990    0.0000 C   0  0  0  0  0  0  0  0  0  0  0  0
   -0.7500    1.2990    0.0000 C   0  0  0  0  0  0  0  0  0  0  0  0
   -1.5000    0.0000    0.0000 C   0  0  0  0  0  0  0  0  0  0  0  0
   -0.7500   -1.2990    0.0000 C   0  0  0  0  0  0  0  0  0  0  0  0
  1  2  1  0
  2  3  1  0
  3  4  2  0
  4  5  1  0
  5  6  1  0
  6  7  1  0
  7  8  2  0
  8  9  1  0
  9 10  2  0
 10 11  1  0
 11 12  1  0
 12 13  1  0
 13 14  1  0
 14 15  1  0
 15 16  1  0
 16 17  2  0
 16 18  1  0
 18 19  1  0
 19 20  2  0
 20 21  1  0
 21 22  2  0
 22 23  1  0
 23 24  2  0
 15 25  1  0
 25 26  2  0
  5 27  1  0
 27 28  2  0
 28 29  1  0
 29 30  2  0
 30 31  1  0
 31 32  2  0
 32  2  1  0
 11  7  1  0
 25 12  1  0
 32 27  1  0
 24 19  1  0
M  END
>  <Title>  (144) 
idAADPgen13

$$$$

     RDKit          2D

 30 30  0  0  0  0  0  0  0  0999 V2000
   37.5000    0.0000    0.0000 C   0  0  0  0  0  0  0  0  0  0  0  0
   36.0000    0.0000    0.0000 C   0  0  0  0  0  0  0  0  0  0  0  0
   34.5000    0.0000    0.0000 C   0  0  0  0  0  0  0  0  0  0  0  0
   33.0000    0.0000    0.0000 C   0  0  0  0  0  0  0  0  0  0  0  0
   31.5000    0.0000    0.0000 C   0  0  0  0  0  0  0  0  0  0  0  0
   30.0000    0.0000    0.0000 C   0  0  0  0  0  0  0  0  0  0  0  0
   28.5000    0.0000    0.0000 C   0  0  0  0  0  0  0  0  0  0  0  0
   27.0000    0.0000    0.0000 C   0  0  0  0  0  0  0  0  0  0  0  0
   25.5000    0.0000    0.0000 C   0  0  0  0  0  0  0  0  0  0  0  0
   24.0000    0.0000    0.0000 C   0  0  0  0  0  0  0  0  0  0  0  0
   22.5000    0.0000    0.0000 C   0  0  0  0  0  0  0  0  0  0  0  0
   21.0000    0.0000    0.0000 C   0  0  0  0  0  0  0  0  0  0  0  0
   19.5000    0.0000    0.0000 C   0  0  0  0  0  0  0  0  0  0  0  0
   18.0000    0.0000    0.0000 C   0  0  0  0  0  0  0  0  0  0  0  0
   16.5000    0.0000    0.0000 C   0  0  0  0  0  0  0  0  0  0  0  0
   15.0000    0.0000    0.0000 C   0  0  0  0  0  0  0  0  0  0  0  0
   13.5000    0.0000    0.0000 C   0  0  0  0  0  0  0  0  0  0  0  0
   12.0000    0.0000    0.0000 C   0  0  0  0  0  0  0  0  0  0  0  0
   10.5000    0.0000    0.0000 C   0  0  0  0  0  0  0  0  0  0  0  0
    9.0000    0.0000    0.0000 C   0  0  0  0  0  0  0  0  0  0  0  0
    7.5000    0.0000    0.0000 C   0  0  0  0  0  0  0  0  0  0  0  0
    6.0000    0.0000    0.0000 C   0  0  0  0  0  0  0  0  0  0  0  0
    4.5000    0.0000    0.0000 C   0  0  0  0  0  0  0  0  0  0  0  0
    3.0000    0.0000    0.0000 C   0  0  0  0  0  0  0  0  0  0  0  0
    1.5000    0.0000    0.0000 C   0  0  0  0  0  0  0  0  0  0  0  0
    0.7500   -1.2990    0.0000 C   0  0  0  0  0  0  0  0  0  0  0  0
   -0.7500   -1.2990    0.0000 C   0  0  0  0  0  0  0  0  0  0  0  0
   -1.5000    0.0000    0.0000 C   0  0  0  0  0  0  0  0  0  0  0  0
   -0.7500    1.2990    0.0000 C   0  0  0  0  0  0  0  0  0  0  0  0
    0.7500    1.2990    0.0000 C   0  0  0  0  0  0  0  0  0  0  0  0
  1  2  3  0
  2  3  1  0
  3  4  3  0
  4  5  1  0
  5  6  3  0
  6  7  1  0
  7  8  3  0
  8  9  1  0
  9 10  3  0
 10 11  1  0
 11 12  3  0
 12 13  1  0
 13 14  3  0
 14 15  1  0
 15 16  3  0
 16 17  1  0
 17 18  3  0
 18 19  1  0
 19 20  3  0
 20 21  1  0
 21 22  3  0
 22 23  1  0
 23 24  3  0
 24 25  1  0
 25 26  2  0
 26 27  1  0
 27 28  2  0
 28 29  1  0
 29 30  2  0
 30 25  1  0
M  END
>  <Title>  (145) 
idAADQgen13

$$$$

     RDKit          2D

 47 47  0  0  0  0  0  0  0  0999 V2000
   64.2760   -0.0000    0.0000 C   0  0  0  0  0  0  0  0  0  0  0  0
   62.7760   -0.0000    0.0000 C   0  0  0  0  0  0  0  0  0  0  0  0
   61.2760   -0.0000    0.0000 C   0  0  0  0  0  0  0  0  0  0  0  0
   59.7760   -0.0000    0.0000 C   0  0  0  0  0  0  0  0  0  0  0  0
   58.2760   -0.0000    0.0000 C   0  0  0  0  0  0  0  0  0  0  0  0
   56.7760   -0.0000    0.0000 C   0  0  0  0  0  0  0  0  0  0  0  0
   55.2760   -0.0000    0.0000 C   0  0  0  0  0  0  0  0  0  0  0  0
   53.7760   -0.0000    0.0000 C   0  0  0  0  0  0  0  0  0  0  0  0
   52.2760   -0.0000    0.0000 C   0  0  0  0  0  0  0  0  0  0  0  0
   50.7760   -0.0000    0.0000 C   0  0  0  0  0  0  0  0  0  0  0  0
   49.2760   -0.0000    0.0000 C   0  0  0  0  0  0  0  0  0  0  0  0
   47.7760   -0.0000    0.0000 C   0  0  0  0  0  0  0  0  0  0  0  0
   46.2760   -0.0000    0.0000 C   0  0  0  0  0  0  0  0  0  0  0  0
   44.7760   -0.0000    0.0000 C   0  0  0  0  0  0  0  0  0  0  0  0
   43.2760   -0.0000    0.0000 C   0  0  0  0  0  0  0  0  0  0  0  0
   41.7760   -0.0000    0.0000 C   0  0  0  0  0  0  0  0  0  0  0  0
   40.2760   -0.0000    0.0000 C   0  0  0  0  0  0  0  0  0  0  0  0
   38.7760   -0.0000    0.0000 C   0  0  0  0  0  0  0  0  0  0  0  0
   37.2760   -0.0000    0.0000 C   0  0  0  0  0  0  0  0  0  0  0  0
   35.7760   -0.0000    0.0000 C   0  0  0  0  0  0  0  0  0  0  0  0
   34.2760   -0.0000    0.0000 C   0  0  0  0  0  0  0  0  0  0  0  0
   32.7760   -0.0000    0.0000 C   0  0  0  0  0  0  0  0  0  0  0  0
   31.2760   -0.0000    0.0000 C   0  0  0  0  0  0  0  0  0  0  0  0
   29.7760   -0.0000    0.0000 C   0  0  0  0  0  0  0  0  0  0  0  0
   28.2760   -0.0000    0.0000 C   0  0  0  0  0  0  0  0  0  0  0  0
   26.7760   -0.0000    0.0000 C   0  0  0  0  0  0  0  0  0  0  0  0
   25.2760   -0.0000    0.0000 C   0  0  0  0  0  0  0  0  0  0  0  0
   23.7760   -0.0000    0.0000 C   0  0  0  0  0  0  0  0  0  0  0  0
   22.2760   -0.0000    0.0000 C   0  0  0  0  0  0  0  0  0  0  0  0
   20.7760   -0.0000    0.0000 C   0  0  0  0  0  0  0  0  0  0  0  0
   19.2760   -0.0000    0.0000 C   0  0  0  0  0  0  0  0  0  0  0  0
   17.7760   -0.0000    0.0000 C   0  0  0  0  0  0  0  0  0  0  0  0
   16.2760   -0.0000    0.0000 C   0  0  0  0  0  0  0  0  0  0  0  0
   14.7760   -0.0000    0.0000 C   0  0  0  0  0  0  0  0  0  0  0  0
   13.2760   -0.0000    0.0000 C   0  0  0  0  0  0  0  0  0  0  0  0
   11.7760   -0.0000    0.0000 C   0  0  0  0  0  0  0  0  0  0  0  0
   10.2760   -0.0000    0.0000 C   0  0  0  0  0  0  0  0  0  0  0  0
    8.7760   -0.0000    0.0000 C   0  0  0  0  0  0  0  0  0  0  0  0
    7.2760   -0.0000    0.0000 C   0  0  0  0  0  0  0  0  0  0  0  0
    5.7760   -0.0000    0.0000 C   0  0  0  0  0  0  0  0  0  0  0  0
    4.2760   -0.0000    0.0000 C   0  0  0  0  0  0  0  0  0  0  0  0
    2.7760    0.0000    0.0000 C   0  0  0  0  0  0  0  0  0  0  0  0
    1.2760    0.0000    0.0000 C   0  0  0  0  0  0  0  0  0  0  0  0
    0.3943    1.2135    0.0000 C   0  0  0  0  0  0  0  0  0  0  0  0
   -1.0323    0.7500    0.0000 C   0  0  0  0  0  0  0  0  0  0  0  0
   -1.0323   -0.7500    0.0000 C   0  0  0  0  0  0  0  0  0  0  0  0
    0.3943   -1.2135    0.0000 C   0  0  0  0  0  0  0  0  0  0  0  0
  1  2  3  0
  2  3  1  0
  3  4  3  0
  4  5  1  0
  5  6  3  0
  6  7  1  0
  7  8  3  0
  8  9  1  0
  9 10  3  0
 10 11  1  0
 11 12  3  0
 12 13  1  0
 13 14  3  0
 14 15  1  0
 15 16  3  0
 16 17  1  0
 17 18  3  0
 18 19  1  0
 19 20  3  0
 20 21  1  0
 21 22  3  0
 22 23  1  0
 23 24  3  0
 24 25  1  0
 25 26  3  0
 26 27  1  0
 27 28  3  0
 28 29  1  0
 29 30  3  0
 30 31  1  0
 31 32  3  0
 32 33  1  0
 33 34  3  0
 34 35  1  0
 35 36  3  0
 36 37  1  0
 37 38  3  0
 38 39  1  0
 39 40  3  0
 40 41  1  0
 41 42  3  0
 42 43  1  0
 43 44  2  0
 44 45  1  0
 45 46  2  0
 46 47  1  0
 47 43  1  0
M  END
>  <Title>  (146) 
idAADRgen13

$$$$

     RDKit          2D

 36 40  0  0  0  0  0  0  0  0999 V2000
   -5.2500   -3.8971    0.0000 C   0  0  0  0  0  0  0  0  0  0  0  0
   -3.7500   -3.8971    0.0000 C   0  0  0  0  0  0  0  0  0  0  0  0
   -3.0000   -2.5981    0.0000 C   0  0  0  0  0  0  0  0  0  0  0  0
   -1.5000   -2.5981    0.0000 N   0  0  0  0  0  0  0  0  0  0  0  0
   -0.7500   -3.8971    0.0000 C   0  0  0  0  0  0  0  0  0  0  0  0
    0.7500   -3.8971    0.0000 C   0  0  0  0  0  0  0  0  0  0  0  0
    1.5000   -2.5981    0.0000 C   0  0  0  0  0  0  0  0  0  0  0  0
    3.0000   -2.5981    0.0000 C   0  0  0  0  0  0  0  0  0  0  0  0
    3.7500   -1.2990    0.0000 O   0  0  0  0  0  0  0  0  0  0  0  0
    3.7500   -3.8971    0.0000 N   0  0  0  0  0  0  0  0  0  0  0  0
    5.2500   -3.8971    0.0000 C   0  0  0  0  0  0  0  0  0  0  0  0
    6.1317   -2.6836    0.0000 N   0  0  0  0  0  0  0  0  0  0  0  0
    7.5583   -3.1471    0.0000 N   0  0  0  0  0  0  0  0  0  0  0  0
    7.5583   -4.6471    0.0000 N   0  0  0  0  0  0  0  0  0  0  0  0
    6.1317   -5.1106    0.0000 N   0  0  0  0  0  0  0  0  0  0  0  0
    5.6682   -6.5372    0.0000 N   0  0  0  0  0  0  0  0  0  0  0  0
    6.5498   -7.7508    0.0000 C   0  0  0  0  0  0  0  0  0  0  0  0
    5.6682   -8.9643    0.0000 C   0  0  0  0  0  0  0  0  0  0  0  0
    4.2416   -8.5008    0.0000 N   0  0  0  0  0  0  0  0  0  0  0  0
    3.0280   -9.3824    0.0000 C   0  0  0  0  0  0  0  0  0  0  0  0
    3.1848  -10.8742    0.0000 O   0  0  0  0  0  0  0  0  0  0  0  0
    1.6577   -8.7723    0.0000 N   0  0  0  0  0  0  0  0  0  0  0  0
    0.4442   -9.6540    0.0000 C   0  0  0  0  0  0  0  0  0  0  0  0
   -0.9261   -9.0439    0.0000 N   0  0  0  0  0  0  0  0  0  0  0  0
   -2.1396   -9.9256    0.0000 N   0  0  0  0  0  0  0  0  0  0  0  0
   -1.9829  -11.4174    0.0000 N   0  0  0  0  0  0  0  0  0  0  0  0
   -0.6125  -12.0275    0.0000 N   0  0  0  0  0  0  0  0  0  0  0  0
    0.6010  -11.1458    0.0000 N   0  0  0  0  0  0  0  0  0  0  0  0
    4.2416   -7.0008    0.0000 C   0  0  0  0  0  0  0  0  0  0  0  0
    3.0280   -6.1191    0.0000 O   0  0  0  0  0  0  0  0  0  0  0  0
    0.7500   -1.2990    0.0000 C   0  0  0  0  0  0  0  0  0  0  0  0
    1.5000    0.0000    0.0000 C   0  0  0  0  0  0  0  0  0  0  0  0
    0.7500    1.2990    0.0000 C   0  0  0  0  0  0  0  0  0  0  0  0
   -0.7500    1.2990    0.0000 C   0  0  0  0  0  0  0  0  0  0  0  0
   -1.5000    0.0000    0.0000 C   0  0  0  0  0  0  0  0  0  0  0  0
   -0.7500   -1.2990    0.0000 C   0  0  0  0  0  0  0  0  0  0  0  0
  1  2  1  0
  2  3  1  0
  3  4  1  0
  4  5  1  0
  5  6  1  0
  6  7  2  0
  7  8  1  0
  8  9  2  0
  8 10  1  0
 10 11  1  0
 11 12  2  0
 12 13  1  0
 13 14  2  0
 14 15  1  0
 15 16  1  0
 16 17  1  0
 17 18  1  0
 18 19  1  0
 19 20  1  0
 20 21  2  0
 20 22  1  0
 22 23  1  0
 23 24  2  0
 24 25  1  0
 25 26  2  0
 26 27  1  0
 27 28  2  0
 19 29  1  0
 29 30  2  0
  7 31  1  0
 31 32  2  0
 32 33  1  0
 33 34  2  0
 34 35  1  0
 35 36  2  0
 36  4  1  0
 15 11  1  0
 29 16  1  0
 36 31  1  0
 28 23  1  0
M  END
>  <Title>  (147) 
idAADSgen13

$$$$

     RDKit          2D

  6  6  0  0  0  0  0  0  0  0999 V2000
    2.7760    0.0000    0.0000 C   0  0  0  0  0  0  0  0  0  0  0  0
    1.2760    0.0000    0.0000 N   0  0  0  0  0  0  0  0  0  0  0  0
    0.3943    1.2135    0.0000 C   0  0  0  0  0  0  0  0  0  0  0  0
   -1.0323    0.7500    0.0000 C   0  0  0  0  0  0  0  0  0  0  0  0
   -1.0323   -0.7500    0.0000 C   0  0  0  0  0  0  0  0  0  0  0  0
    0.3943   -1.2135    0.0000 C   0  0  0  0  0  0  0  0  0  0  0  0
  1  2  1  0
  2  3  1  0
  3  4  2  0
  4  5  1  0
  5  6  1  0
  6  2  1  0
M  END
>  <Title>  (148) 
idAADTgen13

$$$$

     RDKit          2D

 46 45  0  0  0  0  0  0  0  0999 V2000
    0.0000    0.0000    0.0000 C   0  0  0  0  0  0  0  0  0  0  0  0
   -0.0000   -1.5000    0.0000 C   0  0  0  0  0  0  0  0  0  0  0  0
   -0.0000   -3.0000    0.0000 C   0  0  0  0  0  0  0  0  0  0  0  0
   -0.0000   -4.5000    0.0000 C   0  0  0  0  0  0  0  0  0  0  0  0
   -0.0000   -6.0000    0.0000 C   0  0  0  0  0  0  0  0  0  0  0  0
   -0.0000   -7.5000    0.0000 C   0  0  0  0  0  0  0  0  0  0  0  0
   -0.0000   -9.0000    0.0000 C   0  0  0  0  0  0  0  0  0  0  0  0
   -0.0000  -10.5000    0.0000 C   0  0  0  0  0  0  0  0  0  0  0  0
   -0.0000  -12.0000    0.0000 C   0  0  0  0  0  0  0  0  0  0  0  0
   -0.0000  -13.5000    0.0000 C   0  0  0  0  0  0  0  0  0  0  0  0
   -0.0000  -15.0000    0.0000 C   0  0  0  0  0  0  0  0  0  0  0  0
   -0.0000  -16.5000    0.0000 C   0  0  0  0  0  0  0  0  0  0  0  0
   -0.0000  -18.0000    0.0000 C   0  0  0  0  0  0  0  0  0  0  0  0
   -0.0000  -19.5000    0.0000 C   0  0  0  0  0  0  0  0  0  0  0  0
   -0.0000  -21.0000    0.0000 C   0  0  0  0  0  0  0  0  0  0  0  0
   -0.0000  -22.5000    0.0000 C   0  0  0  0  0  0  0  0  0  0  0  0
   -0.0000  -24.0000    0.0000 C   0  0  0  0  0  0  0  0  0  0  0  0
   -0.0000  -25.5000    0.0000 C   0  0  0  0  0  0  0  0  0  0  0  0
   -0.0000  -27.0000    0.0000 C   0  0  0  0  0  0  0  0  0  0  0  0
   -0.0000  -28.5000    0.0000 C   0  0  0  0  0  0  0  0  0  0  0  0
   -0.0000  -30.0000    0.0000 C   0  0  0  0  0  0  0  0  0  0  0  0
   -0.0000  -31.5000    0.0000 C   0  0  0  0  0  0  0  0  0  0  0  0
   -0.0000  -33.0000    0.0000 C   0  0  0  0  0  0  0  0  0  0  0  0
   -0.0000  -34.5000    0.0000 C   0  0  0  0  0  0  0  0  0  0  0  0
   -0.0000  -36.0000    0.0000 C   0  0  0  0  0  0  0  0  0  0  0  0
   -0.0000  -37.5000    0.0000 C   0  0  0  0  0  0  0  0  0  0  0  0
   -0.0000  -39.0000    0.0000 C   0  0  0  0  0  0  0  0  0  0  0  0
   -0.0000  -40.5000    0.0000 C   0  0  0  0  0  0  0  0  0  0  0  0
   -0.0000  -42.0000    0.0000 C   0  0  0  0  0  0  0  0  0  0  0  0
   -0.0000  -43.5000    0.0000 C   0  0  0  0  0  0  0  0  0  0  0  0
   -0.0000  -45.0000    0.0000 C   0  0  0  0  0  0  0  0  0  0  0  0
   -0.0000  -46.5000    0.0000 C   0  0  0  0  0  0  0  0  0  0  0  0
   -0.0000  -48.0000    0.0000 C   0  0  0  0  0  0  0  0  0  0  0  0
   -0.0000  -49.5000    0.0000 C   0  0  0  0  0  0  0  0  0  0  0  0
   -0.0000  -51.0000    0.0000 C   0  0  0  0  0  0  0  0  0  0  0  0
   -0.0000  -52.5000    0.0000 C   0  0  0  0  0  0  0  0  0  0  0  0
   -0.0000  -54.0000    0.0000 C   0  0  0  0  0  0  0  0  0  0  0  0
   -0.0000  -55.5000    0.0000 C   0  0  0  0  0  0  0  0  0  0  0  0
   -0.0000  -57.0000    0.0000 C   0  0  0  0  0  0  0  0  0  0  0  0
   -0.0000  -58.5000    0.0000 C   0  0  0  0  0  0  0  0  0  0  0  0
   -0.0000  -60.0000    0.0000 C   0  0  0  0  0  0  0  0  0  0  0  0
   -0.0000  -61.5000    0.0000 C   0  0  0  0  0  0  0  0  0  0  0  0
   -0.0000  -63.0000    0.0000 C   0  0  0  0  0  0  0  0  0  0  0  0
   -0.0000  -64.5000    0.0000 C   0  0  0  0  0  0  0  0  0  0  0  0
   -0.0000  -66.0000    0.0000 C   0  0  0  0  0  0  0  0  0  0  0  0
   -0.0000  -67.5000    0.0000 N   0  0  0  0  0  0  0  0  0  0  0  0
  1  2  3  0
  2  3  1  0
  3  4  3  0
  4  5  1  0
  5  6  3  0
  6  7  1  0
  7  8  3  0
  8  9  1  0
  9 10  3  0
 10 11  1  0
 11 12  3  0
 12 13  1  0
 13 14  3  0
 14 15  1  0
 15 16  3  0
 16 17  1  0
 17 18  3  0
 18 19  1  0
 19 20  3  0
 20 21  1  0
 21 22  3  0
 22 23  1  0
 23 24  3  0
 24 25  1  0
 25 26  3  0
 26 27  1  0
 27 28  3  0
 28 29  1  0
 29 30  3  0
 30 31  1  0
 31 32  3  0
 32 33  1  0
 33 34  3  0
 34 35  1  0
 35 36  3  0
 36 37  1  0
 37 38  3  0
 38 39  1  0
 39 40  3  0
 40 41  1  0
 41 42  3  0
 42 43  1  0
 43 44  3  0
 44 45  1  0
 45 46  3  0
M  END
>  <Title>  (149) 
idAADUgen13

$$$$

     RDKit          2D

 23 26  0  0  0  0  0  0  0  0999 V2000
  -10.4180   -3.5583    0.0000 C   0  0  0  0  0  0  0  0  0  0  0  0
   -8.9691   -3.9465    0.0000 C   0  0  0  0  0  0  0  0  0  0  0  0
   -8.5808   -5.3954    0.0000 O   0  0  0  0  0  0  0  0  0  0  0  0
   -7.9084   -2.8858    0.0000 N   0  0  0  0  0  0  0  0  0  0  0  0
   -7.9084   -1.3858    0.0000 C   0  0  0  0  0  0  0  0  0  0  0  0
   -6.4084   -1.3858    0.0000 C   0  0  0  0  0  0  0  0  0  0  0  0
   -5.1094   -0.6358    0.0000 C   0  0  0  0  0  0  0  0  0  0  0  0
   -3.8103   -1.3858    0.0000 C   0  0  0  0  0  0  0  0  0  0  0  0
   -3.8103   -2.8858    0.0000 C   0  0  0  0  0  0  0  0  0  0  0  0
   -2.5113   -3.6358    0.0000 C   0  0  0  0  0  0  0  0  0  0  0  0
   -1.2123   -2.8858    0.0000 N   0  0  0  0  0  0  0  0  0  0  0  0
    0.0868   -3.6358    0.0000 C   0  0  0  0  0  0  0  0  0  0  0  0
    1.3858   -2.8858    0.0000 C   0  0  0  0  0  0  0  0  0  0  0  0
    1.3858   -1.3858    0.0000 C   0  0  0  0  0  0  0  0  0  0  0  0
    1.9598    0.0000    0.0000 C   0  0  0  0  0  0  0  0  0  0  0  0
    1.3858    1.3858    0.0000 C   0  0  0  0  0  0  0  0  0  0  0  0
    0.0000    1.9598    0.0000 C   0  0  0  0  0  0  0  0  0  0  0  0
   -1.3858    1.3858    0.0000 C   0  0  0  0  0  0  0  0  0  0  0  0
   -1.9598    0.0000    0.0000 C   0  0  0  0  0  0  0  0  0  0  0  0
   -1.3858   -1.3858    0.0000 N   0  0  0  0  0  0  0  0  0  0  0  0
   -0.0000   -1.9598    0.0000 C   0  0  0  0  0  0  0  0  0  0  0  0
   -5.1094   -3.6358    0.0000 C   0  0  0  0  0  0  0  0  0  0  0  0
   -6.4084   -2.8858    0.0000 C   0  0  0  0  0  0  0  0  0  0  0  0
  1  2  1  0
  2  3  2  0
  2  4  1  0
  4  5  1  0
  5  6  1  0
  6  7  1  0
  7  8  1  0
  8  9  1  0
  9 10  1  0
 10 11  1  0
 11 12  1  0
 12 13  1  0
 13 14  1  0
 14 15  1  0
 15 16  1  0
 16 17  1  0
 17 18  1  0
 18 19  1  0
 19 20  1  0
 20 21  1  0
  9 22  1  0
 22 23  1  0
 23  4  1  0
 23  6  1  0
 20 11  1  0
 21 14  1  0
M  END
>  <Title>  (150) 
idAADVgen13

$$$$

     RDKit          2D

  6  5  0  0  0  0  0  0  0  0999 V2000
    0.0000    0.0000    0.0000 C   0  0  0  0  0  0  0  0  0  0  0  0
    1.2990    0.7500    0.0000 C   0  0  0  0  0  0  0  0  0  0  0  0
    2.5981   -0.0000    0.0000 C   0  0  0  0  0  0  0  0  0  0  0  0
    3.8971    0.7500    0.0000 C   0  0  0  0  0  0  0  0  0  0  0  0
    5.1962   -0.0000    0.0000 C   0  0  0  0  0  0  0  0  0  0  0  0
    3.8971    2.2500    0.0000 C   0  0  0  0  0  0  0  0  0  0  0  0
  1  2  2  0
  2  3  1  0
  3  4  1  0
  4  5  1  0
  4  6  1  0
M  END
>  <Title>  (151) 
idAADWgen13

$$$$

     RDKit          2D

 82 83  0  0  0  0  0  0  0  0999 V2000
   -2.2034   -1.0693    0.0000 C   0  0  0  0  0  0  0  0  0  0  0  0
   -2.4915    0.4028    0.0000 C   0  0  0  0  0  0  0  0  0  0  0  0
   -3.9740    0.1741    0.0000 C   0  0  0  0  0  0  0  0  0  0  0  0
   -5.4701    0.0654    0.0000 C   0  0  0  0  0  0  0  0  0  0  0  0
   -6.9700    0.0775    0.0000 C   0  0  0  0  0  0  0  0  0  0  0  0
   -8.4641    0.2103    0.0000 C   0  0  0  0  0  0  0  0  0  0  0  0
   -9.9427    0.4628    0.0000 C   0  0  0  0  0  0  0  0  0  0  0  0
  -11.3962    0.8335    0.0000 C   0  0  0  0  0  0  0  0  0  0  0  0
  -12.8151    1.3199    0.0000 C   0  0  0  0  0  0  0  0  0  0  0  0
  -14.1903    1.9190    0.0000 C   0  0  0  0  0  0  0  0  0  0  0  0
  -15.5128    2.6267    0.0000 C   0  0  0  0  0  0  0  0  0  0  0  0
  -16.7741    3.4386    0.0000 C   0  0  0  0  0  0  0  0  0  0  0  0
  -17.9660    4.3494    0.0000 C   0  0  0  0  0  0  0  0  0  0  0  0
  -19.0807    5.3531    0.0000 C   0  0  0  0  0  0  0  0  0  0  0  0
  -20.1111    6.4432    0.0000 C   0  0  0  0  0  0  0  0  0  0  0  0
  -21.0503    7.6127    0.0000 C   0  0  0  0  0  0  0  0  0  0  0  0
  -21.8925    8.8540    0.0000 C   0  0  0  0  0  0  0  0  0  0  0  0
  -22.6320   10.1591    0.0000 C   0  0  0  0  0  0  0  0  0  0  0  0
  -23.2641   11.5194    0.0000 C   0  0  0  0  0  0  0  0  0  0  0  0
  -23.7847   12.9261    0.0000 C   0  0  0  0  0  0  0  0  0  0  0  0
  -24.1904   14.3702    0.0000 C   0  0  0  0  0  0  0  0  0  0  0  0
  -24.4786   15.8423    0.0000 C   0  0  0  0  0  0  0  0  0  0  0  0
  -24.6474   17.3327    0.0000 C   0  0  0  0  0  0  0  0  0  0  0  0
  -24.6957   18.8320    0.0000 C   0  0  0  0  0  0  0  0  0  0  0  0
  -24.6232   20.3302    0.0000 C   0  0  0  0  0  0  0  0  0  0  0  0
  -24.4304   21.8178    0.0000 C   0  0  0  0  0  0  0  0  0  0  0  0
  -24.1186   23.2850    0.0000 C   0  0  0  0  0  0  0  0  0  0  0  0
  -23.6896   24.7224    0.0000 C   0  0  0  0  0  0  0  0  0  0  0  0
  -23.1464   26.1206    0.0000 C   0  0  0  0  0  0  0  0  0  0  0  0
  -22.4925   27.4705    0.0000 C   0  0  0  0  0  0  0  0  0  0  0  0
  -21.7321   28.7635    0.0000 C   0  0  0  0  0  0  0  0  0  0  0  0
  -20.8701   29.9910    0.0000 C   0  0  0  0  0  0  0  0  0  0  0  0
  -19.9121   31.1453    0.0000 C   0  0  0  0  0  0  0  0  0  0  0  0
  -18.8643   32.2187    0.0000 C   0  0  0  0  0  0  0  0  0  0  0  0
  -17.7336   33.2043    0.0000 C   0  0  0  0  0  0  0  0  0  0  0  0
  -16.5272   34.0957    0.0000 C   0  0  0  0  0  0  0  0  0  0  0  0
  -15.2530   34.8872    0.0000 C   0  0  0  0  0  0  0  0  0  0  0  0
  -13.9192   35.5735    0.0000 C   0  0  0  0  0  0  0  0  0  0  0  0
  -12.5346   36.1503    0.0000 C   0  0  0  0  0  0  0  0  0  0  0  0
  -11.1080   36.6139    0.0000 C   0  0  0  0  0  0  0  0  0  0  0  0
   -9.6487   36.9611    0.0000 C   0  0  0  0  0  0  0  0  0  0  0  0
   -8.1662   37.1898    0.0000 C   0  0  0  0  0  0  0  0  0  0  0  0
   -6.6702   37.2984    0.0000 C   0  0  0  0  0  0  0  0  0  0  0  0
   -5.1702   37.2863    0.0000 C   0  0  0  0  0  0  0  0  0  0  0  0
   -3.6761   37.1536    0.0000 C   0  0  0  0  0  0  0  0  0  0  0  0
   -2.1975   36.9011    0.0000 C   0  0  0  0  0  0  0  0  0  0  0  0
   -0.7441   36.5304    0.0000 C   0  0  0  0  0  0  0  0  0  0  0  0
    0.6749   36.0439    0.0000 C   0  0  0  0  0  0  0  0  0  0  0  0
    2.0501   35.4449    0.0000 C   0  0  0  0  0  0  0  0  0  0  0  0
    3.3726   34.7371    0.0000 C   0  0  0  0  0  0  0  0  0  0  0  0
    4.6339   33.9252    0.0000 C   0  0  0  0  0  0  0  0  0  0  0  0
    5.8257   33.0145    0.0000 C   0  0  0  0  0  0  0  0  0  0  0  0
    6.9405   32.0108    0.0000 C   0  0  0  0  0  0  0  0  0  0  0  0
    7.9708   30.9207    0.0000 C   0  0  0  0  0  0  0  0  0  0  0  0
    8.9101   29.7511    0.0000 C   0  0  0  0  0  0  0  0  0  0  0  0
    9.7522   28.5098    0.0000 C   0  0  0  0  0  0  0  0  0  0  0  0
   10.4917   27.2048    0.0000 C   0  0  0  0  0  0  0  0  0  0  0  0
   11.1238   25.8445    0.0000 C   0  0  0  0  0  0  0  0  0  0  0  0
   11.6444   24.4377    0.0000 C   0  0  0  0  0  0  0  0  0  0  0  0
   12.0501   22.9936    0.0000 C   0  0  0  0  0  0  0  0  0  0  0  0
   12.3383   21.5216    0.0000 C   0  0  0  0  0  0  0  0  0  0  0  0
   12.5071   20.0311    0.0000 C   0  0  0  0  0  0  0  0  0  0  0  0
   12.5554   18.5319    0.0000 C   0  0  0  0  0  0  0  0  0  0  0  0
   12.4830   17.0336    0.0000 C   0  0  0  0  0  0  0  0  0  0  0  0
   12.2902   15.5461    0.0000 C   0  0  0  0  0  0  0  0  0  0  0  0
   11.9783   14.0789    0.0000 C   0  0  0  0  0  0  0  0  0  0  0  0
   11.5494   12.6415    0.0000 C   0  0  0  0  0  0  0  0  0  0  0  0
   11.0062   11.2433    0.0000 C   0  0  0  0  0  0  0  0  0  0  0  0
   10.3523    9.8933    0.0000 C   0  0  0  0  0  0  0  0  0  0  0  0
    9.5918    8.6004    0.0000 C   0  0  0  0  0  0  0  0  0  0  0  0
    8.7298    7.3728    0.0000 C   0  0  0  0  0  0  0  0  0  0  0  0
    7.7718    6.2186    0.0000 C   0  0  0  0  0  0  0  0  0  0  0  0
    6.7240    5.1452    0.0000 C   0  0  0  0  0  0  0  0  0  0  0  0
    5.5933    4.1596    0.0000 C   0  0  0  0  0  0  0  0  0  0  0  0
    4.3869    3.2682    0.0000 C   0  0  0  0  0  0  0  0  0  0  0  0
    3.1127    2.4767    0.0000 C   0  0  0  0  0  0  0  0  0  0  0  0
    1.7790    1.7903    0.0000 C   0  0  0  0  0  0  0  0  0  0  0  0
    0.3943    1.2135    0.0000 C   0  0  0  0  0  0  0  0  0  0  0  0
    1.2760    0.0000    0.0000 C   0  0  0  0  0  0  0  0  0  0  0  0
    0.3943   -1.2135    0.0000 C   0  0  0  0  0  0  0  0  0  0  0  0
   -1.0323   -0.7500    0.0000 C   0  0  0  0  0  0  0  0  0  0  0  0
   -1.0323    0.7500    0.0000 C   0  0  0  0  0  0  0  0  0  0  0  0
  1  2  1  0
  2  3  1  0
  3  4  1  0
  4  5  1  0
  5  6  1  0
  6  7  1  0
  7  8  1  0
  8  9  1  0
  9 10  1  0
 10 11  1  0
 11 12  1  0
 12 13  1  0
 13 14  1  0
 14 15  1  0
 15 16  1  0
 16 17  1  0
 17 18  1  0
 18 19  1  0
 19 20  1  0
 20 21  1  0
 21 22  1  0
 22 23  1  0
 23 24  1  0
 24 25  1  0
 25 26  1  0
 26 27  1  0
 27 28  1  0
 28 29  1  0
 29 30  1  0
 30 31  1  0
 31 32  1  0
 32 33  1  0
 33 34  1  0
 34 35  1  0
 35 36  1  0
 36 37  1  0
 37 38  1  0
 38 39  1  0
 39 40  1  0
 40 41  1  0
 41 42  1  0
 42 43  1  0
 43 44  1  0
 44 45  1  0
 45 46  1  0
 46 47  1  0
 47 48  1  0
 48 49  1  0
 49 50  2  0
 50 51  1  0
 51 52  2  0
 52 53  1  0
 53 54  2  0
 54 55  1  0
 55 56  2  0
 56 57  1  0
 57 58  2  0
 58 59  1  0
 59 60  2  0
 60 61  1  0
 61 62  2  0
 62 63  1  0
 63 64  2  0
 64 65  1  0
 65 66  2  0
 66 67  1  0
 67 68  2  0
 68 69  1  0
 69 70  2  0
 70 71  1  0
 71 72  2  0
 72 73  1  0
 73 74  2  0
 74 75  1  0
 75 76  2  0
 76 77  1  0
 77 78  2  0
 78 79  1  0
 79 80  2  0
 80 81  1  0
 81 82  2  0
 82  2  1  0
 82 78  1  0
M  END
>  <Title>  (152) 
idAADXgen13

$$$$

     RDKit          2D

 11 10  0  0  0  0  0  0  0  0999 V2000
    0.0000    0.0000    0.0000 C   0  0  0  0  0  0  0  0  0  0  0  0
   -0.0000   -1.5000    0.0000 C   0  0  0  0  0  0  0  0  0  0  0  0
   -0.0000   -3.0000    0.0000 C   0  0  0  0  0  0  0  0  0  0  0  0
    1.2990   -3.7500    0.0000 C   0  0  0  0  0  0  0  0  0  0  0  0
    1.2990   -5.2500    0.0000 C   0  0  0  0  0  0  0  0  0  0  0  0
    2.5981   -6.0000    0.0000 N   0  0  0  0  0  0  0  0  0  0  0  0
    2.5981   -7.5000    0.0000 C   0  0  0  0  0  0  0  0  0  0  0  0
    1.2990   -8.2500    0.0000 O   0  0  0  0  0  0  0  0  0  0  0  0
    3.8971   -8.2500    0.0000 C   0  0  0  0  0  0  0  0  0  0  0  0
    3.8971   -9.7500    0.0000 C   0  0  0  0  0  0  0  0  0  0  0  0
    5.1962  -10.5000    0.0000 C   0  0  0  0  0  0  0  0  0  0  0  0
  1  2  3  0
  2  3  1  0
  3  4  1  0
  4  5  1  0
  5  6  1  0
  6  7  1  0
  7  8  2  0
  7  9  1  0
  9 10  1  0
 10 11  1  0
M  END
>  <Title>  (153) 
idAADYgen13

$$$$

     RDKit          2D

  7  7  0  0  0  0  0  0  0  0999 V2000
    3.0000    0.0000    0.0000 C   0  0  0  0  0  0  0  0  0  0  0  0
    1.5000    0.0000    0.0000 C   0  0  0  0  0  0  0  0  0  0  0  0
    0.7500   -1.2990    0.0000 C   0  0  0  0  0  0  0  0  0  0  0  0
   -0.7500   -1.2990    0.0000 C   0  0  0  0  0  0  0  0  0  0  0  0
   -1.5000    0.0000    0.0000 C   0  0  0  0  0  0  0  0  0  0  0  0
   -0.7500    1.2990    0.0000 C   0  0  0  0  0  0  0  0  0  0  0  0
    0.7500    1.2990    0.0000 C   0  0  0  0  0  0  0  0  0  0  0  0
  1  2  1  0
  2  3  1  0
  3  4  2  0
  4  5  1  0
  5  6  1  0
  6  7  1  0
  7  2  1  0
M  END
>  <Title>  (154) 
idAADZgen13

$$$$

     RDKit          2D

  6  5  0  0  0  0  0  0  0  0999 V2000
    0.0000    0.0000    0.0000 C   0  0  0  0  0  0  0  0  0  0  0  0
   -0.0000   -1.5000    0.0000 C   0  0  0  0  0  0  0  0  0  0  0  0
   -0.0000   -3.0000    0.0000 C   0  0  0  0  0  0  0  0  0  0  0  0
    1.2990   -3.7500    0.0000 C   0  0  0  0  0  0  0  0  0  0  0  0
    1.2990   -5.2500    0.0000 C   0  0  0  0  0  0  0  0  0  0  0  0
    2.5981   -3.0000    0.0000 F   0  0  0  0  0  0  0  0  0  0  0  0
  1  2  3  0
  2  3  1  0
  3  4  1  0
  4  5  1  0
  4  6  1  0
M  END
>  <Title>  (155) 
idAAEAgen13

$$$$

     RDKit          2D

 35 39  0  0  0  0  0  0  0  0999 V2000
   -3.0000   -5.1962    0.0000 C   0  0  0  0  0  0  0  0  0  0  0  0
   -1.5000   -5.1962    0.0000 C   0  0  0  0  0  0  0  0  0  0  0  0
   -0.7500   -3.8971    0.0000 C   0  0  0  0  0  0  0  0  0  0  0  0
    0.7500   -3.8971    0.0000 C   0  0  0  0  0  0  0  0  0  0  0  0
    1.5000   -5.1962    0.0000 C   0  0  0  0  0  0  0  0  0  0  0  0
    3.0000   -5.1962    0.0000 C   0  0  0  0  0  0  0  0  0  0  0  0
    3.7500   -6.4952    0.0000 O   0  0  0  0  0  0  0  0  0  0  0  0
    3.7500   -3.8971    0.0000 N   0  0  0  0  0  0  0  0  0  0  0  0
    5.2500   -3.8971    0.0000 C   0  0  0  0  0  0  0  0  0  0  0  0
    6.0000   -5.1962    0.0000 C   0  0  0  0  0  0  0  0  0  0  0  0
    7.5000   -5.1962    0.0000 N   0  0  0  0  0  0  0  0  0  0  0  0
    8.2500   -3.8971    0.0000 N   0  0  0  0  0  0  0  0  0  0  0  0
    7.5000   -2.5981    0.0000 N   0  0  0  0  0  0  0  0  0  0  0  0
    6.0000   -2.5981    0.0000 N   0  0  0  0  0  0  0  0  0  0  0  0
    5.2500   -1.2990    0.0000 N   0  0  0  0  0  0  0  0  0  0  0  0
    3.7582   -1.1422    0.0000 C   0  0  0  0  0  0  0  0  0  0  0  0
    3.4463    0.3250    0.0000 C   0  0  0  0  0  0  0  0  0  0  0  0
    4.7454    1.0750    0.0000 N   0  0  0  0  0  0  0  0  0  0  0  0
    4.9022    2.5668    0.0000 C   0  0  0  0  0  0  0  0  0  0  0  0
    3.6887    3.4484    0.0000 O   0  0  0  0  0  0  0  0  0  0  0  0
    6.2725    3.1769    0.0000 N   0  0  0  0  0  0  0  0  0  0  0  0
    6.4293    4.6686    0.0000 C   0  0  0  0  0  0  0  0  0  0  0  0
    7.7996    5.2788    0.0000 N   0  0  0  0  0  0  0  0  0  0  0  0
    7.9564    6.7705    0.0000 N   0  0  0  0  0  0  0  0  0  0  0  0
    6.7429    7.6522    0.0000 N   0  0  0  0  0  0  0  0  0  0  0  0
    5.3726    7.0421    0.0000 N   0  0  0  0  0  0  0  0  0  0  0  0
    5.2158    5.5503    0.0000 N   0  0  0  0  0  0  0  0  0  0  0  0
    5.8601    0.0713    0.0000 C   0  0  0  0  0  0  0  0  0  0  0  0
    7.3273    0.3831    0.0000 O   0  0  0  0  0  0  0  0  0  0  0  0
    0.7500   -6.4952    0.0000 C   0  0  0  0  0  0  0  0  0  0  0  0
    1.5000   -7.7942    0.0000 C   0  0  0  0  0  0  0  0  0  0  0  0
    0.7500   -9.0933    0.0000 C   0  0  0  0  0  0  0  0  0  0  0  0
   -0.7500   -9.0933    0.0000 C   0  0  0  0  0  0  0  0  0  0  0  0
   -1.5000   -7.7942    0.0000 C   0  0  0  0  0  0  0  0  0  0  0  0
   -0.7500   -6.4952    0.0000 C   0  0  0  0  0  0  0  0  0  0  0  0
  1  2  1  0
  2  3  2  0
  3  4  1  0
  4  5  2  0
  5  6  1  0
  6  7  2  0
  6  8  1  0
  8  9  1  0
  9 10  1  0
 10 11  1  0
 11 12  1  0
 12 13  2  0
 13 14  1  0
 14 15  1  0
 15 16  1  0
 16 17  1  0
 17 18  1  0
 18 19  1  0
 19 20  2  0
 19 21  1  0
 21 22  1  0
 22 23  2  0
 23 24  1  0
 24 25  2  0
 25 26  1  0
 26 27  2  0
 18 28  1  0
 28 29  2  0
  5 30  1  0
 30 31  2  0
 31 32  1  0
 32 33  2  0
 33 34  1  0
 34 35  2  0
 35  2  1  0
 14  9  1  0
 28 15  1  0
 35 30  1  0
 27 22  1  0
M  END
>  <Title>  (156) 
idAAEBgen13

$$$$

     RDKit          2D

 10  9  0  0  0  0  0  0  0  0999 V2000
    0.0000    0.0000    0.0000 C   0  0  0  0  0  0  0  0  0  0  0  0
    1.2990    0.7500    0.0000 C   0  0  0  0  0  0  0  0  0  0  0  0
    2.5981   -0.0000    0.0000 C   0  0  0  0  0  0  0  0  0  0  0  0
    3.8971    0.7500    0.0000 C   0  0  0  0  0  0  0  0  0  0  0  0
    5.1962   -0.0000    0.0000 N   0  0  0  0  0  0  0  0  0  0  0  0
    6.4952    0.7500    0.0000 C   0  0  0  0  0  0  0  0  0  0  0  0
    6.4952    2.2500    0.0000 O   0  0  0  0  0  0  0  0  0  0  0  0
    7.7942   -0.0000    0.0000 N   0  0  0  0  0  0  0  0  0  0  0  0
    9.0933    0.7500    0.0000 C   0  0  0  0  0  0  0  0  0  0  0  0
   10.3923   -0.0000    0.0000 C   0  0  0  0  0  0  0  0  0  0  0  0
  1  2  2  0
  2  3  1  0
  3  4  1  0
  4  5  1  0
  5  6  1  0
  6  7  2  0
  6  8  1  0
  8  9  1  0
  9 10  1  0
M  END
>  <Title>  (157) 
idAAECgen13

$$$$

     RDKit          2D

 41 46  0  0  0  0  0  0  0  0999 V2000
   -2.3737   -6.1885    0.0000 C   0  0  0  0  0  0  0  0  0  0  0  0
   -1.4095   -5.0395    0.0000 C   0  0  0  0  0  0  0  0  0  0  0  0
   -0.0000   -5.5525    0.0000 C   0  0  0  0  0  0  0  0  0  0  0  0
    1.4095   -5.0395    0.0000 C   0  0  0  0  0  0  0  0  0  0  0  0
    2.1595   -3.7404    0.0000 C   0  0  0  0  0  0  0  0  0  0  0  0
    1.8991   -2.2632    0.0000 C   0  0  0  0  0  0  0  0  0  0  0  0
    3.1981   -1.5132    0.0000 C   0  0  0  0  0  0  0  0  0  0  0  0
    3.1981   -0.0132    0.0000 O   0  0  0  0  0  0  0  0  0  0  0  0
    4.4971   -2.2632    0.0000 N   0  0  0  0  0  0  0  0  0  0  0  0
    5.7962   -1.5132    0.0000 C   0  0  0  0  0  0  0  0  0  0  0  0
    5.9530   -0.0214    0.0000 N   0  0  0  0  0  0  0  0  0  0  0  0
    7.4202    0.2904    0.0000 N   0  0  0  0  0  0  0  0  0  0  0  0
    8.1702   -1.0086    0.0000 N   0  0  0  0  0  0  0  0  0  0  0  0
    7.1665   -2.1233    0.0000 N   0  0  0  0  0  0  0  0  0  0  0  0
    7.4784   -3.5905    0.0000 C   0  0  0  0  0  0  0  0  0  0  0  0
    8.8487   -4.2007    0.0000 C   0  0  0  0  0  0  0  0  0  0  0  0
    8.6919   -5.6924    0.0000 C   0  0  0  0  0  0  0  0  0  0  0  0
    7.2247   -6.0043    0.0000 C   0  0  0  0  0  0  0  0  0  0  0  0
    6.6146   -7.3746    0.0000 C   0  0  0  0  0  0  0  0  0  0  0  0
    7.4962   -8.5881    0.0000 O   0  0  0  0  0  0  0  0  0  0  0  0
    5.1228   -7.5314    0.0000 N   0  0  0  0  0  0  0  0  0  0  0  0
    4.5127   -8.9017    0.0000 C   0  0  0  0  0  0  0  0  0  0  0  0
    3.0209   -9.0585    0.0000 N   0  0  0  0  0  0  0  0  0  0  0  0
    2.4108  -10.4288    0.0000 N   0  0  0  0  0  0  0  0  0  0  0  0
    3.2925  -11.6424    0.0000 N   0  0  0  0  0  0  0  0  0  0  0  0
    4.7843  -11.4856    0.0000 N   0  0  0  0  0  0  0  0  0  0  0  0
    5.3944  -10.1153    0.0000 N   0  0  0  0  0  0  0  0  0  0  0  0
    6.4747   -4.7053    0.0000 C   0  0  0  0  0  0  0  0  0  0  0  0
    4.9829   -4.5485    0.0000 O   0  0  0  0  0  0  0  0  0  0  0  0
    0.7500   -1.2990    0.0000 C   0  0  0  0  0  0  0  0  0  0  0  0
    1.5000    0.0000    0.0000 C   0  0  0  0  0  0  0  0  0  0  0  0
    0.7500    1.2990    0.0000 C   0  0  0  0  0  0  0  0  0  0  0  0
   -0.7500    1.2990    0.0000 C   0  0  0  0  0  0  0  0  0  0  0  0
   -1.5000    0.0000    0.0000 C   0  0  0  0  0  0  0  0  0  0  0  0
   -0.7500   -1.2990    0.0000 C   0  0  0  0  0  0  0  0  0  0  0  0
   -1.8991   -2.2632    0.0000 C   0  0  0  0  0  0  0  0  0  0  0  0
   -3.0481   -1.2990    0.0000 C   0  0  0  0  0  0  0  0  0  0  0  0
   -4.4577   -1.8121    0.0000 C   0  0  0  0  0  0  0  0  0  0  0  0
   -4.7181   -3.2893    0.0000 C   0  0  0  0  0  0  0  0  0  0  0  0
   -3.5691   -4.2535    0.0000 C   0  0  0  0  0  0  0  0  0  0  0  0
   -2.1595   -3.7404    0.0000 C   0  0  0  0  0  0  0  0  0  0  0  0
  1  2  1  0
  2  3  1  0
  3  4  2  0
  4  5  1  0
  5  6  2  0
  6  7  1  0
  7  8  2  0
  7  9  1  0
  9 10  1  0
 10 11  2  0
 11 12  1  0
 12 13  2  0
 13 14  1  0
 14 15  1  0
 15 16  2  0
 16 17  1  0
 17 18  2  0
 18 19  1  0
 19 20  2  0
 19 21  1  0
 21 22  1  0
 22 23  2  0
 23 24  1  0
 24 25  2  0
 25 26  1  0
 26 27  2  0
 18 28  1  0
 28 29  2  0
  6 30  1  0
 30 31  2  0
 31 32  1  0
 32 33  2  0
 33 34  1  0
 34 35  2  0
 35 36  1  0
 36 37  2  0
 37 38  1  0
 38 39  2  0
 39 40  1  0
 40 41  2  0
 41  2  1  0
 14 10  1  0
 28 15  1  0
 35 30  1  0
 41 36  1  0
 27 22  1  0
M  END
>  <Title>  (158) 
idAAEDgen13

$$$$

     RDKit          2D

 66 67  0  0  0  0  0  0  0  0999 V2000
   -2.2563   -1.0471    0.0000 C   0  0  0  0  0  0  0  0  0  0  0  0
   -2.4984    0.4332    0.0000 C   0  0  0  0  0  0  0  0  0  0  0  0
   -3.9891    0.2663    0.0000 C   0  0  0  0  0  0  0  0  0  0  0  0
   -5.4891    0.2511    0.0000 C   0  0  0  0  0  0  0  0  0  0  0  0
   -6.9828    0.3877    0.0000 C   0  0  0  0  0  0  0  0  0  0  0  0
   -8.4551    0.6748    0.0000 C   0  0  0  0  0  0  0  0  0  0  0  0
   -9.8908    1.1093    0.0000 C   0  0  0  0  0  0  0  0  0  0  0  0
  -11.2751    1.6868    0.0000 C   0  0  0  0  0  0  0  0  0  0  0  0
  -12.5940    2.4015    0.0000 C   0  0  0  0  0  0  0  0  0  0  0  0
  -13.8337    3.2458    0.0000 C   0  0  0  0  0  0  0  0  0  0  0  0
  -14.9817    4.2113    0.0000 C   0  0  0  0  0  0  0  0  0  0  0  0
  -16.0261    5.2880    0.0000 C   0  0  0  0  0  0  0  0  0  0  0  0
  -16.9563    6.4648    0.0000 C   0  0  0  0  0  0  0  0  0  0  0  0
  -17.7626    7.7296    0.0000 C   0  0  0  0  0  0  0  0  0  0  0  0
  -18.4368    9.0696    0.0000 C   0  0  0  0  0  0  0  0  0  0  0  0
  -18.9720   10.4708    0.0000 C   0  0  0  0  0  0  0  0  0  0  0  0
  -19.3626   11.9191    0.0000 C   0  0  0  0  0  0  0  0  0  0  0  0
  -19.6048   13.3994    0.0000 C   0  0  0  0  0  0  0  0  0  0  0  0
  -19.6960   14.8966    0.0000 C   0  0  0  0  0  0  0  0  0  0  0  0
  -19.6352   16.3954    0.0000 C   0  0  0  0  0  0  0  0  0  0  0  0
  -19.4231   17.8803    0.0000 C   0  0  0  0  0  0  0  0  0  0  0  0
  -19.0618   19.3362    0.0000 C   0  0  0  0  0  0  0  0  0  0  0  0
  -18.5551   20.7480    0.0000 C   0  0  0  0  0  0  0  0  0  0  0  0
  -17.9082   22.1013    0.0000 C   0  0  0  0  0  0  0  0  0  0  0  0
  -17.1277   23.3823    0.0000 C   0  0  0  0  0  0  0  0  0  0  0  0
  -16.2216   24.5777    0.0000 C   0  0  0  0  0  0  0  0  0  0  0  0
  -15.1993   25.6753    0.0000 C   0  0  0  0  0  0  0  0  0  0  0  0
  -14.0711   26.6638    0.0000 C   0  0  0  0  0  0  0  0  0  0  0  0
  -12.8487   27.5332    0.0000 C   0  0  0  0  0  0  0  0  0  0  0  0
  -11.5446   28.2744    0.0000 C   0  0  0  0  0  0  0  0  0  0  0  0
  -10.1722   28.8799    0.0000 C   0  0  0  0  0  0  0  0  0  0  0  0
   -8.7456   29.3434    0.0000 C   0  0  0  0  0  0  0  0  0  0  0  0
   -7.2795   29.6602    0.0000 C   0  0  0  0  0  0  0  0  0  0  0  0
   -5.7888   29.8271    0.0000 C   0  0  0  0  0  0  0  0  0  0  0  0
   -4.2889   29.8423    0.0000 C   0  0  0  0  0  0  0  0  0  0  0  0
   -2.7951   29.7056    0.0000 C   0  0  0  0  0  0  0  0  0  0  0  0
   -1.3228   29.4186    0.0000 C   0  0  0  0  0  0  0  0  0  0  0  0
    0.1129   28.9841    0.0000 C   0  0  0  0  0  0  0  0  0  0  0  0
    1.4972   28.4066    0.0000 C   0  0  0  0  0  0  0  0  0  0  0  0
    2.8160   27.6919    0.0000 C   0  0  0  0  0  0  0  0  0  0  0  0
    4.0558   26.8475    0.0000 C   0  0  0  0  0  0  0  0  0  0  0  0
    5.2038   25.8821    0.0000 C   0  0  0  0  0  0  0  0  0  0  0  0
    6.2482   24.8054    0.0000 C   0  0  0  0  0  0  0  0  0  0  0  0
    7.1783   23.6286    0.0000 C   0  0  0  0  0  0  0  0  0  0  0  0
    7.9846   22.3638    0.0000 C   0  0  0  0  0  0  0  0  0  0  0  0
    8.6589   21.0238    0.0000 C   0  0  0  0  0  0  0  0  0  0  0  0
    9.1940   19.6225    0.0000 C   0  0  0  0  0  0  0  0  0  0  0  0
    9.5847   18.1743    0.0000 C   0  0  0  0  0  0  0  0  0  0  0  0
    9.8269   16.6940    0.0000 C   0  0  0  0  0  0  0  0  0  0  0  0
    9.9180   15.1968    0.0000 C   0  0  0  0  0  0  0  0  0  0  0  0
    9.8572   13.6980    0.0000 C   0  0  0  0  0  0  0  0  0  0  0  0
    9.6451   12.2131    0.0000 C   0  0  0  0  0  0  0  0  0  0  0  0
    9.2839   10.7572    0.0000 C   0  0  0  0  0  0  0  0  0  0  0  0
    8.7772    9.3454    0.0000 C   0  0  0  0  0  0  0  0  0  0  0  0
    8.1303    7.9920    0.0000 C   0  0  0  0  0  0  0  0  0  0  0  0
    7.3498    6.7111    0.0000 C   0  0  0  0  0  0  0  0  0  0  0  0
    6.4437    5.5157    0.0000 C   0  0  0  0  0  0  0  0  0  0  0  0
    5.4213    4.4181    0.0000 C   0  0  0  0  0  0  0  0  0  0  0  0
    4.2931    3.4295    0.0000 C   0  0  0  0  0  0  0  0  0  0  0  0
    3.0707    2.5602    0.0000 C   0  0  0  0  0  0  0  0  0  0  0  0
    1.7667    1.8190    0.0000 C   0  0  0  0  0  0  0  0  0  0  0  0
    0.3943    1.2135    0.0000 C   0  0  0  0  0  0  0  0  0  0  0  0
    1.2760    0.0000    0.0000 C   0  0  0  0  0  0  0  0  0  0  0  0
    0.3943   -1.2135    0.0000 C   0  0  0  0  0  0  0  0  0  0  0  0
   -1.0323   -0.7500    0.0000 C   0  0  0  0  0  0  0  0  0  0  0  0
   -1.0323    0.7500    0.0000 C   0  0  0  0  0  0  0  0  0  0  0  0
  1  2  1  0
  2  3  1  0
  3  4  1  0
  4  5  1  0
  5  6  1  0
  6  7  1  0
  7  8  1  0
  8  9  1  0
  9 10  1  0
 10 11  1  0
 11 12  1  0
 12 13  1  0
 13 14  1  0
 14 15  1  0
 15 16  1  0
 16 17  1  0
 17 18  1  0
 18 19  1  0
 19 20  1  0
 20 21  1  0
 21 22  1  0
 22 23  1  0
 23 24  1  0
 24 25  1  0
 25 26  1  0
 26 27  1  0
 27 28  1  0
 28 29  1  0
 29 30  1  0
 30 31  1  0
 31 32  1  0
 32 33  1  0
 33 34  1  0
 34 35  1  0
 35 36  1  0
 36 37  1  0
 37 38  1  0
 38 39  1  0
 39 40  1  0
 40 41  1  0
 41 42  1  0
 42 43  1  0
 43 44  1  0
 44 45  1  0
 45 46  1  0
 46 47  1  0
 47 48  2  0
 48 49  1  0
 49 50  2  0
 50 51  1  0
 51 52  2  0
 52 53  1  0
 53 54  2  0
 54 55  1  0
 55 56  2  0
 56 57  1  0
 57 58  2  0
 58 59  1  0
 59 60  2  0
 60 61  1  0
 61 62  2  0
 62 63  1  0
 63 64  2  0
 64 65  1  0
 65 66  2  0
 66  2  1  0
 66 62  1  0
M  END
>  <Title>  (159) 
idAAEEgen13

$$$$

     RDKit          2D

 11 12  0  0  0  0  0  0  0  0999 V2000
   -4.3202   -4.5321    0.0000 C   0  0  0  0  0  0  0  0  0  0  0  0
   -3.2595   -3.4715    0.0000 C   0  0  0  0  0  0  0  0  0  0  0  0
   -1.8107   -3.8597    0.0000 C   0  0  0  0  0  0  0  0  0  0  0  0
   -0.7500   -2.7990    0.0000 N   0  0  0  0  0  0  0  0  0  0  0  0
    0.7500   -2.7990    0.0000 C   0  0  0  0  0  0  0  0  0  0  0  0
    0.7500   -1.2990    0.0000 C   0  0  0  0  0  0  0  0  0  0  0  0
    1.5000    0.0000    0.0000 C   0  0  0  0  0  0  0  0  0  0  0  0
    0.7500    1.2990    0.0000 C   0  0  0  0  0  0  0  0  0  0  0  0
   -0.7500    1.2990    0.0000 C   0  0  0  0  0  0  0  0  0  0  0  0
   -1.5000    0.0000    0.0000 C   0  0  0  0  0  0  0  0  0  0  0  0
   -0.7500   -1.2990    0.0000 C   0  0  0  0  0  0  0  0  0  0  0  0
  1  2  1  0
  2  3  1  0
  3  4  1  0
  4  5  1  0
  5  6  1  0
  6  7  2  0
  7  8  1  0
  8  9  2  0
  9 10  1  0
 10 11  2  0
 11  4  1  0
 11  6  1  0
M  END
>  <Title>  (160) 
idAAEFgen13

$$$$

     RDKit          2D

  7  6  0  0  0  0  0  0  0  0999 V2000
    0.0000    0.0000    0.0000 C   0  0  0  0  0  0  0  0  0  0  0  0
    1.2990    0.7500    0.0000 C   0  0  0  0  0  0  0  0  0  0  0  0
    2.5981   -0.0000    0.0000 C   0  0  0  0  0  0  0  0  0  0  0  0
    3.8971    0.7500    0.0000 C   0  0  0  0  0  0  0  0  0  0  0  0
    5.1962   -0.0000    0.0000 C   0  0  0  0  0  0  0  0  0  0  0  0
    6.4952    0.7500    0.0000 C   0  0  0  0  0  0  0  0  0  0  0  0
    5.1962   -1.5000    0.0000 N   0  0  0  0  0  0  0  0  0  0  0  0
  1  2  2  0
  2  3  1  0
  3  4  1  0
  4  5  1  0
  5  6  1  0
  5  7  1  0
M  END
>  <Title>  (161) 
idAAEGgen13

$$$$

     RDKit          2D

 39 43  0  0  0  0  0  0  0  0999 V2000
   -6.0000   -5.1962    0.0000 C   0  0  0  0  0  0  0  0  0  0  0  0
   -5.2500   -3.8971    0.0000 N   0  0  0  0  0  0  0  0  0  0  0  0
   -6.0000   -2.5981    0.0000 C   0  0  0  0  0  0  0  0  0  0  0  0
   -3.7500   -3.8971    0.0000 C   0  0  0  0  0  0  0  0  0  0  0  0
   -3.0000   -5.1962    0.0000 O   0  0  0  0  0  0  0  0  0  0  0  0
   -3.0000   -2.5981    0.0000 N   0  0  0  0  0  0  0  0  0  0  0  0
   -1.5000   -2.5981    0.0000 C   0  0  0  0  0  0  0  0  0  0  0  0
   -0.7500   -3.8971    0.0000 C   0  0  0  0  0  0  0  0  0  0  0  0
    0.7500   -3.8971    0.0000 C   0  0  0  0  0  0  0  0  0  0  0  0
    1.5000   -2.5981    0.0000 C   0  0  0  0  0  0  0  0  0  0  0  0
    3.0000   -2.5981    0.0000 C   0  0  0  0  0  0  0  0  0  0  0  0
    3.7500   -1.2990    0.0000 O   0  0  0  0  0  0  0  0  0  0  0  0
    3.7500   -3.8971    0.0000 N   0  0  0  0  0  0  0  0  0  0  0  0
    5.2500   -3.8971    0.0000 C   0  0  0  0  0  0  0  0  0  0  0  0
    6.1317   -2.6836    0.0000 N   0  0  0  0  0  0  0  0  0  0  0  0
    7.5583   -3.1471    0.0000 N   0  0  0  0  0  0  0  0  0  0  0  0
    7.5583   -4.6471    0.0000 N   0  0  0  0  0  0  0  0  0  0  0  0
    6.1317   -5.1106    0.0000 N   0  0  0  0  0  0  0  0  0  0  0  0
    5.6682   -6.5372    0.0000 N   0  0  0  0  0  0  0  0  0  0  0  0
    6.5498   -7.7508    0.0000 C   0  0  0  0  0  0  0  0  0  0  0  0
    5.6682   -8.9643    0.0000 C   0  0  0  0  0  0  0  0  0  0  0  0
    4.2416   -8.5008    0.0000 N   0  0  0  0  0  0  0  0  0  0  0  0
    3.0280   -9.3824    0.0000 C   0  0  0  0  0  0  0  0  0  0  0  0
    3.1848  -10.8742    0.0000 O   0  0  0  0  0  0  0  0  0  0  0  0
    1.6577   -8.7723    0.0000 N   0  0  0  0  0  0  0  0  0  0  0  0
    0.4442   -9.6540    0.0000 C   0  0  0  0  0  0  0  0  0  0  0  0
   -0.9261   -9.0439    0.0000 N   0  0  0  0  0  0  0  0  0  0  0  0
   -2.1396   -9.9256    0.0000 N   0  0  0  0  0  0  0  0  0  0  0  0
   -1.9829  -11.4174    0.0000 N   0  0  0  0  0  0  0  0  0  0  0  0
   -0.6125  -12.0275    0.0000 N   0  0  0  0  0  0  0  0  0  0  0  0
    0.6010  -11.1458    0.0000 N   0  0  0  0  0  0  0  0  0  0  0  0
    4.2416   -7.0008    0.0000 C   0  0  0  0  0  0  0  0  0  0  0  0
    3.0280   -6.1191    0.0000 O   0  0  0  0  0  0  0  0  0  0  0  0
    0.7500   -1.2990    0.0000 C   0  0  0  0  0  0  0  0  0  0  0  0
    1.5000    0.0000    0.0000 C   0  0  0  0  0  0  0  0  0  0  0  0
    0.7500    1.2990    0.0000 C   0  0  0  0  0  0  0  0  0  0  0  0
   -0.7500    1.2990    0.0000 C   0  0  0  0  0  0  0  0  0  0  0  0
   -1.5000    0.0000    0.0000 C   0  0  0  0  0  0  0  0  0  0  0  0
   -0.7500   -1.2990    0.0000 C   0  0  0  0  0  0  0  0  0  0  0  0
  1  2  1  0
  2  3  1  0
  2  4  1  0
  4  5  2  0
  4  6  1  0
  6  7  1  0
  7  8  2  0
  8  9  1  0
  9 10  2  0
 10 11  1  0
 11 12  2  0
 11 13  1  0
 13 14  1  0
 14 15  2  0
 15 16  1  0
 16 17  2  0
 17 18  1  0
 18 19  1  0
 19 20  1  0
 20 21  1  0
 21 22  1  0
 22 23  1  0
 23 24  2  0
 23 25  1  0
 25 26  1  0
 26 27  2  0
 27 28  1  0
 28 29  2  0
 29 30  1  0
 30 31  2  0
 22 32  1  0
 32 33  2  0
 10 34  1  0
 34 35  2  0
 35 36  1  0
 36 37  2  0
 37 38  1  0
 38 39  2  0
 39  7  1  0
 18 14  1  0
 32 19  1  0
 39 34  1  0
 31 26  1  0
M  END
>  <Title>  (162) 
idAAEHgen13

$$$$

     RDKit          2D

 43 48  0  0  0  0  0  0  0  0999 V2000
   -3.7860   -5.5823    0.0000 C   0  0  0  0  0  0  0  0  0  0  0  0
   -2.4215   -4.9592    0.0000 C   0  0  0  0  0  0  0  0  0  0  0  0
   -1.4392   -6.0928    0.0000 C   0  0  0  0  0  0  0  0  0  0  0  0
   -0.0000   -6.5154    0.0000 C   0  0  0  0  0  0  0  0  0  0  0  0
    1.4392   -6.0928    0.0000 C   0  0  0  0  0  0  0  0  0  0  0  0
    2.4215   -4.9592    0.0000 C   0  0  0  0  0  0  0  0  0  0  0  0
    2.6350   -3.4744    0.0000 C   0  0  0  0  0  0  0  0  0  0  0  0
    2.0119   -2.1100    0.0000 C   0  0  0  0  0  0  0  0  0  0  0  0
    3.1455   -1.1277    0.0000 C   0  0  0  0  0  0  0  0  0  0  0  0
    2.8616    0.3452    0.0000 O   0  0  0  0  0  0  0  0  0  0  0  0
    4.5630   -1.6183    0.0000 N   0  0  0  0  0  0  0  0  0  0  0  0
    5.6966   -0.6360    0.0000 C   0  0  0  0  0  0  0  0  0  0  0  0
    5.5683    0.8585    0.0000 N   0  0  0  0  0  0  0  0  0  0  0  0
    6.9500    1.4424    0.0000 N   0  0  0  0  0  0  0  0  0  0  0  0
    7.9322    0.3088    0.0000 N   0  0  0  0  0  0  0  0  0  0  0  0
    7.1576   -0.9758    0.0000 N   0  0  0  0  0  0  0  0  0  0  0  0
    7.7416   -2.3574    0.0000 N   0  0  0  0  0  0  0  0  0  0  0  0
    9.2026   -2.6972    0.0000 C   0  0  0  0  0  0  0  0  0  0  0  0
    9.3309   -4.1917    0.0000 C   0  0  0  0  0  0  0  0  0  0  0  0
    7.9492   -4.7756    0.0000 N   0  0  0  0  0  0  0  0  0  0  0  0
    7.6095   -6.2366    0.0000 C   0  0  0  0  0  0  0  0  0  0  0  0
    8.7049   -7.2614    0.0000 O   0  0  0  0  0  0  0  0  0  0  0  0
    6.1744   -6.6729    0.0000 N   0  0  0  0  0  0  0  0  0  0  0  0
    5.8346   -8.1339    0.0000 C   0  0  0  0  0  0  0  0  0  0  0  0
    4.3995   -8.5702    0.0000 N   0  0  0  0  0  0  0  0  0  0  0  0
    4.0597  -10.0312    0.0000 N   0  0  0  0  0  0  0  0  0  0  0  0
    5.1551  -11.0560    0.0000 N   0  0  0  0  0  0  0  0  0  0  0  0
    6.5903  -10.6197    0.0000 N   0  0  0  0  0  0  0  0  0  0  0  0
    6.9300   -9.1587    0.0000 N   0  0  0  0  0  0  0  0  0  0  0  0
    6.9670   -3.6420    0.0000 C   0  0  0  0  0  0  0  0  0  0  0  0
    5.4725   -3.7703    0.0000 O   0  0  0  0  0  0  0  0  0  0  0  0
    0.7500   -1.2990    0.0000 C   0  0  0  0  0  0  0  0  0  0  0  0
    1.5000    0.0000    0.0000 C   0  0  0  0  0  0  0  0  0  0  0  0
    0.7500    1.2990    0.0000 C   0  0  0  0  0  0  0  0  0  0  0  0
   -0.7500    1.2990    0.0000 C   0  0  0  0  0  0  0  0  0  0  0  0
   -1.5000    0.0000    0.0000 C   0  0  0  0  0  0  0  0  0  0  0  0
   -0.7500   -1.2990    0.0000 C   0  0  0  0  0  0  0  0  0  0  0  0
   -2.0119   -2.1100    0.0000 C   0  0  0  0  0  0  0  0  0  0  0  0
   -2.8820   -0.8881    0.0000 C   0  0  0  0  0  0  0  0  0  0  0  0
   -4.3752   -1.0307    0.0000 C   0  0  0  0  0  0  0  0  0  0  0  0
   -4.9983   -2.3952    0.0000 C   0  0  0  0  0  0  0  0  0  0  0  0
   -4.1282   -3.6170    0.0000 C   0  0  0  0  0  0  0  0  0  0  0  0
   -2.6350   -3.4744    0.0000 C   0  0  0  0  0  0  0  0  0  0  0  0
  1  2  1  0
  2  3  1  0
  3  4  2  0
  4  5  1  0
  5  6  1  0
  6  7  1  0
  7  8  1  0
  8  9  1  0
  9 10  2  0
  9 11  1  0
 11 12  1  0
 12 13  2  0
 13 14  1  0
 14 15  2  0
 15 16  1  0
 16 17  1  0
 17 18  1  0
 18 19  1  0
 19 20  1  0
 20 21  1  0
 21 22  2  0
 21 23  1  0
 23 24  1  0
 24 25  2  0
 25 26  1  0
 26 27  2  0
 27 28  1  0
 28 29  2  0
 20 30  1  0
 30 31  2  0
  8 32  1  0
 32 33  2  0
 33 34  1  0
 34 35  2  0
 35 36  1  0
 36 37  2  0
 37 38  1  0
 38 39  2  0
 39 40  1  0
 40 41  2  0
 41 42  1  0
 42 43  2  0
 43  2  1  0
 16 12  1  0
 30 17  1  0
 37 32  1  0
 43 38  1  0
 29 24  1  0
M  END
>  <Title>  (163) 
idAAEIgen13

$$$$

     RDKit          2D

 41 47  0  0  0  0  0  0  0  0999 V2000
    2.7873   -4.5825    0.0000 C   0  0  0  0  0  0  0  0  0  0  0  0
    1.8107   -3.8597    0.0000 C   0  0  0  0  0  0  0  0  0  0  0  0
    1.8107   -2.3597    0.0000 C   0  0  0  0  0  0  0  0  0  0  0  0
    3.1965   -1.7857    0.0000 C   0  0  0  0  0  0  0  0  0  0  0  0
    3.5466   -0.3271    0.0000 N   0  0  0  0  0  0  0  0  0  0  0  0
    5.0420   -0.2094    0.0000 N   0  0  0  0  0  0  0  0  0  0  0  0
    5.6160   -1.5952    0.0000 N   0  0  0  0  0  0  0  0  0  0  0  0
    4.4754   -2.5694    0.0000 N   0  0  0  0  0  0  0  0  0  0  0  0
    4.5931   -4.0648    0.0000 N   0  0  0  0  0  0  0  0  0  0  0  0
    3.4525   -5.0390    0.0000 C   0  0  0  0  0  0  0  0  0  0  0  0
    4.0265   -6.4248    0.0000 C   0  0  0  0  0  0  0  0  0  0  0  0
    5.5219   -6.3071    0.0000 N   0  0  0  0  0  0  0  0  0  0  0  0
    6.4961   -7.4477    0.0000 C   0  0  0  0  0  0  0  0  0  0  0  0
    7.9710   -7.1744    0.0000 O   0  0  0  0  0  0  0  0  0  0  0  0
    5.9954   -8.8617    0.0000 N   0  0  0  0  0  0  0  0  0  0  0  0
    6.9696  -10.0023    0.0000 C   0  0  0  0  0  0  0  0  0  0  0  0
    8.4444   -9.7289    0.0000 N   0  0  0  0  0  0  0  0  0  0  0  0
    9.4186  -10.8695    0.0000 N   0  0  0  0  0  0  0  0  0  0  0  0
    8.9179  -12.2835    0.0000 N   0  0  0  0  0  0  0  0  0  0  0  0
    7.4430  -12.5569    0.0000 N   0  0  0  0  0  0  0  0  0  0  0  0
    6.4688  -11.4162    0.0000 N   0  0  0  0  0  0  0  0  0  0  0  0
    5.8721   -4.8485    0.0000 C   0  0  0  0  0  0  0  0  0  0  0  0
    7.2579   -4.2745    0.0000 O   0  0  0  0  0  0  0  0  0  0  0  0
    0.7500   -1.2990    0.0000 C   0  0  0  0  0  0  0  0  0  0  0  0
    1.5000    0.0000    0.0000 C   0  0  0  0  0  0  0  0  0  0  0  0
    0.7500    1.2990    0.0000 C   0  0  0  0  0  0  0  0  0  0  0  0
   -0.7500    1.2990    0.0000 C   0  0  0  0  0  0  0  0  0  0  0  0
   -1.5000    0.0000    0.0000 C   0  0  0  0  0  0  0  0  0  0  0  0
   -0.7500   -1.2990    0.0000 C   0  0  0  0  0  0  0  0  0  0  0  0
   -1.8107   -2.3597    0.0000 C   0  0  0  0  0  0  0  0  0  0  0  0
   -3.1097   -1.6097    0.0000 C   0  0  0  0  0  0  0  0  0  0  0  0
   -4.4087   -2.3597    0.0000 C   0  0  0  0  0  0  0  0  0  0  0  0
   -4.4087   -3.8597    0.0000 C   0  0  0  0  0  0  0  0  0  0  0  0
   -3.1097   -4.6097    0.0000 C   0  0  0  0  0  0  0  0  0  0  0  0
   -1.8107   -3.8597    0.0000 C   0  0  0  0  0  0  0  0  0  0  0  0
   -0.7500   -4.9204    0.0000 C   0  0  0  0  0  0  0  0  0  0  0  0
   -1.5000   -6.2194    0.0000 C   0  0  0  0  0  0  0  0  0  0  0  0
   -0.7500   -7.5184    0.0000 C   0  0  0  0  0  0  0  0  0  0  0  0
    0.7500   -7.5184    0.0000 C   0  0  0  0  0  0  0  0  0  0  0  0
    1.5000   -6.2194    0.0000 C   0  0  0  0  0  0  0  0  0  0  0  0
    0.7500   -4.9204    0.0000 C   0  0  0  0  0  0  0  0  0  0  0  0
  1  2  1  0
  2  3  2  0
  3  4  1  0
  4  5  2  0
  5  6  1  0
  6  7  2  0
  7  8  1  0
  8  9  1  0
  9 10  1  0
 10 11  1  0
 11 12  1  0
 12 13  1  0
 13 14  2  0
 13 15  1  0
 15 16  1  0
 16 17  2  0
 17 18  1  0
 18 19  2  0
 19 20  1  0
 20 21  2  0
 12 22  1  0
 22 23  2  0
  3 24  1  0
 24 25  2  0
 25 26  1  0
 26 27  2  0
 27 28  1  0
 28 29  2  0
 29 30  1  0
 30 31  2  0
 31 32  1  0
 32 33  2  0
 33 34  1  0
 34 35  2  0
 35 36  1  0
 36 37  2  0
 37 38  1  0
 38 39  2  0
 39 40  1  0
 40 41  2  0
 41  2  1  0
  8  4  1  0
 22  9  1  0
 29 24  1  0
 35 30  1  0
 41 36  1  0
 21 16  1  0
M  END
>  <Title>  (164) 
idAAEJgen13

$$$$

     RDKit          2D

 14 13  0  0  0  0  0  0  0  0999 V2000
    0.0000    0.0000    0.0000 C   0  0  0  0  0  0  0  0  0  0  0  0
    1.2990    0.7500    0.0000 C   0  0  0  0  0  0  0  0  0  0  0  0
    2.5981   -0.0000    0.0000 C   0  0  0  0  0  0  0  0  0  0  0  0
    3.8971    0.7500    0.0000 C   0  0  0  0  0  0  0  0  0  0  0  0
    5.1962   -0.0000    0.0000 N   0  0  0  0  0  0  0  0  0  0  0  0
    6.4952    0.7500    0.0000 C   0  0  0  0  0  0  0  0  0  0  0  0
    6.4952    2.2500    0.0000 O   0  0  0  0  0  0  0  0  0  0  0  0
    7.7942   -0.0000    0.0000 N   0  0  0  0  0  0  0  0  0  0  0  0
    9.0933    0.7500    0.0000 C   0  0  0  0  0  0  0  0  0  0  0  0
   10.3923   -0.0000    0.0000 C   0  0  0  0  0  0  0  0  0  0  0  0
    9.0933    2.2500    0.0000 C   0  0  0  0  0  0  0  0  0  0  0  0
   10.3923    3.0000    0.0000 C   0  0  0  0  0  0  0  0  0  0  0  0
   10.3923    4.5000    0.0000 C   0  0  0  0  0  0  0  0  0  0  0  0
   11.6913    2.2500    0.0000 C   0  0  0  0  0  0  0  0  0  0  0  0
  1  2  2  0
  2  3  1  0
  3  4  1  0
  4  5  1  0
  5  6  1  0
  6  7  2  0
  6  8  1  0
  8  9  1  0
  9 10  1  0
  9 11  1  0
 11 12  1  0
 12 13  1  0
 12 14  1  0
M  END
>  <Title>  (165) 
idAAEKgen13

$$$$

     RDKit          2D

 10  9  0  0  0  0  0  0  0  0999 V2000
    0.0000    0.0000    0.0000 C   0  0  0  0  0  0  0  0  0  0  0  0
    1.2990    0.7500    0.0000 C   0  0  0  0  0  0  0  0  0  0  0  0
    2.5981   -0.0000    0.0000 C   0  0  0  0  0  0  0  0  0  0  0  0
    3.8971    0.7500    0.0000 O   0  0  0  0  0  0  0  0  0  0  0  0
    5.1962   -0.0000    0.0000 C   0  0  0  0  0  0  0  0  0  0  0  0
    5.1962   -1.5000    0.0000 O   0  0  0  0  0  0  0  0  0  0  0  0
    6.4952    0.7500    0.0000 N   0  0  0  0  0  0  0  0  0  0  0  0
    7.7942   -0.0000    0.0000 C   0  0  0  0  0  0  0  0  0  0  0  0
    9.0933    0.7500    0.0000 C   0  0  0  0  0  0  0  0  0  0  0  0
    7.7942   -1.5000    0.0000 C   0  0  0  0  0  0  0  0  0  0  0  0
  1  2  2  0
  2  3  1  0
  3  4  1  0
  4  5  1  0
  5  6  2  0
  5  7  1  0
  7  8  1  0
  8  9  1  0
  8 10  1  0
M  END
>  <Title>  (166) 
idAAELgen13

$$$$

     RDKit          2D

 20 21  0  0  0  0  0  0  0  0999 V2000
   -4.9023   -9.1838    0.0000 C   0  0  0  0  0  0  0  0  0  0  0  0
   -4.4388   -7.7572    0.0000 C   0  0  0  0  0  0  0  0  0  0  0  0
   -2.9716   -7.4453    0.0000 C   0  0  0  0  0  0  0  0  0  0  0  0
   -2.5081   -6.0187    0.0000 C   0  0  0  0  0  0  0  0  0  0  0  0
   -1.0409   -5.7068    0.0000 C   0  0  0  0  0  0  0  0  0  0  0  0
   -0.0372   -6.8216    0.0000 O   0  0  0  0  0  0  0  0  0  0  0  0
   -0.5773   -4.2803    0.0000 N   0  0  0  0  0  0  0  0  0  0  0  0
    0.8899   -3.9684    0.0000 C   0  0  0  0  0  0  0  0  0  0  0  0
    2.0046   -4.9721    0.0000 N   0  0  0  0  0  0  0  0  0  0  0  0
    3.3037   -4.2221    0.0000 N   0  0  0  0  0  0  0  0  0  0  0  0
    2.9918   -2.7549    0.0000 N   0  0  0  0  0  0  0  0  0  0  0  0
    1.5000   -2.5981    0.0000 N   0  0  0  0  0  0  0  0  0  0  0  0
    0.7500   -1.2990    0.0000 C   0  0  0  0  0  0  0  0  0  0  0  0
    1.5000    0.0000    0.0000 C   0  0  0  0  0  0  0  0  0  0  0  0
    0.7500    1.2990    0.0000 C   0  0  0  0  0  0  0  0  0  0  0  0
   -0.7500    1.2990    0.0000 C   0  0  0  0  0  0  0  0  0  0  0  0
   -1.5000    2.5981    0.0000 O   0  0  0  0  0  0  0  0  0  0  0  0
   -0.7500    3.8971    0.0000 C   0  0  0  0  0  0  0  0  0  0  0  0
   -1.5000    0.0000    0.0000 C   0  0  0  0  0  0  0  0  0  0  0  0
   -0.7500   -1.2990    0.0000 C   0  0  0  0  0  0  0  0  0  0  0  0
  1  2  2  0
  2  3  1  0
  3  4  1  0
  4  5  1  0
  5  6  2  0
  5  7  1  0
  7  8  1  0
  8  9  2  0
  9 10  1  0
 10 11  2  0
 11 12  1  0
 12 13  1  0
 13 14  2  0
 14 15  1  0
 15 16  2  0
 16 17  1  0
 17 18  1  0
 16 19  1  0
 19 20  2  0
 12  8  1  0
 20 13  1  0
M  END
>  <Title>  (167) 
idAAEMgen13

$$$$

     RDKit          2D

 14 15  0  0  0  0  0  0  0  0999 V2000
    5.7760   -2.5981    0.0000 C   0  0  0  0  0  0  0  0  0  0  0  0
    5.0260   -1.2990    0.0000 C   0  0  0  0  0  0  0  0  0  0  0  0
    3.5260   -1.2990    0.0000 C   0  0  0  0  0  0  0  0  0  0  0  0
    2.7760    0.0000    0.0000 C   0  0  0  0  0  0  0  0  0  0  0  0
    1.2760    0.0000    0.0000 C   0  0  0  0  0  0  0  0  0  0  0  0
    0.3943    1.2135    0.0000 N   0  0  0  0  0  0  0  0  0  0  0  0
   -1.0323    0.7500    0.0000 N   0  0  0  0  0  0  0  0  0  0  0  0
   -1.0323   -0.7500    0.0000 N   0  0  0  0  0  0  0  0  0  0  0  0
    0.3943   -1.2135    0.0000 N   0  0  0  0  0  0  0  0  0  0  0  0
    0.8578   -2.6401    0.0000 C   0  0  0  0  0  0  0  0  0  0  0  0
    2.2844   -3.1036    0.0000 C   0  0  0  0  0  0  0  0  0  0  0  0
    2.2844   -4.6036    0.0000 C   0  0  0  0  0  0  0  0  0  0  0  0
    0.8578   -5.0672    0.0000 C   0  0  0  0  0  0  0  0  0  0  0  0
   -0.0239   -3.8536    0.0000 C   0  0  0  0  0  0  0  0  0  0  0  0
  1  2  2  0
  2  3  1  0
  3  4  1  0
  4  5  1  0
  5  6  2  0
  6  7  1  0
  7  8  2  0
  8  9  1  0
  9 10  1  0
 10 11  2  0
 11 12  1  0
 12 13  1  0
 13 14  2  0
  9  5  1  0
 14 10  1  0
M  END
>  <Title>  (168) 
idAAENgen13

$$$$

     RDKit          2D

 14 15  0  0  0  0  0  0  0  0999 V2000
    3.0000    0.0000    0.0000 C   0  0  0  0  0  0  0  0  0  0  0  0
    1.5000    0.0000    0.0000 C   0  0  0  0  0  0  0  0  0  0  0  0
    0.7500   -1.2990    0.0000 C   0  0  0  0  0  0  0  0  0  0  0  0
   -0.7500   -1.2990    0.0000 C   0  0  0  0  0  0  0  0  0  0  0  0
   -1.5000    0.0000    0.0000 C   0  0  0  0  0  0  0  0  0  0  0  0
   -3.0000    0.0000    0.0000 N   0  0  0  0  0  0  0  0  0  0  0  0
   -3.7500    1.2990    0.0000 C   0  0  0  0  0  0  0  0  0  0  0  0
   -5.2500    1.2990    0.0000 C   0  0  0  0  0  0  0  0  0  0  0  0
   -6.0000    0.0000    0.0000 N   0  0  0  0  0  0  0  0  0  0  0  0
   -5.2500   -1.2990    0.0000 N   0  0  0  0  0  0  0  0  0  0  0  0
   -3.7500   -1.2990    0.0000 N   0  0  0  0  0  0  0  0  0  0  0  0
   -0.7500    1.2990    0.0000 C   0  0  0  0  0  0  0  0  0  0  0  0
   -1.5000    2.5981    0.0000 O   0  0  0  0  0  0  0  0  0  0  0  0
    0.7500    1.2990    0.0000 N   0  0  0  0  0  0  0  0  0  0  0  0
  1  2  1  0
  2  3  1  0
  3  4  2  0
  4  5  1  0
  5  6  1  0
  6  7  1  0
  7  8  1  0
  8  9  2  0
  9 10  1  0
 10 11  2  0
  5 12  1  0
 12 13  2  0
 12 14  1  0
 14  2  1  0
 11  6  1  0
M  END
>  <Title>  (169) 
idAAEOgen13

$$$$

     RDKit          2D

 41 46  0  0  0  0  0  0  0  0999 V2000
   -2.3737   -6.1885    0.0000 C   0  0  0  0  0  0  0  0  0  0  0  0
   -1.4095   -5.0395    0.0000 C   0  0  0  0  0  0  0  0  0  0  0  0
   -0.0000   -5.5525    0.0000 C   0  0  0  0  0  0  0  0  0  0  0  0
    1.4095   -5.0395    0.0000 C   0  0  0  0  0  0  0  0  0  0  0  0
    2.1595   -3.7404    0.0000 C   0  0  0  0  0  0  0  0  0  0  0  0
    1.8991   -2.2632    0.0000 C   0  0  0  0  0  0  0  0  0  0  0  0
    3.1981   -1.5132    0.0000 C   0  0  0  0  0  0  0  0  0  0  0  0
    3.1981   -0.0132    0.0000 O   0  0  0  0  0  0  0  0  0  0  0  0
    4.4971   -2.2632    0.0000 N   0  0  0  0  0  0  0  0  0  0  0  0
    5.7962   -1.5132    0.0000 C   0  0  0  0  0  0  0  0  0  0  0  0
    5.9530   -0.0214    0.0000 N   0  0  0  0  0  0  0  0  0  0  0  0
    7.4202    0.2904    0.0000 N   0  0  0  0  0  0  0  0  0  0  0  0
    8.1702   -1.0086    0.0000 N   0  0  0  0  0  0  0  0  0  0  0  0
    7.1665   -2.1233    0.0000 N   0  0  0  0  0  0  0  0  0  0  0  0
    7.4784   -3.5905    0.0000 N   0  0  0  0  0  0  0  0  0  0  0  0
    8.8487   -4.2007    0.0000 C   0  0  0  0  0  0  0  0  0  0  0  0
    8.6919   -5.6924    0.0000 C   0  0  0  0  0  0  0  0  0  0  0  0
    7.2247   -6.0043    0.0000 N   0  0  0  0  0  0  0  0  0  0  0  0
    6.6146   -7.3746    0.0000 C   0  0  0  0  0  0  0  0  0  0  0  0
    7.4962   -8.5881    0.0000 O   0  0  0  0  0  0  0  0  0  0  0  0
    5.1228   -7.5314    0.0000 N   0  0  0  0  0  0  0  0  0  0  0  0
    4.5127   -8.9017    0.0000 C   0  0  0  0  0  0  0  0  0  0  0  0
    3.0209   -9.0585    0.0000 N   0  0  0  0  0  0  0  0  0  0  0  0
    2.4108  -10.4288    0.0000 N   0  0  0  0  0  0  0  0  0  0  0  0
    3.2925  -11.6424    0.0000 N   0  0  0  0  0  0  0  0  0  0  0  0
    4.7843  -11.4856    0.0000 N   0  0  0  0  0  0  0  0  0  0  0  0
    5.3944  -10.1153    0.0000 N   0  0  0  0  0  0  0  0  0  0  0  0
    6.4747   -4.7053    0.0000 C   0  0  0  0  0  0  0  0  0  0  0  0
    4.9829   -4.5485    0.0000 O   0  0  0  0  0  0  0  0  0  0  0  0
    0.7500   -1.2990    0.0000 C   0  0  0  0  0  0  0  0  0  0  0  0
    1.5000    0.0000    0.0000 C   0  0  0  0  0  0  0  0  0  0  0  0
    0.7500    1.2990    0.0000 C   0  0  0  0  0  0  0  0  0  0  0  0
   -0.7500    1.2990    0.0000 C   0  0  0  0  0  0  0  0  0  0  0  0
   -1.5000    0.0000    0.0000 C   0  0  0  0  0  0  0  0  0  0  0  0
   -0.7500   -1.2990    0.0000 C   0  0  0  0  0  0  0  0  0  0  0  0
   -1.8991   -2.2632    0.0000 C   0  0  0  0  0  0  0  0  0  0  0  0
   -3.0481   -1.2990    0.0000 C   0  0  0  0  0  0  0  0  0  0  0  0
   -4.4577   -1.8121    0.0000 C   0  0  0  0  0  0  0  0  0  0  0  0
   -4.7181   -3.2893    0.0000 C   0  0  0  0  0  0  0  0  0  0  0  0
   -3.5691   -4.2535    0.0000 C   0  0  0  0  0  0  0  0  0  0  0  0
   -2.1595   -3.7404    0.0000 C   0  0  0  0  0  0  0  0  0  0  0  0
  1  2  1  0
  2  3  1  0
  3  4  2  0
  4  5  1  0
  5  6  1  0
  6  7  1  0
  7  8  2  0
  7  9  1  0
  9 10  1  0
 10 11  2  0
 11 12  1  0
 12 13  2  0
 13 14  1  0
 14 15  1  0
 15 16  1  0
 16 17  1  0
 17 18  1  0
 18 19  1  0
 19 20  2  0
 19 21  1  0
 21 22  1  0
 22 23  2  0
 23 24  1  0
 24 25  2  0
 25 26  1  0
 26 27  2  0
 18 28  1  0
 28 29  2  0
  6 30  1  0
 30 31  2  0
 31 32  1  0
 32 33  2  0
 33 34  1  0
 34 35  2  0
 35 36  1  0
 36 37  2  0
 37 38  1  0
 38 39  2  0
 39 40  1  0
 40 41  2  0
 41  2  1  0
 14 10  1  0
 28 15  1  0
 35 30  1  0
 41 36  1  0
 27 22  1  0
M  END
>  <Title>  (170) 
idAAEPgen13

$$$$

     RDKit          2D

 14 15  0  0  0  0  0  0  0  0999 V2000
   -7.2180   -3.7557    0.0000 C   0  0  0  0  0  0  0  0  0  0  0  0
   -5.7691   -4.1439    0.0000 C   0  0  0  0  0  0  0  0  0  0  0  0
   -4.3202   -4.5321    0.0000 C   0  0  0  0  0  0  0  0  0  0  0  0
   -3.2595   -3.4715    0.0000 C   0  0  0  0  0  0  0  0  0  0  0  0
   -1.8107   -3.8597    0.0000 C   0  0  0  0  0  0  0  0  0  0  0  0
   -1.4224   -5.3086    0.0000 O   0  0  0  0  0  0  0  0  0  0  0  0
   -0.7500   -2.7990    0.0000 N   0  0  0  0  0  0  0  0  0  0  0  0
    0.7500   -2.7990    0.0000 C   0  0  0  0  0  0  0  0  0  0  0  0
    0.7500   -1.2990    0.0000 C   0  0  0  0  0  0  0  0  0  0  0  0
    1.5000    0.0000    0.0000 C   0  0  0  0  0  0  0  0  0  0  0  0
    0.7500    1.2990    0.0000 C   0  0  0  0  0  0  0  0  0  0  0  0
   -0.7500    1.2990    0.0000 C   0  0  0  0  0  0  0  0  0  0  0  0
   -1.5000    0.0000    0.0000 C   0  0  0  0  0  0  0  0  0  0  0  0
   -0.7500   -1.2990    0.0000 C   0  0  0  0  0  0  0  0  0  0  0  0
  1  2  3  0
  2  3  1  0
  3  4  1  0
  4  5  1  0
  5  6  2  0
  5  7  1  0
  7  8  1  0
  8  9  1  0
  9 10  1  0
 10 11  1  0
 11 12  1  0
 12 13  1  0
 13 14  1  0
 14  7  1  0
 14  9  1  0
M  END
>  <Title>  (171) 
idAAEQgen13

$$$$

     RDKit          2D

 33 37  0  0  0  0  0  0  0  0999 V2000
   -3.0000   -2.5981    0.0000 C   0  0  0  0  0  0  0  0  0  0  0  0
   -1.5000   -2.5981    0.0000 C   0  0  0  0  0  0  0  0  0  0  0  0
   -0.7500   -3.8971    0.0000 C   0  0  0  0  0  0  0  0  0  0  0  0
    0.7500   -3.8971    0.0000 C   0  0  0  0  0  0  0  0  0  0  0  0
    1.5000   -2.5981    0.0000 C   0  0  0  0  0  0  0  0  0  0  0  0
    3.0000   -2.5981    0.0000 C   0  0  0  0  0  0  0  0  0  0  0  0
    3.7500   -1.2990    0.0000 O   0  0  0  0  0  0  0  0  0  0  0  0
    3.7500   -3.8971    0.0000 N   0  0  0  0  0  0  0  0  0  0  0  0
    5.2500   -3.8971    0.0000 C   0  0  0  0  0  0  0  0  0  0  0  0
    6.1317   -2.6836    0.0000 N   0  0  0  0  0  0  0  0  0  0  0  0
    7.5583   -3.1471    0.0000 N   0  0  0  0  0  0  0  0  0  0  0  0
    7.5583   -4.6471    0.0000 N   0  0  0  0  0  0  0  0  0  0  0  0
    6.1317   -5.1106    0.0000 N   0  0  0  0  0  0  0  0  0  0  0  0
    5.6682   -6.5372    0.0000 N   0  0  0  0  0  0  0  0  0  0  0  0
    4.3316   -7.2182    0.0000 C   0  0  0  0  0  0  0  0  0  0  0  0
    5.0126   -8.5547    0.0000 C   0  0  0  0  0  0  0  0  0  0  0  0
    4.5491   -9.9813    0.0000 C   0  0  0  0  0  0  0  0  0  0  0  0
    5.5528  -11.0960    0.0000 O   0  0  0  0  0  0  0  0  0  0  0  0
    3.0819  -10.2932    0.0000 N   0  0  0  0  0  0  0  0  0  0  0  0
    2.6184  -11.7198    0.0000 C   0  0  0  0  0  0  0  0  0  0  0  0
    1.1511  -12.0316    0.0000 N   0  0  0  0  0  0  0  0  0  0  0  0
    0.6876  -13.4582    0.0000 N   0  0  0  0  0  0  0  0  0  0  0  0
    1.6913  -14.5729    0.0000 N   0  0  0  0  0  0  0  0  0  0  0  0
    3.1585  -14.2611    0.0000 N   0  0  0  0  0  0  0  0  0  0  0  0
    3.6221  -12.8345    0.0000 N   0  0  0  0  0  0  0  0  0  0  0  0
    6.3491   -7.8737    0.0000 C   0  0  0  0  0  0  0  0  0  0  0  0
    7.7757   -8.3373    0.0000 O   0  0  0  0  0  0  0  0  0  0  0  0
    0.7500   -1.2990    0.0000 C   0  0  0  0  0  0  0  0  0  0  0  0
    1.5000    0.0000    0.0000 C   0  0  0  0  0  0  0  0  0  0  0  0
    0.7500    1.2990    0.0000 C   0  0  0  0  0  0  0  0  0  0  0  0
   -0.7500    1.2990    0.0000 C   0  0  0  0  0  0  0  0  0  0  0  0
   -1.5000    0.0000    0.0000 C   0  0  0  0  0  0  0  0  0  0  0  0
   -0.7500   -1.2990    0.0000 C   0  0  0  0  0  0  0  0  0  0  0  0
  1  2  1  0
  2  3  1  0
  3  4  2  0
  4  5  1  0
  5  6  1  0
  6  7  2  0
  6  8  1  0
  8  9  1  0
  9 10  2  0
 10 11  1  0
 11 12  2  0
 12 13  1  0
 13 14  1  0
 14 15  1  0
 15 16  2  0
 16 17  1  0
 17 18  2  0
 17 19  1  0
 19 20  1  0
 20 21  2  0
 21 22  1  0
 22 23  2  0
 23 24  1  0
 24 25  2  0
 16 26  1  0
 26 27  2  0
  5 28  1  0
 28 29  2  0
 29 30  1  0
 30 31  2  0
 31 32  1  0
 32 33  2  0
 33  2  1  0
 13  9  1  0
 26 14  1  0
 33 28  1  0
 25 20  1  0
M  END
>  <Title>  (172) 
idAAERgen13

$$$$

     RDKit          2D

 12 13  0  0  0  0  0  0  0  0999 V2000
    1.8478   -6.4639    0.0000 C   0  0  0  0  0  0  0  0  0  0  0  0
    2.0046   -4.9721    0.0000 C   0  0  0  0  0  0  0  0  0  0  0  0
    3.3037   -4.2221    0.0000 C   0  0  0  0  0  0  0  0  0  0  0  0
    2.9918   -2.7549    0.0000 C   0  0  0  0  0  0  0  0  0  0  0  0
    1.5000   -2.5981    0.0000 C   0  0  0  0  0  0  0  0  0  0  0  0
    0.7500   -1.2990    0.0000 N   0  0  0  0  0  0  0  0  0  0  0  0
    1.5000    0.0000    0.0000 C   0  0  0  0  0  0  0  0  0  0  0  0
    0.7500    1.2990    0.0000 C   0  0  0  0  0  0  0  0  0  0  0  0
   -0.7500    1.2990    0.0000 N   0  0  0  0  0  0  0  0  0  0  0  0
   -1.5000    0.0000    0.0000 N   0  0  0  0  0  0  0  0  0  0  0  0
   -0.7500   -1.2990    0.0000 N   0  0  0  0  0  0  0  0  0  0  0  0
    0.8899   -3.9684    0.0000 C   0  0  0  0  0  0  0  0  0  0  0  0
  1  2  1  0
  2  3  1  0
  3  4  2  0
  4  5  1  0
  5  6  1  0
  6  7  1  0
  7  8  1  0
  8  9  2  0
  9 10  1  0
 10 11  2  0
  5 12  2  0
 12  2  1  0
 11  6  1  0
M  END
>  <Title>  (173) 
idAAESgen13

$$$$

     RDKit          2D

 91 92  0  0  0  0  0  0  0  0999 V2000
    5.4512   -4.2558    0.0000 C   0  0  0  0  0  0  0  0  0  0  0  0
    6.2379   -4.3845    0.0000 C   0  0  0  0  0  0  0  0  0  0  0  0
    6.0711   -5.8752    0.0000 C   0  0  0  0  0  0  0  0  0  0  0  0
    6.0559   -7.3751    0.0000 C   0  0  0  0  0  0  0  0  0  0  0  0
    6.1925   -8.8689    0.0000 C   0  0  0  0  0  0  0  0  0  0  0  0
    6.4795  -10.3412    0.0000 C   0  0  0  0  0  0  0  0  0  0  0  0
    6.9141  -11.7769    0.0000 C   0  0  0  0  0  0  0  0  0  0  0  0
    7.4916  -13.1612    0.0000 C   0  0  0  0  0  0  0  0  0  0  0  0
    8.2062  -14.4801    0.0000 C   0  0  0  0  0  0  0  0  0  0  0  0
    9.0506  -15.7198    0.0000 C   0  0  0  0  0  0  0  0  0  0  0  0
   10.0161  -16.8678    0.0000 C   0  0  0  0  0  0  0  0  0  0  0  0
   11.0927  -17.9122    0.0000 C   0  0  0  0  0  0  0  0  0  0  0  0
   12.2695  -18.8424    0.0000 C   0  0  0  0  0  0  0  0  0  0  0  0
   13.5344  -19.6487    0.0000 C   0  0  0  0  0  0  0  0  0  0  0  0
   14.8743  -20.3229    0.0000 C   0  0  0  0  0  0  0  0  0  0  0  0
   16.2756  -20.8580    0.0000 C   0  0  0  0  0  0  0  0  0  0  0  0
   17.7238  -21.2487    0.0000 C   0  0  0  0  0  0  0  0  0  0  0  0
   19.2042  -21.4909    0.0000 C   0  0  0  0  0  0  0  0  0  0  0  0
   20.7014  -21.5820    0.0000 C   0  0  0  0  0  0  0  0  0  0  0  0
   22.2002  -21.5212    0.0000 C   0  0  0  0  0  0  0  0  0  0  0  0
   23.6851  -21.3091    0.0000 C   0  0  0  0  0  0  0  0  0  0  0  0
   25.1409  -20.9479    0.0000 C   0  0  0  0  0  0  0  0  0  0  0  0
   26.5528  -20.4412    0.0000 C   0  0  0  0  0  0  0  0  0  0  0  0
   27.9061  -19.7943    0.0000 C   0  0  0  0  0  0  0  0  0  0  0  0
   29.1870  -19.0138    0.0000 C   0  0  0  0  0  0  0  0  0  0  0  0
   30.3825  -18.1077    0.0000 C   0  0  0  0  0  0  0  0  0  0  0  0
   31.4801  -17.0853    0.0000 C   0  0  0  0  0  0  0  0  0  0  0  0
   32.4686  -15.9572    0.0000 C   0  0  0  0  0  0  0  0  0  0  0  0
   33.3379  -14.7348    0.0000 C   0  0  0  0  0  0  0  0  0  0  0  0
   34.0791  -13.4307    0.0000 C   0  0  0  0  0  0  0  0  0  0  0  0
   34.6846  -12.0583    0.0000 C   0  0  0  0  0  0  0  0  0  0  0  0
   35.1481  -10.6317    0.0000 C   0  0  0  0  0  0  0  0  0  0  0  0
   35.4650   -9.1656    0.0000 C   0  0  0  0  0  0  0  0  0  0  0  0
   35.6318   -7.6749    0.0000 C   0  0  0  0  0  0  0  0  0  0  0  0
   35.6470   -6.1750    0.0000 C   0  0  0  0  0  0  0  0  0  0  0  0
   35.5104   -4.6812    0.0000 C   0  0  0  0  0  0  0  0  0  0  0  0
   35.2234   -3.2089    0.0000 C   0  0  0  0  0  0  0  0  0  0  0  0
   34.7889   -1.7732    0.0000 C   0  0  0  0  0  0  0  0  0  0  0  0
   34.2113   -0.3889    0.0000 C   0  0  0  0  0  0  0  0  0  0  0  0
   33.4967    0.9300    0.0000 C   0  0  0  0  0  0  0  0  0  0  0  0
   32.6523    2.1697    0.0000 C   0  0  0  0  0  0  0  0  0  0  0  0
   31.6868    3.3177    0.0000 C   0  0  0  0  0  0  0  0  0  0  0  0
   30.6102    4.3621    0.0000 C   0  0  0  0  0  0  0  0  0  0  0  0
   29.4334    5.2923    0.0000 C   0  0  0  0  0  0  0  0  0  0  0  0
   28.1685    6.0986    0.0000 C   0  0  0  0  0  0  0  0  0  0  0  0
   26.8286    6.7728    0.0000 C   0  0  0  0  0  0  0  0  0  0  0  0
   25.4273    7.3080    0.0000 C   0  0  0  0  0  0  0  0  0  0  0  0
   23.9791    7.6986    0.0000 C   0  0  0  0  0  0  0  0  0  0  0  0
   22.4987    7.9408    0.0000 C   0  0  0  0  0  0  0  0  0  0  0  0
   21.0015    8.0319    0.0000 C   0  0  0  0  0  0  0  0  0  0  0  0
   19.5027    7.9711    0.0000 C   0  0  0  0  0  0  0  0  0  0  0  0
   18.0178    7.7590    0.0000 C   0  0  0  0  0  0  0  0  0  0  0  0
   16.5620    7.3978    0.0000 C   0  0  0  0  0  0  0  0  0  0  0  0
   15.1501    6.8911    0.0000 C   0  0  0  0  0  0  0  0  0  0  0  0
   13.7968    6.2442    0.0000 C   0  0  0  0  0  0  0  0  0  0  0  0
   12.5159    5.4637    0.0000 C   0  0  0  0  0  0  0  0  0  0  0  0
   11.3204    4.5576    0.0000 C   0  0  0  0  0  0  0  0  0  0  0  0
   10.2228    3.5352    0.0000 C   0  0  0  0  0  0  0  0  0  0  0  0
    9.2343    2.4071    0.0000 C   0  0  0  0  0  0  0  0  0  0  0  0
    8.3650    1.1847    0.0000 C   0  0  0  0  0  0  0  0  0  0  0  0
    7.6238   -0.1194    0.0000 C   0  0  0  0  0  0  0  0  0  0  0  0
    7.0183   -1.4918    0.0000 C   0  0  0  0  0  0  0  0  0  0  0  0
    6.4751   -0.0000    0.0000 C   0  0  0  0  0  0  0  0  0  0  0  0
    6.3336    1.3462    0.0000 C   0  0  0  0  0  0  0  0  0  0  0  0
    5.9153    2.6337    0.0000 C   0  0  0  0  0  0  0  0  0  0  0  0
    5.2384    3.8060    0.0000 C   0  0  0  0  0  0  0  0  0  0  0  0
    4.3327    4.8119    0.0000 C   0  0  0  0  0  0  0  0  0  0  0  0
    3.2375    5.6076    0.0000 C   0  0  0  0  0  0  0  0  0  0  0  0
    2.0009    6.1582    0.0000 C   0  0  0  0  0  0  0  0  0  0  0  0
    0.6768    6.4396    0.0000 C   0  0  0  0  0  0  0  0  0  0  0  0
   -0.6768    6.4396    0.0000 C   0  0  0  0  0  0  0  0  0  0  0  0
   -2.0009    6.1582    0.0000 C   0  0  0  0  0  0  0  0  0  0  0  0
   -3.2375    5.6076    0.0000 C   0  0  0  0  0  0  0  0  0  0  0  0
   -4.3327    4.8119    0.0000 C   0  0  0  0  0  0  0  0  0  0  0  0
   -5.2384    3.8060    0.0000 C   0  0  0  0  0  0  0  0  0  0  0  0
   -5.9153    2.6337    0.0000 C   0  0  0  0  0  0  0  0  0  0  0  0
   -6.3336    1.3462    0.0000 C   0  0  0  0  0  0  0  0  0  0  0  0
   -6.4751    0.0000    0.0000 C   0  0  0  0  0  0  0  0  0  0  0  0
   -6.3336   -1.3462    0.0000 C   0  0  0  0  0  0  0  0  0  0  0  0
   -5.9153   -2.6337    0.0000 C   0  0  0  0  0  0  0  0  0  0  0  0
   -5.2384   -3.8060    0.0000 C   0  0  0  0  0  0  0  0  0  0  0  0
   -4.3327   -4.8119    0.0000 C   0  0  0  0  0  0  0  0  0  0  0  0
   -3.2375   -5.6076    0.0000 C   0  0  0  0  0  0  0  0  0  0  0  0
   -2.0009   -6.1582    0.0000 C   0  0  0  0  0  0  0  0  0  0  0  0
   -0.6768   -6.4396    0.0000 C   0  0  0  0  0  0  0  0  0  0  0  0
    0.6768   -6.4396    0.0000 C   0  0  0  0  0  0  0  0  0  0  0  0
    2.0009   -6.1582    0.0000 C   0  0  0  0  0  0  0  0  0  0  0  0
    3.2375   -5.6076    0.0000 C   0  0  0  0  0  0  0  0  0  0  0  0
    4.3327   -4.8119    0.0000 C   0  0  0  0  0  0  0  0  0  0  0  0
    5.2384   -3.8060    0.0000 C   0  0  0  0  0  0  0  0  0  0  0  0
    6.5548   -2.9184    0.0000 C   0  0  0  0  0  0  0  0  0  0  0  0
  1  2  1  0
  2  3  1  0
  3  4  1  0
  4  5  1  0
  5  6  1  0
  6  7  1  0
  7  8  1  0
  8  9  1  0
  9 10  1  0
 10 11  1  0
 11 12  1  0
 12 13  1  0
 13 14  1  0
 14 15  1  0
 15 16  1  0
 16 17  1  0
 17 18  1  0
 18 19  1  0
 19 20  1  0
 20 21  1  0
 21 22  1  0
 22 23  1  0
 23 24  1  0
 24 25  1  0
 25 26  1  0
 26 27  1  0
 27 28  1  0
 28 29  1  0
 29 30  1  0
 30 31  1  0
 31 32  1  0
 32 33  1  0
 33 34  1  0
 34 35  1  0
 35 36  1  0
 36 37  1  0
 37 38  1  0
 38 39  1  0
 39 40  1  0
 40 41  1  0
 41 42  1  0
 42 43  1  0
 43 44  1  0
 44 45  1  0
 45 46  1  0
 46 47  1  0
 47 48  1  0
 48 49  1  0
 49 50  1  0
 50 51  1  0
 51 52  1  0
 52 53  1  0
 53 54  1  0
 54 55  1  0
 55 56  1  0
 56 57  1  0
 57 58  1  0
 58 59  1  0
 59 60  1  0
 60 61  1  0
 61 62  1  0
 62 63  1  0
 63 64  1  0
 64 65  2  0
 65 66  1  0
 66 67  2  0
 67 68  1  0
 68 69  2  0
 69 70  1  0
 70 71  2  0
 71 72  1  0
 72 73  2  0
 73 74  1  0
 74 75  2  0
 75 76  1  0
 76 77  2  0
 77 78  1  0
 78 79  2  0
 79 80  1  0
 80 81  2  0
 81 82  1  0
 82 83  2  0
 83 84  1  0
 84 85  2  0
 85 86  1  0
 86 87  2  0
 87 88  1  0
 88 89  2  0
 89 90  1  0
 90 91  2  0
 91  2  1  0
 91 62  1  0
M  END
>  <Title>  (174) 
idAAETgen13

$$$$

     RDKit          2D

 92 93  0  0  0  0  0  0  0  0999 V2000
   -2.1799   -1.0785    0.0000 C   0  0  0  0  0  0  0  0  0  0  0  0
   -2.4883    0.3894    0.0000 C   0  0  0  0  0  0  0  0  0  0  0  0
   -3.9663    0.1336    0.0000 C   0  0  0  0  0  0  0  0  0  0  0  0
   -5.4588   -0.0160    0.0000 C   0  0  0  0  0  0  0  0  0  0  0  0
   -6.9582   -0.0589    0.0000 C   0  0  0  0  0  0  0  0  0  0  0  0
   -8.4569    0.0054    0.0000 C   0  0  0  0  0  0  0  0  0  0  0  0
   -9.9471    0.1763    0.0000 C   0  0  0  0  0  0  0  0  0  0  0  0
  -11.4213    0.4532    0.0000 C   0  0  0  0  0  0  0  0  0  0  0  0
  -12.8720    0.8345    0.0000 C   0  0  0  0  0  0  0  0  0  0  0  0
  -14.2918    1.3184    0.0000 C   0  0  0  0  0  0  0  0  0  0  0  0
  -15.6735    1.9023    0.0000 C   0  0  0  0  0  0  0  0  0  0  0  0
  -17.0100    2.5833    0.0000 C   0  0  0  0  0  0  0  0  0  0  0  0
  -18.2946    3.3579    0.0000 C   0  0  0  0  0  0  0  0  0  0  0  0
  -19.5206    4.2221    0.0000 C   0  0  0  0  0  0  0  0  0  0  0  0
  -20.6818    5.1717    0.0000 C   0  0  0  0  0  0  0  0  0  0  0  0
  -21.7723    6.2016    0.0000 C   0  0  0  0  0  0  0  0  0  0  0  0
  -22.7866    7.3067    0.0000 C   0  0  0  0  0  0  0  0  0  0  0  0
  -23.7194    8.4814    0.0000 C   0  0  0  0  0  0  0  0  0  0  0  0
  -24.5661    9.7196    0.0000 C   0  0  0  0  0  0  0  0  0  0  0  0
  -25.3222   11.0150    0.0000 C   0  0  0  0  0  0  0  0  0  0  0  0
  -25.9841   12.3611    0.0000 C   0  0  0  0  0  0  0  0  0  0  0  0
  -26.5482   13.7510    0.0000 C   0  0  0  0  0  0  0  0  0  0  0  0
  -27.0117   15.1776    0.0000 C   0  0  0  0  0  0  0  0  0  0  0  0
  -27.3723   16.6336    0.0000 C   0  0  0  0  0  0  0  0  0  0  0  0
  -27.6281   18.1116    0.0000 C   0  0  0  0  0  0  0  0  0  0  0  0
  -27.7778   19.6041    0.0000 C   0  0  0  0  0  0  0  0  0  0  0  0
  -27.8206   21.1035    0.0000 C   0  0  0  0  0  0  0  0  0  0  0  0
  -27.7563   22.6022    0.0000 C   0  0  0  0  0  0  0  0  0  0  0  0
  -27.5854   24.0924    0.0000 C   0  0  0  0  0  0  0  0  0  0  0  0
  -27.3085   25.5666    0.0000 C   0  0  0  0  0  0  0  0  0  0  0  0
  -26.9272   27.0173    0.0000 C   0  0  0  0  0  0  0  0  0  0  0  0
  -26.4433   28.4371    0.0000 C   0  0  0  0  0  0  0  0  0  0  0  0
  -25.8594   29.8188    0.0000 C   0  0  0  0  0  0  0  0  0  0  0  0
  -25.1784   31.1553    0.0000 C   0  0  0  0  0  0  0  0  0  0  0  0
  -24.4038   32.4399    0.0000 C   0  0  0  0  0  0  0  0  0  0  0  0
  -23.5396   33.6659    0.0000 C   0  0  0  0  0  0  0  0  0  0  0  0
  -22.5901   34.8271    0.0000 C   0  0  0  0  0  0  0  0  0  0  0  0
  -21.5601   35.9176    0.0000 C   0  0  0  0  0  0  0  0  0  0  0  0
  -20.4550   36.9318    0.0000 C   0  0  0  0  0  0  0  0  0  0  0  0
  -19.2803   37.8647    0.0000 C   0  0  0  0  0  0  0  0  0  0  0  0
  -18.0421   38.7114    0.0000 C   0  0  0  0  0  0  0  0  0  0  0  0
  -16.7467   39.4675    0.0000 C   0  0  0  0  0  0  0  0  0  0  0  0
  -15.4006   40.1294    0.0000 C   0  0  0  0  0  0  0  0  0  0  0  0
  -14.0107   40.6935    0.0000 C   0  0  0  0  0  0  0  0  0  0  0  0
  -12.5841   41.1570    0.0000 C   0  0  0  0  0  0  0  0  0  0  0  0
  -11.1281   41.5176    0.0000 C   0  0  0  0  0  0  0  0  0  0  0  0
   -9.6501   41.7734    0.0000 C   0  0  0  0  0  0  0  0  0  0  0  0
   -8.1576   41.9230    0.0000 C   0  0  0  0  0  0  0  0  0  0  0  0
   -6.6582   41.9659    0.0000 C   0  0  0  0  0  0  0  0  0  0  0  0
   -5.1596   41.9016    0.0000 C   0  0  0  0  0  0  0  0  0  0  0  0
   -3.6693   41.7307    0.0000 C   0  0  0  0  0  0  0  0  0  0  0  0
   -2.1951   41.4538    0.0000 C   0  0  0  0  0  0  0  0  0  0  0  0
   -0.7444   41.0725    0.0000 C   0  0  0  0  0  0  0  0  0  0  0  0
    0.6754   40.5886    0.0000 C   0  0  0  0  0  0  0  0  0  0  0  0
    2.0571   40.0047    0.0000 C   0  0  0  0  0  0  0  0  0  0  0  0
    3.3936   39.3237    0.0000 C   0  0  0  0  0  0  0  0  0  0  0  0
    4.6782   38.5491    0.0000 C   0  0  0  0  0  0  0  0  0  0  0  0
    5.9042   37.6849    0.0000 C   0  0  0  0  0  0  0  0  0  0  0  0
    7.0654   36.7353    0.0000 C   0  0  0  0  0  0  0  0  0  0  0  0
    8.1559   35.7054    0.0000 C   0  0  0  0  0  0  0  0  0  0  0  0
    9.1701   34.6003    0.0000 C   0  0  0  0  0  0  0  0  0  0  0  0
   10.1030   33.4256    0.0000 C   0  0  0  0  0  0  0  0  0  0  0  0
   10.9496   32.1874    0.0000 C   0  0  0  0  0  0  0  0  0  0  0  0
   11.7058   30.8920    0.0000 C   0  0  0  0  0  0  0  0  0  0  0  0
   12.3677   29.5459    0.0000 C   0  0  0  0  0  0  0  0  0  0  0  0
   12.9318   28.1560    0.0000 C   0  0  0  0  0  0  0  0  0  0  0  0
   13.3953   26.7294    0.0000 C   0  0  0  0  0  0  0  0  0  0  0  0
   13.7559   25.2734    0.0000 C   0  0  0  0  0  0  0  0  0  0  0  0
   14.0117   23.7954    0.0000 C   0  0  0  0  0  0  0  0  0  0  0  0
   14.1613   22.3029    0.0000 C   0  0  0  0  0  0  0  0  0  0  0  0
   14.2042   20.8035    0.0000 C   0  0  0  0  0  0  0  0  0  0  0  0
   14.1399   19.3048    0.0000 C   0  0  0  0  0  0  0  0  0  0  0  0
   13.9689   17.8146    0.0000 C   0  0  0  0  0  0  0  0  0  0  0  0
   13.6921   16.3404    0.0000 C   0  0  0  0  0  0  0  0  0  0  0  0
   13.3108   14.8897    0.0000 C   0  0  0  0  0  0  0  0  0  0  0  0
   12.8269   13.4699    0.0000 C   0  0  0  0  0  0  0  0  0  0  0  0
   12.2430   12.0882    0.0000 C   0  0  0  0  0  0  0  0  0  0  0  0
   11.5620   10.7517    0.0000 C   0  0  0  0  0  0  0  0  0  0  0  0
   10.7874    9.4671    0.0000 C   0  0  0  0  0  0  0  0  0  0  0  0
    9.9232    8.2411    0.0000 C   0  0  0  0  0  0  0  0  0  0  0  0
    8.9736    7.0799    0.0000 C   0  0  0  0  0  0  0  0  0  0  0  0
    7.9437    5.9894    0.0000 C   0  0  0  0  0  0  0  0  0  0  0  0
    6.8386    4.9752    0.0000 C   0  0  0  0  0  0  0  0  0  0  0  0
    5.6639    4.0423    0.0000 C   0  0  0  0  0  0  0  0  0  0  0  0
    4.4257    3.1956    0.0000 C   0  0  0  0  0  0  0  0  0  0  0  0
    3.1303    2.4395    0.0000 C   0  0  0  0  0  0  0  0  0  0  0  0
    1.7842    1.7776    0.0000 C   0  0  0  0  0  0  0  0  0  0  0  0
    0.3943    1.2135    0.0000 C   0  0  0  0  0  0  0  0  0  0  0  0
    1.2760    0.0000    0.0000 C   0  0  0  0  0  0  0  0  0  0  0  0
    0.3943   -1.2135    0.0000 C   0  0  0  0  0  0  0  0  0  0  0  0
   -1.0323   -0.7500    0.0000 C   0  0  0  0  0  0  0  0  0  0  0  0
   -1.0323    0.7500    0.0000 C   0  0  0  0  0  0  0  0  0  0  0  0
  1  2  1  0
  2  3  1  0
  3  4  1  0
  4  5  1  0
  5  6  1  0
  6  7  1  0
  7  8  1  0
  8  9  1  0
  9 10  1  0
 10 11  1  0
 11 12  1  0
 12 13  1  0
 13 14  1  0
 14 15  1  0
 15 16  1  0
 16 17  1  0
 17 18  1  0
 18 19  1  0
 19 20  1  0
 20 21  1  0
 21 22  1  0
 22 23  1  0
 23 24  1  0
 24 25  1  0
 25 26  1  0
 26 27  1  0
 27 28  1  0
 28 29  1  0
 29 30  1  0
 30 31  1  0
 31 32  1  0
 32 33  1  0
 33 34  1  0
 34 35  1  0
 35 36  1  0
 36 37  1  0
 37 38  1  0
 38 39  1  0
 39 40  1  0
 40 41  1  0
 41 42  1  0
 42 43  1  0
 43 44  1  0
 44 45  1  0
 45 46  1  0
 46 47  1  0
 47 48  1  0
 48 49  1  0
 49 50  1  0
 50 51  1  0
 51 52  1  0
 52 53  1  0
 53 54  1  0
 54 55  1  0
 55 56  1  0
 56 57  1  0
 57 58  1  0
 58 59  1  0
 59 60  1  0
 60 61  1  0
 61 62  1  0
 62 63  1  0
 63 64  1  0
 64 65  1  0
 65 66  1  0
 66 67  1  0
 67 68  1  0
 68 69  1  0
 69 70  1  0
 70 71  1  0
 71 72  1  0
 72 73  1  0
 73 74  1  0
 74 75  1  0
 75 76  1  0
 76 77  1  0
 77 78  2  0
 78 79  1  0
 79 80  2  0
 80 81  1  0
 81 82  2  0
 82 83  1  0
 83 84  2  0
 84 85  1  0
 85 86  2  0
 86 87  1  0
 87 88  2  0
 88 89  1  0
 89 90  2  0
 90 91  1  0
 91 92  2  0
 92  2  1  0
 92 88  1  0
M  END
>  <Title>  (175) 
idAAEUgen13

$$$$

     RDKit          2D

 34 38  0  0  0  0  0  0  0  0999 V2000
   -3.0000   -2.5981    0.0000 C   0  0  0  0  0  0  0  0  0  0  0  0
   -1.5000   -2.5981    0.0000 C   0  0  0  0  0  0  0  0  0  0  0  0
   -0.7500   -3.8971    0.0000 C   0  0  0  0  0  0  0  0  0  0  0  0
    0.7500   -3.8971    0.0000 C   0  0  0  0  0  0  0  0  0  0  0  0
    1.5000   -2.5981    0.0000 C   0  0  0  0  0  0  0  0  0  0  0  0
    3.0000   -2.5981    0.0000 C   0  0  0  0  0  0  0  0  0  0  0  0
    3.7500   -1.2990    0.0000 O   0  0  0  0  0  0  0  0  0  0  0  0
    3.7500   -3.8971    0.0000 N   0  0  0  0  0  0  0  0  0  0  0  0
    5.2500   -3.8971    0.0000 C   0  0  0  0  0  0  0  0  0  0  0  0
    6.1317   -2.6836    0.0000 N   0  0  0  0  0  0  0  0  0  0  0  0
    7.5583   -3.1471    0.0000 N   0  0  0  0  0  0  0  0  0  0  0  0
    7.5583   -4.6471    0.0000 N   0  0  0  0  0  0  0  0  0  0  0  0
    6.1317   -5.1106    0.0000 N   0  0  0  0  0  0  0  0  0  0  0  0
    5.6682   -6.5372    0.0000 N   0  0  0  0  0  0  0  0  0  0  0  0
    6.5498   -7.7508    0.0000 C   0  0  0  0  0  0  0  0  0  0  0  0
    5.6682   -8.9643    0.0000 C   0  0  0  0  0  0  0  0  0  0  0  0
    4.2416   -8.5008    0.0000 C   0  0  0  0  0  0  0  0  0  0  0  0
    3.0280   -9.3824    0.0000 C   0  0  0  0  0  0  0  0  0  0  0  0
    3.1848  -10.8742    0.0000 O   0  0  0  0  0  0  0  0  0  0  0  0
    1.6577   -8.7723    0.0000 N   0  0  0  0  0  0  0  0  0  0  0  0
    0.4442   -9.6540    0.0000 C   0  0  0  0  0  0  0  0  0  0  0  0
   -0.9261   -9.0439    0.0000 N   0  0  0  0  0  0  0  0  0  0  0  0
   -2.1396   -9.9256    0.0000 N   0  0  0  0  0  0  0  0  0  0  0  0
   -1.9829  -11.4174    0.0000 N   0  0  0  0  0  0  0  0  0  0  0  0
   -0.6125  -12.0275    0.0000 N   0  0  0  0  0  0  0  0  0  0  0  0
    0.6010  -11.1458    0.0000 N   0  0  0  0  0  0  0  0  0  0  0  0
    4.2416   -7.0008    0.0000 C   0  0  0  0  0  0  0  0  0  0  0  0
    3.0280   -6.1191    0.0000 O   0  0  0  0  0  0  0  0  0  0  0  0
    0.7500   -1.2990    0.0000 C   0  0  0  0  0  0  0  0  0  0  0  0
    1.5000    0.0000    0.0000 C   0  0  0  0  0  0  0  0  0  0  0  0
    0.7500    1.2990    0.0000 C   0  0  0  0  0  0  0  0  0  0  0  0
   -0.7500    1.2990    0.0000 C   0  0  0  0  0  0  0  0  0  0  0  0
   -1.5000    0.0000    0.0000 C   0  0  0  0  0  0  0  0  0  0  0  0
   -0.7500   -1.2990    0.0000 C   0  0  0  0  0  0  0  0  0  0  0  0
  1  2  1  0
  2  3  1  0
  3  4  2  0
  4  5  1  0
  5  6  1  0
  6  7  2  0
  6  8  1  0
  8  9  1  0
  9 10  2  0
 10 11  1  0
 11 12  2  0
 12 13  1  0
 13 14  1  0
 14 15  1  0
 15 16  1  0
 16 17  1  0
 17 18  1  0
 18 19  2  0
 18 20  1  0
 20 21  1  0
 21 22  2  0
 22 23  1  0
 23 24  2  0
 24 25  1  0
 25 26  2  0
 17 27  1  0
 27 28  2  0
  5 29  1  0
 29 30  2  0
 30 31  1  0
 31 32  2  0
 32 33  1  0
 33 34  2  0
 34  2  1  0
 13  9  1  0
 27 14  1  0
 34 29  1  0
 26 21  1  0
M  END
>  <Title>  (176) 
idAAEVgen13

$$$$

     RDKit          2D

 88 89  0  0  0  0  0  0  0  0999 V2000
   -2.1886   -1.0751    0.0000 C   0  0  0  0  0  0  0  0  0  0  0  0
   -2.4895    0.3944    0.0000 C   0  0  0  0  0  0  0  0  0  0  0  0
   -3.9693    0.1487    0.0000 C   0  0  0  0  0  0  0  0  0  0  0  0
   -5.4632    0.0142    0.0000 C   0  0  0  0  0  0  0  0  0  0  0  0
   -6.9631   -0.0082    0.0000 C   0  0  0  0  0  0  0  0  0  0  0  0
   -8.4604    0.0815    0.0000 C   0  0  0  0  0  0  0  0  0  0  0  0
   -9.9468    0.2828    0.0000 C   0  0  0  0  0  0  0  0  0  0  0  0
  -11.4140    0.5947    0.0000 C   0  0  0  0  0  0  0  0  0  0  0  0
  -12.8538    1.0153    0.0000 C   0  0  0  0  0  0  0  0  0  0  0  0
  -14.2582    1.5424    0.0000 C   0  0  0  0  0  0  0  0  0  0  0  0
  -15.6192    2.1729    0.0000 C   0  0  0  0  0  0  0  0  0  0  0  0
  -16.9293    2.9034    0.0000 C   0  0  0  0  0  0  0  0  0  0  0  0
  -18.1812    3.7297    0.0000 C   0  0  0  0  0  0  0  0  0  0  0  0
  -19.3678    4.6473    0.0000 C   0  0  0  0  0  0  0  0  0  0  0  0
  -20.4825    5.6510    0.0000 C   0  0  0  0  0  0  0  0  0  0  0  0
  -21.5191    6.7352    0.0000 C   0  0  0  0  0  0  0  0  0  0  0  0
  -22.4718    7.8938    0.0000 C   0  0  0  0  0  0  0  0  0  0  0  0
  -23.3352    9.1204    0.0000 C   0  0  0  0  0  0  0  0  0  0  0  0
  -24.1046   10.4081    0.0000 C   0  0  0  0  0  0  0  0  0  0  0  0
  -24.7755   11.7497    0.0000 C   0  0  0  0  0  0  0  0  0  0  0  0
  -25.3444   13.1376    0.0000 C   0  0  0  0  0  0  0  0  0  0  0  0
  -25.8079   14.5642    0.0000 C   0  0  0  0  0  0  0  0  0  0  0  0
  -26.1635   16.0214    0.0000 C   0  0  0  0  0  0  0  0  0  0  0  0
  -26.4092   17.5012    0.0000 C   0  0  0  0  0  0  0  0  0  0  0  0
  -26.5437   18.9951    0.0000 C   0  0  0  0  0  0  0  0  0  0  0  0
  -26.5661   20.4950    0.0000 C   0  0  0  0  0  0  0  0  0  0  0  0
  -26.4764   21.9923    0.0000 C   0  0  0  0  0  0  0  0  0  0  0  0
  -26.2751   23.4787    0.0000 C   0  0  0  0  0  0  0  0  0  0  0  0
  -25.9632   24.9459    0.0000 C   0  0  0  0  0  0  0  0  0  0  0  0
  -25.5426   26.3857    0.0000 C   0  0  0  0  0  0  0  0  0  0  0  0
  -25.0155   27.7901    0.0000 C   0  0  0  0  0  0  0  0  0  0  0  0
  -24.3850   29.1511    0.0000 C   0  0  0  0  0  0  0  0  0  0  0  0
  -23.6545   30.4612    0.0000 C   0  0  0  0  0  0  0  0  0  0  0  0
  -22.8281   31.7131    0.0000 C   0  0  0  0  0  0  0  0  0  0  0  0
  -21.9106   32.8997    0.0000 C   0  0  0  0  0  0  0  0  0  0  0  0
  -20.9069   34.0144    0.0000 C   0  0  0  0  0  0  0  0  0  0  0  0
  -19.8227   35.0510    0.0000 C   0  0  0  0  0  0  0  0  0  0  0  0
  -18.6640   36.0037    0.0000 C   0  0  0  0  0  0  0  0  0  0  0  0
  -17.4375   36.8671    0.0000 C   0  0  0  0  0  0  0  0  0  0  0  0
  -16.1498   37.6365    0.0000 C   0  0  0  0  0  0  0  0  0  0  0  0
  -14.8082   38.3074    0.0000 C   0  0  0  0  0  0  0  0  0  0  0  0
  -13.4203   38.8763    0.0000 C   0  0  0  0  0  0  0  0  0  0  0  0
  -11.9937   39.3398    0.0000 C   0  0  0  0  0  0  0  0  0  0  0  0
  -10.5364   39.6954    0.0000 C   0  0  0  0  0  0  0  0  0  0  0  0
   -9.0567   39.9412    0.0000 C   0  0  0  0  0  0  0  0  0  0  0  0
   -7.5627   40.0756    0.0000 C   0  0  0  0  0  0  0  0  0  0  0  0
   -6.0629   40.0981    0.0000 C   0  0  0  0  0  0  0  0  0  0  0  0
   -4.5656   40.0083    0.0000 C   0  0  0  0  0  0  0  0  0  0  0  0
   -3.0792   39.8070    0.0000 C   0  0  0  0  0  0  0  0  0  0  0  0
   -1.6120   39.4951    0.0000 C   0  0  0  0  0  0  0  0  0  0  0  0
   -0.1721   39.0745    0.0000 C   0  0  0  0  0  0  0  0  0  0  0  0
    1.2322   38.5474    0.0000 C   0  0  0  0  0  0  0  0  0  0  0  0
    2.5932   37.9169    0.0000 C   0  0  0  0  0  0  0  0  0  0  0  0
    3.9034   37.1864    0.0000 C   0  0  0  0  0  0  0  0  0  0  0  0
    5.1552   36.3601    0.0000 C   0  0  0  0  0  0  0  0  0  0  0  0
    6.3418   35.4425    0.0000 C   0  0  0  0  0  0  0  0  0  0  0  0
    7.4565   34.4388    0.0000 C   0  0  0  0  0  0  0  0  0  0  0  0
    8.4931   33.3546    0.0000 C   0  0  0  0  0  0  0  0  0  0  0  0
    9.4458   32.1960    0.0000 C   0  0  0  0  0  0  0  0  0  0  0  0
   10.3092   30.9694    0.0000 C   0  0  0  0  0  0  0  0  0  0  0  0
   11.0786   29.6817    0.0000 C   0  0  0  0  0  0  0  0  0  0  0  0
   11.7496   28.3401    0.0000 C   0  0  0  0  0  0  0  0  0  0  0  0
   12.3184   26.9522    0.0000 C   0  0  0  0  0  0  0  0  0  0  0  0
   12.7819   25.5256    0.0000 C   0  0  0  0  0  0  0  0  0  0  0  0
   13.1375   24.0684    0.0000 C   0  0  0  0  0  0  0  0  0  0  0  0
   13.3833   22.5886    0.0000 C   0  0  0  0  0  0  0  0  0  0  0  0
   13.5177   21.0947    0.0000 C   0  0  0  0  0  0  0  0  0  0  0  0
   13.5402   19.5948    0.0000 C   0  0  0  0  0  0  0  0  0  0  0  0
   13.4505   18.0975    0.0000 C   0  0  0  0  0  0  0  0  0  0  0  0
   13.2491   16.6111    0.0000 C   0  0  0  0  0  0  0  0  0  0  0  0
   12.9372   15.1439    0.0000 C   0  0  0  0  0  0  0  0  0  0  0  0
   12.5166   13.7041    0.0000 C   0  0  0  0  0  0  0  0  0  0  0  0
   11.9895   12.2997    0.0000 C   0  0  0  0  0  0  0  0  0  0  0  0
   11.3590   10.9387    0.0000 C   0  0  0  0  0  0  0  0  0  0  0  0
   10.6285    9.6286    0.0000 C   0  0  0  0  0  0  0  0  0  0  0  0
    9.8022    8.3767    0.0000 C   0  0  0  0  0  0  0  0  0  0  0  0
    8.8846    7.1901    0.0000 C   0  0  0  0  0  0  0  0  0  0  0  0
    7.8809    6.0754    0.0000 C   0  0  0  0  0  0  0  0  0  0  0  0
    6.7967    5.0388    0.0000 C   0  0  0  0  0  0  0  0  0  0  0  0
    5.6381    4.0861    0.0000 C   0  0  0  0  0  0  0  0  0  0  0  0
    4.4115    3.2227    0.0000 C   0  0  0  0  0  0  0  0  0  0  0  0
    3.1238    2.4533    0.0000 C   0  0  0  0  0  0  0  0  0  0  0  0
    1.7823    1.7824    0.0000 C   0  0  0  0  0  0  0  0  0  0  0  0
    0.3943    1.2135    0.0000 C   0  0  0  0  0  0  0  0  0  0  0  0
    1.2760    0.0000    0.0000 C   0  0  0  0  0  0  0  0  0  0  0  0
    0.3943   -1.2135    0.0000 C   0  0  0  0  0  0  0  0  0  0  0  0
   -1.0323   -0.7500    0.0000 C   0  0  0  0  0  0  0  0  0  0  0  0
   -1.0323    0.7500    0.0000 C   0  0  0  0  0  0  0  0  0  0  0  0
  1  2  1  0
  2  3  1  0
  3  4  1  0
  4  5  1  0
  5  6  1  0
  6  7  1  0
  7  8  1  0
  8  9  1  0
  9 10  1  0
 10 11  1  0
 11 12  1  0
 12 13  1  0
 13 14  1  0
 14 15  1  0
 15 16  1  0
 16 17  1  0
 17 18  1  0
 18 19  1  0
 19 20  1  0
 20 21  1  0
 21 22  1  0
 22 23  1  0
 23 24  1  0
 24 25  1  0
 25 26  1  0
 26 27  1  0
 27 28  1  0
 28 29  1  0
 29 30  1  0
 30 31  1  0
 31 32  1  0
 32 33  1  0
 33 34  1  0
 34 35  1  0
 35 36  1  0
 36 37  1  0
 37 38  1  0
 38 39  1  0
 39 40  1  0
 40 41  1  0
 41 42  1  0
 42 43  1  0
 43 44  1  0
 44 45  1  0
 45 46  1  0
 46 47  1  0
 47 48  1  0
 48 49  1  0
 49 50  1  0
 50 51  1  0
 51 52  1  0
 52 53  1  0
 53 54  1  0
 54 55  1  0
 55 56  1  0
 56 57  1  0
 57 58  1  0
 58 59  1  0
 59 60  1  0
 60 61  1  0
 61 62  2  0
 62 63  1  0
 63 64  2  0
 64 65  1  0
 65 66  2  0
 66 67  1  0
 67 68  2  0
 68 69  1  0
 69 70  2  0
 70 71  1  0
 71 72  2  0
 72 73  1  0
 73 74  2  0
 74 75  1  0
 75 76  2  0
 76 77  1  0
 77 78  2  0
 78 79  1  0
 79 80  2  0
 80 81  1  0
 81 82  2  0
 82 83  1  0
 83 84  2  0
 84 85  1  0
 85 86  2  0
 86 87  1  0
 87 88  2  0
 88  2  1  0
 88 84  1  0
M  END
>  <Title>  (177) 
idAAEWgen13

$$$$

     RDKit          2D

 42 46  0  0  0  0  0  0  0  0999 V2000
  -10.5000   -7.7942    0.0000 C   0  0  0  0  0  0  0  0  0  0  0  0
   -9.7500   -6.4952    0.0000 C   0  0  0  0  0  0  0  0  0  0  0  0
   -8.2500   -6.4952    0.0000 C   0  0  0  0  0  0  0  0  0  0  0  0
   -7.5000   -5.1962    0.0000 C   0  0  0  0  0  0  0  0  0  0  0  0
   -6.0000   -5.1962    0.0000 N   0  0  0  0  0  0  0  0  0  0  0  0
   -5.2500   -3.8971    0.0000 C   0  0  0  0  0  0  0  0  0  0  0  0
   -6.0000   -2.5981    0.0000 O   0  0  0  0  0  0  0  0  0  0  0  0
   -3.7500   -3.8971    0.0000 N   0  0  0  0  0  0  0  0  0  0  0  0
   -3.0000   -2.5981    0.0000 C   0  0  0  0  0  0  0  0  0  0  0  0
   -1.5000   -2.5981    0.0000 C   0  0  0  0  0  0  0  0  0  0  0  0
   -0.7500   -3.8971    0.0000 C   0  0  0  0  0  0  0  0  0  0  0  0
    0.7500   -3.8971    0.0000 C   0  0  0  0  0  0  0  0  0  0  0  0
    1.5000   -2.5981    0.0000 C   0  0  0  0  0  0  0  0  0  0  0  0
    3.0000   -2.5981    0.0000 C   0  0  0  0  0  0  0  0  0  0  0  0
    3.7500   -1.2990    0.0000 O   0  0  0  0  0  0  0  0  0  0  0  0
    3.7500   -3.8971    0.0000 N   0  0  0  0  0  0  0  0  0  0  0  0
    5.2500   -3.8971    0.0000 C   0  0  0  0  0  0  0  0  0  0  0  0
    6.1317   -2.6836    0.0000 N   0  0  0  0  0  0  0  0  0  0  0  0
    7.5583   -3.1471    0.0000 N   0  0  0  0  0  0  0  0  0  0  0  0
    7.5583   -4.6471    0.0000 N   0  0  0  0  0  0  0  0  0  0  0  0
    6.1317   -5.1106    0.0000 N   0  0  0  0  0  0  0  0  0  0  0  0
    5.6682   -6.5372    0.0000 C   0  0  0  0  0  0  0  0  0  0  0  0
    6.5498   -7.7508    0.0000 C   0  0  0  0  0  0  0  0  0  0  0  0
    5.6682   -8.9643    0.0000 C   0  0  0  0  0  0  0  0  0  0  0  0
    4.2416   -8.5008    0.0000 C   0  0  0  0  0  0  0  0  0  0  0  0
    3.0280   -9.3824    0.0000 C   0  0  0  0  0  0  0  0  0  0  0  0
    3.1848  -10.8742    0.0000 O   0  0  0  0  0  0  0  0  0  0  0  0
    1.6577   -8.7723    0.0000 N   0  0  0  0  0  0  0  0  0  0  0  0
    0.4442   -9.6540    0.0000 C   0  0  0  0  0  0  0  0  0  0  0  0
   -0.9261   -9.0439    0.0000 N   0  0  0  0  0  0  0  0  0  0  0  0
   -2.1396   -9.9256    0.0000 N   0  0  0  0  0  0  0  0  0  0  0  0
   -1.9829  -11.4174    0.0000 N   0  0  0  0  0  0  0  0  0  0  0  0
   -0.6125  -12.0275    0.0000 N   0  0  0  0  0  0  0  0  0  0  0  0
    0.6010  -11.1458    0.0000 N   0  0  0  0  0  0  0  0  0  0  0  0
    4.2416   -7.0008    0.0000 C   0  0  0  0  0  0  0  0  0  0  0  0
    3.0280   -6.1191    0.0000 O   0  0  0  0  0  0  0  0  0  0  0  0
    0.7500   -1.2990    0.0000 C   0  0  0  0  0  0  0  0  0  0  0  0
    1.5000    0.0000    0.0000 C   0  0  0  0  0  0  0  0  0  0  0  0
    0.7500    1.2990    0.0000 C   0  0  0  0  0  0  0  0  0  0  0  0
   -0.7500    1.2990    0.0000 C   0  0  0  0  0  0  0  0  0  0  0  0
   -1.5000    0.0000    0.0000 C   0  0  0  0  0  0  0  0  0  0  0  0
   -0.7500   -1.2990    0.0000 C   0  0  0  0  0  0  0  0  0  0  0  0
  1  2  2  0
  2  3  1  0
  3  4  1  0
  4  5  1  0
  5  6  1  0
  6  7  2  0
  6  8  1  0
  8  9  1  0
  9 10  1  0
 10 11  2  0
 11 12  1  0
 12 13  2  0
 13 14  1  0
 14 15  2  0
 14 16  1  0
 16 17  1  0
 17 18  2  0
 18 19  1  0
 19 20  2  0
 20 21  1  0
 21 22  1  0
 22 23  2  0
 23 24  1  0
 24 25  2  0
 25 26  1  0
 26 27  2  0
 26 28  1  0
 28 29  1  0
 29 30  2  0
 30 31  1  0
 31 32  2  0
 32 33  1  0
 33 34  2  0
 25 35  1  0
 35 36  2  0
 13 37  1  0
 37 38  2  0
 38 39  1  0
 39 40  2  0
 40 41  1  0
 41 42  2  0
 42 10  1  0
 21 17  1  0
 35 22  1  0
 42 37  1  0
 34 29  1  0
M  END
>  <Title>  (178) 
idAAEXgen13

$$$$

     RDKit          2D

 78 80  0  0  0  0  0  0  0  0999 V2000
   -2.4453    0.0529    0.0000 C   0  0  0  0  0  0  0  0  0  0  0  0
   -2.2440   -1.4335    0.0000 C   0  0  0  0  0  0  0  0  0  0  0  0
   -3.7199   -1.7013    0.0000 C   0  0  0  0  0  0  0  0  0  0  0  0
   -5.1658   -2.1004    0.0000 C   0  0  0  0  0  0  0  0  0  0  0  0
   -6.5702   -2.6274    0.0000 C   0  0  0  0  0  0  0  0  0  0  0  0
   -7.9216   -3.2783    0.0000 C   0  0  0  0  0  0  0  0  0  0  0  0
   -9.2093   -4.0476    0.0000 C   0  0  0  0  0  0  0  0  0  0  0  0
  -10.4228   -4.9293    0.0000 C   0  0  0  0  0  0  0  0  0  0  0  0
  -11.5524   -5.9162    0.0000 C   0  0  0  0  0  0  0  0  0  0  0  0
  -12.5890   -7.0004    0.0000 C   0  0  0  0  0  0  0  0  0  0  0  0
  -13.5242   -8.1731    0.0000 C   0  0  0  0  0  0  0  0  0  0  0  0
  -14.3506   -9.4250    0.0000 C   0  0  0  0  0  0  0  0  0  0  0  0
  -15.0614  -10.7459    0.0000 C   0  0  0  0  0  0  0  0  0  0  0  0
  -15.6509  -12.1252    0.0000 C   0  0  0  0  0  0  0  0  0  0  0  0
  -16.1145  -13.5518    0.0000 C   0  0  0  0  0  0  0  0  0  0  0  0
  -16.4482  -15.0142    0.0000 C   0  0  0  0  0  0  0  0  0  0  0  0
  -16.6496  -16.5006    0.0000 C   0  0  0  0  0  0  0  0  0  0  0  0
  -16.7169  -17.9991    0.0000 C   0  0  0  0  0  0  0  0  0  0  0  0
  -16.6496  -19.4976    0.0000 C   0  0  0  0  0  0  0  0  0  0  0  0
  -16.4482  -20.9840    0.0000 C   0  0  0  0  0  0  0  0  0  0  0  0
  -16.1145  -22.4464    0.0000 C   0  0  0  0  0  0  0  0  0  0  0  0
  -15.6509  -23.8730    0.0000 C   0  0  0  0  0  0  0  0  0  0  0  0
  -15.0614  -25.2523    0.0000 C   0  0  0  0  0  0  0  0  0  0  0  0
  -14.3506  -26.5732    0.0000 C   0  0  0  0  0  0  0  0  0  0  0  0
  -13.5242  -27.8250    0.0000 C   0  0  0  0  0  0  0  0  0  0  0  0
  -12.5890  -28.9978    0.0000 C   0  0  0  0  0  0  0  0  0  0  0  0
  -11.5524  -30.0820    0.0000 C   0  0  0  0  0  0  0  0  0  0  0  0
  -10.4228  -31.0689    0.0000 C   0  0  0  0  0  0  0  0  0  0  0  0
   -9.2093  -31.9505    0.0000 C   0  0  0  0  0  0  0  0  0  0  0  0
   -7.9216  -32.7199    0.0000 C   0  0  0  0  0  0  0  0  0  0  0  0
   -6.5702  -33.3707    0.0000 C   0  0  0  0  0  0  0  0  0  0  0  0
   -5.1658  -33.8978    0.0000 C   0  0  0  0  0  0  0  0  0  0  0  0
   -3.7199  -34.2968    0.0000 C   0  0  0  0  0  0  0  0  0  0  0  0
   -2.2440  -34.5647    0.0000 C   0  0  0  0  0  0  0  0  0  0  0  0
   -0.7500  -34.6991    0.0000 C   0  0  0  0  0  0  0  0  0  0  0  0
    0.7500  -34.6991    0.0000 C   0  0  0  0  0  0  0  0  0  0  0  0
    2.2440  -34.5647    0.0000 C   0  0  0  0  0  0  0  0  0  0  0  0
    3.7199  -34.2968    0.0000 C   0  0  0  0  0  0  0  0  0  0  0  0
    5.1658  -33.8978    0.0000 C   0  0  0  0  0  0  0  0  0  0  0  0
    6.5702  -33.3707    0.0000 C   0  0  0  0  0  0  0  0  0  0  0  0
    7.9216  -32.7199    0.0000 C   0  0  0  0  0  0  0  0  0  0  0  0
    9.2093  -31.9505    0.0000 C   0  0  0  0  0  0  0  0  0  0  0  0
   10.4228  -31.0689    0.0000 C   0  0  0  0  0  0  0  0  0  0  0  0
   11.5524  -30.0820    0.0000 C   0  0  0  0  0  0  0  0  0  0  0  0
   12.5890  -28.9978    0.0000 C   0  0  0  0  0  0  0  0  0  0  0  0
   13.5242  -27.8250    0.0000 C   0  0  0  0  0  0  0  0  0  0  0  0
   14.3506  -26.5732    0.0000 C   0  0  0  0  0  0  0  0  0  0  0  0
   15.0614  -25.2523    0.0000 C   0  0  0  0  0  0  0  0  0  0  0  0
   15.6509  -23.8730    0.0000 C   0  0  0  0  0  0  0  0  0  0  0  0
   16.1145  -22.4464    0.0000 C   0  0  0  0  0  0  0  0  0  0  0  0
   16.4482  -20.9840    0.0000 C   0  0  0  0  0  0  0  0  0  0  0  0
   16.6496  -19.4976    0.0000 C   0  0  0  0  0  0  0  0  0  0  0  0
   16.7169  -17.9991    0.0000 C   0  0  0  0  0  0  0  0  0  0  0  0
   16.6496  -16.5006    0.0000 C   0  0  0  0  0  0  0  0  0  0  0  0
   16.4482  -15.0142    0.0000 C   0  0  0  0  0  0  0  0  0  0  0  0
   16.1145  -13.5518    0.0000 C   0  0  0  0  0  0  0  0  0  0  0  0
   15.6509  -12.1252    0.0000 C   0  0  0  0  0  0  0  0  0  0  0  0
   15.0614  -10.7459    0.0000 C   0  0  0  0  0  0  0  0  0  0  0  0
   14.3506   -9.4250    0.0000 C   0  0  0  0  0  0  0  0  0  0  0  0
   13.5242   -8.1731    0.0000 C   0  0  0  0  0  0  0  0  0  0  0  0
   12.5890   -7.0004    0.0000 C   0  0  0  0  0  0  0  0  0  0  0  0
   11.5524   -5.9162    0.0000 C   0  0  0  0  0  0  0  0  0  0  0  0
   10.4228   -4.9293    0.0000 C   0  0  0  0  0  0  0  0  0  0  0  0
    9.2093   -4.0476    0.0000 C   0  0  0  0  0  0  0  0  0  0  0  0
    7.9216   -3.2783    0.0000 C   0  0  0  0  0  0  0  0  0  0  0  0
    6.5702   -2.6274    0.0000 C   0  0  0  0  0  0  0  0  0  0  0  0
    5.1658   -2.1004    0.0000 C   0  0  0  0  0  0  0  0  0  0  0  0
    3.7199   -1.7013    0.0000 C   0  0  0  0  0  0  0  0  0  0  0  0
    3.9212   -3.1878    0.0000 C   0  0  0  0  0  0  0  0  0  0  0  0
    2.5698   -3.8386    0.0000 C   0  0  0  0  0  0  0  0  0  0  0  0
    1.5332   -2.7544    0.0000 C   0  0  0  0  0  0  0  0  0  0  0  0
    2.2440   -1.4335    0.0000 C   0  0  0  0  0  0  0  0  0  0  0  0
    0.7500   -1.2990    0.0000 C   0  0  0  0  0  0  0  0  0  0  0  0
    1.5000    0.0000    0.0000 C   0  0  0  0  0  0  0  0  0  0  0  0
    0.7500    1.2990    0.0000 C   0  0  0  0  0  0  0  0  0  0  0  0
   -0.7500    1.2990    0.0000 C   0  0  0  0  0  0  0  0  0  0  0  0
   -1.5000    0.0000    0.0000 C   0  0  0  0  0  0  0  0  0  0  0  0
   -0.7500   -1.2990    0.0000 C   0  0  0  0  0  0  0  0  0  0  0  0
  1  2  1  0
  2  3  1  0
  3  4  1  0
  4  5  1  0
  5  6  1  0
  6  7  1  0
  7  8  1  0
  8  9  1  0
  9 10  1  0
 10 11  1  0
 11 12  1  0
 12 13  1  0
 13 14  1  0
 14 15  1  0
 15 16  1  0
 16 17  1  0
 17 18  1  0
 18 19  1  0
 19 20  1  0
 20 21  1  0
 21 22  1  0
 22 23  1  0
 23 24  1  0
 24 25  1  0
 25 26  1  0
 26 27  1  0
 27 28  1  0
 28 29  1  0
 29 30  1  0
 30 31  1  0
 31 32  1  0
 32 33  1  0
 33 34  1  0
 34 35  1  0
 35 36  1  0
 36 37  1  0
 37 38  1  0
 38 39  1  0
 39 40  1  0
 40 41  1  0
 41 42  1  0
 42 43  1  0
 43 44  1  0
 44 45  1  0
 45 46  1  0
 46 47  1  0
 47 48  1  0
 48 49  1  0
 49 50  1  0
 50 51  1  0
 51 52  1  0
 52 53  1  0
 53 54  1  0
 54 55  1  0
 55 56  2  0
 56 57  1  0
 57 58  2  0
 58 59  1  0
 59 60  2  0
 60 61  1  0
 61 62  2  0
 62 63  1  0
 63 64  2  0
 64 65  1  0
 65 66  2  0
 66 67  1  0
 67 68  2  0
 68 69  1  0
 69 70  2  0
 70 71  1  0
 71 72  2  0
 72 73  1  0
 73 74  2  0
 74 75  1  0
 75 76  2  0
 76 77  1  0
 77 78  2  0
 78  2  1  0
 72 68  1  0
 78 73  1  0
M  END
>  <Title>  (179) 
idAAEYgen13

$$$$

     RDKit          2D

 16 18  0  0  0  0  0  0  0  0999 V2000
   -3.2595   -3.4715    0.0000 C   0  0  0  0  0  0  0  0  0  0  0  0
   -1.8107   -3.8597    0.0000 C   0  0  0  0  0  0  0  0  0  0  0  0
   -1.4224   -5.3086    0.0000 O   0  0  0  0  0  0  0  0  0  0  0  0
   -0.7500   -2.7990    0.0000 N   0  0  0  0  0  0  0  0  0  0  0  0
    0.7500   -2.7990    0.0000 C   0  0  0  0  0  0  0  0  0  0  0  0
    0.7500   -1.2990    0.0000 C   0  0  0  0  0  0  0  0  0  0  0  0
    1.5000    0.0000    0.0000 C   0  0  0  0  0  0  0  0  0  0  0  0
    0.7500    1.2990    0.0000 C   0  0  0  0  0  0  0  0  0  0  0  0
   -0.7500    1.2990    0.0000 C   0  0  0  0  0  0  0  0  0  0  0  0
   -1.5000    2.5981    0.0000 C   0  0  0  0  0  0  0  0  0  0  0  0
   -0.7500    3.8971    0.0000 N   0  0  0  0  0  0  0  0  0  0  0  0
    0.6989    4.2853    0.0000 C   0  0  0  0  0  0  0  0  0  0  0  0
    0.3107    5.7342    0.0000 C   0  0  0  0  0  0  0  0  0  0  0  0
   -1.1382    5.3460    0.0000 C   0  0  0  0  0  0  0  0  0  0  0  0
   -1.5000    0.0000    0.0000 C   0  0  0  0  0  0  0  0  0  0  0  0
   -0.7500   -1.2990    0.0000 C   0  0  0  0  0  0  0  0  0  0  0  0
  1  2  1  0
  2  3  2  0
  2  4  1  0
  4  5  1  0
  5  6  1  0
  6  7  1  0
  7  8  1  0
  8  9  1  0
  9 10  1  0
 10 11  1  0
 11 12  1  0
 12 13  1  0
 13 14  1  0
  9 15  1  0
 15 16  1  0
 16  4  1  0
 16  6  1  0
 14 11  1  0
M  END
>  <Title>  (180) 
idAAEZgen13

$$$$

     RDKit          2D

 16 15  0  0  0  0  0  0  0  0999 V2000
    0.0000    0.0000    0.0000 C   0  0  0  0  0  0  0  0  0  0  0  0
    1.2990    0.7500    0.0000 C   0  0  0  0  0  0  0  0  0  0  0  0
    2.5981   -0.0000    0.0000 C   0  0  0  0  0  0  0  0  0  0  0  0
    3.8971    0.7500    0.0000 C   0  0  0  0  0  0  0  0  0  0  0  0
    5.1962   -0.0000    0.0000 N   0  0  0  0  0  0  0  0  0  0  0  0
    6.4952    0.7500    0.0000 C   0  0  0  0  0  0  0  0  0  0  0  0
    6.4952    2.2500    0.0000 O   0  0  0  0  0  0  0  0  0  0  0  0
    7.7942   -0.0000    0.0000 N   0  0  0  0  0  0  0  0  0  0  0  0
    9.0933    0.7500    0.0000 C   0  0  0  0  0  0  0  0  0  0  0  0
   10.3923   -0.0000    0.0000 C   0  0  0  0  0  0  0  0  0  0  0  0
    9.0933    2.2500    0.0000 N   0  0  0  0  0  0  0  0  0  0  0  0
   10.3923    3.0000    0.0000 C   0  0  0  0  0  0  0  0  0  0  0  0
   11.6913    2.2500    0.0000 O   0  0  0  0  0  0  0  0  0  0  0  0
   10.3923    4.5000    0.0000 C   0  0  0  0  0  0  0  0  0  0  0  0
   11.6913    5.2500    0.0000 C   0  0  0  0  0  0  0  0  0  0  0  0
   11.6913    6.7500    0.0000 C   0  0  0  0  0  0  0  0  0  0  0  0
  1  2  2  0
  2  3  1  0
  3  4  1  0
  4  5  1  0
  5  6  1  0
  6  7  2  0
  6  8  1  0
  8  9  1  0
  9 10  1  0
  9 11  1  0
 11 12  1  0
 12 13  2  0
 12 14  1  0
 14 15  1  0
 15 16  1  0
M  END
>  <Title>  (181) 
idAAFAgen13

$$$$

     RDKit          2D

 18 20  0  0  0  0  0  0  0  0999 V2000
   -4.7084   -3.0832    0.0000 C   0  0  0  0  0  0  0  0  0  0  0  0
   -3.2595   -3.4715    0.0000 C   0  0  0  0  0  0  0  0  0  0  0  0
   -1.8107   -3.8597    0.0000 C   0  0  0  0  0  0  0  0  0  0  0  0
   -1.4224   -5.3086    0.0000 O   0  0  0  0  0  0  0  0  0  0  0  0
   -0.7500   -2.7990    0.0000 N   0  0  0  0  0  0  0  0  0  0  0  0
    0.7500   -2.7990    0.0000 C   0  0  0  0  0  0  0  0  0  0  0  0
    0.7500   -1.2990    0.0000 C   0  0  0  0  0  0  0  0  0  0  0  0
    1.5000    0.0000    0.0000 C   0  0  0  0  0  0  0  0  0  0  0  0
    0.7500    1.2990    0.0000 C   0  0  0  0  0  0  0  0  0  0  0  0
   -0.7500    1.2990    0.0000 C   0  0  0  0  0  0  0  0  0  0  0  0
   -1.5000    2.5981    0.0000 C   0  0  0  0  0  0  0  0  0  0  0  0
   -0.7500    3.8971    0.0000 N   0  0  0  0  0  0  0  0  0  0  0  0
   -1.3601    5.2674    0.0000 C   0  0  0  0  0  0  0  0  0  0  0  0
   -0.2454    6.2711    0.0000 C   0  0  0  0  0  0  0  0  0  0  0  0
    1.0537    5.5211    0.0000 C   0  0  0  0  0  0  0  0  0  0  0  0
    0.7418    4.0539    0.0000 C   0  0  0  0  0  0  0  0  0  0  0  0
   -1.5000    0.0000    0.0000 C   0  0  0  0  0  0  0  0  0  0  0  0
   -0.7500   -1.2990    0.0000 C   0  0  0  0  0  0  0  0  0  0  0  0
  1  2  3  0
  2  3  1  0
  3  4  2  0
  3  5  1  0
  5  6  1  0
  6  7  1  0
  7  8  2  0
  8  9  1  0
  9 10  2  0
 10 11  1  0
 11 12  1  0
 12 13  1  0
 13 14  1  0
 14 15  1  0
 15 16  1  0
 10 17  1  0
 17 18  1  0
 18  5  1  0
 18  7  1  0
 16 12  1  0
M  END
>  <Title>  (182) 
idAAFBgen13

$$$$

     RDKit          2D

 11 12  0  0  0  0  0  0  0  0999 V2000
    2.0046   -4.9721    0.0000 C   0  0  0  0  0  0  0  0  0  0  0  0
    3.3037   -4.2221    0.0000 C   0  0  0  0  0  0  0  0  0  0  0  0
    2.9918   -2.7549    0.0000 C   0  0  0  0  0  0  0  0  0  0  0  0
    1.5000   -2.5981    0.0000 C   0  0  0  0  0  0  0  0  0  0  0  0
    0.7500   -1.2990    0.0000 N   0  0  0  0  0  0  0  0  0  0  0  0
    1.5000    0.0000    0.0000 C   0  0  0  0  0  0  0  0  0  0  0  0
    0.7500    1.2990    0.0000 C   0  0  0  0  0  0  0  0  0  0  0  0
   -0.7500    1.2990    0.0000 C   0  0  0  0  0  0  0  0  0  0  0  0
   -1.5000    0.0000    0.0000 N   0  0  0  0  0  0  0  0  0  0  0  0
   -0.7500   -1.2990    0.0000 N   0  0  0  0  0  0  0  0  0  0  0  0
    0.8899   -3.9684    0.0000 C   0  0  0  0  0  0  0  0  0  0  0  0
  1  2  2  0
  2  3  1  0
  3  4  1  0
  4  5  1  0
  5  6  1  0
  6  7  1  0
  7  8  2  0
  8  9  1  0
  9 10  2  0
  4 11  2  0
 11  1  1  0
 10  5  1  0
M  END
>  <Title>  (183) 
idAAFCgen13

$$$$

     RDKit          2D

 10 11  0  0  0  0  0  0  0  0999 V2000
    4.2990   -3.3481    0.0000 C   0  0  0  0  0  0  0  0  0  0  0  0
    2.7990   -3.3481    0.0000 C   0  0  0  0  0  0  0  0  0  0  0  0
    1.5000   -2.5981    0.0000 C   0  0  0  0  0  0  0  0  0  0  0  0
    0.7500   -1.2990    0.0000 N   0  0  0  0  0  0  0  0  0  0  0  0
    1.5000    0.0000    0.0000 C   0  0  0  0  0  0  0  0  0  0  0  0
    0.7500    1.2990    0.0000 C   0  0  0  0  0  0  0  0  0  0  0  0
   -0.7500    1.2990    0.0000 N   0  0  0  0  0  0  0  0  0  0  0  0
   -1.5000    0.0000    0.0000 N   0  0  0  0  0  0  0  0  0  0  0  0
   -0.7500   -1.2990    0.0000 N   0  0  0  0  0  0  0  0  0  0  0  0
    1.5000   -4.0981    0.0000 C   0  0  0  0  0  0  0  0  0  0  0  0
  1  2  1  0
  2  3  2  0
  3  4  1  0
  4  5  1  0
  5  6  1  0
  6  7  2  0
  7  8  1  0
  8  9  2  0
  3 10  1  0
 10  2  1  0
  9  4  1  0
M  END
>  <Title>  (184) 
idAAFDgen13

$$$$

     RDKit          2D

 36 40  0  0  0  0  0  0  0  0999 V2000
   -3.0000   -2.5981    0.0000 C   0  0  0  0  0  0  0  0  0  0  0  0
   -1.5000   -2.5981    0.0000 C   0  0  0  0  0  0  0  0  0  0  0  0
   -0.7500   -3.8971    0.0000 C   0  0  0  0  0  0  0  0  0  0  0  0
    0.7500   -3.8971    0.0000 C   0  0  0  0  0  0  0  0  0  0  0  0
    1.5000   -2.5981    0.0000 C   0  0  0  0  0  0  0  0  0  0  0  0
    3.0000   -2.5981    0.0000 C   0  0  0  0  0  0  0  0  0  0  0  0
    3.7500   -1.2990    0.0000 O   0  0  0  0  0  0  0  0  0  0  0  0
    3.7500   -3.8971    0.0000 N   0  0  0  0  0  0  0  0  0  0  0  0
    5.2500   -3.8971    0.0000 C   0  0  0  0  0  0  0  0  0  0  0  0
    6.1317   -2.6836    0.0000 N   0  0  0  0  0  0  0  0  0  0  0  0
    7.5583   -3.1471    0.0000 N   0  0  0  0  0  0  0  0  0  0  0  0
    7.5583   -4.6471    0.0000 N   0  0  0  0  0  0  0  0  0  0  0  0
    6.1317   -5.1106    0.0000 N   0  0  0  0  0  0  0  0  0  0  0  0
    5.6682   -6.5372    0.0000 N   0  0  0  0  0  0  0  0  0  0  0  0
    6.5498   -7.7508    0.0000 C   0  0  0  0  0  0  0  0  0  0  0  0
    5.6682   -8.9643    0.0000 C   0  0  0  0  0  0  0  0  0  0  0  0
    4.2416   -8.5008    0.0000 N   0  0  0  0  0  0  0  0  0  0  0  0
    3.0280   -9.3824    0.0000 C   0  0  0  0  0  0  0  0  0  0  0  0
    3.1848  -10.8742    0.0000 O   0  0  0  0  0  0  0  0  0  0  0  0
    1.6577   -8.7723    0.0000 N   0  0  0  0  0  0  0  0  0  0  0  0
    0.4442   -9.6540    0.0000 C   0  0  0  0  0  0  0  0  0  0  0  0
   -0.9261   -9.0439    0.0000 N   0  0  0  0  0  0  0  0  0  0  0  0
   -2.1396   -9.9256    0.0000 N   0  0  0  0  0  0  0  0  0  0  0  0
   -1.9829  -11.4174    0.0000 N   0  0  0  0  0  0  0  0  0  0  0  0
   -0.6125  -12.0275    0.0000 N   0  0  0  0  0  0  0  0  0  0  0  0
    0.6010  -11.1458    0.0000 N   0  0  0  0  0  0  0  0  0  0  0  0
    4.2416   -7.0008    0.0000 C   0  0  0  0  0  0  0  0  0  0  0  0
    3.0280   -6.1191    0.0000 O   0  0  0  0  0  0  0  0  0  0  0  0
    0.7500   -1.2990    0.0000 C   0  0  0  0  0  0  0  0  0  0  0  0
    1.5000    0.0000    0.0000 C   0  0  0  0  0  0  0  0  0  0  0  0
    0.7500    1.2990    0.0000 C   0  0  0  0  0  0  0  0  0  0  0  0
   -0.7500    1.2990    0.0000 C   0  0  0  0  0  0  0  0  0  0  0  0
   -1.5000    2.5981    0.0000 C   0  0  0  0  0  0  0  0  0  0  0  0
   -2.2500    3.8971    0.0000 N   0  0  0  0  0  0  0  0  0  0  0  0
   -1.5000    0.0000    0.0000 C   0  0  0  0  0  0  0  0  0  0  0  0
   -0.7500   -1.2990    0.0000 C   0  0  0  0  0  0  0  0  0  0  0  0
  1  2  1  0
  2  3  1  0
  3  4  2  0
  4  5  1  0
  5  6  1  0
  6  7  2  0
  6  8  1  0
  8  9  1  0
  9 10  2  0
 10 11  1  0
 11 12  2  0
 12 13  1  0
 13 14  1  0
 14 15  1  0
 15 16  1  0
 16 17  1  0
 17 18  1  0
 18 19  2  0
 18 20  1  0
 20 21  1  0
 21 22  2  0
 22 23  1  0
 23 24  2  0
 24 25  1  0
 25 26  2  0
 17 27  1  0
 27 28  2  0
  5 29  1  0
 29 30  2  0
 30 31  1  0
 31 32  2  0
 32 33  1  0
 33 34  3  0
 32 35  1  0
 35 36  2  0
 36  2  1  0
 13  9  1  0
 27 14  1  0
 36 29  1  0
 26 21  1  0
M  END
>  <Title>  (185) 
idAAFEgen13

$$$$

     RDKit          2D

 15 15  0  0  0  0  0  0  0  0999 V2000
   14.2500   -1.2990    0.0000 C   0  0  0  0  0  0  0  0  0  0  0  0
   12.7500   -1.2990    0.0000 C   0  0  0  0  0  0  0  0  0  0  0  0
   12.0000    0.0000    0.0000 C   0  0  0  0  0  0  0  0  0  0  0  0
   10.5000    0.0000    0.0000 C   0  0  0  0  0  0  0  0  0  0  0  0
    9.0000    0.0000    0.0000 C   0  0  0  0  0  0  0  0  0  0  0  0
    7.5000    0.0000    0.0000 C   0  0  0  0  0  0  0  0  0  0  0  0
    6.0000    0.0000    0.0000 C   0  0  0  0  0  0  0  0  0  0  0  0
    4.5000    0.0000    0.0000 C   0  0  0  0  0  0  0  0  0  0  0  0
    3.0000    0.0000    0.0000 C   0  0  0  0  0  0  0  0  0  0  0  0
    1.5000    0.0000    0.0000 C   0  0  0  0  0  0  0  0  0  0  0  0
    0.7500   -1.2990    0.0000 C   0  0  0  0  0  0  0  0  0  0  0  0
   -0.7500   -1.2990    0.0000 C   0  0  0  0  0  0  0  0  0  0  0  0
   -1.5000    0.0000    0.0000 C   0  0  0  0  0  0  0  0  0  0  0  0
   -0.7500    1.2990    0.0000 C   0  0  0  0  0  0  0  0  0  0  0  0
    0.7500    1.2990    0.0000 C   0  0  0  0  0  0  0  0  0  0  0  0
  1  2  2  0
  2  3  1  0
  3  4  1  0
  4  5  3  0
  5  6  1  0
  6  7  3  0
  7  8  1  0
  8  9  3  0
  9 10  1  0
 10 11  2  0
 11 12  1  0
 12 13  2  0
 13 14  1  0
 14 15  2  0
 15 10  1  0
M  END
>  <Title>  (186) 
idAAFFgen13

$$$$

     RDKit          2D

 30 34  0  0  0  0  0  0  0  0999 V2000
   -3.0000   -2.5981    0.0000 C   0  0  0  0  0  0  0  0  0  0  0  0
   -1.5000   -2.5981    0.0000 C   0  0  0  0  0  0  0  0  0  0  0  0
   -0.7500   -3.8971    0.0000 C   0  0  0  0  0  0  0  0  0  0  0  0
    0.7500   -3.8971    0.0000 C   0  0  0  0  0  0  0  0  0  0  0  0
    1.5000   -2.5981    0.0000 C   0  0  0  0  0  0  0  0  0  0  0  0
    3.0000   -2.5981    0.0000 N   0  0  0  0  0  0  0  0  0  0  0  0
    4.0607   -3.6587    0.0000 N   0  0  0  0  0  0  0  0  0  0  0  0
    5.1213   -2.5981    0.0000 N   0  0  0  0  0  0  0  0  0  0  0  0
    4.0607   -1.5374    0.0000 N   0  0  0  0  0  0  0  0  0  0  0  0
    4.0607   -0.0374    0.0000 N   0  0  0  0  0  0  0  0  0  0  0  0
    2.8471    0.8443    0.0000 C   0  0  0  0  0  0  0  0  0  0  0  0
    3.3107    2.2708    0.0000 C   0  0  0  0  0  0  0  0  0  0  0  0
    4.8107    2.2708    0.0000 C   0  0  0  0  0  0  0  0  0  0  0  0
    5.6923    3.4844    0.0000 C   0  0  0  0  0  0  0  0  0  0  0  0
    5.0822    4.8547    0.0000 O   0  0  0  0  0  0  0  0  0  0  0  0
    7.1841    3.3276    0.0000 N   0  0  0  0  0  0  0  0  0  0  0  0
    8.0658    4.5411    0.0000 C   0  0  0  0  0  0  0  0  0  0  0  0
    9.5576    4.3843    0.0000 N   0  0  0  0  0  0  0  0  0  0  0  0
   10.4393    5.5978    0.0000 N   0  0  0  0  0  0  0  0  0  0  0  0
    9.8292    6.9682    0.0000 N   0  0  0  0  0  0  0  0  0  0  0  0
    8.3374    7.1249    0.0000 N   0  0  0  0  0  0  0  0  0  0  0  0
    7.4557    5.9114    0.0000 N   0  0  0  0  0  0  0  0  0  0  0  0
    5.2742    0.8443    0.0000 C   0  0  0  0  0  0  0  0  0  0  0  0
    6.7008    0.3807    0.0000 O   0  0  0  0  0  0  0  0  0  0  0  0
    0.7500   -1.2990    0.0000 C   0  0  0  0  0  0  0  0  0  0  0  0
    1.5000    0.0000    0.0000 C   0  0  0  0  0  0  0  0  0  0  0  0
    0.7500    1.2990    0.0000 C   0  0  0  0  0  0  0  0  0  0  0  0
   -0.7500    1.2990    0.0000 C   0  0  0  0  0  0  0  0  0  0  0  0
   -1.5000    0.0000    0.0000 C   0  0  0  0  0  0  0  0  0  0  0  0
   -0.7500   -1.2990    0.0000 C   0  0  0  0  0  0  0  0  0  0  0  0
  1  2  1  0
  2  3  2  0
  3  4  1  0
  4  5  2  0
  5  6  1  0
  6  7  1  0
  7  8  2  0
  8  9  1  0
  9 10  1  0
 10 11  1  0
 11 12  1  0
 12 13  1  0
 13 14  1  0
 14 15  2  0
 14 16  1  0
 16 17  1  0
 17 18  2  0
 18 19  1  0
 19 20  2  0
 20 21  1  0
 21 22  2  0
 13 23  1  0
 23 24  2  0
  5 25  1  0
 25 26  2  0
 26 27  1  0
 27 28  2  0
 28 29  1  0
 29 30  2  0
 30  2  1  0
  9  6  1  0
 23 10  1  0
 30 25  1  0
 22 17  1  0
M  END
>  <Title>  (187) 
idAAFGgen13

$$$$

     RDKit          2D

 11 11  0  0  0  0  0  0  0  0999 V2000
    3.2286   -0.0000    0.0000 C   0  0  0  0  0  0  0  0  0  0  0  0
    1.7286    0.0000    0.0000 C   0  0  0  0  0  0  0  0  0  0  0  0
    1.0777    1.3515    0.0000 C   0  0  0  0  0  0  0  0  0  0  0  0
   -0.3846    1.6852    0.0000 C   0  0  0  0  0  0  0  0  0  0  0  0
   -0.7184    3.1476    0.0000 C   0  0  0  0  0  0  0  0  0  0  0  0
   -2.1518    3.5898    0.0000 O   0  0  0  0  0  0  0  0  0  0  0  0
    0.3812    4.1679    0.0000 O   0  0  0  0  0  0  0  0  0  0  0  0
   -1.5574    0.7500    0.0000 C   0  0  0  0  0  0  0  0  0  0  0  0
   -1.5574   -0.7500    0.0000 C   0  0  0  0  0  0  0  0  0  0  0  0
   -0.3846   -1.6852    0.0000 C   0  0  0  0  0  0  0  0  0  0  0  0
    1.0777   -1.3515    0.0000 C   0  0  0  0  0  0  0  0  0  0  0  0
  1  2  1  0
  2  3  1  0
  3  4  2  0
  4  5  1  0
  5  6  2  0
  5  7  1  0
  4  8  1  0
  8  9  1  0
  9 10  1  0
 10 11  1  0
 11  2  1  0
M  END
>  <Title>  (188) 
idAAFHgen13

$$$$

     RDKit          2D

 89 91  0  0  0  0  0  0  0  0999 V2000
    6.8745    7.7108    0.0000 C   0  0  0  0  0  0  0  0  0  0  0  0
    8.3463    7.4216    0.0000 C   0  0  0  0  0  0  0  0  0  0  0  0
    8.7293    8.8718    0.0000 C   0  0  0  0  0  0  0  0  0  0  0  0
    9.2946   10.2612    0.0000 C   0  0  0  0  0  0  0  0  0  0  0  0
   10.0329   11.5669    0.0000 C   0  0  0  0  0  0  0  0  0  0  0  0
   10.9322   12.7675    0.0000 C   0  0  0  0  0  0  0  0  0  0  0  0
   11.9776   13.8432    0.0000 C   0  0  0  0  0  0  0  0  0  0  0  0
   13.1519   14.7764    0.0000 C   0  0  0  0  0  0  0  0  0  0  0  0
   14.4360   15.5518    0.0000 C   0  0  0  0  0  0  0  0  0  0  0  0
   15.8087   16.1566    0.0000 C   0  0  0  0  0  0  0  0  0  0  0  0
   17.2474   16.5809    0.0000 C   0  0  0  0  0  0  0  0  0  0  0  0
   18.7286   16.8177    0.0000 C   0  0  0  0  0  0  0  0  0  0  0  0
   20.2279   16.8632    0.0000 C   0  0  0  0  0  0  0  0  0  0  0  0
   21.7207   16.7166    0.0000 C   0  0  0  0  0  0  0  0  0  0  0  0
   23.1825   16.3803    0.0000 C   0  0  0  0  0  0  0  0  0  0  0  0
   24.5893   15.8598    0.0000 C   0  0  0  0  0  0  0  0  0  0  0  0
   25.9180   15.1637    0.0000 C   0  0  0  0  0  0  0  0  0  0  0  0
   27.1468   14.3034    0.0000 C   0  0  0  0  0  0  0  0  0  0  0  0
   28.2555   13.2930    0.0000 C   0  0  0  0  0  0  0  0  0  0  0  0
   29.2258   12.1491    0.0000 C   0  0  0  0  0  0  0  0  0  0  0  0
   30.0420   10.8906    0.0000 C   0  0  0  0  0  0  0  0  0  0  0  0
   30.6904    9.5380    0.0000 C   0  0  0  0  0  0  0  0  0  0  0  0
   31.1606    8.1136    0.0000 C   0  0  0  0  0  0  0  0  0  0  0  0
   31.4448    6.6408    0.0000 C   0  0  0  0  0  0  0  0  0  0  0  0
   31.5383    5.1437    0.0000 C   0  0  0  0  0  0  0  0  0  0  0  0
   31.4396    3.6469    0.0000 C   0  0  0  0  0  0  0  0  0  0  0  0
   31.1503    2.1751    0.0000 C   0  0  0  0  0  0  0  0  0  0  0  0
   30.6752    0.7523    0.0000 C   0  0  0  0  0  0  0  0  0  0  0  0
   30.0221   -0.5980    0.0000 C   0  0  0  0  0  0  0  0  0  0  0  0
   29.2016   -1.8537    0.0000 C   0  0  0  0  0  0  0  0  0  0  0  0
   28.2273   -2.9942    0.0000 C   0  0  0  0  0  0  0  0  0  0  0  0
   27.1151   -4.0007    0.0000 C   0  0  0  0  0  0  0  0  0  0  0  0
   25.8833   -4.8568    0.0000 C   0  0  0  0  0  0  0  0  0  0  0  0
   24.5522   -5.5483    0.0000 C   0  0  0  0  0  0  0  0  0  0  0  0
   23.1436   -6.0639    0.0000 C   0  0  0  0  0  0  0  0  0  0  0  0
   21.6807   -6.3951    0.0000 C   0  0  0  0  0  0  0  0  0  0  0  0
   20.1874   -6.5366    0.0000 C   0  0  0  0  0  0  0  0  0  0  0  0
   18.6882   -6.4859    0.0000 C   0  0  0  0  0  0  0  0  0  0  0  0
   17.2079   -6.2439    0.0000 C   0  0  0  0  0  0  0  0  0  0  0  0
   15.7706   -5.8146    0.0000 C   0  0  0  0  0  0  0  0  0  0  0  0
   14.4000   -5.2051    0.0000 C   0  0  0  0  0  0  0  0  0  0  0  0
   13.1187   -4.4253    0.0000 C   0  0  0  0  0  0  0  0  0  0  0  0
   11.9476   -3.4880    0.0000 C   0  0  0  0  0  0  0  0  0  0  0  0
   10.9059   -2.4087    0.0000 C   0  0  0  0  0  0  0  0  0  0  0  0
   10.0108   -1.2050    0.0000 C   0  0  0  0  0  0  0  0  0  0  0  0
    9.2770    0.1032    0.0000 C   0  0  0  0  0  0  0  0  0  0  0  0
    8.7165    1.4946    0.0000 C   0  0  0  0  0  0  0  0  0  0  0  0
    8.1437   -0.0000    0.0000 C   0  0  0  0  0  0  0  0  0  0  0  0
    8.0266   -1.3763    0.0000 C   0  0  0  0  0  0  0  0  0  0  0  0
    7.6785   -2.7130    0.0000 C   0  0  0  0  0  0  0  0  0  0  0  0
    7.1096   -3.9717    0.0000 C   0  0  0  0  0  0  0  0  0  0  0  0
    6.3361   -5.1160    0.0000 C   0  0  0  0  0  0  0  0  0  0  0  0
    5.3804   -6.1133    0.0000 C   0  0  0  0  0  0  0  0  0  0  0  0
    4.2698   -6.9346    0.0000 C   0  0  0  0  0  0  0  0  0  0  0  0
    3.0364   -7.5565    0.0000 C   0  0  0  0  0  0  0  0  0  0  0  0
    1.7157   -7.9609    0.0000 C   0  0  0  0  0  0  0  0  0  0  0  0
    0.3456   -8.1364    0.0000 C   0  0  0  0  0  0  0  0  0  0  0  0
   -1.0344   -8.0778    0.0000 C   0  0  0  0  0  0  0  0  0  0  0  0
   -2.3847   -7.7868    0.0000 C   0  0  0  0  0  0  0  0  0  0  0  0
   -3.6663   -7.2717    0.0000 C   0  0  0  0  0  0  0  0  0  0  0  0
   -4.8425   -6.5475    0.0000 C   0  0  0  0  0  0  0  0  0  0  0  0
   -5.8794   -5.6350    0.0000 C   0  0  0  0  0  0  0  0  0  0  0  0
   -6.7472   -4.5603    0.0000 C   0  0  0  0  0  0  0  0  0  0  0  0
   -7.4208   -3.3544    0.0000 C   0  0  0  0  0  0  0  0  0  0  0  0
   -7.8809   -2.0520    0.0000 C   0  0  0  0  0  0  0  0  0  0  0  0
   -8.1144   -0.6906    0.0000 C   0  0  0  0  0  0  0  0  0  0  0  0
   -8.1144    0.6906    0.0000 C   0  0  0  0  0  0  0  0  0  0  0  0
   -7.8809    2.0520    0.0000 C   0  0  0  0  0  0  0  0  0  0  0  0
   -7.4208    3.3544    0.0000 C   0  0  0  0  0  0  0  0  0  0  0  0
   -6.7472    4.5603    0.0000 C   0  0  0  0  0  0  0  0  0  0  0  0
   -5.8794    5.6350    0.0000 C   0  0  0  0  0  0  0  0  0  0  0  0
   -4.8425    6.5475    0.0000 C   0  0  0  0  0  0  0  0  0  0  0  0
   -3.6663    7.2717    0.0000 C   0  0  0  0  0  0  0  0  0  0  0  0
   -2.3847    7.7868    0.0000 C   0  0  0  0  0  0  0  0  0  0  0  0
   -1.0344    8.0778    0.0000 C   0  0  0  0  0  0  0  0  0  0  0  0
    0.3456    8.1364    0.0000 C   0  0  0  0  0  0  0  0  0  0  0  0
    1.7157    7.9609    0.0000 C   0  0  0  0  0  0  0  0  0  0  0  0
    3.0364    7.5565    0.0000 C   0  0  0  0  0  0  0  0  0  0  0  0
    4.2698    6.9346    0.0000 C   0  0  0  0  0  0  0  0  0  0  0  0
    5.3804    6.1133    0.0000 C   0  0  0  0  0  0  0  0  0  0  0  0
    6.3361    5.1160    0.0000 C   0  0  0  0  0  0  0  0  0  0  0  0
    7.1096    3.9717    0.0000 C   0  0  0  0  0  0  0  0  0  0  0  0
    8.3385    2.9462    0.0000 C   0  0  0  0  0  0  0  0  0  0  0  0
    8.1493    4.4342    0.0000 C   0  0  0  0  0  0  0  0  0  0  0  0
    9.4470    3.6820    0.0000 C   0  0  0  0  0  0  0  0  0  0  0  0
   10.7474    4.4297    0.0000 C   0  0  0  0  0  0  0  0  0  0  0  0
   10.7500    5.9297    0.0000 C   0  0  0  0  0  0  0  0  0  0  0  0
    9.4522    6.6820    0.0000 C   0  0  0  0  0  0  0  0  0  0  0  0
    8.1519    5.9342    0.0000 C   0  0  0  0  0  0  0  0  0  0  0  0
  1  2  1  0
  2  3  1  0
  3  4  1  0
  4  5  1  0
  5  6  1  0
  6  7  1  0
  7  8  1  0
  8  9  1  0
  9 10  1  0
 10 11  1  0
 11 12  1  0
 12 13  1  0
 13 14  1  0
 14 15  1  0
 15 16  1  0
 16 17  1  0
 17 18  1  0
 18 19  1  0
 19 20  1  0
 20 21  1  0
 21 22  1  0
 22 23  1  0
 23 24  1  0
 24 25  1  0
 25 26  1  0
 26 27  1  0
 27 28  1  0
 28 29  1  0
 29 30  1  0
 30 31  1  0
 31 32  1  0
 32 33  1  0
 33 34  1  0
 34 35  1  0
 35 36  1  0
 36 37  1  0
 37 38  1  0
 38 39  1  0
 39 40  1  0
 40 41  1  0
 41 42  1  0
 42 43  1  0
 43 44  1  0
 44 45  1  0
 45 46  1  0
 46 47  1  0
 47 48  1  0
 48 49  2  0
 49 50  1  0
 50 51  2  0
 51 52  1  0
 52 53  2  0
 53 54  1  0
 54 55  2  0
 55 56  1  0
 56 57  2  0
 57 58  1  0
 58 59  2  0
 59 60  1  0
 60 61  2  0
 61 62  1  0
 62 63  2  0
 63 64  1  0
 64 65  2  0
 65 66  1  0
 66 67  2  0
 67 68  1  0
 68 69  2  0
 69 70  1  0
 70 71  2  0
 71 72  1  0
 72 73  2  0
 73 74  1  0
 74 75  2  0
 75 76  1  0
 76 77  2  0
 77 78  1  0
 78 79  2  0
 79 80  1  0
 80 81  2  0
 81 82  1  0
 82 83  2  0
 83 84  1  0
 84 85  2  0
 85 86  1  0
 86 87  2  0
 87 88  1  0
 88 89  2  0
 89  2  1  0
 83 47  1  0
 89 84  1  0
M  END
>  <Title>  (189) 
idAAFIgen13

$$$$

     RDKit          2D

 12 12  0  0  0  0  0  0  0  0999 V2000
    8.0260   -3.8971    0.0000 C   0  0  0  0  0  0  0  0  0  0  0  0
    7.2760   -2.5981    0.0000 C   0  0  0  0  0  0  0  0  0  0  0  0
    5.7760   -2.5981    0.0000 C   0  0  0  0  0  0  0  0  0  0  0  0
    5.0260   -1.2990    0.0000 C   0  0  0  0  0  0  0  0  0  0  0  0
    3.5260   -1.2990    0.0000 C   0  0  0  0  0  0  0  0  0  0  0  0
    2.7760   -2.5981    0.0000 O   0  0  0  0  0  0  0  0  0  0  0  0
    2.7760    0.0000    0.0000 N   0  0  0  0  0  0  0  0  0  0  0  0
    1.2760    0.0000    0.0000 C   0  0  0  0  0  0  0  0  0  0  0  0
    0.3943    1.2135    0.0000 C   0  0  0  0  0  0  0  0  0  0  0  0
   -1.0323    0.7500    0.0000 C   0  0  0  0  0  0  0  0  0  0  0  0
   -1.0323   -0.7500    0.0000 C   0  0  0  0  0  0  0  0  0  0  0  0
    0.3943   -1.2135    0.0000 C   0  0  0  0  0  0  0  0  0  0  0  0
  1  2  2  0
  2  3  1  0
  3  4  1  0
  4  5  1  0
  5  6  2  0
  5  7  1  0
  7  8  1  0
  8  9  2  0
  9 10  1  0
 10 11  2  0
 11 12  1  0
 12  8  1  0
M  END
>  <Title>  (190) 
idAAFJgen13

$$$$

     RDKit          2D

 20 20  0  0  0  0  0  0  0  0999 V2000
   12.2286   -5.1962    0.0000 C   0  0  0  0  0  0  0  0  0  0  0  0
   10.7286   -5.1962    0.0000 C   0  0  0  0  0  0  0  0  0  0  0  0
    9.9786   -3.8971    0.0000 C   0  0  0  0  0  0  0  0  0  0  0  0
    8.4786   -3.8971    0.0000 C   0  0  0  0  0  0  0  0  0  0  0  0
    7.7286   -2.5981    0.0000 N   0  0  0  0  0  0  0  0  0  0  0  0
    6.2286   -2.5981    0.0000 C   0  0  0  0  0  0  0  0  0  0  0  0
    5.4786   -3.8971    0.0000 O   0  0  0  0  0  0  0  0  0  0  0  0
    5.4786   -1.2990    0.0000 N   0  0  0  0  0  0  0  0  0  0  0  0
    3.9786   -1.2990    0.0000 C   0  0  0  0  0  0  0  0  0  0  0  0
    3.2286   -0.0000    0.0000 C   0  0  0  0  0  0  0  0  0  0  0  0
    1.7286    0.0000    0.0000 C   0  0  0  0  0  0  0  0  0  0  0  0
    1.0777    1.3515    0.0000 C   0  0  0  0  0  0  0  0  0  0  0  0
   -0.3846    1.6852    0.0000 C   0  0  0  0  0  0  0  0  0  0  0  0
   -1.5574    0.7500    0.0000 C   0  0  0  0  0  0  0  0  0  0  0  0
   -2.9088    1.4008    0.0000 C   0  0  0  0  0  0  0  0  0  0  0  0
   -3.0209    2.8966    0.0000 C   0  0  0  0  0  0  0  0  0  0  0  0
   -4.1482    0.5558    0.0000 O   0  0  0  0  0  0  0  0  0  0  0  0
   -1.5574   -0.7500    0.0000 C   0  0  0  0  0  0  0  0  0  0  0  0
   -0.3846   -1.6852    0.0000 C   0  0  0  0  0  0  0  0  0  0  0  0
    1.0777   -1.3515    0.0000 C   0  0  0  0  0  0  0  0  0  0  0  0
  1  2  2  0
  2  3  1  0
  3  4  1  0
  4  5  1  0
  5  6  1  0
  6  7  2  0
  6  8  1  0
  8  9  1  0
  9 10  1  0
 10 11  1  0
 11 12  2  0
 12 13  1  0
 13 14  2  0
 14 15  1  0
 15 16  1  0
 15 17  2  0
 14 18  1  0
 18 19  1  0
 19 20  1  0
 20 11  1  0
M  END
>  <Title>  (191) 
idAAFKgen13

$$$$

     RDKit          2D

 14 15  0  0  0  0  0  0  0  0999 V2000
   -8.0214    2.5856    0.0000 C   0  0  0  0  0  0  0  0  0  0  0  0
   -6.6848    1.9046    0.0000 C   0  0  0  0  0  0  0  0  0  0  0  0
   -5.4268    2.7216    0.0000 C   0  0  0  0  0  0  0  0  0  0  0  0
   -4.0903    2.0406    0.0000 C   0  0  0  0  0  0  0  0  0  0  0  0
   -2.8323    2.8576    0.0000 C   0  0  0  0  0  0  0  0  0  0  0  0
   -2.9108    4.3555    0.0000 C   0  0  0  0  0  0  0  0  0  0  0  0
   -1.4958    2.1766    0.0000 N   0  0  0  0  0  0  0  0  0  0  0  0
   -0.0692    2.6401    0.0000 C   0  0  0  0  0  0  0  0  0  0  0  0
    0.3943    1.2135    0.0000 C   0  0  0  0  0  0  0  0  0  0  0  0
    1.2760    0.0000    0.0000 C   0  0  0  0  0  0  0  0  0  0  0  0
    0.3943   -1.2135    0.0000 C   0  0  0  0  0  0  0  0  0  0  0  0
   -1.0323   -0.7500    0.0000 C   0  0  0  0  0  0  0  0  0  0  0  0
   -2.2458   -1.6317    0.0000 O   0  0  0  0  0  0  0  0  0  0  0  0
   -1.0323    0.7500    0.0000 C   0  0  0  0  0  0  0  0  0  0  0  0
  1  2  2  0
  2  3  1  0
  3  4  2  3
  4  5  1  0
  5  6  1  0
  5  7  1  0
  7  8  1  0
  8  9  1  0
  9 10  1  0
 10 11  1  0
 11 12  1  0
 12 13  1  0
 12 14  1  0
 14  7  1  0
 14  9  1  0
M  END
>  <Title>  (192) 
idAAFLgen13

$$$$

     RDKit          2D

 12 13  0  0  0  0  0  0  0  0999 V2000
    1.8478   -6.4639    0.0000 C   0  0  0  0  0  0  0  0  0  0  0  0
    2.0046   -4.9721    0.0000 C   0  0  0  0  0  0  0  0  0  0  0  0
    3.3037   -4.2221    0.0000 C   0  0  0  0  0  0  0  0  0  0  0  0
    2.9918   -2.7549    0.0000 C   0  0  0  0  0  0  0  0  0  0  0  0
    1.5000   -2.5981    0.0000 C   0  0  0  0  0  0  0  0  0  0  0  0
    0.7500   -1.2990    0.0000 N   0  0  0  0  0  0  0  0  0  0  0  0
    1.5000    0.0000    0.0000 C   0  0  0  0  0  0  0  0  0  0  0  0
    0.7500    1.2990    0.0000 C   0  0  0  0  0  0  0  0  0  0  0  0
   -0.7500    1.2990    0.0000 N   0  0  0  0  0  0  0  0  0  0  0  0
   -1.5000    0.0000    0.0000 N   0  0  0  0  0  0  0  0  0  0  0  0
   -0.7500   -1.2990    0.0000 N   0  0  0  0  0  0  0  0  0  0  0  0
    0.8899   -3.9684    0.0000 C   0  0  0  0  0  0  0  0  0  0  0  0
  1  2  1  0
  2  3  2  0
  3  4  1  0
  4  5  1  0
  5  6  1  0
  6  7  1  0
  7  8  1  0
  8  9  2  0
  9 10  1  0
 10 11  2  0
  5 12  1  0
 12  2  1  0
 11  6  1  0
M  END
>  <Title>  (193) 
idAAFMgen13

$$$$

     RDKit          2D

 67 69  0  0  0  0  0  0  0  0999 V2000
   -5.6018   -1.1655    0.0000 C   0  0  0  0  0  0  0  0  0  0  0  0
   -5.4944    0.3307    0.0000 C   0  0  0  0  0  0  0  0  0  0  0  0
   -6.9824    0.5203    0.0000 C   0  0  0  0  0  0  0  0  0  0  0  0
   -8.4405    0.8725    0.0000 C   0  0  0  0  0  0  0  0  0  0  0  0
   -9.8509    1.3829    0.0000 C   0  0  0  0  0  0  0  0  0  0  0  0
  -11.1967    2.0454    0.0000 C   0  0  0  0  0  0  0  0  0  0  0  0
  -12.4614    2.8520    0.0000 C   0  0  0  0  0  0  0  0  0  0  0  0
  -13.6297    3.7927    0.0000 C   0  0  0  0  0  0  0  0  0  0  0  0
  -14.6875    4.8563    0.0000 C   0  0  0  0  0  0  0  0  0  0  0  0
  -15.6218    6.0298    0.0000 C   0  0  0  0  0  0  0  0  0  0  0  0
  -16.4213    7.2989    0.0000 C   0  0  0  0  0  0  0  0  0  0  0  0
  -17.0764    8.6483    0.0000 C   0  0  0  0  0  0  0  0  0  0  0  0
  -17.5791   10.0616    0.0000 C   0  0  0  0  0  0  0  0  0  0  0  0
  -17.9232   11.5216    0.0000 C   0  0  0  0  0  0  0  0  0  0  0  0
  -18.1046   13.0106    0.0000 C   0  0  0  0  0  0  0  0  0  0  0  0
  -18.1212   14.5105    0.0000 C   0  0  0  0  0  0  0  0  0  0  0  0
  -17.9726   16.0031    0.0000 C   0  0  0  0  0  0  0  0  0  0  0  0
  -17.6607   17.4703    0.0000 C   0  0  0  0  0  0  0  0  0  0  0  0
  -17.1894   18.8944    0.0000 C   0  0  0  0  0  0  0  0  0  0  0  0
  -16.5642   20.2579    0.0000 C   0  0  0  0  0  0  0  0  0  0  0  0
  -15.7928   21.5443    0.0000 C   0  0  0  0  0  0  0  0  0  0  0  0
  -14.8846   22.7381    0.0000 C   0  0  0  0  0  0  0  0  0  0  0  0
  -13.8506   23.8248    0.0000 C   0  0  0  0  0  0  0  0  0  0  0  0
  -12.7033   24.7910    0.0000 C   0  0  0  0  0  0  0  0  0  0  0  0
  -11.4566   25.6253    0.0000 C   0  0  0  0  0  0  0  0  0  0  0  0
  -10.1258   26.3173    0.0000 C   0  0  0  0  0  0  0  0  0  0  0  0
   -8.7269   26.8587    0.0000 C   0  0  0  0  0  0  0  0  0  0  0  0
   -7.2770   27.2429    0.0000 C   0  0  0  0  0  0  0  0  0  0  0  0
   -5.7935   27.4653    0.0000 C   0  0  0  0  0  0  0  0  0  0  0  0
   -4.2947   27.5232    0.0000 C   0  0  0  0  0  0  0  0  0  0  0  0
   -2.7985   27.4158    0.0000 C   0  0  0  0  0  0  0  0  0  0  0  0
   -1.3232   27.1445    0.0000 C   0  0  0  0  0  0  0  0  0  0  0  0
    0.1132   26.7125    0.0000 C   0  0  0  0  0  0  0  0  0  0  0  0
    1.4934   26.1251    0.0000 C   0  0  0  0  0  0  0  0  0  0  0  0
    2.8007   25.3895    0.0000 C   0  0  0  0  0  0  0  0  0  0  0  0
    4.0190   24.5145    0.0000 C   0  0  0  0  0  0  0  0  0  0  0  0
    5.1337   23.5108    0.0000 C   0  0  0  0  0  0  0  0  0  0  0  0
    6.1313   22.3906    0.0000 C   0  0  0  0  0  0  0  0  0  0  0  0
    6.9995   21.1674    0.0000 C   0  0  0  0  0  0  0  0  0  0  0  0
    7.7279   19.8562    0.0000 C   0  0  0  0  0  0  0  0  0  0  0  0
    8.3077   18.4727    0.0000 C   0  0  0  0  0  0  0  0  0  0  0  0
    8.7317   17.0339    0.0000 C   0  0  0  0  0  0  0  0  0  0  0  0
    8.9949   15.5572    0.0000 C   0  0  0  0  0  0  0  0  0  0  0  0
    9.0941   14.0605    0.0000 C   0  0  0  0  0  0  0  0  0  0  0  0
    9.0279   12.5619    0.0000 C   0  0  0  0  0  0  0  0  0  0  0  0
    8.7974   11.0797    0.0000 C   0  0  0  0  0  0  0  0  0  0  0  0
    8.4051    9.6319    0.0000 C   0  0  0  0  0  0  0  0  0  0  0  0
    7.8560    8.2361    0.0000 C   0  0  0  0  0  0  0  0  0  0  0  0
    7.1567    6.9091    0.0000 C   0  0  0  0  0  0  0  0  0  0  0  0
    6.3156    5.6670    0.0000 C   0  0  0  0  0  0  0  0  0  0  0  0
    5.3430    4.5251    0.0000 C   0  0  0  0  0  0  0  0  0  0  0  0
    4.2507    3.4971    0.0000 C   0  0  0  0  0  0  0  0  0  0  0  0
    3.0519    2.5954    0.0000 C   0  0  0  0  0  0  0  0  0  0  0  0
    1.7612    1.8312    0.0000 C   0  0  0  0  0  0  0  0  0  0  0  0
    0.3943    1.2135    0.0000 C   0  0  0  0  0  0  0  0  0  0  0  0
    1.2760    0.0000    0.0000 C   0  0  0  0  0  0  0  0  0  0  0  0
    0.3943   -1.2135    0.0000 C   0  0  0  0  0  0  0  0  0  0  0  0
   -1.0323   -0.7500    0.0000 C   0  0  0  0  0  0  0  0  0  0  0  0
   -1.0323    0.7500    0.0000 C   0  0  0  0  0  0  0  0  0  0  0  0
   -2.5012    0.4462    0.0000 C   0  0  0  0  0  0  0  0  0  0  0  0
   -2.3299   -0.8424    0.0000 C   0  0  0  0  0  0  0  0  0  0  0  0
   -2.6633   -1.5696    0.0000 C   0  0  0  0  0  0  0  0  0  0  0  0
   -3.4598   -1.6445    0.0000 C   0  0  0  0  0  0  0  0  0  0  0  0
   -4.3767   -3.6443    0.0000 C   0  0  0  0  0  0  0  0  0  0  0  0
   -5.0019   -5.0078    0.0000 N   0  0  0  0  0  0  0  0  0  0  0  0
   -3.9229   -0.9921    0.0000 C   0  0  0  0  0  0  0  0  0  0  0  0
   -3.9946    0.3059    0.0000 C   0  0  0  0  0  0  0  0  0  0  0  0
  1  2  1  0
  2  3  1  0
  3  4  1  0
  4  5  1  0
  5  6  1  0
  6  7  1  0
  7  8  1  0
  8  9  1  0
  9 10  1  0
 10 11  1  0
 11 12  1  0
 12 13  1  0
 13 14  1  0
 14 15  1  0
 15 16  1  0
 16 17  1  0
 17 18  1  0
 18 19  1  0
 19 20  1  0
 20 21  1  0
 21 22  1  0
 22 23  1  0
 23 24  1  0
 24 25  1  0
 25 26  1  0
 26 27  1  0
 27 28  1  0
 28 29  1  0
 29 30  1  0
 30 31  1  0
 31 32  1  0
 32 33  1  0
 33 34  1  0
 34 35  1  0
 35 36  1  0
 36 37  1  0
 37 38  1  0
 38 39  1  0
 39 40  1  0
 40 41  1  0
 41 42  1  0
 42 43  1  0
 43 44  1  0
 44 45  1  0
 45 46  1  0
 46 47  1  0
 47 48  1  0
 48 49  1  0
 49 50  1  0
 50 51  1  0
 51 52  1  0
 52 53  1  0
 53 54  1  0
 54 55  1  0
 55 56  1  0
 56 57  2  0
 57 58  1  0
 58 59  2  0
 59 60  1  0
 60 61  2  0
 61 62  1  0
 62 63  2  0
 63 64  1  0
 64 65  3  0
 63 66  1  0
 66 67  2  0
 67  2  1  0
 59 55  1  0
 67 60  1  0
M  END
>  <Title>  (194) 
idAAFNgen13

$$$$

     RDKit          2D

  5  5  0  0  0  0  0  0  0  0999 V2000
    1.2760    0.0000    0.0000 C   0  0  0  0  0  0  0  0  0  0  0  0
    0.3943    1.2135    0.0000 C   0  0  0  0  0  0  0  0  0  0  0  0
   -1.0323    0.7500    0.0000 C   0  0  0  0  0  0  0  0  0  0  0  0
   -1.0323   -0.7500    0.0000 C   0  0  0  0  0  0  0  0  0  0  0  0
    0.3943   -1.2135    0.0000 C   0  0  0  0  0  0  0  0  0  0  0  0
  1  2  2  0
  2  3  1  0
  3  4  2  0
  4  5  1  0
  5  1  2  0
M  END
>  <Title>  (195) 
idAAFOgen13

$$$$

     RDKit          2D

 13 13  0  0  0  0  0  0  0  0999 V2000
    9.0000   -5.1962    0.0000 C   0  0  0  0  0  0  0  0  0  0  0  0
    8.2500   -3.8971    0.0000 C   0  0  0  0  0  0  0  0  0  0  0  0
    7.5000   -2.5981    0.0000 C   0  0  0  0  0  0  0  0  0  0  0  0
    6.0000   -2.5981    0.0000 C   0  0  0  0  0  0  0  0  0  0  0  0
    5.2500   -1.2990    0.0000 C   0  0  0  0  0  0  0  0  0  0  0  0
    3.7500   -1.2990    0.0000 C   0  0  0  0  0  0  0  0  0  0  0  0
    3.0000    0.0000    0.0000 C   0  0  0  0  0  0  0  0  0  0  0  0
    1.5000    0.0000    0.0000 C   0  0  0  0  0  0  0  0  0  0  0  0
    0.7500   -1.2990    0.0000 C   0  0  0  0  0  0  0  0  0  0  0  0
   -0.7500   -1.2990    0.0000 C   0  0  0  0  0  0  0  0  0  0  0  0
   -1.5000    0.0000    0.0000 C   0  0  0  0  0  0  0  0  0  0  0  0
   -0.7500    1.2990    0.0000 C   0  0  0  0  0  0  0  0  0  0  0  0
    0.7500    1.2990    0.0000 C   0  0  0  0  0  0  0  0  0  0  0  0
  1  2  3  0
  2  3  1  0
  3  4  1  0
  4  5  1  0
  5  6  1  0
  6  7  1  0
  7  8  1  0
  8  9  2  0
  9 10  1  0
 10 11  2  0
 11 12  1  0
 12 13  2  0
 13  8  1  0
M  END
>  <Title>  (196) 
idAAFPgen13

$$$$

     RDKit          2D

 11 11  0  0  0  0  0  0  0  0999 V2000
    7.2760   -2.5981    0.0000 C   0  0  0  0  0  0  0  0  0  0  0  0
    5.7760   -2.5981    0.0000 C   0  0  0  0  0  0  0  0  0  0  0  0
    5.0260   -1.2990    0.0000 C   0  0  0  0  0  0  0  0  0  0  0  0
    3.5260   -1.2990    0.0000 C   0  0  0  0  0  0  0  0  0  0  0  0
    2.7760   -2.5981    0.0000 O   0  0  0  0  0  0  0  0  0  0  0  0
    2.7760    0.0000    0.0000 N   0  0  0  0  0  0  0  0  0  0  0  0
    1.2760    0.0000    0.0000 C   0  0  0  0  0  0  0  0  0  0  0  0
    0.3943    1.2135    0.0000 C   0  0  0  0  0  0  0  0  0  0  0  0
   -1.0323    0.7500    0.0000 C   0  0  0  0  0  0  0  0  0  0  0  0
   -1.0323   -0.7500    0.0000 C   0  0  0  0  0  0  0  0  0  0  0  0
    0.3943   -1.2135    0.0000 C   0  0  0  0  0  0  0  0  0  0  0  0
  1  2  2  0
  2  3  1  0
  3  4  1  0
  4  5  2  0
  4  6  1  0
  6  7  1  0
  7  8  2  0
  8  9  1  0
  9 10  2  0
 10 11  1  0
 11  7  1  0
M  END
>  <Title>  (197) 
idAAFQgen13

$$$$

     RDKit          2D

  9 10  0  0  0  0  0  0  0  0999 V2000
    1.5000    0.0000    0.0000 C   0  0  0  0  0  0  0  0  0  0  0  0
    0.7500   -1.2990    0.0000 C   0  0  0  0  0  0  0  0  0  0  0  0
   -0.7500   -1.2990    0.0000 C   0  0  0  0  0  0  0  0  0  0  0  0
   -1.5000    0.0000    0.0000 C   0  0  0  0  0  0  0  0  0  0  0  0
   -2.9672    0.3119    0.0000 O   0  0  0  0  0  0  0  0  0  0  0  0
   -3.1240    1.8037    0.0000 C   0  0  0  0  0  0  0  0  0  0  0  0
   -1.7537    2.4138    0.0000 C   0  0  0  0  0  0  0  0  0  0  0  0
   -0.7500    1.2990    0.0000 C   0  0  0  0  0  0  0  0  0  0  0  0
    0.7500    1.2990    0.0000 C   0  0  0  0  0  0  0  0  0  0  0  0
  1  2  2  0
  2  3  1  0
  3  4  2  0
  4  5  1  0
  5  6  1  0
  6  7  2  0
  7  8  1  0
  8  9  2  0
  9  1  1  0
  8  4  1  0
M  END
>  <Title>  (198) 
idAAFRgen13

$$$$

     RDKit          2D

 36 40  0  0  0  0  0  0  0  0999 V2000
   -3.1965   -1.7857    0.0000 C   0  0  0  0  0  0  0  0  0  0  0  0
   -1.8107   -2.3597    0.0000 C   0  0  0  0  0  0  0  0  0  0  0  0
   -1.8107   -3.8597    0.0000 C   0  0  0  0  0  0  0  0  0  0  0  0
   -0.7500   -4.9204    0.0000 C   0  0  0  0  0  0  0  0  0  0  0  0
    0.7500   -4.9204    0.0000 C   0  0  0  0  0  0  0  0  0  0  0  0
    1.8107   -3.8597    0.0000 C   0  0  0  0  0  0  0  0  0  0  0  0
    1.8107   -2.3597    0.0000 C   0  0  0  0  0  0  0  0  0  0  0  0
    3.1965   -1.7857    0.0000 C   0  0  0  0  0  0  0  0  0  0  0  0
    3.3923   -0.2985    0.0000 O   0  0  0  0  0  0  0  0  0  0  0  0
    4.3865   -2.6988    0.0000 N   0  0  0  0  0  0  0  0  0  0  0  0
    5.7723   -2.1248    0.0000 C   0  0  0  0  0  0  0  0  0  0  0  0
    6.1225   -0.6662    0.0000 N   0  0  0  0  0  0  0  0  0  0  0  0
    7.6179   -0.5485    0.0000 N   0  0  0  0  0  0  0  0  0  0  0  0
    8.1919   -1.9344    0.0000 N   0  0  0  0  0  0  0  0  0  0  0  0
    7.0513   -2.9085    0.0000 N   0  0  0  0  0  0  0  0  0  0  0  0
    7.1690   -4.4039    0.0000 N   0  0  0  0  0  0  0  0  0  0  0  0
    6.1948   -5.5445    0.0000 C   0  0  0  0  0  0  0  0  0  0  0  0
    7.3354   -6.5187    0.0000 C   0  0  0  0  0  0  0  0  0  0  0  0
    7.4531   -8.0141    0.0000 C   0  0  0  0  0  0  0  0  0  0  0  0
    8.8070   -8.6598    0.0000 O   0  0  0  0  0  0  0  0  0  0  0  0
    6.2169   -8.8637    0.0000 N   0  0  0  0  0  0  0  0  0  0  0  0
    6.3346  -10.3591    0.0000 C   0  0  0  0  0  0  0  0  0  0  0  0
    7.7330  -10.9018    0.0000 C   0  0  0  0  0  0  0  0  0  0  0  0
    8.1804  -12.3335    0.0000 N   0  0  0  0  0  0  0  0  0  0  0  0
    7.3401  -13.5760    0.0000 N   0  0  0  0  0  0  0  0  0  0  0  0
    5.8447  -13.6937    0.0000 N   0  0  0  0  0  0  0  0  0  0  0  0
    4.8204  -12.5980    0.0000 N   0  0  0  0  0  0  0  0  0  0  0  0
    5.0384  -11.1139    0.0000 N   0  0  0  0  0  0  0  0  0  0  0  0
    8.3096   -5.3781    0.0000 C   0  0  0  0  0  0  0  0  0  0  0  0
    9.8050   -5.2604    0.0000 O   0  0  0  0  0  0  0  0  0  0  0  0
    0.7500   -1.2990    0.0000 C   0  0  0  0  0  0  0  0  0  0  0  0
    1.5000    0.0000    0.0000 C   0  0  0  0  0  0  0  0  0  0  0  0
    0.7500    1.2990    0.0000 C   0  0  0  0  0  0  0  0  0  0  0  0
   -0.7500    1.2990    0.0000 C   0  0  0  0  0  0  0  0  0  0  0  0
   -1.5000    0.0000    0.0000 C   0  0  0  0  0  0  0  0  0  0  0  0
   -0.7500   -1.2990    0.0000 C   0  0  0  0  0  0  0  0  0  0  0  0
  1  2  1  0
  2  3  1  0
  3  4  1  0
  4  5  1  0
  5  6  1  0
  6  7  1  0
  7  8  1  0
  8  9  2  0
  8 10  1  0
 10 11  1  0
 11 12  2  0
 12 13  1  0
 13 14  2  0
 14 15  1  0
 15 16  1  0
 16 17  1  0
 17 18  2  0
 18 19  1  0
 19 20  2  0
 19 21  1  0
 21 22  1  0
 22 23  1  0
 23 24  2  0
 24 25  1  0
 25 26  2  0
 26 27  1  0
 27 28  2  0
 18 29  1  0
 29 30  2  0
  7 31  1  0
 31 32  2  0
 32 33  1  0
 33 34  2  0
 34 35  1  0
 35 36  2  0
 36  2  1  0
 15 11  1  0
 29 16  1  0
 36 31  1  0
 28 22  1  0
M  END
>  <Title>  (199) 
idAAFSgen13

$$$$

     RDKit          2D

  6  5  0  0  0  0  0  0  0  0999 V2000
    0.0000    0.0000    0.0000 C   0  0  0  0  0  0  0  0  0  0  0  0
    1.2990    0.7500    0.0000 C   0  0  0  0  0  0  0  0  0  0  0  0
    2.5981   -0.0000    0.0000 C   0  0  0  0  0  0  0  0  0  0  0  0
    3.8971    0.7500    0.0000 C   0  0  0  0  0  0  0  0  0  0  0  0
    5.1962   -0.0000    0.0000 C   0  0  0  0  0  0  0  0  0  0  0  0
    3.8971    2.2500    0.0000 C   0  0  0  0  0  0  0  0  0  0  0  0
  1  2  1  0
  2  3  1  0
  3  4  1  0
  4  5  1  0
  4  6  1  0
M  END
>  <Title>  (200) 
idAAFTgen13

$$$$

     RDKit          2D

 35 40  0  0  0  0  0  0  0  0999 V2000
    2.3737   -6.1885    0.0000 C   0  0  0  0  0  0  0  0  0  0  0  0
    1.4095   -5.0395    0.0000 C   0  0  0  0  0  0  0  0  0  0  0  0
    2.1595   -3.7404    0.0000 C   0  0  0  0  0  0  0  0  0  0  0  0
    1.8991   -2.2632    0.0000 C   0  0  0  0  0  0  0  0  0  0  0  0
    3.1981   -1.5132    0.0000 C   0  0  0  0  0  0  0  0  0  0  0  0
    3.1981   -0.0132    0.0000 O   0  0  0  0  0  0  0  0  0  0  0  0
    4.4971   -2.2632    0.0000 N   0  0  0  0  0  0  0  0  0  0  0  0
    5.7962   -1.5132    0.0000 C   0  0  0  0  0  0  0  0  0  0  0  0
    5.9530   -0.0214    0.0000 N   0  0  0  0  0  0  0  0  0  0  0  0
    7.4202    0.2904    0.0000 N   0  0  0  0  0  0  0  0  0  0  0  0
    8.1702   -1.0086    0.0000 N   0  0  0  0  0  0  0  0  0  0  0  0
    7.1665   -2.1233    0.0000 N   0  0  0  0  0  0  0  0  0  0  0  0
    7.4784   -3.5905    0.0000 N   0  0  0  0  0  0  0  0  0  0  0  0
    8.8487   -4.2007    0.0000 C   0  0  0  0  0  0  0  0  0  0  0  0
    8.6919   -5.6924    0.0000 N   0  0  0  0  0  0  0  0  0  0  0  0
    7.2247   -6.0043    0.0000 N   0  0  0  0  0  0  0  0  0  0  0  0
    6.4747   -4.7053    0.0000 N   0  0  0  0  0  0  0  0  0  0  0  0
    0.7500   -1.2990    0.0000 C   0  0  0  0  0  0  0  0  0  0  0  0
    1.5000    0.0000    0.0000 C   0  0  0  0  0  0  0  0  0  0  0  0
    0.7500    1.2990    0.0000 C   0  0  0  0  0  0  0  0  0  0  0  0
   -0.7500    1.2990    0.0000 C   0  0  0  0  0  0  0  0  0  0  0  0
   -1.5000    0.0000    0.0000 C   0  0  0  0  0  0  0  0  0  0  0  0
   -0.7500   -1.2990    0.0000 C   0  0  0  0  0  0  0  0  0  0  0  0
   -1.8991   -2.2632    0.0000 C   0  0  0  0  0  0  0  0  0  0  0  0
   -3.0481   -1.2990    0.0000 C   0  0  0  0  0  0  0  0  0  0  0  0
   -4.4577   -1.8121    0.0000 C   0  0  0  0  0  0  0  0  0  0  0  0
   -4.7181   -3.2893    0.0000 C   0  0  0  0  0  0  0  0  0  0  0  0
   -3.5691   -4.2535    0.0000 C   0  0  0  0  0  0  0  0  0  0  0  0
   -2.1595   -3.7404    0.0000 C   0  0  0  0  0  0  0  0  0  0  0  0
   -1.4095   -5.0395    0.0000 C   0  0  0  0  0  0  0  0  0  0  0  0
   -2.5586   -6.0037    0.0000 C   0  0  0  0  0  0  0  0  0  0  0  0
   -2.2981   -7.4809    0.0000 C   0  0  0  0  0  0  0  0  0  0  0  0
   -0.8886   -7.9939    0.0000 C   0  0  0  0  0  0  0  0  0  0  0  0
    0.2605   -7.0297    0.0000 C   0  0  0  0  0  0  0  0  0  0  0  0
   -0.0000   -5.5525    0.0000 C   0  0  0  0  0  0  0  0  0  0  0  0
  1  2  1  0
  2  3  1  0
  3  4  2  0
  4  5  1  0
  5  6  2  0
  5  7  1  0
  7  8  1  0
  8  9  2  0
  9 10  1  0
 10 11  2  0
 11 12  1  0
 12 13  1  0
 13 14  1  0
 14 15  2  0
 15 16  1  0
 16 17  2  0
  4 18  1  0
 18 19  2  0
 19 20  1  0
 20 21  2  0
 21 22  1  0
 22 23  2  0
 23 24  1  0
 24 25  2  0
 25 26  1  0
 26 27  2  0
 27 28  1  0
 28 29  2  0
 29 30  1  0
 30 31  2  0
 31 32  1  0
 32 33  2  0
 33 34  1  0
 34 35  2  0
 35  2  1  0
 12  8  1  0
 17 13  1  0
 23 18  1  0
 29 24  1  0
 35 30  1  0
M  END
>  <Title>  (201) 
idAAFUgen13

$$$$

     RDKit          2D

 81 82  0  0  0  0  0  0  0  0999 V2000
   -2.2060   -1.0682    0.0000 C   0  0  0  0  0  0  0  0  0  0  0  0
   -2.4919    0.4043    0.0000 C   0  0  0  0  0  0  0  0  0  0  0  0
   -3.9748    0.1787    0.0000 C   0  0  0  0  0  0  0  0  0  0  0  0
   -5.4712    0.0748    0.0000 C   0  0  0  0  0  0  0  0  0  0  0  0
   -6.9711    0.0931    0.0000 C   0  0  0  0  0  0  0  0  0  0  0  0
   -8.4645    0.2337    0.0000 C   0  0  0  0  0  0  0  0  0  0  0  0
   -9.9415    0.4955    0.0000 C   0  0  0  0  0  0  0  0  0  0  0  0
  -11.3922    0.8768    0.0000 C   0  0  0  0  0  0  0  0  0  0  0  0
  -12.8070    1.3751    0.0000 C   0  0  0  0  0  0  0  0  0  0  0  0
  -14.1765    1.9871    0.0000 C   0  0  0  0  0  0  0  0  0  0  0  0
  -15.4916    2.7086    0.0000 C   0  0  0  0  0  0  0  0  0  0  0  0
  -16.7434    3.5350    0.0000 C   0  0  0  0  0  0  0  0  0  0  0  0
  -17.9238    4.4606    0.0000 C   0  0  0  0  0  0  0  0  0  0  0  0
  -19.0247    5.4794    0.0000 C   0  0  0  0  0  0  0  0  0  0  0  0
  -20.0390    6.5845    0.0000 C   0  0  0  0  0  0  0  0  0  0  0  0
  -20.9598    7.7686    0.0000 C   0  0  0  0  0  0  0  0  0  0  0  0
  -21.7810    9.0238    0.0000 C   0  0  0  0  0  0  0  0  0  0  0  0
  -22.4972   10.3418    0.0000 C   0  0  0  0  0  0  0  0  0  0  0  0
  -23.1036   11.7138    0.0000 C   0  0  0  0  0  0  0  0  0  0  0  0
  -23.5961   13.1306    0.0000 C   0  0  0  0  0  0  0  0  0  0  0  0
  -23.9715   14.5829    0.0000 C   0  0  0  0  0  0  0  0  0  0  0  0
  -24.2273   16.0609    0.0000 C   0  0  0  0  0  0  0  0  0  0  0  0
  -24.3618   17.5549    0.0000 C   0  0  0  0  0  0  0  0  0  0  0  0
  -24.3740   19.0548    0.0000 C   0  0  0  0  0  0  0  0  0  0  0  0
  -24.2640   20.5508    0.0000 C   0  0  0  0  0  0  0  0  0  0  0  0
  -24.0323   22.0328    0.0000 C   0  0  0  0  0  0  0  0  0  0  0  0
  -23.6807   23.4910    0.0000 C   0  0  0  0  0  0  0  0  0  0  0  0
  -23.2113   24.9157    0.0000 C   0  0  0  0  0  0  0  0  0  0  0  0
  -22.6274   26.2973    0.0000 C   0  0  0  0  0  0  0  0  0  0  0  0
  -21.9328   27.6268    0.0000 C   0  0  0  0  0  0  0  0  0  0  0  0
  -21.1322   28.8953    0.0000 C   0  0  0  0  0  0  0  0  0  0  0  0
  -20.2308   30.0943    0.0000 C   0  0  0  0  0  0  0  0  0  0  0  0
  -19.2347   31.2158    0.0000 C   0  0  0  0  0  0  0  0  0  0  0  0
  -18.1506   32.2524    0.0000 C   0  0  0  0  0  0  0  0  0  0  0  0
  -16.9855   33.1972    0.0000 C   0  0  0  0  0  0  0  0  0  0  0  0
  -15.7473   34.0438    0.0000 C   0  0  0  0  0  0  0  0  0  0  0  0
  -14.4442   34.7867    0.0000 C   0  0  0  0  0  0  0  0  0  0  0  0
  -13.0849   35.4210    0.0000 C   0  0  0  0  0  0  0  0  0  0  0  0
  -11.6784   35.9423    0.0000 C   0  0  0  0  0  0  0  0  0  0  0  0
  -10.2341   36.3473    0.0000 C   0  0  0  0  0  0  0  0  0  0  0  0
   -8.7616   36.6331    0.0000 C   0  0  0  0  0  0  0  0  0  0  0  0
   -7.2706   36.7980    0.0000 C   0  0  0  0  0  0  0  0  0  0  0  0
   -5.7713   36.8409    0.0000 C   0  0  0  0  0  0  0  0  0  0  0  0
   -4.2734   36.7614    0.0000 C   0  0  0  0  0  0  0  0  0  0  0  0
   -2.7869   36.5600    0.0000 C   0  0  0  0  0  0  0  0  0  0  0  0
   -1.3219   36.2382    0.0000 C   0  0  0  0  0  0  0  0  0  0  0  0
    0.1121   35.7980    0.0000 C   0  0  0  0  0  0  0  0  0  0  0  0
    1.5054   35.2424    0.0000 C   0  0  0  0  0  0  0  0  0  0  0  0
    2.8488   34.5751    0.0000 C   0  0  0  0  0  0  0  0  0  0  0  0
    4.1333   33.8005    0.0000 C   0  0  0  0  0  0  0  0  0  0  0  0
    5.3504   32.9238    0.0000 C   0  0  0  0  0  0  0  0  0  0  0  0
    6.4920   31.9507    0.0000 C   0  0  0  0  0  0  0  0  0  0  0  0
    7.5505   30.8879    0.0000 C   0  0  0  0  0  0  0  0  0  0  0  0
    8.5189   29.7424    0.0000 C   0  0  0  0  0  0  0  0  0  0  0  0
    9.3906   28.5217    0.0000 C   0  0  0  0  0  0  0  0  0  0  0  0
   10.1599   27.2340    0.0000 C   0  0  0  0  0  0  0  0  0  0  0  0
   10.8218   25.8879    0.0000 C   0  0  0  0  0  0  0  0  0  0  0  0
   11.3717   24.4923    0.0000 C   0  0  0  0  0  0  0  0  0  0  0  0
   11.8060   23.0566    0.0000 C   0  0  0  0  0  0  0  0  0  0  0  0
   12.1219   21.5902    0.0000 C   0  0  0  0  0  0  0  0  0  0  0  0
   12.3172   20.1030    0.0000 C   0  0  0  0  0  0  0  0  0  0  0  0
   12.3906   18.6048    0.0000 C   0  0  0  0  0  0  0  0  0  0  0  0
   12.3416   17.1056    0.0000 C   0  0  0  0  0  0  0  0  0  0  0  0
   12.1706   15.6154    0.0000 C   0  0  0  0  0  0  0  0  0  0  0  0
   11.8787   14.1440    0.0000 C   0  0  0  0  0  0  0  0  0  0  0  0
   11.4679   12.7014    0.0000 C   0  0  0  0  0  0  0  0  0  0  0  0
   10.9408   11.2971    0.0000 C   0  0  0  0  0  0  0  0  0  0  0  0
   10.3011    9.9403    0.0000 C   0  0  0  0  0  0  0  0  0  0  0  0
    9.5528    8.6403    0.0000 C   0  0  0  0  0  0  0  0  0  0  0  0
    8.7011    7.4055    0.0000 C   0  0  0  0  0  0  0  0  0  0  0  0
    7.7516    6.2443    0.0000 C   0  0  0  0  0  0  0  0  0  0  0  0
    6.7106    5.1644    0.0000 C   0  0  0  0  0  0  0  0  0  0  0  0
    5.5850    4.1729    0.0000 C   0  0  0  0  0  0  0  0  0  0  0  0
    4.3824    3.2764    0.0000 C   0  0  0  0  0  0  0  0  0  0  0  0
    3.1107    2.4809    0.0000 C   0  0  0  0  0  0  0  0  0  0  0  0
    1.7784    1.7918    0.0000 C   0  0  0  0  0  0  0  0  0  0  0  0
    0.3943    1.2135    0.0000 C   0  0  0  0  0  0  0  0  0  0  0  0
    1.2760    0.0000    0.0000 C   0  0  0  0  0  0  0  0  0  0  0  0
    0.3943   -1.2135    0.0000 C   0  0  0  0  0  0  0  0  0  0  0  0
   -1.0323   -0.7500    0.0000 C   0  0  0  0  0  0  0  0  0  0  0  0
   -1.0323    0.7500    0.0000 C   0  0  0  0  0  0  0  0  0  0  0  0
  1  2  1  0
  2  3  1  0
  3  4  1  0
  4  5  1  0
  5  6  1  0
  6  7  1  0
  7  8  1  0
  8  9  1  0
  9 10  1  0
 10 11  1  0
 11 12  1  0
 12 13  1  0
 13 14  1  0
 14 15  1  0
 15 16  1  0
 16 17  1  0
 17 18  1  0
 18 19  1  0
 19 20  1  0
 20 21  1  0
 21 22  1  0
 22 23  1  0
 23 24  1  0
 24 25  1  0
 25 26  1  0
 26 27  1  0
 27 28  1  0
 28 29  1  0
 29 30  1  0
 30 31  1  0
 31 32  1  0
 32 33  1  0
 33 34  1  0
 34 35  1  0
 35 36  1  0
 36 37  1  0
 37 38  1  0
 38 39  1  0
 39 40  1  0
 40 41  1  0
 41 42  1  0
 42 43  1  0
 43 44  1  0
 44 45  1  0
 45 46  1  0
 46 47  1  0
 47 48  1  0
 48 49  1  0
 49 50  1  0
 50 51  1  0
 51 52  1  0
 52 53  1  0
 53 54  1  0
 54 55  2  0
 55 56  1  0
 56 57  2  0
 57 58  1  0
 58 59  2  0
 59 60  1  0
 60 61  2  0
 61 62  1  0
 62 63  2  0
 63 64  1  0
 64 65  2  0
 65 66  1  0
 66 67  2  0
 67 68  1  0
 68 69  2  0
 69 70  1  0
 70 71  2  0
 71 72  1  0
 72 73  2  0
 73 74  1  0
 74 75  2  0
 75 76  1  0
 76 77  2  0
 77 78  1  0
 78 79  2  0
 79 80  1  0
 80 81  2  0
 81  2  1  0
 81 77  1  0
M  END
>  <Title>  (202) 
idAAFVgen13

$$$$

     RDKit          2D

 10  9  0  0  0  0  0  0  0  0999 V2000
    0.0000    0.0000    0.0000 C   0  0  0  0  0  0  0  0  0  0  0  0
   -0.0000   -1.5000    0.0000 C   0  0  0  0  0  0  0  0  0  0  0  0
   -0.0000   -3.0000    0.0000 C   0  0  0  0  0  0  0  0  0  0  0  0
   -0.0000   -4.5000    0.0000 C   0  0  0  0  0  0  0  0  0  0  0  0
   -0.0000   -6.0000    0.0000 C   0  0  0  0  0  0  0  0  0  0  0  0
    1.2990   -6.7500    0.0000 C   0  0  0  0  0  0  0  0  0  0  0  0
    2.5981   -6.0000    0.0000 C   0  0  0  0  0  0  0  0  0  0  0  0
    3.8971   -5.2500    0.0000 C   0  0  0  0  0  0  0  0  0  0  0  0
    1.2990   -8.2500    0.0000 C   0  0  0  0  0  0  0  0  0  0  0  0
    2.5981   -9.0000    0.0000 C   0  0  0  0  0  0  0  0  0  0  0  0
  1  2  3  0
  2  3  1  0
  3  4  3  0
  4  5  1  0
  5  6  1  0
  6  7  1  0
  7  8  3  0
  6  9  1  0
  9 10  2  0
M  END
>  <Title>  (203) 
idAAFWgen13

$$$$

     RDKit          2D

 38 38  0  0  0  0  0  0  0  0999 V2000
   51.3107   -1.2990    0.0000 C   0  0  0  0  0  0  0  0  0  0  0  0
   50.5607    0.0000    0.0000 C   0  0  0  0  0  0  0  0  0  0  0  0
   49.0607    0.0000    0.0000 C   0  0  0  0  0  0  0  0  0  0  0  0
   47.5607    0.0000    0.0000 C   0  0  0  0  0  0  0  0  0  0  0  0
   46.0607    0.0000    0.0000 C   0  0  0  0  0  0  0  0  0  0  0  0
   44.5607    0.0000    0.0000 C   0  0  0  0  0  0  0  0  0  0  0  0
   43.0607    0.0000    0.0000 C   0  0  0  0  0  0  0  0  0  0  0  0
   41.5607    0.0000    0.0000 C   0  0  0  0  0  0  0  0  0  0  0  0
   40.0607    0.0000    0.0000 C   0  0  0  0  0  0  0  0  0  0  0  0
   38.5607    0.0000    0.0000 C   0  0  0  0  0  0  0  0  0  0  0  0
   37.0607    0.0000    0.0000 C   0  0  0  0  0  0  0  0  0  0  0  0
   35.5607    0.0000    0.0000 C   0  0  0  0  0  0  0  0  0  0  0  0
   34.0607    0.0000    0.0000 C   0  0  0  0  0  0  0  0  0  0  0  0
   32.5607    0.0000    0.0000 C   0  0  0  0  0  0  0  0  0  0  0  0
   31.0607    0.0000    0.0000 C   0  0  0  0  0  0  0  0  0  0  0  0
   29.5607    0.0000    0.0000 C   0  0  0  0  0  0  0  0  0  0  0  0
   28.0607    0.0000    0.0000 C   0  0  0  0  0  0  0  0  0  0  0  0
   26.5607    0.0000    0.0000 C   0  0  0  0  0  0  0  0  0  0  0  0
   25.0607    0.0000    0.0000 C   0  0  0  0  0  0  0  0  0  0  0  0
   23.5607    0.0000    0.0000 C   0  0  0  0  0  0  0  0  0  0  0  0
   22.0607    0.0000    0.0000 C   0  0  0  0  0  0  0  0  0  0  0  0
   20.5607    0.0000    0.0000 C   0  0  0  0  0  0  0  0  0  0  0  0
   19.0607    0.0000    0.0000 C   0  0  0  0  0  0  0  0  0  0  0  0
   17.5607    0.0000    0.0000 C   0  0  0  0  0  0  0  0  0  0  0  0
   16.0607    0.0000    0.0000 C   0  0  0  0  0  0  0  0  0  0  0  0
   14.5607    0.0000    0.0000 C   0  0  0  0  0  0  0  0  0  0  0  0
   13.0607    0.0000    0.0000 C   0  0  0  0  0  0  0  0  0  0  0  0
   11.5607    0.0000    0.0000 C   0  0  0  0  0  0  0  0  0  0  0  0
   10.0607    0.0000    0.0000 C   0  0  0  0  0  0  0  0  0  0  0  0
    8.5607    0.0000    0.0000 C   0  0  0  0  0  0  0  0  0  0  0  0
    7.0607    0.0000    0.0000 C   0  0  0  0  0  0  0  0  0  0  0  0
    5.5607    0.0000    0.0000 C   0  0  0  0  0  0  0  0  0  0  0  0
    4.0607    0.0000    0.0000 C   0  0  0  0  0  0  0  0  0  0  0  0
    2.5607    0.0000    0.0000 C   0  0  0  0  0  0  0  0  0  0  0  0
    1.0607    0.0000    0.0000 N   0  0  0  0  0  0  0  0  0  0  0  0
   -0.0000   -1.0607    0.0000 C   0  0  0  0  0  0  0  0  0  0  0  0
   -1.0607    0.0000    0.0000 C   0  0  0  0  0  0  0  0  0  0  0  0
    0.0000    1.0607    0.0000 C   0  0  0  0  0  0  0  0  0  0  0  0
  1  2  2  0
  2  3  1  0
  3  4  3  0
  4  5  1  0
  5  6  3  0
  6  7  1  0
  7  8  3  0
  8  9  1  0
  9 10  3  0
 10 11  1  0
 11 12  3  0
 12 13  1  0
 13 14  3  0
 14 15  1  0
 15 16  3  0
 16 17  1  0
 17 18  3  0
 18 19  1  0
 19 20  3  0
 20 21  1  0
 21 22  3  0
 22 23  1  0
 23 24  3  0
 24 25  1  0
 25 26  3  0
 26 27  1  0
 27 28  3  0
 28 29  1  0
 29 30  3  0
 30 31  1  0
 31 32  3  0
 32 33  1  0
 33 34  3  0
 34 35  1  0
 35 36  1  0
 36 37  2  0
 37 38  1  0
 38 35  1  0
M  END
>  <Title>  (204) 
idAAFXgen13

$$$$

     RDKit          2D

 96 97  0  0  0  0  0  0  0  0999 V2000
   -2.1720   -1.0816    0.0000 C   0  0  0  0  0  0  0  0  0  0  0  0
   -2.4872    0.3849    0.0000 C   0  0  0  0  0  0  0  0  0  0  0  0
   -3.9636    0.1200    0.0000 C   0  0  0  0  0  0  0  0  0  0  0  0
   -5.4546   -0.0436    0.0000 C   0  0  0  0  0  0  0  0  0  0  0  0
   -6.9534   -0.1051    0.0000 C   0  0  0  0  0  0  0  0  0  0  0  0
   -8.4528   -0.0641    0.0000 C   0  0  0  0  0  0  0  0  0  0  0  0
   -9.9460    0.0791    0.0000 C   0  0  0  0  0  0  0  0  0  0  0  0
  -11.4259    0.3239    0.0000 C   0  0  0  0  0  0  0  0  0  0  0  0
  -12.8856    0.6690    0.0000 C   0  0  0  0  0  0  0  0  0  0  0  0
  -14.3184    1.1130    0.0000 C   0  0  0  0  0  0  0  0  0  0  0  0
  -15.7175    1.6538    0.0000 C   0  0  0  0  0  0  0  0  0  0  0  0
  -17.0765    2.2887    0.0000 C   0  0  0  0  0  0  0  0  0  0  0  0
  -18.3890    3.0150    0.0000 C   0  0  0  0  0  0  0  0  0  0  0  0
  -19.6489    3.8291    0.0000 C   0  0  0  0  0  0  0  0  0  0  0  0
  -20.8502    4.7272    0.0000 C   0  0  0  0  0  0  0  0  0  0  0  0
  -21.9875    5.7053    0.0000 C   0  0  0  0  0  0  0  0  0  0  0  0
  -23.0554    6.7587    0.0000 C   0  0  0  0  0  0  0  0  0  0  0  0
  -24.0489    7.8825    0.0000 C   0  0  0  0  0  0  0  0  0  0  0  0
  -24.9634    9.0715    0.0000 C   0  0  0  0  0  0  0  0  0  0  0  0
  -25.7946   10.3201    0.0000 C   0  0  0  0  0  0  0  0  0  0  0  0
  -26.5387   11.6225    0.0000 C   0  0  0  0  0  0  0  0  0  0  0  0
  -27.1922   12.9727    0.0000 C   0  0  0  0  0  0  0  0  0  0  0  0
  -27.7519   14.3643    0.0000 C   0  0  0  0  0  0  0  0  0  0  0  0
  -28.2155   15.7909    0.0000 C   0  0  0  0  0  0  0  0  0  0  0  0
  -28.5806   17.2458    0.0000 C   0  0  0  0  0  0  0  0  0  0  0  0
  -28.8455   18.7222    0.0000 C   0  0  0  0  0  0  0  0  0  0  0  0
  -29.0091   20.2133    0.0000 C   0  0  0  0  0  0  0  0  0  0  0  0
  -29.0706   21.7120    0.0000 C   0  0  0  0  0  0  0  0  0  0  0  0
  -29.0296   23.2115    0.0000 C   0  0  0  0  0  0  0  0  0  0  0  0
  -28.8864   24.7046    0.0000 C   0  0  0  0  0  0  0  0  0  0  0  0
  -28.6416   26.1845    0.0000 C   0  0  0  0  0  0  0  0  0  0  0  0
  -28.2964   27.6443    0.0000 C   0  0  0  0  0  0  0  0  0  0  0  0
  -27.8524   29.0770    0.0000 C   0  0  0  0  0  0  0  0  0  0  0  0
  -27.3117   30.4762    0.0000 C   0  0  0  0  0  0  0  0  0  0  0  0
  -26.6767   31.8352    0.0000 C   0  0  0  0  0  0  0  0  0  0  0  0
  -25.9505   33.1476    0.0000 C   0  0  0  0  0  0  0  0  0  0  0  0
  -25.1364   34.4075    0.0000 C   0  0  0  0  0  0  0  0  0  0  0  0
  -24.2383   35.6089    0.0000 C   0  0  0  0  0  0  0  0  0  0  0  0
  -23.2602   36.7462    0.0000 C   0  0  0  0  0  0  0  0  0  0  0  0
  -22.2068   37.8140    0.0000 C   0  0  0  0  0  0  0  0  0  0  0  0
  -21.0830   38.8075    0.0000 C   0  0  0  0  0  0  0  0  0  0  0  0
  -19.8940   39.7220    0.0000 C   0  0  0  0  0  0  0  0  0  0  0  0
  -18.6454   40.5533    0.0000 C   0  0  0  0  0  0  0  0  0  0  0  0
  -17.3429   41.2973    0.0000 C   0  0  0  0  0  0  0  0  0  0  0  0
  -15.9928   41.9508    0.0000 C   0  0  0  0  0  0  0  0  0  0  0  0
  -14.6011   42.5106    0.0000 C   0  0  0  0  0  0  0  0  0  0  0  0
  -13.1745   42.9741    0.0000 C   0  0  0  0  0  0  0  0  0  0  0  0
  -11.7197   43.3392    0.0000 C   0  0  0  0  0  0  0  0  0  0  0  0
  -10.2432   43.6042    0.0000 C   0  0  0  0  0  0  0  0  0  0  0  0
   -8.7522   43.7678    0.0000 C   0  0  0  0  0  0  0  0  0  0  0  0
   -7.2534   43.8292    0.0000 C   0  0  0  0  0  0  0  0  0  0  0  0
   -5.7540   43.7882    0.0000 C   0  0  0  0  0  0  0  0  0  0  0  0
   -4.2609   43.6450    0.0000 C   0  0  0  0  0  0  0  0  0  0  0  0
   -2.7810   43.4003    0.0000 C   0  0  0  0  0  0  0  0  0  0  0  0
   -1.3212   43.0551    0.0000 C   0  0  0  0  0  0  0  0  0  0  0  0
    0.1116   42.6111    0.0000 C   0  0  0  0  0  0  0  0  0  0  0  0
    1.5107   42.0703    0.0000 C   0  0  0  0  0  0  0  0  0  0  0  0
    2.8697   41.4354    0.0000 C   0  0  0  0  0  0  0  0  0  0  0  0
    4.1822   40.7092    0.0000 C   0  0  0  0  0  0  0  0  0  0  0  0
    5.4420   39.8951    0.0000 C   0  0  0  0  0  0  0  0  0  0  0  0
    6.6434   38.9969    0.0000 C   0  0  0  0  0  0  0  0  0  0  0  0
    7.7807   38.0188    0.0000 C   0  0  0  0  0  0  0  0  0  0  0  0
    8.8486   36.9654    0.0000 C   0  0  0  0  0  0  0  0  0  0  0  0
    9.8421   35.8416    0.0000 C   0  0  0  0  0  0  0  0  0  0  0  0
   10.7566   34.6526    0.0000 C   0  0  0  0  0  0  0  0  0  0  0  0
   11.5878   33.4040    0.0000 C   0  0  0  0  0  0  0  0  0  0  0  0
   12.3319   32.1016    0.0000 C   0  0  0  0  0  0  0  0  0  0  0  0
   12.9853   30.7514    0.0000 C   0  0  0  0  0  0  0  0  0  0  0  0
   13.5451   29.3598    0.0000 C   0  0  0  0  0  0  0  0  0  0  0  0
   14.0086   27.9332    0.0000 C   0  0  0  0  0  0  0  0  0  0  0  0
   14.3737   26.4783    0.0000 C   0  0  0  0  0  0  0  0  0  0  0  0
   14.6387   25.0019    0.0000 C   0  0  0  0  0  0  0  0  0  0  0  0
   14.8023   23.5108    0.0000 C   0  0  0  0  0  0  0  0  0  0  0  0
   14.8637   22.0121    0.0000 C   0  0  0  0  0  0  0  0  0  0  0  0
   14.8228   20.5126    0.0000 C   0  0  0  0  0  0  0  0  0  0  0  0
   14.6796   19.0195    0.0000 C   0  0  0  0  0  0  0  0  0  0  0  0
   14.4348   17.5396    0.0000 C   0  0  0  0  0  0  0  0  0  0  0  0
   14.0896   16.0799    0.0000 C   0  0  0  0  0  0  0  0  0  0  0  0
   13.6456   14.6471    0.0000 C   0  0  0  0  0  0  0  0  0  0  0  0
   13.1049   13.2479    0.0000 C   0  0  0  0  0  0  0  0  0  0  0  0
   12.4699   11.8890    0.0000 C   0  0  0  0  0  0  0  0  0  0  0  0
   11.7437   10.5765    0.0000 C   0  0  0  0  0  0  0  0  0  0  0  0
   10.9296    9.3166    0.0000 C   0  0  0  0  0  0  0  0  0  0  0  0
   10.0314    8.1152    0.0000 C   0  0  0  0  0  0  0  0  0  0  0  0
    9.0534    6.9780    0.0000 C   0  0  0  0  0  0  0  0  0  0  0  0
    8.0000    5.9101    0.0000 C   0  0  0  0  0  0  0  0  0  0  0  0
    6.8762    4.9166    0.0000 C   0  0  0  0  0  0  0  0  0  0  0  0
    5.6872    4.0021    0.0000 C   0  0  0  0  0  0  0  0  0  0  0  0
    4.4385    3.1709    0.0000 C   0  0  0  0  0  0  0  0  0  0  0  0
    3.1361    2.4268    0.0000 C   0  0  0  0  0  0  0  0  0  0  0  0
    1.7859    1.7733    0.0000 C   0  0  0  0  0  0  0  0  0  0  0  0
    0.3943    1.2135    0.0000 C   0  0  0  0  0  0  0  0  0  0  0  0
    1.2760    0.0000    0.0000 C   0  0  0  0  0  0  0  0  0  0  0  0
    0.3943   -1.2135    0.0000 C   0  0  0  0  0  0  0  0  0  0  0  0
   -1.0323   -0.7500    0.0000 C   0  0  0  0  0  0  0  0  0  0  0  0
   -1.0323    0.7500    0.0000 C   0  0  0  0  0  0  0  0  0  0  0  0
  1  2  1  0
  2  3  1  0
  3  4  1  0
  4  5  1  0
  5  6  1  0
  6  7  1  0
  7  8  1  0
  8  9  1  0
  9 10  1  0
 10 11  1  0
 11 12  1  0
 12 13  1  0
 13 14  1  0
 14 15  1  0
 15 16  1  0
 16 17  1  0
 17 18  1  0
 18 19  1  0
 19 20  1  0
 20 21  1  0
 21 22  1  0
 22 23  1  0
 23 24  1  0
 24 25  1  0
 25 26  1  0
 26 27  1  0
 27 28  1  0
 28 29  1  0
 29 30  1  0
 30 31  1  0
 31 32  1  0
 32 33  1  0
 33 34  1  0
 34 35  1  0
 35 36  1  0
 36 37  1  0
 37 38  1  0
 38 39  1  0
 39 40  1  0
 40 41  1  0
 41 42  1  0
 42 43  1  0
 43 44  1  0
 44 45  1  0
 45 46  1  0
 46 47  1  0
 47 48  1  0
 48 49  1  0
 49 50  1  0
 50 51  1  0
 51 52  1  0
 52 53  1  0
 53 54  1  0
 54 55  1  0
 55 56  1  0
 56 57  1  0
 57 58  1  0
 58 59  1  0
 59 60  1  0
 60 61  1  0
 61 62  1  0
 62 63  1  0
 63 64  1  0
 64 65  1  0
 65 66  1  0
 66 67  1  0
 67 68  1  0
 68 69  1  0
 69 70  1  0
 70 71  1  0
 71 72  1  0
 72 73  1  0
 73 74  1  0
 74 75  1  0
 75 76  1  0
 76 77  1  0
 77 78  1  0
 78 79  1  0
 79 80  1  0
 80 81  1  0
 81 82  1  0
 82 83  1  0
 83 84  1  0
 84 85  1  0
 85 86  1  0
 86 87  1  0
 87 88  2  0
 88 89  1  0
 89 90  2  0
 90 91  1  0
 91 92  2  0
 92 93  1  0
 93 94  2  0
 94 95  1  0
 95 96  2  0
 96  2  1  0
 96 92  1  0
M  END
>  <Title>  (205) 
idAAFYgen13

$$$$

     RDKit          2D

 40 45  0  0  0  0  0  0  0  0999 V2000
   -2.3737   -6.1885    0.0000 C   0  0  0  0  0  0  0  0  0  0  0  0
   -1.4095   -5.0395    0.0000 C   0  0  0  0  0  0  0  0  0  0  0  0
   -0.0000   -5.5525    0.0000 C   0  0  0  0  0  0  0  0  0  0  0  0
    1.4095   -5.0395    0.0000 C   0  0  0  0  0  0  0  0  0  0  0  0
    2.1595   -3.7404    0.0000 C   0  0  0  0  0  0  0  0  0  0  0  0
    1.8991   -2.2632    0.0000 C   0  0  0  0  0  0  0  0  0  0  0  0
    3.1981   -1.5132    0.0000 C   0  0  0  0  0  0  0  0  0  0  0  0
    3.1981   -0.0132    0.0000 O   0  0  0  0  0  0  0  0  0  0  0  0
    4.4971   -2.2632    0.0000 N   0  0  0  0  0  0  0  0  0  0  0  0
    5.7962   -1.5132    0.0000 C   0  0  0  0  0  0  0  0  0  0  0  0
    5.9530   -0.0214    0.0000 N   0  0  0  0  0  0  0  0  0  0  0  0
    7.4202    0.2904    0.0000 N   0  0  0  0  0  0  0  0  0  0  0  0
    8.1702   -1.0086    0.0000 N   0  0  0  0  0  0  0  0  0  0  0  0
    7.1665   -2.1233    0.0000 N   0  0  0  0  0  0  0  0  0  0  0  0
    7.4784   -3.5905    0.0000 N   0  0  0  0  0  0  0  0  0  0  0  0
    6.6614   -4.8486    0.0000 C   0  0  0  0  0  0  0  0  0  0  0  0
    7.9194   -5.6655    0.0000 C   0  0  0  0  0  0  0  0  0  0  0  0
    8.2313   -7.1327    0.0000 C   0  0  0  0  0  0  0  0  0  0  0  0
    9.6579   -7.5963    0.0000 O   0  0  0  0  0  0  0  0  0  0  0  0
    7.1166   -8.1364    0.0000 N   0  0  0  0  0  0  0  0  0  0  0  0
    7.4284   -9.6036    0.0000 C   0  0  0  0  0  0  0  0  0  0  0  0
    6.3137  -10.6073    0.0000 N   0  0  0  0  0  0  0  0  0  0  0  0
    6.6256  -12.0746    0.0000 N   0  0  0  0  0  0  0  0  0  0  0  0
    8.0522  -12.5381    0.0000 N   0  0  0  0  0  0  0  0  0  0  0  0
    9.1669  -11.5344    0.0000 N   0  0  0  0  0  0  0  0  0  0  0  0
    8.8550  -10.0672    0.0000 N   0  0  0  0  0  0  0  0  0  0  0  0
    8.7364   -4.4075    0.0000 C   0  0  0  0  0  0  0  0  0  0  0  0
   10.2036   -4.0956    0.0000 O   0  0  0  0  0  0  0  0  0  0  0  0
    0.7500   -1.2990    0.0000 C   0  0  0  0  0  0  0  0  0  0  0  0
    1.5000    0.0000    0.0000 C   0  0  0  0  0  0  0  0  0  0  0  0
    0.7500    1.2990    0.0000 C   0  0  0  0  0  0  0  0  0  0  0  0
   -0.7500    1.2990    0.0000 C   0  0  0  0  0  0  0  0  0  0  0  0
   -1.5000    0.0000    0.0000 C   0  0  0  0  0  0  0  0  0  0  0  0
   -0.7500   -1.2990    0.0000 C   0  0  0  0  0  0  0  0  0  0  0  0
   -1.8991   -2.2632    0.0000 C   0  0  0  0  0  0  0  0  0  0  0  0
   -3.0481   -1.2990    0.0000 C   0  0  0  0  0  0  0  0  0  0  0  0
   -4.4577   -1.8121    0.0000 C   0  0  0  0  0  0  0  0  0  0  0  0
   -4.7181   -3.2893    0.0000 C   0  0  0  0  0  0  0  0  0  0  0  0
   -3.5691   -4.2535    0.0000 C   0  0  0  0  0  0  0  0  0  0  0  0
   -2.1595   -3.7404    0.0000 C   0  0  0  0  0  0  0  0  0  0  0  0
  1  2  1  0
  2  3  1  0
  3  4  2  0
  4  5  1  0
  5  6  2  0
  6  7  1  0
  7  8  2  0
  7  9  1  0
  9 10  1  0
 10 11  2  0
 11 12  1  0
 12 13  2  0
 13 14  1  0
 14 15  1  0
 15 16  1  0
 16 17  2  0
 17 18  1  0
 18 19  2  0
 18 20  1  0
 20 21  1  0
 21 22  2  0
 22 23  1  0
 23 24  2  0
 24 25  1  0
 25 26  2  0
 17 27  1  0
 27 28  2  0
  6 29  1  0
 29 30  2  0
 30 31  1  0
 31 32  2  0
 32 33  1  0
 33 34  2  0
 34 35  1  0
 35 36  2  0
 36 37  1  0
 37 38  2  0
 38 39  1  0
 39 40  2  0
 40  2  1  0
 14 10  1  0
 27 15  1  0
 34 29  1  0
 40 35  1  0
 26 21  1  0
M  END
>  <Title>  (206) 
idAAFZgen13

$$$$

     RDKit          2D

 40 39  0  0  0  0  0  0  0  0999 V2000
    0.0000    0.0000    0.0000 C   0  0  0  0  0  0  0  0  0  0  0  0
   -0.0000   -1.5000    0.0000 C   0  0  0  0  0  0  0  0  0  0  0  0
   -0.0000   -3.0000    0.0000 C   0  0  0  0  0  0  0  0  0  0  0  0
   -0.0000   -4.5000    0.0000 C   0  0  0  0  0  0  0  0  0  0  0  0
   -0.0000   -6.0000    0.0000 C   0  0  0  0  0  0  0  0  0  0  0  0
   -0.0000   -7.5000    0.0000 C   0  0  0  0  0  0  0  0  0  0  0  0
   -0.0000   -9.0000    0.0000 C   0  0  0  0  0  0  0  0  0  0  0  0
   -0.0000  -10.5000    0.0000 C   0  0  0  0  0  0  0  0  0  0  0  0
   -0.0000  -12.0000    0.0000 C   0  0  0  0  0  0  0  0  0  0  0  0
   -0.0000  -13.5000    0.0000 C   0  0  0  0  0  0  0  0  0  0  0  0
   -0.0000  -15.0000    0.0000 C   0  0  0  0  0  0  0  0  0  0  0  0
   -0.0000  -16.5000    0.0000 C   0  0  0  0  0  0  0  0  0  0  0  0
   -0.0000  -18.0000    0.0000 C   0  0  0  0  0  0  0  0  0  0  0  0
   -0.0000  -19.5000    0.0000 C   0  0  0  0  0  0  0  0  0  0  0  0
   -0.0000  -21.0000    0.0000 C   0  0  0  0  0  0  0  0  0  0  0  0
   -0.0000  -22.5000    0.0000 C   0  0  0  0  0  0  0  0  0  0  0  0
   -0.0000  -24.0000    0.0000 C   0  0  0  0  0  0  0  0  0  0  0  0
   -0.0000  -25.5000    0.0000 C   0  0  0  0  0  0  0  0  0  0  0  0
   -0.0000  -27.0000    0.0000 C   0  0  0  0  0  0  0  0  0  0  0  0
   -0.0000  -28.5000    0.0000 C   0  0  0  0  0  0  0  0  0  0  0  0
   -0.0000  -30.0000    0.0000 C   0  0  0  0  0  0  0  0  0  0  0  0
   -0.0000  -31.5000    0.0000 C   0  0  0  0  0  0  0  0  0  0  0  0
   -0.0000  -33.0000    0.0000 C   0  0  0  0  0  0  0  0  0  0  0  0
   -0.0000  -34.5000    0.0000 C   0  0  0  0  0  0  0  0  0  0  0  0
   -0.0000  -36.0000    0.0000 C   0  0  0  0  0  0  0  0  0  0  0  0
   -0.0000  -37.5000    0.0000 C   0  0  0  0  0  0  0  0  0  0  0  0
   -0.0000  -39.0000    0.0000 C   0  0  0  0  0  0  0  0  0  0  0  0
   -0.0000  -40.5000    0.0000 C   0  0  0  0  0  0  0  0  0  0  0  0
   -0.0000  -42.0000    0.0000 C   0  0  0  0  0  0  0  0  0  0  0  0
   -0.0000  -43.5000    0.0000 C   0  0  0  0  0  0  0  0  0  0  0  0
   -0.0000  -45.0000    0.0000 C   0  0  0  0  0  0  0  0  0  0  0  0
   -0.0000  -46.5000    0.0000 C   0  0  0  0  0  0  0  0  0  0  0  0
   -0.0000  -48.0000    0.0000 C   0  0  0  0  0  0  0  0  0  0  0  0
   -0.0000  -49.5000    0.0000 C   0  0  0  0  0  0  0  0  0  0  0  0
   -0.0000  -51.0000    0.0000 C   0  0  0  0  0  0  0  0  0  0  0  0
   -0.0000  -52.5000    0.0000 C   0  0  0  0  0  0  0  0  0  0  0  0
   -0.0000  -54.0000    0.0000 C   0  0  0  0  0  0  0  0  0  0  0  0
    1.2990  -54.7500    0.0000 C   0  0  0  0  0  0  0  0  0  0  0  0
    1.2990  -56.2500    0.0000 C   0  0  0  0  0  0  0  0  0  0  0  0
    1.2990  -57.7500    0.0000 C   0  0  0  0  0  0  0  0  0  0  0  0
  1  2  3  0
  2  3  1  0
  3  4  3  0
  4  5  1  0
  5  6  3  0
  6  7  1  0
  7  8  3  0
  8  9  1  0
  9 10  3  0
 10 11  1  0
 11 12  3  0
 12 13  1  0
 13 14  3  0
 14 15  1  0
 15 16  3  0
 16 17  1  0
 17 18  3  0
 18 19  1  0
 19 20  3  0
 20 21  1  0
 21 22  3  0
 22 23  1  0
 23 24  3  0
 24 25  1  0
 25 26  3  0
 26 27  1  0
 27 28  3  0
 28 29  1  0
 29 30  3  0
 30 31  1  0
 31 32  3  0
 32 33  1  0
 33 34  3  0
 34 35  1  0
 35 36  3  0
 36 37  1  0
 37 38  2  3
 38 39  1  0
 39 40  3  0
M  END
>  <Title>  (207) 
idAAGAgen13

$$$$

     RDKit          2D

 37 41  0  0  0  0  0  0  0  0999 V2000
   -3.1965   -1.7857    0.0000 C   0  0  0  0  0  0  0  0  0  0  0  0
   -1.8107   -2.3597    0.0000 C   0  0  0  0  0  0  0  0  0  0  0  0
   -1.8107   -3.8597    0.0000 C   0  0  0  0  0  0  0  0  0  0  0  0
   -0.7500   -4.9204    0.0000 C   0  0  0  0  0  0  0  0  0  0  0  0
    0.7500   -4.9204    0.0000 C   0  0  0  0  0  0  0  0  0  0  0  0
    1.3240   -6.3062    0.0000 C   0  0  0  0  0  0  0  0  0  0  0  0
    2.8112   -6.5020    0.0000 O   0  0  0  0  0  0  0  0  0  0  0  0
    0.4109   -7.4962    0.0000 N   0  0  0  0  0  0  0  0  0  0  0  0
    0.9849   -8.8820    0.0000 C   0  0  0  0  0  0  0  0  0  0  0  0
    2.4435   -9.2322    0.0000 N   0  0  0  0  0  0  0  0  0  0  0  0
    2.5612  -10.7276    0.0000 N   0  0  0  0  0  0  0  0  0  0  0  0
    1.1753  -11.3016    0.0000 N   0  0  0  0  0  0  0  0  0  0  0  0
    0.2012  -10.1610    0.0000 N   0  0  0  0  0  0  0  0  0  0  0  0
   -1.2942  -10.2787    0.0000 C   0  0  0  0  0  0  0  0  0  0  0  0
   -2.0780  -11.5576    0.0000 C   0  0  0  0  0  0  0  0  0  0  0  0
   -3.5365  -11.2075    0.0000 C   0  0  0  0  0  0  0  0  0  0  0  0
   -3.6542   -9.7121    0.0000 C   0  0  0  0  0  0  0  0  0  0  0  0
   -4.9332   -8.9283    0.0000 C   0  0  0  0  0  0  0  0  0  0  0  0
   -6.2514   -9.6441    0.0000 O   0  0  0  0  0  0  0  0  0  0  0  0
   -4.8939   -7.4289    0.0000 N   0  0  0  0  0  0  0  0  0  0  0  0
   -6.1729   -6.6451    0.0000 C   0  0  0  0  0  0  0  0  0  0  0  0
   -6.1336   -5.1456    0.0000 N   0  0  0  0  0  0  0  0  0  0  0  0
   -7.4126   -4.3619    0.0000 N   0  0  0  0  0  0  0  0  0  0  0  0
   -8.7308   -5.0776    0.0000 N   0  0  0  0  0  0  0  0  0  0  0  0
   -8.7700   -6.5771    0.0000 N   0  0  0  0  0  0  0  0  0  0  0  0
   -7.4911   -7.3608    0.0000 N   0  0  0  0  0  0  0  0  0  0  0  0
   -2.2684   -9.1381    0.0000 C   0  0  0  0  0  0  0  0  0  0  0  0
   -1.9182   -7.6795    0.0000 O   0  0  0  0  0  0  0  0  0  0  0  0
    1.8107   -3.8597    0.0000 C   0  0  0  0  0  0  0  0  0  0  0  0
    3.1965   -4.4337    0.0000 O   0  0  0  0  0  0  0  0  0  0  0  0
    1.8107   -2.3597    0.0000 O   0  0  0  0  0  0  0  0  0  0  0  0
    0.7500   -1.2990    0.0000 C   0  0  0  0  0  0  0  0  0  0  0  0
    1.5000    0.0000    0.0000 C   0  0  0  0  0  0  0  0  0  0  0  0
    0.7500    1.2990    0.0000 C   0  0  0  0  0  0  0  0  0  0  0  0
   -0.7500    1.2990    0.0000 C   0  0  0  0  0  0  0  0  0  0  0  0
   -1.5000    0.0000    0.0000 C   0  0  0  0  0  0  0  0  0  0  0  0
   -0.7500   -1.2990    0.0000 C   0  0  0  0  0  0  0  0  0  0  0  0
  1  2  1  0
  2  3  1  0
  3  4  1  0
  4  5  1  0
  5  6  1  0
  6  7  2  0
  6  8  1  0
  8  9  1  0
  9 10  2  0
 10 11  1  0
 11 12  2  0
 12 13  1  0
 13 14  1  0
 14 15  2  0
 15 16  1  0
 16 17  2  0
 17 18  1  0
 18 19  2  0
 18 20  1  0
 20 21  1  0
 21 22  2  0
 22 23  1  0
 23 24  2  0
 24 25  1  0
 25 26  2  0
 17 27  1  0
 27 28  2  0
  5 29  1  0
 29 30  2  0
 29 31  1  0
 31 32  1  0
 32 33  2  0
 33 34  1  0
 34 35  2  0
 35 36  1  0
 36 37  2  0
 37  2  1  0
 13  9  1  0
 27 14  1  0
 37 32  1  0
 26 21  1  0
M  END
>  <Title>  (208) 
idAAGBgen13

$$$$

     RDKit          2D

 32 36  0  0  0  0  0  0  0  0999 V2000
   -3.0000   -2.5981    0.0000 C   0  0  0  0  0  0  0  0  0  0  0  0
   -1.5000   -2.5981    0.0000 C   0  0  0  0  0  0  0  0  0  0  0  0
   -0.7500   -3.8971    0.0000 C   0  0  0  0  0  0  0  0  0  0  0  0
    0.7500   -3.8971    0.0000 C   0  0  0  0  0  0  0  0  0  0  0  0
    1.5000   -2.5981    0.0000 C   0  0  0  0  0  0  0  0  0  0  0  0
    3.0000   -2.5981    0.0000 C   0  0  0  0  0  0  0  0  0  0  0  0
    3.7500   -1.2990    0.0000 O   0  0  0  0  0  0  0  0  0  0  0  0
    3.7500   -3.8971    0.0000 N   0  0  0  0  0  0  0  0  0  0  0  0
    5.2500   -3.8971    0.0000 C   0  0  0  0  0  0  0  0  0  0  0  0
    6.1317   -2.6836    0.0000 N   0  0  0  0  0  0  0  0  0  0  0  0
    7.5583   -3.1471    0.0000 N   0  0  0  0  0  0  0  0  0  0  0  0
    7.5583   -4.6471    0.0000 N   0  0  0  0  0  0  0  0  0  0  0  0
    6.1317   -5.1106    0.0000 N   0  0  0  0  0  0  0  0  0  0  0  0
    5.6682   -6.5372    0.0000 C   0  0  0  0  0  0  0  0  0  0  0  0
    6.5498   -7.7508    0.0000 C   0  0  0  0  0  0  0  0  0  0  0  0
    5.6682   -8.9643    0.0000 C   0  0  0  0  0  0  0  0  0  0  0  0
    4.2416   -8.5008    0.0000 C   0  0  0  0  0  0  0  0  0  0  0  0
    3.0280   -9.3824    0.0000 O   0  0  0  0  0  0  0  0  0  0  0  0
    1.6577   -8.7723    0.0000 C   0  0  0  0  0  0  0  0  0  0  0  0
    1.5009   -7.2805    0.0000 N   0  0  0  0  0  0  0  0  0  0  0  0
    0.1306   -6.6704    0.0000 N   0  0  0  0  0  0  0  0  0  0  0  0
   -1.0829   -7.5521    0.0000 N   0  0  0  0  0  0  0  0  0  0  0  0
   -0.9261   -9.0439    0.0000 N   0  0  0  0  0  0  0  0  0  0  0  0
    0.4442   -9.6540    0.0000 N   0  0  0  0  0  0  0  0  0  0  0  0
    4.2416   -7.0008    0.0000 C   0  0  0  0  0  0  0  0  0  0  0  0
    3.0280   -6.1191    0.0000 O   0  0  0  0  0  0  0  0  0  0  0  0
    0.7500   -1.2990    0.0000 C   0  0  0  0  0  0  0  0  0  0  0  0
    1.5000    0.0000    0.0000 C   0  0  0  0  0  0  0  0  0  0  0  0
    0.7500    1.2990    0.0000 C   0  0  0  0  0  0  0  0  0  0  0  0
   -0.7500    1.2990    0.0000 C   0  0  0  0  0  0  0  0  0  0  0  0
   -1.5000    0.0000    0.0000 C   0  0  0  0  0  0  0  0  0  0  0  0
   -0.7500   -1.2990    0.0000 C   0  0  0  0  0  0  0  0  0  0  0  0
  1  2  1  0
  2  3  1  0
  3  4  1  0
  4  5  1  0
  5  6  1  0
  6  7  2  0
  6  8  1  0
  8  9  1  0
  9 10  2  0
 10 11  1  0
 11 12  2  0
 12 13  1  0
 13 14  1  0
 14 15  2  0
 15 16  1  0
 16 17  2  0
 17 18  1  0
 18 19  1  0
 19 20  2  0
 20 21  1  0
 21 22  2  0
 22 23  1  0
 23 24  2  0
 17 25  1  0
 25 26  2  0
  5 27  1  0
 27 28  2  0
 28 29  1  0
 29 30  2  0
 30 31  1  0
 31 32  2  0
 32  2  1  0
 13  9  1  0
 25 14  1  0
 32 27  1  0
 24 19  1  0
M  END
>  <Title>  (209) 
idAAGCgen13

$$$$

     RDKit          2D

 44 49  0  0  0  0  0  0  0  0999 V2000
   -4.2338   -8.2890    0.0000 C   0  0  0  0  0  0  0  0  0  0  0  0
   -3.0203   -7.4073    0.0000 C   0  0  0  0  0  0  0  0  0  0  0  0
   -3.1771   -5.9156    0.0000 C   0  0  0  0  0  0  0  0  0  0  0  0
   -1.9635   -5.0339    0.0000 C   0  0  0  0  0  0  0  0  0  0  0  0
   -0.7500   -5.9156    0.0000 C   0  0  0  0  0  0  0  0  0  0  0  0
    0.7500   -5.9156    0.0000 C   0  0  0  0  0  0  0  0  0  0  0  0
    1.9635   -5.0339    0.0000 C   0  0  0  0  0  0  0  0  0  0  0  0
    2.4271   -3.6073    0.0000 C   0  0  0  0  0  0  0  0  0  0  0  0
    1.9635   -2.1807    0.0000 C   0  0  0  0  0  0  0  0  0  0  0  0
    3.1771   -1.2990    0.0000 C   0  0  0  0  0  0  0  0  0  0  0  0
    3.0203    0.1927    0.0000 O   0  0  0  0  0  0  0  0  0  0  0  0
    4.5474   -1.9091    0.0000 N   0  0  0  0  0  0  0  0  0  0  0  0
    5.7609   -1.0275    0.0000 C   0  0  0  0  0  0  0  0  0  0  0  0
    5.7609    0.4725    0.0000 N   0  0  0  0  0  0  0  0  0  0  0  0
    7.1875    0.9361    0.0000 N   0  0  0  0  0  0  0  0  0  0  0  0
    8.0692   -0.2775    0.0000 N   0  0  0  0  0  0  0  0  0  0  0  0
    7.1875   -1.4910    0.0000 N   0  0  0  0  0  0  0  0  0  0  0  0
    7.6510   -2.9176    0.0000 N   0  0  0  0  0  0  0  0  0  0  0  0
    9.0776   -3.3811    0.0000 C   0  0  0  0  0  0  0  0  0  0  0  0
    9.0776   -4.8811    0.0000 C   0  0  0  0  0  0  0  0  0  0  0  0
    7.6510   -5.3446    0.0000 N   0  0  0  0  0  0  0  0  0  0  0  0
    7.1875   -6.7712    0.0000 C   0  0  0  0  0  0  0  0  0  0  0  0
    8.1912   -7.8859    0.0000 O   0  0  0  0  0  0  0  0  0  0  0  0
    5.7203   -7.0831    0.0000 N   0  0  0  0  0  0  0  0  0  0  0  0
    5.2567   -8.5097    0.0000 C   0  0  0  0  0  0  0  0  0  0  0  0
    3.7895   -8.8215    0.0000 N   0  0  0  0  0  0  0  0  0  0  0  0
    3.3260  -10.2481    0.0000 N   0  0  0  0  0  0  0  0  0  0  0  0
    4.3297  -11.3628    0.0000 N   0  0  0  0  0  0  0  0  0  0  0  0
    5.7969  -11.0510    0.0000 N   0  0  0  0  0  0  0  0  0  0  0  0
    6.2604   -9.6244    0.0000 N   0  0  0  0  0  0  0  0  0  0  0  0
    6.7693   -4.1311    0.0000 C   0  0  0  0  0  0  0  0  0  0  0  0
    5.2693   -4.1311    0.0000 O   0  0  0  0  0  0  0  0  0  0  0  0
    0.7500   -1.2990    0.0000 C   0  0  0  0  0  0  0  0  0  0  0  0
    1.5000    0.0000    0.0000 C   0  0  0  0  0  0  0  0  0  0  0  0
    0.7500    1.2990    0.0000 C   0  0  0  0  0  0  0  0  0  0  0  0
   -0.7500    1.2990    0.0000 C   0  0  0  0  0  0  0  0  0  0  0  0
   -1.5000    0.0000    0.0000 C   0  0  0  0  0  0  0  0  0  0  0  0
   -0.7500   -1.2990    0.0000 C   0  0  0  0  0  0  0  0  0  0  0  0
   -1.9635   -2.1807    0.0000 C   0  0  0  0  0  0  0  0  0  0  0  0
   -2.9672   -1.0660    0.0000 C   0  0  0  0  0  0  0  0  0  0  0  0
   -4.4344   -1.3779    0.0000 C   0  0  0  0  0  0  0  0  0  0  0  0
   -4.8980   -2.8045    0.0000 C   0  0  0  0  0  0  0  0  0  0  0  0
   -3.8943   -3.9192    0.0000 C   0  0  0  0  0  0  0  0  0  0  0  0
   -2.4271   -3.6073    0.0000 C   0  0  0  0  0  0  0  0  0  0  0  0
  1  2  1  0
  2  3  1  0
  3  4  1  0
  4  5  1  0
  5  6  1  0
  6  7  1  0
  7  8  1  0
  8  9  1  0
  9 10  1  0
 10 11  2  0
 10 12  1  0
 12 13  1  0
 13 14  2  0
 14 15  1  0
 15 16  2  0
 16 17  1  0
 17 18  1  0
 18 19  1  0
 19 20  1  0
 20 21  1  0
 21 22  1  0
 22 23  2  0
 22 24  1  0
 24 25  1  0
 25 26  2  0
 26 27  1  0
 27 28  2  0
 28 29  1  0
 29 30  2  0
 21 31  1  0
 31 32  2  0
  9 33  1  0
 33 34  2  0
 34 35  1  0
 35 36  2  0
 36 37  1  0
 37 38  2  0
 38 39  1  0
 39 40  2  0
 40 41  1  0
 41 42  2  0
 42 43  1  0
 43 44  2  0
 44  4  1  0
 17 13  1  0
 31 18  1  0
 38 33  1  0
 44 39  1  0
 30 25  1  0
M  END
>  <Title>  (210) 
idAAGDgen13

$$$$

     RDKit          2D

  3  2  0  0  0  0  0  0  0  0999 V2000
    0.0000    0.0000    0.0000 C   0  0  0  0  0  0  0  0  0  0  0  0
    1.2990    0.7500    0.0000 O   0  0  0  0  0  0  0  0  0  0  0  0
    2.5981   -0.0000    0.0000 C   0  0  0  0  0  0  0  0  0  0  0  0
  1  2  1  0
  2  3  1  0
M  END
>  <Title>  (211) 
idAAGEgen13

$$$$

     RDKit          2D

 24 24  0  0  0  0  0  0  0  0999 V2000
   28.5000    0.0000    0.0000 C   0  0  0  0  0  0  0  0  0  0  0  0
   27.0000    0.0000    0.0000 C   0  0  0  0  0  0  0  0  0  0  0  0
   25.5000    0.0000    0.0000 C   0  0  0  0  0  0  0  0  0  0  0  0
   24.0000    0.0000    0.0000 C   0  0  0  0  0  0  0  0  0  0  0  0
   22.5000    0.0000    0.0000 C   0  0  0  0  0  0  0  0  0  0  0  0
   21.0000    0.0000    0.0000 C   0  0  0  0  0  0  0  0  0  0  0  0
   19.5000    0.0000    0.0000 C   0  0  0  0  0  0  0  0  0  0  0  0
   18.0000    0.0000    0.0000 C   0  0  0  0  0  0  0  0  0  0  0  0
   16.5000    0.0000    0.0000 C   0  0  0  0  0  0  0  0  0  0  0  0
   15.0000    0.0000    0.0000 C   0  0  0  0  0  0  0  0  0  0  0  0
   13.5000    0.0000    0.0000 C   0  0  0  0  0  0  0  0  0  0  0  0
   12.0000    0.0000    0.0000 C   0  0  0  0  0  0  0  0  0  0  0  0
   10.5000    0.0000    0.0000 C   0  0  0  0  0  0  0  0  0  0  0  0
    9.0000    0.0000    0.0000 C   0  0  0  0  0  0  0  0  0  0  0  0
    7.5000    0.0000    0.0000 C   0  0  0  0  0  0  0  0  0  0  0  0
    6.0000    0.0000    0.0000 C   0  0  0  0  0  0  0  0  0  0  0  0
    4.5000    0.0000    0.0000 C   0  0  0  0  0  0  0  0  0  0  0  0
    3.0000    0.0000    0.0000 C   0  0  0  0  0  0  0  0  0  0  0  0
    1.5000    0.0000    0.0000 C   0  0  0  0  0  0  0  0  0  0  0  0
    0.7500   -1.2990    0.0000 C   0  0  0  0  0  0  0  0  0  0  0  0
   -0.7500   -1.2990    0.0000 C   0  0  0  0  0  0  0  0  0  0  0  0
   -1.5000    0.0000    0.0000 C   0  0  0  0  0  0  0  0  0  0  0  0
   -0.7500    1.2990    0.0000 C   0  0  0  0  0  0  0  0  0  0  0  0
    0.7500    1.2990    0.0000 C   0  0  0  0  0  0  0  0  0  0  0  0
  1  2  3  0
  2  3  1  0
  3  4  3  0
  4  5  1  0
  5  6  3  0
  6  7  1  0
  7  8  3  0
  8  9  1  0
  9 10  3  0
 10 11  1  0
 11 12  3  0
 12 13  1  0
 13 14  3  0
 14 15  1  0
 15 16  3  0
 16 17  1  0
 17 18  3  0
 18 19  1  0
 19 20  2  0
 20 21  1  0
 21 22  2  0
 22 23  1  0
 23 24  2  0
 24 19  1  0
M  END
>  <Title>  (212) 
idAAGFgen13

$$$$

     RDKit          2D

 16 17  0  0  0  0  0  0  0  0999 V2000
    5.7760    2.5981    0.0000 C   0  0  0  0  0  0  0  0  0  0  0  0
    5.0260    1.2990    0.0000 C   0  0  0  0  0  0  0  0  0  0  0  0
    5.7760   -0.0000    0.0000 C   0  0  0  0  0  0  0  0  0  0  0  0
    3.5260    1.2990    0.0000 C   0  0  0  0  0  0  0  0  0  0  0  0
    2.7760    2.5981    0.0000 O   0  0  0  0  0  0  0  0  0  0  0  0
    2.7760    0.0000    0.0000 N   0  0  0  0  0  0  0  0  0  0  0  0
    1.2760    0.0000    0.0000 C   0  0  0  0  0  0  0  0  0  0  0  0
    0.3943    1.2135    0.0000 N   0  0  0  0  0  0  0  0  0  0  0  0
   -1.0323    0.7500    0.0000 N   0  0  0  0  0  0  0  0  0  0  0  0
   -1.0323   -0.7500    0.0000 N   0  0  0  0  0  0  0  0  0  0  0  0
    0.3943   -1.2135    0.0000 N   0  0  0  0  0  0  0  0  0  0  0  0
    0.8578   -2.6401    0.0000 C   0  0  0  0  0  0  0  0  0  0  0  0
   -0.0239   -3.8536    0.0000 C   0  0  0  0  0  0  0  0  0  0  0  0
    0.8578   -5.0672    0.0000 C   0  0  0  0  0  0  0  0  0  0  0  0
    2.2844   -4.6036    0.0000 C   0  0  0  0  0  0  0  0  0  0  0  0
    2.2844   -3.1036    0.0000 C   0  0  0  0  0  0  0  0  0  0  0  0
  1  2  1  0
  2  3  1  0
  2  4  1  0
  4  5  2  0
  4  6  1  0
  6  7  1  0
  7  8  2  0
  8  9  1  0
  9 10  2  0
 10 11  1  0
 11 12  1  0
 12 13  2  0
 13 14  1  0
 14 15  2  0
 15 16  1  0
 11  7  1  0
 16 12  1  0
M  END
>  <Title>  (213) 
idAAGGgen13

$$$$

     RDKit          2D

 10 11  0  0  0  0  0  0  0  0999 V2000
    2.7760    0.0000    0.0000 C   0  0  0  0  0  0  0  0  0  0  0  0
    1.2760    0.0000    0.0000 C   0  0  0  0  0  0  0  0  0  0  0  0
    0.3943    1.2135    0.0000 N   0  0  0  0  0  0  0  0  0  0  0  0
   -1.0323    0.7500    0.0000 C   0  0  0  0  0  0  0  0  0  0  0  0
   -1.0323   -0.7500    0.0000 N   0  0  0  0  0  0  0  0  0  0  0  0
    0.3943   -1.2135    0.0000 N   0  0  0  0  0  0  0  0  0  0  0  0
    0.8578   -2.6401    0.0000 N   0  0  0  0  0  0  0  0  0  0  0  0
    0.1768   -3.9766    0.0000 C   0  0  0  0  0  0  0  0  0  0  0  0
    1.5133   -4.6576    0.0000 C   0  0  0  0  0  0  0  0  0  0  0  0
    2.1943   -3.3211    0.0000 C   0  0  0  0  0  0  0  0  0  0  0  0
  1  2  1  0
  2  3  2  0
  3  4  1  0
  4  5  2  0
  5  6  1  0
  6  7  1  0
  7  8  1  0
  8  9  2  0
  9 10  1  0
  6  2  1  0
 10  7  1  0
M  END
>  <Title>  (214) 
idAAGHgen13

$$$$

     RDKit          2D

 12 11  0  0  0  0  0  0  0  0999 V2000
    0.0000    0.0000    0.0000 C   0  0  0  0  0  0  0  0  0  0  0  0
   -0.0000   -1.5000    0.0000 C   0  0  0  0  0  0  0  0  0  0  0  0
   -0.0000   -3.0000    0.0000 C   0  0  0  0  0  0  0  0  0  0  0  0
    1.2990   -3.7500    0.0000 C   0  0  0  0  0  0  0  0  0  0  0  0
    1.2990   -5.2500    0.0000 C   0  0  0  0  0  0  0  0  0  0  0  0
   -0.0000   -6.0000    0.0000 O   0  0  0  0  0  0  0  0  0  0  0  0
    2.5981   -6.0000    0.0000 N   0  0  0  0  0  0  0  0  0  0  0  0
    2.5981   -7.5000    0.0000 C   0  0  0  0  0  0  0  0  0  0  0  0
    1.2990   -8.2500    0.0000 O   0  0  0  0  0  0  0  0  0  0  0  0
    3.8971   -8.2500    0.0000 C   0  0  0  0  0  0  0  0  0  0  0  0
    3.8971   -9.7500    0.0000 C   0  0  0  0  0  0  0  0  0  0  0  0
    5.1962  -10.5000    0.0000 C   0  0  0  0  0  0  0  0  0  0  0  0
  1  2  3  0
  2  3  1  0
  3  4  1  0
  4  5  1  0
  5  6  2  0
  5  7  1  0
  7  8  1  0
  8  9  2  0
  8 10  1  0
 10 11  1  0
 11 12  1  0
M  END
>  <Title>  (215) 
idAAGIgen13

$$$$

     RDKit          2D

 60 60  0  0  0  0  0  0  0  0999 V2000
   15.5919    0.0000    0.0000 C   0  0  0  0  0  0  0  0  0  0  0  0
   14.0919    0.0000    0.0000 C   0  0  0  0  0  0  0  0  0  0  0  0
   14.0120    1.4979    0.0000 C   0  0  0  0  0  0  0  0  0  0  0  0
   13.7734    2.9788    0.0000 C   0  0  0  0  0  0  0  0  0  0  0  0
   13.3788    4.4259    0.0000 C   0  0  0  0  0  0  0  0  0  0  0  0
   12.8325    5.8229    0.0000 C   0  0  0  0  0  0  0  0  0  0  0  0
   12.1409    7.1540    0.0000 C   0  0  0  0  0  0  0  0  0  0  0  0
   11.3117    8.4039    0.0000 C   0  0  0  0  0  0  0  0  0  0  0  0
   10.3543    9.5587    0.0000 C   0  0  0  0  0  0  0  0  0  0  0  0
    9.2797   10.6051    0.0000 C   0  0  0  0  0  0  0  0  0  0  0  0
    8.0998   11.5314    0.0000 C   0  0  0  0  0  0  0  0  0  0  0  0
    6.8282   12.3270    0.0000 C   0  0  0  0  0  0  0  0  0  0  0  0
    5.4793   12.9830    0.0000 C   0  0  0  0  0  0  0  0  0  0  0  0
    4.0682   13.4919    0.0000 C   0  0  0  0  0  0  0  0  0  0  0  0
    2.6111   13.8479    0.0000 C   0  0  0  0  0  0  0  0  0  0  0  0
    1.1243   14.0469    0.0000 C   0  0  0  0  0  0  0  0  0  0  0  0
   -0.3751   14.0869    0.0000 C   0  0  0  0  0  0  0  0  0  0  0  0
   -1.8704   13.9672    0.0000 C   0  0  0  0  0  0  0  0  0  0  0  0
   -3.3444   13.6893    0.0000 C   0  0  0  0  0  0  0  0  0  0  0  0
   -4.7805   13.2562    0.0000 C   0  0  0  0  0  0  0  0  0  0  0  0
   -6.1625   12.6730    0.0000 C   0  0  0  0  0  0  0  0  0  0  0  0
   -7.4746   11.9462    0.0000 C   0  0  0  0  0  0  0  0  0  0  0  0
   -8.7021   11.0840    0.0000 C   0  0  0  0  0  0  0  0  0  0  0  0
   -9.8309   10.0962    0.0000 C   0  0  0  0  0  0  0  0  0  0  0  0
  -10.8484    8.9941    0.0000 C   0  0  0  0  0  0  0  0  0  0  0  0
  -11.7430    7.7900    0.0000 C   0  0  0  0  0  0  0  0  0  0  0  0
  -12.5045    6.4977    0.0000 C   0  0  0  0  0  0  0  0  0  0  0  0
  -13.1243    5.1317    0.0000 C   0  0  0  0  0  0  0  0  0  0  0  0
  -13.5954    3.7076    0.0000 C   0  0  0  0  0  0  0  0  0  0  0  0
  -13.9125    2.2415    0.0000 C   0  0  0  0  0  0  0  0  0  0  0  0
  -14.0719    0.7500    0.0000 C   0  0  0  0  0  0  0  0  0  0  0  0
  -14.0719   -0.7500    0.0000 C   0  0  0  0  0  0  0  0  0  0  0  0
  -13.9125   -2.2415    0.0000 C   0  0  0  0  0  0  0  0  0  0  0  0
  -13.5954   -3.7076    0.0000 C   0  0  0  0  0  0  0  0  0  0  0  0
  -13.1243   -5.1317    0.0000 C   0  0  0  0  0  0  0  0  0  0  0  0
  -12.5045   -6.4977    0.0000 C   0  0  0  0  0  0  0  0  0  0  0  0
  -11.7430   -7.7900    0.0000 C   0  0  0  0  0  0  0  0  0  0  0  0
  -10.8484   -8.9941    0.0000 C   0  0  0  0  0  0  0  0  0  0  0  0
   -9.8309  -10.0962    0.0000 C   0  0  0  0  0  0  0  0  0  0  0  0
   -8.7021  -11.0840    0.0000 C   0  0  0  0  0  0  0  0  0  0  0  0
   -7.4746  -11.9462    0.0000 C   0  0  0  0  0  0  0  0  0  0  0  0
   -6.1625  -12.6730    0.0000 C   0  0  0  0  0  0  0  0  0  0  0  0
   -4.7805  -13.2562    0.0000 C   0  0  0  0  0  0  0  0  0  0  0  0
   -3.3444  -13.6893    0.0000 C   0  0  0  0  0  0  0  0  0  0  0  0
   -1.8704  -13.9672    0.0000 C   0  0  0  0  0  0  0  0  0  0  0  0
   -0.3751  -14.0869    0.0000 C   0  0  0  0  0  0  0  0  0  0  0  0
    1.1243  -14.0469    0.0000 C   0  0  0  0  0  0  0  0  0  0  0  0
    2.6111  -13.8479    0.0000 C   0  0  0  0  0  0  0  0  0  0  0  0
    4.0682  -13.4919    0.0000 C   0  0  0  0  0  0  0  0  0  0  0  0
    5.4793  -12.9830    0.0000 C   0  0  0  0  0  0  0  0  0  0  0  0
    6.8282  -12.3270    0.0000 C   0  0  0  0  0  0  0  0  0  0  0  0
    8.0998  -11.5314    0.0000 C   0  0  0  0  0  0  0  0  0  0  0  0
    9.2797  -10.6051    0.0000 C   0  0  0  0  0  0  0  0  0  0  0  0
   10.3543   -9.5587    0.0000 C   0  0  0  0  0  0  0  0  0  0  0  0
   11.3117   -8.4039    0.0000 C   0  0  0  0  0  0  0  0  0  0  0  0
   12.1409   -7.1540    0.0000 C   0  0  0  0  0  0  0  0  0  0  0  0
   12.8325   -5.8229    0.0000 C   0  0  0  0  0  0  0  0  0  0  0  0
   13.3788   -4.4259    0.0000 C   0  0  0  0  0  0  0  0  0  0  0  0
   13.7734   -2.9788    0.0000 C   0  0  0  0  0  0  0  0  0  0  0  0
   14.0120   -1.4979    0.0000 C   0  0  0  0  0  0  0  0  0  0  0  0
  1  2  1  0
  2  3  1  0
  3  4  1  0
  4  5  1  0
  5  6  1  0
  6  7  1  0
  7  8  1  0
  8  9  1  0
  9 10  1  0
 10 11  1  0
 11 12  1  0
 12 13  1  0
 13 14  1  0
 14 15  1  0
 15 16  1  0
 16 17  1  0
 17 18  1  0
 18 19  1  0
 19 20  1  0
 20 21  1  0
 21 22  1  0
 22 23  1  0
 23 24  1  0
 24 25  1  0
 25 26  1  0
 26 27  1  0
 27 28  1  0
 28 29  1  0
 29 30  1  0
 30 31  1  0
 31 32  1  0
 32 33  1  0
 33 34  1  0
 34 35  1  0
 35 36  1  0
 36 37  1  0
 37 38  1  0
 38 39  1  0
 39 40  1  0
 40 41  1  0
 41 42  1  0
 42 43  1  0
 43 44  1  0
 44 45  1  0
 45 46  1  0
 46 47  1  0
 47 48  1  0
 48 49  1  0
 49 50  1  0
 50 51  1  0
 51 52  1  0
 52 53  1  0
 53 54  1  0
 54 55  1  0
 55 56  1  0
 56 57  1  0
 57 58  1  0
 58 59  1  0
 59 60  1  0
 60  2  1  0
M  END
>  <Title>  (216) 
idAAGJgen13

$$$$

     RDKit          2D

 18 19  0  0  0  0  0  0  0  0999 V2000
  -10.7882   -5.4888    0.0000 C   0  0  0  0  0  0  0  0  0  0  0  0
   -9.3393   -5.8770    0.0000 C   0  0  0  0  0  0  0  0  0  0  0  0
   -8.9511   -7.3259    0.0000 O   0  0  0  0  0  0  0  0  0  0  0  0
   -8.2786   -4.8163    0.0000 N   0  0  0  0  0  0  0  0  0  0  0  0
   -6.8298   -5.2046    0.0000 C   0  0  0  0  0  0  0  0  0  0  0  0
   -5.7691   -4.1439    0.0000 C   0  0  0  0  0  0  0  0  0  0  0  0
   -4.3202   -4.5321    0.0000 N   0  0  0  0  0  0  0  0  0  0  0  0
   -3.2595   -3.4715    0.0000 N   0  0  0  0  0  0  0  0  0  0  0  0
   -1.8107   -3.8597    0.0000 N   0  0  0  0  0  0  0  0  0  0  0  0
   -0.7500   -2.7990    0.0000 N   0  0  0  0  0  0  0  0  0  0  0  0
    0.7500   -2.7990    0.0000 C   0  0  0  0  0  0  0  0  0  0  0  0
    0.7500   -1.2990    0.0000 C   0  0  0  0  0  0  0  0  0  0  0  0
    1.5000    0.0000    0.0000 C   0  0  0  0  0  0  0  0  0  0  0  0
    0.7500    1.2990    0.0000 C   0  0  0  0  0  0  0  0  0  0  0  0
   -0.7500    1.2990    0.0000 C   0  0  0  0  0  0  0  0  0  0  0  0
   -1.5000    2.5981    0.0000 O   0  0  0  0  0  0  0  0  0  0  0  0
   -1.5000    0.0000    0.0000 C   0  0  0  0  0  0  0  0  0  0  0  0
   -0.7500   -1.2990    0.0000 C   0  0  0  0  0  0  0  0  0  0  0  0
  1  2  1  0
  2  3  2  0
  2  4  1  0
  4  5  1  0
  5  6  1  0
  6  7  2  3
  7  8  1  0
  8  9  2  3
  9 10  1  0
 10 11  1  0
 11 12  1  0
 12 13  2  0
 13 14  1  0
 14 15  2  0
 15 16  1  0
 15 17  1  0
 17 18  2  0
 18 10  1  0
 18 12  1  0
M  END
>  <Title>  (217) 
idAAGKgen13

$$$$

     RDKit          2D

  5  4  0  0  0  0  0  0  0  0999 V2000
    0.0000    0.0000    0.0000 C   0  0  0  0  0  0  0  0  0  0  0  0
   -0.0000   -1.5000    0.0000 C   0  0  0  0  0  0  0  0  0  0  0  0
   -0.0000   -3.0000    0.0000 C   0  0  0  0  0  0  0  0  0  0  0  0
    1.2990   -3.7500    0.0000 C   0  0  0  0  0  0  0  0  0  0  0  0
    1.2990   -5.2500    0.0000 C   0  0  0  0  0  0  0  0  0  0  0  0
  1  2  3  0
  2  3  1  0
  3  4  1  0
  4  5  1  0
M  END
>  <Title>  (218) 
idAAGLgen13

$$$$

     RDKit          2D

 30 34  0  0  0  0  0  0  0  0999 V2000
   -2.6401   -3.1891    0.0000 C   0  0  0  0  0  0  0  0  0  0  0  0
   -1.2135   -2.7256    0.0000 C   0  0  0  0  0  0  0  0  0  0  0  0
   -0.0000   -3.6073    0.0000 C   0  0  0  0  0  0  0  0  0  0  0  0
    1.2135   -2.7256    0.0000 C   0  0  0  0  0  0  0  0  0  0  0  0
    2.6401   -3.1891    0.0000 C   0  0  0  0  0  0  0  0  0  0  0  0
    3.8536   -2.3075    0.0000 C   0  0  0  0  0  0  0  0  0  0  0  0
    5.0672   -3.1891    0.0000 C   0  0  0  0  0  0  0  0  0  0  0  0
    4.6036   -4.6157    0.0000 N   0  0  0  0  0  0  0  0  0  0  0  0
    3.1036   -4.6157    0.0000 N   0  0  0  0  0  0  0  0  0  0  0  0
    2.2220   -5.8293    0.0000 N   0  0  0  0  0  0  0  0  0  0  0  0
    2.6855   -7.2558    0.0000 C   0  0  0  0  0  0  0  0  0  0  0  0
    1.4720   -8.1375    0.0000 C   0  0  0  0  0  0  0  0  0  0  0  0
    0.2584   -7.2558    0.0000 C   0  0  0  0  0  0  0  0  0  0  0  0
   -1.1682   -7.7194    0.0000 C   0  0  0  0  0  0  0  0  0  0  0  0
   -1.4800   -9.1866    0.0000 O   0  0  0  0  0  0  0  0  0  0  0  0
   -2.2829   -6.7157    0.0000 N   0  0  0  0  0  0  0  0  0  0  0  0
   -3.7095   -7.1792    0.0000 C   0  0  0  0  0  0  0  0  0  0  0  0
   -4.8242   -6.1755    0.0000 N   0  0  0  0  0  0  0  0  0  0  0  0
   -6.2508   -6.6390    0.0000 N   0  0  0  0  0  0  0  0  0  0  0  0
   -6.5626   -8.1062    0.0000 N   0  0  0  0  0  0  0  0  0  0  0  0
   -5.4479   -9.1099    0.0000 N   0  0  0  0  0  0  0  0  0  0  0  0
   -4.0213   -8.6464    0.0000 N   0  0  0  0  0  0  0  0  0  0  0  0
    0.7220   -5.8293    0.0000 C   0  0  0  0  0  0  0  0  0  0  0  0
   -0.1597   -4.6157    0.0000 O   0  0  0  0  0  0  0  0  0  0  0  0
    0.7500   -1.2990    0.0000 C   0  0  0  0  0  0  0  0  0  0  0  0
    1.5000    0.0000    0.0000 C   0  0  0  0  0  0  0  0  0  0  0  0
    0.7500    1.2990    0.0000 C   0  0  0  0  0  0  0  0  0  0  0  0
   -0.7500    1.2990    0.0000 C   0  0  0  0  0  0  0  0  0  0  0  0
   -1.5000    0.0000    0.0000 C   0  0  0  0  0  0  0  0  0  0  0  0
   -0.7500   -1.2990    0.0000 C   0  0  0  0  0  0  0  0  0  0  0  0
  1  2  1  0
  2  3  2  0
  3  4  1  0
  4  5  1  0
  5  6  2  0
  6  7  1  0
  7  8  2  0
  8  9  1  0
  9 10  1  0
 10 11  1  0
 11 12  1  0
 12 13  2  0
 13 14  1  0
 14 15  2  0
 14 16  1  0
 16 17  1  0
 17 18  2  0
 18 19  1  0
 19 20  2  0
 20 21  1  0
 21 22  2  0
 13 23  1  0
 23 24  2  0
  4 25  1  0
 25 26  2  0
 26 27  1  0
 27 28  2  0
 28 29  1  0
 29 30  2  0
 30  2  1  0
  9  5  1  0
 23 10  1  0
 30 25  1  0
 22 17  1  0
M  END
>  <Title>  (219) 
idAAGMgen13

$$$$

     RDKit          2D

  8  8  0  0  0  0  0  0  0  0999 V2000
    3.2286   -0.0000    0.0000 C   0  0  0  0  0  0  0  0  0  0  0  0
    1.7286    0.0000    0.0000 C   0  0  0  0  0  0  0  0  0  0  0  0
    1.0777    1.3515    0.0000 C   0  0  0  0  0  0  0  0  0  0  0  0
   -0.3846    1.6852    0.0000 C   0  0  0  0  0  0  0  0  0  0  0  0
   -1.5574    0.7500    0.0000 C   0  0  0  0  0  0  0  0  0  0  0  0
   -1.5574   -0.7500    0.0000 C   0  0  0  0  0  0  0  0  0  0  0  0
   -0.3846   -1.6852    0.0000 C   0  0  0  0  0  0  0  0  0  0  0  0
    1.0777   -1.3515    0.0000 C   0  0  0  0  0  0  0  0  0  0  0  0
  1  2  1  0
  2  3  1  0
  3  4  1  0
  4  5  1  0
  5  6  1  0
  6  7  1  0
  7  8  1  0
  8  2  1  0
M  END
>  <Title>  (220) 
idAAGNgen13

$$$$

     RDKit          2D

  6  6  0  0  0  0  0  0  0  0999 V2000
    2.7760    0.0000    0.0000 C   0  0  0  0  0  0  0  0  0  0  0  0
    1.2760    0.0000    0.0000 C   0  0  0  0  0  0  0  0  0  0  0  0
    0.3943    1.2135    0.0000 C   0  0  0  0  0  0  0  0  0  0  0  0
   -1.0323    0.7500    0.0000 C   0  0  0  0  0  0  0  0  0  0  0  0
   -1.0323   -0.7500    0.0000 N   0  0  0  0  0  0  0  0  0  0  0  0
    0.3943   -1.2135    0.0000 C   0  0  0  0  0  0  0  0  0  0  0  0
  1  2  1  0
  2  3  2  0
  3  4  1  0
  4  5  1  0
  5  6  1  0
  6  2  1  0
M  END
>  <Title>  (221) 
idAAGOgen13

$$$$

     RDKit          2D

 68 69  0  0  0  0  0  0  0  0999 V2000
   -2.2483   -1.0506    0.0000 C   0  0  0  0  0  0  0  0  0  0  0  0
   -2.4974    0.4285    0.0000 C   0  0  0  0  0  0  0  0  0  0  0  0
   -3.9870    0.2522    0.0000 C   0  0  0  0  0  0  0  0  0  0  0  0
   -5.4867    0.2228    0.0000 C   0  0  0  0  0  0  0  0  0  0  0  0
   -6.9821    0.3405    0.0000 C   0  0  0  0  0  0  0  0  0  0  0  0
   -8.4588    0.6042    0.0000 C   0  0  0  0  0  0  0  0  0  0  0  0
   -9.9024    1.0113    0.0000 C   0  0  0  0  0  0  0  0  0  0  0  0
  -11.2993    1.5580    0.0000 C   0  0  0  0  0  0  0  0  0  0  0  0
  -12.6358    2.2390    0.0000 C   0  0  0  0  0  0  0  0  0  0  0  0
  -13.8991    3.0477    0.0000 C   0  0  0  0  0  0  0  0  0  0  0  0
  -15.0771    3.9764    0.0000 C   0  0  0  0  0  0  0  0  0  0  0  0
  -16.1584    5.0160    0.0000 C   0  0  0  0  0  0  0  0  0  0  0  0
  -17.1325    6.1566    0.0000 C   0  0  0  0  0  0  0  0  0  0  0  0
  -17.9902    7.3872    0.0000 C   0  0  0  0  0  0  0  0  0  0  0  0
  -18.7231    8.6959    0.0000 C   0  0  0  0  0  0  0  0  0  0  0  0
  -19.3243   10.0702    0.0000 C   0  0  0  0  0  0  0  0  0  0  0  0
  -19.7878   11.4968    0.0000 C   0  0  0  0  0  0  0  0  0  0  0  0
  -20.1093   12.9620    0.0000 C   0  0  0  0  0  0  0  0  0  0  0  0
  -20.2856   14.4516    0.0000 C   0  0  0  0  0  0  0  0  0  0  0  0
  -20.3150   15.9513    0.0000 C   0  0  0  0  0  0  0  0  0  0  0  0
  -20.1973   17.4467    0.0000 C   0  0  0  0  0  0  0  0  0  0  0  0
  -19.9336   18.9233    0.0000 C   0  0  0  0  0  0  0  0  0  0  0  0
  -19.5265   20.3670    0.0000 C   0  0  0  0  0  0  0  0  0  0  0  0
  -18.9798   21.7638    0.0000 C   0  0  0  0  0  0  0  0  0  0  0  0
  -18.2988   23.1003    0.0000 C   0  0  0  0  0  0  0  0  0  0  0  0
  -17.4901   24.3636    0.0000 C   0  0  0  0  0  0  0  0  0  0  0  0
  -16.5614   25.5416    0.0000 C   0  0  0  0  0  0  0  0  0  0  0  0
  -15.5218   26.6229    0.0000 C   0  0  0  0  0  0  0  0  0  0  0  0
  -14.3812   27.5971    0.0000 C   0  0  0  0  0  0  0  0  0  0  0  0
  -13.1506   28.4547    0.0000 C   0  0  0  0  0  0  0  0  0  0  0  0
  -11.8418   29.1877    0.0000 C   0  0  0  0  0  0  0  0  0  0  0  0
  -10.4676   29.7888    0.0000 C   0  0  0  0  0  0  0  0  0  0  0  0
   -9.0410   30.2523    0.0000 C   0  0  0  0  0  0  0  0  0  0  0  0
   -7.5758   30.5738    0.0000 C   0  0  0  0  0  0  0  0  0  0  0  0
   -6.0862   30.7501    0.0000 C   0  0  0  0  0  0  0  0  0  0  0  0
   -4.5865   30.7795    0.0000 C   0  0  0  0  0  0  0  0  0  0  0  0
   -3.0911   30.6619    0.0000 C   0  0  0  0  0  0  0  0  0  0  0  0
   -1.6145   30.3982    0.0000 C   0  0  0  0  0  0  0  0  0  0  0  0
   -0.1708   29.9910    0.0000 C   0  0  0  0  0  0  0  0  0  0  0  0
    1.2260   29.4443    0.0000 C   0  0  0  0  0  0  0  0  0  0  0  0
    2.5625   28.7633    0.0000 C   0  0  0  0  0  0  0  0  0  0  0  0
    3.8258   27.9546    0.0000 C   0  0  0  0  0  0  0  0  0  0  0  0
    5.0038   27.0260    0.0000 C   0  0  0  0  0  0  0  0  0  0  0  0
    6.0851   25.9863    0.0000 C   0  0  0  0  0  0  0  0  0  0  0  0
    7.0593   24.8457    0.0000 C   0  0  0  0  0  0  0  0  0  0  0  0
    7.9169   23.6151    0.0000 C   0  0  0  0  0  0  0  0  0  0  0  0
    8.6499   22.3064    0.0000 C   0  0  0  0  0  0  0  0  0  0  0  0
    9.2510   20.9321    0.0000 C   0  0  0  0  0  0  0  0  0  0  0  0
    9.7145   19.5055    0.0000 C   0  0  0  0  0  0  0  0  0  0  0  0
   10.0360   18.0404    0.0000 C   0  0  0  0  0  0  0  0  0  0  0  0
   10.2123   16.5508    0.0000 C   0  0  0  0  0  0  0  0  0  0  0  0
   10.2418   15.0510    0.0000 C   0  0  0  0  0  0  0  0  0  0  0  0
   10.1241   13.5557    0.0000 C   0  0  0  0  0  0  0  0  0  0  0  0
    9.8604   12.0790    0.0000 C   0  0  0  0  0  0  0  0  0  0  0  0
    9.4532   10.6353    0.0000 C   0  0  0  0  0  0  0  0  0  0  0  0
    8.9065    9.2385    0.0000 C   0  0  0  0  0  0  0  0  0  0  0  0
    8.2255    7.9020    0.0000 C   0  0  0  0  0  0  0  0  0  0  0  0
    7.4168    6.6387    0.0000 C   0  0  0  0  0  0  0  0  0  0  0  0
    6.4882    5.4607    0.0000 C   0  0  0  0  0  0  0  0  0  0  0  0
    5.4485    4.3794    0.0000 C   0  0  0  0  0  0  0  0  0  0  0  0
    4.3079    3.4053    0.0000 C   0  0  0  0  0  0  0  0  0  0  0  0
    3.0773    2.5476    0.0000 C   0  0  0  0  0  0  0  0  0  0  0  0
    1.7686    1.8146    0.0000 C   0  0  0  0  0  0  0  0  0  0  0  0
    0.3943    1.2135    0.0000 C   0  0  0  0  0  0  0  0  0  0  0  0
    1.2760    0.0000    0.0000 C   0  0  0  0  0  0  0  0  0  0  0  0
    0.3943   -1.2135    0.0000 C   0  0  0  0  0  0  0  0  0  0  0  0
   -1.0323   -0.7500    0.0000 C   0  0  0  0  0  0  0  0  0  0  0  0
   -1.0323    0.7500    0.0000 C   0  0  0  0  0  0  0  0  0  0  0  0
  1  2  1  0
  2  3  1  0
  3  4  1  0
  4  5  1  0
  5  6  1  0
  6  7  1  0
  7  8  1  0
  8  9  1  0
  9 10  1  0
 10 11  1  0
 11 12  1  0
 12 13  1  0
 13 14  1  0
 14 15  1  0
 15 16  1  0
 16 17  1  0
 17 18  1  0
 18 19  1  0
 19 20  1  0
 20 21  1  0
 21 22  1  0
 22 23  1  0
 23 24  1  0
 24 25  1  0
 25 26  1  0
 26 27  1  0
 27 28  1  0
 28 29  1  0
 29 30  1  0
 30 31  1  0
 31 32  1  0
 32 33  1  0
 33 34  1  0
 34 35  1  0
 35 36  1  0
 36 37  1  0
 37 38  1  0
 38 39  1  0
 39 40  1  0
 40 41  1  0
 41 42  1  0
 42 43  1  0
 43 44  1  0
 44 45  1  0
 45 46  1  0
 46 47  1  0
 47 48  1  0
 48 49  1  0
 49 50  1  0
 50 51  1  0
 51 52  2  0
 52 53  1  0
 53 54  2  0
 54 55  1  0
 55 56  2  0
 56 57  1  0
 57 58  2  0
 58 59  1  0
 59 60  2  0
 60 61  1  0
 61 62  2  0
 62 63  1  0
 63 64  2  0
 64 65  1  0
 65 66  2  0
 66 67  1  0
 67 68  2  0
 68  2  1  0
 68 64  1  0
M  END
>  <Title>  (222) 
idAAGPgen13

$$$$

     RDKit          2D

 14 15  0  0  0  0  0  0  0  0999 V2000
    5.7760   -2.5981    0.0000 C   0  0  0  0  0  0  0  0  0  0  0  0
    5.0260   -1.2990    0.0000 C   0  0  0  0  0  0  0  0  0  0  0  0
    3.5260   -1.2990    0.0000 C   0  0  0  0  0  0  0  0  0  0  0  0
    2.7760    0.0000    0.0000 C   0  0  0  0  0  0  0  0  0  0  0  0
    1.2760    0.0000    0.0000 C   0  0  0  0  0  0  0  0  0  0  0  0
    0.3943    1.2135    0.0000 N   0  0  0  0  0  0  0  0  0  0  0  0
   -1.0323    0.7500    0.0000 N   0  0  0  0  0  0  0  0  0  0  0  0
   -1.0323   -0.7500    0.0000 N   0  0  0  0  0  0  0  0  0  0  0  0
    0.3943   -1.2135    0.0000 N   0  0  0  0  0  0  0  0  0  0  0  0
    0.8578   -2.6401    0.0000 C   0  0  0  0  0  0  0  0  0  0  0  0
    2.2844   -3.1036    0.0000 C   0  0  0  0  0  0  0  0  0  0  0  0
    2.2844   -4.6036    0.0000 C   0  0  0  0  0  0  0  0  0  0  0  0
    0.8578   -5.0672    0.0000 C   0  0  0  0  0  0  0  0  0  0  0  0
   -0.0239   -3.8536    0.0000 C   0  0  0  0  0  0  0  0  0  0  0  0
  1  2  2  0
  2  3  1  0
  3  4  1  0
  4  5  1  0
  5  6  2  0
  6  7  1  0
  7  8  2  0
  8  9  1  0
  9 10  1  0
 10 11  2  0
 11 12  1  0
 12 13  1  0
 13 14  1  0
  9  5  1  0
 14 10  1  0
M  END
>  <Title>  (223) 
idAAGQgen13

$$$$

     RDKit          2D

 35 39  0  0  0  0  0  0  0  0999 V2000
   -3.1965   -1.7857    0.0000 C   0  0  0  0  0  0  0  0  0  0  0  0
   -1.8107   -2.3597    0.0000 C   0  0  0  0  0  0  0  0  0  0  0  0
   -1.8107   -3.8597    0.0000 C   0  0  0  0  0  0  0  0  0  0  0  0
   -0.7500   -4.9204    0.0000 C   0  0  0  0  0  0  0  0  0  0  0  0
    0.7500   -4.9204    0.0000 C   0  0  0  0  0  0  0  0  0  0  0  0
    1.8107   -3.8597    0.0000 C   0  0  0  0  0  0  0  0  0  0  0  0
    1.8107   -2.3597    0.0000 C   0  0  0  0  0  0  0  0  0  0  0  0
    3.1965   -1.7857    0.0000 C   0  0  0  0  0  0  0  0  0  0  0  0
    3.3923   -0.2985    0.0000 O   0  0  0  0  0  0  0  0  0  0  0  0
    4.3865   -2.6988    0.0000 N   0  0  0  0  0  0  0  0  0  0  0  0
    5.7723   -2.1248    0.0000 C   0  0  0  0  0  0  0  0  0  0  0  0
    6.1225   -0.6662    0.0000 N   0  0  0  0  0  0  0  0  0  0  0  0
    7.6179   -0.5485    0.0000 N   0  0  0  0  0  0  0  0  0  0  0  0
    8.1919   -1.9344    0.0000 N   0  0  0  0  0  0  0  0  0  0  0  0
    7.0513   -2.9085    0.0000 N   0  0  0  0  0  0  0  0  0  0  0  0
    7.1690   -4.4039    0.0000 N   0  0  0  0  0  0  0  0  0  0  0  0
    6.1948   -5.5445    0.0000 C   0  0  0  0  0  0  0  0  0  0  0  0
    7.3354   -6.5187    0.0000 C   0  0  0  0  0  0  0  0  0  0  0  0
    7.4531   -8.0141    0.0000 C   0  0  0  0  0  0  0  0  0  0  0  0
    8.8070   -8.6598    0.0000 O   0  0  0  0  0  0  0  0  0  0  0  0
    6.2169   -8.8637    0.0000 N   0  0  0  0  0  0  0  0  0  0  0  0
    6.3346  -10.3591    0.0000 C   0  0  0  0  0  0  0  0  0  0  0  0
    5.0984  -11.2087    0.0000 N   0  0  0  0  0  0  0  0  0  0  0  0
    5.2161  -12.7040    0.0000 N   0  0  0  0  0  0  0  0  0  0  0  0
    6.5700  -13.3498    0.0000 N   0  0  0  0  0  0  0  0  0  0  0  0
    7.8062  -12.5002    0.0000 N   0  0  0  0  0  0  0  0  0  0  0  0
    7.6885  -11.0048    0.0000 N   0  0  0  0  0  0  0  0  0  0  0  0
    8.3096   -5.3781    0.0000 C   0  0  0  0  0  0  0  0  0  0  0  0
    9.8050   -5.2604    0.0000 O   0  0  0  0  0  0  0  0  0  0  0  0
    0.7500   -1.2990    0.0000 C   0  0  0  0  0  0  0  0  0  0  0  0
    1.5000    0.0000    0.0000 C   0  0  0  0  0  0  0  0  0  0  0  0
    0.7500    1.2990    0.0000 C   0  0  0  0  0  0  0  0  0  0  0  0
   -0.7500    1.2990    0.0000 C   0  0  0  0  0  0  0  0  0  0  0  0
   -1.5000    0.0000    0.0000 C   0  0  0  0  0  0  0  0  0  0  0  0
   -0.7500   -1.2990    0.0000 C   0  0  0  0  0  0  0  0  0  0  0  0
  1  2  1  0
  2  3  1  0
  3  4  1  0
  4  5  2  0
  5  6  1  0
  6  7  2  0
  7  8  1  0
  8  9  2  0
  8 10  1  0
 10 11  1  0
 11 12  2  0
 12 13  1  0
 13 14  2  0
 14 15  1  0
 15 16  1  0
 16 17  1  0
 17 18  2  0
 18 19  1  0
 19 20  2  0
 19 21  1  0
 21 22  1  0
 22 23  2  0
 23 24  1  0
 24 25  2  0
 25 26  1  0
 26 27  2  0
 18 28  1  0
 28 29  2  0
  7 30  1  0
 30 31  2  0
 31 32  1  0
 32 33  2  0
 33 34  1  0
 34 35  2  0
 35  2  1  0
 15 11  1  0
 28 16  1  0
 35 30  1  0
 27 22  1  0
M  END
>  <Title>  (224) 
idAAGRgen13

$$$$

     RDKit          2D

 78 81  0  0  0  0  0  0  0  0999 V2000
   -6.9304   -5.8142    0.0000 C   0  0  0  0  0  0  0  0  0  0  0  0
   -5.7180   -6.6974    0.0000 C   0  0  0  0  0  0  0  0  0  0  0  0
   -6.5396   -7.9523    0.0000 C   0  0  0  0  0  0  0  0  0  0  0  0
   -7.2323   -9.2828    0.0000 C   0  0  0  0  0  0  0  0  0  0  0  0
   -7.7890  -10.6757    0.0000 C   0  0  0  0  0  0  0  0  0  0  0  0
   -8.2042  -12.1171    0.0000 C   0  0  0  0  0  0  0  0  0  0  0  0
   -8.4739  -13.5926    0.0000 C   0  0  0  0  0  0  0  0  0  0  0  0
   -8.5953  -15.0877    0.0000 C   0  0  0  0  0  0  0  0  0  0  0  0
   -8.5673  -16.5875    0.0000 C   0  0  0  0  0  0  0  0  0  0  0  0
   -8.3900  -18.0770    0.0000 C   0  0  0  0  0  0  0  0  0  0  0  0
   -8.0654  -19.5414    0.0000 C   0  0  0  0  0  0  0  0  0  0  0  0
   -7.5965  -20.9662    0.0000 C   0  0  0  0  0  0  0  0  0  0  0  0
   -6.9881  -22.3373    0.0000 C   0  0  0  0  0  0  0  0  0  0  0  0
   -6.2462  -23.6410    0.0000 C   0  0  0  0  0  0  0  0  0  0  0  0
   -5.3782  -24.8643    0.0000 C   0  0  0  0  0  0  0  0  0  0  0  0
   -4.3927  -25.9952    0.0000 C   0  0  0  0  0  0  0  0  0  0  0  0
   -3.2995  -27.0223    0.0000 C   0  0  0  0  0  0  0  0  0  0  0  0
   -2.1095  -27.9354    0.0000 C   0  0  0  0  0  0  0  0  0  0  0  0
   -0.8345  -28.7255    0.0000 C   0  0  0  0  0  0  0  0  0  0  0  0
    0.5129  -29.3848    0.0000 C   0  0  0  0  0  0  0  0  0  0  0  0
    1.9192  -29.9066    0.0000 C   0  0  0  0  0  0  0  0  0  0  0  0
    3.3705  -30.2858    0.0000 C   0  0  0  0  0  0  0  0  0  0  0  0
    4.8523  -30.5186    0.0000 C   0  0  0  0  0  0  0  0  0  0  0  0
    6.3500  -30.6027    0.0000 C   0  0  0  0  0  0  0  0  0  0  0  0
    7.8485  -30.5372    0.0000 C   0  0  0  0  0  0  0  0  0  0  0  0
    9.3331  -30.3229    0.0000 C   0  0  0  0  0  0  0  0  0  0  0  0
   10.7890  -29.9619    0.0000 C   0  0  0  0  0  0  0  0  0  0  0  0
   12.2018  -29.4576    0.0000 C   0  0  0  0  0  0  0  0  0  0  0  0
   13.5572  -28.8152    0.0000 C   0  0  0  0  0  0  0  0  0  0  0  0
   14.8420  -28.0411    0.0000 C   0  0  0  0  0  0  0  0  0  0  0  0
   16.0433  -27.1428    0.0000 C   0  0  0  0  0  0  0  0  0  0  0  0
   17.1493  -26.1295    0.0000 C   0  0  0  0  0  0  0  0  0  0  0  0
   18.1488  -25.0110    0.0000 C   0  0  0  0  0  0  0  0  0  0  0  0
   19.0320  -23.7986    0.0000 C   0  0  0  0  0  0  0  0  0  0  0  0
   19.7901  -22.5042    0.0000 C   0  0  0  0  0  0  0  0  0  0  0  0
   20.4155  -21.1408    0.0000 C   0  0  0  0  0  0  0  0  0  0  0  0
   20.9021  -19.7220    0.0000 C   0  0  0  0  0  0  0  0  0  0  0  0
   21.2450  -18.2617    0.0000 C   0  0  0  0  0  0  0  0  0  0  0  0
   21.4408  -16.7745    0.0000 C   0  0  0  0  0  0  0  0  0  0  0  0
   21.4875  -15.2752    0.0000 C   0  0  0  0  0  0  0  0  0  0  0  0
   21.3847  -13.7788    0.0000 C   0  0  0  0  0  0  0  0  0  0  0  0
   21.1335  -12.3000    0.0000 C   0  0  0  0  0  0  0  0  0  0  0  0
   20.7362  -10.8535    0.0000 C   0  0  0  0  0  0  0  0  0  0  0  0
   20.1969   -9.4538    0.0000 C   0  0  0  0  0  0  0  0  0  0  0  0
   19.5209   -8.1148    0.0000 C   0  0  0  0  0  0  0  0  0  0  0  0
   18.7150   -6.8497    0.0000 C   0  0  0  0  0  0  0  0  0  0  0  0
   17.7871   -5.6711    0.0000 C   0  0  0  0  0  0  0  0  0  0  0  0
   16.7464   -4.5908    0.0000 C   0  0  0  0  0  0  0  0  0  0  0  0
   15.6034   -3.6195    0.0000 C   0  0  0  0  0  0  0  0  0  0  0  0
   14.3693   -2.7668    0.0000 C   0  0  0  0  0  0  0  0  0  0  0  0
   13.0565   -2.0412    0.0000 C   0  0  0  0  0  0  0  0  0  0  0  0
   11.6779   -1.4500    0.0000 C   0  0  0  0  0  0  0  0  0  0  0  0
   10.2474   -0.9989    0.0000 C   0  0  0  0  0  0  0  0  0  0  0  0
    8.7790   -0.6925    0.0000 C   0  0  0  0  0  0  0  0  0  0  0  0
    7.2874   -0.5339    0.0000 C   0  0  0  0  0  0  0  0  0  0  0  0
    5.7874   -0.5245    0.0000 C   0  0  0  0  0  0  0  0  0  0  0  0
    4.2940   -0.6646    0.0000 C   0  0  0  0  0  0  0  0  0  0  0  0
    2.8219   -0.9526    0.0000 C   0  0  0  0  0  0  0  0  0  0  0  0
    1.3858   -1.3858    0.0000 C   0  0  0  0  0  0  0  0  0  0  0  0
    1.9598    0.0000    0.0000 C   0  0  0  0  0  0  0  0  0  0  0  0
    1.3858    1.3858    0.0000 C   0  0  0  0  0  0  0  0  0  0  0  0
    0.0000    1.9598    0.0000 C   0  0  0  0  0  0  0  0  0  0  0  0
   -1.3858    1.3858    0.0000 C   0  0  0  0  0  0  0  0  0  0  0  0
   -1.9598    0.0000    0.0000 C   0  0  0  0  0  0  0  0  0  0  0  0
   -1.3858   -1.3858    0.0000 C   0  0  0  0  0  0  0  0  0  0  0  0
   -0.0000   -1.9598    0.0000 C   0  0  0  0  0  0  0  0  0  0  0  0
   -1.3218   -2.6690    0.0000 C   0  0  0  0  0  0  0  0  0  0  0  0
    0.0256   -3.3282    0.0000 C   0  0  0  0  0  0  0  0  0  0  0  0
    0.1284   -4.8247    0.0000 C   0  0  0  0  0  0  0  0  0  0  0  0
   -1.1162   -5.6620    0.0000 C   0  0  0  0  0  0  0  0  0  0  0  0
   -2.4636   -5.0027    0.0000 C   0  0  0  0  0  0  0  0  0  0  0  0
   -2.5664   -3.5062    0.0000 C   0  0  0  0  0  0  0  0  0  0  0  0
   -3.7214   -4.4632    0.0000 C   0  0  0  0  0  0  0  0  0  0  0  0
   -4.1187   -3.0168    0.0000 C   0  0  0  0  0  0  0  0  0  0  0  0
   -5.5700   -2.6376    0.0000 C   0  0  0  0  0  0  0  0  0  0  0  0
   -6.6240   -3.7049    0.0000 C   0  0  0  0  0  0  0  0  0  0  0  0
   -6.2267   -5.1513    0.0000 C   0  0  0  0  0  0  0  0  0  0  0  0
   -4.7755   -5.5305    0.0000 C   0  0  0  0  0  0  0  0  0  0  0  0
  1  2  1  0
  2  3  1  0
  3  4  1  0
  4  5  1  0
  5  6  1  0
  6  7  1  0
  7  8  1  0
  8  9  1  0
  9 10  1  0
 10 11  1  0
 11 12  1  0
 12 13  1  0
 13 14  1  0
 14 15  1  0
 15 16  1  0
 16 17  1  0
 17 18  1  0
 18 19  1  0
 19 20  1  0
 20 21  1  0
 21 22  1  0
 22 23  1  0
 23 24  1  0
 24 25  1  0
 25 26  1  0
 26 27  1  0
 27 28  1  0
 28 29  1  0
 29 30  1  0
 30 31  1  0
 31 32  1  0
 32 33  1  0
 33 34  1  0
 34 35  1  0
 35 36  1  0
 36 37  1  0
 37 38  1  0
 38 39  1  0
 39 40  1  0
 40 41  1  0
 41 42  1  0
 42 43  1  0
 43 44  1  0
 44 45  1  0
 45 46  1  0
 46 47  1  0
 47 48  1  0
 48 49  1  0
 49 50  1  0
 50 51  1  0
 51 52  1  0
 52 53  1  0
 53 54  1  0
 54 55  1  0
 55 56  1  0
 56 57  1  0
 57 58  1  0
 58 59  1  0
 59 60  1  0
 60 61  1  0
 61 62  2  0
 62 63  1  0
 63 64  2  0
 64 65  1  0
 65 66  2  0
 66 67  1  0
 67 68  2  0
 68 69  1  0
 69 70  2  0
 70 71  1  0
 71 72  2  0
 72 73  1  0
 73 74  2  0
 74 75  1  0
 75 76  2  0
 76 77  1  0
 77 78  2  0
 78  2  1  0
 66 59  1  0
 72 67  1  0
 78 73  1  0
M  END
>  <Title>  (225) 
idAAGSgen13

$$$$

     RDKit          2D

 17 17  0  0  0  0  0  0  0  0999 V2000
    3.0000  -10.3923    0.0000 C   0  0  0  0  0  0  0  0  0  0  0  0
    3.7500   -9.0933    0.0000 C   0  0  0  0  0  0  0  0  0  0  0  0
    3.0000   -7.7942    0.0000 C   0  0  0  0  0  0  0  0  0  0  0  0
    3.7500   -6.4952    0.0000 C   0  0  0  0  0  0  0  0  0  0  0  0
    3.0000   -5.1962    0.0000 N   0  0  0  0  0  0  0  0  0  0  0  0
    3.7500   -3.8971    0.0000 C   0  0  0  0  0  0  0  0  0  0  0  0
    5.2500   -3.8971    0.0000 O   0  0  0  0  0  0  0  0  0  0  0  0
    3.0000   -2.5981    0.0000 N   0  0  0  0  0  0  0  0  0  0  0  0
    3.7500   -1.2990    0.0000 C   0  0  0  0  0  0  0  0  0  0  0  0
    5.2500   -1.2990    0.0000 C   0  0  0  0  0  0  0  0  0  0  0  0
    3.0000    0.0000    0.0000 C   0  0  0  0  0  0  0  0  0  0  0  0
    1.5000    0.0000    0.0000 C   0  0  0  0  0  0  0  0  0  0  0  0
    0.7500   -1.2990    0.0000 C   0  0  0  0  0  0  0  0  0  0  0  0
   -0.7500   -1.2990    0.0000 C   0  0  0  0  0  0  0  0  0  0  0  0
   -1.5000    0.0000    0.0000 C   0  0  0  0  0  0  0  0  0  0  0  0
   -0.7500    1.2990    0.0000 N   0  0  0  0  0  0  0  0  0  0  0  0
    0.7500    1.2990    0.0000 C   0  0  0  0  0  0  0  0  0  0  0  0
  1  2  2  0
  2  3  1  0
  3  4  1  0
  4  5  1  0
  5  6  1  0
  6  7  2  0
  6  8  1  0
  8  9  1  0
  9 10  1  0
  9 11  1  0
 11 12  1  0
 12 13  1  0
 13 14  1  0
 14 15  1  0
 15 16  1  0
 16 17  1  0
 17 12  1  0
M  END
>  <Title>  (226) 
idAAGTgen13

$$$$

     RDKit          2D

 29 33  0  0  0  0  0  0  0  0999 V2000
   -3.0000   -2.5981    0.0000 C   0  0  0  0  0  0  0  0  0  0  0  0
   -1.5000   -2.5981    0.0000 C   0  0  0  0  0  0  0  0  0  0  0  0
   -0.7500   -3.8971    0.0000 C   0  0  0  0  0  0  0  0  0  0  0  0
    0.7500   -3.8971    0.0000 C   0  0  0  0  0  0  0  0  0  0  0  0
    1.5000   -2.5981    0.0000 C   0  0  0  0  0  0  0  0  0  0  0  0
    3.0000   -2.5981    0.0000 C   0  0  0  0  0  0  0  0  0  0  0  0
    3.7500   -1.2990    0.0000 O   0  0  0  0  0  0  0  0  0  0  0  0
    3.7500   -3.8971    0.0000 N   0  0  0  0  0  0  0  0  0  0  0  0
    5.2500   -3.8971    0.0000 C   0  0  0  0  0  0  0  0  0  0  0  0
    6.1317   -2.6836    0.0000 N   0  0  0  0  0  0  0  0  0  0  0  0
    7.5583   -3.1471    0.0000 N   0  0  0  0  0  0  0  0  0  0  0  0
    7.5583   -4.6471    0.0000 N   0  0  0  0  0  0  0  0  0  0  0  0
    6.1317   -5.1106    0.0000 N   0  0  0  0  0  0  0  0  0  0  0  0
    5.6682   -6.5372    0.0000 N   0  0  0  0  0  0  0  0  0  0  0  0
    6.5498   -7.7508    0.0000 C   0  0  0  0  0  0  0  0  0  0  0  0
    5.6682   -8.9643    0.0000 C   0  0  0  0  0  0  0  0  0  0  0  0
    4.2416   -8.5008    0.0000 N   0  0  0  0  0  0  0  0  0  0  0  0
    3.0280   -9.3824    0.0000 N   0  0  0  0  0  0  0  0  0  0  0  0
    1.5465   -9.1478    0.0000 C   0  0  0  0  0  0  0  0  0  0  0  0
    1.3119  -10.6293    0.0000 C   0  0  0  0  0  0  0  0  0  0  0  0
    2.7934  -10.8640    0.0000 C   0  0  0  0  0  0  0  0  0  0  0  0
    4.2416   -7.0008    0.0000 C   0  0  0  0  0  0  0  0  0  0  0  0
    3.0280   -6.1191    0.0000 O   0  0  0  0  0  0  0  0  0  0  0  0
    0.7500   -1.2990    0.0000 C   0  0  0  0  0  0  0  0  0  0  0  0
    1.5000    0.0000    0.0000 C   0  0  0  0  0  0  0  0  0  0  0  0
    0.7500    1.2990    0.0000 C   0  0  0  0  0  0  0  0  0  0  0  0
   -0.7500    1.2990    0.0000 C   0  0  0  0  0  0  0  0  0  0  0  0
   -1.5000    0.0000    0.0000 C   0  0  0  0  0  0  0  0  0  0  0  0
   -0.7500   -1.2990    0.0000 C   0  0  0  0  0  0  0  0  0  0  0  0
  1  2  1  0
  2  3  2  0
  3  4  1  0
  4  5  2  0
  5  6  1  0
  6  7  2  0
  6  8  1  0
  8  9  1  0
  9 10  2  0
 10 11  1  0
 11 12  2  0
 12 13  1  0
 13 14  1  0
 14 15  1  0
 15 16  1  0
 16 17  1  0
 17 18  1  0
 18 19  1  0
 19 20  1  0
 20 21  1  0
 17 22  1  0
 22 23  2  0
  5 24  1  0
 24 25  2  0
 25 26  1  0
 26 27  2  0
 27 28  1  0
 28 29  2  0
 29  2  1  0
 13  9  1  0
 22 14  1  0
 29 24  1  0
 21 18  1  0
M  END
>  <Title>  (227) 
idAAGUgen13

$$$$

     RDKit          2D

 40 45  0  0  0  0  0  0  0  0999 V2000
   -1.3240   -6.3062    0.0000 C   0  0  0  0  0  0  0  0  0  0  0  0
   -0.7500   -4.9204    0.0000 C   0  0  0  0  0  0  0  0  0  0  0  0
    0.7500   -4.9204    0.0000 C   0  0  0  0  0  0  0  0  0  0  0  0
    1.8107   -3.8597    0.0000 C   0  0  0  0  0  0  0  0  0  0  0  0
    1.8107   -2.3597    0.0000 C   0  0  0  0  0  0  0  0  0  0  0  0
    3.1965   -1.7857    0.0000 C   0  0  0  0  0  0  0  0  0  0  0  0
    3.3923   -0.2985    0.0000 O   0  0  0  0  0  0  0  0  0  0  0  0
    4.3865   -2.6988    0.0000 N   0  0  0  0  0  0  0  0  0  0  0  0
    5.7723   -2.1248    0.0000 C   0  0  0  0  0  0  0  0  0  0  0  0
    6.1225   -0.6662    0.0000 N   0  0  0  0  0  0  0  0  0  0  0  0
    7.6179   -0.5485    0.0000 N   0  0  0  0  0  0  0  0  0  0  0  0
    8.1919   -1.9344    0.0000 N   0  0  0  0  0  0  0  0  0  0  0  0
    7.0513   -2.9085    0.0000 N   0  0  0  0  0  0  0  0  0  0  0  0
    7.1690   -4.4039    0.0000 N   0  0  0  0  0  0  0  0  0  0  0  0
    8.4479   -5.1877    0.0000 C   0  0  0  0  0  0  0  0  0  0  0  0
    8.0978   -6.6462    0.0000 C   0  0  0  0  0  0  0  0  0  0  0  0
    6.6024   -6.7639    0.0000 N   0  0  0  0  0  0  0  0  0  0  0  0
    5.8186   -8.0429    0.0000 C   0  0  0  0  0  0  0  0  0  0  0  0
    6.5344   -9.3611    0.0000 O   0  0  0  0  0  0  0  0  0  0  0  0
    4.3192   -8.0036    0.0000 N   0  0  0  0  0  0  0  0  0  0  0  0
    3.5354   -9.2826    0.0000 C   0  0  0  0  0  0  0  0  0  0  0  0
    2.0359   -9.2433    0.0000 N   0  0  0  0  0  0  0  0  0  0  0  0
    1.2522  -10.5223    0.0000 N   0  0  0  0  0  0  0  0  0  0  0  0
    1.9679  -11.8405    0.0000 N   0  0  0  0  0  0  0  0  0  0  0  0
    3.4674  -11.8797    0.0000 N   0  0  0  0  0  0  0  0  0  0  0  0
    4.2512  -10.6008    0.0000 N   0  0  0  0  0  0  0  0  0  0  0  0
    6.0284   -5.3781    0.0000 C   0  0  0  0  0  0  0  0  0  0  0  0
    4.5698   -5.0279    0.0000 O   0  0  0  0  0  0  0  0  0  0  0  0
    0.7500   -1.2990    0.0000 C   0  0  0  0  0  0  0  0  0  0  0  0
    1.5000    0.0000    0.0000 C   0  0  0  0  0  0  0  0  0  0  0  0
    0.7500    1.2990    0.0000 C   0  0  0  0  0  0  0  0  0  0  0  0
   -0.7500    1.2990    0.0000 C   0  0  0  0  0  0  0  0  0  0  0  0
   -1.5000    0.0000    0.0000 C   0  0  0  0  0  0  0  0  0  0  0  0
   -0.7500   -1.2990    0.0000 C   0  0  0  0  0  0  0  0  0  0  0  0
   -1.8107   -2.3597    0.0000 C   0  0  0  0  0  0  0  0  0  0  0  0
   -3.1097   -1.6097    0.0000 C   0  0  0  0  0  0  0  0  0  0  0  0
   -4.4087   -2.3597    0.0000 C   0  0  0  0  0  0  0  0  0  0  0  0
   -4.4087   -3.8597    0.0000 C   0  0  0  0  0  0  0  0  0  0  0  0
   -3.1097   -4.6097    0.0000 C   0  0  0  0  0  0  0  0  0  0  0  0
   -1.8107   -3.8597    0.0000 C   0  0  0  0  0  0  0  0  0  0  0  0
  1  2  1  0
  2  3  1  0
  3  4  2  0
  4  5  1  0
  5  6  1  0
  6  7  2  0
  6  8  1  0
  8  9  1  0
  9 10  2  0
 10 11  1  0
 11 12  2  0
 12 13  1  0
 13 14  1  0
 14 15  1  0
 15 16  1  0
 16 17  1  0
 17 18  1  0
 18 19  2  0
 18 20  1  0
 20 21  1  0
 21 22  2  0
 22 23  1  0
 23 24  2  0
 24 25  1  0
 25 26  2  0
 17 27  1  0
 27 28  2  0
  5 29  1  0
 29 30  2  0
 30 31  1  0
 31 32  2  0
 32 33  1  0
 33 34  2  0
 34 35  1  0
 35 36  2  0
 36 37  1  0
 37 38  2  0
 38 39  1  0
 39 40  2  0
 40  2  1  0
 13  9  1  0
 27 14  1  0
 34 29  1  0
 40 35  1  0
 26 21  1  0
M  END
>  <Title>  (228) 
idAAGVgen13

$$$$

     RDKit          2D

 57 59  0  0  0  0  0  0  0  0999 V2000
   -5.7353   -1.1118    0.0000 C   0  0  0  0  0  0  0  0  0  0  0  0
   -5.0719   -2.4571    0.0000 C   0  0  0  0  0  0  0  0  0  0  0  0
   -6.3709   -3.2071    0.0000 C   0  0  0  0  0  0  0  0  0  0  0  0
   -7.5609   -4.1202    0.0000 C   0  0  0  0  0  0  0  0  0  0  0  0
   -8.6216   -5.1809    0.0000 C   0  0  0  0  0  0  0  0  0  0  0  0
   -9.5347   -6.3709    0.0000 C   0  0  0  0  0  0  0  0  0  0  0  0
  -10.2847   -7.6700    0.0000 C   0  0  0  0  0  0  0  0  0  0  0  0
  -10.8588   -9.0558    0.0000 C   0  0  0  0  0  0  0  0  0  0  0  0
  -11.2470  -10.5047    0.0000 C   0  0  0  0  0  0  0  0  0  0  0  0
  -11.4428  -11.9918    0.0000 C   0  0  0  0  0  0  0  0  0  0  0  0
  -11.4428  -13.4918    0.0000 C   0  0  0  0  0  0  0  0  0  0  0  0
  -11.2470  -14.9790    0.0000 C   0  0  0  0  0  0  0  0  0  0  0  0
  -10.8588  -16.4279    0.0000 C   0  0  0  0  0  0  0  0  0  0  0  0
  -10.2847  -17.8137    0.0000 C   0  0  0  0  0  0  0  0  0  0  0  0
   -9.5347  -19.1127    0.0000 C   0  0  0  0  0  0  0  0  0  0  0  0
   -8.6216  -20.3028    0.0000 C   0  0  0  0  0  0  0  0  0  0  0  0
   -7.5609  -21.3634    0.0000 C   0  0  0  0  0  0  0  0  0  0  0  0
   -6.3709  -22.2766    0.0000 C   0  0  0  0  0  0  0  0  0  0  0  0
   -5.0719  -23.0266    0.0000 C   0  0  0  0  0  0  0  0  0  0  0  0
   -3.6861  -23.6006    0.0000 C   0  0  0  0  0  0  0  0  0  0  0  0
   -2.2372  -23.9888    0.0000 C   0  0  0  0  0  0  0  0  0  0  0  0
   -0.7500  -24.1846    0.0000 C   0  0  0  0  0  0  0  0  0  0  0  0
    0.7500  -24.1846    0.0000 C   0  0  0  0  0  0  0  0  0  0  0  0
    2.2372  -23.9888    0.0000 C   0  0  0  0  0  0  0  0  0  0  0  0
    3.6861  -23.6006    0.0000 C   0  0  0  0  0  0  0  0  0  0  0  0
    5.0719  -23.0266    0.0000 C   0  0  0  0  0  0  0  0  0  0  0  0
    6.3709  -22.2766    0.0000 C   0  0  0  0  0  0  0  0  0  0  0  0
    7.5609  -21.3634    0.0000 C   0  0  0  0  0  0  0  0  0  0  0  0
    8.6216  -20.3028    0.0000 C   0  0  0  0  0  0  0  0  0  0  0  0
    9.5347  -19.1127    0.0000 C   0  0  0  0  0  0  0  0  0  0  0  0
   10.2847  -17.8137    0.0000 C   0  0  0  0  0  0  0  0  0  0  0  0
   10.8588  -16.4279    0.0000 C   0  0  0  0  0  0  0  0  0  0  0  0
   11.2470  -14.9790    0.0000 C   0  0  0  0  0  0  0  0  0  0  0  0
   11.4428  -13.4918    0.0000 C   0  0  0  0  0  0  0  0  0  0  0  0
   11.4428  -11.9918    0.0000 C   0  0  0  0  0  0  0  0  0  0  0  0
   11.2470  -10.5047    0.0000 C   0  0  0  0  0  0  0  0  0  0  0  0
   10.8588   -9.0558    0.0000 C   0  0  0  0  0  0  0  0  0  0  0  0
   10.2847   -7.6700    0.0000 C   0  0  0  0  0  0  0  0  0  0  0  0
    9.5347   -6.3709    0.0000 C   0  0  0  0  0  0  0  0  0  0  0  0
    8.6216   -5.1809    0.0000 C   0  0  0  0  0  0  0  0  0  0  0  0
    7.5609   -4.1202    0.0000 C   0  0  0  0  0  0  0  0  0  0  0  0
    6.3709   -3.2071    0.0000 C   0  0  0  0  0  0  0  0  0  0  0  0
    5.0719   -2.4571    0.0000 C   0  0  0  0  0  0  0  0  0  0  0  0
    3.6861   -1.8831    0.0000 C   0  0  0  0  0  0  0  0  0  0  0  0
    2.2372   -1.4948    0.0000 C   0  0  0  0  0  0  0  0  0  0  0  0
    0.7500   -1.2990    0.0000 C   0  0  0  0  0  0  0  0  0  0  0  0
    1.5000    0.0000    0.0000 C   0  0  0  0  0  0  0  0  0  0  0  0
    0.7500    1.2990    0.0000 C   0  0  0  0  0  0  0  0  0  0  0  0
   -0.7500    1.2990    0.0000 C   0  0  0  0  0  0  0  0  0  0  0  0
   -1.5000    0.0000    0.0000 C   0  0  0  0  0  0  0  0  0  0  0  0
   -0.7500   -1.2990    0.0000 C   0  0  0  0  0  0  0  0  0  0  0  0
   -2.2372   -1.4948    0.0000 C   0  0  0  0  0  0  0  0  0  0  0  0
   -1.1765   -2.5555    0.0000 C   0  0  0  0  0  0  0  0  0  0  0  0
   -1.5647   -4.0044    0.0000 C   0  0  0  0  0  0  0  0  0  0  0  0
   -3.0136   -4.3926    0.0000 C   0  0  0  0  0  0  0  0  0  0  0  0
   -4.0743   -3.3319    0.0000 C   0  0  0  0  0  0  0  0  0  0  0  0
   -3.6861   -1.8831    0.0000 C   0  0  0  0  0  0  0  0  0  0  0  0
  1  2  1  0
  2  3  1  0
  3  4  1  0
  4  5  1  0
  5  6  1  0
  6  7  1  0
  7  8  1  0
  8  9  1  0
  9 10  1  0
 10 11  1  0
 11 12  1  0
 12 13  1  0
 13 14  1  0
 14 15  1  0
 15 16  1  0
 16 17  1  0
 17 18  1  0
 18 19  1  0
 19 20  1  0
 20 21  1  0
 21 22  1  0
 22 23  1  0
 23 24  1  0
 24 25  1  0
 25 26  1  0
 26 27  1  0
 27 28  1  0
 28 29  1  0
 29 30  1  0
 30 31  1  0
 31 32  1  0
 32 33  1  0
 33 34  1  0
 34 35  1  0
 35 36  1  0
 36 37  1  0
 37 38  1  0
 38 39  1  0
 39 40  1  0
 40 41  1  0
 41 42  1  0
 42 43  1  0
 43 44  1  0
 44 45  1  0
 45 46  1  0
 46 47  2  0
 47 48  1  0
 48 49  2  0
 49 50  1  0
 50 51  2  0
 51 52  1  0
 52 53  2  0
 53 54  1  0
 54 55  2  0
 55 56  1  0
 56 57  2  0
 57  2  1  0
 51 46  1  0
 57 52  1  0
M  END
>  <Title>  (229) 
idAAGWgen13

$$$$

     RDKit          2D

 27 30  0  0  0  0  0  0  0  0999 V2000
   -3.1965   -1.7857    0.0000 C   0  0  0  0  0  0  0  0  0  0  0  0
   -1.8107   -2.3597    0.0000 C   0  0  0  0  0  0  0  0  0  0  0  0
   -1.8107   -3.8597    0.0000 C   0  0  0  0  0  0  0  0  0  0  0  0
   -0.7500   -4.9204    0.0000 C   0  0  0  0  0  0  0  0  0  0  0  0
    0.7500   -4.9204    0.0000 C   0  0  0  0  0  0  0  0  0  0  0  0
    1.8107   -3.8597    0.0000 C   0  0  0  0  0  0  0  0  0  0  0  0
    1.8107   -2.3597    0.0000 C   0  0  0  0  0  0  0  0  0  0  0  0
    3.1965   -1.7857    0.0000 C   0  0  0  0  0  0  0  0  0  0  0  0
    3.3923   -0.2985    0.0000 O   0  0  0  0  0  0  0  0  0  0  0  0
    4.3865   -2.6988    0.0000 N   0  0  0  0  0  0  0  0  0  0  0  0
    5.7723   -2.1248    0.0000 C   0  0  0  0  0  0  0  0  0  0  0  0
    6.1225   -0.6662    0.0000 N   0  0  0  0  0  0  0  0  0  0  0  0
    7.6179   -0.5485    0.0000 N   0  0  0  0  0  0  0  0  0  0  0  0
    8.1919   -1.9344    0.0000 N   0  0  0  0  0  0  0  0  0  0  0  0
    7.0513   -2.9085    0.0000 N   0  0  0  0  0  0  0  0  0  0  0  0
    7.1690   -4.4039    0.0000 C   0  0  0  0  0  0  0  0  0  0  0  0
    5.9328   -5.2535    0.0000 C   0  0  0  0  0  0  0  0  0  0  0  0
    6.0505   -6.7489    0.0000 C   0  0  0  0  0  0  0  0  0  0  0  0
    7.4044   -7.3947    0.0000 N   0  0  0  0  0  0  0  0  0  0  0  0
    8.6405   -6.5451    0.0000 N   0  0  0  0  0  0  0  0  0  0  0  0
    8.5229   -5.0497    0.0000 N   0  0  0  0  0  0  0  0  0  0  0  0
    0.7500   -1.2990    0.0000 C   0  0  0  0  0  0  0  0  0  0  0  0
    1.5000    0.0000    0.0000 C   0  0  0  0  0  0  0  0  0  0  0  0
    0.7500    1.2990    0.0000 C   0  0  0  0  0  0  0  0  0  0  0  0
   -0.7500    1.2990    0.0000 C   0  0  0  0  0  0  0  0  0  0  0  0
   -1.5000    0.0000    0.0000 C   0  0  0  0  0  0  0  0  0  0  0  0
   -0.7500   -1.2990    0.0000 C   0  0  0  0  0  0  0  0  0  0  0  0
  1  2  1  0
  2  3  1  0
  3  4  2  0
  4  5  1  0
  5  6  1  0
  6  7  1  0
  7  8  1  0
  8  9  2  0
  8 10  1  0
 10 11  1  0
 11 12  2  0
 12 13  1  0
 13 14  2  0
 14 15  1  0
 15 16  1  0
 16 17  2  0
 17 18  1  0
 18 19  2  0
 19 20  1  0
 20 21  2  0
  7 22  1  0
 22 23  2  0
 23 24  1  0
 24 25  2  0
 25 26  1  0
 26 27  2  0
 27  2  1  0
 15 11  1  0
 21 16  1  0
 27 22  1  0
M  END
>  <Title>  (230) 
idAAGXgen13

$$$$

     RDKit          2D

  7  7  0  0  0  0  0  0  0  0999 V2000
    3.0000    0.0000    0.0000 O   0  0  0  0  0  0  0  0  0  0  0  0
    1.5000    0.0000    0.0000 C   0  0  0  0  0  0  0  0  0  0  0  0
    0.7500   -1.2990    0.0000 C   0  0  0  0  0  0  0  0  0  0  0  0
   -0.7500   -1.2990    0.0000 C   0  0  0  0  0  0  0  0  0  0  0  0
   -1.5000    0.0000    0.0000 C   0  0  0  0  0  0  0  0  0  0  0  0
   -0.7500    1.2990    0.0000 C   0  0  0  0  0  0  0  0  0  0  0  0
    0.7500    1.2990    0.0000 C   0  0  0  0  0  0  0  0  0  0  0  0
  1  2  1  0
  2  3  2  0
  3  4  1  0
  4  5  2  0
  5  6  1  0
  6  7  2  0
  7  2  1  0
M  END
>  <Title>  (231) 
idAAGYgen13

$$$$

     RDKit          2D

 97100  0  0  0  0  0  0  0  0999 V2000
   -3.1044    8.7778    0.0000 C   0  0  0  0  0  0  0  0  0  0  0  0
   -1.6613    9.1868    0.0000 C   0  0  0  0  0  0  0  0  0  0  0  0
   -2.0111   10.6454    0.0000 C   0  0  0  0  0  0  0  0  0  0  0  0
   -2.2409   12.1277    0.0000 C   0  0  0  0  0  0  0  0  0  0  0  0
   -2.3490   13.6238    0.0000 C   0  0  0  0  0  0  0  0  0  0  0  0
   -2.3349   15.1238    0.0000 C   0  0  0  0  0  0  0  0  0  0  0  0
   -2.1986   16.6176    0.0000 C   0  0  0  0  0  0  0  0  0  0  0  0
   -1.9409   18.0953    0.0000 C   0  0  0  0  0  0  0  0  0  0  0  0
   -1.5637   19.5471    0.0000 C   0  0  0  0  0  0  0  0  0  0  0  0
   -1.0694   20.9633    0.0000 C   0  0  0  0  0  0  0  0  0  0  0  0
   -0.4613   22.3345    0.0000 C   0  0  0  0  0  0  0  0  0  0  0  0
    0.2565   23.6516    0.0000 C   0  0  0  0  0  0  0  0  0  0  0  0
    1.0793   24.9057    0.0000 C   0  0  0  0  0  0  0  0  0  0  0  0
    2.0016   26.0887    0.0000 C   0  0  0  0  0  0  0  0  0  0  0  0
    3.0173   27.1925    0.0000 C   0  0  0  0  0  0  0  0  0  0  0  0
    4.1195   28.2099    0.0000 C   0  0  0  0  0  0  0  0  0  0  0  0
    5.3010   29.1341    0.0000 C   0  0  0  0  0  0  0  0  0  0  0  0
    6.5539   29.9588    0.0000 C   0  0  0  0  0  0  0  0  0  0  0  0
    7.8699   30.6787    0.0000 C   0  0  0  0  0  0  0  0  0  0  0  0
    9.2401   31.2890    0.0000 C   0  0  0  0  0  0  0  0  0  0  0  0
   10.6556   31.7855    0.0000 C   0  0  0  0  0  0  0  0  0  0  0  0
   12.1068   32.1650    0.0000 C   0  0  0  0  0  0  0  0  0  0  0  0
   13.5841   32.4250    0.0000 C   0  0  0  0  0  0  0  0  0  0  0  0
   15.0776   32.5637    0.0000 C   0  0  0  0  0  0  0  0  0  0  0  0
   16.5776   32.5801    0.0000 C   0  0  0  0  0  0  0  0  0  0  0  0
   18.0738   32.4743    0.0000 C   0  0  0  0  0  0  0  0  0  0  0  0
   19.5565   32.2469    0.0000 C   0  0  0  0  0  0  0  0  0  0  0  0
   21.0157   31.8993    0.0000 C   0  0  0  0  0  0  0  0  0  0  0  0
   22.4417   31.4340    0.0000 C   0  0  0  0  0  0  0  0  0  0  0  0
   23.8250   30.8540    0.0000 C   0  0  0  0  0  0  0  0  0  0  0  0
   25.1564   30.1632    0.0000 C   0  0  0  0  0  0  0  0  0  0  0  0
   26.4272   29.3661    0.0000 C   0  0  0  0  0  0  0  0  0  0  0  0
   27.6287   28.4682    0.0000 C   0  0  0  0  0  0  0  0  0  0  0  0
   28.7530   27.4752    0.0000 C   0  0  0  0  0  0  0  0  0  0  0  0
   29.7926   26.3940    0.0000 C   0  0  0  0  0  0  0  0  0  0  0  0
   30.7407   25.2316    0.0000 C   0  0  0  0  0  0  0  0  0  0  0  0
   31.5909   23.9958    0.0000 C   0  0  0  0  0  0  0  0  0  0  0  0
   32.3375   22.6948    0.0000 C   0  0  0  0  0  0  0  0  0  0  0  0
   32.9755   21.3372    0.0000 C   0  0  0  0  0  0  0  0  0  0  0  0
   33.5008   19.9322    0.0000 C   0  0  0  0  0  0  0  0  0  0  0  0
   33.9099   18.4891    0.0000 C   0  0  0  0  0  0  0  0  0  0  0  0
   34.1999   17.0174    0.0000 C   0  0  0  0  0  0  0  0  0  0  0  0
   34.3690   15.5270    0.0000 C   0  0  0  0  0  0  0  0  0  0  0  0
   34.4161   14.0277    0.0000 C   0  0  0  0  0  0  0  0  0  0  0  0
   34.3408   12.5296    0.0000 C   0  0  0  0  0  0  0  0  0  0  0  0
   34.1436   11.0426    0.0000 C   0  0  0  0  0  0  0  0  0  0  0  0
   33.8259    9.5766    0.0000 C   0  0  0  0  0  0  0  0  0  0  0  0
   33.3898    8.1414    0.0000 C   0  0  0  0  0  0  0  0  0  0  0  0
   32.8382    6.7466    0.0000 C   0  0  0  0  0  0  0  0  0  0  0  0
   32.1746    5.4013    0.0000 C   0  0  0  0  0  0  0  0  0  0  0  0
   31.4037    4.1146    0.0000 C   0  0  0  0  0  0  0  0  0  0  0  0
   30.5304    2.8950    0.0000 C   0  0  0  0  0  0  0  0  0  0  0  0
   29.5606    1.7507    0.0000 C   0  0  0  0  0  0  0  0  0  0  0  0
   28.5008    0.6892    0.0000 C   0  0  0  0  0  0  0  0  0  0  0  0
   27.3580   -0.2824    0.0000 C   0  0  0  0  0  0  0  0  0  0  0  0
   26.1397   -1.1576    0.0000 C   0  0  0  0  0  0  0  0  0  0  0  0
   24.8543   -1.9306    0.0000 C   0  0  0  0  0  0  0  0  0  0  0  0
   23.5100   -2.5962    0.0000 C   0  0  0  0  0  0  0  0  0  0  0  0
   22.1160   -3.1501    0.0000 C   0  0  0  0  0  0  0  0  0  0  0  0
   20.6815   -3.5884    0.0000 C   0  0  0  0  0  0  0  0  0  0  0  0
   19.2160   -3.9084    0.0000 C   0  0  0  0  0  0  0  0  0  0  0  0
   17.7294   -4.1079    0.0000 C   0  0  0  0  0  0  0  0  0  0  0  0
   16.2314   -4.1856    0.0000 C   0  0  0  0  0  0  0  0  0  0  0  0
   14.7320   -4.1409    0.0000 C   0  0  0  0  0  0  0  0  0  0  0  0
   13.2413   -3.9741    0.0000 C   0  0  0  0  0  0  0  0  0  0  0  0
   11.7692   -3.6864    0.0000 C   0  0  0  0  0  0  0  0  0  0  0  0
   10.3254   -3.2796    0.0000 C   0  0  0  0  0  0  0  0  0  0  0  0
    8.9196   -2.7565    0.0000 C   0  0  0  0  0  0  0  0  0  0  0  0
    7.5611   -2.1206    0.0000 C   0  0  0  0  0  0  0  0  0  0  0  0
    6.2589   -1.3760    0.0000 C   0  0  0  0  0  0  0  0  0  0  0  0
    5.0217   -0.5278    0.0000 C   0  0  0  0  0  0  0  0  0  0  0  0
    3.8579    0.4185    0.0000 C   0  0  0  0  0  0  0  0  0  0  0  0
    2.7750    1.4564    0.0000 C   0  0  0  0  0  0  0  0  0  0  0  0
    3.1339    0.0000    0.0000 C   0  0  0  0  0  0  0  0  0  0  0  0
    2.7750   -1.4564    0.0000 C   0  0  0  0  0  0  0  0  0  0  0  0
    1.7803   -2.5792    0.0000 C   0  0  0  0  0  0  0  0  0  0  0  0
    0.3778   -3.1111    0.0000 C   0  0  0  0  0  0  0  0  0  0  0  0
   -1.1113   -2.9303    0.0000 C   0  0  0  0  0  0  0  0  0  0  0  0
   -2.3458   -2.0782    0.0000 C   0  0  0  0  0  0  0  0  0  0  0  0
   -3.0429   -0.7500    0.0000 C   0  0  0  0  0  0  0  0  0  0  0  0
   -3.0429    0.7500    0.0000 C   0  0  0  0  0  0  0  0  0  0  0  0
   -2.3458    2.0782    0.0000 C   0  0  0  0  0  0  0  0  0  0  0  0
   -1.1113    2.9303    0.0000 C   0  0  0  0  0  0  0  0  0  0  0  0
    0.3778    3.1111    0.0000 C   0  0  0  0  0  0  0  0  0  0  0  0
    1.7803    2.5792    0.0000 C   0  0  0  0  0  0  0  0  0  0  0  0
    0.8804    3.7793    0.0000 C   0  0  0  0  0  0  0  0  0  0  0  0
    2.3793    3.8365    0.0000 C   0  0  0  0  0  0  0  0  0  0  0  0
    3.0792    5.1633    0.0000 C   0  0  0  0  0  0  0  0  0  0  0  0
    2.2801    6.4327    0.0000 C   0  0  0  0  0  0  0  0  0  0  0  0
    0.7812    6.3755    0.0000 C   0  0  0  0  0  0  0  0  0  0  0  0
    0.0814    5.0487    0.0000 C   0  0  0  0  0  0  0  0  0  0  0  0
   -0.6115    6.3791    0.0000 C   0  0  0  0  0  0  0  0  0  0  0  0
   -1.5177    5.1837    0.0000 C   0  0  0  0  0  0  0  0  0  0  0  0
   -3.0060    5.3708    0.0000 C   0  0  0  0  0  0  0  0  0  0  0  0
   -3.5881    6.7532    0.0000 C   0  0  0  0  0  0  0  0  0  0  0  0
   -2.6820    7.9486    0.0000 C   0  0  0  0  0  0  0  0  0  0  0  0
   -1.1937    7.7615    0.0000 C   0  0  0  0  0  0  0  0  0  0  0  0
  1  2  1  0
  2  3  1  0
  3  4  1  0
  4  5  1  0
  5  6  1  0
  6  7  1  0
  7  8  1  0
  8  9  1  0
  9 10  1  0
 10 11  1  0
 11 12  1  0
 12 13  1  0
 13 14  1  0
 14 15  1  0
 15 16  1  0
 16 17  1  0
 17 18  1  0
 18 19  1  0
 19 20  1  0
 20 21  1  0
 21 22  1  0
 22 23  1  0
 23 24  1  0
 24 25  1  0
 25 26  1  0
 26 27  1  0
 27 28  1  0
 28 29  1  0
 29 30  1  0
 30 31  1  0
 31 32  1  0
 32 33  1  0
 33 34  1  0
 34 35  1  0
 35 36  1  0
 36 37  1  0
 37 38  1  0
 38 39  1  0
 39 40  1  0
 40 41  1  0
 41 42  1  0
 42 43  1  0
 43 44  1  0
 44 45  1  0
 45 46  1  0
 46 47  1  0
 47 48  1  0
 48 49  1  0
 49 50  1  0
 50 51  1  0
 51 52  1  0
 52 53  1  0
 53 54  1  0
 54 55  1  0
 55 56  1  0
 56 57  1  0
 57 58  1  0
 58 59  1  0
 59 60  1  0
 60 61  1  0
 61 62  1  0
 62 63  1  0
 63 64  1  0
 64 65  1  0
 65 66  1  0
 66 67  1  0
 67 68  1  0
 68 69  1  0
 69 70  1  0
 70 71  1  0
 71 72  1  0
 72 73  1  0
 73 74  1  0
 74 75  2  0
 75 76  1  0
 76 77  2  0
 77 78  1  0
 78 79  2  0
 79 80  1  0
 80 81  2  0
 81 82  1  0
 82 83  2  0
 83 84  1  0
 84 85  2  0
 85 86  1  0
 86 87  2  0
 87 88  1  0
 88 89  2  0
 89 90  1  0
 90 91  2  0
 91 92  1  0
 92 93  2  0
 93 94  1  0
 94 95  2  0
 95 96  1  0
 96 97  2  0
 97  2  1  0
 85 73  1  0
 91 86  1  0
 97 92  1  0
M  END
>  <Title>  (232) 
idAAGZgen13

$$$$

     RDKit          2D

 47 53  0  0  0  0  0  0  0  0999 V2000
    1.2135   -7.3421    0.0000 C   0  0  0  0  0  0  0  0  0  0  0  0
    0.7500   -5.9156    0.0000 C   0  0  0  0  0  0  0  0  0  0  0  0
    1.9635   -5.0339    0.0000 C   0  0  0  0  0  0  0  0  0  0  0  0
    2.4271   -3.6073    0.0000 C   0  0  0  0  0  0  0  0  0  0  0  0
    1.9635   -2.1807    0.0000 C   0  0  0  0  0  0  0  0  0  0  0  0
    3.1771   -1.2990    0.0000 O   0  0  0  0  0  0  0  0  0  0  0  0
    4.5474   -1.9091    0.0000 C   0  0  0  0  0  0  0  0  0  0  0  0
    4.7042   -3.4009    0.0000 O   0  0  0  0  0  0  0  0  0  0  0  0
    5.7609   -1.0275    0.0000 N   0  0  0  0  0  0  0  0  0  0  0  0
    7.1312   -1.6376    0.0000 C   0  0  0  0  0  0  0  0  0  0  0  0
    7.4431   -3.1048    0.0000 N   0  0  0  0  0  0  0  0  0  0  0  0
    8.9349   -3.2616    0.0000 N   0  0  0  0  0  0  0  0  0  0  0  0
    9.5450   -1.8913    0.0000 N   0  0  0  0  0  0  0  0  0  0  0  0
    8.4303   -0.8876    0.0000 N   0  0  0  0  0  0  0  0  0  0  0  0
    8.5870    0.6042    0.0000 N   0  0  0  0  0  0  0  0  0  0  0  0
    7.4723    1.6079    0.0000 C   0  0  0  0  0  0  0  0  0  0  0  0
    8.0824    2.9782    0.0000 C   0  0  0  0  0  0  0  0  0  0  0  0
    9.5742    2.8214    0.0000 N   0  0  0  0  0  0  0  0  0  0  0  0
   10.5779    3.9362    0.0000 C   0  0  0  0  0  0  0  0  0  0  0  0
   10.1144    5.3627    0.0000 O   0  0  0  0  0  0  0  0  0  0  0  0
   12.0451    3.6243    0.0000 N   0  0  0  0  0  0  0  0  0  0  0  0
   13.0488    4.7390    0.0000 C   0  0  0  0  0  0  0  0  0  0  0  0
   12.5853    6.1656    0.0000 N   0  0  0  0  0  0  0  0  0  0  0  0
   13.5890    7.2803    0.0000 N   0  0  0  0  0  0  0  0  0  0  0  0
   15.0562    6.9684    0.0000 N   0  0  0  0  0  0  0  0  0  0  0  0
   15.5197    5.5419    0.0000 N   0  0  0  0  0  0  0  0  0  0  0  0
   14.5160    4.4271    0.0000 N   0  0  0  0  0  0  0  0  0  0  0  0
    9.8861    1.3542    0.0000 C   0  0  0  0  0  0  0  0  0  0  0  0
   11.2564    0.7441    0.0000 O   0  0  0  0  0  0  0  0  0  0  0  0
    0.7500   -1.2990    0.0000 C   0  0  0  0  0  0  0  0  0  0  0  0
    1.5000    0.0000    0.0000 C   0  0  0  0  0  0  0  0  0  0  0  0
    0.7500    1.2990    0.0000 C   0  0  0  0  0  0  0  0  0  0  0  0
   -0.7500    1.2990    0.0000 C   0  0  0  0  0  0  0  0  0  0  0  0
   -1.5000    0.0000    0.0000 C   0  0  0  0  0  0  0  0  0  0  0  0
   -0.7500   -1.2990    0.0000 C   0  0  0  0  0  0  0  0  0  0  0  0
   -1.9635   -2.1807    0.0000 C   0  0  0  0  0  0  0  0  0  0  0  0
   -2.9672   -1.0660    0.0000 C   0  0  0  0  0  0  0  0  0  0  0  0
   -4.4344   -1.3779    0.0000 C   0  0  0  0  0  0  0  0  0  0  0  0
   -4.8980   -2.8045    0.0000 C   0  0  0  0  0  0  0  0  0  0  0  0
   -3.8943   -3.9192    0.0000 C   0  0  0  0  0  0  0  0  0  0  0  0
   -2.4271   -3.6073    0.0000 C   0  0  0  0  0  0  0  0  0  0  0  0
   -1.9635   -5.0339    0.0000 C   0  0  0  0  0  0  0  0  0  0  0  0
   -3.3338   -5.6440    0.0000 C   0  0  0  0  0  0  0  0  0  0  0  0
   -3.4906   -7.1358    0.0000 C   0  0  0  0  0  0  0  0  0  0  0  0
   -2.2771   -8.0175    0.0000 C   0  0  0  0  0  0  0  0  0  0  0  0
   -0.9068   -7.4073    0.0000 C   0  0  0  0  0  0  0  0  0  0  0  0
   -0.7500   -5.9156    0.0000 C   0  0  0  0  0  0  0  0  0  0  0  0
  1  2  1  0
  2  3  1  0
  3  4  2  0
  4  5  1  0
  5  6  1  0
  6  7  1  0
  7  8  2  0
  7  9  1  0
  9 10  1  0
 10 11  2  0
 11 12  1  0
 12 13  2  0
 13 14  1  0
 14 15  1  0
 15 16  1  0
 16 17  1  0
 17 18  1  0
 18 19  1  0
 19 20  2  0
 19 21  1  0
 21 22  1  0
 22 23  2  0
 23 24  1  0
 24 25  2  0
 25 26  1  0
 26 27  2  0
 18 28  1  0
 28 29  2  0
  5 30  1  0
 30 31  2  0
 31 32  1  0
 32 33  2  0
 33 34  1  0
 34 35  2  0
 35 36  1  0
 36 37  2  0
 37 38  1  0
 38 39  2  0
 39 40  1  0
 40 41  2  0
 41 42  1  0
 42 43  2  0
 43 44  1  0
 44 45  2  0
 45 46  1  0
 46 47  2  0
 47  2  1  0
 14 10  1  0
 28 15  1  0
 35 30  1  0
 41 36  1  0
 47 42  1  0
 27 22  1  0
M  END
>  <Title>  (233) 
idAAHAgen13

$$$$

     RDKit          2D

 74 73  0  0  0  0  0  0  0  0999 V2000
    0.0000    0.0000    0.0000 C   0  0  0  0  0  0  0  0  0  0  0  0
   -0.0000   -1.5000    0.0000 C   0  0  0  0  0  0  0  0  0  0  0  0
   -0.0000   -3.0000    0.0000 C   0  0  0  0  0  0  0  0  0  0  0  0
   -0.0000   -4.5000    0.0000 C   0  0  0  0  0  0  0  0  0  0  0  0
   -0.0000   -6.0000    0.0000 C   0  0  0  0  0  0  0  0  0  0  0  0
   -0.0000   -7.5000    0.0000 C   0  0  0  0  0  0  0  0  0  0  0  0
   -0.0000   -9.0000    0.0000 C   0  0  0  0  0  0  0  0  0  0  0  0
   -0.0000  -10.5000    0.0000 C   0  0  0  0  0  0  0  0  0  0  0  0
   -0.0000  -12.0000    0.0000 C   0  0  0  0  0  0  0  0  0  0  0  0
   -0.0000  -13.5000    0.0000 C   0  0  0  0  0  0  0  0  0  0  0  0
   -0.0000  -15.0000    0.0000 C   0  0  0  0  0  0  0  0  0  0  0  0
   -0.0000  -16.5000    0.0000 C   0  0  0  0  0  0  0  0  0  0  0  0
   -0.0000  -18.0000    0.0000 C   0  0  0  0  0  0  0  0  0  0  0  0
   -0.0000  -19.5000    0.0000 C   0  0  0  0  0  0  0  0  0  0  0  0
   -0.0000  -21.0000    0.0000 C   0  0  0  0  0  0  0  0  0  0  0  0
   -0.0000  -22.5000    0.0000 C   0  0  0  0  0  0  0  0  0  0  0  0
   -0.0000  -24.0000    0.0000 C   0  0  0  0  0  0  0  0  0  0  0  0
   -0.0000  -25.5000    0.0000 C   0  0  0  0  0  0  0  0  0  0  0  0
   -0.0000  -27.0000    0.0000 C   0  0  0  0  0  0  0  0  0  0  0  0
   -0.0000  -28.5000    0.0000 C   0  0  0  0  0  0  0  0  0  0  0  0
   -0.0000  -30.0000    0.0000 C   0  0  0  0  0  0  0  0  0  0  0  0
   -0.0000  -31.5000    0.0000 C   0  0  0  0  0  0  0  0  0  0  0  0
   -0.0000  -33.0000    0.0000 C   0  0  0  0  0  0  0  0  0  0  0  0
   -0.0000  -34.5000    0.0000 C   0  0  0  0  0  0  0  0  0  0  0  0
   -0.0000  -36.0000    0.0000 C   0  0  0  0  0  0  0  0  0  0  0  0
   -0.0000  -37.5000    0.0000 C   0  0  0  0  0  0  0  0  0  0  0  0
   -0.0000  -39.0000    0.0000 C   0  0  0  0  0  0  0  0  0  0  0  0
   -0.0000  -40.5000    0.0000 C   0  0  0  0  0  0  0  0  0  0  0  0
   -0.0000  -42.0000    0.0000 C   0  0  0  0  0  0  0  0  0  0  0  0
   -0.0000  -43.5000    0.0000 C   0  0  0  0  0  0  0  0  0  0  0  0
   -0.0000  -45.0000    0.0000 C   0  0  0  0  0  0  0  0  0  0  0  0
   -0.0000  -46.5000    0.0000 C   0  0  0  0  0  0  0  0  0  0  0  0
   -0.0000  -48.0000    0.0000 C   0  0  0  0  0  0  0  0  0  0  0  0
   -0.0000  -49.5000    0.0000 C   0  0  0  0  0  0  0  0  0  0  0  0
   -0.0000  -51.0000    0.0000 C   0  0  0  0  0  0  0  0  0  0  0  0
   -0.0000  -52.5000    0.0000 C   0  0  0  0  0  0  0  0  0  0  0  0
   -0.0000  -54.0000    0.0000 C   0  0  0  0  0  0  0  0  0  0  0  0
   -0.0000  -55.5000    0.0000 C   0  0  0  0  0  0  0  0  0  0  0  0
   -0.0000  -57.0000    0.0000 C   0  0  0  0  0  0  0  0  0  0  0  0
   -0.0000  -58.5000    0.0000 C   0  0  0  0  0  0  0  0  0  0  0  0
   -0.0000  -60.0000    0.0000 C   0  0  0  0  0  0  0  0  0  0  0  0
   -0.0000  -61.5000    0.0000 C   0  0  0  0  0  0  0  0  0  0  0  0
   -0.0000  -63.0000    0.0000 C   0  0  0  0  0  0  0  0  0  0  0  0
   -0.0000  -64.5000    0.0000 C   0  0  0  0  0  0  0  0  0  0  0  0
   -0.0000  -66.0000    0.0000 C   0  0  0  0  0  0  0  0  0  0  0  0
   -0.0000  -67.5000    0.0000 C   0  0  0  0  0  0  0  0  0  0  0  0
   -0.0000  -69.0000    0.0000 C   0  0  0  0  0  0  0  0  0  0  0  0
   -0.0000  -70.5000    0.0000 C   0  0  0  0  0  0  0  0  0  0  0  0
   -0.0000  -72.0000    0.0000 C   0  0  0  0  0  0  0  0  0  0  0  0
   -0.0000  -73.5000    0.0000 C   0  0  0  0  0  0  0  0  0  0  0  0
   -0.0000  -75.0000    0.0000 C   0  0  0  0  0  0  0  0  0  0  0  0
   -0.0000  -76.5000    0.0000 C   0  0  0  0  0  0  0  0  0  0  0  0
   -0.0000  -78.0000    0.0000 C   0  0  0  0  0  0  0  0  0  0  0  0
   -0.0000  -79.5000    0.0000 C   0  0  0  0  0  0  0  0  0  0  0  0
   -0.0000  -81.0000    0.0000 C   0  0  0  0  0  0  0  0  0  0  0  0
   -0.0000  -82.5000    0.0000 C   0  0  0  0  0  0  0  0  0  0  0  0
   -0.0000  -84.0000    0.0000 C   0  0  0  0  0  0  0  0  0  0  0  0
   -0.0000  -85.5000    0.0000 C   0  0  0  0  0  0  0  0  0  0  0  0
   -0.0000  -87.0000    0.0000 C   0  0  0  0  0  0  0  0  0  0  0  0
   -0.0000  -88.5000    0.0000 C   0  0  0  0  0  0  0  0  0  0  0  0
   -0.0000  -90.0000    0.0000 C   0  0  0  0  0  0  0  0  0  0  0  0
   -0.0000  -91.5000    0.0000 C   0  0  0  0  0  0  0  0  0  0  0  0
   -0.0000  -93.0000    0.0000 C   0  0  0  0  0  0  0  0  0  0  0  0
   -0.0000  -94.5000    0.0000 C   0  0  0  0  0  0  0  0  0  0  0  0
   -0.0000  -96.0000    0.0000 C   0  0  0  0  0  0  0  0  0  0  0  0
   -0.0000  -97.5000    0.0000 C   0  0  0  0  0  0  0  0  0  0  0  0
   -0.0000  -99.0000    0.0000 C   0  0  0  0  0  0  0  0  0  0  0  0
   -0.0000 -100.5000    0.0000 C   0  0  0  0  0  0  0  0  0  0  0  0
   -0.0000 -102.0000    0.0000 C   0  0  0  0  0  0  0  0  0  0  0  0
   -0.0000 -103.5000    0.0000 C   0  0  0  0  0  0  0  0  0  0  0  0
   -0.0000 -105.0000    0.0000 C   0  0  0  0  0  0  0  0  0  0  0  0
   -0.0000 -106.5000    0.0000 C   0  0  0  0  0  0  0  0  0  0  0  0
   -0.0000 -108.0000    0.0000 C   0  0  0  0  0  0  0  0  0  0  0  0
   -0.0000 -109.5000    0.0000 C   0  0  0  0  0  0  0  0  0  0  0  0
  1  2  3  0
  2  3  1  0
  3  4  3  0
  4  5  1  0
  5  6  3  0
  6  7  1  0
  7  8  3  0
  8  9  1  0
  9 10  3  0
 10 11  1  0
 11 12  3  0
 12 13  1  0
 13 14  3  0
 14 15  1  0
 15 16  3  0
 16 17  1  0
 17 18  3  0
 18 19  1  0
 19 20  3  0
 20 21  1  0
 21 22  3  0
 22 23  1  0
 23 24  3  0
 24 25  1  0
 25 26  3  0
 26 27  1  0
 27 28  3  0
 28 29  1  0
 29 30  3  0
 30 31  1  0
 31 32  3  0
 32 33  1  0
 33 34  3  0
 34 35  1  0
 35 36  3  0
 36 37  1  0
 37 38  3  0
 38 39  1  0
 39 40  3  0
 40 41  1  0
 41 42  3  0
 42 43  1  0
 43 44  3  0
 44 45  1  0
 45 46  3  0
 46 47  1  0
 47 48  3  0
 48 49  1  0
 49 50  3  0
 50 51  1  0
 51 52  3  0
 52 53  1  0
 53 54  3  0
 54 55  1  0
 55 56  3  0
 56 57  1  0
 57 58  3  0
 58 59  1  0
 59 60  3  0
 60 61  1  0
 61 62  3  0
 62 63  1  0
 63 64  3  0
 64 65  1  0
 65 66  3  0
 66 67  1  0
 67 68  3  0
 68 69  1  0
 69 70  3  0
 70 71  1  0
 71 72  3  0
 72 73  1  0
 73 74  3  0
M  END
>  <Title>  (234) 
idAAHBgen13

$$$$

     RDKit          2D

 64 65  0  0  0  0  0  0  0  0999 V2000
   -3.2182   -3.4598    0.0000 C   0  0  0  0  0  0  0  0  0  0  0  0
   -3.4448   -1.9770    0.0000 C   0  0  0  0  0  0  0  0  0  0  0  0
   -2.2740   -1.0393    0.0000 C   0  0  0  0  0  0  0  0  0  0  0  0
   -2.5006    0.4434    0.0000 C   0  0  0  0  0  0  0  0  0  0  0  0
   -3.9935    0.2974    0.0000 C   0  0  0  0  0  0  0  0  0  0  0  0
   -5.4934    0.3137    0.0000 C   0  0  0  0  0  0  0  0  0  0  0  0
   -6.9828    0.4920    0.0000 C   0  0  0  0  0  0  0  0  0  0  0  0
   -8.4441    0.8303    0.0000 C   0  0  0  0  0  0  0  0  0  0  0  0
   -9.8603    1.3246    0.0000 C   0  0  0  0  0  0  0  0  0  0  0  0
  -11.2148    1.9692    0.0000 C   0  0  0  0  0  0  0  0  0  0  0  0
  -12.4916    2.7564    0.0000 C   0  0  0  0  0  0  0  0  0  0  0  0
  -13.6759    3.6770    0.0000 C   0  0  0  0  0  0  0  0  0  0  0  0
  -14.7536    4.7203    0.0000 C   0  0  0  0  0  0  0  0  0  0  0  0
  -15.7123    5.8740    0.0000 C   0  0  0  0  0  0  0  0  0  0  0  0
  -16.5405    7.1246    0.0000 C   0  0  0  0  0  0  0  0  0  0  0  0
  -17.2288    8.4574    0.0000 C   0  0  0  0  0  0  0  0  0  0  0  0
  -17.7688    9.8568    0.0000 C   0  0  0  0  0  0  0  0  0  0  0  0
  -18.1544   11.3064    0.0000 C   0  0  0  0  0  0  0  0  0  0  0  0
  -18.3811   12.7891    0.0000 C   0  0  0  0  0  0  0  0  0  0  0  0
  -18.4460   14.2877    0.0000 C   0  0  0  0  0  0  0  0  0  0  0  0
  -18.3486   15.7846    0.0000 C   0  0  0  0  0  0  0  0  0  0  0  0
  -18.0899   17.2621    0.0000 C   0  0  0  0  0  0  0  0  0  0  0  0
  -17.6730   18.7030    0.0000 C   0  0  0  0  0  0  0  0  0  0  0  0
  -17.1027   20.0904    0.0000 C   0  0  0  0  0  0  0  0  0  0  0  0
  -16.3858   21.4079    0.0000 C   0  0  0  0  0  0  0  0  0  0  0  0
  -15.5306   22.6403    0.0000 C   0  0  0  0  0  0  0  0  0  0  0  0
  -14.5472   23.7729    0.0000 C   0  0  0  0  0  0  0  0  0  0  0  0
  -13.4471   24.7926    0.0000 C   0  0  0  0  0  0  0  0  0  0  0  0
  -12.2432   25.6874    0.0000 C   0  0  0  0  0  0  0  0  0  0  0  0
  -10.9496   26.4468    0.0000 C   0  0  0  0  0  0  0  0  0  0  0  0
   -9.5815   27.0618    0.0000 C   0  0  0  0  0  0  0  0  0  0  0  0
   -8.1549   27.5253    0.0000 C   0  0  0  0  0  0  0  0  0  0  0  0
   -6.6866   27.8319    0.0000 C   0  0  0  0  0  0  0  0  0  0  0  0
   -5.1937   27.9779    0.0000 C   0  0  0  0  0  0  0  0  0  0  0  0
   -3.6938   27.9617    0.0000 C   0  0  0  0  0  0  0  0  0  0  0  0
   -2.2044   27.7833    0.0000 C   0  0  0  0  0  0  0  0  0  0  0  0
   -0.7431   27.4450    0.0000 C   0  0  0  0  0  0  0  0  0  0  0  0
    0.6731   26.9507    0.0000 C   0  0  0  0  0  0  0  0  0  0  0  0
    2.0276   26.3062    0.0000 C   0  0  0  0  0  0  0  0  0  0  0  0
    3.3044   25.5190    0.0000 C   0  0  0  0  0  0  0  0  0  0  0  0
    4.4887   24.5983    0.0000 C   0  0  0  0  0  0  0  0  0  0  0  0
    5.5664   23.5550    0.0000 C   0  0  0  0  0  0  0  0  0  0  0  0
    6.5250   22.4013    0.0000 C   0  0  0  0  0  0  0  0  0  0  0  0
    7.3533   21.1508    0.0000 C   0  0  0  0  0  0  0  0  0  0  0  0
    8.0415   19.8180    0.0000 C   0  0  0  0  0  0  0  0  0  0  0  0
    8.5816   18.4186    0.0000 C   0  0  0  0  0  0  0  0  0  0  0  0
    8.9672   16.9690    0.0000 C   0  0  0  0  0  0  0  0  0  0  0  0
    9.1939   15.4862    0.0000 C   0  0  0  0  0  0  0  0  0  0  0  0
    9.2588   13.9876    0.0000 C   0  0  0  0  0  0  0  0  0  0  0  0
    9.1614   12.4908    0.0000 C   0  0  0  0  0  0  0  0  0  0  0  0
    8.9027   11.0132    0.0000 C   0  0  0  0  0  0  0  0  0  0  0  0
    8.4858    9.5723    0.0000 C   0  0  0  0  0  0  0  0  0  0  0  0
    7.9155    8.1850    0.0000 C   0  0  0  0  0  0  0  0  0  0  0  0
    7.1986    6.8674    0.0000 C   0  0  0  0  0  0  0  0  0  0  0  0
    6.3434    5.6351    0.0000 C   0  0  0  0  0  0  0  0  0  0  0  0
    5.3600    4.5024    0.0000 C   0  0  0  0  0  0  0  0  0  0  0  0
    4.2599    3.4827    0.0000 C   0  0  0  0  0  0  0  0  0  0  0  0
    3.0560    2.5879    0.0000 C   0  0  0  0  0  0  0  0  0  0  0  0
    1.7624    1.8286    0.0000 C   0  0  0  0  0  0  0  0  0  0  0  0
    0.3943    1.2135    0.0000 C   0  0  0  0  0  0  0  0  0  0  0  0
    1.2760    0.0000    0.0000 C   0  0  0  0  0  0  0  0  0  0  0  0
    0.3943   -1.2135    0.0000 C   0  0  0  0  0  0  0  0  0  0  0  0
   -1.0323   -0.7500    0.0000 C   0  0  0  0  0  0  0  0  0  0  0  0
   -1.0323    0.7500    0.0000 C   0  0  0  0  0  0  0  0  0  0  0  0
  1  2  1  0
  2  3  1  0
  3  4  1  0
  4  5  1  0
  5  6  1  0
  6  7  1  0
  7  8  1  0
  8  9  1  0
  9 10  1  0
 10 11  1  0
 11 12  1  0
 12 13  1  0
 13 14  1  0
 14 15  1  0
 15 16  1  0
 16 17  1  0
 17 18  1  0
 18 19  1  0
 19 20  1  0
 20 21  1  0
 21 22  1  0
 22 23  1  0
 23 24  1  0
 24 25  1  0
 25 26  1  0
 26 27  1  0
 27 28  1  0
 28 29  1  0
 29 30  1  0
 30 31  1  0
 31 32  1  0
 32 33  1  0
 33 34  2  0
 34 35  1  0
 35 36  2  0
 36 37  1  0
 37 38  2  0
 38 39  1  0
 39 40  2  0
 40 41  1  0
 41 42  2  0
 42 43  1  0
 43 44  2  0
 44 45  1  0
 45 46  2  0
 46 47  1  0
 47 48  2  0
 48 49  1  0
 49 50  2  0
 50 51  1  0
 51 52  2  0
 52 53  1  0
 53 54  2  0
 54 55  1  0
 55 56  2  0
 56 57  1  0
 57 58  2  0
 58 59  1  0
 59 60  2  0
 60 61  1  0
 61 62  2  0
 62 63  1  0
 63 64  2  0
 64  4  1  0
 64 60  1  0
M  END
>  <Title>  (235) 
idAAHCgen13

$$$$

     RDKit          2D

 34 37  0  0  0  0  0  0  0  0999 V2000
    3.6929    0.0000    0.0000 C   0  0  0  0  0  0  0  0  0  0  0  0
    2.1929    0.0000    0.0000 C   0  0  0  0  0  0  0  0  0  0  0  0
    1.6798    1.4095    0.0000 C   0  0  0  0  0  0  0  0  0  0  0  0
    0.3808    2.1595    0.0000 C   0  0  0  0  0  0  0  0  0  0  0  0
   -1.0964    1.8991    0.0000 C   0  0  0  0  0  0  0  0  0  0  0  0
   -2.0606    0.7500    0.0000 C   0  0  0  0  0  0  0  0  0  0  0  0
   -2.0606   -0.7500    0.0000 C   0  0  0  0  0  0  0  0  0  0  0  0
   -1.0964   -1.8991    0.0000 C   0  0  0  0  0  0  0  0  0  0  0  0
   -1.8464   -3.1981    0.0000 C   0  0  0  0  0  0  0  0  0  0  0  0
   -1.0964   -4.4971    0.0000 O   0  0  0  0  0  0  0  0  0  0  0  0
   -3.3464   -3.1981    0.0000 N   0  0  0  0  0  0  0  0  0  0  0  0
   -4.0964   -4.4971    0.0000 C   0  0  0  0  0  0  0  0  0  0  0  0
   -3.4863   -5.8675    0.0000 N   0  0  0  0  0  0  0  0  0  0  0  0
   -4.6010   -6.8712    0.0000 N   0  0  0  0  0  0  0  0  0  0  0  0
   -5.9001   -6.1212    0.0000 N   0  0  0  0  0  0  0  0  0  0  0  0
   -5.5882   -4.6539    0.0000 N   0  0  0  0  0  0  0  0  0  0  0  0
   -6.5919   -3.5392    0.0000 N   0  0  0  0  0  0  0  0  0  0  0  0
   -8.0837   -3.6960    0.0000 C   0  0  0  0  0  0  0  0  0  0  0  0
   -8.6938   -2.3257    0.0000 C   0  0  0  0  0  0  0  0  0  0  0  0
   -7.5791   -1.3220    0.0000 N   0  0  0  0  0  0  0  0  0  0  0  0
   -7.7359    0.1698    0.0000 C   0  0  0  0  0  0  0  0  0  0  0  0
   -9.1062    0.7799    0.0000 O   0  0  0  0  0  0  0  0  0  0  0  0
   -6.5223    1.0515    0.0000 N   0  0  0  0  0  0  0  0  0  0  0  0
   -6.6791    2.5432    0.0000 C   0  0  0  0  0  0  0  0  0  0  0  0
   -5.4656    3.4249    0.0000 N   0  0  0  0  0  0  0  0  0  0  0  0
   -5.6224    4.9167    0.0000 N   0  0  0  0  0  0  0  0  0  0  0  0
   -6.9927    5.5268    0.0000 N   0  0  0  0  0  0  0  0  0  0  0  0
   -8.2062    4.6451    0.0000 N   0  0  0  0  0  0  0  0  0  0  0  0
   -8.0495    3.1534    0.0000 N   0  0  0  0  0  0  0  0  0  0  0  0
   -6.2800   -2.0720    0.0000 C   0  0  0  0  0  0  0  0  0  0  0  0
   -4.9097   -1.4619    0.0000 O   0  0  0  0  0  0  0  0  0  0  0  0
    0.3808   -2.1595    0.0000 C   0  0  0  0  0  0  0  0  0  0  0  0
    0.6413   -3.6368    0.0000 O   0  0  0  0  0  0  0  0  0  0  0  0
    1.6798   -1.4095    0.0000 N   0  0  0  0  0  0  0  0  0  0  0  0
  1  2  1  0
  2  3  1  0
  3  4  1  0
  4  5  1  0
  5  6  1  0
  6  7  1  0
  7  8  1  0
  8  9  1  0
  9 10  2  0
  9 11  1  0
 11 12  1  0
 12 13  2  0
 13 14  1  0
 14 15  2  0
 15 16  1  0
 16 17  1  0
 17 18  1  0
 18 19  1  0
 19 20  1  0
 20 21  1  0
 21 22  2  0
 21 23  1  0
 23 24  1  0
 24 25  2  0
 25 26  1  0
 26 27  2  0
 27 28  1  0
 28 29  2  0
 20 30  1  0
 30 31  2  0
  8 32  1  0
 32 33  2  0
 32 34  1  0
 34  2  1  0
 16 12  1  0
 30 17  1  0
 29 24  1  0
M  END
>  <Title>  (236) 
idAAHDgen13

$$$$

     RDKit          2D

 19 20  0  0  0  0  0  0  0  0999 V2000
   -4.4388   -7.7572    0.0000 C   0  0  0  0  0  0  0  0  0  0  0  0
   -2.9716   -7.4453    0.0000 C   0  0  0  0  0  0  0  0  0  0  0  0
   -2.5081   -6.0187    0.0000 C   0  0  0  0  0  0  0  0  0  0  0  0
   -1.0409   -5.7068    0.0000 C   0  0  0  0  0  0  0  0  0  0  0  0
   -0.5773   -4.2803    0.0000 N   0  0  0  0  0  0  0  0  0  0  0  0
    0.8899   -3.9684    0.0000 C   0  0  0  0  0  0  0  0  0  0  0  0
    2.0046   -4.9721    0.0000 N   0  0  0  0  0  0  0  0  0  0  0  0
    3.3037   -4.2221    0.0000 N   0  0  0  0  0  0  0  0  0  0  0  0
    2.9918   -2.7549    0.0000 N   0  0  0  0  0  0  0  0  0  0  0  0
    1.5000   -2.5981    0.0000 N   0  0  0  0  0  0  0  0  0  0  0  0
    0.7500   -1.2990    0.0000 C   0  0  0  0  0  0  0  0  0  0  0  0
    1.5000    0.0000    0.0000 C   0  0  0  0  0  0  0  0  0  0  0  0
    0.7500    1.2990    0.0000 C   0  0  0  0  0  0  0  0  0  0  0  0
   -0.7500    1.2990    0.0000 C   0  0  0  0  0  0  0  0  0  0  0  0
   -1.5000    2.5981    0.0000 O   0  0  0  0  0  0  0  0  0  0  0  0
   -0.7500    3.8971    0.0000 C   0  0  0  0  0  0  0  0  0  0  0  0
   -1.5000    0.0000    0.0000 C   0  0  0  0  0  0  0  0  0  0  0  0
   -3.0000    0.0000    0.0000 C   0  0  0  0  0  0  0  0  0  0  0  0
   -0.7500   -1.2990    0.0000 C   0  0  0  0  0  0  0  0  0  0  0  0
  1  2  2  0
  2  3  1  0
  3  4  1  0
  4  5  1  0
  5  6  1  0
  6  7  2  0
  7  8  1  0
  8  9  2  0
  9 10  1  0
 10 11  1  0
 11 12  2  0
 12 13  1  0
 13 14  2  0
 14 15  1  0
 15 16  1  0
 14 17  1  0
 17 18  1  0
 17 19  2  0
 10  6  1  0
 19 11  1  0
M  END
>  <Title>  (237) 
idAAHEgen13

$$$$

     RDKit          2D

 13 12  0  0  0  0  0  0  0  0999 V2000
    0.0000    0.0000    0.0000 C   0  0  0  0  0  0  0  0  0  0  0  0
    1.2990    0.7500    0.0000 C   0  0  0  0  0  0  0  0  0  0  0  0
    2.5981   -0.0000    0.0000 C   0  0  0  0  0  0  0  0  0  0  0  0
    3.8971    0.7500    0.0000 N   0  0  0  0  0  0  0  0  0  0  0  0
    5.1962   -0.0000    0.0000 C   0  0  0  0  0  0  0  0  0  0  0  0
    5.1962   -1.5000    0.0000 O   0  0  0  0  0  0  0  0  0  0  0  0
    6.4952    0.7500    0.0000 N   0  0  0  0  0  0  0  0  0  0  0  0
    7.7942   -0.0000    0.0000 C   0  0  0  0  0  0  0  0  0  0  0  0
    7.7942   -1.5000    0.0000 O   0  0  0  0  0  0  0  0  0  0  0  0
    9.0933    0.7500    0.0000 C   0  0  0  0  0  0  0  0  0  0  0  0
   10.3923   -0.0000    0.0000 C   0  0  0  0  0  0  0  0  0  0  0  0
   11.6913    0.7500    0.0000 C   0  0  0  0  0  0  0  0  0  0  0  0
   12.9904   -0.0000    0.0000 C   0  0  0  0  0  0  0  0  0  0  0  0
  1  2  1  0
  2  3  2  3
  3  4  1  0
  4  5  1  0
  5  6  2  0
  5  7  1  0
  7  8  1  0
  8  9  2  0
  8 10  1  0
 10 11  1  0
 11 12  1  0
 12 13  1  0
M  END
>  <Title>  (238) 
idAAHFgen13

$$$$

     RDKit          2D

  5  5  0  0  0  0  0  0  0  0999 V2000
    1.2760    0.0000    0.0000 C   0  0  0  0  0  0  0  0  0  0  0  0
    0.3943    1.2135    0.0000 C   0  0  0  0  0  0  0  0  0  0  0  0
   -1.0323    0.7500    0.0000 C   0  0  0  0  0  0  0  0  0  0  0  0
   -1.0323   -0.7500    0.0000 N   0  0  0  0  0  0  0  0  0  0  0  0
    0.3943   -1.2135    0.0000 C   0  0  0  0  0  0  0  0  0  0  0  0
  1  2  2  0
  2  3  1  0
  3  4  1  0
  4  5  2  0
  5  1  1  0
M  END
>  <Title>  (239) 
idAAHGgen13

$$$$

     RDKit          2D

  9  8  0  0  0  0  0  0  0  0999 V2000
    0.0000    0.0000    0.0000 C   0  0  0  0  0  0  0  0  0  0  0  0
   -0.0000   -1.5000    0.0000 C   0  0  0  0  0  0  0  0  0  0  0  0
   -0.0000   -3.0000    0.0000 C   0  0  0  0  0  0  0  0  0  0  0  0
    1.2990   -3.7500    0.0000 C   0  0  0  0  0  0  0  0  0  0  0  0
    2.5981   -3.0000    0.0000 O   0  0  0  0  0  0  0  0  0  0  0  0
    1.2990   -5.2500    0.0000 N   0  0  0  0  0  0  0  0  0  0  0  0
    2.5981   -6.0000    0.0000 C   0  0  0  0  0  0  0  0  0  0  0  0
    2.5981   -7.5000    0.0000 C   0  0  0  0  0  0  0  0  0  0  0  0
    3.8971   -5.2500    0.0000 C   0  0  0  0  0  0  0  0  0  0  0  0
  1  2  3  0
  2  3  1  0
  3  4  1  0
  4  5  2  0
  4  6  1  0
  6  7  1  0
  7  8  1  0
  7  9  1  0
M  END
>  <Title>  (240) 
idAAHHgen13

$$$$

     RDKit          2D

 22 25  0  0  0  0  0  0  0  0999 V2000
   -3.0000   -2.5981    0.0000 C   0  0  0  0  0  0  0  0  0  0  0  0
   -1.5000   -2.5981    0.0000 C   0  0  0  0  0  0  0  0  0  0  0  0
   -0.7500   -3.8971    0.0000 C   0  0  0  0  0  0  0  0  0  0  0  0
    0.7500   -3.8971    0.0000 C   0  0  0  0  0  0  0  0  0  0  0  0
    1.5000   -2.5981    0.0000 C   0  0  0  0  0  0  0  0  0  0  0  0
    3.0000   -2.5981    0.0000 C   0  0  0  0  0  0  0  0  0  0  0  0
    3.8817   -1.3846    0.0000 C   0  0  0  0  0  0  0  0  0  0  0  0
    5.3083   -1.8481    0.0000 C   0  0  0  0  0  0  0  0  0  0  0  0
    5.3083   -3.3481    0.0000 C   0  0  0  0  0  0  0  0  0  0  0  0
    6.5218   -4.2298    0.0000 N   0  0  0  0  0  0  0  0  0  0  0  0
    7.9484   -3.7662    0.0000 C   0  0  0  0  0  0  0  0  0  0  0  0
    8.8301   -4.9798    0.0000 C   0  0  0  0  0  0  0  0  0  0  0  0
    7.9484   -6.1933    0.0000 C   0  0  0  0  0  0  0  0  0  0  0  0
    6.5218   -5.7298    0.0000 N   0  0  0  0  0  0  0  0  0  0  0  0
    3.8817   -3.8116    0.0000 C   0  0  0  0  0  0  0  0  0  0  0  0
    3.4182   -5.2382    0.0000 O   0  0  0  0  0  0  0  0  0  0  0  0
    0.7500   -1.2990    0.0000 C   0  0  0  0  0  0  0  0  0  0  0  0
    1.5000    0.0000    0.0000 C   0  0  0  0  0  0  0  0  0  0  0  0
    0.7500    1.2990    0.0000 C   0  0  0  0  0  0  0  0  0  0  0  0
   -0.7500    1.2990    0.0000 C   0  0  0  0  0  0  0  0  0  0  0  0
   -1.5000    0.0000    0.0000 C   0  0  0  0  0  0  0  0  0  0  0  0
   -0.7500   -1.2990    0.0000 C   0  0  0  0  0  0  0  0  0  0  0  0
  1  2  1  0
  2  3  2  0
  3  4  1  0
  4  5  2  0
  5  6  1  0
  6  7  2  0
  7  8  1  0
  8  9  2  0
  9 10  1  0
 10 11  1  0
 11 12  2  0
 12 13  1  0
 13 14  2  0
  9 15  1  0
 15 16  2  0
  5 17  1  0
 17 18  2  0
 18 19  1  0
 19 20  2  0
 20 21  1  0
 21 22  2  0
 22  2  1  0
 15  6  1  0
 22 17  1  0
 14 10  1  0
M  END
>  <Title>  (241) 
idAAHIgen13

$$$$

     RDKit          2D

 17 18  0  0  0  0  0  0  0  0999 V2000
    8.0260    3.8971    0.0000 C   0  0  0  0  0  0  0  0  0  0  0  0
    7.2760    2.5981    0.0000 C   0  0  0  0  0  0  0  0  0  0  0  0
    5.7760    2.5981    0.0000 C   0  0  0  0  0  0  0  0  0  0  0  0
    5.0260    1.2990    0.0000 C   0  0  0  0  0  0  0  0  0  0  0  0
    3.5260    1.2990    0.0000 C   0  0  0  0  0  0  0  0  0  0  0  0
    2.7760    2.5981    0.0000 O   0  0  0  0  0  0  0  0  0  0  0  0
    2.7760    0.0000    0.0000 N   0  0  0  0  0  0  0  0  0  0  0  0
    1.2760    0.0000    0.0000 C   0  0  0  0  0  0  0  0  0  0  0  0
    0.3943    1.2135    0.0000 N   0  0  0  0  0  0  0  0  0  0  0  0
   -1.0323    0.7500    0.0000 N   0  0  0  0  0  0  0  0  0  0  0  0
   -1.0323   -0.7500    0.0000 N   0  0  0  0  0  0  0  0  0  0  0  0
    0.3943   -1.2135    0.0000 N   0  0  0  0  0  0  0  0  0  0  0  0
    0.8578   -2.6401    0.0000 C   0  0  0  0  0  0  0  0  0  0  0  0
   -0.0239   -3.8536    0.0000 C   0  0  0  0  0  0  0  0  0  0  0  0
    0.8578   -5.0672    0.0000 C   0  0  0  0  0  0  0  0  0  0  0  0
    2.2844   -4.6036    0.0000 C   0  0  0  0  0  0  0  0  0  0  0  0
    2.2844   -3.1036    0.0000 C   0  0  0  0  0  0  0  0  0  0  0  0
  1  2  2  0
  2  3  1  0
  3  4  1  0
  4  5  1  0
  5  6  2  0
  5  7  1  0
  7  8  1  0
  8  9  2  0
  9 10  1  0
 10 11  2  0
 11 12  1  0
 12 13  1  0
 13 14  2  0
 14 15  1  0
 15 16  1  0
 16 17  1  0
 12  8  1  0
 17 13  1  0
M  END
>  <Title>  (242) 
idAAHJgen13

$$$$

     RDKit          2D

 40 39  0  0  0  0  0  0  0  0999 V2000
    0.0000    0.0000    0.0000 C   0  0  0  0  0  0  0  0  0  0  0  0
   -0.0000   -1.5000    0.0000 C   0  0  0  0  0  0  0  0  0  0  0  0
   -0.0000   -3.0000    0.0000 C   0  0  0  0  0  0  0  0  0  0  0  0
   -0.0000   -4.5000    0.0000 C   0  0  0  0  0  0  0  0  0  0  0  0
   -0.0000   -6.0000    0.0000 C   0  0  0  0  0  0  0  0  0  0  0  0
   -0.0000   -7.5000    0.0000 C   0  0  0  0  0  0  0  0  0  0  0  0
   -0.0000   -9.0000    0.0000 C   0  0  0  0  0  0  0  0  0  0  0  0
   -0.0000  -10.5000    0.0000 C   0  0  0  0  0  0  0  0  0  0  0  0
   -0.0000  -12.0000    0.0000 C   0  0  0  0  0  0  0  0  0  0  0  0
   -0.0000  -13.5000    0.0000 C   0  0  0  0  0  0  0  0  0  0  0  0
   -0.0000  -15.0000    0.0000 C   0  0  0  0  0  0  0  0  0  0  0  0
   -0.0000  -16.5000    0.0000 C   0  0  0  0  0  0  0  0  0  0  0  0
   -0.0000  -18.0000    0.0000 C   0  0  0  0  0  0  0  0  0  0  0  0
   -0.0000  -19.5000    0.0000 C   0  0  0  0  0  0  0  0  0  0  0  0
   -0.0000  -21.0000    0.0000 C   0  0  0  0  0  0  0  0  0  0  0  0
   -0.0000  -22.5000    0.0000 C   0  0  0  0  0  0  0  0  0  0  0  0
   -0.0000  -24.0000    0.0000 C   0  0  0  0  0  0  0  0  0  0  0  0
   -0.0000  -25.5000    0.0000 C   0  0  0  0  0  0  0  0  0  0  0  0
   -0.0000  -27.0000    0.0000 C   0  0  0  0  0  0  0  0  0  0  0  0
   -0.0000  -28.5000    0.0000 C   0  0  0  0  0  0  0  0  0  0  0  0
   -0.0000  -30.0000    0.0000 C   0  0  0  0  0  0  0  0  0  0  0  0
   -0.0000  -31.5000    0.0000 C   0  0  0  0  0  0  0  0  0  0  0  0
   -0.0000  -33.0000    0.0000 C   0  0  0  0  0  0  0  0  0  0  0  0
   -0.0000  -34.5000    0.0000 C   0  0  0  0  0  0  0  0  0  0  0  0
   -0.0000  -36.0000    0.0000 C   0  0  0  0  0  0  0  0  0  0  0  0
   -0.0000  -37.5000    0.0000 C   0  0  0  0  0  0  0  0  0  0  0  0
   -0.0000  -39.0000    0.0000 C   0  0  0  0  0  0  0  0  0  0  0  0
   -0.0000  -40.5000    0.0000 C   0  0  0  0  0  0  0  0  0  0  0  0
   -0.0000  -42.0000    0.0000 C   0  0  0  0  0  0  0  0  0  0  0  0
   -0.0000  -43.5000    0.0000 C   0  0  0  0  0  0  0  0  0  0  0  0
   -0.0000  -45.0000    0.0000 C   0  0  0  0  0  0  0  0  0  0  0  0
   -0.0000  -46.5000    0.0000 C   0  0  0  0  0  0  0  0  0  0  0  0
   -0.0000  -48.0000    0.0000 C   0  0  0  0  0  0  0  0  0  0  0  0
   -0.0000  -49.5000    0.0000 C   0  0  0  0  0  0  0  0  0  0  0  0
   -0.0000  -51.0000    0.0000 C   0  0  0  0  0  0  0  0  0  0  0  0
   -0.0000  -52.5000    0.0000 C   0  0  0  0  0  0  0  0  0  0  0  0
   -0.0000  -54.0000    0.0000 C   0  0  0  0  0  0  0  0  0  0  0  0
    1.2990  -54.7500    0.0000 C   0  0  0  0  0  0  0  0  0  0  0  0
    1.2990  -56.2500    0.0000 C   0  0  0  0  0  0  0  0  0  0  0  0
    2.5981  -54.0000    0.0000 C   0  0  0  0  0  0  0  0  0  0  0  0
  1  2  3  0
  2  3  1  0
  3  4  3  0
  4  5  1  0
  5  6  3  0
  6  7  1  0
  7  8  3  0
  8  9  1  0
  9 10  3  0
 10 11  1  0
 11 12  3  0
 12 13  1  0
 13 14  3  0
 14 15  1  0
 15 16  3  0
 16 17  1  0
 17 18  3  0
 18 19  1  0
 19 20  3  0
 20 21  1  0
 21 22  3  0
 22 23  1  0
 23 24  3  0
 24 25  1  0
 25 26  3  0
 26 27  1  0
 27 28  3  0
 28 29  1  0
 29 30  3  0
 30 31  1  0
 31 32  3  0
 32 33  1  0
 33 34  3  0
 34 35  1  0
 35 36  3  0
 36 37  1  0
 37 38  1  0
 38 39  1  0
 38 40  1  0
M  END
>  <Title>  (243) 
idAAHKgen13

$$$$

     RDKit          2D

 38 42  0  0  0  0  0  0  0  0999 V2000
   -3.1981   -1.5132    0.0000 C   0  0  0  0  0  0  0  0  0  0  0  0
   -1.8991   -2.2632    0.0000 C   0  0  0  0  0  0  0  0  0  0  0  0
   -2.1595   -3.7404    0.0000 C   0  0  0  0  0  0  0  0  0  0  0  0
   -1.4095   -5.0395    0.0000 C   0  0  0  0  0  0  0  0  0  0  0  0
   -0.0000   -5.5525    0.0000 C   0  0  0  0  0  0  0  0  0  0  0  0
    1.4095   -5.0395    0.0000 C   0  0  0  0  0  0  0  0  0  0  0  0
    2.1595   -3.7404    0.0000 C   0  0  0  0  0  0  0  0  0  0  0  0
    1.8991   -2.2632    0.0000 C   0  0  0  0  0  0  0  0  0  0  0  0
    3.1981   -1.5132    0.0000 C   0  0  0  0  0  0  0  0  0  0  0  0
    3.1981   -0.0132    0.0000 O   0  0  0  0  0  0  0  0  0  0  0  0
    4.4971   -2.2632    0.0000 N   0  0  0  0  0  0  0  0  0  0  0  0
    5.7962   -1.5132    0.0000 C   0  0  0  0  0  0  0  0  0  0  0  0
    5.9530   -0.0214    0.0000 N   0  0  0  0  0  0  0  0  0  0  0  0
    7.4202    0.2904    0.0000 N   0  0  0  0  0  0  0  0  0  0  0  0
    8.1702   -1.0086    0.0000 N   0  0  0  0  0  0  0  0  0  0  0  0
    7.1665   -2.1233    0.0000 N   0  0  0  0  0  0  0  0  0  0  0  0
    7.4784   -3.5905    0.0000 C   0  0  0  0  0  0  0  0  0  0  0  0
    8.8487   -4.2007    0.0000 C   0  0  0  0  0  0  0  0  0  0  0  0
    8.6919   -5.6924    0.0000 C   0  0  0  0  0  0  0  0  0  0  0  0
    7.2247   -6.0043    0.0000 C   0  0  0  0  0  0  0  0  0  0  0  0
    6.6146   -7.3746    0.0000 O   0  0  0  0  0  0  0  0  0  0  0  0
    5.1228   -7.5314    0.0000 C   0  0  0  0  0  0  0  0  0  0  0  0
    4.2411   -6.3179    0.0000 O   0  0  0  0  0  0  0  0  0  0  0  0
    4.5127   -8.9017    0.0000 N   0  0  0  0  0  0  0  0  0  0  0  0
    3.0209   -9.0585    0.0000 C   0  0  0  0  0  0  0  0  0  0  0  0
    2.1392   -7.8450    0.0000 N   0  0  0  0  0  0  0  0  0  0  0  0
    0.6474   -8.0018    0.0000 N   0  0  0  0  0  0  0  0  0  0  0  0
    0.0373   -9.3721    0.0000 N   0  0  0  0  0  0  0  0  0  0  0  0
    0.9190  -10.5856    0.0000 N   0  0  0  0  0  0  0  0  0  0  0  0
    2.4108  -10.4288    0.0000 N   0  0  0  0  0  0  0  0  0  0  0  0
    6.4747   -4.7053    0.0000 C   0  0  0  0  0  0  0  0  0  0  0  0
    4.9829   -4.5485    0.0000 O   0  0  0  0  0  0  0  0  0  0  0  0
    0.7500   -1.2990    0.0000 C   0  0  0  0  0  0  0  0  0  0  0  0
    1.5000    0.0000    0.0000 C   0  0  0  0  0  0  0  0  0  0  0  0
    0.7500    1.2990    0.0000 C   0  0  0  0  0  0  0  0  0  0  0  0
   -0.7500    1.2990    0.0000 C   0  0  0  0  0  0  0  0  0  0  0  0
   -1.5000    0.0000    0.0000 C   0  0  0  0  0  0  0  0  0  0  0  0
   -0.7500   -1.2990    0.0000 C   0  0  0  0  0  0  0  0  0  0  0  0
  1  2  1  0
  2  3  1  0
  3  4  2  0
  4  5  1  0
  5  6  1  0
  6  7  1  0
  7  8  1  0
  8  9  1  0
  9 10  2  0
  9 11  1  0
 11 12  1  0
 12 13  2  0
 13 14  1  0
 14 15  2  0
 15 16  1  0
 16 17  1  0
 17 18  2  0
 18 19  1  0
 19 20  2  0
 20 21  1  0
 21 22  1  0
 22 23  2  0
 22 24  1  0
 24 25  1  0
 25 26  2  0
 26 27  1  0
 27 28  2  0
 28 29  1  0
 29 30  2  0
 20 31  1  0
 31 32  2  0
  8 33  1  0
 33 34  2  0
 34 35  1  0
 35 36  2  0
 36 37  1  0
 37 38  2  0
 38  2  1  0
 16 12  1  0
 31 17  1  0
 38 33  1  0
 30 25  1  0
M  END
>  <Title>  (244) 
idAAHLgen13

$$$$

     RDKit          2D

 38 38  0  0  0  0  0  0  0  0999 V2000
   49.5000    0.0000    0.0000 C   0  0  0  0  0  0  0  0  0  0  0  0
   48.0000    0.0000    0.0000 C   0  0  0  0  0  0  0  0  0  0  0  0
   46.5000    0.0000    0.0000 C   0  0  0  0  0  0  0  0  0  0  0  0
   45.0000    0.0000    0.0000 C   0  0  0  0  0  0  0  0  0  0  0  0
   43.5000    0.0000    0.0000 C   0  0  0  0  0  0  0  0  0  0  0  0
   42.0000    0.0000    0.0000 C   0  0  0  0  0  0  0  0  0  0  0  0
   40.5000    0.0000    0.0000 C   0  0  0  0  0  0  0  0  0  0  0  0
   39.0000    0.0000    0.0000 C   0  0  0  0  0  0  0  0  0  0  0  0
   37.5000    0.0000    0.0000 C   0  0  0  0  0  0  0  0  0  0  0  0
   36.0000    0.0000    0.0000 C   0  0  0  0  0  0  0  0  0  0  0  0
   34.5000    0.0000    0.0000 C   0  0  0  0  0  0  0  0  0  0  0  0
   33.0000    0.0000    0.0000 C   0  0  0  0  0  0  0  0  0  0  0  0
   31.5000    0.0000    0.0000 C   0  0  0  0  0  0  0  0  0  0  0  0
   30.0000    0.0000    0.0000 C   0  0  0  0  0  0  0  0  0  0  0  0
   28.5000    0.0000    0.0000 C   0  0  0  0  0  0  0  0  0  0  0  0
   27.0000    0.0000    0.0000 C   0  0  0  0  0  0  0  0  0  0  0  0
   25.5000    0.0000    0.0000 C   0  0  0  0  0  0  0  0  0  0  0  0
   24.0000    0.0000    0.0000 C   0  0  0  0  0  0  0  0  0  0  0  0
   22.5000    0.0000    0.0000 C   0  0  0  0  0  0  0  0  0  0  0  0
   21.0000    0.0000    0.0000 C   0  0  0  0  0  0  0  0  0  0  0  0
   19.5000    0.0000    0.0000 C   0  0  0  0  0  0  0  0  0  0  0  0
   18.0000    0.0000    0.0000 C   0  0  0  0  0  0  0  0  0  0  0  0
   16.5000    0.0000    0.0000 C   0  0  0  0  0  0  0  0  0  0  0  0
   15.0000    0.0000    0.0000 C   0  0  0  0  0  0  0  0  0  0  0  0
   13.5000    0.0000    0.0000 C   0  0  0  0  0  0  0  0  0  0  0  0
   12.0000    0.0000    0.0000 C   0  0  0  0  0  0  0  0  0  0  0  0
   10.5000    0.0000    0.0000 C   0  0  0  0  0  0  0  0  0  0  0  0
    9.0000    0.0000    0.0000 C   0  0  0  0  0  0  0  0  0  0  0  0
    7.5000    0.0000    0.0000 C   0  0  0  0  0  0  0  0  0  0  0  0
    6.0000    0.0000    0.0000 C   0  0  0  0  0  0  0  0  0  0  0  0
    4.5000    0.0000    0.0000 C   0  0  0  0  0  0  0  0  0  0  0  0
    3.0000    0.0000    0.0000 C   0  0  0  0  0  0  0  0  0  0  0  0
    1.5000    0.0000    0.0000 C   0  0  0  0  0  0  0  0  0  0  0  0
    0.7500   -1.2990    0.0000 C   0  0  0  0  0  0  0  0  0  0  0  0
   -0.7500   -1.2990    0.0000 C   0  0  0  0  0  0  0  0  0  0  0  0
   -1.5000    0.0000    0.0000 C   0  0  0  0  0  0  0  0  0  0  0  0
   -0.7500    1.2990    0.0000 C   0  0  0  0  0  0  0  0  0  0  0  0
    0.7500    1.2990    0.0000 C   0  0  0  0  0  0  0  0  0  0  0  0
  1  2  3  0
  2  3  1  0
  3  4  3  0
  4  5  1  0
  5  6  3  0
  6  7  1  0
  7  8  3  0
  8  9  1  0
  9 10  3  0
 10 11  1  0
 11 12  3  0
 12 13  1  0
 13 14  3  0
 14 15  1  0
 15 16  3  0
 16 17  1  0
 17 18  3  0
 18 19  1  0
 19 20  3  0
 20 21  1  0
 21 22  3  0
 22 23  1  0
 23 24  3  0
 24 25  1  0
 25 26  3  0
 26 27  1  0
 27 28  3  0
 28 29  1  0
 29 30  3  0
 30 31  1  0
 31 32  3  0
 32 33  1  0
 33 34  2  0
 34 35  1  0
 35 36  2  0
 36 37  1  0
 37 38  2  0
 38 33  1  0
M  END
>  <Title>  (245) 
idAAHMgen13

$$$$

     RDKit          2D

  8  7  0  0  0  0  0  0  0  0999 V2000
    0.0000    0.0000    0.0000 C   0  0  0  0  0  0  0  0  0  0  0  0
   -0.0000   -1.5000    0.0000 C   0  0  0  0  0  0  0  0  0  0  0  0
   -0.0000   -3.0000    0.0000 C   0  0  0  0  0  0  0  0  0  0  0  0
   -0.0000   -4.5000    0.0000 C   0  0  0  0  0  0  0  0  0  0  0  0
   -0.0000   -6.0000    0.0000 C   0  0  0  0  0  0  0  0  0  0  0  0
    1.2990   -6.7500    0.0000 C   0  0  0  0  0  0  0  0  0  0  0  0
    1.2990   -8.2500    0.0000 C   0  0  0  0  0  0  0  0  0  0  0  0
    2.5981   -9.0000    0.0000 C   0  0  0  0  0  0  0  0  0  0  0  0
  1  2  3  0
  2  3  1  0
  3  4  3  0
  4  5  1  0
  5  6  1  0
  6  7  1  0
  7  8  2  0
M  END
>  <Title>  (246) 
idAAHNgen13

$$$$

     RDKit          2D

 45 50  0  0  0  0  0  0  0  0999 V2000
    0.7500  -11.6913    0.0000 C   0  0  0  0  0  0  0  0  0  0  0  0
   -0.0000  -10.3923    0.0000 C   0  0  0  0  0  0  0  0  0  0  0  0
   -0.7500   -9.0933    0.0000 C   0  0  0  0  0  0  0  0  0  0  0  0
   -1.5000   -7.7942    0.0000 C   0  0  0  0  0  0  0  0  0  0  0  0
   -2.2500   -6.4952    0.0000 C   0  0  0  0  0  0  0  0  0  0  0  0
   -3.0000   -5.1962    0.0000 C   0  0  0  0  0  0  0  0  0  0  0  0
   -3.7500   -3.8971    0.0000 C   0  0  0  0  0  0  0  0  0  0  0  0
   -5.2500   -3.8971    0.0000 C   0  0  0  0  0  0  0  0  0  0  0  0
   -6.0000   -2.5981    0.0000 C   0  0  0  0  0  0  0  0  0  0  0  0
   -5.2500   -1.2990    0.0000 C   0  0  0  0  0  0  0  0  0  0  0  0
   -3.7500   -1.2990    0.0000 O   0  0  0  0  0  0  0  0  0  0  0  0
   -3.0000   -2.5981    0.0000 N   0  0  0  0  0  0  0  0  0  0  0  0
   -1.5000   -2.5981    0.0000 C   0  0  0  0  0  0  0  0  0  0  0  0
   -0.7500   -3.8971    0.0000 C   0  0  0  0  0  0  0  0  0  0  0  0
    0.7500   -3.8971    0.0000 C   0  0  0  0  0  0  0  0  0  0  0  0
    1.5000   -2.5981    0.0000 C   0  0  0  0  0  0  0  0  0  0  0  0
    3.0000   -2.5981    0.0000 C   0  0  0  0  0  0  0  0  0  0  0  0
    3.7500   -1.2990    0.0000 O   0  0  0  0  0  0  0  0  0  0  0  0
    3.7500   -3.8971    0.0000 N   0  0  0  0  0  0  0  0  0  0  0  0
    5.2500   -3.8971    0.0000 C   0  0  0  0  0  0  0  0  0  0  0  0
    6.1317   -2.6836    0.0000 N   0  0  0  0  0  0  0  0  0  0  0  0
    7.5583   -3.1471    0.0000 N   0  0  0  0  0  0  0  0  0  0  0  0
    7.5583   -4.6471    0.0000 N   0  0  0  0  0  0  0  0  0  0  0  0
    6.1317   -5.1106    0.0000 N   0  0  0  0  0  0  0  0  0  0  0  0
    5.6682   -6.5372    0.0000 N   0  0  0  0  0  0  0  0  0  0  0  0
    6.5498   -7.7508    0.0000 C   0  0  0  0  0  0  0  0  0  0  0  0
    5.6682   -8.9643    0.0000 C   0  0  0  0  0  0  0  0  0  0  0  0
    4.2416   -8.5008    0.0000 N   0  0  0  0  0  0  0  0  0  0  0  0
    3.0280   -9.3824    0.0000 C   0  0  0  0  0  0  0  0  0  0  0  0
    1.6577   -8.7723    0.0000 O   0  0  0  0  0  0  0  0  0  0  0  0
    3.1848  -10.8742    0.0000 N   0  0  0  0  0  0  0  0  0  0  0  0
    4.5552  -11.4843    0.0000 C   0  0  0  0  0  0  0  0  0  0  0  0
    5.7687  -10.6026    0.0000 N   0  0  0  0  0  0  0  0  0  0  0  0
    7.1390  -11.2127    0.0000 N   0  0  0  0  0  0  0  0  0  0  0  0
    7.2958  -12.7045    0.0000 N   0  0  0  0  0  0  0  0  0  0  0  0
    6.0823  -13.5862    0.0000 N   0  0  0  0  0  0  0  0  0  0  0  0
    4.7119  -12.9761    0.0000 N   0  0  0  0  0  0  0  0  0  0  0  0
    4.2416   -7.0008    0.0000 C   0  0  0  0  0  0  0  0  0  0  0  0
    3.0280   -6.1191    0.0000 O   0  0  0  0  0  0  0  0  0  0  0  0
    0.7500   -1.2990    0.0000 C   0  0  0  0  0  0  0  0  0  0  0  0
    1.5000    0.0000    0.0000 C   0  0  0  0  0  0  0  0  0  0  0  0
    0.7500    1.2990    0.0000 C   0  0  0  0  0  0  0  0  0  0  0  0
   -0.7500    1.2990    0.0000 C   0  0  0  0  0  0  0  0  0  0  0  0
   -1.5000    0.0000    0.0000 C   0  0  0  0  0  0  0  0  0  0  0  0
   -0.7500   -1.2990    0.0000 C   0  0  0  0  0  0  0  0  0  0  0  0
  1  2  3  0
  2  3  1  0
  3  4  3  0
  4  5  1  0
  5  6  3  0
  6  7  1  0
  7  8  2  0
  8  9  1  0
  9 10  2  0
 10 11  1  0
 11 12  1  0
 12 13  1  0
 13 14  2  0
 14 15  1  0
 15 16  2  0
 16 17  1  0
 17 18  2  0
 17 19  1  0
 19 20  1  0
 20 21  2  0
 21 22  1  0
 22 23  2  0
 23 24  1  0
 24 25  1  0
 25 26  1  0
 26 27  1  0
 27 28  1  0
 28 29  1  0
 29 30  2  0
 29 31  1  0
 31 32  1  0
 32 33  2  0
 33 34  1  0
 34 35  2  0
 35 36  1  0
 36 37  2  0
 28 38  1  0
 38 39  2  0
 16 40  1  0
 40 41  2  0
 41 42  1  0
 42 43  2  0
 43 44  1  0
 44 45  2  0
 12  7  1  0
 45 13  1  0
 24 20  1  0
 38 25  1  0
 45 40  1  0
 37 32  1  0
M  END
>  <Title>  (247) 
idAAHOgen13

$$$$

     RDKit          2D

 42 47  0  0  0  0  0  0  0  0999 V2000
   -3.1771   -5.9156    0.0000 C   0  0  0  0  0  0  0  0  0  0  0  0
   -1.9635   -5.0339    0.0000 C   0  0  0  0  0  0  0  0  0  0  0  0
   -0.7500   -5.9156    0.0000 C   0  0  0  0  0  0  0  0  0  0  0  0
    0.7500   -5.9156    0.0000 C   0  0  0  0  0  0  0  0  0  0  0  0
    1.9635   -5.0339    0.0000 C   0  0  0  0  0  0  0  0  0  0  0  0
    2.4271   -3.6073    0.0000 C   0  0  0  0  0  0  0  0  0  0  0  0
    1.9635   -2.1807    0.0000 C   0  0  0  0  0  0  0  0  0  0  0  0
    3.1771   -1.2990    0.0000 C   0  0  0  0  0  0  0  0  0  0  0  0
    3.0203    0.1927    0.0000 O   0  0  0  0  0  0  0  0  0  0  0  0
    4.5474   -1.9091    0.0000 N   0  0  0  0  0  0  0  0  0  0  0  0
    5.7609   -1.0275    0.0000 C   0  0  0  0  0  0  0  0  0  0  0  0
    5.7609    0.4725    0.0000 N   0  0  0  0  0  0  0  0  0  0  0  0
    7.1875    0.9361    0.0000 N   0  0  0  0  0  0  0  0  0  0  0  0
    8.0692   -0.2775    0.0000 N   0  0  0  0  0  0  0  0  0  0  0  0
    7.1875   -1.4910    0.0000 N   0  0  0  0  0  0  0  0  0  0  0  0
    7.6510   -2.9176    0.0000 C   0  0  0  0  0  0  0  0  0  0  0  0
    9.0776   -3.3811    0.0000 C   0  0  0  0  0  0  0  0  0  0  0  0
    9.0776   -4.8811    0.0000 C   0  0  0  0  0  0  0  0  0  0  0  0
    7.6510   -5.3446    0.0000 N   0  0  0  0  0  0  0  0  0  0  0  0
    7.1875   -6.7712    0.0000 C   0  0  0  0  0  0  0  0  0  0  0  0
    8.1912   -7.8859    0.0000 O   0  0  0  0  0  0  0  0  0  0  0  0
    5.7203   -7.0831    0.0000 N   0  0  0  0  0  0  0  0  0  0  0  0
    5.2567   -8.5097    0.0000 C   0  0  0  0  0  0  0  0  0  0  0  0
    3.7895   -8.8215    0.0000 N   0  0  0  0  0  0  0  0  0  0  0  0
    3.3260  -10.2481    0.0000 N   0  0  0  0  0  0  0  0  0  0  0  0
    4.3297  -11.3628    0.0000 N   0  0  0  0  0  0  0  0  0  0  0  0
    5.7969  -11.0510    0.0000 N   0  0  0  0  0  0  0  0  0  0  0  0
    6.2604   -9.6244    0.0000 N   0  0  0  0  0  0  0  0  0  0  0  0
    6.7693   -4.1311    0.0000 C   0  0  0  0  0  0  0  0  0  0  0  0
    5.2693   -4.1311    0.0000 O   0  0  0  0  0  0  0  0  0  0  0  0
    0.7500   -1.2990    0.0000 C   0  0  0  0  0  0  0  0  0  0  0  0
    1.5000    0.0000    0.0000 C   0  0  0  0  0  0  0  0  0  0  0  0
    0.7500    1.2990    0.0000 C   0  0  0  0  0  0  0  0  0  0  0  0
   -0.7500    1.2990    0.0000 C   0  0  0  0  0  0  0  0  0  0  0  0
   -1.5000    0.0000    0.0000 C   0  0  0  0  0  0  0  0  0  0  0  0
   -0.7500   -1.2990    0.0000 C   0  0  0  0  0  0  0  0  0  0  0  0
   -1.9635   -2.1807    0.0000 C   0  0  0  0  0  0  0  0  0  0  0  0
   -2.9672   -1.0660    0.0000 C   0  0  0  0  0  0  0  0  0  0  0  0
   -4.4344   -1.3779    0.0000 C   0  0  0  0  0  0  0  0  0  0  0  0
   -4.8980   -2.8045    0.0000 C   0  0  0  0  0  0  0  0  0  0  0  0
   -3.8943   -3.9192    0.0000 C   0  0  0  0  0  0  0  0  0  0  0  0
   -2.4271   -3.6073    0.0000 C   0  0  0  0  0  0  0  0  0  0  0  0
  1  2  1  0
  2  3  1  0
  3  4  2  0
  4  5  1  0
  5  6  1  0
  6  7  1  0
  7  8  1  0
  8  9  2  0
  8 10  1  0
 10 11  1  0
 11 12  2  0
 12 13  1  0
 13 14  2  0
 14 15  1  0
 15 16  1  0
 16 17  1  0
 17 18  1  0
 18 19  1  0
 19 20  1  0
 20 21  2  0
 20 22  1  0
 22 23  1  0
 23 24  2  0
 24 25  1  0
 25 26  2  0
 26 27  1  0
 27 28  2  0
 19 29  1  0
 29 30  2  0
  7 31  1  0
 31 32  2  0
 32 33  1  0
 33 34  2  0
 34 35  1  0
 35 36  2  0
 36 37  1  0
 37 38  2  0
 38 39  1  0
 39 40  2  0
 40 41  1  0
 41 42  2  0
 42  2  1  0
 15 11  1  0
 29 16  1  0
 36 31  1  0
 42 37  1  0
 28 23  1  0
M  END
>  <Title>  (248) 
idAAHPgen13

$$$$

     RDKit          2D

 81 82  0  0  0  0  0  0  0  0999 V2000
   -0.7059   -2.7523    0.0000 C   0  0  0  0  0  0  0  0  0  0  0  0
    0.4876   -3.6610    0.0000 C   0  0  0  0  0  0  0  0  0  0  0  0
   -0.3667   -4.8940    0.0000 C   0  0  0  0  0  0  0  0  0  0  0  0
   -1.1069   -6.1986    0.0000 C   0  0  0  0  0  0  0  0  0  0  0  0
   -1.7273   -7.5643    0.0000 C   0  0  0  0  0  0  0  0  0  0  0  0
   -2.2227   -8.9802    0.0000 C   0  0  0  0  0  0  0  0  0  0  0  0
   -2.5892  -10.4347    0.0000 C   0  0  0  0  0  0  0  0  0  0  0  0
   -2.8238  -11.9162    0.0000 C   0  0  0  0  0  0  0  0  0  0  0  0
   -2.9247  -13.4128    0.0000 C   0  0  0  0  0  0  0  0  0  0  0  0
   -2.8911  -14.9125    0.0000 C   0  0  0  0  0  0  0  0  0  0  0  0
   -2.7231  -16.4030    0.0000 C   0  0  0  0  0  0  0  0  0  0  0  0
   -2.4222  -17.8725    0.0000 C   0  0  0  0  0  0  0  0  0  0  0  0
   -1.9908  -19.3092    0.0000 C   0  0  0  0  0  0  0  0  0  0  0  0
   -1.4324  -20.7013    0.0000 C   0  0  0  0  0  0  0  0  0  0  0  0
   -0.7514  -22.0379    0.0000 C   0  0  0  0  0  0  0  0  0  0  0  0
    0.0466  -23.3079    0.0000 C   0  0  0  0  0  0  0  0  0  0  0  0
    0.9553  -24.5014    0.0000 C   0  0  0  0  0  0  0  0  0  0  0  0
    1.9673  -25.6086    0.0000 C   0  0  0  0  0  0  0  0  0  0  0  0
    3.0745  -26.6206    0.0000 C   0  0  0  0  0  0  0  0  0  0  0  0
    4.2679  -27.5292    0.0000 C   0  0  0  0  0  0  0  0  0  0  0  0
    5.5380  -28.3273    0.0000 C   0  0  0  0  0  0  0  0  0  0  0  0
    6.8745  -29.0083    0.0000 C   0  0  0  0  0  0  0  0  0  0  0  0
    8.2667  -29.5667    0.0000 C   0  0  0  0  0  0  0  0  0  0  0  0
    9.7033  -29.9981    0.0000 C   0  0  0  0  0  0  0  0  0  0  0  0
   11.1728  -30.2990    0.0000 C   0  0  0  0  0  0  0  0  0  0  0  0
   12.6634  -30.4670    0.0000 C   0  0  0  0  0  0  0  0  0  0  0  0
   14.1630  -30.5006    0.0000 C   0  0  0  0  0  0  0  0  0  0  0  0
   15.6596  -30.3997    0.0000 C   0  0  0  0  0  0  0  0  0  0  0  0
   17.1412  -30.1651    0.0000 C   0  0  0  0  0  0  0  0  0  0  0  0
   18.5957  -29.7985    0.0000 C   0  0  0  0  0  0  0  0  0  0  0  0
   20.0115  -29.3031    0.0000 C   0  0  0  0  0  0  0  0  0  0  0  0
   21.3772  -28.6828    0.0000 C   0  0  0  0  0  0  0  0  0  0  0  0
   22.6819  -27.9425    0.0000 C   0  0  0  0  0  0  0  0  0  0  0  0
   23.9149  -27.0883    0.0000 C   0  0  0  0  0  0  0  0  0  0  0  0
   25.0663  -26.1270    0.0000 C   0  0  0  0  0  0  0  0  0  0  0  0
   26.1270  -25.0663    0.0000 C   0  0  0  0  0  0  0  0  0  0  0  0
   27.0883  -23.9149    0.0000 C   0  0  0  0  0  0  0  0  0  0  0  0
   27.9425  -22.6819    0.0000 C   0  0  0  0  0  0  0  0  0  0  0  0
   28.6828  -21.3772    0.0000 C   0  0  0  0  0  0  0  0  0  0  0  0
   29.3031  -20.0115    0.0000 C   0  0  0  0  0  0  0  0  0  0  0  0
   29.7985  -18.5957    0.0000 C   0  0  0  0  0  0  0  0  0  0  0  0
   30.1651  -17.1412    0.0000 C   0  0  0  0  0  0  0  0  0  0  0  0
   30.3997  -15.6596    0.0000 C   0  0  0  0  0  0  0  0  0  0  0  0
   30.5006  -14.1630    0.0000 C   0  0  0  0  0  0  0  0  0  0  0  0
   30.4670  -12.6634    0.0000 C   0  0  0  0  0  0  0  0  0  0  0  0
   30.2990  -11.1728    0.0000 C   0  0  0  0  0  0  0  0  0  0  0  0
   29.9981   -9.7033    0.0000 C   0  0  0  0  0  0  0  0  0  0  0  0
   29.5667   -8.2667    0.0000 C   0  0  0  0  0  0  0  0  0  0  0  0
   29.0083   -6.8745    0.0000 C   0  0  0  0  0  0  0  0  0  0  0  0
   28.3273   -5.5380    0.0000 C   0  0  0  0  0  0  0  0  0  0  0  0
   27.5292   -4.2679    0.0000 C   0  0  0  0  0  0  0  0  0  0  0  0
   26.6206   -3.0745    0.0000 C   0  0  0  0  0  0  0  0  0  0  0  0
   25.6086   -1.9673    0.0000 C   0  0  0  0  0  0  0  0  0  0  0  0
   24.5014   -0.9553    0.0000 C   0  0  0  0  0  0  0  0  0  0  0  0
   23.3079   -0.0466    0.0000 C   0  0  0  0  0  0  0  0  0  0  0  0
   22.0379    0.7514    0.0000 C   0  0  0  0  0  0  0  0  0  0  0  0
   20.7013    1.4324    0.0000 C   0  0  0  0  0  0  0  0  0  0  0  0
   19.3092    1.9908    0.0000 C   0  0  0  0  0  0  0  0  0  0  0  0
   17.8725    2.4222    0.0000 C   0  0  0  0  0  0  0  0  0  0  0  0
   16.4030    2.7231    0.0000 C   0  0  0  0  0  0  0  0  0  0  0  0
   14.9125    2.8911    0.0000 C   0  0  0  0  0  0  0  0  0  0  0  0
   13.4128    2.9247    0.0000 C   0  0  0  0  0  0  0  0  0  0  0  0
   11.9162    2.8238    0.0000 C   0  0  0  0  0  0  0  0  0  0  0  0
   10.4347    2.5892    0.0000 C   0  0  0  0  0  0  0  0  0  0  0  0
    8.9802    2.2227    0.0000 C   0  0  0  0  0  0  0  0  0  0  0  0
    7.5643    1.7273    0.0000 C   0  0  0  0  0  0  0  0  0  0  0  0
    6.1986    1.1069    0.0000 C   0  0  0  0  0  0  0  0  0  0  0  0
    4.8940    0.3667    0.0000 C   0  0  0  0  0  0  0  0  0  0  0  0
    3.6610   -0.4876    0.0000 C   0  0  0  0  0  0  0  0  0  0  0  0
    2.5095   -1.4489    0.0000 C   0  0  0  0  0  0  0  0  0  0  0  0
    2.8978    0.0000    0.0000 C   0  0  0  0  0  0  0  0  0  0  0  0
    2.5095    1.4489    0.0000 C   0  0  0  0  0  0  0  0  0  0  0  0
    1.4489    2.5095    0.0000 C   0  0  0  0  0  0  0  0  0  0  0  0
    0.0000    2.8978    0.0000 C   0  0  0  0  0  0  0  0  0  0  0  0
   -1.4489    2.5095    0.0000 C   0  0  0  0  0  0  0  0  0  0  0  0
   -2.5095    1.4489    0.0000 C   0  0  0  0  0  0  0  0  0  0  0  0
   -2.8978    0.0000    0.0000 C   0  0  0  0  0  0  0  0  0  0  0  0
   -2.5095   -1.4489    0.0000 C   0  0  0  0  0  0  0  0  0  0  0  0
   -1.4489   -2.5095    0.0000 C   0  0  0  0  0  0  0  0  0  0  0  0
   -0.0000   -2.8978    0.0000 C   0  0  0  0  0  0  0  0  0  0  0  0
    1.4489   -2.5095    0.0000 C   0  0  0  0  0  0  0  0  0  0  0  0
  1  2  1  0
  2  3  1  0
  3  4  1  0
  4  5  1  0
  5  6  1  0
  6  7  1  0
  7  8  1  0
  8  9  1  0
  9 10  1  0
 10 11  1  0
 11 12  1  0
 12 13  1  0
 13 14  1  0
 14 15  1  0
 15 16  1  0
 16 17  1  0
 17 18  1  0
 18 19  1  0
 19 20  1  0
 20 21  1  0
 21 22  1  0
 22 23  1  0
 23 24  1  0
 24 25  1  0
 25 26  1  0
 26 27  1  0
 27 28  1  0
 28 29  1  0
 29 30  1  0
 30 31  1  0
 31 32  1  0
 32 33  1  0
 33 34  1  0
 34 35  1  0
 35 36  1  0
 36 37  1  0
 37 38  1  0
 38 39  1  0
 39 40  1  0
 40 41  1  0
 41 42  1  0
 42 43  1  0
 43 44  1  0
 44 45  1  0
 45 46  1  0
 46 47  1  0
 47 48  1  0
 48 49  1  0
 49 50  1  0
 50 51  1  0
 51 52  1  0
 52 53  1  0
 53 54  1  0
 54 55  1  0
 55 56  1  0
 56 57  1  0
 57 58  1  0
 58 59  1  0
 59 60  1  0
 60 61  1  0
 61 62  1  0
 62 63  1  0
 63 64  1  0
 64 65  1  0
 65 66  1  0
 66 67  1  0
 67 68  1  0
 68 69  1  0
 69 70  1  0
 70 71  1  0
 71 72  1  0
 72 73  1  0
 73 74  1  0
 74 75  2  0
 75 76  1  0
 76 77  2  0
 77 78  1  0
 78 79  2  0
 79 80  1  0
 80 81  2  0
 81  2  1  0
 81 70  1  0
M  END
>  <Title>  (249) 
idAAHQgen13

$$$$

     RDKit          2D

 89 92  0  0  0  0  0  0  0  0999 V2000
   -0.4250    9.8876    0.0000 C   0  0  0  0  0  0  0  0  0  0  0  0
    1.0746    9.9217    0.0000 C   0  0  0  0  0  0  0  0  0  0  0  0
    1.1130   11.4212    0.0000 C   0  0  0  0  0  0  0  0  0  0  0  0
    1.2959   12.9100    0.0000 C   0  0  0  0  0  0  0  0  0  0  0  0
    1.6217   14.3742    0.0000 C   0  0  0  0  0  0  0  0  0  0  0  0
    2.0872   15.8001    0.0000 C   0  0  0  0  0  0  0  0  0  0  0  0
    2.6882   17.1745    0.0000 C   0  0  0  0  0  0  0  0  0  0  0  0
    3.4191   18.4844    0.0000 C   0  0  0  0  0  0  0  0  0  0  0  0
    4.2729   19.7176    0.0000 C   0  0  0  0  0  0  0  0  0  0  0  0
    5.2418   20.8627    0.0000 C   0  0  0  0  0  0  0  0  0  0  0  0
    6.3167   21.9090    0.0000 C   0  0  0  0  0  0  0  0  0  0  0  0
    7.4875   22.8466    0.0000 C   0  0  0  0  0  0  0  0  0  0  0  0
    8.7434   23.6668    0.0000 C   0  0  0  0  0  0  0  0  0  0  0  0
   10.0726   24.3620    0.0000 C   0  0  0  0  0  0  0  0  0  0  0  0
   11.4627   24.9257    0.0000 C   0  0  0  0  0  0  0  0  0  0  0  0
   12.9006   25.3526    0.0000 C   0  0  0  0  0  0  0  0  0  0  0  0
   14.3731   25.6387    0.0000 C   0  0  0  0  0  0  0  0  0  0  0  0
   15.8663   25.7813    0.0000 C   0  0  0  0  0  0  0  0  0  0  0  0
   17.3663   25.7792    0.0000 C   0  0  0  0  0  0  0  0  0  0  0  0
   18.8591   25.6323    0.0000 C   0  0  0  0  0  0  0  0  0  0  0  0
   20.3307   25.3420    0.0000 C   0  0  0  0  0  0  0  0  0  0  0  0
   21.7675   24.9110    0.0000 C   0  0  0  0  0  0  0  0  0  0  0  0
   23.1559   24.3434    0.0000 C   0  0  0  0  0  0  0  0  0  0  0  0
   24.4831   23.6444    0.0000 C   0  0  0  0  0  0  0  0  0  0  0  0
   25.7367   22.8206    0.0000 C   0  0  0  0  0  0  0  0  0  0  0  0
   26.9048   21.8797    0.0000 C   0  0  0  0  0  0  0  0  0  0  0  0
   27.9768   20.8304    0.0000 C   0  0  0  0  0  0  0  0  0  0  0  0
   28.9424   19.6826    0.0000 C   0  0  0  0  0  0  0  0  0  0  0  0
   29.7927   18.4469    0.0000 C   0  0  0  0  0  0  0  0  0  0  0  0
   30.5198   17.1349    0.0000 C   0  0  0  0  0  0  0  0  0  0  0  0
   31.1169   15.7589    0.0000 C   0  0  0  0  0  0  0  0  0  0  0  0
   31.5784   14.3316    0.0000 C   0  0  0  0  0  0  0  0  0  0  0  0
   31.9000   12.8665    0.0000 C   0  0  0  0  0  0  0  0  0  0  0  0
   32.0787   11.3772    0.0000 C   0  0  0  0  0  0  0  0  0  0  0  0
   32.1128    9.8776    0.0000 C   0  0  0  0  0  0  0  0  0  0  0  0
   32.0020    8.3817    0.0000 C   0  0  0  0  0  0  0  0  0  0  0  0
   31.7474    6.9034    0.0000 C   0  0  0  0  0  0  0  0  0  0  0  0
   31.3513    5.4567    0.0000 C   0  0  0  0  0  0  0  0  0  0  0  0
   30.8174    4.0549    0.0000 C   0  0  0  0  0  0  0  0  0  0  0  0
   30.1507    2.7112    0.0000 C   0  0  0  0  0  0  0  0  0  0  0  0
   29.3574    1.4381    0.0000 C   0  0  0  0  0  0  0  0  0  0  0  0
   28.4450    0.2476    0.0000 C   0  0  0  0  0  0  0  0  0  0  0  0
   27.4219   -0.8494    0.0000 C   0  0  0  0  0  0  0  0  0  0  0  0
   26.2977   -1.8425    0.0000 C   0  0  0  0  0  0  0  0  0  0  0  0
   25.0829   -2.7224    0.0000 C   0  0  0  0  0  0  0  0  0  0  0  0
   23.7889   -3.4810    0.0000 C   0  0  0  0  0  0  0  0  0  0  0  0
   22.4277   -4.1112    0.0000 C   0  0  0  0  0  0  0  0  0  0  0  0
   21.0120   -4.6070    0.0000 C   0  0  0  0  0  0  0  0  0  0  0  0
   19.5551   -4.9639    0.0000 C   0  0  0  0  0  0  0  0  0  0  0  0
   18.0705   -5.1786    0.0000 C   0  0  0  0  0  0  0  0  0  0  0  0
   16.5722   -5.2489    0.0000 C   0  0  0  0  0  0  0  0  0  0  0  0
   15.0740   -5.1743    0.0000 C   0  0  0  0  0  0  0  0  0  0  0  0
   13.5901   -4.9555    0.0000 C   0  0  0  0  0  0  0  0  0  0  0  0
   12.1342   -4.5944    0.0000 C   0  0  0  0  0  0  0  0  0  0  0  0
   10.7199   -4.0945    0.0000 C   0  0  0  0  0  0  0  0  0  0  0  0
    9.3605   -3.4605    0.0000 C   0  0  0  0  0  0  0  0  0  0  0  0
    8.0687   -2.6982    0.0000 C   0  0  0  0  0  0  0  0  0  0  0  0
    6.8564   -1.8148    0.0000 C   0  0  0  0  0  0  0  0  0  0  0  0
    5.7350   -0.8186    0.0000 C   0  0  0  0  0  0  0  0  0  0  0  0
    4.7151    0.2813    0.0000 C   0  0  0  0  0  0  0  0  0  0  0  0
    3.8060    1.4745    0.0000 C   0  0  0  0  0  0  0  0  0  0  0  0
    3.3816   -0.0000    0.0000 C   0  0  0  0  0  0  0  0  0  0  0  0
    3.1533   -1.2216    0.0000 C   0  0  0  0  0  0  0  0  0  0  0  0
    2.4991   -2.2782    0.0000 C   0  0  0  0  0  0  0  0  0  0  0  0
    1.5073   -3.0271    0.0000 C   0  0  0  0  0  0  0  0  0  0  0  0
    0.3120   -3.3672    0.0000 C   0  0  0  0  0  0  0  0  0  0  0  0
   -0.9254   -3.2526    0.0000 C   0  0  0  0  0  0  0  0  0  0  0  0
   -2.0379   -2.6986    0.0000 C   0  0  0  0  0  0  0  0  0  0  0  0
   -2.8751   -1.7802    0.0000 C   0  0  0  0  0  0  0  0  0  0  0  0
   -3.3241   -0.6214    0.0000 C   0  0  0  0  0  0  0  0  0  0  0  0
   -3.3241    0.6214    0.0000 C   0  0  0  0  0  0  0  0  0  0  0  0
   -2.8751    1.7802    0.0000 C   0  0  0  0  0  0  0  0  0  0  0  0
   -2.0379    2.6986    0.0000 C   0  0  0  0  0  0  0  0  0  0  0  0
   -0.9254    3.2526    0.0000 C   0  0  0  0  0  0  0  0  0  0  0  0
    0.3120    3.3672    0.0000 C   0  0  0  0  0  0  0  0  0  0  0  0
    1.5073    3.0271    0.0000 C   0  0  0  0  0  0  0  0  0  0  0  0
    3.0164    2.7498    0.0000 C   0  0  0  0  0  0  0  0  0  0  0  0
    2.3535    4.0954    0.0000 C   0  0  0  0  0  0  0  0  0  0  0  0
    3.8337    3.8526    0.0000 C   0  0  0  0  0  0  0  0  0  0  0  0
    4.7840    5.0132    0.0000 C   0  0  0  0  0  0  0  0  0  0  0  0
    4.2541    6.4165    0.0000 C   0  0  0  0  0  0  0  0  0  0  0  0
    2.7739    6.6592    0.0000 C   0  0  0  0  0  0  0  0  0  0  0  0
    1.8236    5.4986    0.0000 C   0  0  0  0  0  0  0  0  0  0  0  0
    1.4316    6.9465    0.0000 C   0  0  0  0  0  0  0  0  0  0  0  0
    0.2760    5.9902    0.0000 C   0  0  0  0  0  0  0  0  0  0  0  0
   -1.1300    6.5128    0.0000 C   0  0  0  0  0  0  0  0  0  0  0  0
   -1.3805    7.9917    0.0000 C   0  0  0  0  0  0  0  0  0  0  0  0
   -0.2249    8.9481    0.0000 C   0  0  0  0  0  0  0  0  0  0  0  0
    1.1811    8.4255    0.0000 C   0  0  0  0  0  0  0  0  0  0  0  0
  1  2  1  0
  2  3  1  0
  3  4  1  0
  4  5  1  0
  5  6  1  0
  6  7  1  0
  7  8  1  0
  8  9  1  0
  9 10  1  0
 10 11  1  0
 11 12  1  0
 12 13  1  0
 13 14  1  0
 14 15  1  0
 15 16  1  0
 16 17  1  0
 17 18  1  0
 18 19  1  0
 19 20  1  0
 20 21  1  0
 21 22  1  0
 22 23  1  0
 23 24  1  0
 24 25  1  0
 25 26  1  0
 26 27  1  0
 27 28  1  0
 28 29  1  0
 29 30  1  0
 30 31  1  0
 31 32  1  0
 32 33  1  0
 33 34  1  0
 34 35  1  0
 35 36  1  0
 36 37  1  0
 37 38  1  0
 38 39  1  0
 39 40  1  0
 40 41  1  0
 41 42  1  0
 42 43  1  0
 43 44  1  0
 44 45  1  0
 45 46  1  0
 46 47  1  0
 47 48  1  0
 48 49  1  0
 49 50  1  0
 50 51  1  0
 51 52  1  0
 52 53  1  0
 53 54  1  0
 54 55  1  0
 55 56  1  0
 56 57  1  0
 57 58  1  0
 58 59  1  0
 59 60  1  0
 60 61  1  0
 61 62  1  0
 62 63  1  0
 63 64  1  0
 64 65  2  0
 65 66  1  0
 66 67  2  0
 67 68  1  0
 68 69  2  0
 69 70  1  0
 70 71  2  0
 71 72  1  0
 72 73  2  0
 73 74  1  0
 74 75  2  0
 75 76  1  0
 76 77  2  0
 77 78  1  0
 78 79  2  0
 79 80  1  0
 80 81  2  0
 81 82  1  0
 82 83  2  0
 83 84  1  0
 84 85  2  0
 85 86  1  0
 86 87  2  0
 87 88  1  0
 88 89  2  0
 89  2  1  0
 77 61  1  0
 83 78  1  0
 89 84  1  0
M  END
>  <Title>  (250) 
idAAHRgen13

$$$$

     RDKit          2D

 16 17  0  0  0  0  0  0  0  0999 V2000
    5.7760   -2.5981    0.0000 C   0  0  0  0  0  0  0  0  0  0  0  0
    5.0260   -1.2990    0.0000 C   0  0  0  0  0  0  0  0  0  0  0  0
    3.5260   -1.2990    0.0000 C   0  0  0  0  0  0  0  0  0  0  0  0
    2.7760    0.0000    0.0000 C   0  0  0  0  0  0  0  0  0  0  0  0
    1.2760    0.0000    0.0000 C   0  0  0  0  0  0  0  0  0  0  0  0
    0.3943    1.2135    0.0000 N   0  0  0  0  0  0  0  0  0  0  0  0
   -1.0323    0.7500    0.0000 N   0  0  0  0  0  0  0  0  0  0  0  0
   -1.0323   -0.7500    0.0000 N   0  0  0  0  0  0  0  0  0  0  0  0
    0.3943   -1.2135    0.0000 N   0  0  0  0  0  0  0  0  0  0  0  0
    0.8578   -2.6401    0.0000 C   0  0  0  0  0  0  0  0  0  0  0  0
    2.2844   -3.1036    0.0000 C   0  0  0  0  0  0  0  0  0  0  0  0
    2.2844   -4.6036    0.0000 C   0  0  0  0  0  0  0  0  0  0  0  0
    0.8578   -5.0672    0.0000 C   0  0  0  0  0  0  0  0  0  0  0  0
    0.3943   -6.4937    0.0000 O   0  0  0  0  0  0  0  0  0  0  0  0
   -1.0729   -6.8056    0.0000 C   0  0  0  0  0  0  0  0  0  0  0  0
   -0.0239   -3.8536    0.0000 C   0  0  0  0  0  0  0  0  0  0  0  0
  1  2  2  0
  2  3  1  0
  3  4  2  3
  4  5  1  0
  5  6  2  0
  6  7  1  0
  7  8  2  0
  8  9  1  0
  9 10  1  0
 10 11  2  0
 11 12  1  0
 12 13  2  0
 13 14  1  0
 14 15  1  0
 13 16  1  0
  9  5  1  0
 16 10  1  0
M  END
>  <Title>  (251) 
idAAHSgen13

$$$$

     RDKit          2D

 68 69  0  0  0  0  0  0  0  0999 V2000
   -2.4661    0.0349    0.0000 C   0  0  0  0  0  0  0  0  0  0  0  0
   -2.2425   -1.4484    0.0000 C   0  0  0  0  0  0  0  0  0  0  0  0
   -3.7128   -1.7456    0.0000 C   0  0  0  0  0  0  0  0  0  0  0  0
   -5.1462   -2.1877    0.0000 C   0  0  0  0  0  0  0  0  0  0  0  0
   -6.5284   -2.7704    0.0000 C   0  0  0  0  0  0  0  0  0  0  0  0
   -7.8457   -3.4878    0.0000 C   0  0  0  0  0  0  0  0  0  0  0  0
   -9.0851   -4.3328    0.0000 C   0  0  0  0  0  0  0  0  0  0  0  0
  -10.2341   -5.2969    0.0000 C   0  0  0  0  0  0  0  0  0  0  0  0
  -11.2815   -6.3707    0.0000 C   0  0  0  0  0  0  0  0  0  0  0  0
  -12.2167   -7.5435    0.0000 C   0  0  0  0  0  0  0  0  0  0  0  0
  -13.0305   -8.8035    0.0000 C   0  0  0  0  0  0  0  0  0  0  0  0
  -13.7149  -10.1383    0.0000 C   0  0  0  0  0  0  0  0  0  0  0  0
  -14.2629  -11.5346    0.0000 C   0  0  0  0  0  0  0  0  0  0  0  0
  -14.6691  -12.9786    0.0000 C   0  0  0  0  0  0  0  0  0  0  0  0
  -14.9296  -14.4558    0.0000 C   0  0  0  0  0  0  0  0  0  0  0  0
  -15.0417  -15.9516    0.0000 C   0  0  0  0  0  0  0  0  0  0  0  0
  -15.0043  -17.4511    0.0000 C   0  0  0  0  0  0  0  0  0  0  0  0
  -14.8178  -18.9395    0.0000 C   0  0  0  0  0  0  0  0  0  0  0  0
  -14.4840  -20.4019    0.0000 C   0  0  0  0  0  0  0  0  0  0  0  0
  -14.0063  -21.8238    0.0000 C   0  0  0  0  0  0  0  0  0  0  0  0
  -13.3893  -23.1910    0.0000 C   0  0  0  0  0  0  0  0  0  0  0  0
  -12.6393  -24.4901    0.0000 C   0  0  0  0  0  0  0  0  0  0  0  0
  -11.7637  -25.7080    0.0000 C   0  0  0  0  0  0  0  0  0  0  0  0
  -10.7712  -26.8326    0.0000 C   0  0  0  0  0  0  0  0  0  0  0  0
   -9.6716  -27.8529    0.0000 C   0  0  0  0  0  0  0  0  0  0  0  0
   -8.4759  -28.7586    0.0000 C   0  0  0  0  0  0  0  0  0  0  0  0
   -7.1960  -29.5408    0.0000 C   0  0  0  0  0  0  0  0  0  0  0  0
   -5.8445  -30.1916    0.0000 C   0  0  0  0  0  0  0  0  0  0  0  0
   -4.4350  -30.7046    0.0000 C   0  0  0  0  0  0  0  0  0  0  0  0
   -2.9814  -31.0748    0.0000 C   0  0  0  0  0  0  0  0  0  0  0  0
   -1.4981  -31.2983    0.0000 C   0  0  0  0  0  0  0  0  0  0  0  0
   -0.0000  -31.3731    0.0000 C   0  0  0  0  0  0  0  0  0  0  0  0
    1.4981  -31.2983    0.0000 C   0  0  0  0  0  0  0  0  0  0  0  0
    2.9814  -31.0748    0.0000 C   0  0  0  0  0  0  0  0  0  0  0  0
    4.4350  -30.7046    0.0000 C   0  0  0  0  0  0  0  0  0  0  0  0
    5.8445  -30.1916    0.0000 C   0  0  0  0  0  0  0  0  0  0  0  0
    7.1960  -29.5408    0.0000 C   0  0  0  0  0  0  0  0  0  0  0  0
    8.4759  -28.7586    0.0000 C   0  0  0  0  0  0  0  0  0  0  0  0
    9.6716  -27.8529    0.0000 C   0  0  0  0  0  0  0  0  0  0  0  0
   10.7712  -26.8326    0.0000 C   0  0  0  0  0  0  0  0  0  0  0  0
   11.7637  -25.7080    0.0000 C   0  0  0  0  0  0  0  0  0  0  0  0
   12.6393  -24.4901    0.0000 C   0  0  0  0  0  0  0  0  0  0  0  0
   13.3893  -23.1910    0.0000 C   0  0  0  0  0  0  0  0  0  0  0  0
   14.0063  -21.8238    0.0000 C   0  0  0  0  0  0  0  0  0  0  0  0
   14.4840  -20.4019    0.0000 C   0  0  0  0  0  0  0  0  0  0  0  0
   14.8178  -18.9395    0.0000 C   0  0  0  0  0  0  0  0  0  0  0  0
   15.0043  -17.4511    0.0000 C   0  0  0  0  0  0  0  0  0  0  0  0
   15.0417  -15.9516    0.0000 C   0  0  0  0  0  0  0  0  0  0  0  0
   14.9296  -14.4558    0.0000 C   0  0  0  0  0  0  0  0  0  0  0  0
   14.6691  -12.9786    0.0000 C   0  0  0  0  0  0  0  0  0  0  0  0
   14.2629  -11.5346    0.0000 C   0  0  0  0  0  0  0  0  0  0  0  0
   13.7149  -10.1383    0.0000 C   0  0  0  0  0  0  0  0  0  0  0  0
   13.0305   -8.8035    0.0000 C   0  0  0  0  0  0  0  0  0  0  0  0
   12.2167   -7.5435    0.0000 C   0  0  0  0  0  0  0  0  0  0  0  0
   11.2815   -6.3707    0.0000 C   0  0  0  0  0  0  0  0  0  0  0  0
   10.2341   -5.2969    0.0000 C   0  0  0  0  0  0  0  0  0  0  0  0
    9.0851   -4.3328    0.0000 C   0  0  0  0  0  0  0  0  0  0  0  0
    7.8457   -3.4878    0.0000 C   0  0  0  0  0  0  0  0  0  0  0  0
    6.5284   -2.7704    0.0000 C   0  0  0  0  0  0  0  0  0  0  0  0
    5.1462   -2.1877    0.0000 C   0  0  0  0  0  0  0  0  0  0  0  0
    3.7128   -1.7456    0.0000 C   0  0  0  0  0  0  0  0  0  0  0  0
    2.2425   -1.4484    0.0000 C   0  0  0  0  0  0  0  0  0  0  0  0
    0.7500   -1.2990    0.0000 C   0  0  0  0  0  0  0  0  0  0  0  0
    1.5000    0.0000    0.0000 C   0  0  0  0  0  0  0  0  0  0  0  0
    0.7500    1.2990    0.0000 C   0  0  0  0  0  0  0  0  0  0  0  0
   -0.7500    1.2990    0.0000 C   0  0  0  0  0  0  0  0  0  0  0  0
   -1.5000    0.0000    0.0000 C   0  0  0  0  0  0  0  0  0  0  0  0
   -0.7500   -1.2990    0.0000 C   0  0  0  0  0  0  0  0  0  0  0  0
  1  2  1  0
  2  3  1  0
  3  4  1  0
  4  5  1  0
  5  6  1  0
  6  7  1  0
  7  8  1  0
  8  9  1  0
  9 10  1  0
 10 11  1  0
 11 12  1  0
 12 13  1  0
 13 14  1  0
 14 15  1  0
 15 16  1  0
 16 17  1  0
 17 18  1  0
 18 19  1  0
 19 20  1  0
 20 21  1  0
 21 22  1  0
 22 23  1  0
 23 24  1  0
 24 25  1  0
 25 26  1  0
 26 27  1  0
 27 28  1  0
 28 29  1  0
 29 30  1  0
 30 31  1  0
 31 32  1  0
 32 33  1  0
 33 34  1  0
 34 35  1  0
 35 36  1  0
 36 37  1  0
 37 38  1  0
 38 39  1  0
 39 40  1  0
 40 41  1  0
 41 42  1  0
 42 43  1  0
 43 44  1  0
 44 45  1  0
 45 46  1  0
 46 47  1  0
 47 48  1  0
 48 49  1  0
 49 50  1  0
 50 51  1  0
 51 52  1  0
 52 53  1  0
 53 54  1  0
 54 55  1  0
 55 56  1  0
 56 57  1  0
 57 58  1  0
 58 59  1  0
 59 60  1  0
 60 61  1  0
 61 62  1  0
 62 63  1  0
 63 64  1  0
 64 65  1  0
 65 66  1  0
 66 67  1  0
 67 68  2  0
 68  2  1  0
 68 63  1  0
M  END
>  <Title>  (252) 
idAAHTgen13

$$$$

     RDKit          2D

  6  6  0  0  0  0  0  0  0  0999 V2000
    2.7760    0.0000    0.0000 C   0  0  0  0  0  0  0  0  0  0  0  0
    1.2760    0.0000    0.0000 C   0  0  0  0  0  0  0  0  0  0  0  0
    0.3943    1.2135    0.0000 C   0  0  0  0  0  0  0  0  0  0  0  0
   -1.0323    0.7500    0.0000 C   0  0  0  0  0  0  0  0  0  0  0  0
   -1.0323   -0.7500    0.0000 C   0  0  0  0  0  0  0  0  0  0  0  0
    0.3943   -1.2135    0.0000 C   0  0  0  0  0  0  0  0  0  0  0  0
  1  2  1  0
  2  3  2  0
  3  4  1  0
  4  5  1  0
  5  6  2  0
  6  2  1  0
M  END
>  <Title>  (253) 
idAAHUgen13

$$$$

     RDKit          2D

 24 27  0  0  0  0  0  0  0  0999 V2000
   -3.0000   -2.5981    0.0000 C   0  0  0  0  0  0  0  0  0  0  0  0
   -1.5000   -2.5981    0.0000 C   0  0  0  0  0  0  0  0  0  0  0  0
   -0.7500   -3.8971    0.0000 C   0  0  0  0  0  0  0  0  0  0  0  0
    0.7500   -3.8971    0.0000 C   0  0  0  0  0  0  0  0  0  0  0  0
    1.5000   -2.5981    0.0000 C   0  0  0  0  0  0  0  0  0  0  0  0
    3.0000   -2.5981    0.0000 C   0  0  0  0  0  0  0  0  0  0  0  0
    3.7500   -1.2990    0.0000 O   0  0  0  0  0  0  0  0  0  0  0  0
    3.7500   -3.8971    0.0000 N   0  0  0  0  0  0  0  0  0  0  0  0
    5.2500   -3.8971    0.0000 C   0  0  0  0  0  0  0  0  0  0  0  0
    6.1317   -2.6836    0.0000 N   0  0  0  0  0  0  0  0  0  0  0  0
    7.5583   -3.1471    0.0000 N   0  0  0  0  0  0  0  0  0  0  0  0
    7.5583   -4.6471    0.0000 N   0  0  0  0  0  0  0  0  0  0  0  0
    6.1317   -5.1106    0.0000 N   0  0  0  0  0  0  0  0  0  0  0  0
    5.6682   -6.5372    0.0000 N   0  0  0  0  0  0  0  0  0  0  0  0
    6.5498   -7.7508    0.0000 C   0  0  0  0  0  0  0  0  0  0  0  0
    5.6682   -8.9643    0.0000 N   0  0  0  0  0  0  0  0  0  0  0  0
    4.2416   -8.5008    0.0000 N   0  0  0  0  0  0  0  0  0  0  0  0
    4.2416   -7.0008    0.0000 N   0  0  0  0  0  0  0  0  0  0  0  0
    0.7500   -1.2990    0.0000 C   0  0  0  0  0  0  0  0  0  0  0  0
    1.5000    0.0000    0.0000 C   0  0  0  0  0  0  0  0  0  0  0  0
    0.7500    1.2990    0.0000 C   0  0  0  0  0  0  0  0  0  0  0  0
   -0.7500    1.2990    0.0000 C   0  0  0  0  0  0  0  0  0  0  0  0
   -1.5000    0.0000    0.0000 C   0  0  0  0  0  0  0  0  0  0  0  0
   -0.7500   -1.2990    0.0000 C   0  0  0  0  0  0  0  0  0  0  0  0
  1  2  1  0
  2  3  2  0
  3  4  1  0
  4  5  2  0
  5  6  1  0
  6  7  2  0
  6  8  1  0
  8  9  1  0
  9 10  2  0
 10 11  1  0
 11 12  2  0
 12 13  1  0
 13 14  1  0
 14 15  1  0
 15 16  2  0
 16 17  1  0
 17 18  2  0
  5 19  1  0
 19 20  2  0
 20 21  1  0
 21 22  2  0
 22 23  1  0
 23 24  2  0
 24  2  1  0
 13  9  1  0
 18 14  1  0
 24 19  1  0
M  END
>  <Title>  (254) 
idAAHVgen13

$$$$

     RDKit          2D

  8  8  0  0  0  0  0  0  0  0999 V2000
    5.0260   -1.2990    0.0000 C   0  0  0  0  0  0  0  0  0  0  0  0
    3.5260   -1.2990    0.0000 C   0  0  0  0  0  0  0  0  0  0  0  0
    2.7760    0.0000    0.0000 C   0  0  0  0  0  0  0  0  0  0  0  0
    1.2760    0.0000    0.0000 C   0  0  0  0  0  0  0  0  0  0  0  0
    0.3943    1.2135    0.0000 C   0  0  0  0  0  0  0  0  0  0  0  0
   -1.0323    0.7500    0.0000 C   0  0  0  0  0  0  0  0  0  0  0  0
   -1.0323   -0.7500    0.0000 C   0  0  0  0  0  0  0  0  0  0  0  0
    0.3943   -1.2135    0.0000 C   0  0  0  0  0  0  0  0  0  0  0  0
  1  2  2  0
  2  3  1  0
  3  4  1  0
  4  5  1  0
  5  6  1  0
  6  7  2  0
  7  8  1  0
  8  4  1  0
M  END
>  <Title>  (255) 
idAAHWgen13

$$$$

     RDKit          2D

  4  3  0  0  0  0  0  0  0  0999 V2000
   -1.2990    0.7500    0.0000 O   0  0  0  0  0  0  0  0  0  0  0  0
    0.0000    0.0000    0.0000 C   0  0  0  0  0  0  0  0  0  0  0  0
    1.2990    0.7500    0.0000 O   0  0  0  0  0  0  0  0  0  0  0  0
   -0.0000   -1.5000    0.0000 F   0  0  0  0  0  0  0  0  0  0  0  0
  1  2  2  0
  2  3  1  0
  2  4  1  0
M  END
>  <Title>  (256) 
idAAHXgen13

$$$$

     RDKit          2D

 34 33  0  0  0  0  0  0  0  0999 V2000
    0.0000    0.0000    0.0000 C   0  0  0  0  0  0  0  0  0  0  0  0
   -0.0000   -1.5000    0.0000 C   0  0  0  0  0  0  0  0  0  0  0  0
   -0.0000   -3.0000    0.0000 C   0  0  0  0  0  0  0  0  0  0  0  0
   -0.0000   -4.5000    0.0000 C   0  0  0  0  0  0  0  0  0  0  0  0
   -0.0000   -6.0000    0.0000 C   0  0  0  0  0  0  0  0  0  0  0  0
   -0.0000   -7.5000    0.0000 C   0  0  0  0  0  0  0  0  0  0  0  0
   -0.0000   -9.0000    0.0000 C   0  0  0  0  0  0  0  0  0  0  0  0
   -0.0000  -10.5000    0.0000 C   0  0  0  0  0  0  0  0  0  0  0  0
   -0.0000  -12.0000    0.0000 C   0  0  0  0  0  0  0  0  0  0  0  0
   -0.0000  -13.5000    0.0000 C   0  0  0  0  0  0  0  0  0  0  0  0
   -0.0000  -15.0000    0.0000 C   0  0  0  0  0  0  0  0  0  0  0  0
   -0.0000  -16.5000    0.0000 C   0  0  0  0  0  0  0  0  0  0  0  0
   -0.0000  -18.0000    0.0000 C   0  0  0  0  0  0  0  0  0  0  0  0
   -0.0000  -19.5000    0.0000 C   0  0  0  0  0  0  0  0  0  0  0  0
   -0.0000  -21.0000    0.0000 C   0  0  0  0  0  0  0  0  0  0  0  0
   -0.0000  -22.5000    0.0000 C   0  0  0  0  0  0  0  0  0  0  0  0
   -0.0000  -24.0000    0.0000 C   0  0  0  0  0  0  0  0  0  0  0  0
   -0.0000  -25.5000    0.0000 C   0  0  0  0  0  0  0  0  0  0  0  0
   -0.0000  -27.0000    0.0000 C   0  0  0  0  0  0  0  0  0  0  0  0
   -0.0000  -28.5000    0.0000 C   0  0  0  0  0  0  0  0  0  0  0  0
   -0.0000  -30.0000    0.0000 C   0  0  0  0  0  0  0  0  0  0  0  0
   -0.0000  -31.5000    0.0000 C   0  0  0  0  0  0  0  0  0  0  0  0
   -0.0000  -33.0000    0.0000 C   0  0  0  0  0  0  0  0  0  0  0  0
   -0.0000  -34.5000    0.0000 C   0  0  0  0  0  0  0  0  0  0  0  0
   -0.0000  -36.0000    0.0000 C   0  0  0  0  0  0  0  0  0  0  0  0
   -0.0000  -37.5000    0.0000 C   0  0  0  0  0  0  0  0  0  0  0  0
   -0.0000  -39.0000    0.0000 C   0  0  0  0  0  0  0  0  0  0  0  0
   -0.0000  -40.5000    0.0000 C   0  0  0  0  0  0  0  0  0  0  0  0
   -0.0000  -42.0000    0.0000 C   0  0  0  0  0  0  0  0  0  0  0  0
   -0.0000  -43.5000    0.0000 C   0  0  0  0  0  0  0  0  0  0  0  0
   -0.0000  -45.0000    0.0000 C   0  0  0  0  0  0  0  0  0  0  0  0
    1.2990  -45.7500    0.0000 C   0  0  0  0  0  0  0  0  0  0  0  0
    1.2990  -47.2500    0.0000 C   0  0  0  0  0  0  0  0  0  0  0  0
    1.2990  -48.7500    0.0000 C   0  0  0  0  0  0  0  0  0  0  0  0
  1  2  3  0
  2  3  1  0
  3  4  3  0
  4  5  1  0
  5  6  3  0
  6  7  1  0
  7  8  3  0
  8  9  1  0
  9 10  3  0
 10 11  1  0
 11 12  3  0
 12 13  1  0
 13 14  3  0
 14 15  1  0
 15 16  3  0
 16 17  1  0
 17 18  3  0
 18 19  1  0
 19 20  3  0
 20 21  1  0
 21 22  3  0
 22 23  1  0
 23 24  3  0
 24 25  1  0
 25 26  3  0
 26 27  1  0
 27 28  3  0
 28 29  1  0
 29 30  3  0
 30 31  1  0
 31 32  2  3
 32 33  1  0
 33 34  3  0
M  END
>  <Title>  (257) 
idAAHYgen13

$$$$

     RDKit          2D

  5  5  0  0  0  0  0  0  0  0999 V2000
    1.2760    0.0000    0.0000 C   0  0  0  0  0  0  0  0  0  0  0  0
    0.3943    1.2135    0.0000 C   0  0  0  0  0  0  0  0  0  0  0  0
   -1.0323    0.7500    0.0000 C   0  0  0  0  0  0  0  0  0  0  0  0
   -1.0323   -0.7500    0.0000 C   0  0  0  0  0  0  0  0  0  0  0  0
    0.3943   -1.2135    0.0000 C   0  0  0  0  0  0  0  0  0  0  0  0
  1  2  2  0
  2  3  2  0
  3  4  1  0
  4  5  1  0
  5  1  2  0
M  END
>  <Title>  (258) 
idAAHZgen13

$$$$

     RDKit          2D

 88 89  0  0  0  0  0  0  0  0999 V2000
   -2.3165    0.7155    0.0000 C   0  0  0  0  0  0  0  0  0  0  0  0
   -1.8172    2.1300    0.0000 C   0  0  0  0  0  0  0  0  0  0  0  0
   -3.2115    2.6831    0.0000 C   0  0  0  0  0  0  0  0  0  0  0  0
   -4.5594    3.3413    0.0000 C   0  0  0  0  0  0  0  0  0  0  0  0
   -5.8529    4.1008    0.0000 C   0  0  0  0  0  0  0  0  0  0  0  0
   -7.0845    4.9570    0.0000 C   0  0  0  0  0  0  0  0  0  0  0  0
   -8.2469    5.9050    0.0000 C   0  0  0  0  0  0  0  0  0  0  0  0
   -9.3334    6.9392    0.0000 C   0  0  0  0  0  0  0  0  0  0  0  0
  -10.3375    8.0536    0.0000 C   0  0  0  0  0  0  0  0  0  0  0  0
  -11.2534    9.2415    0.0000 C   0  0  0  0  0  0  0  0  0  0  0  0
  -12.0756   10.4961    0.0000 C   0  0  0  0  0  0  0  0  0  0  0  0
  -12.7994   11.8099    0.0000 C   0  0  0  0  0  0  0  0  0  0  0  0
  -13.4204   13.1753    0.0000 C   0  0  0  0  0  0  0  0  0  0  0  0
  -13.9352   14.5842    0.0000 C   0  0  0  0  0  0  0  0  0  0  0  0
  -14.3406   16.0284    0.0000 C   0  0  0  0  0  0  0  0  0  0  0  0
  -14.6342   17.4994    0.0000 C   0  0  0  0  0  0  0  0  0  0  0  0
  -14.8144   18.9885    0.0000 C   0  0  0  0  0  0  0  0  0  0  0  0
  -14.8801   20.4871    0.0000 C   0  0  0  0  0  0  0  0  0  0  0  0
  -14.8308   21.9863    0.0000 C   0  0  0  0  0  0  0  0  0  0  0  0
  -14.6669   23.4773    0.0000 C   0  0  0  0  0  0  0  0  0  0  0  0
  -14.3894   24.9514    0.0000 C   0  0  0  0  0  0  0  0  0  0  0  0
  -13.9999   26.3999    0.0000 C   0  0  0  0  0  0  0  0  0  0  0  0
  -13.5006   27.8144    0.0000 C   0  0  0  0  0  0  0  0  0  0  0  0
  -12.8945   29.1865    0.0000 C   0  0  0  0  0  0  0  0  0  0  0  0
  -12.1851   30.5082    0.0000 C   0  0  0  0  0  0  0  0  0  0  0  0
  -11.3767   31.7717    0.0000 C   0  0  0  0  0  0  0  0  0  0  0  0
  -10.4739   32.9696    0.0000 C   0  0  0  0  0  0  0  0  0  0  0  0
   -9.4820   34.0948    0.0000 C   0  0  0  0  0  0  0  0  0  0  0  0
   -8.4069   35.1409    0.0000 C   0  0  0  0  0  0  0  0  0  0  0  0
   -7.2550   36.1016    0.0000 C   0  0  0  0  0  0  0  0  0  0  0  0
   -6.0328   36.9712    0.0000 C   0  0  0  0  0  0  0  0  0  0  0  0
   -4.7477   37.7448    0.0000 C   0  0  0  0  0  0  0  0  0  0  0  0
   -3.4071   38.4177    0.0000 C   0  0  0  0  0  0  0  0  0  0  0  0
   -2.0189   38.9861    0.0000 C   0  0  0  0  0  0  0  0  0  0  0  0
   -0.5913   39.4465    0.0000 C   0  0  0  0  0  0  0  0  0  0  0  0
    0.8673   39.7962    0.0000 C   0  0  0  0  0  0  0  0  0  0  0  0
    2.3485   40.0333    0.0000 C   0  0  0  0  0  0  0  0  0  0  0  0
    3.8434   40.1563    0.0000 C   0  0  0  0  0  0  0  0  0  0  0  0
    5.3434   40.1645    0.0000 C   0  0  0  0  0  0  0  0  0  0  0  0
    6.8396   40.0579    0.0000 C   0  0  0  0  0  0  0  0  0  0  0  0
    8.3233   39.8370    0.0000 C   0  0  0  0  0  0  0  0  0  0  0  0
    9.7857   39.5033    0.0000 C   0  0  0  0  0  0  0  0  0  0  0  0
   11.2182   39.0585    0.0000 C   0  0  0  0  0  0  0  0  0  0  0  0
   12.6125   38.5054    0.0000 C   0  0  0  0  0  0  0  0  0  0  0  0
   13.9604   37.8472    0.0000 C   0  0  0  0  0  0  0  0  0  0  0  0
   15.2539   37.0877    0.0000 C   0  0  0  0  0  0  0  0  0  0  0  0
   16.4855   36.2315    0.0000 C   0  0  0  0  0  0  0  0  0  0  0  0
   17.6479   35.2835    0.0000 C   0  0  0  0  0  0  0  0  0  0  0  0
   18.7344   34.2493    0.0000 C   0  0  0  0  0  0  0  0  0  0  0  0
   19.7385   33.1349    0.0000 C   0  0  0  0  0  0  0  0  0  0  0  0
   20.6544   31.9470    0.0000 C   0  0  0  0  0  0  0  0  0  0  0  0
   21.4766   30.6924    0.0000 C   0  0  0  0  0  0  0  0  0  0  0  0
   22.2004   29.3786    0.0000 C   0  0  0  0  0  0  0  0  0  0  0  0
   22.8215   28.0132    0.0000 C   0  0  0  0  0  0  0  0  0  0  0  0
   23.3362   26.6043    0.0000 C   0  0  0  0  0  0  0  0  0  0  0  0
   23.7416   25.1601    0.0000 C   0  0  0  0  0  0  0  0  0  0  0  0
   24.0352   23.6891    0.0000 C   0  0  0  0  0  0  0  0  0  0  0  0
   24.2154   22.2000    0.0000 C   0  0  0  0  0  0  0  0  0  0  0  0
   24.2811   20.7014    0.0000 C   0  0  0  0  0  0  0  0  0  0  0  0
   24.2318   19.2022    0.0000 C   0  0  0  0  0  0  0  0  0  0  0  0
   24.0679   17.7112    0.0000 C   0  0  0  0  0  0  0  0  0  0  0  0
   23.7904   16.2371    0.0000 C   0  0  0  0  0  0  0  0  0  0  0  0
   23.4009   14.7886    0.0000 C   0  0  0  0  0  0  0  0  0  0  0  0
   22.9016   13.3741    0.0000 C   0  0  0  0  0  0  0  0  0  0  0  0
   22.2955   12.0020    0.0000 C   0  0  0  0  0  0  0  0  0  0  0  0
   21.5861   10.6803    0.0000 C   0  0  0  0  0  0  0  0  0  0  0  0
   20.7777    9.4168    0.0000 C   0  0  0  0  0  0  0  0  0  0  0  0
   19.8749    8.2190    0.0000 C   0  0  0  0  0  0  0  0  0  0  0  0
   18.8830    7.0937    0.0000 C   0  0  0  0  0  0  0  0  0  0  0  0
   17.8080    6.0476    0.0000 C   0  0  0  0  0  0  0  0  0  0  0  0
   16.6560    5.0869    0.0000 C   0  0  0  0  0  0  0  0  0  0  0  0
   15.4338    4.2173    0.0000 C   0  0  0  0  0  0  0  0  0  0  0  0
   14.1487    3.4437    0.0000 C   0  0  0  0  0  0  0  0  0  0  0  0
   12.8081    2.7708    0.0000 C   0  0  0  0  0  0  0  0  0  0  0  0
   11.4199    2.2024    0.0000 C   0  0  0  0  0  0  0  0  0  0  0  0
    9.9923    1.7420    0.0000 C   0  0  0  0  0  0  0  0  0  0  0  0
    8.5337    1.3923    0.0000 C   0  0  0  0  0  0  0  0  0  0  0  0
    7.0525    1.1552    0.0000 C   0  0  0  0  0  0  0  0  0  0  0  0
    5.5576    1.0322    0.0000 C   0  0  0  0  0  0  0  0  0  0  0  0
    4.0576    1.0240    0.0000 C   0  0  0  0  0  0  0  0  0  0  0  0
    2.5614    1.1306    0.0000 C   0  0  0  0  0  0  0  0  0  0  0  0
    1.0777    1.3515    0.0000 C   0  0  0  0  0  0  0  0  0  0  0  0
    1.7286    0.0000    0.0000 C   0  0  0  0  0  0  0  0  0  0  0  0
    1.0777   -1.3515    0.0000 C   0  0  0  0  0  0  0  0  0  0  0  0
   -0.3846   -1.6852    0.0000 C   0  0  0  0  0  0  0  0  0  0  0  0
   -1.5574   -0.7500    0.0000 C   0  0  0  0  0  0  0  0  0  0  0  0
   -1.5574    0.7500    0.0000 C   0  0  0  0  0  0  0  0  0  0  0  0
   -0.3846    1.6852    0.0000 C   0  0  0  0  0  0  0  0  0  0  0  0
  1  2  1  0
  2  3  1  0
  3  4  1  0
  4  5  1  0
  5  6  1  0
  6  7  1  0
  7  8  1  0
  8  9  1  0
  9 10  1  0
 10 11  1  0
 11 12  1  0
 12 13  1  0
 13 14  1  0
 14 15  1  0
 15 16  1  0
 16 17  1  0
 17 18  1  0
 18 19  1  0
 19 20  1  0
 20 21  1  0
 21 22  1  0
 22 23  1  0
 23 24  1  0
 24 25  1  0
 25 26  1  0
 26 27  1  0
 27 28  1  0
 28 29  1  0
 29 30  1  0
 30 31  1  0
 31 32  1  0
 32 33  1  0
 33 34  1  0
 34 35  1  0
 35 36  1  0
 36 37  1  0
 37 38  1  0
 38 39  1  0
 39 40  1  0
 40 41  1  0
 41 42  1  0
 42 43  1  0
 43 44  1  0
 44 45  1  0
 45 46  1  0
 46 47  1  0
 47 48  1  0
 48 49  1  0
 49 50  1  0
 50 51  1  0
 51 52  1  0
 52 53  1  0
 53 54  1  0
 54 55  1  0
 55 56  1  0
 56 57  1  0
 57 58  1  0
 58 59  1  0
 59 60  1  0
 60 61  1  0
 61 62  1  0
 62 63  1  0
 63 64  1  0
 64 65  1  0
 65 66  1  0
 66 67  1  0
 67 68  1  0
 68 69  1  0
 69 70  1  0
 70 71  1  0
 71 72  1  0
 72 73  1  0
 73 74  1  0
 74 75  1  0
 75 76  1  0
 76 77  1  0
 77 78  2  0
 78 79  1  0
 79 80  2  0
 80 81  1  0
 81 82  2  0
 82 83  1  0
 83 84  2  0
 84 85  1  0
 85 86  2  0
 86 87  1  0
 87 88  2  0
 88  2  1  0
 88 82  1  0
M  END
>  <Title>  (259) 
idAAIAgen13

$$$$

     RDKit          2D

 32 36  0  0  0  0  0  0  0  0999 V2000
   -3.0000   -2.5981    0.0000 C   0  0  0  0  0  0  0  0  0  0  0  0
   -1.5000   -2.5981    0.0000 C   0  0  0  0  0  0  0  0  0  0  0  0
   -0.7500   -3.8971    0.0000 C   0  0  0  0  0  0  0  0  0  0  0  0
    0.7500   -3.8971    0.0000 C   0  0  0  0  0  0  0  0  0  0  0  0
    1.5000   -2.5981    0.0000 C   0  0  0  0  0  0  0  0  0  0  0  0
    3.0000   -2.5981    0.0000 C   0  0  0  0  0  0  0  0  0  0  0  0
    3.7500   -1.2990    0.0000 O   0  0  0  0  0  0  0  0  0  0  0  0
    3.7500   -3.8971    0.0000 N   0  0  0  0  0  0  0  0  0  0  0  0
    5.2500   -3.8971    0.0000 C   0  0  0  0  0  0  0  0  0  0  0  0
    6.1317   -2.6836    0.0000 N   0  0  0  0  0  0  0  0  0  0  0  0
    7.5583   -3.1471    0.0000 N   0  0  0  0  0  0  0  0  0  0  0  0
    7.5583   -4.6471    0.0000 N   0  0  0  0  0  0  0  0  0  0  0  0
    6.1317   -5.1106    0.0000 N   0  0  0  0  0  0  0  0  0  0  0  0
    5.6682   -6.5372    0.0000 C   0  0  0  0  0  0  0  0  0  0  0  0
    6.5498   -7.7508    0.0000 C   0  0  0  0  0  0  0  0  0  0  0  0
    5.6682   -8.9643    0.0000 C   0  0  0  0  0  0  0  0  0  0  0  0
    4.2416   -8.5008    0.0000 C   0  0  0  0  0  0  0  0  0  0  0  0
    3.0280   -9.3824    0.0000 O   0  0  0  0  0  0  0  0  0  0  0  0
    1.6577   -8.7723    0.0000 C   0  0  0  0  0  0  0  0  0  0  0  0
    1.5009   -7.2805    0.0000 N   0  0  0  0  0  0  0  0  0  0  0  0
    0.1306   -6.6704    0.0000 N   0  0  0  0  0  0  0  0  0  0  0  0
   -1.0829   -7.5521    0.0000 N   0  0  0  0  0  0  0  0  0  0  0  0
   -0.9261   -9.0439    0.0000 N   0  0  0  0  0  0  0  0  0  0  0  0
    0.4442   -9.6540    0.0000 N   0  0  0  0  0  0  0  0  0  0  0  0
    4.2416   -7.0008    0.0000 C   0  0  0  0  0  0  0  0  0  0  0  0
    3.0280   -6.1191    0.0000 O   0  0  0  0  0  0  0  0  0  0  0  0
    0.7500   -1.2990    0.0000 C   0  0  0  0  0  0  0  0  0  0  0  0
    1.5000    0.0000    0.0000 C   0  0  0  0  0  0  0  0  0  0  0  0
    0.7500    1.2990    0.0000 C   0  0  0  0  0  0  0  0  0  0  0  0
   -0.7500    1.2990    0.0000 C   0  0  0  0  0  0  0  0  0  0  0  0
   -1.5000    0.0000    0.0000 C   0  0  0  0  0  0  0  0  0  0  0  0
   -0.7500   -1.2990    0.0000 C   0  0  0  0  0  0  0  0  0  0  0  0
  1  2  1  0
  2  3  1  0
  3  4  2  0
  4  5  1  0
  5  6  1  0
  6  7  2  0
  6  8  1  0
  8  9  1  0
  9 10  2  0
 10 11  1  0
 11 12  2  0
 12 13  1  0
 13 14  1  0
 14 15  2  0
 15 16  1  0
 16 17  2  0
 17 18  1  0
 18 19  1  0
 19 20  2  0
 20 21  1  0
 21 22  2  0
 22 23  1  0
 23 24  2  0
 17 25  1  0
 25 26  2  0
  5 27  1  0
 27 28  2  0
 28 29  1  0
 29 30  2  0
 30 31  1  0
 31 32  2  0
 32  2  1  0
 13  9  1  0
 25 14  1  0
 32 27  1  0
 24 19  1  0
M  END
>  <Title>  (260) 
idAAIBgen13

$$$$

     RDKit          2D

 35 39  0  0  0  0  0  0  0  0999 V2000
    8.2500    3.8971    0.0000 C   0  0  0  0  0  0  0  0  0  0  0  0
    7.5000    2.5981    0.0000 C   0  0  0  0  0  0  0  0  0  0  0  0
    8.2500    1.2990    0.0000 C   0  0  0  0  0  0  0  0  0  0  0  0
    7.5000    0.0000    0.0000 C   0  0  0  0  0  0  0  0  0  0  0  0
    6.0000    0.0000    0.0000 C   0  0  0  0  0  0  0  0  0  0  0  0
    5.2500   -1.2990    0.0000 O   0  0  0  0  0  0  0  0  0  0  0  0
    6.0000   -2.5981    0.0000 C   0  0  0  0  0  0  0  0  0  0  0  0
    7.5000   -2.5981    0.0000 O   0  0  0  0  0  0  0  0  0  0  0  0
    5.2500   -3.8971    0.0000 N   0  0  0  0  0  0  0  0  0  0  0  0
    6.0000   -5.1962    0.0000 C   0  0  0  0  0  0  0  0  0  0  0  0
    7.4918   -5.3529    0.0000 N   0  0  0  0  0  0  0  0  0  0  0  0
    7.8037   -6.8202    0.0000 N   0  0  0  0  0  0  0  0  0  0  0  0
    6.5046   -7.5702    0.0000 N   0  0  0  0  0  0  0  0  0  0  0  0
    5.3899   -6.5665    0.0000 N   0  0  0  0  0  0  0  0  0  0  0  0
    3.9227   -6.8783    0.0000 N   0  0  0  0  0  0  0  0  0  0  0  0
    2.8080   -5.8746    0.0000 C   0  0  0  0  0  0  0  0  0  0  0  0
    1.5089   -6.6246    0.0000 C   0  0  0  0  0  0  0  0  0  0  0  0
    1.8208   -8.0919    0.0000 N   0  0  0  0  0  0  0  0  0  0  0  0
    0.8171   -9.2066    0.0000 C   0  0  0  0  0  0  0  0  0  0  0  0
    1.2806  -10.6332    0.0000 O   0  0  0  0  0  0  0  0  0  0  0  0
   -0.6501   -8.8947    0.0000 N   0  0  0  0  0  0  0  0  0  0  0  0
   -1.6538  -10.0094    0.0000 C   0  0  0  0  0  0  0  0  0  0  0  0
   -1.1903  -11.4360    0.0000 N   0  0  0  0  0  0  0  0  0  0  0  0
   -2.1940  -12.5507    0.0000 N   0  0  0  0  0  0  0  0  0  0  0  0
   -3.6612  -12.2389    0.0000 N   0  0  0  0  0  0  0  0  0  0  0  0
   -4.1247  -10.8123    0.0000 N   0  0  0  0  0  0  0  0  0  0  0  0
   -3.1210   -9.6976    0.0000 N   0  0  0  0  0  0  0  0  0  0  0  0
    3.3126   -8.2487    0.0000 C   0  0  0  0  0  0  0  0  0  0  0  0
    4.0626   -9.5477    0.0000 O   0  0  0  0  0  0  0  0  0  0  0  0
    5.2500    1.2990    0.0000 C   0  0  0  0  0  0  0  0  0  0  0  0
    3.7500    1.2990    0.0000 C   0  0  0  0  0  0  0  0  0  0  0  0
    3.0000    2.5981    0.0000 C   0  0  0  0  0  0  0  0  0  0  0  0
    3.7500    3.8971    0.0000 C   0  0  0  0  0  0  0  0  0  0  0  0
    5.2500    3.8971    0.0000 C   0  0  0  0  0  0  0  0  0  0  0  0
    6.0000    2.5981    0.0000 C   0  0  0  0  0  0  0  0  0  0  0  0
  1  2  1  0
  2  3  1  0
  3  4  2  0
  4  5  1  0
  5  6  1  0
  6  7  1  0
  7  8  2  0
  7  9  1  0
  9 10  1  0
 10 11  2  0
 11 12  1  0
 12 13  2  0
 13 14  1  0
 14 15  1  0
 15 16  1  0
 16 17  1  0
 17 18  1  0
 18 19  1  0
 19 20  2  0
 19 21  1  0
 21 22  1  0
 22 23  2  0
 23 24  1  0
 24 25  2  0
 25 26  1  0
 26 27  2  0
 18 28  1  0
 28 29  2  0
  5 30  1  0
 30 31  2  0
 31 32  1  0
 32 33  2  0
 33 34  1  0
 34 35  2  0
 35  2  1  0
 14 10  1  0
 28 15  1  0
 35 30  1  0
 27 22  1  0
M  END
>  <Title>  (261) 
idAAICgen13

$$$$

     RDKit          2D

  8  8  0  0  0  0  0  0  0  0999 V2000
    5.5607   -2.5981    0.0000 C   0  0  0  0  0  0  0  0  0  0  0  0
    4.8107   -1.2990    0.0000 C   0  0  0  0  0  0  0  0  0  0  0  0
    3.3107   -1.2990    0.0000 C   0  0  0  0  0  0  0  0  0  0  0  0
    2.5607    0.0000    0.0000 C   0  0  0  0  0  0  0  0  0  0  0  0
    1.0607    0.0000    0.0000 N   0  0  0  0  0  0  0  0  0  0  0  0
   -0.0000   -1.0607    0.0000 C   0  0  0  0  0  0  0  0  0  0  0  0
   -1.0607    0.0000    0.0000 C   0  0  0  0  0  0  0  0  0  0  0  0
    0.0000    1.0607    0.0000 C   0  0  0  0  0  0  0  0  0  0  0  0
  1  2  2  0
  2  3  1  0
  3  4  1  0
  4  5  1  0
  5  6  1  0
  6  7  2  0
  7  8  1  0
  8  5  1  0
M  END
>  <Title>  (262) 
idAAIDgen13

$$$$

     RDKit          2D

 72 74  0  0  0  0  0  0  0  0999 V2000
   -2.4629    0.0377    0.0000 C   0  0  0  0  0  0  0  0  0  0  0  0
   -2.2428   -1.4461    0.0000 C   0  0  0  0  0  0  0  0  0  0  0  0
   -3.7140   -1.7387    0.0000 C   0  0  0  0  0  0  0  0  0  0  0  0
   -5.1494   -2.1741    0.0000 C   0  0  0  0  0  0  0  0  0  0  0  0
   -6.5352   -2.7482    0.0000 C   0  0  0  0  0  0  0  0  0  0  0  0
   -7.8581   -3.4552    0.0000 C   0  0  0  0  0  0  0  0  0  0  0  0
   -9.1053   -4.2886    0.0000 C   0  0  0  0  0  0  0  0  0  0  0  0
  -10.2648   -5.2402    0.0000 C   0  0  0  0  0  0  0  0  0  0  0  0
  -11.3254   -6.3009    0.0000 C   0  0  0  0  0  0  0  0  0  0  0  0
  -12.2770   -7.4604    0.0000 C   0  0  0  0  0  0  0  0  0  0  0  0
  -13.1104   -8.7076    0.0000 C   0  0  0  0  0  0  0  0  0  0  0  0
  -13.8175  -10.0305    0.0000 C   0  0  0  0  0  0  0  0  0  0  0  0
  -14.3915  -11.4163    0.0000 C   0  0  0  0  0  0  0  0  0  0  0  0
  -14.8269  -12.8517    0.0000 C   0  0  0  0  0  0  0  0  0  0  0  0
  -15.1196  -14.3229    0.0000 C   0  0  0  0  0  0  0  0  0  0  0  0
  -15.2666  -15.8156    0.0000 C   0  0  0  0  0  0  0  0  0  0  0  0
  -15.2666  -17.3156    0.0000 C   0  0  0  0  0  0  0  0  0  0  0  0
  -15.1196  -18.8084    0.0000 C   0  0  0  0  0  0  0  0  0  0  0  0
  -14.8269  -20.2796    0.0000 C   0  0  0  0  0  0  0  0  0  0  0  0
  -14.3915  -21.7150    0.0000 C   0  0  0  0  0  0  0  0  0  0  0  0
  -13.8175  -23.1008    0.0000 C   0  0  0  0  0  0  0  0  0  0  0  0
  -13.1104  -24.4237    0.0000 C   0  0  0  0  0  0  0  0  0  0  0  0
  -12.2770  -25.6709    0.0000 C   0  0  0  0  0  0  0  0  0  0  0  0
  -11.3254  -26.8304    0.0000 C   0  0  0  0  0  0  0  0  0  0  0  0
  -10.2648  -27.8911    0.0000 C   0  0  0  0  0  0  0  0  0  0  0  0
   -9.1053  -28.8427    0.0000 C   0  0  0  0  0  0  0  0  0  0  0  0
   -7.8581  -29.6760    0.0000 C   0  0  0  0  0  0  0  0  0  0  0  0
   -6.5352  -30.3831    0.0000 C   0  0  0  0  0  0  0  0  0  0  0  0
   -5.1494  -30.9572    0.0000 C   0  0  0  0  0  0  0  0  0  0  0  0
   -3.7140  -31.3926    0.0000 C   0  0  0  0  0  0  0  0  0  0  0  0
   -2.2428  -31.6852    0.0000 C   0  0  0  0  0  0  0  0  0  0  0  0
   -0.7500  -31.8322    0.0000 C   0  0  0  0  0  0  0  0  0  0  0  0
    0.7500  -31.8322    0.0000 C   0  0  0  0  0  0  0  0  0  0  0  0
    2.2428  -31.6852    0.0000 C   0  0  0  0  0  0  0  0  0  0  0  0
    3.7140  -31.3926    0.0000 C   0  0  0  0  0  0  0  0  0  0  0  0
    5.1494  -30.9572    0.0000 C   0  0  0  0  0  0  0  0  0  0  0  0
    6.5352  -30.3831    0.0000 C   0  0  0  0  0  0  0  0  0  0  0  0
    7.8581  -29.6760    0.0000 C   0  0  0  0  0  0  0  0  0  0  0  0
    9.1053  -28.8427    0.0000 C   0  0  0  0  0  0  0  0  0  0  0  0
   10.2648  -27.8911    0.0000 C   0  0  0  0  0  0  0  0  0  0  0  0
   11.3254  -26.8304    0.0000 C   0  0  0  0  0  0  0  0  0  0  0  0
   12.2770  -25.6709    0.0000 C   0  0  0  0  0  0  0  0  0  0  0  0
   13.1104  -24.4237    0.0000 C   0  0  0  0  0  0  0  0  0  0  0  0
   13.8175  -23.1008    0.0000 C   0  0  0  0  0  0  0  0  0  0  0  0
   14.3915  -21.7150    0.0000 C   0  0  0  0  0  0  0  0  0  0  0  0
   14.8269  -20.2796    0.0000 C   0  0  0  0  0  0  0  0  0  0  0  0
   15.1196  -18.8084    0.0000 C   0  0  0  0  0  0  0  0  0  0  0  0
   15.2666  -17.3156    0.0000 C   0  0  0  0  0  0  0  0  0  0  0  0
   15.2666  -15.8156    0.0000 C   0  0  0  0  0  0  0  0  0  0  0  0
   15.1196  -14.3229    0.0000 C   0  0  0  0  0  0  0  0  0  0  0  0
   14.8269  -12.8517    0.0000 C   0  0  0  0  0  0  0  0  0  0  0  0
   14.3915  -11.4163    0.0000 C   0  0  0  0  0  0  0  0  0  0  0  0
   13.8175  -10.0305    0.0000 C   0  0  0  0  0  0  0  0  0  0  0  0
   13.1104   -8.7076    0.0000 C   0  0  0  0  0  0  0  0  0  0  0  0
   12.2770   -7.4604    0.0000 C   0  0  0  0  0  0  0  0  0  0  0  0
   11.3254   -6.3009    0.0000 C   0  0  0  0  0  0  0  0  0  0  0  0
   10.2648   -5.2402    0.0000 C   0  0  0  0  0  0  0  0  0  0  0  0
    9.1053   -4.2886    0.0000 C   0  0  0  0  0  0  0  0  0  0  0  0
    7.8581   -3.4552    0.0000 C   0  0  0  0  0  0  0  0  0  0  0  0
    6.5352   -2.7482    0.0000 C   0  0  0  0  0  0  0  0  0  0  0  0
    5.1494   -2.1741    0.0000 C   0  0  0  0  0  0  0  0  0  0  0  0
    3.7140   -1.7387    0.0000 C   0  0  0  0  0  0  0  0  0  0  0  0
    3.8903   -3.2283    0.0000 C   0  0  0  0  0  0  0  0  0  0  0  0
    2.5280   -3.8563    0.0000 C   0  0  0  0  0  0  0  0  0  0  0  0
    1.5098   -2.7548    0.0000 C   0  0  0  0  0  0  0  0  0  0  0  0
    2.2428   -1.4461    0.0000 C   0  0  0  0  0  0  0  0  0  0  0  0
    0.7500   -1.2990    0.0000 C   0  0  0  0  0  0  0  0  0  0  0  0
    1.5000    0.0000    0.0000 C   0  0  0  0  0  0  0  0  0  0  0  0
    0.7500    1.2990    0.0000 C   0  0  0  0  0  0  0  0  0  0  0  0
   -0.7500    1.2990    0.0000 C   0  0  0  0  0  0  0  0  0  0  0  0
   -1.5000    0.0000    0.0000 C   0  0  0  0  0  0  0  0  0  0  0  0
   -0.7500   -1.2990    0.0000 C   0  0  0  0  0  0  0  0  0  0  0  0
  1  2  1  0
  2  3  1  0
  3  4  1  0
  4  5  1  0
  5  6  1  0
  6  7  1  0
  7  8  1  0
  8  9  1  0
  9 10  1  0
 10 11  1  0
 11 12  1  0
 12 13  1  0
 13 14  1  0
 14 15  1  0
 15 16  2  0
 16 17  1  0
 17 18  2  0
 18 19  1  0
 19 20  2  0
 20 21  1  0
 21 22  2  0
 22 23  1  0
 23 24  2  0
 24 25  1  0
 25 26  2  0
 26 27  1  0
 27 28  2  0
 28 29  1  0
 29 30  2  0
 30 31  1  0
 31 32  2  0
 32 33  1  0
 33 34  2  0
 34 35  1  0
 35 36  2  0
 36 37  1  0
 37 38  2  0
 38 39  1  0
 39 40  2  0
 40 41  1  0
 41 42  2  0
 42 43  1  0
 43 44  2  0
 44 45  1  0
 45 46  2  0
 46 47  1  0
 47 48  2  0
 48 49  1  0
 49 50  2  0
 50 51  1  0
 51 52  2  0
 52 53  1  0
 53 54  2  0
 54 55  1  0
 55 56  2  0
 56 57  1  0
 57 58  2  0
 58 59  1  0
 59 60  2  0
 60 61  1  0
 61 62  2  0
 62 63  1  0
 63 64  2  0
 64 65  1  0
 65 66  2  0
 66 67  1  0
 67 68  2  0
 68 69  1  0
 69 70  2  0
 70 71  1  0
 71 72  2  0
 72  2  1  0
 66 62  1  0
 72 67  1  0
M  END
>  <Title>  (263) 
idAAIEgen13

$$$$

     RDKit          2D

 12 13  0  0  0  0  0  0  0  0999 V2000
   -4.3786   -5.1199    0.0000 C   0  0  0  0  0  0  0  0  0  0  0  0
   -2.9520   -4.6564    0.0000 C   0  0  0  0  0  0  0  0  0  0  0  0
   -2.6401   -3.1891    0.0000 C   0  0  0  0  0  0  0  0  0  0  0  0
   -1.2135   -2.7256    0.0000 C   0  0  0  0  0  0  0  0  0  0  0  0
   -0.0000   -3.6073    0.0000 C   0  0  0  0  0  0  0  0  0  0  0  0
    1.2135   -2.7256    0.0000 C   0  0  0  0  0  0  0  0  0  0  0  0
    0.7500   -1.2990    0.0000 C   0  0  0  0  0  0  0  0  0  0  0  0
    1.5000    0.0000    0.0000 C   0  0  0  0  0  0  0  0  0  0  0  0
    0.7500    1.2990    0.0000 C   0  0  0  0  0  0  0  0  0  0  0  0
   -0.7500    1.2990    0.0000 C   0  0  0  0  0  0  0  0  0  0  0  0
   -1.5000    0.0000    0.0000 C   0  0  0  0  0  0  0  0  0  0  0  0
   -0.7500   -1.2990    0.0000 C   0  0  0  0  0  0  0  0  0  0  0  0
  1  2  1  0
  2  3  1  0
  3  4  1  0
  4  5  1  0
  5  6  1  0
  6  7  1  0
  7  8  2  0
  8  9  1  0
  9 10  2  0
 10 11  1  0
 11 12  2  0
 12  4  1  0
 12  7  1  0
M  END
>  <Title>  (264) 
idAAIFgen13

$$$$

     RDKit          2D

 31 35  0  0  0  0  0  0  0  0999 V2000
   -3.0000   -2.5981    0.0000 C   0  0  0  0  0  0  0  0  0  0  0  0
   -1.5000   -2.5981    0.0000 C   0  0  0  0  0  0  0  0  0  0  0  0
   -0.7500   -3.8971    0.0000 C   0  0  0  0  0  0  0  0  0  0  0  0
    0.7500   -3.8971    0.0000 C   0  0  0  0  0  0  0  0  0  0  0  0
    1.5000   -2.5981    0.0000 C   0  0  0  0  0  0  0  0  0  0  0  0
    3.0000   -2.5981    0.0000 C   0  0  0  0  0  0  0  0  0  0  0  0
    3.7500   -1.2990    0.0000 O   0  0  0  0  0  0  0  0  0  0  0  0
    3.7500   -3.8971    0.0000 N   0  0  0  0  0  0  0  0  0  0  0  0
    5.2500   -3.8971    0.0000 C   0  0  0  0  0  0  0  0  0  0  0  0
    6.1317   -2.6836    0.0000 N   0  0  0  0  0  0  0  0  0  0  0  0
    7.5583   -3.1471    0.0000 N   0  0  0  0  0  0  0  0  0  0  0  0
    7.5583   -4.6471    0.0000 N   0  0  0  0  0  0  0  0  0  0  0  0
    6.1317   -5.1106    0.0000 N   0  0  0  0  0  0  0  0  0  0  0  0
    5.6682   -6.5372    0.0000 N   0  0  0  0  0  0  0  0  0  0  0  0
    6.5498   -7.7508    0.0000 C   0  0  0  0  0  0  0  0  0  0  0  0
    5.6682   -8.9643    0.0000 C   0  0  0  0  0  0  0  0  0  0  0  0
    4.2416   -8.5008    0.0000 C   0  0  0  0  0  0  0  0  0  0  0  0
    3.0280   -9.3824    0.0000 C   0  0  0  0  0  0  0  0  0  0  0  0
    1.6577   -8.7723    0.0000 C   0  0  0  0  0  0  0  0  0  0  0  0
    0.4442   -9.6540    0.0000 C   0  0  0  0  0  0  0  0  0  0  0  0
    0.6010  -11.1458    0.0000 C   0  0  0  0  0  0  0  0  0  0  0  0
    1.9713  -11.7559    0.0000 C   0  0  0  0  0  0  0  0  0  0  0  0
    3.1848  -10.8742    0.0000 C   0  0  0  0  0  0  0  0  0  0  0  0
    4.2416   -7.0008    0.0000 C   0  0  0  0  0  0  0  0  0  0  0  0
    3.0280   -6.1191    0.0000 O   0  0  0  0  0  0  0  0  0  0  0  0
    0.7500   -1.2990    0.0000 C   0  0  0  0  0  0  0  0  0  0  0  0
    1.5000    0.0000    0.0000 C   0  0  0  0  0  0  0  0  0  0  0  0
    0.7500    1.2990    0.0000 C   0  0  0  0  0  0  0  0  0  0  0  0
   -0.7500    1.2990    0.0000 C   0  0  0  0  0  0  0  0  0  0  0  0
   -1.5000    0.0000    0.0000 C   0  0  0  0  0  0  0  0  0  0  0  0
   -0.7500   -1.2990    0.0000 C   0  0  0  0  0  0  0  0  0  0  0  0
  1  2  1  0
  2  3  1  0
  3  4  2  0
  4  5  1  0
  5  6  1  0
  6  7  2  0
  6  8  1  0
  8  9  1  0
  9 10  2  0
 10 11  1  0
 11 12  2  0
 12 13  1  0
 13 14  1  0
 14 15  1  0
 15 16  1  0
 16 17  1  0
 17 18  1  0
 18 19  2  0
 19 20  1  0
 20 21  2  0
 21 22  1  0
 22 23  2  0
 17 24  1  0
 24 25  2  0
  5 26  1  0
 26 27  2  0
 27 28  1  0
 28 29  2  0
 29 30  1  0
 30 31  2  0
 31  2  1  0
 13  9  1  0
 24 14  1  0
 31 26  1  0
 23 18  1  0
M  END
>  <Title>  (265) 
idAAIGgen13

$$$$

     RDKit          2D

 47 53  0  0  0  0  0  0  0  0999 V2000
    1.2135   -7.3421    0.0000 C   0  0  0  0  0  0  0  0  0  0  0  0
    0.7500   -5.9156    0.0000 C   0  0  0  0  0  0  0  0  0  0  0  0
    1.9635   -5.0339    0.0000 C   0  0  0  0  0  0  0  0  0  0  0  0
    2.4271   -3.6073    0.0000 C   0  0  0  0  0  0  0  0  0  0  0  0
    1.9635   -2.1807    0.0000 C   0  0  0  0  0  0  0  0  0  0  0  0
    3.1771   -1.2990    0.0000 C   0  0  0  0  0  0  0  0  0  0  0  0
    3.0203    0.1927    0.0000 O   0  0  0  0  0  0  0  0  0  0  0  0
    4.5474   -1.9091    0.0000 N   0  0  0  0  0  0  0  0  0  0  0  0
    5.7609   -1.0275    0.0000 C   0  0  0  0  0  0  0  0  0  0  0  0
    5.7609    0.4725    0.0000 N   0  0  0  0  0  0  0  0  0  0  0  0
    7.1875    0.9361    0.0000 N   0  0  0  0  0  0  0  0  0  0  0  0
    8.0692   -0.2775    0.0000 N   0  0  0  0  0  0  0  0  0  0  0  0
    7.1875   -1.4910    0.0000 N   0  0  0  0  0  0  0  0  0  0  0  0
    7.6510   -2.9176    0.0000 C   0  0  0  0  0  0  0  0  0  0  0  0
    9.0776   -3.3811    0.0000 C   0  0  0  0  0  0  0  0  0  0  0  0
    9.0776   -4.8811    0.0000 C   0  0  0  0  0  0  0  0  0  0  0  0
    7.6510   -5.3446    0.0000 C   0  0  0  0  0  0  0  0  0  0  0  0
    7.1875   -6.7712    0.0000 O   0  0  0  0  0  0  0  0  0  0  0  0
    5.7203   -7.0831    0.0000 C   0  0  0  0  0  0  0  0  0  0  0  0
    4.7166   -5.9684    0.0000 O   0  0  0  0  0  0  0  0  0  0  0  0
    5.2567   -8.5097    0.0000 N   0  0  0  0  0  0  0  0  0  0  0  0
    6.2604   -9.6244    0.0000 C   0  0  0  0  0  0  0  0  0  0  0  0
    5.7969  -11.0510    0.0000 N   0  0  0  0  0  0  0  0  0  0  0  0
    6.8006  -12.1657    0.0000 N   0  0  0  0  0  0  0  0  0  0  0  0
    8.2678  -11.8538    0.0000 N   0  0  0  0  0  0  0  0  0  0  0  0
    8.7313  -10.4272    0.0000 N   0  0  0  0  0  0  0  0  0  0  0  0
    7.7276   -9.3125    0.0000 N   0  0  0  0  0  0  0  0  0  0  0  0
    6.7693   -4.1311    0.0000 C   0  0  0  0  0  0  0  0  0  0  0  0
    5.2693   -4.1311    0.0000 O   0  0  0  0  0  0  0  0  0  0  0  0
    0.7500   -1.2990    0.0000 C   0  0  0  0  0  0  0  0  0  0  0  0
    1.5000    0.0000    0.0000 C   0  0  0  0  0  0  0  0  0  0  0  0
    0.7500    1.2990    0.0000 C   0  0  0  0  0  0  0  0  0  0  0  0
   -0.7500    1.2990    0.0000 C   0  0  0  0  0  0  0  0  0  0  0  0
   -1.5000    0.0000    0.0000 C   0  0  0  0  0  0  0  0  0  0  0  0
   -0.7500   -1.2990    0.0000 C   0  0  0  0  0  0  0  0  0  0  0  0
   -1.9635   -2.1807    0.0000 C   0  0  0  0  0  0  0  0  0  0  0  0
   -2.9672   -1.0660    0.0000 C   0  0  0  0  0  0  0  0  0  0  0  0
   -4.4344   -1.3779    0.0000 C   0  0  0  0  0  0  0  0  0  0  0  0
   -4.8980   -2.8045    0.0000 C   0  0  0  0  0  0  0  0  0  0  0  0
   -3.8943   -3.9192    0.0000 C   0  0  0  0  0  0  0  0  0  0  0  0
   -2.4271   -3.6073    0.0000 C   0  0  0  0  0  0  0  0  0  0  0  0
   -1.9635   -5.0339    0.0000 C   0  0  0  0  0  0  0  0  0  0  0  0
   -3.3338   -5.6440    0.0000 C   0  0  0  0  0  0  0  0  0  0  0  0
   -3.4906   -7.1358    0.0000 C   0  0  0  0  0  0  0  0  0  0  0  0
   -2.2771   -8.0175    0.0000 C   0  0  0  0  0  0  0  0  0  0  0  0
   -0.9068   -7.4073    0.0000 C   0  0  0  0  0  0  0  0  0  0  0  0
   -0.7500   -5.9156    0.0000 C   0  0  0  0  0  0  0  0  0  0  0  0
  1  2  1  0
  2  3  1  0
  3  4  2  0
  4  5  1  0
  5  6  1  0
  6  7  2  0
  6  8  1  0
  8  9  1  0
  9 10  2  0
 10 11  1  0
 11 12  2  0
 12 13  1  0
 13 14  1  0
 14 15  2  0
 15 16  1  0
 16 17  2  0
 17 18  1  0
 18 19  1  0
 19 20  2  0
 19 21  1  0
 21 22  1  0
 22 23  2  0
 23 24  1  0
 24 25  2  0
 25 26  1  0
 26 27  2  0
 17 28  1  0
 28 29  2  0
  5 30  1  0
 30 31  2  0
 31 32  1  0
 32 33  2  0
 33 34  1  0
 34 35  2  0
 35 36  1  0
 36 37  2  0
 37 38  1  0
 38 39  2  0
 39 40  1  0
 40 41  2  0
 41 42  1  0
 42 43  2  0
 43 44  1  0
 44 45  2  0
 45 46  1  0
 46 47  2  0
 47  2  1  0
 13  9  1  0
 28 14  1  0
 35 30  1  0
 41 36  1  0
 47 42  1  0
 27 22  1  0
M  END
>  <Title>  (266) 
idAAIHgen13

$$$$

     RDKit          2D

 94 96  0  0  0  0  0  0  0  0999 V2000
   -5.5766   -0.5106    0.0000 C   0  0  0  0  0  0  0  0  0  0  0  0
   -5.1928   -1.9607    0.0000 C   0  0  0  0  0  0  0  0  0  0  0  0
   -6.6277   -2.3978    0.0000 C   0  0  0  0  0  0  0  0  0  0  0  0
   -8.0264   -2.9396    0.0000 C   0  0  0  0  0  0  0  0  0  0  0  0
   -9.3813   -3.5833    0.0000 C   0  0  0  0  0  0  0  0  0  0  0  0
  -10.6849   -4.3253    0.0000 C   0  0  0  0  0  0  0  0  0  0  0  0
  -11.9302   -5.1615    0.0000 C   0  0  0  0  0  0  0  0  0  0  0  0
  -13.1103   -6.0875    0.0000 C   0  0  0  0  0  0  0  0  0  0  0  0
  -14.2188   -7.0980    0.0000 C   0  0  0  0  0  0  0  0  0  0  0  0
  -15.2497   -8.1876    0.0000 C   0  0  0  0  0  0  0  0  0  0  0  0
  -16.1973   -9.3505    0.0000 C   0  0  0  0  0  0  0  0  0  0  0  0
  -17.0564  -10.5801    0.0000 C   0  0  0  0  0  0  0  0  0  0  0  0
  -17.8223  -11.8698    0.0000 C   0  0  0  0  0  0  0  0  0  0  0  0
  -18.4909  -13.2125    0.0000 C   0  0  0  0  0  0  0  0  0  0  0  0
  -19.0585  -14.6010    0.0000 C   0  0  0  0  0  0  0  0  0  0  0  0
  -19.5221  -16.0275    0.0000 C   0  0  0  0  0  0  0  0  0  0  0  0
  -19.8790  -17.4845    0.0000 C   0  0  0  0  0  0  0  0  0  0  0  0
  -20.1273  -18.9638    0.0000 C   0  0  0  0  0  0  0  0  0  0  0  0
  -20.2657  -20.4574    0.0000 C   0  0  0  0  0  0  0  0  0  0  0  0
  -20.2934  -21.9571    0.0000 C   0  0  0  0  0  0  0  0  0  0  0  0
  -20.2103  -23.4548    0.0000 C   0  0  0  0  0  0  0  0  0  0  0  0
  -20.0168  -24.9423    0.0000 C   0  0  0  0  0  0  0  0  0  0  0  0
  -19.7140  -26.4114    0.0000 C   0  0  0  0  0  0  0  0  0  0  0  0
  -19.3035  -27.8541    0.0000 C   0  0  0  0  0  0  0  0  0  0  0  0
  -18.7876  -29.2626    0.0000 C   0  0  0  0  0  0  0  0  0  0  0  0
  -18.1690  -30.6291    0.0000 C   0  0  0  0  0  0  0  0  0  0  0  0
  -17.4513  -31.9463    0.0000 C   0  0  0  0  0  0  0  0  0  0  0  0
  -16.6382  -33.2068    0.0000 C   0  0  0  0  0  0  0  0  0  0  0  0
  -15.7342  -34.4038    0.0000 C   0  0  0  0  0  0  0  0  0  0  0  0
  -14.7443  -35.5308    0.0000 C   0  0  0  0  0  0  0  0  0  0  0  0
  -13.6739  -36.5816    0.0000 C   0  0  0  0  0  0  0  0  0  0  0  0
  -12.5288  -37.5505    0.0000 C   0  0  0  0  0  0  0  0  0  0  0  0
  -11.3153  -38.4322    0.0000 C   0  0  0  0  0  0  0  0  0  0  0  0
  -10.0400  -39.2218    0.0000 C   0  0  0  0  0  0  0  0  0  0  0  0
   -8.7098  -39.9151    0.0000 C   0  0  0  0  0  0  0  0  0  0  0  0
   -7.3321  -40.5083    0.0000 C   0  0  0  0  0  0  0  0  0  0  0  0
   -5.9143  -40.9981    0.0000 C   0  0  0  0  0  0  0  0  0  0  0  0
   -4.4642  -41.3819    0.0000 C   0  0  0  0  0  0  0  0  0  0  0  0
   -2.9898  -41.6575    0.0000 C   0  0  0  0  0  0  0  0  0  0  0  0
   -1.4990  -41.8235    0.0000 C   0  0  0  0  0  0  0  0  0  0  0  0
   -0.0000  -41.8789    0.0000 C   0  0  0  0  0  0  0  0  0  0  0  0
    1.4990  -41.8235    0.0000 C   0  0  0  0  0  0  0  0  0  0  0  0
    2.9898  -41.6575    0.0000 C   0  0  0  0  0  0  0  0  0  0  0  0
    4.4642  -41.3819    0.0000 C   0  0  0  0  0  0  0  0  0  0  0  0
    5.9143  -40.9981    0.0000 C   0  0  0  0  0  0  0  0  0  0  0  0
    7.3321  -40.5083    0.0000 C   0  0  0  0  0  0  0  0  0  0  0  0
    8.7098  -39.9151    0.0000 C   0  0  0  0  0  0  0  0  0  0  0  0
   10.0400  -39.2218    0.0000 C   0  0  0  0  0  0  0  0  0  0  0  0
   11.3153  -38.4322    0.0000 C   0  0  0  0  0  0  0  0  0  0  0  0
   12.5288  -37.5505    0.0000 C   0  0  0  0  0  0  0  0  0  0  0  0
   13.6739  -36.5816    0.0000 C   0  0  0  0  0  0  0  0  0  0  0  0
   14.7443  -35.5308    0.0000 C   0  0  0  0  0  0  0  0  0  0  0  0
   15.7342  -34.4038    0.0000 C   0  0  0  0  0  0  0  0  0  0  0  0
   16.6382  -33.2068    0.0000 C   0  0  0  0  0  0  0  0  0  0  0  0
   17.4513  -31.9463    0.0000 C   0  0  0  0  0  0  0  0  0  0  0  0
   18.1690  -30.6291    0.0000 C   0  0  0  0  0  0  0  0  0  0  0  0
   18.7876  -29.2626    0.0000 C   0  0  0  0  0  0  0  0  0  0  0  0
   19.3035  -27.8541    0.0000 C   0  0  0  0  0  0  0  0  0  0  0  0
   19.7140  -26.4114    0.0000 C   0  0  0  0  0  0  0  0  0  0  0  0
   20.0168  -24.9423    0.0000 C   0  0  0  0  0  0  0  0  0  0  0  0
   20.2103  -23.4548    0.0000 C   0  0  0  0  0  0  0  0  0  0  0  0
   20.2934  -21.9571    0.0000 C   0  0  0  0  0  0  0  0  0  0  0  0
   20.2657  -20.4574    0.0000 C   0  0  0  0  0  0  0  0  0  0  0  0
   20.1273  -18.9638    0.0000 C   0  0  0  0  0  0  0  0  0  0  0  0
   19.8790  -17.4845    0.0000 C   0  0  0  0  0  0  0  0  0  0  0  0
   19.5221  -16.0275    0.0000 C   0  0  0  0  0  0  0  0  0  0  0  0
   19.0585  -14.6010    0.0000 C   0  0  0  0  0  0  0  0  0  0  0  0
   18.4909  -13.2125    0.0000 C   0  0  0  0  0  0  0  0  0  0  0  0
   17.8223  -11.8698    0.0000 C   0  0  0  0  0  0  0  0  0  0  0  0
   17.0564  -10.5801    0.0000 C   0  0  0  0  0  0  0  0  0  0  0  0
   16.1973   -9.3505    0.0000 C   0  0  0  0  0  0  0  0  0  0  0  0
   15.2497   -8.1876    0.0000 C   0  0  0  0  0  0  0  0  0  0  0  0
   14.2188   -7.0980    0.0000 C   0  0  0  0  0  0  0  0  0  0  0  0
   13.1103   -6.0875    0.0000 C   0  0  0  0  0  0  0  0  0  0  0  0
   11.9302   -5.1615    0.0000 C   0  0  0  0  0  0  0  0  0  0  0  0
   10.6849   -4.3253    0.0000 C   0  0  0  0  0  0  0  0  0  0  0  0
    9.3813   -3.5833    0.0000 C   0  0  0  0  0  0  0  0  0  0  0  0
    8.0264   -2.9396    0.0000 C   0  0  0  0  0  0  0  0  0  0  0  0
    6.6277   -2.3978    0.0000 C   0  0  0  0  0  0  0  0  0  0  0  0
    5.1928   -1.9607    0.0000 C   0  0  0  0  0  0  0  0  0  0  0  0
    3.7295   -1.6308    0.0000 C   0  0  0  0  0  0  0  0  0  0  0  0
    2.2459   -1.4098    0.0000 C   0  0  0  0  0  0  0  0  0  0  0  0
    0.7500   -1.2990    0.0000 C   0  0  0  0  0  0  0  0  0  0  0  0
    1.5000    0.0000    0.0000 C   0  0  0  0  0  0  0  0  0  0  0  0
    0.7500    1.2990    0.0000 C   0  0  0  0  0  0  0  0  0  0  0  0
   -0.7500    1.2990    0.0000 C   0  0  0  0  0  0  0  0  0  0  0  0
   -1.5000    0.0000    0.0000 C   0  0  0  0  0  0  0  0  0  0  0  0
   -0.7500   -1.2990    0.0000 C   0  0  0  0  0  0  0  0  0  0  0  0
   -2.2459   -1.4098    0.0000 C   0  0  0  0  0  0  0  0  0  0  0  0
   -1.3127   -2.5842    0.0000 C   0  0  0  0  0  0  0  0  0  0  0  0
   -1.8632   -3.9796    0.0000 C   0  0  0  0  0  0  0  0  0  0  0  0
   -3.3468   -4.2005    0.0000 C   0  0  0  0  0  0  0  0  0  0  0  0
   -4.2800   -3.0261    0.0000 C   0  0  0  0  0  0  0  0  0  0  0  0
   -3.7295   -1.6308    0.0000 C   0  0  0  0  0  0  0  0  0  0  0  0
  1  2  1  0
  2  3  1  0
  3  4  1  0
  4  5  1  0
  5  6  1  0
  6  7  1  0
  7  8  1  0
  8  9  1  0
  9 10  1  0
 10 11  1  0
 11 12  1  0
 12 13  1  0
 13 14  1  0
 14 15  1  0
 15 16  1  0
 16 17  1  0
 17 18  1  0
 18 19  1  0
 19 20  1  0
 20 21  1  0
 21 22  1  0
 22 23  1  0
 23 24  1  0
 24 25  1  0
 25 26  1  0
 26 27  1  0
 27 28  1  0
 28 29  1  0
 29 30  1  0
 30 31  1  0
 31 32  1  0
 32 33  1  0
 33 34  1  0
 34 35  1  0
 35 36  1  0
 36 37  1  0
 37 38  1  0
 38 39  1  0
 39 40  1  0
 40 41  1  0
 41 42  1  0
 42 43  1  0
 43 44  1  0
 44 45  1  0
 45 46  1  0
 46 47  1  0
 47 48  1  0
 48 49  1  0
 49 50  1  0
 50 51  1  0
 51 52  1  0
 52 53  1  0
 53 54  1  0
 54 55  1  0
 55 56  1  0
 56 57  1  0
 57 58  1  0
 58 59  1  0
 59 60  1  0
 60 61  1  0
 61 62  1  0
 62 63  1  0
 63 64  1  0
 64 65  1  0
 65 66  1  0
 66 67  1  0
 67 68  1  0
 68 69  1  0
 69 70  1  0
 70 71  1  0
 71 72  1  0
 72 73  1  0
 73 74  1  0
 74 75  1  0
 75 76  1  0
 76 77  1  0
 77 78  1  0
 78 79  1  0
 79 80  1  0
 80 81  1  0
 81 82  1  0
 82 83  1  0
 83 84  1  0
 84 85  1  0
 85 86  1  0
 86 87  1  0
 87 88  1  0
 88 89  1  0
 89 90  2  0
 90 91  1  0
 91 92  2  0
 92 93  1  0
 93 94  2  0
 94  2  1  0
 88 83  1  0
 94 89  1  0
M  END
>  <Title>  (267) 
idAAIIgen13

$$$$

     RDKit          2D

  8  7  0  0  0  0  0  0  0  0999 V2000
    0.0000    0.0000    0.0000 C   0  0  0  0  0  0  0  0  0  0  0  0
   -0.0000   -1.5000    0.0000 C   0  0  0  0  0  0  0  0  0  0  0  0
   -0.0000   -3.0000    0.0000 C   0  0  0  0  0  0  0  0  0  0  0  0
    1.2990   -3.7500    0.0000 C   0  0  0  0  0  0  0  0  0  0  0  0
    1.2990   -5.2500    0.0000 C   0  0  0  0  0  0  0  0  0  0  0  0
    2.5981   -6.0000    0.0000 C   0  0  0  0  0  0  0  0  0  0  0  0
    2.5981   -7.5000    0.0000 C   0  0  0  0  0  0  0  0  0  0  0  0
    3.8971   -5.2500    0.0000 C   0  0  0  0  0  0  0  0  0  0  0  0
  1  2  3  0
  2  3  1  0
  3  4  1  0
  4  5  1  0
  5  6  1  0
  6  7  1  0
  6  8  1  0
M  END
>  <Title>  (268) 
idAAIJgen13

$$$$

     RDKit          2D

 94 96  0  0  0  0  0  0  0  0999 V2000
    4.5723   -7.4458    0.0000 C   0  0  0  0  0  0  0  0  0  0  0  0
    6.0707   -7.3763    0.0000 C   0  0  0  0  0  0  0  0  0  0  0  0
    6.2173   -8.8691    0.0000 C   0  0  0  0  0  0  0  0  0  0  0  0
    6.5165  -10.3389    0.0000 C   0  0  0  0  0  0  0  0  0  0  0  0
    6.9654  -11.7702    0.0000 C   0  0  0  0  0  0  0  0  0  0  0  0
    7.5589  -13.1478    0.0000 C   0  0  0  0  0  0  0  0  0  0  0  0
    8.2910  -14.4570    0.0000 C   0  0  0  0  0  0  0  0  0  0  0  0
    9.1539  -15.6840    0.0000 C   0  0  0  0  0  0  0  0  0  0  0  0
   10.1383  -16.8158    0.0000 C   0  0  0  0  0  0  0  0  0  0  0  0
   11.2338  -17.8403    0.0000 C   0  0  0  0  0  0  0  0  0  0  0  0
   12.4289  -18.7468    0.0000 C   0  0  0  0  0  0  0  0  0  0  0  0
   13.7109  -19.5256    0.0000 C   0  0  0  0  0  0  0  0  0  0  0  0
   15.0662  -20.1685    0.0000 C   0  0  0  0  0  0  0  0  0  0  0  0
   16.4804  -20.6686    0.0000 C   0  0  0  0  0  0  0  0  0  0  0  0
   17.9385  -21.0206    0.0000 C   0  0  0  0  0  0  0  0  0  0  0  0
   19.4250  -21.2209    0.0000 C   0  0  0  0  0  0  0  0  0  0  0  0
   20.9243  -21.2672    0.0000 C   0  0  0  0  0  0  0  0  0  0  0  0
   22.4204  -21.1592    0.0000 C   0  0  0  0  0  0  0  0  0  0  0  0
   23.8975  -20.8979    0.0000 C   0  0  0  0  0  0  0  0  0  0  0  0
   25.3398  -20.4861    0.0000 C   0  0  0  0  0  0  0  0  0  0  0  0
   26.7322  -19.9281    0.0000 C   0  0  0  0  0  0  0  0  0  0  0  0
   28.0599  -19.2300    0.0000 C   0  0  0  0  0  0  0  0  0  0  0  0
   29.3087  -18.3990    0.0000 C   0  0  0  0  0  0  0  0  0  0  0  0
   30.4654  -17.4441    0.0000 C   0  0  0  0  0  0  0  0  0  0  0  0
   31.5179  -16.3753    0.0000 C   0  0  0  0  0  0  0  0  0  0  0  0
   32.4548  -15.2039    0.0000 C   0  0  0  0  0  0  0  0  0  0  0  0
   33.2664  -13.9424    0.0000 C   0  0  0  0  0  0  0  0  0  0  0  0
   33.9439  -12.6041    0.0000 C   0  0  0  0  0  0  0  0  0  0  0  0
   34.4803  -11.2033    0.0000 C   0  0  0  0  0  0  0  0  0  0  0  0
   34.8697   -9.7548    0.0000 C   0  0  0  0  0  0  0  0  0  0  0  0
   35.1082   -8.2738    0.0000 C   0  0  0  0  0  0  0  0  0  0  0  0
   35.1931   -6.7762    0.0000 C   0  0  0  0  0  0  0  0  0  0  0  0
   35.1236   -5.2779    0.0000 C   0  0  0  0  0  0  0  0  0  0  0  0
   34.9004   -3.7946    0.0000 C   0  0  0  0  0  0  0  0  0  0  0  0
   34.5259   -2.3421    0.0000 C   0  0  0  0  0  0  0  0  0  0  0  0
   34.0040   -0.9358    0.0000 C   0  0  0  0  0  0  0  0  0  0  0  0
   33.3403    0.4094    0.0000 C   0  0  0  0  0  0  0  0  0  0  0  0
   32.5418    1.6792    0.0000 C   0  0  0  0  0  0  0  0  0  0  0  0
   31.6169    2.8601    0.0000 C   0  0  0  0  0  0  0  0  0  0  0  0
   30.5756    3.9397    0.0000 C   0  0  0  0  0  0  0  0  0  0  0  0
   29.4287    4.9066    0.0000 C   0  0  0  0  0  0  0  0  0  0  0  0
   28.1885    5.7503    0.0000 C   0  0  0  0  0  0  0  0  0  0  0  0
   26.8681    6.4621    0.0000 C   0  0  0  0  0  0  0  0  0  0  0  0
   25.4816    7.0343    0.0000 C   0  0  0  0  0  0  0  0  0  0  0  0
   24.0435    7.4610    0.0000 C   0  0  0  0  0  0  0  0  0  0  0  0
   22.5692    7.7375    0.0000 C   0  0  0  0  0  0  0  0  0  0  0  0
   21.0743    7.8610    0.0000 C   0  0  0  0  0  0  0  0  0  0  0  0
   19.5747    7.8301    0.0000 C   0  0  0  0  0  0  0  0  0  0  0  0
   18.0861    7.6451    0.0000 C   0  0  0  0  0  0  0  0  0  0  0  0
   16.6244    7.3081    0.0000 C   0  0  0  0  0  0  0  0  0  0  0  0
   15.2052    6.8226    0.0000 C   0  0  0  0  0  0  0  0  0  0  0  0
   13.8434    6.1937    0.0000 C   0  0  0  0  0  0  0  0  0  0  0  0
   12.5534    5.4282    0.0000 C   0  0  0  0  0  0  0  0  0  0  0  0
   11.3491    4.5340    0.0000 C   0  0  0  0  0  0  0  0  0  0  0  0
   10.2430    3.5208    0.0000 C   0  0  0  0  0  0  0  0  0  0  0  0
    9.2470    2.3992    0.0000 C   0  0  0  0  0  0  0  0  0  0  0  0
    8.3716    1.1812    0.0000 C   0  0  0  0  0  0  0  0  0  0  0  0
    7.6260   -0.1204    0.0000 C   0  0  0  0  0  0  0  0  0  0  0  0
    7.0183   -1.4918    0.0000 C   0  0  0  0  0  0  0  0  0  0  0  0
    6.4751   -0.0000    0.0000 C   0  0  0  0  0  0  0  0  0  0  0  0
    6.3336    1.3462    0.0000 C   0  0  0  0  0  0  0  0  0  0  0  0
    5.9153    2.6337    0.0000 C   0  0  0  0  0  0  0  0  0  0  0  0
    5.2384    3.8060    0.0000 C   0  0  0  0  0  0  0  0  0  0  0  0
    4.3327    4.8119    0.0000 C   0  0  0  0  0  0  0  0  0  0  0  0
    3.2375    5.6076    0.0000 C   0  0  0  0  0  0  0  0  0  0  0  0
    2.0009    6.1582    0.0000 C   0  0  0  0  0  0  0  0  0  0  0  0
    0.6768    6.4396    0.0000 C   0  0  0  0  0  0  0  0  0  0  0  0
   -0.6768    6.4396    0.0000 C   0  0  0  0  0  0  0  0  0  0  0  0
   -2.0009    6.1582    0.0000 C   0  0  0  0  0  0  0  0  0  0  0  0
   -3.2375    5.6076    0.0000 C   0  0  0  0  0  0  0  0  0  0  0  0
   -4.3327    4.8119    0.0000 C   0  0  0  0  0  0  0  0  0  0  0  0
   -5.2384    3.8060    0.0000 C   0  0  0  0  0  0  0  0  0  0  0  0
   -5.9153    2.6337    0.0000 C   0  0  0  0  0  0  0  0  0  0  0  0
   -6.3336    1.3462    0.0000 C   0  0  0  0  0  0  0  0  0  0  0  0
   -6.4751    0.0000    0.0000 C   0  0  0  0  0  0  0  0  0  0  0  0
   -6.3336   -1.3462    0.0000 C   0  0  0  0  0  0  0  0  0  0  0  0
   -5.9153   -2.6337    0.0000 C   0  0  0  0  0  0  0  0  0  0  0  0
   -5.2384   -3.8060    0.0000 C   0  0  0  0  0  0  0  0  0  0  0  0
   -4.3327   -4.8119    0.0000 C   0  0  0  0  0  0  0  0  0  0  0  0
   -3.2375   -5.6076    0.0000 C   0  0  0  0  0  0  0  0  0  0  0  0
   -2.0009   -6.1582    0.0000 C   0  0  0  0  0  0  0  0  0  0  0  0
   -0.6768   -6.4396    0.0000 C   0  0  0  0  0  0  0  0  0  0  0  0
    0.6768   -6.4396    0.0000 C   0  0  0  0  0  0  0  0  0  0  0  0
    2.0009   -6.1582    0.0000 C   0  0  0  0  0  0  0  0  0  0  0  0
    3.2375   -5.6076    0.0000 C   0  0  0  0  0  0  0  0  0  0  0  0
    4.3327   -4.8119    0.0000 C   0  0  0  0  0  0  0  0  0  0  0  0
    5.2384   -3.8060    0.0000 C   0  0  0  0  0  0  0  0  0  0  0  0
    6.5548   -2.9184    0.0000 C   0  0  0  0  0  0  0  0  0  0  0  0
    6.2404   -4.3851    0.0000 C   0  0  0  0  0  0  0  0  0  0  0  0
    7.6128   -3.7797    0.0000 C   0  0  0  0  0  0  0  0  0  0  0  0
    8.8233   -4.6655    0.0000 C   0  0  0  0  0  0  0  0  0  0  0  0
    8.6614   -6.1567    0.0000 C   0  0  0  0  0  0  0  0  0  0  0  0
    7.2890   -6.7621    0.0000 C   0  0  0  0  0  0  0  0  0  0  0  0
    6.0785   -5.8763    0.0000 C   0  0  0  0  0  0  0  0  0  0  0  0
  1  2  1  0
  2  3  1  0
  3  4  1  0
  4  5  1  0
  5  6  1  0
  6  7  1  0
  7  8  1  0
  8  9  1  0
  9 10  1  0
 10 11  1  0
 11 12  1  0
 12 13  1  0
 13 14  1  0
 14 15  1  0
 15 16  1  0
 16 17  1  0
 17 18  1  0
 18 19  1  0
 19 20  1  0
 20 21  1  0
 21 22  1  0
 22 23  1  0
 23 24  1  0
 24 25  1  0
 25 26  1  0
 26 27  1  0
 27 28  1  0
 28 29  1  0
 29 30  1  0
 30 31  1  0
 31 32  1  0
 32 33  1  0
 33 34  1  0
 34 35  1  0
 35 36  1  0
 36 37  1  0
 37 38  1  0
 38 39  1  0
 39 40  1  0
 40 41  1  0
 41 42  1  0
 42 43  1  0
 43 44  1  0
 44 45  1  0
 45 46  1  0
 46 47  1  0
 47 48  1  0
 48 49  1  0
 49 50  1  0
 50 51  1  0
 51 52  1  0
 52 53  1  0
 53 54  1  0
 54 55  1  0
 55 56  1  0
 56 57  1  0
 57 58  1  0
 58 59  1  0
 59 60  1  0
 60 61  1  0
 61 62  2  0
 62 63  1  0
 63 64  2  0
 64 65  1  0
 65 66  2  0
 66 67  1  0
 67 68  2  0
 68 69  1  0
 69 70  2  0
 70 71  1  0
 71 72  2  0
 72 73  1  0
 73 74  2  0
 74 75  1  0
 75 76  2  0
 76 77  1  0
 77 78  2  0
 78 79  1  0
 79 80  2  0
 80 81  1  0
 81 82  2  0
 82 83  1  0
 83 84  2  0
 84 85  1  0
 85 86  2  0
 86 87  1  0
 87 88  2  0
 88 89  1  0
 89 90  2  0
 90 91  1  0
 91 92  2  0
 92 93  1  0
 93 94  2  0
 94  2  1  0
 88 59  1  0
 94 89  1  0
M  END
>  <Title>  (269) 
idAAIKgen13

$$$$

     RDKit          2D

  5  4  0  0  0  0  0  0  0  0999 V2000
    0.0000    0.0000    0.0000 C   0  0  0  0  0  0  0  0  0  0  0  0
    1.2990    0.7500    0.0000 C   0  0  0  0  0  0  0  0  0  0  0  0
    2.5981   -0.0000    0.0000 C   0  0  0  0  0  0  0  0  0  0  0  0
    3.8971    0.7500    0.0000 C   0  0  0  0  0  0  0  0  0  0  0  0
    5.1962   -0.0000    0.0000 N   0  0  0  0  0  0  0  0  0  0  0  0
  1  2  2  0
  2  3  1  0
  3  4  1  0
  4  5  1  0
M  END
>  <Title>  (270) 
idAAILgen13

$$$$

     RDKit          2D

 77 79  0  0  0  0  0  0  0  0999 V2000
   -2.9453    5.2427    0.0000 C   0  0  0  0  0  0  0  0  0  0  0  0
   -1.6345    5.9720    0.0000 C   0  0  0  0  0  0  0  0  0  0  0  0
   -2.2976    7.3175    0.0000 C   0  0  0  0  0  0  0  0  0  0  0  0
   -2.8234    8.7224    0.0000 C   0  0  0  0  0  0  0  0  0  0  0  0
   -3.2067   10.1726    0.0000 C   0  0  0  0  0  0  0  0  0  0  0  0
   -3.4437   11.6537    0.0000 C   0  0  0  0  0  0  0  0  0  0  0  0
   -3.5320   13.1511    0.0000 C   0  0  0  0  0  0  0  0  0  0  0  0
   -3.4709   14.6499    0.0000 C   0  0  0  0  0  0  0  0  0  0  0  0
   -3.2607   16.1351    0.0000 C   0  0  0  0  0  0  0  0  0  0  0  0
   -2.9038   17.5920    0.0000 C   0  0  0  0  0  0  0  0  0  0  0  0
   -2.4036   19.0061    0.0000 C   0  0  0  0  0  0  0  0  0  0  0  0
   -1.7650   20.3634    0.0000 C   0  0  0  0  0  0  0  0  0  0  0  0
   -0.9945   21.6504    0.0000 C   0  0  0  0  0  0  0  0  0  0  0  0
   -0.0997   22.8543    0.0000 C   0  0  0  0  0  0  0  0  0  0  0  0
    0.9106   23.9631    0.0000 C   0  0  0  0  0  0  0  0  0  0  0  0
    2.0262   24.9657    0.0000 C   0  0  0  0  0  0  0  0  0  0  0  0
    3.2361   25.8524    0.0000 C   0  0  0  0  0  0  0  0  0  0  0  0
    4.5283   26.6141    0.0000 C   0  0  0  0  0  0  0  0  0  0  0  0
    5.8899   27.2434    0.0000 C   0  0  0  0  0  0  0  0  0  0  0  0
    7.3074   27.7340    0.0000 C   0  0  0  0  0  0  0  0  0  0  0  0
    8.7667   28.0810    0.0000 C   0  0  0  0  0  0  0  0  0  0  0  0
   10.2533   28.2810    0.0000 C   0  0  0  0  0  0  0  0  0  0  0  0
   11.7524   28.3320    0.0000 C   0  0  0  0  0  0  0  0  0  0  0  0
   13.2492   28.2335    0.0000 C   0  0  0  0  0  0  0  0  0  0  0  0
   14.7287   27.9864    0.0000 C   0  0  0  0  0  0  0  0  0  0  0  0
   16.1763   27.5933    0.0000 C   0  0  0  0  0  0  0  0  0  0  0  0
   17.5775   27.0579    0.0000 C   0  0  0  0  0  0  0  0  0  0  0  0
   18.9185   26.3858    0.0000 C   0  0  0  0  0  0  0  0  0  0  0  0
   20.1858   25.5834    0.0000 C   0  0  0  0  0  0  0  0  0  0  0  0
   21.3670   24.6588    0.0000 C   0  0  0  0  0  0  0  0  0  0  0  0
   22.4503   23.6213    0.0000 C   0  0  0  0  0  0  0  0  0  0  0  0
   23.4248   22.4810    0.0000 C   0  0  0  0  0  0  0  0  0  0  0  0
   24.2810   21.2493    0.0000 C   0  0  0  0  0  0  0  0  0  0  0  0
   25.0103   19.9386    0.0000 C   0  0  0  0  0  0  0  0  0  0  0  0
   25.6055   18.5617    0.0000 C   0  0  0  0  0  0  0  0  0  0  0  0
   26.0606   17.1324    0.0000 C   0  0  0  0  0  0  0  0  0  0  0  0
   26.3711   15.6649    0.0000 C   0  0  0  0  0  0  0  0  0  0  0  0
   26.5340   14.1738    0.0000 C   0  0  0  0  0  0  0  0  0  0  0  0
   26.5476   12.6738    0.0000 C   0  0  0  0  0  0  0  0  0  0  0  0
   26.4118   11.1800    0.0000 C   0  0  0  0  0  0  0  0  0  0  0  0
   26.1279    9.7071    0.0000 C   0  0  0  0  0  0  0  0  0  0  0  0
   25.6988    8.2698    0.0000 C   0  0  0  0  0  0  0  0  0  0  0  0
   25.1287    6.8823    0.0000 C   0  0  0  0  0  0  0  0  0  0  0  0
   24.4233    5.5586    0.0000 C   0  0  0  0  0  0  0  0  0  0  0  0
   23.5896    4.3116    0.0000 C   0  0  0  0  0  0  0  0  0  0  0  0
   22.6358    3.1538    0.0000 C   0  0  0  0  0  0  0  0  0  0  0  0
   21.5716    2.0968    0.0000 C   0  0  0  0  0  0  0  0  0  0  0  0
   20.4074    1.1510    0.0000 C   0  0  0  0  0  0  0  0  0  0  0  0
   19.1547    0.3257    0.0000 C   0  0  0  0  0  0  0  0  0  0  0  0
   17.8262   -0.3706    0.0000 C   0  0  0  0  0  0  0  0  0  0  0  0
   16.4349   -0.9313    0.0000 C   0  0  0  0  0  0  0  0  0  0  0  0
   14.9947   -1.3506    0.0000 C   0  0  0  0  0  0  0  0  0  0  0  0
   13.5199   -1.6245    0.0000 C   0  0  0  0  0  0  0  0  0  0  0  0
   12.0252   -1.7501    0.0000 C   0  0  0  0  0  0  0  0  0  0  0  0
   10.5254   -1.7263    0.0000 C   0  0  0  0  0  0  0  0  0  0  0  0
    9.0354   -1.5533    0.0000 C   0  0  0  0  0  0  0  0  0  0  0  0
    7.5700   -1.2328    0.0000 C   0  0  0  0  0  0  0  0  0  0  0  0
    6.1439   -0.7680    0.0000 C   0  0  0  0  0  0  0  0  0  0  0  0
    4.7711   -0.1635    0.0000 C   0  0  0  0  0  0  0  0  0  0  0  0
    3.4653    0.5747    0.0000 C   0  0  0  0  0  0  0  0  0  0  0  0
    2.2395    1.4392    0.0000 C   0  0  0  0  0  0  0  0  0  0  0  0
    2.6621    0.0000    0.0000 C   0  0  0  0  0  0  0  0  0  0  0  0
    2.2395   -1.4392    0.0000 C   0  0  0  0  0  0  0  0  0  0  0  0
    1.1059   -2.4215    0.0000 C   0  0  0  0  0  0  0  0  0  0  0  0
   -0.3789   -2.6350    0.0000 C   0  0  0  0  0  0  0  0  0  0  0  0
   -1.7433   -2.0119    0.0000 C   0  0  0  0  0  0  0  0  0  0  0  0
   -2.5543   -0.7500    0.0000 C   0  0  0  0  0  0  0  0  0  0  0  0
   -2.5543    0.7500    0.0000 C   0  0  0  0  0  0  0  0  0  0  0  0
   -1.7433    2.0119    0.0000 C   0  0  0  0  0  0  0  0  0  0  0  0
   -0.3789    2.6350    0.0000 C   0  0  0  0  0  0  0  0  0  0  0  0
    1.1059    2.4215    0.0000 C   0  0  0  0  0  0  0  0  0  0  0  0
    0.0757    3.5118    0.0000 C   0  0  0  0  0  0  0  0  0  0  0  0
    1.5623    3.7118    0.0000 C   0  0  0  0  0  0  0  0  0  0  0  0
    2.1324    5.0993    0.0000 C   0  0  0  0  0  0  0  0  0  0  0  0
    1.2159    6.2867    0.0000 C   0  0  0  0  0  0  0  0  0  0  0  0
   -0.2707    6.0867    0.0000 C   0  0  0  0  0  0  0  0  0  0  0  0
   -0.8408    4.6993    0.0000 C   0  0  0  0  0  0  0  0  0  0  0  0
  1  2  1  0
  2  3  1  0
  3  4  1  0
  4  5  1  0
  5  6  1  0
  6  7  1  0
  7  8  1  0
  8  9  1  0
  9 10  1  0
 10 11  1  0
 11 12  1  0
 12 13  1  0
 13 14  1  0
 14 15  1  0
 15 16  1  0
 16 17  1  0
 17 18  1  0
 18 19  1  0
 19 20  1  0
 20 21  1  0
 21 22  1  0
 22 23  1  0
 23 24  1  0
 24 25  1  0
 25 26  1  0
 26 27  1  0
 27 28  1  0
 28 29  1  0
 29 30  1  0
 30 31  1  0
 31 32  1  0
 32 33  1  0
 33 34  1  0
 34 35  1  0
 35 36  1  0
 36 37  1  0
 37 38  1  0
 38 39  1  0
 39 40  1  0
 40 41  1  0
 41 42  1  0
 42 43  1  0
 43 44  1  0
 44 45  1  0
 45 46  1  0
 46 47  1  0
 47 48  1  0
 48 49  1  0
 49 50  1  0
 50 51  1  0
 51 52  1  0
 52 53  1  0
 53 54  1  0
 54 55  1  0
 55 56  1  0
 56 57  1  0
 57 58  1  0
 58 59  1  0
 59 60  1  0
 60 61  1  0
 61 62  1  0
 62 63  2  0
 63 64  1  0
 64 65  2  0
 65 66  1  0
 66 67  2  0
 67 68  1  0
 68 69  2  0
 69 70  1  0
 70 71  2  0
 71 72  1  0
 72 73  2  0
 73 74  1  0
 74 75  2  0
 75 76  1  0
 76 77  2  0
 77  2  1  0
 71 61  1  0
 77 72  1  0
M  END
>  <Title>  (271) 
idAAIMgen13

$$$$

     RDKit          2D

 35 39  0  0  0  0  0  0  0  0999 V2000
   -1.7110    5.9853    0.0000 C   0  0  0  0  0  0  0  0  0  0  0  0
   -0.2487    5.6515    0.0000 C   0  0  0  0  0  0  0  0  0  0  0  0
    0.1935    4.2182    0.0000 C   0  0  0  0  0  0  0  0  0  0  0  0
    1.6559    3.8844    0.0000 C   0  0  0  0  0  0  0  0  0  0  0  0
    2.6761    4.9840    0.0000 C   0  0  0  0  0  0  0  0  0  0  0  0
    4.1385    4.6502    0.0000 C   0  0  0  0  0  0  0  0  0  0  0  0
    5.1588    5.7498    0.0000 O   0  0  0  0  0  0  0  0  0  0  0  0
    4.5807    3.2168    0.0000 N   0  0  0  0  0  0  0  0  0  0  0  0
    6.0430    2.8830    0.0000 C   0  0  0  0  0  0  0  0  0  0  0  0
    7.1727    3.8700    0.0000 N   0  0  0  0  0  0  0  0  0  0  0  0
    8.4603    3.1006    0.0000 N   0  0  0  0  0  0  0  0  0  0  0  0
    8.1265    1.6382    0.0000 N   0  0  0  0  0  0  0  0  0  0  0  0
    6.6326    1.5038    0.0000 N   0  0  0  0  0  0  0  0  0  0  0  0
    5.8632    0.2161    0.0000 N   0  0  0  0  0  0  0  0  0  0  0  0
    4.3693    0.0816    0.0000 C   0  0  0  0  0  0  0  0  0  0  0  0
    4.0355   -1.3808    0.0000 C   0  0  0  0  0  0  0  0  0  0  0  0
    5.3232   -2.1501    0.0000 N   0  0  0  0  0  0  0  0  0  0  0  0
    5.4576   -3.6441    0.0000 C   0  0  0  0  0  0  0  0  0  0  0  0
    6.8187   -4.2746    0.0000 O   0  0  0  0  0  0  0  0  0  0  0  0
    4.2310   -4.5075    0.0000 N   0  0  0  0  0  0  0  0  0  0  0  0
    4.3655   -6.0015    0.0000 C   0  0  0  0  0  0  0  0  0  0  0  0
    5.7265   -6.6320    0.0000 N   0  0  0  0  0  0  0  0  0  0  0  0
    5.8610   -8.1260    0.0000 N   0  0  0  0  0  0  0  0  0  0  0  0
    4.6344   -8.9894    0.0000 N   0  0  0  0  0  0  0  0  0  0  0  0
    3.2734   -8.3589    0.0000 N   0  0  0  0  0  0  0  0  0  0  0  0
    3.1389   -6.8649    0.0000 N   0  0  0  0  0  0  0  0  0  0  0  0
    6.4528   -1.1632    0.0000 C   0  0  0  0  0  0  0  0  0  0  0  0
    7.9152   -1.4970    0.0000 O   0  0  0  0  0  0  0  0  0  0  0  0
    2.2340    6.4173    0.0000 C   0  0  0  0  0  0  0  0  0  0  0  0
    3.4067    7.3526    0.0000 C   0  0  0  0  0  0  0  0  0  0  0  0
    3.4067    8.8526    0.0000 C   0  0  0  0  0  0  0  0  0  0  0  0
    2.2340    9.7878    0.0000 C   0  0  0  0  0  0  0  0  0  0  0  0
    0.7716    9.4540    0.0000 C   0  0  0  0  0  0  0  0  0  0  0  0
    0.1208    8.1026    0.0000 C   0  0  0  0  0  0  0  0  0  0  0  0
    0.7716    6.7511    0.0000 C   0  0  0  0  0  0  0  0  0  0  0  0
  1  2  1  0
  2  3  2  0
  3  4  1  0
  4  5  2  0
  5  6  1  0
  6  7  2  0
  6  8  1  0
  8  9  1  0
  9 10  2  0
 10 11  1  0
 11 12  2  0
 12 13  1  0
 13 14  1  0
 14 15  1  0
 15 16  1  0
 16 17  1  0
 17 18  1  0
 18 19  2  0
 18 20  1  0
 20 21  1  0
 21 22  2  0
 22 23  1  0
 23 24  2  0
 24 25  1  0
 25 26  2  0
 17 27  1  0
 27 28  2  0
  5 29  1  0
 29 30  2  0
 30 31  1  0
 31 32  2  0
 32 33  1  0
 33 34  2  0
 34 35  1  0
 35  2  1  0
 13  9  1  0
 27 14  1  0
 35 29  1  0
 26 21  1  0
M  END
>  <Title>  (272) 
idAAINgen13

$$$$

     RDKit          2D

 17 18  0  0  0  0  0  0  0  0999 V2000
   -9.3393   -5.8770    0.0000 C   0  0  0  0  0  0  0  0  0  0  0  0
   -8.2786   -4.8163    0.0000 C   0  0  0  0  0  0  0  0  0  0  0  0
   -6.8298   -5.2046    0.0000 C   0  0  0  0  0  0  0  0  0  0  0  0
   -5.7691   -4.1439    0.0000 C   0  0  0  0  0  0  0  0  0  0  0  0
   -4.3202   -4.5321    0.0000 C   0  0  0  0  0  0  0  0  0  0  0  0
   -3.9320   -5.9810    0.0000 O   0  0  0  0  0  0  0  0  0  0  0  0
   -3.2595   -3.4715    0.0000 N   0  0  0  0  0  0  0  0  0  0  0  0
   -1.8107   -3.8597    0.0000 C   0  0  0  0  0  0  0  0  0  0  0  0
   -1.4224   -5.3086    0.0000 O   0  0  0  0  0  0  0  0  0  0  0  0
   -0.7500   -2.7990    0.0000 C   0  0  0  0  0  0  0  0  0  0  0  0
    0.7500   -2.7990    0.0000 C   0  0  0  0  0  0  0  0  0  0  0  0
    0.7500   -1.2990    0.0000 C   0  0  0  0  0  0  0  0  0  0  0  0
    1.5000    0.0000    0.0000 C   0  0  0  0  0  0  0  0  0  0  0  0
    0.7500    1.2990    0.0000 C   0  0  0  0  0  0  0  0  0  0  0  0
   -0.7500    1.2990    0.0000 C   0  0  0  0  0  0  0  0  0  0  0  0
   -1.5000    0.0000    0.0000 C   0  0  0  0  0  0  0  0  0  0  0  0
   -0.7500   -1.2990    0.0000 C   0  0  0  0  0  0  0  0  0  0  0  0
  1  2  2  0
  2  3  1  0
  3  4  1  0
  4  5  1  0
  5  6  2  0
  5  7  1  0
  7  8  1  0
  8  9  2  0
  8 10  1  0
 10 11  1  0
 11 12  1  0
 12 13  2  0
 13 14  1  0
 14 15  2  0
 15 16  1  0
 16 17  2  0
 17 10  1  0
 17 12  1  0
M  END
>  <Title>  (273) 
idAAIOgen13

$$$$

     RDKit          2D

 14 15  0  0  0  0  0  0  0  0999 V2000
    5.0260    1.2990    0.0000 C   0  0  0  0  0  0  0  0  0  0  0  0
    3.5260    1.2990    0.0000 C   0  0  0  0  0  0  0  0  0  0  0  0
    2.7760    2.5981    0.0000 O   0  0  0  0  0  0  0  0  0  0  0  0
    2.7760    0.0000    0.0000 N   0  0  0  0  0  0  0  0  0  0  0  0
    1.2760    0.0000    0.0000 C   0  0  0  0  0  0  0  0  0  0  0  0
    0.3943    1.2135    0.0000 N   0  0  0  0  0  0  0  0  0  0  0  0
   -1.0323    0.7500    0.0000 N   0  0  0  0  0  0  0  0  0  0  0  0
   -1.0323   -0.7500    0.0000 N   0  0  0  0  0  0  0  0  0  0  0  0
    0.3943   -1.2135    0.0000 N   0  0  0  0  0  0  0  0  0  0  0  0
    0.8578   -2.6401    0.0000 C   0  0  0  0  0  0  0  0  0  0  0  0
   -0.0239   -3.8536    0.0000 C   0  0  0  0  0  0  0  0  0  0  0  0
    0.8578   -5.0672    0.0000 C   0  0  0  0  0  0  0  0  0  0  0  0
    2.2844   -4.6036    0.0000 C   0  0  0  0  0  0  0  0  0  0  0  0
    2.2844   -3.1036    0.0000 C   0  0  0  0  0  0  0  0  0  0  0  0
  1  2  1  0
  2  3  2  0
  2  4  1  0
  4  5  1  0
  5  6  2  0
  6  7  1  0
  7  8  2  0
  8  9  1  0
  9 10  1  0
 10 11  2  0
 11 12  1  0
 12 13  2  0
 13 14  1  0
  9  5  1  0
 14 10  1  0
M  END
>  <Title>  (274) 
idAAIPgen13

$$$$

     RDKit          2D

  5  4  0  0  0  0  0  0  0  0999 V2000
    0.0000    0.0000    0.0000 C   0  0  0  0  0  0  0  0  0  0  0  0
    1.2990    0.7500    0.0000 C   0  0  0  0  0  0  0  0  0  0  0  0
    2.5981   -0.0000    0.0000 C   0  0  0  0  0  0  0  0  0  0  0  0
    3.8971    0.7500    0.0000 C   0  0  0  0  0  0  0  0  0  0  0  0
    2.5981   -1.5000    0.0000 C   0  0  0  0  0  0  0  0  0  0  0  0
  1  2  1  0
  2  3  1  0
  3  4  1  0
  3  5  1  0
M  END
>  <Title>  (275) 
idAAIQgen13

$$$$

     RDKit          2D

 37 41  0  0  0  0  0  0  0  0999 V2000
   -3.1965   -1.7857    0.0000 C   0  0  0  0  0  0  0  0  0  0  0  0
   -1.8107   -2.3597    0.0000 C   0  0  0  0  0  0  0  0  0  0  0  0
   -1.8107   -3.8597    0.0000 C   0  0  0  0  0  0  0  0  0  0  0  0
   -0.7500   -4.9204    0.0000 C   0  0  0  0  0  0  0  0  0  0  0  0
    0.7500   -4.9204    0.0000 C   0  0  0  0  0  0  0  0  0  0  0  0
    1.3240   -6.3062    0.0000 C   0  0  0  0  0  0  0  0  0  0  0  0
    2.8112   -6.5020    0.0000 O   0  0  0  0  0  0  0  0  0  0  0  0
    0.4109   -7.4962    0.0000 N   0  0  0  0  0  0  0  0  0  0  0  0
    0.9849   -8.8820    0.0000 C   0  0  0  0  0  0  0  0  0  0  0  0
    2.4435   -9.2322    0.0000 N   0  0  0  0  0  0  0  0  0  0  0  0
    2.5612  -10.7276    0.0000 N   0  0  0  0  0  0  0  0  0  0  0  0
    1.1753  -11.3016    0.0000 N   0  0  0  0  0  0  0  0  0  0  0  0
    0.2012  -10.1610    0.0000 N   0  0  0  0  0  0  0  0  0  0  0  0
   -1.2942  -10.2787    0.0000 N   0  0  0  0  0  0  0  0  0  0  0  0
   -2.0780  -11.5576    0.0000 C   0  0  0  0  0  0  0  0  0  0  0  0
   -3.5365  -11.2075    0.0000 C   0  0  0  0  0  0  0  0  0  0  0  0
   -3.6542   -9.7121    0.0000 N   0  0  0  0  0  0  0  0  0  0  0  0
   -4.9332   -8.9283    0.0000 C   0  0  0  0  0  0  0  0  0  0  0  0
   -6.2514   -9.6441    0.0000 O   0  0  0  0  0  0  0  0  0  0  0  0
   -4.8939   -7.4289    0.0000 N   0  0  0  0  0  0  0  0  0  0  0  0
   -6.1729   -6.6451    0.0000 C   0  0  0  0  0  0  0  0  0  0  0  0
   -6.1336   -5.1456    0.0000 N   0  0  0  0  0  0  0  0  0  0  0  0
   -7.4126   -4.3619    0.0000 N   0  0  0  0  0  0  0  0  0  0  0  0
   -8.7308   -5.0776    0.0000 N   0  0  0  0  0  0  0  0  0  0  0  0
   -8.7700   -6.5771    0.0000 N   0  0  0  0  0  0  0  0  0  0  0  0
   -7.4911   -7.3608    0.0000 N   0  0  0  0  0  0  0  0  0  0  0  0
   -2.2684   -9.1381    0.0000 C   0  0  0  0  0  0  0  0  0  0  0  0
   -1.9182   -7.6795    0.0000 O   0  0  0  0  0  0  0  0  0  0  0  0
    1.8107   -3.8597    0.0000 C   0  0  0  0  0  0  0  0  0  0  0  0
    3.1965   -4.4337    0.0000 O   0  0  0  0  0  0  0  0  0  0  0  0
    1.8107   -2.3597    0.0000 O   0  0  0  0  0  0  0  0  0  0  0  0
    0.7500   -1.2990    0.0000 C   0  0  0  0  0  0  0  0  0  0  0  0
    1.5000    0.0000    0.0000 C   0  0  0  0  0  0  0  0  0  0  0  0
    0.7500    1.2990    0.0000 C   0  0  0  0  0  0  0  0  0  0  0  0
   -0.7500    1.2990    0.0000 C   0  0  0  0  0  0  0  0  0  0  0  0
   -1.5000    0.0000    0.0000 C   0  0  0  0  0  0  0  0  0  0  0  0
   -0.7500   -1.2990    0.0000 C   0  0  0  0  0  0  0  0  0  0  0  0
  1  2  1  0
  2  3  1  0
  3  4  2  0
  4  5  1  0
  5  6  1  0
  6  7  2  0
  6  8  1  0
  8  9  1  0
  9 10  2  0
 10 11  1  0
 11 12  2  0
 12 13  1  0
 13 14  1  0
 14 15  1  0
 15 16  1  0
 16 17  1  0
 17 18  1  0
 18 19  2  0
 18 20  1  0
 20 21  1  0
 21 22  2  0
 22 23  1  0
 23 24  2  0
 24 25  1  0
 25 26  2  0
 17 27  1  0
 27 28  2  0
  5 29  1  0
 29 30  2  0
 29 31  1  0
 31 32  1  0
 32 33  2  0
 33 34  1  0
 34 35  2  0
 35 36  1  0
 36 37  2  0
 37  2  1  0
 13  9  1  0
 27 14  1  0
 37 32  1  0
 26 21  1  0
M  END
>  <Title>  (276) 
idAAIRgen13

$$$$

     RDKit          2D

 40 45  0  0  0  0  0  0  0  0999 V2000
   -1.3240   -6.3062    0.0000 C   0  0  0  0  0  0  0  0  0  0  0  0
   -0.7500   -4.9204    0.0000 C   0  0  0  0  0  0  0  0  0  0  0  0
    0.7500   -4.9204    0.0000 C   0  0  0  0  0  0  0  0  0  0  0  0
    1.8107   -3.8597    0.0000 C   0  0  0  0  0  0  0  0  0  0  0  0
    1.8107   -2.3597    0.0000 C   0  0  0  0  0  0  0  0  0  0  0  0
    3.1965   -1.7857    0.0000 C   0  0  0  0  0  0  0  0  0  0  0  0
    3.3923   -0.2985    0.0000 O   0  0  0  0  0  0  0  0  0  0  0  0
    4.3865   -2.6988    0.0000 N   0  0  0  0  0  0  0  0  0  0  0  0
    5.7723   -2.1248    0.0000 C   0  0  0  0  0  0  0  0  0  0  0  0
    6.1225   -0.6662    0.0000 N   0  0  0  0  0  0  0  0  0  0  0  0
    7.6179   -0.5485    0.0000 N   0  0  0  0  0  0  0  0  0  0  0  0
    8.1919   -1.9344    0.0000 N   0  0  0  0  0  0  0  0  0  0  0  0
    7.0513   -2.9085    0.0000 N   0  0  0  0  0  0  0  0  0  0  0  0
    7.1690   -4.4039    0.0000 N   0  0  0  0  0  0  0  0  0  0  0  0
    8.4479   -5.1877    0.0000 C   0  0  0  0  0  0  0  0  0  0  0  0
    8.0978   -6.6462    0.0000 C   0  0  0  0  0  0  0  0  0  0  0  0
    6.6024   -6.7639    0.0000 N   0  0  0  0  0  0  0  0  0  0  0  0
    5.8186   -8.0429    0.0000 C   0  0  0  0  0  0  0  0  0  0  0  0
    6.5344   -9.3611    0.0000 O   0  0  0  0  0  0  0  0  0  0  0  0
    4.3192   -8.0036    0.0000 N   0  0  0  0  0  0  0  0  0  0  0  0
    3.5354   -9.2826    0.0000 C   0  0  0  0  0  0  0  0  0  0  0  0
    2.0359   -9.2433    0.0000 N   0  0  0  0  0  0  0  0  0  0  0  0
    1.2522  -10.5223    0.0000 N   0  0  0  0  0  0  0  0  0  0  0  0
    1.9679  -11.8405    0.0000 N   0  0  0  0  0  0  0  0  0  0  0  0
    3.4674  -11.8797    0.0000 N   0  0  0  0  0  0  0  0  0  0  0  0
    4.2512  -10.6008    0.0000 N   0  0  0  0  0  0  0  0  0  0  0  0
    6.0284   -5.3781    0.0000 C   0  0  0  0  0  0  0  0  0  0  0  0
    4.5698   -5.0279    0.0000 O   0  0  0  0  0  0  0  0  0  0  0  0
    0.7500   -1.2990    0.0000 C   0  0  0  0  0  0  0  0  0  0  0  0
    1.5000    0.0000    0.0000 C   0  0  0  0  0  0  0  0  0  0  0  0
    0.7500    1.2990    0.0000 C   0  0  0  0  0  0  0  0  0  0  0  0
   -0.7500    1.2990    0.0000 C   0  0  0  0  0  0  0  0  0  0  0  0
   -1.5000    0.0000    0.0000 C   0  0  0  0  0  0  0  0  0  0  0  0
   -0.7500   -1.2990    0.0000 C   0  0  0  0  0  0  0  0  0  0  0  0
   -1.8107   -2.3597    0.0000 C   0  0  0  0  0  0  0  0  0  0  0  0
   -3.1097   -1.6097    0.0000 C   0  0  0  0  0  0  0  0  0  0  0  0
   -4.4087   -2.3597    0.0000 C   0  0  0  0  0  0  0  0  0  0  0  0
   -4.4087   -3.8597    0.0000 C   0  0  0  0  0  0  0  0  0  0  0  0
   -3.1097   -4.6097    0.0000 C   0  0  0  0  0  0  0  0  0  0  0  0
   -1.8107   -3.8597    0.0000 C   0  0  0  0  0  0  0  0  0  0  0  0
  1  2  1  0
  2  3  2  0
  3  4  1  0
  4  5  2  0
  5  6  1  0
  6  7  2  0
  6  8  1  0
  8  9  1  0
  9 10  2  0
 10 11  1  0
 11 12  2  0
 12 13  1  0
 13 14  1  0
 14 15  1  0
 15 16  1  0
 16 17  1  0
 17 18  1  0
 18 19  2  0
 18 20  1  0
 20 21  1  0
 21 22  2  0
 22 23  1  0
 23 24  2  0
 24 25  1  0
 25 26  2  0
 17 27  1  0
 27 28  2  0
  5 29  1  0
 29 30  2  0
 30 31  1  0
 31 32  2  0
 32 33  1  0
 33 34  2  0
 34 35  1  0
 35 36  2  0
 36 37  1  0
 37 38  2  0
 38 39  1  0
 39 40  2  0
 40  2  1  0
 13  9  1  0
 27 14  1  0
 34 29  1  0
 40 35  1  0
 26 21  1  0
M  END
>  <Title>  (277) 
idAAISgen13

$$$$

     RDKit          2D

 50 56  0  0  0  0  0  0  0  0999 V2000
   -2.1535   -8.4451    0.0000 C   0  0  0  0  0  0  0  0  0  0  0  0
   -1.4564   -7.1169    0.0000 C   0  0  0  0  0  0  0  0  0  0  0  0
   -0.0000   -7.4758    0.0000 C   0  0  0  0  0  0  0  0  0  0  0  0
    1.4564   -7.1169    0.0000 C   0  0  0  0  0  0  0  0  0  0  0  0
    2.5792   -6.1222    0.0000 C   0  0  0  0  0  0  0  0  0  0  0  0
    3.1111   -4.7197    0.0000 C   0  0  0  0  0  0  0  0  0  0  0  0
    4.6001   -4.9005    0.0000 C   0  0  0  0  0  0  0  0  0  0  0  0
    5.5013   -3.7013    0.0000 O   0  0  0  0  0  0  0  0  0  0  0  0
    5.1881   -6.2804    0.0000 N   0  0  0  0  0  0  0  0  0  0  0  0
    6.6772   -6.4612    0.0000 C   0  0  0  0  0  0  0  0  0  0  0  0
    7.6987   -5.3628    0.0000 N   0  0  0  0  0  0  0  0  0  0  0  0
    9.0590   -5.9949    0.0000 N   0  0  0  0  0  0  0  0  0  0  0  0
    8.8782   -7.4840    0.0000 N   0  0  0  0  0  0  0  0  0  0  0  0
    7.4061   -7.7722    0.0000 N   0  0  0  0  0  0  0  0  0  0  0  0
    6.7740   -9.1325    0.0000 N   0  0  0  0  0  0  0  0  0  0  0  0
    7.5030  -10.4435    0.0000 C   0  0  0  0  0  0  0  0  0  0  0  0
    6.4815  -11.5419    0.0000 C   0  0  0  0  0  0  0  0  0  0  0  0
    5.1212  -10.9098    0.0000 N   0  0  0  0  0  0  0  0  0  0  0  0
    3.8102  -11.6387    0.0000 C   0  0  0  0  0  0  0  0  0  0  0  0
    3.7861  -13.1385    0.0000 O   0  0  0  0  0  0  0  0  0  0  0  0
    2.5234  -10.8679    0.0000 N   0  0  0  0  0  0  0  0  0  0  0  0
    1.2125  -11.5969    0.0000 C   0  0  0  0  0  0  0  0  0  0  0  0
   -0.0743  -10.8260    0.0000 N   0  0  0  0  0  0  0  0  0  0  0  0
   -1.3853  -11.5550    0.0000 N   0  0  0  0  0  0  0  0  0  0  0  0
   -1.4094  -13.0548    0.0000 N   0  0  0  0  0  0  0  0  0  0  0  0
   -0.1226  -13.8257    0.0000 N   0  0  0  0  0  0  0  0  0  0  0  0
    1.1883  -13.0967    0.0000 N   0  0  0  0  0  0  0  0  0  0  0  0
    5.3020   -9.4207    0.0000 C   0  0  0  0  0  0  0  0  0  0  0  0
    4.2036   -8.3992    0.0000 O   0  0  0  0  0  0  0  0  0  0  0  0
    2.9303   -3.2306    0.0000 C   0  0  0  0  0  0  0  0  0  0  0  0
    4.3328   -2.6987    0.0000 O   0  0  0  0  0  0  0  0  0  0  0  0
    2.0782   -1.9961    0.0000 O   0  0  0  0  0  0  0  0  0  0  0  0
    0.7500   -1.2990    0.0000 C   0  0  0  0  0  0  0  0  0  0  0  0
    1.5000    0.0000    0.0000 C   0  0  0  0  0  0  0  0  0  0  0  0
    0.7500    1.2990    0.0000 C   0  0  0  0  0  0  0  0  0  0  0  0
   -0.7500    1.2990    0.0000 C   0  0  0  0  0  0  0  0  0  0  0  0
   -1.5000    0.0000    0.0000 C   0  0  0  0  0  0  0  0  0  0  0  0
   -0.7500   -1.2990    0.0000 C   0  0  0  0  0  0  0  0  0  0  0  0
   -2.0782   -1.9961    0.0000 C   0  0  0  0  0  0  0  0  0  0  0  0
   -2.7212   -0.6409    0.0000 C   0  0  0  0  0  0  0  0  0  0  0  0
   -4.2164   -0.5202    0.0000 C   0  0  0  0  0  0  0  0  0  0  0  0
   -5.0685   -1.7547    0.0000 C   0  0  0  0  0  0  0  0  0  0  0  0
   -4.4254   -3.1099    0.0000 C   0  0  0  0  0  0  0  0  0  0  0  0
   -2.9303   -3.2306    0.0000 C   0  0  0  0  0  0  0  0  0  0  0  0
   -3.1111   -4.7197    0.0000 C   0  0  0  0  0  0  0  0  0  0  0  0
   -4.5917   -4.4790    0.0000 C   0  0  0  0  0  0  0  0  0  0  0  0
   -5.5403   -5.6410    0.0000 C   0  0  0  0  0  0  0  0  0  0  0  0
   -5.0084   -7.0435    0.0000 C   0  0  0  0  0  0  0  0  0  0  0  0
   -3.5278   -7.2841    0.0000 C   0  0  0  0  0  0  0  0  0  0  0  0
   -2.5792   -6.1222    0.0000 C   0  0  0  0  0  0  0  0  0  0  0  0
  1  2  1  0
  2  3  1  0
  3  4  2  0
  4  5  1  0
  5  6  1  0
  6  7  1  0
  7  8  2  0
  7  9  1  0
  9 10  1  0
 10 11  2  0
 11 12  1  0
 12 13  2  0
 13 14  1  0
 14 15  1  0
 15 16  1  0
 16 17  1  0
 17 18  1  0
 18 19  1  0
 19 20  2  0
 19 21  1  0
 21 22  1  0
 22 23  2  0
 23 24  1  0
 24 25  2  0
 25 26  1  0
 26 27  2  0
 18 28  1  0
 28 29  2  0
  6 30  1  0
 30 31  2  0
 30 32  1  0
 32 33  1  0
 33 34  2  0
 34 35  1  0
 35 36  2  0
 36 37  1  0
 37 38  2  0
 38 39  1  0
 39 40  2  0
 40 41  1  0
 41 42  2  0
 42 43  1  0
 43 44  2  0
 44 45  1  0
 45 46  2  0
 46 47  1  0
 47 48  2  0
 48 49  1  0
 49 50  2  0
 50  2  1  0
 14 10  1  0
 28 15  1  0
 38 33  1  0
 44 39  1  0
 50 45  1  0
 27 22  1  0
M  END
>  <Title>  (278) 
idAAITgen13

$$$$

     RDKit          2D

 56 56  0  0  0  0  0  0  0  0999 V2000
   76.5000    0.0000    0.0000 C   0  0  0  0  0  0  0  0  0  0  0  0
   75.0000    0.0000    0.0000 C   0  0  0  0  0  0  0  0  0  0  0  0
   73.5000    0.0000    0.0000 C   0  0  0  0  0  0  0  0  0  0  0  0
   72.0000    0.0000    0.0000 C   0  0  0  0  0  0  0  0  0  0  0  0
   70.5000    0.0000    0.0000 C   0  0  0  0  0  0  0  0  0  0  0  0
   69.0000    0.0000    0.0000 C   0  0  0  0  0  0  0  0  0  0  0  0
   67.5000    0.0000    0.0000 C   0  0  0  0  0  0  0  0  0  0  0  0
   66.0000    0.0000    0.0000 C   0  0  0  0  0  0  0  0  0  0  0  0
   64.5000    0.0000    0.0000 C   0  0  0  0  0  0  0  0  0  0  0  0
   63.0000    0.0000    0.0000 C   0  0  0  0  0  0  0  0  0  0  0  0
   61.5000    0.0000    0.0000 C   0  0  0  0  0  0  0  0  0  0  0  0
   60.0000    0.0000    0.0000 C   0  0  0  0  0  0  0  0  0  0  0  0
   58.5000    0.0000    0.0000 C   0  0  0  0  0  0  0  0  0  0  0  0
   57.0000    0.0000    0.0000 C   0  0  0  0  0  0  0  0  0  0  0  0
   55.5000    0.0000    0.0000 C   0  0  0  0  0  0  0  0  0  0  0  0
   54.0000    0.0000    0.0000 C   0  0  0  0  0  0  0  0  0  0  0  0
   52.5000    0.0000    0.0000 C   0  0  0  0  0  0  0  0  0  0  0  0
   51.0000    0.0000    0.0000 C   0  0  0  0  0  0  0  0  0  0  0  0
   49.5000    0.0000    0.0000 C   0  0  0  0  0  0  0  0  0  0  0  0
   48.0000    0.0000    0.0000 C   0  0  0  0  0  0  0  0  0  0  0  0
   46.5000    0.0000    0.0000 C   0  0  0  0  0  0  0  0  0  0  0  0
   45.0000    0.0000    0.0000 C   0  0  0  0  0  0  0  0  0  0  0  0
   43.5000    0.0000    0.0000 C   0  0  0  0  0  0  0  0  0  0  0  0
   42.0000    0.0000    0.0000 C   0  0  0  0  0  0  0  0  0  0  0  0
   40.5000    0.0000    0.0000 C   0  0  0  0  0  0  0  0  0  0  0  0
   39.0000    0.0000    0.0000 C   0  0  0  0  0  0  0  0  0  0  0  0
   37.5000    0.0000    0.0000 C   0  0  0  0  0  0  0  0  0  0  0  0
   36.0000    0.0000    0.0000 C   0  0  0  0  0  0  0  0  0  0  0  0
   34.5000    0.0000    0.0000 C   0  0  0  0  0  0  0  0  0  0  0  0
   33.0000    0.0000    0.0000 C   0  0  0  0  0  0  0  0  0  0  0  0
   31.5000    0.0000    0.0000 C   0  0  0  0  0  0  0  0  0  0  0  0
   30.0000    0.0000    0.0000 C   0  0  0  0  0  0  0  0  0  0  0  0
   28.5000    0.0000    0.0000 C   0  0  0  0  0  0  0  0  0  0  0  0
   27.0000    0.0000    0.0000 C   0  0  0  0  0  0  0  0  0  0  0  0
   25.5000    0.0000    0.0000 C   0  0  0  0  0  0  0  0  0  0  0  0
   24.0000    0.0000    0.0000 C   0  0  0  0  0  0  0  0  0  0  0  0
   22.5000    0.0000    0.0000 C   0  0  0  0  0  0  0  0  0  0  0  0
   21.0000    0.0000    0.0000 C   0  0  0  0  0  0  0  0  0  0  0  0
   19.5000    0.0000    0.0000 C   0  0  0  0  0  0  0  0  0  0  0  0
   18.0000    0.0000    0.0000 C   0  0  0  0  0  0  0  0  0  0  0  0
   16.5000    0.0000    0.0000 C   0  0  0  0  0  0  0  0  0  0  0  0
   15.0000    0.0000    0.0000 C   0  0  0  0  0  0  0  0  0  0  0  0
   13.5000    0.0000    0.0000 C   0  0  0  0  0  0  0  0  0  0  0  0
   12.0000    0.0000    0.0000 C   0  0  0  0  0  0  0  0  0  0  0  0
   10.5000    0.0000    0.0000 C   0  0  0  0  0  0  0  0  0  0  0  0
    9.0000    0.0000    0.0000 C   0  0  0  0  0  0  0  0  0  0  0  0
    7.5000    0.0000    0.0000 C   0  0  0  0  0  0  0  0  0  0  0  0
    6.0000    0.0000    0.0000 C   0  0  0  0  0  0  0  0  0  0  0  0
    4.5000    0.0000    0.0000 C   0  0  0  0  0  0  0  0  0  0  0  0
    3.0000    0.0000    0.0000 C   0  0  0  0  0  0  0  0  0  0  0  0
    1.5000    0.0000    0.0000 C   0  0  0  0  0  0  0  0  0  0  0  0
    0.7500   -1.2990    0.0000 C   0  0  0  0  0  0  0  0  0  0  0  0
   -0.7500   -1.2990    0.0000 C   0  0  0  0  0  0  0  0  0  0  0  0
   -1.5000    0.0000    0.0000 C   0  0  0  0  0  0  0  0  0  0  0  0
   -0.7500    1.2990    0.0000 C   0  0  0  0  0  0  0  0  0  0  0  0
    0.7500    1.2990    0.0000 C   0  0  0  0  0  0  0  0  0  0  0  0
  1  2  3  0
  2  3  1  0
  3  4  3  0
  4  5  1  0
  5  6  3  0
  6  7  1  0
  7  8  3  0
  8  9  1  0
  9 10  3  0
 10 11  1  0
 11 12  3  0
 12 13  1  0
 13 14  3  0
 14 15  1  0
 15 16  3  0
 16 17  1  0
 17 18  3  0
 18 19  1  0
 19 20  3  0
 20 21  1  0
 21 22  3  0
 22 23  1  0
 23 24  3  0
 24 25  1  0
 25 26  3  0
 26 27  1  0
 27 28  3  0
 28 29  1  0
 29 30  3  0
 30 31  1  0
 31 32  3  0
 32 33  1  0
 33 34  3  0
 34 35  1  0
 35 36  3  0
 36 37  1  0
 37 38  3  0
 38 39  1  0
 39 40  3  0
 40 41  1  0
 41 42  3  0
 42 43  1  0
 43 44  3  0
 44 45  1  0
 45 46  3  0
 46 47  1  0
 47 48  3  0
 48 49  1  0
 49 50  3  0
 50 51  1  0
 51 52  2  0
 52 53  1  0
 53 54  2  0
 54 55  1  0
 55 56  2  0
 56 51  1  0
M  END
>  <Title>  (279) 
idAAIUgen13

$$$$

     RDKit          2D

  9 10  0  0  0  0  0  0  0  0999 V2000
    2.7990   -3.3481    0.0000 C   0  0  0  0  0  0  0  0  0  0  0  0
    1.5000   -2.5981    0.0000 C   0  0  0  0  0  0  0  0  0  0  0  0
    0.7500   -1.2990    0.0000 C   0  0  0  0  0  0  0  0  0  0  0  0
    1.5000    0.0000    0.0000 C   0  0  0  0  0  0  0  0  0  0  0  0
    0.7500    1.2990    0.0000 C   0  0  0  0  0  0  0  0  0  0  0  0
   -0.7500    1.2990    0.0000 N   0  0  0  0  0  0  0  0  0  0  0  0
   -1.5000    0.0000    0.0000 N   0  0  0  0  0  0  0  0  0  0  0  0
   -0.7500   -1.2990    0.0000 N   0  0  0  0  0  0  0  0  0  0  0  0
    1.5000   -4.0981    0.0000 C   0  0  0  0  0  0  0  0  0  0  0  0
  1  2  2  0
  2  3  1  0
  3  4  2  0
  4  5  1  0
  5  6  2  0
  6  7  1  0
  7  8  2  0
  2  9  1  0
  9  1  1  0
  8  3  1  0
M  END
>  <Title>  (280) 
idAAIVgen13

$$$$

     RDKit          2D

  4  3  0  0  0  0  0  0  0  0999 V2000
    0.0000    0.0000    0.0000 C   0  0  0  0  0  0  0  0  0  0  0  0
    1.2990    0.7500    0.0000 C   0  0  0  0  0  0  0  0  0  0  0  0
    2.5981   -0.0000    0.0000 C   0  0  0  0  0  0  0  0  0  0  0  0
    3.8971    0.7500    0.0000 C   0  0  0  0  0  0  0  0  0  0  0  0
  1  2  2  0
  2  3  1  0
  3  4  2  0
M  END
>  <Title>  (281) 
idAAIWgen13

$$$$

     RDKit          2D

  9  9  0  0  0  0  0  0  0  0999 V2000
    5.2500   -1.2990    0.0000 C   0  0  0  0  0  0  0  0  0  0  0  0
    3.7500   -1.2990    0.0000 O   0  0  0  0  0  0  0  0  0  0  0  0
    3.0000    0.0000    0.0000 C   0  0  0  0  0  0  0  0  0  0  0  0
    1.5000    0.0000    0.0000 C   0  0  0  0  0  0  0  0  0  0  0  0
    0.7500   -1.2990    0.0000 C   0  0  0  0  0  0  0  0  0  0  0  0
   -0.7500   -1.2990    0.0000 C   0  0  0  0  0  0  0  0  0  0  0  0
   -1.5000    0.0000    0.0000 C   0  0  0  0  0  0  0  0  0  0  0  0
   -0.7500    1.2990    0.0000 C   0  0  0  0  0  0  0  0  0  0  0  0
    0.7500    1.2990    0.0000 C   0  0  0  0  0  0  0  0  0  0  0  0
  1  2  1  0
  2  3  1  0
  3  4  1  0
  4  5  2  0
  5  6  1  0
  6  7  2  0
  7  8  1  0
  8  9  2  0
  9  4  1  0
M  END
>  <Title>  (282) 
idAAIXgen13

$$$$

     RDKit          2D

  8  8  0  0  0  0  0  0  0  0999 V2000
    5.0260   -1.2990    0.0000 C   0  0  0  0  0  0  0  0  0  0  0  0
    3.5260   -1.2990    0.0000 C   0  0  0  0  0  0  0  0  0  0  0  0
    2.7760    0.0000    0.0000 C   0  0  0  0  0  0  0  0  0  0  0  0
    1.2760    0.0000    0.0000 C   0  0  0  0  0  0  0  0  0  0  0  0
    0.3943    1.2135    0.0000 C   0  0  0  0  0  0  0  0  0  0  0  0
   -1.0323    0.7500    0.0000 C   0  0  0  0  0  0  0  0  0  0  0  0
   -1.0323   -0.7500    0.0000 C   0  0  0  0  0  0  0  0  0  0  0  0
    0.3943   -1.2135    0.0000 C   0  0  0  0  0  0  0  0  0  0  0  0
  1  2  1  0
  2  3  1  0
  3  4  1  0
  4  5  1  0
  5  6  1  0
  6  7  2  0
  7  8  1  0
  8  4  1  0
M  END
>  <Title>  (283) 
idAAIYgen13

$$$$

     RDKit          2D

 86 87  0  0  0  0  0  0  0  0999 V2000
   -2.4196    0.0746    0.0000 C   0  0  0  0  0  0  0  0  0  0  0  0
   -2.2455   -1.4153    0.0000 C   0  0  0  0  0  0  0  0  0  0  0  0
   -3.7275   -1.6471    0.0000 C   0  0  0  0  0  0  0  0  0  0  0  0
   -5.1870   -1.9930    0.0000 C   0  0  0  0  0  0  0  0  0  0  0  0
   -6.6154   -2.4510    0.0000 C   0  0  0  0  0  0  0  0  0  0  0  0
   -8.0040   -3.0183    0.0000 C   0  0  0  0  0  0  0  0  0  0  0  0
   -9.3444   -3.6915    0.0000 C   0  0  0  0  0  0  0  0  0  0  0  0
  -10.6287   -4.4665    0.0000 C   0  0  0  0  0  0  0  0  0  0  0  0
  -11.8490   -5.3388    0.0000 C   0  0  0  0  0  0  0  0  0  0  0  0
  -12.9981   -6.3029    0.0000 C   0  0  0  0  0  0  0  0  0  0  0  0
  -14.0690   -7.3533    0.0000 C   0  0  0  0  0  0  0  0  0  0  0  0
  -15.0553   -8.4834    0.0000 C   0  0  0  0  0  0  0  0  0  0  0  0
  -15.9510   -9.6866    0.0000 C   0  0  0  0  0  0  0  0  0  0  0  0
  -16.7508  -10.9556    0.0000 C   0  0  0  0  0  0  0  0  0  0  0  0
  -17.4499  -12.2827    0.0000 C   0  0  0  0  0  0  0  0  0  0  0  0
  -18.0440  -13.6600    0.0000 C   0  0  0  0  0  0  0  0  0  0  0  0
  -18.5296  -15.0793    0.0000 C   0  0  0  0  0  0  0  0  0  0  0  0
  -18.9038  -16.5319    0.0000 C   0  0  0  0  0  0  0  0  0  0  0  0
  -19.1642  -18.0091    0.0000 C   0  0  0  0  0  0  0  0  0  0  0  0
  -19.3095  -19.5020    0.0000 C   0  0  0  0  0  0  0  0  0  0  0  0
  -19.3385  -21.0017    0.0000 C   0  0  0  0  0  0  0  0  0  0  0  0
  -19.2513  -22.4992    0.0000 C   0  0  0  0  0  0  0  0  0  0  0  0
  -19.0483  -23.9854    0.0000 C   0  0  0  0  0  0  0  0  0  0  0  0
  -18.7308  -25.4514    0.0000 C   0  0  0  0  0  0  0  0  0  0  0  0
  -18.3006  -26.8884    0.0000 C   0  0  0  0  0  0  0  0  0  0  0  0
  -17.7603  -28.2877    0.0000 C   0  0  0  0  0  0  0  0  0  0  0  0
  -17.1132  -29.6410    0.0000 C   0  0  0  0  0  0  0  0  0  0  0  0
  -16.3632  -30.9400    0.0000 C   0  0  0  0  0  0  0  0  0  0  0  0
  -15.5148  -32.1770    0.0000 C   0  0  0  0  0  0  0  0  0  0  0  0
  -14.5731  -33.3446    0.0000 C   0  0  0  0  0  0  0  0  0  0  0  0
  -13.5437  -34.4356    0.0000 C   0  0  0  0  0  0  0  0  0  0  0  0
  -12.4329  -35.4436    0.0000 C   0  0  0  0  0  0  0  0  0  0  0  0
  -11.2473  -36.3625    0.0000 C   0  0  0  0  0  0  0  0  0  0  0  0
   -9.9941  -37.1868    0.0000 C   0  0  0  0  0  0  0  0  0  0  0  0
   -8.6808  -37.9115    0.0000 C   0  0  0  0  0  0  0  0  0  0  0  0
   -7.3152  -38.5322    0.0000 C   0  0  0  0  0  0  0  0  0  0  0  0
   -5.9057  -39.0452    0.0000 C   0  0  0  0  0  0  0  0  0  0  0  0
   -4.4606  -39.4475    0.0000 C   0  0  0  0  0  0  0  0  0  0  0  0
   -2.9887  -39.7365    0.0000 C   0  0  0  0  0  0  0  0  0  0  0  0
   -1.4989  -39.9107    0.0000 C   0  0  0  0  0  0  0  0  0  0  0  0
    0.0000  -39.9688    0.0000 C   0  0  0  0  0  0  0  0  0  0  0  0
    1.4989  -39.9107    0.0000 C   0  0  0  0  0  0  0  0  0  0  0  0
    2.9887  -39.7365    0.0000 C   0  0  0  0  0  0  0  0  0  0  0  0
    4.4606  -39.4475    0.0000 C   0  0  0  0  0  0  0  0  0  0  0  0
    5.9057  -39.0452    0.0000 C   0  0  0  0  0  0  0  0  0  0  0  0
    7.3152  -38.5322    0.0000 C   0  0  0  0  0  0  0  0  0  0  0  0
    8.6808  -37.9115    0.0000 C   0  0  0  0  0  0  0  0  0  0  0  0
    9.9941  -37.1868    0.0000 C   0  0  0  0  0  0  0  0  0  0  0  0
   11.2473  -36.3625    0.0000 C   0  0  0  0  0  0  0  0  0  0  0  0
   12.4329  -35.4436    0.0000 C   0  0  0  0  0  0  0  0  0  0  0  0
   13.5437  -34.4356    0.0000 C   0  0  0  0  0  0  0  0  0  0  0  0
   14.5731  -33.3446    0.0000 C   0  0  0  0  0  0  0  0  0  0  0  0
   15.5148  -32.1770    0.0000 C   0  0  0  0  0  0  0  0  0  0  0  0
   16.3632  -30.9400    0.0000 C   0  0  0  0  0  0  0  0  0  0  0  0
   17.1132  -29.6410    0.0000 C   0  0  0  0  0  0  0  0  0  0  0  0
   17.7603  -28.2877    0.0000 C   0  0  0  0  0  0  0  0  0  0  0  0
   18.3006  -26.8884    0.0000 C   0  0  0  0  0  0  0  0  0  0  0  0
   18.7308  -25.4514    0.0000 C   0  0  0  0  0  0  0  0  0  0  0  0
   19.0483  -23.9854    0.0000 C   0  0  0  0  0  0  0  0  0  0  0  0
   19.2513  -22.4992    0.0000 C   0  0  0  0  0  0  0  0  0  0  0  0
   19.3385  -21.0017    0.0000 C   0  0  0  0  0  0  0  0  0  0  0  0
   19.3095  -19.5020    0.0000 C   0  0  0  0  0  0  0  0  0  0  0  0
   19.1642  -18.0091    0.0000 C   0  0  0  0  0  0  0  0  0  0  0  0
   18.9038  -16.5319    0.0000 C   0  0  0  0  0  0  0  0  0  0  0  0
   18.5296  -15.0793    0.0000 C   0  0  0  0  0  0  0  0  0  0  0  0
   18.0440  -13.6600    0.0000 C   0  0  0  0  0  0  0  0  0  0  0  0
   17.4499  -12.2827    0.0000 C   0  0  0  0  0  0  0  0  0  0  0  0
   16.7508  -10.9556    0.0000 C   0  0  0  0  0  0  0  0  0  0  0  0
   15.9510   -9.6866    0.0000 C   0  0  0  0  0  0  0  0  0  0  0  0
   15.0553   -8.4834    0.0000 C   0  0  0  0  0  0  0  0  0  0  0  0
   14.0690   -7.3533    0.0000 C   0  0  0  0  0  0  0  0  0  0  0  0
   12.9981   -6.3029    0.0000 C   0  0  0  0  0  0  0  0  0  0  0  0
   11.8490   -5.3388    0.0000 C   0  0  0  0  0  0  0  0  0  0  0  0
   10.6287   -4.4665    0.0000 C   0  0  0  0  0  0  0  0  0  0  0  0
    9.3444   -3.6915    0.0000 C   0  0  0  0  0  0  0  0  0  0  0  0
    8.0040   -3.0183    0.0000 C   0  0  0  0  0  0  0  0  0  0  0  0
    6.6154   -2.4510    0.0000 C   0  0  0  0  0  0  0  0  0  0  0  0
    5.1870   -1.9930    0.0000 C   0  0  0  0  0  0  0  0  0  0  0  0
    3.7275   -1.6471    0.0000 C   0  0  0  0  0  0  0  0  0  0  0  0
    2.2455   -1.4153    0.0000 C   0  0  0  0  0  0  0  0  0  0  0  0
    0.7500   -1.2990    0.0000 C   0  0  0  0  0  0  0  0  0  0  0  0
    1.5000    0.0000    0.0000 C   0  0  0  0  0  0  0  0  0  0  0  0
    0.7500    1.2990    0.0000 C   0  0  0  0  0  0  0  0  0  0  0  0
   -0.7500    1.2990    0.0000 C   0  0  0  0  0  0  0  0  0  0  0  0
   -1.5000    0.0000    0.0000 C   0  0  0  0  0  0  0  0  0  0  0  0
   -0.7500   -1.2990    0.0000 C   0  0  0  0  0  0  0  0  0  0  0  0
  1  2  1  0
  2  3  1  0
  3  4  1  0
  4  5  1  0
  5  6  1  0
  6  7  1  0
  7  8  1  0
  8  9  1  0
  9 10  1  0
 10 11  1  0
 11 12  1  0
 12 13  1  0
 13 14  1  0
 14 15  1  0
 15 16  1  0
 16 17  1  0
 17 18  1  0
 18 19  1  0
 19 20  1  0
 20 21  1  0
 21 22  1  0
 22 23  1  0
 23 24  1  0
 24 25  1  0
 25 26  1  0
 26 27  1  0
 27 28  1  0
 28 29  1  0
 29 30  1  0
 30 31  1  0
 31 32  1  0
 32 33  1  0
 33 34  1  0
 34 35  1  0
 35 36  1  0
 36 37  1  0
 37 38  1  0
 38 39  1  0
 39 40  1  0
 40 41  1  0
 41 42  1  0
 42 43  1  0
 43 44  1  0
 44 45  1  0
 45 46  1  0
 46 47  1  0
 47 48  1  0
 48 49  1  0
 49 50  1  0
 50 51  1  0
 51 52  1  0
 52 53  1  0
 53 54  1  0
 54 55  1  0
 55 56  1  0
 56 57  1  0
 57 58  1  0
 58 59  1  0
 59 60  1  0
 60 61  1  0
 61 62  1  0
 62 63  1  0
 63 64  1  0
 64 65  1  0
 65 66  1  0
 66 67  1  0
 67 68  1  0
 68 69  1  0
 69 70  1  0
 70 71  1  0
 71 72  1  0
 72 73  1  0
 73 74  1  0
 74 75  1  0
 75 76  1  0
 76 77  1  0
 77 78  1  0
 78 79  1  0
 79 80  1  0
 80 81  1  0
 81 82  1  0
 82 83  1  0
 83 84  2  0
 84 85  1  0
 85 86  2  0
 86  2  1  0
 86 81  1  0
M  END
>  <Title>  (284) 
idAAIZgen13

$$$$

     RDKit          2D

 52 51  0  0  0  0  0  0  0  0999 V2000
    0.0000    0.0000    0.0000 C   0  0  0  0  0  0  0  0  0  0  0  0
   -0.0000   -1.5000    0.0000 C   0  0  0  0  0  0  0  0  0  0  0  0
   -0.0000   -3.0000    0.0000 C   0  0  0  0  0  0  0  0  0  0  0  0
   -0.0000   -4.5000    0.0000 C   0  0  0  0  0  0  0  0  0  0  0  0
   -0.0000   -6.0000    0.0000 C   0  0  0  0  0  0  0  0  0  0  0  0
   -0.0000   -7.5000    0.0000 C   0  0  0  0  0  0  0  0  0  0  0  0
   -0.0000   -9.0000    0.0000 C   0  0  0  0  0  0  0  0  0  0  0  0
   -0.0000  -10.5000    0.0000 C   0  0  0  0  0  0  0  0  0  0  0  0
   -0.0000  -12.0000    0.0000 C   0  0  0  0  0  0  0  0  0  0  0  0
   -0.0000  -13.5000    0.0000 C   0  0  0  0  0  0  0  0  0  0  0  0
   -0.0000  -15.0000    0.0000 C   0  0  0  0  0  0  0  0  0  0  0  0
   -0.0000  -16.5000    0.0000 C   0  0  0  0  0  0  0  0  0  0  0  0
   -0.0000  -18.0000    0.0000 C   0  0  0  0  0  0  0  0  0  0  0  0
   -0.0000  -19.5000    0.0000 C   0  0  0  0  0  0  0  0  0  0  0  0
   -0.0000  -21.0000    0.0000 C   0  0  0  0  0  0  0  0  0  0  0  0
   -0.0000  -22.5000    0.0000 C   0  0  0  0  0  0  0  0  0  0  0  0
   -0.0000  -24.0000    0.0000 C   0  0  0  0  0  0  0  0  0  0  0  0
   -0.0000  -25.5000    0.0000 C   0  0  0  0  0  0  0  0  0  0  0  0
   -0.0000  -27.0000    0.0000 C   0  0  0  0  0  0  0  0  0  0  0  0
   -0.0000  -28.5000    0.0000 C   0  0  0  0  0  0  0  0  0  0  0  0
   -0.0000  -30.0000    0.0000 C   0  0  0  0  0  0  0  0  0  0  0  0
   -0.0000  -31.5000    0.0000 C   0  0  0  0  0  0  0  0  0  0  0  0
   -0.0000  -33.0000    0.0000 C   0  0  0  0  0  0  0  0  0  0  0  0
   -0.0000  -34.5000    0.0000 C   0  0  0  0  0  0  0  0  0  0  0  0
   -0.0000  -36.0000    0.0000 C   0  0  0  0  0  0  0  0  0  0  0  0
   -0.0000  -37.5000    0.0000 C   0  0  0  0  0  0  0  0  0  0  0  0
   -0.0000  -39.0000    0.0000 C   0  0  0  0  0  0  0  0  0  0  0  0
   -0.0000  -40.5000    0.0000 C   0  0  0  0  0  0  0  0  0  0  0  0
   -0.0000  -42.0000    0.0000 C   0  0  0  0  0  0  0  0  0  0  0  0
   -0.0000  -43.5000    0.0000 C   0  0  0  0  0  0  0  0  0  0  0  0
   -0.0000  -45.0000    0.0000 C   0  0  0  0  0  0  0  0  0  0  0  0
   -0.0000  -46.5000    0.0000 C   0  0  0  0  0  0  0  0  0  0  0  0
   -0.0000  -48.0000    0.0000 C   0  0  0  0  0  0  0  0  0  0  0  0
   -0.0000  -49.5000    0.0000 C   0  0  0  0  0  0  0  0  0  0  0  0
   -0.0000  -51.0000    0.0000 C   0  0  0  0  0  0  0  0  0  0  0  0
   -0.0000  -52.5000    0.0000 C   0  0  0  0  0  0  0  0  0  0  0  0
   -0.0000  -54.0000    0.0000 C   0  0  0  0  0  0  0  0  0  0  0  0
   -0.0000  -55.5000    0.0000 C   0  0  0  0  0  0  0  0  0  0  0  0
   -0.0000  -57.0000    0.0000 C   0  0  0  0  0  0  0  0  0  0  0  0
   -0.0000  -58.5000    0.0000 C   0  0  0  0  0  0  0  0  0  0  0  0
   -0.0000  -60.0000    0.0000 C   0  0  0  0  0  0  0  0  0  0  0  0
   -0.0000  -61.5000    0.0000 C   0  0  0  0  0  0  0  0  0  0  0  0
   -0.0000  -63.0000    0.0000 C   0  0  0  0  0  0  0  0  0  0  0  0
   -0.0000  -64.5000    0.0000 C   0  0  0  0  0  0  0  0  0  0  0  0
   -0.0000  -66.0000    0.0000 C   0  0  0  0  0  0  0  0  0  0  0  0
   -0.0000  -67.5000    0.0000 C   0  0  0  0  0  0  0  0  0  0  0  0
   -0.0000  -69.0000    0.0000 C   0  0  0  0  0  0  0  0  0  0  0  0
   -0.0000  -70.5000    0.0000 C   0  0  0  0  0  0  0  0  0  0  0  0
   -0.0000  -72.0000    0.0000 C   0  0  0  0  0  0  0  0  0  0  0  0
    1.2990  -72.7500    0.0000 C   0  0  0  0  0  0  0  0  0  0  0  0
    1.2990  -74.2500    0.0000 C   0  0  0  0  0  0  0  0  0  0  0  0
    1.2990  -75.7500    0.0000 C   0  0  0  0  0  0  0  0  0  0  0  0
  1  2  3  0
  2  3  1  0
  3  4  3  0
  4  5  1  0
  5  6  3  0
  6  7  1  0
  7  8  3  0
  8  9  1  0
  9 10  3  0
 10 11  1  0
 11 12  3  0
 12 13  1  0
 13 14  3  0
 14 15  1  0
 15 16  3  0
 16 17  1  0
 17 18  3  0
 18 19  1  0
 19 20  3  0
 20 21  1  0
 21 22  3  0
 22 23  1  0
 23 24  3  0
 24 25  1  0
 25 26  3  0
 26 27  1  0
 27 28  3  0
 28 29  1  0
 29 30  3  0
 30 31  1  0
 31 32  3  0
 32 33  1  0
 33 34  3  0
 34 35  1  0
 35 36  3  0
 36 37  1  0
 37 38  3  0
 38 39  1  0
 39 40  3  0
 40 41  1  0
 41 42  3  0
 42 43  1  0
 43 44  3  0
 44 45  1  0
 45 46  3  0
 46 47  1  0
 47 48  3  0
 48 49  1  0
 49 50  2  3
 50 51  1  0
 51 52  3  0
M  END
>  <Title>  (285) 
idAAJAgen13

$$$$

     RDKit          2D

 30 33  0  0  0  0  0  0  0  0999 V2000
   -3.7500   -3.8971    0.0000 C   0  0  0  0  0  0  0  0  0  0  0  0
   -3.0000   -2.5981    0.0000 C   0  0  0  0  0  0  0  0  0  0  0  0
   -3.7500   -1.2990    0.0000 O   0  0  0  0  0  0  0  0  0  0  0  0
   -1.5000   -2.5981    0.0000 C   0  0  0  0  0  0  0  0  0  0  0  0
   -0.7500   -3.8971    0.0000 C   0  0  0  0  0  0  0  0  0  0  0  0
    0.7500   -3.8971    0.0000 C   0  0  0  0  0  0  0  0  0  0  0  0
    1.5000   -2.5981    0.0000 C   0  0  0  0  0  0  0  0  0  0  0  0
    3.0000   -2.5981    0.0000 N   0  0  0  0  0  0  0  0  0  0  0  0
    3.7500   -3.8971    0.0000 C   0  0  0  0  0  0  0  0  0  0  0  0
    5.2500   -3.8971    0.0000 C   0  0  0  0  0  0  0  0  0  0  0  0
    6.0000   -2.5981    0.0000 C   0  0  0  0  0  0  0  0  0  0  0  0
    5.2500   -1.2990    0.0000 C   0  0  0  0  0  0  0  0  0  0  0  0
    6.0000    0.0000    0.0000 O   0  0  0  0  0  0  0  0  0  0  0  0
    7.5000    0.0000    0.0000 C   0  0  0  0  0  0  0  0  0  0  0  0
    8.2500   -1.2990    0.0000 O   0  0  0  0  0  0  0  0  0  0  0  0
    8.2500    1.2990    0.0000 N   0  0  0  0  0  0  0  0  0  0  0  0
    9.7500    1.2990    0.0000 C   0  0  0  0  0  0  0  0  0  0  0  0
   10.5000    0.0000    0.0000 N   0  0  0  0  0  0  0  0  0  0  0  0
   12.0000    0.0000    0.0000 N   0  0  0  0  0  0  0  0  0  0  0  0
   12.7500    1.2990    0.0000 N   0  0  0  0  0  0  0  0  0  0  0  0
   12.0000    2.5981    0.0000 N   0  0  0  0  0  0  0  0  0  0  0  0
   10.5000    2.5981    0.0000 N   0  0  0  0  0  0  0  0  0  0  0  0
    3.7500   -1.2990    0.0000 C   0  0  0  0  0  0  0  0  0  0  0  0
    3.0000    0.0000    0.0000 O   0  0  0  0  0  0  0  0  0  0  0  0
    0.7500   -1.2990    0.0000 C   0  0  0  0  0  0  0  0  0  0  0  0
    1.5000    0.0000    0.0000 C   0  0  0  0  0  0  0  0  0  0  0  0
    0.7500    1.2990    0.0000 C   0  0  0  0  0  0  0  0  0  0  0  0
   -0.7500    1.2990    0.0000 C   0  0  0  0  0  0  0  0  0  0  0  0
   -1.5000    0.0000    0.0000 C   0  0  0  0  0  0  0  0  0  0  0  0
   -0.7500   -1.2990    0.0000 C   0  0  0  0  0  0  0  0  0  0  0  0
  1  2  1  0
  2  3  2  0
  2  4  1  0
  4  5  2  0
  5  6  1  0
  6  7  2  0
  7  8  1  0
  8  9  1  0
  9 10  1  0
 10 11  1  0
 11 12  1  0
 12 13  1  0
 13 14  1  0
 14 15  2  0
 14 16  1  0
 16 17  1  0
 17 18  2  0
 18 19  1  0
 19 20  2  0
 20 21  1  0
 21 22  2  0
 12 23  1  0
 23 24  2  0
  7 25  1  0
 25 26  2  0
 26 27  1  0
 27 28  2  0
 28 29  1  0
 29 30  2  0
 30  4  1  0
 23  8  1  0
 30 25  1  0
 22 17  1  0
M  END
>  <Title>  (286) 
idAAJBgen13

$$$$

     RDKit          2D

 84 85  0  0  0  0  0  0  0  0999 V2000
   -2.1982   -1.0713    0.0000 C   0  0  0  0  0  0  0  0  0  0  0  0
   -2.4908    0.3998    0.0000 C   0  0  0  0  0  0  0  0  0  0  0  0
   -3.9724    0.1652    0.0000 C   0  0  0  0  0  0  0  0  0  0  0  0
   -5.4677    0.0475    0.0000 C   0  0  0  0  0  0  0  0  0  0  0  0
   -6.9677    0.0475    0.0000 C   0  0  0  0  0  0  0  0  0  0  0  0
   -8.4631    0.1652    0.0000 C   0  0  0  0  0  0  0  0  0  0  0  0
   -9.9447    0.3998    0.0000 C   0  0  0  0  0  0  0  0  0  0  0  0
  -11.4032    0.7500    0.0000 C   0  0  0  0  0  0  0  0  0  0  0  0
  -12.8298    1.2135    0.0000 C   0  0  0  0  0  0  0  0  0  0  0  0
  -14.2156    1.7876    0.0000 C   0  0  0  0  0  0  0  0  0  0  0  0
  -15.5521    2.4685    0.0000 C   0  0  0  0  0  0  0  0  0  0  0  0
  -16.8311    3.2523    0.0000 C   0  0  0  0  0  0  0  0  0  0  0  0
  -18.0446    4.1340    0.0000 C   0  0  0  0  0  0  0  0  0  0  0  0
  -19.1852    5.1081    0.0000 C   0  0  0  0  0  0  0  0  0  0  0  0
  -20.2459    6.1688    0.0000 C   0  0  0  0  0  0  0  0  0  0  0  0
  -21.2201    7.3094    0.0000 C   0  0  0  0  0  0  0  0  0  0  0  0
  -22.1017    8.5229    0.0000 C   0  0  0  0  0  0  0  0  0  0  0  0
  -22.8855    9.8019    0.0000 C   0  0  0  0  0  0  0  0  0  0  0  0
  -23.5665   11.1384    0.0000 C   0  0  0  0  0  0  0  0  0  0  0  0
  -24.1405   12.5242    0.0000 C   0  0  0  0  0  0  0  0  0  0  0  0
  -24.6040   13.9508    0.0000 C   0  0  0  0  0  0  0  0  0  0  0  0
  -24.9542   15.4094    0.0000 C   0  0  0  0  0  0  0  0  0  0  0  0
  -25.1888   16.8909    0.0000 C   0  0  0  0  0  0  0  0  0  0  0  0
  -25.3065   18.3863    0.0000 C   0  0  0  0  0  0  0  0  0  0  0  0
  -25.3065   19.8863    0.0000 C   0  0  0  0  0  0  0  0  0  0  0  0
  -25.1888   21.3816    0.0000 C   0  0  0  0  0  0  0  0  0  0  0  0
  -24.9542   22.8632    0.0000 C   0  0  0  0  0  0  0  0  0  0  0  0
  -24.6040   24.3217    0.0000 C   0  0  0  0  0  0  0  0  0  0  0  0
  -24.1405   25.7483    0.0000 C   0  0  0  0  0  0  0  0  0  0  0  0
  -23.5665   27.1341    0.0000 C   0  0  0  0  0  0  0  0  0  0  0  0
  -22.8855   28.4706    0.0000 C   0  0  0  0  0  0  0  0  0  0  0  0
  -22.1017   29.7496    0.0000 C   0  0  0  0  0  0  0  0  0  0  0  0
  -21.2201   30.9631    0.0000 C   0  0  0  0  0  0  0  0  0  0  0  0
  -20.2459   32.1037    0.0000 C   0  0  0  0  0  0  0  0  0  0  0  0
  -19.1852   33.1644    0.0000 C   0  0  0  0  0  0  0  0  0  0  0  0
  -18.0446   34.1386    0.0000 C   0  0  0  0  0  0  0  0  0  0  0  0
  -16.8311   35.0202    0.0000 C   0  0  0  0  0  0  0  0  0  0  0  0
  -15.5521   35.8040    0.0000 C   0  0  0  0  0  0  0  0  0  0  0  0
  -14.2156   36.4850    0.0000 C   0  0  0  0  0  0  0  0  0  0  0  0
  -12.8298   37.0590    0.0000 C   0  0  0  0  0  0  0  0  0  0  0  0
  -11.4032   37.5225    0.0000 C   0  0  0  0  0  0  0  0  0  0  0  0
   -9.9447   37.8727    0.0000 C   0  0  0  0  0  0  0  0  0  0  0  0
   -8.4631   38.1074    0.0000 C   0  0  0  0  0  0  0  0  0  0  0  0
   -6.9677   38.2250    0.0000 C   0  0  0  0  0  0  0  0  0  0  0  0
   -5.4677   38.2250    0.0000 C   0  0  0  0  0  0  0  0  0  0  0  0
   -3.9724   38.1074    0.0000 C   0  0  0  0  0  0  0  0  0  0  0  0
   -2.4908   37.8727    0.0000 C   0  0  0  0  0  0  0  0  0  0  0  0
   -1.0323   37.5225    0.0000 C   0  0  0  0  0  0  0  0  0  0  0  0
    0.3943   37.0590    0.0000 C   0  0  0  0  0  0  0  0  0  0  0  0
    1.7801   36.4850    0.0000 C   0  0  0  0  0  0  0  0  0  0  0  0
    3.1166   35.8040    0.0000 C   0  0  0  0  0  0  0  0  0  0  0  0
    4.3956   35.0202    0.0000 C   0  0  0  0  0  0  0  0  0  0  0  0
    5.6091   34.1386    0.0000 C   0  0  0  0  0  0  0  0  0  0  0  0
    6.7497   33.1644    0.0000 C   0  0  0  0  0  0  0  0  0  0  0  0
    7.8104   32.1037    0.0000 C   0  0  0  0  0  0  0  0  0  0  0  0
    8.7846   30.9631    0.0000 C   0  0  0  0  0  0  0  0  0  0  0  0
    9.6662   29.7496    0.0000 C   0  0  0  0  0  0  0  0  0  0  0  0
   10.4500   28.4706    0.0000 C   0  0  0  0  0  0  0  0  0  0  0  0
   11.1310   27.1341    0.0000 C   0  0  0  0  0  0  0  0  0  0  0  0
   11.7050   25.7483    0.0000 C   0  0  0  0  0  0  0  0  0  0  0  0
   12.1685   24.3217    0.0000 C   0  0  0  0  0  0  0  0  0  0  0  0
   12.5187   22.8632    0.0000 C   0  0  0  0  0  0  0  0  0  0  0  0
   12.7533   21.3816    0.0000 C   0  0  0  0  0  0  0  0  0  0  0  0
   12.8710   19.8863    0.0000 C   0  0  0  0  0  0  0  0  0  0  0  0
   12.8710   18.3863    0.0000 C   0  0  0  0  0  0  0  0  0  0  0  0
   12.7533   16.8909    0.0000 C   0  0  0  0  0  0  0  0  0  0  0  0
   12.5187   15.4094    0.0000 C   0  0  0  0  0  0  0  0  0  0  0  0
   12.1685   13.9508    0.0000 C   0  0  0  0  0  0  0  0  0  0  0  0
   11.7050   12.5242    0.0000 C   0  0  0  0  0  0  0  0  0  0  0  0
   11.1310   11.1384    0.0000 C   0  0  0  0  0  0  0  0  0  0  0  0
   10.4500    9.8019    0.0000 C   0  0  0  0  0  0  0  0  0  0  0  0
    9.6662    8.5229    0.0000 C   0  0  0  0  0  0  0  0  0  0  0  0
    8.7846    7.3094    0.0000 C   0  0  0  0  0  0  0  0  0  0  0  0
    7.8104    6.1688    0.0000 C   0  0  0  0  0  0  0  0  0  0  0  0
    6.7497    5.1081    0.0000 C   0  0  0  0  0  0  0  0  0  0  0  0
    5.6091    4.1340    0.0000 C   0  0  0  0  0  0  0  0  0  0  0  0
    4.3956    3.2523    0.0000 C   0  0  0  0  0  0  0  0  0  0  0  0
    3.1166    2.4685    0.0000 C   0  0  0  0  0  0  0  0  0  0  0  0
    1.7801    1.7876    0.0000 C   0  0  0  0  0  0  0  0  0  0  0  0
    0.3943    1.2135    0.0000 C   0  0  0  0  0  0  0  0  0  0  0  0
    1.2760    0.0000    0.0000 C   0  0  0  0  0  0  0  0  0  0  0  0
    0.3943   -1.2135    0.0000 C   0  0  0  0  0  0  0  0  0  0  0  0
   -1.0323   -0.7500    0.0000 C   0  0  0  0  0  0  0  0  0  0  0  0
   -1.0323    0.7500    0.0000 C   0  0  0  0  0  0  0  0  0  0  0  0
  1  2  1  0
  2  3  1  0
  3  4  2  0
  4  5  1  0
  5  6  2  0
  6  7  1  0
  7  8  1  0
  8  9  1  0
  9 10  1  0
 10 11  1  0
 11 12  1  0
 12 13  1  0
 13 14  1  0
 14 15  1  0
 15 16  1  0
 16 17  1  0
 17 18  1  0
 18 19  1  0
 19 20  1  0
 20 21  1  0
 21 22  1  0
 22 23  1  0
 23 24  1  0
 24 25  1  0
 25 26  1  0
 26 27  1  0
 27 28  1  0
 28 29  1  0
 29 30  1  0
 30 31  1  0
 31 32  1  0
 32 33  1  0
 33 34  1  0
 34 35  1  0
 35 36  1  0
 36 37  1  0
 37 38  1  0
 38 39  1  0
 39 40  1  0
 40 41  1  0
 41 42  1  0
 42 43  1  0
 43 44  1  0
 44 45  1  0
 45 46  1  0
 46 47  1  0
 47 48  1  0
 48 49  1  0
 49 50  1  0
 50 51  1  0
 51 52  1  0
 52 53  1  0
 53 54  1  0
 54 55  1  0
 55 56  1  0
 56 57  1  0
 57 58  1  0
 58 59  1  0
 59 60  1  0
 60 61  1  0
 61 62  1  0
 62 63  1  0
 63 64  1  0
 64 65  1  0
 65 66  1  0
 66 67  1  0
 67 68  1  0
 68 69  1  0
 69 70  1  0
 70 71  1  0
 71 72  1  0
 72 73  1  0
 73 74  1  0
 74 75  1  0
 75 76  2  0
 76 77  1  0
 77 78  2  0
 78 79  1  0
 79 80  2  0
 80 81  1  0
 81 82  2  0
 82 83  1  0
 83 84  2  0
 84  2  1  0
 84 80  1  0
M  END
>  <Title>  (287) 
idAAJCgen13

$$$$

     RDKit          2D

 90 91  0  0  0  0  0  0  0  0999 V2000
    9.9462    4.4750    0.0000 C   0  0  0  0  0  0  0  0  0  0  0  0
   10.7433    4.4641    0.0000 C   0  0  0  0  0  0  0  0  0  0  0  0
   10.8707    5.9587    0.0000 C   0  0  0  0  0  0  0  0  0  0  0  0
   11.2096    7.4199    0.0000 C   0  0  0  0  0  0  0  0  0  0  0  0
   11.7529    8.8180    0.0000 C   0  0  0  0  0  0  0  0  0  0  0  0
   12.4898   10.1246    0.0000 C   0  0  0  0  0  0  0  0  0  0  0  0
   13.4050   11.3130    0.0000 C   0  0  0  0  0  0  0  0  0  0  0  0
   14.4801   12.3591    0.0000 C   0  0  0  0  0  0  0  0  0  0  0  0
   15.6931   13.2415    0.0000 C   0  0  0  0  0  0  0  0  0  0  0  0
   17.0193   13.9423    0.0000 C   0  0  0  0  0  0  0  0  0  0  0  0
   18.4317   14.4472    0.0000 C   0  0  0  0  0  0  0  0  0  0  0  0
   19.9017   14.7460    0.0000 C   0  0  0  0  0  0  0  0  0  0  0  0
   21.3992   14.8325    0.0000 C   0  0  0  0  0  0  0  0  0  0  0  0
   22.8938   14.7051    0.0000 C   0  0  0  0  0  0  0  0  0  0  0  0
   24.3550   14.3662    0.0000 C   0  0  0  0  0  0  0  0  0  0  0  0
   25.7531   13.8229    0.0000 C   0  0  0  0  0  0  0  0  0  0  0  0
   27.0597   13.0861    0.0000 C   0  0  0  0  0  0  0  0  0  0  0  0
   28.2481   12.1708    0.0000 C   0  0  0  0  0  0  0  0  0  0  0  0
   29.2941   11.0957    0.0000 C   0  0  0  0  0  0  0  0  0  0  0  0
   30.1766    9.8828    0.0000 C   0  0  0  0  0  0  0  0  0  0  0  0
   30.8774    8.5565    0.0000 C   0  0  0  0  0  0  0  0  0  0  0  0
   31.3823    7.1441    0.0000 C   0  0  0  0  0  0  0  0  0  0  0  0
   31.6811    5.6741    0.0000 C   0  0  0  0  0  0  0  0  0  0  0  0
   31.7676    4.1766    0.0000 C   0  0  0  0  0  0  0  0  0  0  0  0
   31.6402    2.6820    0.0000 C   0  0  0  0  0  0  0  0  0  0  0  0
   31.3013    1.2208    0.0000 C   0  0  0  0  0  0  0  0  0  0  0  0
   30.7579   -0.1773    0.0000 C   0  0  0  0  0  0  0  0  0  0  0  0
   30.0211   -1.4839    0.0000 C   0  0  0  0  0  0  0  0  0  0  0  0
   29.1059   -2.6723    0.0000 C   0  0  0  0  0  0  0  0  0  0  0  0
   28.0308   -3.7183    0.0000 C   0  0  0  0  0  0  0  0  0  0  0  0
   26.8178   -4.6008    0.0000 C   0  0  0  0  0  0  0  0  0  0  0  0
   25.4916   -5.3016    0.0000 C   0  0  0  0  0  0  0  0  0  0  0  0
   24.0792   -5.8065    0.0000 C   0  0  0  0  0  0  0  0  0  0  0  0
   22.6092   -6.1053    0.0000 C   0  0  0  0  0  0  0  0  0  0  0  0
   21.1117   -6.1918    0.0000 C   0  0  0  0  0  0  0  0  0  0  0  0
   19.6171   -6.0644    0.0000 C   0  0  0  0  0  0  0  0  0  0  0  0
   18.1559   -5.7255    0.0000 C   0  0  0  0  0  0  0  0  0  0  0  0
   16.7578   -5.1821    0.0000 C   0  0  0  0  0  0  0  0  0  0  0  0
   15.4512   -4.4453    0.0000 C   0  0  0  0  0  0  0  0  0  0  0  0
   14.2628   -3.5301    0.0000 C   0  0  0  0  0  0  0  0  0  0  0  0
   13.2167   -2.4550    0.0000 C   0  0  0  0  0  0  0  0  0  0  0  0
   12.3343   -1.2420    0.0000 C   0  0  0  0  0  0  0  0  0  0  0  0
   11.6335    0.0842    0.0000 C   0  0  0  0  0  0  0  0  0  0  0  0
   11.1286    1.4967    0.0000 C   0  0  0  0  0  0  0  0  0  0  0  0
   10.5288   -0.0000    0.0000 C   0  0  0  0  0  0  0  0  0  0  0  0
   10.4348   -1.4033    0.0000 C   0  0  0  0  0  0  0  0  0  0  0  0
   10.1547   -2.7817    0.0000 C   0  0  0  0  0  0  0  0  0  0  0  0
    9.6933   -4.1103    0.0000 C   0  0  0  0  0  0  0  0  0  0  0  0
    9.0590   -5.3656    0.0000 C   0  0  0  0  0  0  0  0  0  0  0  0
    8.2630   -6.5252    0.0000 C   0  0  0  0  0  0  0  0  0  0  0  0
    7.3195   -7.5683    0.0000 C   0  0  0  0  0  0  0  0  0  0  0  0
    6.2455   -8.4764    0.0000 C   0  0  0  0  0  0  0  0  0  0  0  0
    5.0599   -9.2332    0.0000 C   0  0  0  0  0  0  0  0  0  0  0  0
    3.7841   -9.8253    0.0000 C   0  0  0  0  0  0  0  0  0  0  0  0
    2.4408  -10.2420    0.0000 C   0  0  0  0  0  0  0  0  0  0  0  0
    1.0539  -10.4759    0.0000 C   0  0  0  0  0  0  0  0  0  0  0  0
   -0.3518  -10.5229    0.0000 C   0  0  0  0  0  0  0  0  0  0  0  0
   -1.7512  -10.3821    0.0000 C   0  0  0  0  0  0  0  0  0  0  0  0
   -3.1194  -10.0561    0.0000 C   0  0  0  0  0  0  0  0  0  0  0  0
   -4.4319   -9.5506    0.0000 C   0  0  0  0  0  0  0  0  0  0  0  0
   -5.6654   -8.8746    0.0000 C   0  0  0  0  0  0  0  0  0  0  0  0
   -6.7977   -8.0403    0.0000 C   0  0  0  0  0  0  0  0  0  0  0  0
   -7.8087   -7.0625    0.0000 C   0  0  0  0  0  0  0  0  0  0  0  0
   -8.6804   -5.9587    0.0000 C   0  0  0  0  0  0  0  0  0  0  0  0
   -9.3971   -4.7486    0.0000 C   0  0  0  0  0  0  0  0  0  0  0  0
   -9.9462   -3.4537    0.0000 C   0  0  0  0  0  0  0  0  0  0  0  0
  -10.3178   -2.0972    0.0000 C   0  0  0  0  0  0  0  0  0  0  0  0
  -10.5053   -0.7032    0.0000 C   0  0  0  0  0  0  0  0  0  0  0  0
  -10.5053    0.7032    0.0000 C   0  0  0  0  0  0  0  0  0  0  0  0
  -10.3178    2.0972    0.0000 C   0  0  0  0  0  0  0  0  0  0  0  0
   -9.9462    3.4537    0.0000 C   0  0  0  0  0  0  0  0  0  0  0  0
   -9.3971    4.7486    0.0000 C   0  0  0  0  0  0  0  0  0  0  0  0
   -8.6804    5.9587    0.0000 C   0  0  0  0  0  0  0  0  0  0  0  0
   -7.8087    7.0625    0.0000 C   0  0  0  0  0  0  0  0  0  0  0  0
   -6.7977    8.0403    0.0000 C   0  0  0  0  0  0  0  0  0  0  0  0
   -5.6654    8.8746    0.0000 C   0  0  0  0  0  0  0  0  0  0  0  0
   -4.4319    9.5506    0.0000 C   0  0  0  0  0  0  0  0  0  0  0  0
   -3.1194   10.0561    0.0000 C   0  0  0  0  0  0  0  0  0  0  0  0
   -1.7512   10.3821    0.0000 C   0  0  0  0  0  0  0  0  0  0  0  0
   -0.3518   10.5229    0.0000 C   0  0  0  0  0  0  0  0  0  0  0  0
    1.0539   10.4759    0.0000 C   0  0  0  0  0  0  0  0  0  0  0  0
    2.4408   10.2420    0.0000 C   0  0  0  0  0  0  0  0  0  0  0  0
    3.7841    9.8253    0.0000 C   0  0  0  0  0  0  0  0  0  0  0  0
    5.0599    9.2332    0.0000 C   0  0  0  0  0  0  0  0  0  0  0  0
    6.2455    8.4764    0.0000 C   0  0  0  0  0  0  0  0  0  0  0  0
    7.3195    7.5683    0.0000 C   0  0  0  0  0  0  0  0  0  0  0  0
    8.2630    6.5252    0.0000 C   0  0  0  0  0  0  0  0  0  0  0  0
    9.0590    5.3656    0.0000 C   0  0  0  0  0  0  0  0  0  0  0  0
    9.6933    4.1103    0.0000 C   0  0  0  0  0  0  0  0  0  0  0  0
   10.8298    2.9666    0.0000 C   0  0  0  0  0  0  0  0  0  0  0  0
  1  2  1  0
  2  3  1  0
  3  4  1  0
  4  5  1  0
  5  6  1  0
  6  7  1  0
  7  8  1  0
  8  9  1  0
  9 10  1  0
 10 11  1  0
 11 12  1  0
 12 13  1  0
 13 14  1  0
 14 15  1  0
 15 16  1  0
 16 17  1  0
 17 18  1  0
 18 19  1  0
 19 20  1  0
 20 21  1  0
 21 22  1  0
 22 23  1  0
 23 24  1  0
 24 25  1  0
 25 26  1  0
 26 27  1  0
 27 28  1  0
 28 29  1  0
 29 30  1  0
 30 31  1  0
 31 32  1  0
 32 33  1  0
 33 34  1  0
 34 35  1  0
 35 36  1  0
 36 37  1  0
 37 38  1  0
 38 39  1  0
 39 40  1  0
 40 41  1  0
 41 42  1  0
 42 43  1  0
 43 44  1  0
 44 45  1  0
 45 46  1  0
 46 47  1  0
 47 48  2  0
 48 49  1  0
 49 50  2  0
 50 51  1  0
 51 52  2  0
 52 53  1  0
 53 54  2  0
 54 55  1  0
 55 56  2  0
 56 57  1  0
 57 58  2  0
 58 59  1  0
 59 60  2  0
 60 61  1  0
 61 62  2  0
 62 63  1  0
 63 64  2  0
 64 65  1  0
 65 66  2  0
 66 67  1  0
 67 68  2  0
 68 69  1  0
 69 70  2  0
 70 71  1  0
 71 72  2  0
 72 73  1  0
 73 74  2  0
 74 75  1  0
 75 76  2  0
 76 77  1  0
 77 78  2  0
 78 79  1  0
 79 80  2  0
 80 81  1  0
 81 82  2  0
 82 83  1  0
 83 84  2  0
 84 85  1  0
 85 86  2  0
 86 87  1  0
 87 88  2  0
 88 89  1  0
 89 90  2  0
 90  2  1  0
 90 44  1  0
M  END
>  <Title>  (288) 
idAAJDgen13

$$$$

     RDKit          2D

 78 79  0  0  0  0  0  0  0  0999 V2000
   -2.2145   -1.0648    0.0000 C   0  0  0  0  0  0  0  0  0  0  0  0
   -2.4930    0.4091    0.0000 C   0  0  0  0  0  0  0  0  0  0  0  0
   -3.9774    0.1934    0.0000 C   0  0  0  0  0  0  0  0  0  0  0  0
   -5.4748    0.1043    0.0000 C   0  0  0  0  0  0  0  0  0  0  0  0
   -6.9743    0.1425    0.0000 C   0  0  0  0  0  0  0  0  0  0  0  0
   -8.4652    0.3077    0.0000 C   0  0  0  0  0  0  0  0  0  0  0  0
   -9.9367    0.5988    0.0000 C   0  0  0  0  0  0  0  0  0  0  0  0
  -11.3782    1.0136    0.0000 C   0  0  0  0  0  0  0  0  0  0  0  0
  -12.7793    1.5492    0.0000 C   0  0  0  0  0  0  0  0  0  0  0  0
  -14.1300    2.2016    0.0000 C   0  0  0  0  0  0  0  0  0  0  0  0
  -15.4204    2.9663    0.0000 C   0  0  0  0  0  0  0  0  0  0  0  0
  -16.6414    3.8376    0.0000 C   0  0  0  0  0  0  0  0  0  0  0  0
  -17.7841    4.8094    0.0000 C   0  0  0  0  0  0  0  0  0  0  0  0
  -18.8402    5.8745    0.0000 C   0  0  0  0  0  0  0  0  0  0  0  0
  -19.8022    7.0254    0.0000 C   0  0  0  0  0  0  0  0  0  0  0  0
  -20.6632    8.2537    0.0000 C   0  0  0  0  0  0  0  0  0  0  0  0
  -21.4168    9.5506    0.0000 C   0  0  0  0  0  0  0  0  0  0  0  0
  -22.0578   10.9068    0.0000 C   0  0  0  0  0  0  0  0  0  0  0  0
  -22.5815   12.3124    0.0000 C   0  0  0  0  0  0  0  0  0  0  0  0
  -22.9840   13.7574    0.0000 C   0  0  0  0  0  0  0  0  0  0  0  0
  -23.2626   15.2313    0.0000 C   0  0  0  0  0  0  0  0  0  0  0  0
  -23.4152   16.7235    0.0000 C   0  0  0  0  0  0  0  0  0  0  0  0
  -23.4406   18.2233    0.0000 C   0  0  0  0  0  0  0  0  0  0  0  0
  -23.3388   19.7198    0.0000 C   0  0  0  0  0  0  0  0  0  0  0  0
  -23.1105   21.2024    0.0000 C   0  0  0  0  0  0  0  0  0  0  0  0
  -22.7572   22.6602    0.0000 C   0  0  0  0  0  0  0  0  0  0  0  0
  -22.2816   24.0828    0.0000 C   0  0  0  0  0  0  0  0  0  0  0  0
  -21.6870   25.4599    0.0000 C   0  0  0  0  0  0  0  0  0  0  0  0
  -20.9778   26.7817    0.0000 C   0  0  0  0  0  0  0  0  0  0  0  0
  -20.1591   28.0385    0.0000 C   0  0  0  0  0  0  0  0  0  0  0  0
  -19.2367   29.2214    0.0000 C   0  0  0  0  0  0  0  0  0  0  0  0
  -18.2174   30.3218    0.0000 C   0  0  0  0  0  0  0  0  0  0  0  0
  -17.1083   31.3318    0.0000 C   0  0  0  0  0  0  0  0  0  0  0  0
  -15.9177   32.2441    0.0000 C   0  0  0  0  0  0  0  0  0  0  0  0
  -14.6539   33.0521    0.0000 C   0  0  0  0  0  0  0  0  0  0  0  0
  -13.3262   33.7501    0.0000 C   0  0  0  0  0  0  0  0  0  0  0  0
  -11.9440   34.3329    0.0000 C   0  0  0  0  0  0  0  0  0  0  0  0
  -10.5175   34.7964    0.0000 C   0  0  0  0  0  0  0  0  0  0  0  0
   -9.0567   35.1373    0.0000 C   0  0  0  0  0  0  0  0  0  0  0  0
   -7.5723   35.3531    0.0000 C   0  0  0  0  0  0  0  0  0  0  0  0
   -6.0749   35.4422    0.0000 C   0  0  0  0  0  0  0  0  0  0  0  0
   -4.5754   35.4040    0.0000 C   0  0  0  0  0  0  0  0  0  0  0  0
   -3.0846   35.2387    0.0000 C   0  0  0  0  0  0  0  0  0  0  0  0
   -1.6131   34.9477    0.0000 C   0  0  0  0  0  0  0  0  0  0  0  0
   -0.1716   34.5329    0.0000 C   0  0  0  0  0  0  0  0  0  0  0  0
    1.2296   33.9973    0.0000 C   0  0  0  0  0  0  0  0  0  0  0  0
    2.5802   33.3448    0.0000 C   0  0  0  0  0  0  0  0  0  0  0  0
    3.8707   32.5802    0.0000 C   0  0  0  0  0  0  0  0  0  0  0  0
    5.0917   31.7088    0.0000 C   0  0  0  0  0  0  0  0  0  0  0  0
    6.2343   30.7371    0.0000 C   0  0  0  0  0  0  0  0  0  0  0  0
    7.2905   29.6719    0.0000 C   0  0  0  0  0  0  0  0  0  0  0  0
    8.2525   28.5210    0.0000 C   0  0  0  0  0  0  0  0  0  0  0  0
    9.1134   27.2927    0.0000 C   0  0  0  0  0  0  0  0  0  0  0  0
    9.8671   25.9958    0.0000 C   0  0  0  0  0  0  0  0  0  0  0  0
   10.5081   24.6396    0.0000 C   0  0  0  0  0  0  0  0  0  0  0  0
   11.0317   23.2340    0.0000 C   0  0  0  0  0  0  0  0  0  0  0  0
   11.4343   21.7890    0.0000 C   0  0  0  0  0  0  0  0  0  0  0  0
   11.7129   20.3151    0.0000 C   0  0  0  0  0  0  0  0  0  0  0  0
   11.8654   18.8229    0.0000 C   0  0  0  0  0  0  0  0  0  0  0  0
   11.8909   17.3231    0.0000 C   0  0  0  0  0  0  0  0  0  0  0  0
   11.7891   15.8266    0.0000 C   0  0  0  0  0  0  0  0  0  0  0  0
   11.5607   14.3441    0.0000 C   0  0  0  0  0  0  0  0  0  0  0  0
   11.2075   12.8863    0.0000 C   0  0  0  0  0  0  0  0  0  0  0  0
   10.7318   11.4637    0.0000 C   0  0  0  0  0  0  0  0  0  0  0  0
   10.1373   10.0865    0.0000 C   0  0  0  0  0  0  0  0  0  0  0  0
    9.4281    8.7648    0.0000 C   0  0  0  0  0  0  0  0  0  0  0  0
    8.6094    7.5079    0.0000 C   0  0  0  0  0  0  0  0  0  0  0  0
    7.6870    6.3250    0.0000 C   0  0  0  0  0  0  0  0  0  0  0  0
    6.6676    5.2246    0.0000 C   0  0  0  0  0  0  0  0  0  0  0  0
    5.5586    4.2147    0.0000 C   0  0  0  0  0  0  0  0  0  0  0  0
    4.3679    3.3024    0.0000 C   0  0  0  0  0  0  0  0  0  0  0  0
    3.1042    2.4943    0.0000 C   0  0  0  0  0  0  0  0  0  0  0  0
    1.7764    1.7964    0.0000 C   0  0  0  0  0  0  0  0  0  0  0  0
    0.3943    1.2135    0.0000 C   0  0  0  0  0  0  0  0  0  0  0  0
    1.2760    0.0000    0.0000 C   0  0  0  0  0  0  0  0  0  0  0  0
    0.3943   -1.2135    0.0000 C   0  0  0  0  0  0  0  0  0  0  0  0
   -1.0323   -0.7500    0.0000 C   0  0  0  0  0  0  0  0  0  0  0  0
   -1.0323    0.7500    0.0000 C   0  0  0  0  0  0  0  0  0  0  0  0
  1  2  1  0
  2  3  1  0
  3  4  1  0
  4  5  1  0
  5  6  1  0
  6  7  1  0
  7  8  1  0
  8  9  1  0
  9 10  1  0
 10 11  1  0
 11 12  1  0
 12 13  1  0
 13 14  1  0
 14 15  1  0
 15 16  1  0
 16 17  1  0
 17 18  1  0
 18 19  1  0
 19 20  1  0
 20 21  1  0
 21 22  1  0
 22 23  1  0
 23 24  1  0
 24 25  1  0
 25 26  1  0
 26 27  1  0
 27 28  1  0
 28 29  1  0
 29 30  1  0
 30 31  1  0
 31 32  1  0
 32 33  1  0
 33 34  1  0
 34 35  1  0
 35 36  1  0
 36 37  1  0
 37 38  1  0
 38 39  1  0
 39 40  1  0
 40 41  1  0
 41 42  1  0
 42 43  1  0
 43 44  1  0
 44 45  1  0
 45 46  1  0
 46 47  1  0
 47 48  1  0
 48 49  1  0
 49 50  1  0
 50 51  1  0
 51 52  1  0
 52 53  1  0
 53 54  1  0
 54 55  1  0
 55 56  1  0
 56 57  1  0
 57 58  1  0
 58 59  1  0
 59 60  1  0
 60 61  1  0
 61 62  1  0
 62 63  1  0
 63 64  2  0
 64 65  1  0
 65 66  2  0
 66 67  1  0
 67 68  2  0
 68 69  1  0
 69 70  2  0
 70 71  1  0
 71 72  2  0
 72 73  1  0
 73 74  2  0
 74 75  1  0
 75 76  2  0
 76 77  1  0
 77 78  2  0
 78  2  1  0
 78 74  1  0
M  END
>  <Title>  (289) 
idAAJEgen13

$$$$

     RDKit          2D

 30 29  0  0  0  0  0  0  0  0999 V2000
    0.0000    0.0000    0.0000 C   0  0  0  0  0  0  0  0  0  0  0  0
   -0.0000   -1.5000    0.0000 C   0  0  0  0  0  0  0  0  0  0  0  0
   -0.0000   -3.0000    0.0000 C   0  0  0  0  0  0  0  0  0  0  0  0
   -0.0000   -4.5000    0.0000 C   0  0  0  0  0  0  0  0  0  0  0  0
   -0.0000   -6.0000    0.0000 C   0  0  0  0  0  0  0  0  0  0  0  0
   -0.0000   -7.5000    0.0000 C   0  0  0  0  0  0  0  0  0  0  0  0
   -0.0000   -9.0000    0.0000 C   0  0  0  0  0  0  0  0  0  0  0  0
   -0.0000  -10.5000    0.0000 C   0  0  0  0  0  0  0  0  0  0  0  0
   -0.0000  -12.0000    0.0000 C   0  0  0  0  0  0  0  0  0  0  0  0
   -0.0000  -13.5000    0.0000 C   0  0  0  0  0  0  0  0  0  0  0  0
   -0.0000  -15.0000    0.0000 C   0  0  0  0  0  0  0  0  0  0  0  0
   -0.0000  -16.5000    0.0000 C   0  0  0  0  0  0  0  0  0  0  0  0
   -0.0000  -18.0000    0.0000 C   0  0  0  0  0  0  0  0  0  0  0  0
   -0.0000  -19.5000    0.0000 C   0  0  0  0  0  0  0  0  0  0  0  0
   -0.0000  -21.0000    0.0000 C   0  0  0  0  0  0  0  0  0  0  0  0
   -0.0000  -22.5000    0.0000 C   0  0  0  0  0  0  0  0  0  0  0  0
   -0.0000  -24.0000    0.0000 C   0  0  0  0  0  0  0  0  0  0  0  0
   -0.0000  -25.5000    0.0000 C   0  0  0  0  0  0  0  0  0  0  0  0
   -0.0000  -27.0000    0.0000 C   0  0  0  0  0  0  0  0  0  0  0  0
   -0.0000  -28.5000    0.0000 C   0  0  0  0  0  0  0  0  0  0  0  0
   -0.0000  -30.0000    0.0000 C   0  0  0  0  0  0  0  0  0  0  0  0
   -0.0000  -31.5000    0.0000 C   0  0  0  0  0  0  0  0  0  0  0  0
   -0.0000  -33.0000    0.0000 C   0  0  0  0  0  0  0  0  0  0  0  0
   -0.0000  -34.5000    0.0000 C   0  0  0  0  0  0  0  0  0  0  0  0
   -0.0000  -36.0000    0.0000 C   0  0  0  0  0  0  0  0  0  0  0  0
   -0.0000  -37.5000    0.0000 C   0  0  0  0  0  0  0  0  0  0  0  0
   -0.0000  -39.0000    0.0000 C   0  0  0  0  0  0  0  0  0  0  0  0
    1.2990  -39.7500    0.0000 C   0  0  0  0  0  0  0  0  0  0  0  0
    1.2990  -41.2500    0.0000 C   0  0  0  0  0  0  0  0  0  0  0  0
    1.2990  -42.7500    0.0000 C   0  0  0  0  0  0  0  0  0  0  0  0
  1  2  3  0
  2  3  1  0
  3  4  3  0
  4  5  1  0
  5  6  3  0
  6  7  1  0
  7  8  3  0
  8  9  1  0
  9 10  3  0
 10 11  1  0
 11 12  3  0
 12 13  1  0
 13 14  3  0
 14 15  1  0
 15 16  3  0
 16 17  1  0
 17 18  3  0
 18 19  1  0
 19 20  3  0
 20 21  1  0
 21 22  3  0
 22 23  1  0
 23 24  3  0
 24 25  1  0
 25 26  3  0
 26 27  1  0
 27 28  2  3
 28 29  1  0
 29 30  3  0
M  END
>  <Title>  (290) 
idAAJFgen13

$$$$

     RDKit          2D

 35 39  0  0  0  0  0  0  0  0999 V2000
   -4.5000   -2.5981    0.0000 C   0  0  0  0  0  0  0  0  0  0  0  0
   -3.0000   -2.5981    0.0000 C   0  0  0  0  0  0  0  0  0  0  0  0
   -1.5000   -2.5981    0.0000 C   0  0  0  0  0  0  0  0  0  0  0  0
   -0.7500   -3.8971    0.0000 C   0  0  0  0  0  0  0  0  0  0  0  0
    0.7500   -3.8971    0.0000 C   0  0  0  0  0  0  0  0  0  0  0  0
    1.5000   -2.5981    0.0000 C   0  0  0  0  0  0  0  0  0  0  0  0
    3.0000   -2.5981    0.0000 C   0  0  0  0  0  0  0  0  0  0  0  0
    3.7500   -1.2990    0.0000 O   0  0  0  0  0  0  0  0  0  0  0  0
    3.7500   -3.8971    0.0000 N   0  0  0  0  0  0  0  0  0  0  0  0
    5.2500   -3.8971    0.0000 C   0  0  0  0  0  0  0  0  0  0  0  0
    6.1317   -2.6836    0.0000 N   0  0  0  0  0  0  0  0  0  0  0  0
    7.5583   -3.1471    0.0000 N   0  0  0  0  0  0  0  0  0  0  0  0
    7.5583   -4.6471    0.0000 N   0  0  0  0  0  0  0  0  0  0  0  0
    6.1317   -5.1106    0.0000 N   0  0  0  0  0  0  0  0  0  0  0  0
    5.6682   -6.5372    0.0000 N   0  0  0  0  0  0  0  0  0  0  0  0
    6.5498   -7.7508    0.0000 C   0  0  0  0  0  0  0  0  0  0  0  0
    5.6682   -8.9643    0.0000 C   0  0  0  0  0  0  0  0  0  0  0  0
    4.2416   -8.5008    0.0000 N   0  0  0  0  0  0  0  0  0  0  0  0
    3.0280   -9.3824    0.0000 C   0  0  0  0  0  0  0  0  0  0  0  0
    3.1848  -10.8742    0.0000 O   0  0  0  0  0  0  0  0  0  0  0  0
    1.6577   -8.7723    0.0000 N   0  0  0  0  0  0  0  0  0  0  0  0
    0.4442   -9.6540    0.0000 C   0  0  0  0  0  0  0  0  0  0  0  0
   -0.9261   -9.0439    0.0000 N   0  0  0  0  0  0  0  0  0  0  0  0
   -2.1396   -9.9256    0.0000 N   0  0  0  0  0  0  0  0  0  0  0  0
   -1.9829  -11.4174    0.0000 N   0  0  0  0  0  0  0  0  0  0  0  0
   -0.6125  -12.0275    0.0000 N   0  0  0  0  0  0  0  0  0  0  0  0
    0.6010  -11.1458    0.0000 N   0  0  0  0  0  0  0  0  0  0  0  0
    4.2416   -7.0008    0.0000 C   0  0  0  0  0  0  0  0  0  0  0  0
    3.0280   -6.1191    0.0000 O   0  0  0  0  0  0  0  0  0  0  0  0
    0.7500   -1.2990    0.0000 C   0  0  0  0  0  0  0  0  0  0  0  0
    1.5000    0.0000    0.0000 C   0  0  0  0  0  0  0  0  0  0  0  0
    0.7500    1.2990    0.0000 C   0  0  0  0  0  0  0  0  0  0  0  0
   -0.7500    1.2990    0.0000 C   0  0  0  0  0  0  0  0  0  0  0  0
   -1.5000    0.0000    0.0000 C   0  0  0  0  0  0  0  0  0  0  0  0
   -0.7500   -1.2990    0.0000 C   0  0  0  0  0  0  0  0  0  0  0  0
  1  2  3  0
  2  3  1  0
  3  4  2  0
  4  5  1  0
  5  6  2  0
  6  7  1  0
  7  8  2  0
  7  9  1  0
  9 10  1  0
 10 11  2  0
 11 12  1  0
 12 13  2  0
 13 14  1  0
 14 15  1  0
 15 16  1  0
 16 17  1  0
 17 18  1  0
 18 19  1  0
 19 20  2  0
 19 21  1  0
 21 22  1  0
 22 23  2  0
 23 24  1  0
 24 25  2  0
 25 26  1  0
 26 27  2  0
 18 28  1  0
 28 29  2  0
  6 30  1  0
 30 31  2  0
 31 32  1  0
 32 33  2  0
 33 34  1  0
 34 35  2  0
 35  3  1  0
 14 10  1  0
 28 15  1  0
 35 30  1  0
 27 22  1  0
M  END
>  <Title>  (291) 
idAAJGgen13

$$$$

     RDKit          2D

  5  5  0  0  0  0  0  0  0  0999 V2000
    1.2760    0.0000    0.0000 C   0  0  0  0  0  0  0  0  0  0  0  0
    0.3943    1.2135    0.0000 C   0  0  0  0  0  0  0  0  0  0  0  0
   -1.0323    0.7500    0.0000 C   0  0  0  0  0  0  0  0  0  0  0  0
   -1.0323   -0.7500    0.0000 C   0  0  0  0  0  0  0  0  0  0  0  0
    0.3943   -1.2135    0.0000 C   0  0  0  0  0  0  0  0  0  0  0  0
  1  2  2  0
  2  3  1  0
  3  4  1  0
  4  5  2  0
  5  1  1  0
M  END
>  <Title>  (292) 
idAAJHgen13

$$$$

     RDKit          2D

  6  5  0  0  0  0  0  0  0  0999 V2000
    0.0000    0.0000    0.0000 C   0  0  0  0  0  0  0  0  0  0  0  0
   -0.0000   -1.5000    0.0000 C   0  0  0  0  0  0  0  0  0  0  0  0
   -0.0000   -3.0000    0.0000 C   0  0  0  0  0  0  0  0  0  0  0  0
    1.2990   -3.7500    0.0000 C   0  0  0  0  0  0  0  0  0  0  0  0
    1.2990   -5.2500    0.0000 C   0  0  0  0  0  0  0  0  0  0  0  0
    2.5981   -3.0000    0.0000 C   0  0  0  0  0  0  0  0  0  0  0  0
  1  2  3  0
  2  3  1  0
  3  4  1  0
  4  5  1  0
  4  6  1  0
M  END
>  <Title>  (293) 
idAAJIgen13

$$$$

     RDKit          2D

 36 41  0  0  0  0  0  0  0  0999 V2000
   -2.8112   -6.5020    0.0000 O   0  0  0  0  0  0  0  0  0  0  0  0
   -1.3240   -6.3062    0.0000 C   0  0  0  0  0  0  0  0  0  0  0  0
   -0.4109   -7.4962    0.0000 N   0  0  0  0  0  0  0  0  0  0  0  0
   -0.9849   -8.8820    0.0000 C   0  0  0  0  0  0  0  0  0  0  0  0
   -2.4435   -9.2322    0.0000 N   0  0  0  0  0  0  0  0  0  0  0  0
   -2.5612  -10.7276    0.0000 N   0  0  0  0  0  0  0  0  0  0  0  0
   -1.1753  -11.3016    0.0000 N   0  0  0  0  0  0  0  0  0  0  0  0
   -0.2012  -10.1610    0.0000 N   0  0  0  0  0  0  0  0  0  0  0  0
    1.2942  -10.2787    0.0000 N   0  0  0  0  0  0  0  0  0  0  0  0
    2.2684   -9.1381    0.0000 C   0  0  0  0  0  0  0  0  0  0  0  0
    3.6542   -9.7121    0.0000 C   0  0  0  0  0  0  0  0  0  0  0  0
    3.5365  -11.2075    0.0000 N   0  0  0  0  0  0  0  0  0  0  0  0
    4.6771  -12.1816    0.0000 C   0  0  0  0  0  0  0  0  0  0  0  0
    4.4038  -13.6565    0.0000 C   0  0  0  0  0  0  0  0  0  0  0  0
    5.5444  -14.6307    0.0000 C   0  0  0  0  0  0  0  0  0  0  0  0
    6.9583  -14.1300    0.0000 C   0  0  0  0  0  0  0  0  0  0  0  0
    7.2317  -12.6551    0.0000 C   0  0  0  0  0  0  0  0  0  0  0  0
    6.0911  -11.6809    0.0000 C   0  0  0  0  0  0  0  0  0  0  0  0
    2.0780  -11.5576    0.0000 C   0  0  0  0  0  0  0  0  0  0  0  0
    1.5039  -12.9435    0.0000 O   0  0  0  0  0  0  0  0  0  0  0  0
   -0.7500   -4.9204    0.0000 C   0  0  0  0  0  0  0  0  0  0  0  0
    0.7500   -4.9204    0.0000 C   0  0  0  0  0  0  0  0  0  0  0  0
    1.8107   -3.8597    0.0000 C   0  0  0  0  0  0  0  0  0  0  0  0
    1.8107   -2.3597    0.0000 C   0  0  0  0  0  0  0  0  0  0  0  0
    0.7500   -1.2990    0.0000 C   0  0  0  0  0  0  0  0  0  0  0  0
    1.5000    0.0000    0.0000 C   0  0  0  0  0  0  0  0  0  0  0  0
    0.7500    1.2990    0.0000 C   0  0  0  0  0  0  0  0  0  0  0  0
   -0.7500    1.2990    0.0000 C   0  0  0  0  0  0  0  0  0  0  0  0
   -1.5000    0.0000    0.0000 C   0  0  0  0  0  0  0  0  0  0  0  0
   -0.7500   -1.2990    0.0000 C   0  0  0  0  0  0  0  0  0  0  0  0
   -1.8107   -2.3597    0.0000 C   0  0  0  0  0  0  0  0  0  0  0  0
   -3.1097   -1.6097    0.0000 C   0  0  0  0  0  0  0  0  0  0  0  0
   -4.4087   -2.3597    0.0000 C   0  0  0  0  0  0  0  0  0  0  0  0
   -4.4087   -3.8597    0.0000 C   0  0  0  0  0  0  0  0  0  0  0  0
   -3.1097   -4.6097    0.0000 C   0  0  0  0  0  0  0  0  0  0  0  0
   -1.8107   -3.8597    0.0000 C   0  0  0  0  0  0  0  0  0  0  0  0
  1  2  2  0
  2  3  1  0
  3  4  1  0
  4  5  2  0
  5  6  1  0
  6  7  2  0
  7  8  1  0
  8  9  1  0
  9 10  1  0
 10 11  1  0
 11 12  1  0
 12 13  1  0
 13 14  2  0
 14 15  1  0
 15 16  2  0
 16 17  1  0
 17 18  2  0
 12 19  1  0
 19 20  2  0
  2 21  1  0
 21 22  2  0
 22 23  1  0
 23 24  1  0
 24 25  1  0
 25 26  2  0
 26 27  1  0
 27 28  2  0
 28 29  1  0
 29 30  2  0
 30 31  1  0
 31 32  2  0
 32 33  1  0
 33 34  2  0
 34 35  1  0
 35 36  2  0
  8  4  1  0
 19  9  1  0
 36 21  1  0
 18 13  1  0
 30 25  1  0
 36 31  1  0
M  END
>  <Title>  (294) 
idAAJJgen13

$$$$

     RDKit          2D

 35 39  0  0  0  0  0  0  0  0999 V2000
   -3.1476   -2.1380    0.0000 C   0  0  0  0  0  0  0  0  0  0  0  0
   -1.6852   -2.4718    0.0000 C   0  0  0  0  0  0  0  0  0  0  0  0
   -1.3515   -3.9342    0.0000 C   0  0  0  0  0  0  0  0  0  0  0  0
   -0.0000   -4.5850    0.0000 C   0  0  0  0  0  0  0  0  0  0  0  0
    1.3515   -3.9342    0.0000 C   0  0  0  0  0  0  0  0  0  0  0  0
    1.6852   -2.4718    0.0000 C   0  0  0  0  0  0  0  0  0  0  0  0
    3.1476   -2.1380    0.0000 C   0  0  0  0  0  0  0  0  0  0  0  0
    3.5898   -0.7046    0.0000 O   0  0  0  0  0  0  0  0  0  0  0  0
    4.1679   -3.2376    0.0000 N   0  0  0  0  0  0  0  0  0  0  0  0
    5.6303   -2.9038    0.0000 C   0  0  0  0  0  0  0  0  0  0  0  0
    6.2198   -1.5245    0.0000 N   0  0  0  0  0  0  0  0  0  0  0  0
    7.7138   -1.6590    0.0000 N   0  0  0  0  0  0  0  0  0  0  0  0
    8.0476   -3.1214    0.0000 N   0  0  0  0  0  0  0  0  0  0  0  0
    6.7599   -3.8907    0.0000 N   0  0  0  0  0  0  0  0  0  0  0  0
    6.6254   -5.3847    0.0000 C   0  0  0  0  0  0  0  0  0  0  0  0
    7.7550   -6.3716    0.0000 C   0  0  0  0  0  0  0  0  0  0  0  0
    7.1655   -7.7509    0.0000 C   0  0  0  0  0  0  0  0  0  0  0  0
    5.6715   -7.6164    0.0000 C   0  0  0  0  0  0  0  0  0  0  0  0
    4.6846   -8.7460    0.0000 C   0  0  0  0  0  0  0  0  0  0  0  0
    5.1694  -10.1655    0.0000 O   0  0  0  0  0  0  0  0  0  0  0  0
    3.2129   -8.4561    0.0000 N   0  0  0  0  0  0  0  0  0  0  0  0
    2.2260   -9.5857    0.0000 C   0  0  0  0  0  0  0  0  0  0  0  0
    0.7543   -9.2959    0.0000 N   0  0  0  0  0  0  0  0  0  0  0  0
   -0.2326  -10.4255    0.0000 N   0  0  0  0  0  0  0  0  0  0  0  0
    0.2522  -11.8450    0.0000 N   0  0  0  0  0  0  0  0  0  0  0  0
    1.7239  -12.1348    0.0000 N   0  0  0  0  0  0  0  0  0  0  0  0
    2.7108  -11.0052    0.0000 N   0  0  0  0  0  0  0  0  0  0  0  0
    5.3378   -6.1540    0.0000 C   0  0  0  0  0  0  0  0  0  0  0  0
    3.9585   -5.5645    0.0000 O   0  0  0  0  0  0  0  0  0  0  0  0
    0.7500   -1.2990    0.0000 C   0  0  0  0  0  0  0  0  0  0  0  0
    1.5000    0.0000    0.0000 C   0  0  0  0  0  0  0  0  0  0  0  0
    0.7500    1.2990    0.0000 C   0  0  0  0  0  0  0  0  0  0  0  0
   -0.7500    1.2990    0.0000 C   0  0  0  0  0  0  0  0  0  0  0  0
   -1.5000    0.0000    0.0000 C   0  0  0  0  0  0  0  0  0  0  0  0
   -0.7500   -1.2990    0.0000 C   0  0  0  0  0  0  0  0  0  0  0  0
  1  2  1  0
  2  3  2  0
  3  4  1  0
  4  5  1  0
  5  6  2  0
  6  7  1  0
  7  8  2  0
  7  9  1  0
  9 10  1  0
 10 11  2  0
 11 12  1  0
 12 13  2  0
 13 14  1  0
 14 15  1  0
 15 16  2  0
 16 17  1  0
 17 18  2  0
 18 19  1  0
 19 20  2  0
 19 21  1  0
 21 22  1  0
 22 23  2  0
 23 24  1  0
 24 25  2  0
 25 26  1  0
 26 27  2  0
 18 28  1  0
 28 29  2  0
  6 30  1  0
 30 31  2  0
 31 32  1  0
 32 33  2  0
 33 34  1  0
 34 35  2  0
 35  2  1  0
 14 10  1  0
 28 15  1  0
 35 30  1  0
 27 22  1  0
M  END
>  <Title>  (295) 
idAAJKgen13

$$$$

     RDKit          2D

 92 94  0  0  0  0  0  0  0  0999 V2000
   -2.4138    0.0794    0.0000 C   0  0  0  0  0  0  0  0  0  0  0  0
   -2.2458   -1.4111    0.0000 C   0  0  0  0  0  0  0  0  0  0  0  0
   -3.7291   -1.6347    0.0000 C   0  0  0  0  0  0  0  0  0  0  0  0
   -5.1914   -1.9685    0.0000 C   0  0  0  0  0  0  0  0  0  0  0  0
   -6.6248   -2.4106    0.0000 C   0  0  0  0  0  0  0  0  0  0  0  0
   -8.0211   -2.9586    0.0000 C   0  0  0  0  0  0  0  0  0  0  0  0
   -9.3726   -3.6094    0.0000 C   0  0  0  0  0  0  0  0  0  0  0  0
  -10.6716   -4.3594    0.0000 C   0  0  0  0  0  0  0  0  0  0  0  0
  -11.9110   -5.2044    0.0000 C   0  0  0  0  0  0  0  0  0  0  0  0
  -13.0837   -6.1397    0.0000 C   0  0  0  0  0  0  0  0  0  0  0  0
  -14.1833   -7.1599    0.0000 C   0  0  0  0  0  0  0  0  0  0  0  0
  -15.2035   -8.2595    0.0000 C   0  0  0  0  0  0  0  0  0  0  0  0
  -16.1388   -9.4322    0.0000 C   0  0  0  0  0  0  0  0  0  0  0  0
  -16.9838  -10.6716    0.0000 C   0  0  0  0  0  0  0  0  0  0  0  0
  -17.7338  -11.9706    0.0000 C   0  0  0  0  0  0  0  0  0  0  0  0
  -18.3846  -13.3221    0.0000 C   0  0  0  0  0  0  0  0  0  0  0  0
  -18.9326  -14.7184    0.0000 C   0  0  0  0  0  0  0  0  0  0  0  0
  -19.3747  -16.1518    0.0000 C   0  0  0  0  0  0  0  0  0  0  0  0
  -19.7085  -17.6142    0.0000 C   0  0  0  0  0  0  0  0  0  0  0  0
  -19.9321  -19.0974    0.0000 C   0  0  0  0  0  0  0  0  0  0  0  0
  -20.0442  -20.5932    0.0000 C   0  0  0  0  0  0  0  0  0  0  0  0
  -20.0442  -22.0932    0.0000 C   0  0  0  0  0  0  0  0  0  0  0  0
  -19.9321  -23.5890    0.0000 C   0  0  0  0  0  0  0  0  0  0  0  0
  -19.7085  -25.0723    0.0000 C   0  0  0  0  0  0  0  0  0  0  0  0
  -19.3747  -26.5347    0.0000 C   0  0  0  0  0  0  0  0  0  0  0  0
  -18.9326  -27.9680    0.0000 C   0  0  0  0  0  0  0  0  0  0  0  0
  -18.3846  -29.3643    0.0000 C   0  0  0  0  0  0  0  0  0  0  0  0
  -17.7338  -30.7158    0.0000 C   0  0  0  0  0  0  0  0  0  0  0  0
  -16.9838  -32.0148    0.0000 C   0  0  0  0  0  0  0  0  0  0  0  0
  -16.1388  -33.2542    0.0000 C   0  0  0  0  0  0  0  0  0  0  0  0
  -15.2035  -34.4269    0.0000 C   0  0  0  0  0  0  0  0  0  0  0  0
  -14.1833  -35.5265    0.0000 C   0  0  0  0  0  0  0  0  0  0  0  0
  -13.0837  -36.5468    0.0000 C   0  0  0  0  0  0  0  0  0  0  0  0
  -11.9110  -37.4820    0.0000 C   0  0  0  0  0  0  0  0  0  0  0  0
  -10.6716  -38.3270    0.0000 C   0  0  0  0  0  0  0  0  0  0  0  0
   -9.3726  -39.0770    0.0000 C   0  0  0  0  0  0  0  0  0  0  0  0
   -8.0211  -39.7278    0.0000 C   0  0  0  0  0  0  0  0  0  0  0  0
   -6.6248  -40.2758    0.0000 C   0  0  0  0  0  0  0  0  0  0  0  0
   -5.1914  -40.7179    0.0000 C   0  0  0  0  0  0  0  0  0  0  0  0
   -3.7291  -41.0517    0.0000 C   0  0  0  0  0  0  0  0  0  0  0  0
   -2.2458  -41.2753    0.0000 C   0  0  0  0  0  0  0  0  0  0  0  0
   -0.7500  -41.3874    0.0000 C   0  0  0  0  0  0  0  0  0  0  0  0
    0.7500  -41.3874    0.0000 C   0  0  0  0  0  0  0  0  0  0  0  0
    2.2458  -41.2753    0.0000 C   0  0  0  0  0  0  0  0  0  0  0  0
    3.7291  -41.0517    0.0000 C   0  0  0  0  0  0  0  0  0  0  0  0
    5.1914  -40.7179    0.0000 C   0  0  0  0  0  0  0  0  0  0  0  0
    6.6248  -40.2758    0.0000 C   0  0  0  0  0  0  0  0  0  0  0  0
    8.0211  -39.7278    0.0000 C   0  0  0  0  0  0  0  0  0  0  0  0
    9.3726  -39.0770    0.0000 C   0  0  0  0  0  0  0  0  0  0  0  0
   10.6716  -38.3270    0.0000 C   0  0  0  0  0  0  0  0  0  0  0  0
   11.9110  -37.4820    0.0000 C   0  0  0  0  0  0  0  0  0  0  0  0
   13.0837  -36.5468    0.0000 C   0  0  0  0  0  0  0  0  0  0  0  0
   14.1833  -35.5265    0.0000 C   0  0  0  0  0  0  0  0  0  0  0  0
   15.2035  -34.4269    0.0000 C   0  0  0  0  0  0  0  0  0  0  0  0
   16.1388  -33.2542    0.0000 C   0  0  0  0  0  0  0  0  0  0  0  0
   16.9838  -32.0148    0.0000 C   0  0  0  0  0  0  0  0  0  0  0  0
   17.7338  -30.7158    0.0000 C   0  0  0  0  0  0  0  0  0  0  0  0
   18.3846  -29.3643    0.0000 C   0  0  0  0  0  0  0  0  0  0  0  0
   18.9326  -27.9680    0.0000 C   0  0  0  0  0  0  0  0  0  0  0  0
   19.3747  -26.5347    0.0000 C   0  0  0  0  0  0  0  0  0  0  0  0
   19.7085  -25.0723    0.0000 C   0  0  0  0  0  0  0  0  0  0  0  0
   19.9321  -23.5890    0.0000 C   0  0  0  0  0  0  0  0  0  0  0  0
   20.0442  -22.0932    0.0000 C   0  0  0  0  0  0  0  0  0  0  0  0
   20.0442  -20.5932    0.0000 C   0  0  0  0  0  0  0  0  0  0  0  0
   19.9321  -19.0974    0.0000 C   0  0  0  0  0  0  0  0  0  0  0  0
   19.7085  -17.6142    0.0000 C   0  0  0  0  0  0  0  0  0  0  0  0
   19.3747  -16.1518    0.0000 C   0  0  0  0  0  0  0  0  0  0  0  0
   18.9326  -14.7184    0.0000 C   0  0  0  0  0  0  0  0  0  0  0  0
   18.3846  -13.3221    0.0000 C   0  0  0  0  0  0  0  0  0  0  0  0
   17.7338  -11.9706    0.0000 C   0  0  0  0  0  0  0  0  0  0  0  0
   16.9838  -10.6716    0.0000 C   0  0  0  0  0  0  0  0  0  0  0  0
   16.1388   -9.4322    0.0000 C   0  0  0  0  0  0  0  0  0  0  0  0
   15.2035   -8.2595    0.0000 C   0  0  0  0  0  0  0  0  0  0  0  0
   14.1833   -7.1599    0.0000 C   0  0  0  0  0  0  0  0  0  0  0  0
   13.0837   -6.1397    0.0000 C   0  0  0  0  0  0  0  0  0  0  0  0
   11.9110   -5.2044    0.0000 C   0  0  0  0  0  0  0  0  0  0  0  0
   10.6716   -4.3594    0.0000 C   0  0  0  0  0  0  0  0  0  0  0  0
    9.3726   -3.6094    0.0000 C   0  0  0  0  0  0  0  0  0  0  0  0
    8.0211   -2.9586    0.0000 C   0  0  0  0  0  0  0  0  0  0  0  0
    6.6248   -2.4106    0.0000 C   0  0  0  0  0  0  0  0  0  0  0  0
    5.1914   -1.9685    0.0000 C   0  0  0  0  0  0  0  0  0  0  0  0
    3.7291   -1.6347    0.0000 C   0  0  0  0  0  0  0  0  0  0  0  0
    3.9748   -3.1144    0.0000 C   0  0  0  0  0  0  0  0  0  0  0  0
    2.6434   -3.8054    0.0000 C   0  0  0  0  0  0  0  0  0  0  0  0
    1.5748   -2.7527    0.0000 C   0  0  0  0  0  0  0  0  0  0  0  0
    2.2458   -1.4111    0.0000 C   0  0  0  0  0  0  0  0  0  0  0  0
    0.7500   -1.2990    0.0000 C   0  0  0  0  0  0  0  0  0  0  0  0
    1.5000    0.0000    0.0000 C   0  0  0  0  0  0  0  0  0  0  0  0
    0.7500    1.2990    0.0000 C   0  0  0  0  0  0  0  0  0  0  0  0
   -0.7500    1.2990    0.0000 C   0  0  0  0  0  0  0  0  0  0  0  0
   -1.5000    0.0000    0.0000 C   0  0  0  0  0  0  0  0  0  0  0  0
   -0.7500   -1.2990    0.0000 C   0  0  0  0  0  0  0  0  0  0  0  0
  1  2  1  0
  2  3  1  0
  3  4  1  0
  4  5  1  0
  5  6  1  0
  6  7  1  0
  7  8  1  0
  8  9  1  0
  9 10  1  0
 10 11  1  0
 11 12  1  0
 12 13  1  0
 13 14  1  0
 14 15  1  0
 15 16  1  0
 16 17  1  0
 17 18  1  0
 18 19  1  0
 19 20  1  0
 20 21  1  0
 21 22  1  0
 22 23  1  0
 23 24  1  0
 24 25  1  0
 25 26  1  0
 26 27  1  0
 27 28  1  0
 28 29  1  0
 29 30  1  0
 30 31  1  0
 31 32  1  0
 32 33  1  0
 33 34  1  0
 34 35  1  0
 35 36  1  0
 36 37  1  0
 37 38  1  0
 38 39  1  0
 39 40  1  0
 40 41  1  0
 41 42  1  0
 42 43  1  0
 43 44  1  0
 44 45  1  0
 45 46  1  0
 46 47  1  0
 47 48  1  0
 48 49  1  0
 49 50  1  0
 50 51  1  0
 51 52  1  0
 52 53  1  0
 53 54  1  0
 54 55  1  0
 55 56  1  0
 56 57  1  0
 57 58  1  0
 58 59  1  0
 59 60  1  0
 60 61  1  0
 61 62  1  0
 62 63  1  0
 63 64  1  0
 64 65  1  0
 65 66  1  0
 66 67  1  0
 67 68  1  0
 68 69  1  0
 69 70  1  0
 70 71  1  0
 71 72  2  0
 72 73  1  0
 73 74  2  0
 74 75  1  0
 75 76  2  0
 76 77  1  0
 77 78  2  0
 78 79  1  0
 79 80  2  0
 80 81  1  0
 81 82  2  0
 82 83  1  0
 83 84  2  0
 84 85  1  0
 85 86  2  0
 86 87  1  0
 87 88  2  0
 88 89  1  0
 89 90  2  0
 90 91  1  0
 91 92  2  0
 92  2  1  0
 86 82  1  0
 92 87  1  0
M  END
>  <Title>  (296) 
idAAJLgen13

$$$$

     RDKit          2D

  5  4  0  0  0  0  0  0  0  0999 V2000
    0.0000    0.0000    0.0000 C   0  0  0  0  0  0  0  0  0  0  0  0
    1.2990    0.7500    0.0000 C   0  0  0  0  0  0  0  0  0  0  0  0
    2.5981   -0.0000    0.0000 C   0  0  0  0  0  0  0  0  0  0  0  0
    3.8971    0.7500    0.0000 C   0  0  0  0  0  0  0  0  0  0  0  0
    5.1962   -0.0000    0.0000 C   0  0  0  0  0  0  0  0  0  0  0  0
  1  2  2  0
  2  3  1  0
  3  4  2  3
  4  5  1  0
M  END
>  <Title>  (297) 
idAAJMgen13

$$$$

     RDKit          2D

 12 12  0  0  0  0  0  0  0  0999 V2000
   10.5000    0.0000    0.0000 C   0  0  0  0  0  0  0  0  0  0  0  0
    9.0000    0.0000    0.0000 C   0  0  0  0  0  0  0  0  0  0  0  0
    7.5000    0.0000    0.0000 C   0  0  0  0  0  0  0  0  0  0  0  0
    6.0000    0.0000    0.0000 C   0  0  0  0  0  0  0  0  0  0  0  0
    4.5000    0.0000    0.0000 C   0  0  0  0  0  0  0  0  0  0  0  0
    3.0000    0.0000    0.0000 C   0  0  0  0  0  0  0  0  0  0  0  0
    1.5000    0.0000    0.0000 C   0  0  0  0  0  0  0  0  0  0  0  0
    0.7500   -1.2990    0.0000 C   0  0  0  0  0  0  0  0  0  0  0  0
   -0.7500   -1.2990    0.0000 C   0  0  0  0  0  0  0  0  0  0  0  0
   -1.5000    0.0000    0.0000 C   0  0  0  0  0  0  0  0  0  0  0  0
   -0.7500    1.2990    0.0000 C   0  0  0  0  0  0  0  0  0  0  0  0
    0.7500    1.2990    0.0000 C   0  0  0  0  0  0  0  0  0  0  0  0
  1  2  3  0
  2  3  1  0
  3  4  3  0
  4  5  1  0
  5  6  3  0
  6  7  1  0
  7  8  2  0
  8  9  1  0
  9 10  2  0
 10 11  1  0
 11 12  2  0
 12  7  1  0
M  END
>  <Title>  (298) 
idAAJNgen13

$$$$

     RDKit          2D

 82 84  0  0  0  0  0  0  0  0999 V2000
   -2.4351    0.0616    0.0000 C   0  0  0  0  0  0  0  0  0  0  0  0
   -2.2446   -1.4262    0.0000 C   0  0  0  0  0  0  0  0  0  0  0  0
   -3.7230   -1.6797    0.0000 C   0  0  0  0  0  0  0  0  0  0  0  0
   -5.1746   -2.0577    0.0000 C   0  0  0  0  0  0  0  0  0  0  0  0
   -6.5889   -2.5574    0.0000 C   0  0  0  0  0  0  0  0  0  0  0  0
   -7.9558   -3.1753    0.0000 C   0  0  0  0  0  0  0  0  0  0  0  0
   -9.2653   -3.9068    0.0000 C   0  0  0  0  0  0  0  0  0  0  0  0
  -10.5081   -4.7468    0.0000 C   0  0  0  0  0  0  0  0  0  0  0  0
  -11.6751   -5.6891    0.0000 C   0  0  0  0  0  0  0  0  0  0  0  0
  -12.7581   -6.7270    0.0000 C   0  0  0  0  0  0  0  0  0  0  0  0
  -13.7491   -7.8530    0.0000 C   0  0  0  0  0  0  0  0  0  0  0  0
  -14.6410   -9.0590    0.0000 C   0  0  0  0  0  0  0  0  0  0  0  0
  -15.4275  -10.3363    0.0000 C   0  0  0  0  0  0  0  0  0  0  0  0
  -16.1028  -11.6757    0.0000 C   0  0  0  0  0  0  0  0  0  0  0  0
  -16.6621  -13.0675    0.0000 C   0  0  0  0  0  0  0  0  0  0  0  0
  -17.1013  -14.5018    0.0000 C   0  0  0  0  0  0  0  0  0  0  0  0
  -17.4173  -15.9681    0.0000 C   0  0  0  0  0  0  0  0  0  0  0  0
  -17.6078  -17.4560    0.0000 C   0  0  0  0  0  0  0  0  0  0  0  0
  -17.6715  -18.9546    0.0000 C   0  0  0  0  0  0  0  0  0  0  0  0
  -17.6078  -20.4533    0.0000 C   0  0  0  0  0  0  0  0  0  0  0  0
  -17.4173  -21.9411    0.0000 C   0  0  0  0  0  0  0  0  0  0  0  0
  -17.1013  -23.4075    0.0000 C   0  0  0  0  0  0  0  0  0  0  0  0
  -16.6621  -24.8417    0.0000 C   0  0  0  0  0  0  0  0  0  0  0  0
  -16.1028  -26.2335    0.0000 C   0  0  0  0  0  0  0  0  0  0  0  0
  -15.4275  -27.5729    0.0000 C   0  0  0  0  0  0  0  0  0  0  0  0
  -14.6410  -28.8502    0.0000 C   0  0  0  0  0  0  0  0  0  0  0  0
  -13.7491  -30.0562    0.0000 C   0  0  0  0  0  0  0  0  0  0  0  0
  -12.7581  -31.1822    0.0000 C   0  0  0  0  0  0  0  0  0  0  0  0
  -11.6751  -32.2201    0.0000 C   0  0  0  0  0  0  0  0  0  0  0  0
  -10.5081  -33.1625    0.0000 C   0  0  0  0  0  0  0  0  0  0  0  0
   -9.2653  -34.0024    0.0000 C   0  0  0  0  0  0  0  0  0  0  0  0
   -7.9558  -34.7340    0.0000 C   0  0  0  0  0  0  0  0  0  0  0  0
   -6.5889  -35.3518    0.0000 C   0  0  0  0  0  0  0  0  0  0  0  0
   -5.1746  -35.8515    0.0000 C   0  0  0  0  0  0  0  0  0  0  0  0
   -3.7230  -36.2295    0.0000 C   0  0  0  0  0  0  0  0  0  0  0  0
   -2.2446  -36.4830    0.0000 C   0  0  0  0  0  0  0  0  0  0  0  0
   -0.7500  -36.6102    0.0000 C   0  0  0  0  0  0  0  0  0  0  0  0
    0.7500  -36.6102    0.0000 C   0  0  0  0  0  0  0  0  0  0  0  0
    2.2446  -36.4830    0.0000 C   0  0  0  0  0  0  0  0  0  0  0  0
    3.7230  -36.2295    0.0000 C   0  0  0  0  0  0  0  0  0  0  0  0
    5.1746  -35.8515    0.0000 C   0  0  0  0  0  0  0  0  0  0  0  0
    6.5889  -35.3518    0.0000 C   0  0  0  0  0  0  0  0  0  0  0  0
    7.9558  -34.7340    0.0000 C   0  0  0  0  0  0  0  0  0  0  0  0
    9.2653  -34.0024    0.0000 C   0  0  0  0  0  0  0  0  0  0  0  0
   10.5081  -33.1625    0.0000 C   0  0  0  0  0  0  0  0  0  0  0  0
   11.6751  -32.2201    0.0000 C   0  0  0  0  0  0  0  0  0  0  0  0
   12.7581  -31.1822    0.0000 C   0  0  0  0  0  0  0  0  0  0  0  0
   13.7491  -30.0562    0.0000 C   0  0  0  0  0  0  0  0  0  0  0  0
   14.6410  -28.8502    0.0000 C   0  0  0  0  0  0  0  0  0  0  0  0
   15.4275  -27.5729    0.0000 C   0  0  0  0  0  0  0  0  0  0  0  0
   16.1028  -26.2335    0.0000 C   0  0  0  0  0  0  0  0  0  0  0  0
   16.6621  -24.8417    0.0000 C   0  0  0  0  0  0  0  0  0  0  0  0
   17.1013  -23.4075    0.0000 C   0  0  0  0  0  0  0  0  0  0  0  0
   17.4173  -21.9411    0.0000 C   0  0  0  0  0  0  0  0  0  0  0  0
   17.6078  -20.4533    0.0000 C   0  0  0  0  0  0  0  0  0  0  0  0
   17.6715  -18.9546    0.0000 C   0  0  0  0  0  0  0  0  0  0  0  0
   17.6078  -17.4560    0.0000 C   0  0  0  0  0  0  0  0  0  0  0  0
   17.4173  -15.9681    0.0000 C   0  0  0  0  0  0  0  0  0  0  0  0
   17.1013  -14.5018    0.0000 C   0  0  0  0  0  0  0  0  0  0  0  0
   16.6621  -13.0675    0.0000 C   0  0  0  0  0  0  0  0  0  0  0  0
   16.1028  -11.6757    0.0000 C   0  0  0  0  0  0  0  0  0  0  0  0
   15.4275  -10.3363    0.0000 C   0  0  0  0  0  0  0  0  0  0  0  0
   14.6410   -9.0590    0.0000 C   0  0  0  0  0  0  0  0  0  0  0  0
   13.7491   -7.8530    0.0000 C   0  0  0  0  0  0  0  0  0  0  0  0
   12.7581   -6.7270    0.0000 C   0  0  0  0  0  0  0  0  0  0  0  0
   11.6751   -5.6891    0.0000 C   0  0  0  0  0  0  0  0  0  0  0  0
   10.5081   -4.7468    0.0000 C   0  0  0  0  0  0  0  0  0  0  0  0
    9.2653   -3.9068    0.0000 C   0  0  0  0  0  0  0  0  0  0  0  0
    7.9558   -3.1753    0.0000 C   0  0  0  0  0  0  0  0  0  0  0  0
    6.5889   -2.5574    0.0000 C   0  0  0  0  0  0  0  0  0  0  0  0
    5.1746   -2.0577    0.0000 C   0  0  0  0  0  0  0  0  0  0  0  0
    3.7230   -1.6797    0.0000 C   0  0  0  0  0  0  0  0  0  0  0  0
    3.9388   -3.1641    0.0000 C   0  0  0  0  0  0  0  0  0  0  0  0
    2.5937   -3.8281    0.0000 C   0  0  0  0  0  0  0  0  0  0  0  0
    1.5466   -2.7540    0.0000 C   0  0  0  0  0  0  0  0  0  0  0  0
    2.2446   -1.4262    0.0000 C   0  0  0  0  0  0  0  0  0  0  0  0
    0.7500   -1.2990    0.0000 C   0  0  0  0  0  0  0  0  0  0  0  0
    1.5000    0.0000    0.0000 C   0  0  0  0  0  0  0  0  0  0  0  0
    0.7500    1.2990    0.0000 C   0  0  0  0  0  0  0  0  0  0  0  0
   -0.7500    1.2990    0.0000 C   0  0  0  0  0  0  0  0  0  0  0  0
   -1.5000    0.0000    0.0000 C   0  0  0  0  0  0  0  0  0  0  0  0
   -0.7500   -1.2990    0.0000 C   0  0  0  0  0  0  0  0  0  0  0  0
  1  2  1  0
  2  3  1  0
  3  4  1  0
  4  5  1  0
  5  6  1  0
  6  7  1  0
  7  8  1  0
  8  9  1  0
  9 10  1  0
 10 11  1  0
 11 12  1  0
 12 13  1  0
 13 14  1  0
 14 15  1  0
 15 16  1  0
 16 17  1  0
 17 18  1  0
 18 19  1  0
 19 20  1  0
 20 21  1  0
 21 22  1  0
 22 23  1  0
 23 24  1  0
 24 25  1  0
 25 26  1  0
 26 27  1  0
 27 28  1  0
 28 29  1  0
 29 30  1  0
 30 31  1  0
 31 32  1  0
 32 33  1  0
 33 34  1  0
 34 35  1  0
 35 36  2  0
 36 37  1  0
 37 38  2  0
 38 39  1  0
 39 40  2  0
 40 41  1  0
 41 42  2  0
 42 43  1  0
 43 44  2  0
 44 45  1  0
 45 46  2  0
 46 47  1  0
 47 48  2  0
 48 49  1  0
 49 50  2  0
 50 51  1  0
 51 52  2  0
 52 53  1  0
 53 54  2  0
 54 55  1  0
 55 56  2  0
 56 57  1  0
 57 58  2  0
 58 59  1  0
 59 60  2  0
 60 61  1  0
 61 62  2  0
 62 63  1  0
 63 64  2  0
 64 65  1  0
 65 66  2  0
 66 67  1  0
 67 68  2  0
 68 69  1  0
 69 70  2  0
 70 71  1  0
 71 72  2  0
 72 73  1  0
 73 74  2  0
 74 75  1  0
 75 76  2  0
 76 77  1  0
 77 78  2  0
 78 79  1  0
 79 80  2  0
 80 81  1  0
 81 82  2  0
 82  2  1  0
 76 72  1  0
 82 77  1  0
M  END
>  <Title>  (299) 
idAAJOgen13

$$$$

     RDKit          2D

 29 33  0  0  0  0  0  0  0  0999 V2000
    0.7840   -8.9519    0.0000 C   0  0  0  0  0  0  0  0  0  0  0  0
    2.2655   -8.7173    0.0000 C   0  0  0  0  0  0  0  0  0  0  0  0
    3.1472   -7.5037    0.0000 C   0  0  0  0  0  0  0  0  0  0  0  0
    2.9125   -6.0222    0.0000 C   0  0  0  0  0  0  0  0  0  0  0  0
    3.9732   -4.9616    0.0000 C   0  0  0  0  0  0  0  0  0  0  0  0
    3.2922   -3.6250    0.0000 C   0  0  0  0  0  0  0  0  0  0  0  0
    1.8107   -3.8597    0.0000 N   0  0  0  0  0  0  0  0  0  0  0  0
    1.5760   -5.3412    0.0000 N   0  0  0  0  0  0  0  0  0  0  0  0
    0.2395   -6.0222    0.0000 N   0  0  0  0  0  0  0  0  0  0  0  0
    0.0048   -7.5037    0.0000 C   0  0  0  0  0  0  0  0  0  0  0  0
   -1.4767   -7.7384    0.0000 C   0  0  0  0  0  0  0  0  0  0  0  0
   -2.1577   -6.4019    0.0000 N   0  0  0  0  0  0  0  0  0  0  0  0
   -3.6392   -6.1672    0.0000 C   0  0  0  0  0  0  0  0  0  0  0  0
   -4.1768   -4.7669    0.0000 O   0  0  0  0  0  0  0  0  0  0  0  0
   -4.5832   -7.3330    0.0000 N   0  0  0  0  0  0  0  0  0  0  0  0
   -6.0647   -7.0983    0.0000 C   0  0  0  0  0  0  0  0  0  0  0  0
   -6.6023   -5.6979    0.0000 N   0  0  0  0  0  0  0  0  0  0  0  0
   -8.0838   -5.4633    0.0000 N   0  0  0  0  0  0  0  0  0  0  0  0
   -9.0278   -6.6290    0.0000 N   0  0  0  0  0  0  0  0  0  0  0  0
   -8.4902   -8.0294    0.0000 N   0  0  0  0  0  0  0  0  0  0  0  0
   -7.0087   -8.2640    0.0000 N   0  0  0  0  0  0  0  0  0  0  0  0
   -1.0970   -5.3412    0.0000 C   0  0  0  0  0  0  0  0  0  0  0  0
   -1.3317   -3.8597    0.0000 O   0  0  0  0  0  0  0  0  0  0  0  0
    4.3607   -8.3854    0.0000 C   0  0  0  0  0  0  0  0  0  0  0  0
    5.8525   -8.5422    0.0000 C   0  0  0  0  0  0  0  0  0  0  0  0
    6.4626   -9.9125    0.0000 C   0  0  0  0  0  0  0  0  0  0  0  0
    5.5809  -11.1261    0.0000 C   0  0  0  0  0  0  0  0  0  0  0  0
    4.0891  -10.9693    0.0000 C   0  0  0  0  0  0  0  0  0  0  0  0
    3.4790   -9.5990    0.0000 C   0  0  0  0  0  0  0  0  0  0  0  0
  1  2  1  0
  2  3  2  0
  3  4  1  0
  4  5  2  0
  5  6  1  0
  6  7  2  0
  7  8  1  0
  8  9  1  0
  9 10  1  0
 10 11  1  0
 11 12  1  0
 12 13  1  0
 13 14  2  0
 13 15  1  0
 15 16  1  0
 16 17  2  0
 17 18  1  0
 18 19  2  0
 19 20  1  0
 20 21  2  0
 12 22  1  0
 22 23  2  0
  3 24  1  0
 24 25  2  0
 25 26  1  0
 26 27  2  0
 27 28  1  0
 28 29  2  0
 29  2  1  0
  8  4  1  0
 22  9  1  0
 29 24  1  0
 21 16  1  0
M  END
>  <Title>  (300) 
idAAJPgen13

$$$$

     RDKit          2D

 33 37  0  0  0  0  0  0  0  0999 V2000
   -3.1476   -2.1380    0.0000 C   0  0  0  0  0  0  0  0  0  0  0  0
   -1.6852   -2.4718    0.0000 C   0  0  0  0  0  0  0  0  0  0  0  0
   -1.3515   -3.9342    0.0000 C   0  0  0  0  0  0  0  0  0  0  0  0
   -0.0000   -4.5850    0.0000 C   0  0  0  0  0  0  0  0  0  0  0  0
    1.3515   -3.9342    0.0000 C   0  0  0  0  0  0  0  0  0  0  0  0
    1.6852   -2.4718    0.0000 C   0  0  0  0  0  0  0  0  0  0  0  0
    3.1476   -2.1380    0.0000 C   0  0  0  0  0  0  0  0  0  0  0  0
    3.5898   -0.7046    0.0000 O   0  0  0  0  0  0  0  0  0  0  0  0
    4.1679   -3.2376    0.0000 N   0  0  0  0  0  0  0  0  0  0  0  0
    5.6303   -2.9038    0.0000 C   0  0  0  0  0  0  0  0  0  0  0  0
    6.2198   -1.5245    0.0000 N   0  0  0  0  0  0  0  0  0  0  0  0
    7.7138   -1.6590    0.0000 N   0  0  0  0  0  0  0  0  0  0  0  0
    8.0476   -3.1214    0.0000 N   0  0  0  0  0  0  0  0  0  0  0  0
    6.7599   -3.8907    0.0000 N   0  0  0  0  0  0  0  0  0  0  0  0
    6.6254   -5.3847    0.0000 C   0  0  0  0  0  0  0  0  0  0  0  0
    7.7550   -6.3716    0.0000 C   0  0  0  0  0  0  0  0  0  0  0  0
    7.1655   -7.7509    0.0000 C   0  0  0  0  0  0  0  0  0  0  0  0
    5.6715   -7.6164    0.0000 C   0  0  0  0  0  0  0  0  0  0  0  0
    4.6846   -8.7460    0.0000 C   0  0  0  0  0  0  0  0  0  0  0  0
    3.2129   -8.4561    0.0000 N   0  0  0  0  0  0  0  0  0  0  0  0
    2.7281   -7.0366    0.0000 C   0  0  0  0  0  0  0  0  0  0  0  0
    1.2564   -6.7468    0.0000 C   0  0  0  0  0  0  0  0  0  0  0  0
    0.2695   -7.8764    0.0000 C   0  0  0  0  0  0  0  0  0  0  0  0
    0.7543   -9.2959    0.0000 C   0  0  0  0  0  0  0  0  0  0  0  0
    2.2260   -9.5857    0.0000 C   0  0  0  0  0  0  0  0  0  0  0  0
    5.3378   -6.1540    0.0000 C   0  0  0  0  0  0  0  0  0  0  0  0
    3.9585   -5.5645    0.0000 O   0  0  0  0  0  0  0  0  0  0  0  0
    0.7500   -1.2990    0.0000 C   0  0  0  0  0  0  0  0  0  0  0  0
    1.5000    0.0000    0.0000 C   0  0  0  0  0  0  0  0  0  0  0  0
    0.7500    1.2990    0.0000 C   0  0  0  0  0  0  0  0  0  0  0  0
   -0.7500    1.2990    0.0000 C   0  0  0  0  0  0  0  0  0  0  0  0
   -1.5000    0.0000    0.0000 C   0  0  0  0  0  0  0  0  0  0  0  0
   -0.7500   -1.2990    0.0000 C   0  0  0  0  0  0  0  0  0  0  0  0
  1  2  1  0
  2  3  1  0
  3  4  2  0
  4  5  1  0
  5  6  1  0
  6  7  1  0
  7  8  2  0
  7  9  1  0
  9 10  1  0
 10 11  2  0
 11 12  1  0
 12 13  2  0
 13 14  1  0
 14 15  1  0
 15 16  2  0
 16 17  1  0
 17 18  2  0
 18 19  1  0
 19 20  1  0
 20 21  1  0
 21 22  2  0
 22 23  1  0
 23 24  2  0
 24 25  1  0
 18 26  1  0
 26 27  2  0
  6 28  1  0
 28 29  2  0
 29 30  1  0
 30 31  2  0
 31 32  1  0
 32 33  2  0
 33  2  1  0
 14 10  1  0
 26 15  1  0
 33 28  1  0
 25 20  1  0
M  END
>  <Title>  (301) 
idAAJQgen13

$$$$

     RDKit          2D

 10  9  0  0  0  0  0  0  0  0999 V2000
    0.0000    0.0000    0.0000 C   0  0  0  0  0  0  0  0  0  0  0  0
    1.2990    0.7500    0.0000 C   0  0  0  0  0  0  0  0  0  0  0  0
    2.5981   -0.0000    0.0000 C   0  0  0  0  0  0  0  0  0  0  0  0
    3.8971    0.7500    0.0000 N   0  0  0  0  0  0  0  0  0  0  0  0
    5.1962   -0.0000    0.0000 C   0  0  0  0  0  0  0  0  0  0  0  0
    5.1962   -1.5000    0.0000 O   0  0  0  0  0  0  0  0  0  0  0  0
    6.4952    0.7500    0.0000 N   0  0  0  0  0  0  0  0  0  0  0  0
    7.7942   -0.0000    0.0000 C   0  0  0  0  0  0  0  0  0  0  0  0
    9.0933    0.7500    0.0000 C   0  0  0  0  0  0  0  0  0  0  0  0
    7.7942   -1.5000    0.0000 C   0  0  0  0  0  0  0  0  0  0  0  0
  1  2  1  0
  2  3  1  0
  3  4  1  0
  4  5  1  0
  5  6  2  0
  5  7  1  0
  7  8  1  0
  8  9  1  0
  8 10  1  0
M  END
>  <Title>  (302) 
idAAJRgen13

$$$$

     RDKit          2D

 24 25  0  0  0  0  0  0  0  0999 V2000
    8.9429   -3.8971    0.0000 C   0  0  0  0  0  0  0  0  0  0  0  0
    8.1929   -2.5981    0.0000 C   0  0  0  0  0  0  0  0  0  0  0  0
    6.6929   -2.5981    0.0000 C   0  0  0  0  0  0  0  0  0  0  0  0
    5.9429   -1.2990    0.0000 C   0  0  0  0  0  0  0  0  0  0  0  0
    4.4429   -1.2990    0.0000 N   0  0  0  0  0  0  0  0  0  0  0  0
    3.6929    0.0000    0.0000 C   0  0  0  0  0  0  0  0  0  0  0  0
    4.4429    1.2990    0.0000 O   0  0  0  0  0  0  0  0  0  0  0  0
    2.1929    0.0000    0.0000 C   0  0  0  0  0  0  0  0  0  0  0  0
    1.6798    1.4095    0.0000 C   0  0  0  0  0  0  0  0  0  0  0  0
    0.3808    2.1595    0.0000 C   0  0  0  0  0  0  0  0  0  0  0  0
   -1.0964    1.8991    0.0000 C   0  0  0  0  0  0  0  0  0  0  0  0
   -1.8464    3.1981    0.0000 C   0  0  0  0  0  0  0  0  0  0  0  0
   -1.0964    4.4971    0.0000 C   0  0  0  0  0  0  0  0  0  0  0  0
   -1.8464    5.7962    0.0000 C   0  0  0  0  0  0  0  0  0  0  0  0
   -3.3464    5.7962    0.0000 C   0  0  0  0  0  0  0  0  0  0  0  0
   -4.0964    4.4971    0.0000 C   0  0  0  0  0  0  0  0  0  0  0  0
   -3.3464    3.1981    0.0000 C   0  0  0  0  0  0  0  0  0  0  0  0
   -2.0606    0.7500    0.0000 O   0  0  0  0  0  0  0  0  0  0  0  0
   -2.0606   -0.7500    0.0000 C   0  0  0  0  0  0  0  0  0  0  0  0
   -3.4701   -1.2630    0.0000 O   0  0  0  0  0  0  0  0  0  0  0  0
   -1.0964   -1.8991    0.0000 O   0  0  0  0  0  0  0  0  0  0  0  0
    0.3808   -2.1595    0.0000 C   0  0  0  0  0  0  0  0  0  0  0  0
    0.6413   -3.6368    0.0000 C   0  0  0  0  0  0  0  0  0  0  0  0
    1.6798   -1.4095    0.0000 C   0  0  0  0  0  0  0  0  0  0  0  0
  1  2  2  0
  2  3  1  0
  3  4  1  0
  4  5  1  0
  5  6  1  0
  6  7  2  0
  6  8  1  0
  8  9  2  0
  9 10  1  0
 10 11  2  0
 11 12  1  0
 12 13  2  0
 13 14  1  0
 14 15  2  0
 15 16  1  0
 16 17  2  0
 11 18  1  0
 18 19  1  0
 19 20  2  0
 19 21  1  0
 21 22  1  0
 22 23  1  0
 22 24  2  0
 24  8  1  0
 17 12  1  0
M  END
>  <Title>  (303) 
idAAJSgen13

$$$$

     RDKit          2D

 38 42  0  0  0  0  0  0  0  0999 V2000
   -5.7723   -2.1248    0.0000 C   0  0  0  0  0  0  0  0  0  0  0  0
   -4.3865   -2.6988    0.0000 C   0  0  0  0  0  0  0  0  0  0  0  0
   -3.1965   -1.7857    0.0000 C   0  0  0  0  0  0  0  0  0  0  0  0
   -1.8107   -2.3597    0.0000 C   0  0  0  0  0  0  0  0  0  0  0  0
   -1.8107   -3.8597    0.0000 C   0  0  0  0  0  0  0  0  0  0  0  0
   -0.7500   -4.9204    0.0000 C   0  0  0  0  0  0  0  0  0  0  0  0
    0.7500   -4.9204    0.0000 C   0  0  0  0  0  0  0  0  0  0  0  0
    1.8107   -3.8597    0.0000 C   0  0  0  0  0  0  0  0  0  0  0  0
    1.8107   -2.3597    0.0000 C   0  0  0  0  0  0  0  0  0  0  0  0
    3.1965   -1.7857    0.0000 C   0  0  0  0  0  0  0  0  0  0  0  0
    3.3923   -0.2985    0.0000 O   0  0  0  0  0  0  0  0  0  0  0  0
    4.3865   -2.6988    0.0000 N   0  0  0  0  0  0  0  0  0  0  0  0
    5.7723   -2.1248    0.0000 C   0  0  0  0  0  0  0  0  0  0  0  0
    6.1225   -0.6662    0.0000 N   0  0  0  0  0  0  0  0  0  0  0  0
    7.6179   -0.5485    0.0000 N   0  0  0  0  0  0  0  0  0  0  0  0
    8.1919   -1.9344    0.0000 N   0  0  0  0  0  0  0  0  0  0  0  0
    7.0513   -2.9085    0.0000 N   0  0  0  0  0  0  0  0  0  0  0  0
    7.1690   -4.4039    0.0000 N   0  0  0  0  0  0  0  0  0  0  0  0
    8.4479   -5.1877    0.0000 C   0  0  0  0  0  0  0  0  0  0  0  0
    8.0978   -6.6462    0.0000 C   0  0  0  0  0  0  0  0  0  0  0  0
    6.6024   -6.7639    0.0000 N   0  0  0  0  0  0  0  0  0  0  0  0
    5.8186   -8.0429    0.0000 C   0  0  0  0  0  0  0  0  0  0  0  0
    6.5344   -9.3611    0.0000 O   0  0  0  0  0  0  0  0  0  0  0  0
    4.3192   -8.0036    0.0000 N   0  0  0  0  0  0  0  0  0  0  0  0
    3.5354   -9.2826    0.0000 C   0  0  0  0  0  0  0  0  0  0  0  0
    2.0359   -9.2433    0.0000 N   0  0  0  0  0  0  0  0  0  0  0  0
    1.2522  -10.5223    0.0000 N   0  0  0  0  0  0  0  0  0  0  0  0
    1.9679  -11.8405    0.0000 N   0  0  0  0  0  0  0  0  0  0  0  0
    3.4674  -11.8797    0.0000 N   0  0  0  0  0  0  0  0  0  0  0  0
    4.2512  -10.6008    0.0000 N   0  0  0  0  0  0  0  0  0  0  0  0
    6.0284   -5.3781    0.0000 C   0  0  0  0  0  0  0  0  0  0  0  0
    4.5698   -5.0279    0.0000 O   0  0  0  0  0  0  0  0  0  0  0  0
    0.7500   -1.2990    0.0000 C   0  0  0  0  0  0  0  0  0  0  0  0
    1.5000    0.0000    0.0000 C   0  0  0  0  0  0  0  0  0  0  0  0
    0.7500    1.2990    0.0000 C   0  0  0  0  0  0  0  0  0  0  0  0
   -0.7500    1.2990    0.0000 C   0  0  0  0  0  0  0  0  0  0  0  0
   -1.5000    0.0000    0.0000 C   0  0  0  0  0  0  0  0  0  0  0  0
   -0.7500   -1.2990    0.0000 C   0  0  0  0  0  0  0  0  0  0  0  0
  1  2  2  0
  2  3  1  0
  3  4  1  0
  4  5  2  0
  5  6  1  0
  6  7  2  0
  7  8  1  0
  8  9  1  0
  9 10  1  0
 10 11  2  0
 10 12  1  0
 12 13  1  0
 13 14  2  0
 14 15  1  0
 15 16  2  0
 16 17  1  0
 17 18  1  0
 18 19  1  0
 19 20  1  0
 20 21  1  0
 21 22  1  0
 22 23  2  0
 22 24  1  0
 24 25  1  0
 25 26  2  0
 26 27  1  0
 27 28  2  0
 28 29  1  0
 29 30  2  0
 21 31  1  0
 31 32  2  0
  9 33  1  0
 33 34  2  0
 34 35  1  0
 35 36  2  0
 36 37  1  0
 37 38  2  0
 38  4  1  0
 17 13  1  0
 31 18  1  0
 38 33  1  0
 30 25  1  0
M  END
>  <Title>  (304) 
idAAJTgen13

$$$$

     RDKit          2D

 37 41  0  0  0  0  0  0  0  0999 V2000
   -3.1981   -1.5132    0.0000 C   0  0  0  0  0  0  0  0  0  0  0  0
   -1.8991   -2.2632    0.0000 C   0  0  0  0  0  0  0  0  0  0  0  0
   -2.1595   -3.7404    0.0000 C   0  0  0  0  0  0  0  0  0  0  0  0
   -1.4095   -5.0395    0.0000 C   0  0  0  0  0  0  0  0  0  0  0  0
   -0.0000   -5.5525    0.0000 C   0  0  0  0  0  0  0  0  0  0  0  0
    1.4095   -5.0395    0.0000 C   0  0  0  0  0  0  0  0  0  0  0  0
    2.1595   -3.7404    0.0000 C   0  0  0  0  0  0  0  0  0  0  0  0
    1.8991   -2.2632    0.0000 C   0  0  0  0  0  0  0  0  0  0  0  0
    3.1981   -1.5132    0.0000 C   0  0  0  0  0  0  0  0  0  0  0  0
    3.1981   -0.0132    0.0000 O   0  0  0  0  0  0  0  0  0  0  0  0
    4.4971   -2.2632    0.0000 N   0  0  0  0  0  0  0  0  0  0  0  0
    5.7962   -1.5132    0.0000 C   0  0  0  0  0  0  0  0  0  0  0  0
    5.9530   -0.0214    0.0000 N   0  0  0  0  0  0  0  0  0  0  0  0
    7.4202    0.2904    0.0000 N   0  0  0  0  0  0  0  0  0  0  0  0
    8.1702   -1.0086    0.0000 N   0  0  0  0  0  0  0  0  0  0  0  0
    7.1665   -2.1233    0.0000 N   0  0  0  0  0  0  0  0  0  0  0  0
    7.4784   -3.5905    0.0000 N   0  0  0  0  0  0  0  0  0  0  0  0
    8.8487   -4.2007    0.0000 C   0  0  0  0  0  0  0  0  0  0  0  0
    8.6919   -5.6924    0.0000 C   0  0  0  0  0  0  0  0  0  0  0  0
    7.2247   -6.0043    0.0000 C   0  0  0  0  0  0  0  0  0  0  0  0
    6.6146   -7.3746    0.0000 C   0  0  0  0  0  0  0  0  0  0  0  0
    7.4962   -8.5881    0.0000 O   0  0  0  0  0  0  0  0  0  0  0  0
    5.1228   -7.5314    0.0000 N   0  0  0  0  0  0  0  0  0  0  0  0
    4.5127   -8.9017    0.0000 C   0  0  0  0  0  0  0  0  0  0  0  0
    3.0209   -9.0585    0.0000 N   0  0  0  0  0  0  0  0  0  0  0  0
    2.4108  -10.4288    0.0000 N   0  0  0  0  0  0  0  0  0  0  0  0
    3.2925  -11.6424    0.0000 N   0  0  0  0  0  0  0  0  0  0  0  0
    4.7843  -11.4856    0.0000 N   0  0  0  0  0  0  0  0  0  0  0  0
    5.3944  -10.1153    0.0000 N   0  0  0  0  0  0  0  0  0  0  0  0
    6.4747   -4.7053    0.0000 C   0  0  0  0  0  0  0  0  0  0  0  0
    4.9829   -4.5485    0.0000 O   0  0  0  0  0  0  0  0  0  0  0  0
    0.7500   -1.2990    0.0000 C   0  0  0  0  0  0  0  0  0  0  0  0
    1.5000    0.0000    0.0000 C   0  0  0  0  0  0  0  0  0  0  0  0
    0.7500    1.2990    0.0000 C   0  0  0  0  0  0  0  0  0  0  0  0
   -0.7500    1.2990    0.0000 C   0  0  0  0  0  0  0  0  0  0  0  0
   -1.5000    0.0000    0.0000 C   0  0  0  0  0  0  0  0  0  0  0  0
   -0.7500   -1.2990    0.0000 C   0  0  0  0  0  0  0  0  0  0  0  0
  1  2  1  0
  2  3  1  0
  3  4  2  0
  4  5  1  0
  5  6  1  0
  6  7  1  0
  7  8  1  0
  8  9  1  0
  9 10  2  0
  9 11  1  0
 11 12  1  0
 12 13  2  0
 13 14  1  0
 14 15  2  0
 15 16  1  0
 16 17  1  0
 17 18  1  0
 18 19  1  0
 19 20  1  0
 20 21  1  0
 21 22  2  0
 21 23  1  0
 23 24  1  0
 24 25  2  0
 25 26  1  0
 26 27  2  0
 27 28  1  0
 28 29  2  0
 20 30  1  0
 30 31  2  0
  8 32  1  0
 32 33  2  0
 33 34  1  0
 34 35  2  0
 35 36  1  0
 36 37  2  0
 37  2  1  0
 16 12  1  0
 30 17  1  0
 37 32  1  0
 29 24  1  0
M  END
>  <Title>  (305) 
idAAJUgen13

$$$$

     RDKit          2D

 42 41  0  0  0  0  0  0  0  0999 V2000
    0.0000    0.0000    0.0000 C   0  0  0  0  0  0  0  0  0  0  0  0
   -0.0000   -1.5000    0.0000 C   0  0  0  0  0  0  0  0  0  0  0  0
   -0.0000   -3.0000    0.0000 C   0  0  0  0  0  0  0  0  0  0  0  0
   -0.0000   -4.5000    0.0000 C   0  0  0  0  0  0  0  0  0  0  0  0
   -0.0000   -6.0000    0.0000 C   0  0  0  0  0  0  0  0  0  0  0  0
   -0.0000   -7.5000    0.0000 C   0  0  0  0  0  0  0  0  0  0  0  0
   -0.0000   -9.0000    0.0000 C   0  0  0  0  0  0  0  0  0  0  0  0
   -0.0000  -10.5000    0.0000 C   0  0  0  0  0  0  0  0  0  0  0  0
   -0.0000  -12.0000    0.0000 C   0  0  0  0  0  0  0  0  0  0  0  0
   -0.0000  -13.5000    0.0000 C   0  0  0  0  0  0  0  0  0  0  0  0
   -0.0000  -15.0000    0.0000 C   0  0  0  0  0  0  0  0  0  0  0  0
   -0.0000  -16.5000    0.0000 C   0  0  0  0  0  0  0  0  0  0  0  0
   -0.0000  -18.0000    0.0000 C   0  0  0  0  0  0  0  0  0  0  0  0
   -0.0000  -19.5000    0.0000 C   0  0  0  0  0  0  0  0  0  0  0  0
   -0.0000  -21.0000    0.0000 C   0  0  0  0  0  0  0  0  0  0  0  0
   -0.0000  -22.5000    0.0000 C   0  0  0  0  0  0  0  0  0  0  0  0
   -0.0000  -24.0000    0.0000 C   0  0  0  0  0  0  0  0  0  0  0  0
   -0.0000  -25.5000    0.0000 C   0  0  0  0  0  0  0  0  0  0  0  0
   -0.0000  -27.0000    0.0000 C   0  0  0  0  0  0  0  0  0  0  0  0
   -0.0000  -28.5000    0.0000 C   0  0  0  0  0  0  0  0  0  0  0  0
   -0.0000  -30.0000    0.0000 C   0  0  0  0  0  0  0  0  0  0  0  0
   -0.0000  -31.5000    0.0000 C   0  0  0  0  0  0  0  0  0  0  0  0
   -0.0000  -33.0000    0.0000 C   0  0  0  0  0  0  0  0  0  0  0  0
   -0.0000  -34.5000    0.0000 C   0  0  0  0  0  0  0  0  0  0  0  0
   -0.0000  -36.0000    0.0000 C   0  0  0  0  0  0  0  0  0  0  0  0
   -0.0000  -37.5000    0.0000 C   0  0  0  0  0  0  0  0  0  0  0  0
   -0.0000  -39.0000    0.0000 C   0  0  0  0  0  0  0  0  0  0  0  0
   -0.0000  -40.5000    0.0000 C   0  0  0  0  0  0  0  0  0  0  0  0
   -0.0000  -42.0000    0.0000 C   0  0  0  0  0  0  0  0  0  0  0  0
   -0.0000  -43.5000    0.0000 C   0  0  0  0  0  0  0  0  0  0  0  0
   -0.0000  -45.0000    0.0000 C   0  0  0  0  0  0  0  0  0  0  0  0
   -0.0000  -46.5000    0.0000 C   0  0  0  0  0  0  0  0  0  0  0  0
   -0.0000  -48.0000    0.0000 C   0  0  0  0  0  0  0  0  0  0  0  0
   -0.0000  -49.5000    0.0000 C   0  0  0  0  0  0  0  0  0  0  0  0
   -0.0000  -51.0000    0.0000 C   0  0  0  0  0  0  0  0  0  0  0  0
   -0.0000  -52.5000    0.0000 C   0  0  0  0  0  0  0  0  0  0  0  0
   -0.0000  -54.0000    0.0000 C   0  0  0  0  0  0  0  0  0  0  0  0
   -0.0000  -55.5000    0.0000 C   0  0  0  0  0  0  0  0  0  0  0  0
   -0.0000  -57.0000    0.0000 C   0  0  0  0  0  0  0  0  0  0  0  0
   -0.0000  -58.5000    0.0000 C   0  0  0  0  0  0  0  0  0  0  0  0
   -0.0000  -60.0000    0.0000 C   0  0  0  0  0  0  0  0  0  0  0  0
   -0.0000  -61.5000    0.0000 C   0  0  0  0  0  0  0  0  0  0  0  0
  1  2  3  0
  2  3  1  0
  3  4  3  0
  4  5  1  0
  5  6  3  0
  6  7  1  0
  7  8  3  0
  8  9  1  0
  9 10  3  0
 10 11  1  0
 11 12  3  0
 12 13  1  0
 13 14  3  0
 14 15  1  0
 15 16  3  0
 16 17  1  0
 17 18  3  0
 18 19  1  0
 19 20  3  0
 20 21  1  0
 21 22  3  0
 22 23  1  0
 23 24  3  0
 24 25  1  0
 25 26  3  0
 26 27  1  0
 27 28  3  0
 28 29  1  0
 29 30  3  0
 30 31  1  0
 31 32  3  0
 32 33  1  0
 33 34  3  0
 34 35  1  0
 35 36  3  0
 36 37  1  0
 37 38  3  0
 38 39  1  0
 39 40  3  0
 40 41  1  0
 41 42  3  0
M  END
>  <Title>  (306) 
idAAJVgen13

$$$$

     RDKit          2D

 14 15  0  0  0  0  0  0  0  0999 V2000
   -6.8298   -5.2046    0.0000 C   0  0  0  0  0  0  0  0  0  0  0  0
   -5.7691   -4.1439    0.0000 C   0  0  0  0  0  0  0  0  0  0  0  0
   -4.3202   -4.5321    0.0000 C   0  0  0  0  0  0  0  0  0  0  0  0
   -3.2595   -3.4715    0.0000 C   0  0  0  0  0  0  0  0  0  0  0  0
   -1.8107   -3.8597    0.0000 C   0  0  0  0  0  0  0  0  0  0  0  0
   -1.4224   -5.3086    0.0000 O   0  0  0  0  0  0  0  0  0  0  0  0
   -0.7500   -2.7990    0.0000 N   0  0  0  0  0  0  0  0  0  0  0  0
    0.7500   -2.7990    0.0000 C   0  0  0  0  0  0  0  0  0  0  0  0
    0.7500   -1.2990    0.0000 C   0  0  0  0  0  0  0  0  0  0  0  0
    1.5000    0.0000    0.0000 C   0  0  0  0  0  0  0  0  0  0  0  0
    0.7500    1.2990    0.0000 C   0  0  0  0  0  0  0  0  0  0  0  0
   -0.7500    1.2990    0.0000 C   0  0  0  0  0  0  0  0  0  0  0  0
   -1.5000    0.0000    0.0000 C   0  0  0  0  0  0  0  0  0  0  0  0
   -0.7500   -1.2990    0.0000 C   0  0  0  0  0  0  0  0  0  0  0  0
  1  2  2  0
  2  3  1  0
  3  4  1  0
  4  5  1  0
  5  6  2  0
  5  7  1  0
  7  8  1  0
  8  9  1  0
  9 10  1  0
 10 11  1  0
 11 12  1  0
 12 13  1  0
 13 14  1  0
 14  7  1  0
 14  9  1  0
M  END
>  <Title>  (307) 
idAAJWgen13

$$$$

     RDKit          2D

 43 48  0  0  0  0  0  0  0  0999 V2000
   -3.7860   -5.5823    0.0000 C   0  0  0  0  0  0  0  0  0  0  0  0
   -2.4215   -4.9592    0.0000 C   0  0  0  0  0  0  0  0  0  0  0  0
   -1.4392   -6.0928    0.0000 C   0  0  0  0  0  0  0  0  0  0  0  0
   -0.0000   -6.5154    0.0000 C   0  0  0  0  0  0  0  0  0  0  0  0
    1.4392   -6.0928    0.0000 C   0  0  0  0  0  0  0  0  0  0  0  0
    2.4215   -4.9592    0.0000 C   0  0  0  0  0  0  0  0  0  0  0  0
    2.6350   -3.4744    0.0000 C   0  0  0  0  0  0  0  0  0  0  0  0
    2.0119   -2.1100    0.0000 C   0  0  0  0  0  0  0  0  0  0  0  0
    3.1455   -1.1277    0.0000 C   0  0  0  0  0  0  0  0  0  0  0  0
    2.8616    0.3452    0.0000 O   0  0  0  0  0  0  0  0  0  0  0  0
    4.5630   -1.6183    0.0000 N   0  0  0  0  0  0  0  0  0  0  0  0
    5.6966   -0.6360    0.0000 C   0  0  0  0  0  0  0  0  0  0  0  0
    5.5683    0.8585    0.0000 N   0  0  0  0  0  0  0  0  0  0  0  0
    6.9500    1.4424    0.0000 N   0  0  0  0  0  0  0  0  0  0  0  0
    7.9322    0.3088    0.0000 N   0  0  0  0  0  0  0  0  0  0  0  0
    7.1576   -0.9758    0.0000 N   0  0  0  0  0  0  0  0  0  0  0  0
    7.7416   -2.3574    0.0000 N   0  0  0  0  0  0  0  0  0  0  0  0
    9.2026   -2.6972    0.0000 C   0  0  0  0  0  0  0  0  0  0  0  0
    9.3309   -4.1917    0.0000 C   0  0  0  0  0  0  0  0  0  0  0  0
    7.9492   -4.7756    0.0000 N   0  0  0  0  0  0  0  0  0  0  0  0
    7.6095   -6.2366    0.0000 C   0  0  0  0  0  0  0  0  0  0  0  0
    8.7049   -7.2614    0.0000 O   0  0  0  0  0  0  0  0  0  0  0  0
    6.1744   -6.6729    0.0000 N   0  0  0  0  0  0  0  0  0  0  0  0
    5.8346   -8.1339    0.0000 C   0  0  0  0  0  0  0  0  0  0  0  0
    4.3995   -8.5702    0.0000 N   0  0  0  0  0  0  0  0  0  0  0  0
    4.0597  -10.0312    0.0000 N   0  0  0  0  0  0  0  0  0  0  0  0
    5.1551  -11.0560    0.0000 N   0  0  0  0  0  0  0  0  0  0  0  0
    6.5903  -10.6197    0.0000 N   0  0  0  0  0  0  0  0  0  0  0  0
    6.9300   -9.1587    0.0000 N   0  0  0  0  0  0  0  0  0  0  0  0
    6.9670   -3.6420    0.0000 C   0  0  0  0  0  0  0  0  0  0  0  0
    5.4725   -3.7703    0.0000 O   0  0  0  0  0  0  0  0  0  0  0  0
    0.7500   -1.2990    0.0000 C   0  0  0  0  0  0  0  0  0  0  0  0
    1.5000    0.0000    0.0000 C   0  0  0  0  0  0  0  0  0  0  0  0
    0.7500    1.2990    0.0000 C   0  0  0  0  0  0  0  0  0  0  0  0
   -0.7500    1.2990    0.0000 C   0  0  0  0  0  0  0  0  0  0  0  0
   -1.5000    0.0000    0.0000 C   0  0  0  0  0  0  0  0  0  0  0  0
   -0.7500   -1.2990    0.0000 C   0  0  0  0  0  0  0  0  0  0  0  0
   -2.0119   -2.1100    0.0000 C   0  0  0  0  0  0  0  0  0  0  0  0
   -2.8820   -0.8881    0.0000 C   0  0  0  0  0  0  0  0  0  0  0  0
   -4.3752   -1.0307    0.0000 C   0  0  0  0  0  0  0  0  0  0  0  0
   -4.9983   -2.3952    0.0000 C   0  0  0  0  0  0  0  0  0  0  0  0
   -4.1282   -3.6170    0.0000 C   0  0  0  0  0  0  0  0  0  0  0  0
   -2.6350   -3.4744    0.0000 C   0  0  0  0  0  0  0  0  0  0  0  0
  1  2  1  0
  2  3  1  0
  3  4  1  0
  4  5  1  0
  5  6  1  0
  6  7  1  0
  7  8  1  0
  8  9  1  0
  9 10  2  0
  9 11  1  0
 11 12  1  0
 12 13  2  0
 13 14  1  0
 14 15  2  0
 15 16  1  0
 16 17  1  0
 17 18  1  0
 18 19  1  0
 19 20  1  0
 20 21  1  0
 21 22  2  0
 21 23  1  0
 23 24  1  0
 24 25  2  0
 25 26  1  0
 26 27  2  0
 27 28  1  0
 28 29  2  0
 20 30  1  0
 30 31  2  0
  8 32  1  0
 32 33  2  0
 33 34  1  0
 34 35  2  0
 35 36  1  0
 36 37  2  0
 37 38  1  0
 38 39  2  0
 39 40  1  0
 40 41  2  0
 41 42  1  0
 42 43  2  0
 43  2  1  0
 16 12  1  0
 30 17  1  0
 37 32  1  0
 43 38  1  0
 29 24  1  0
M  END
>  <Title>  (308) 
idAAJXgen13

$$$$

     RDKit          2D

 82 83  0  0  0  0  0  0  0  0999 V2000
   -2.2034   -1.0693    0.0000 C   0  0  0  0  0  0  0  0  0  0  0  0
   -2.4915    0.4028    0.0000 C   0  0  0  0  0  0  0  0  0  0  0  0
   -3.9740    0.1741    0.0000 C   0  0  0  0  0  0  0  0  0  0  0  0
   -5.4701    0.0654    0.0000 C   0  0  0  0  0  0  0  0  0  0  0  0
   -6.9700    0.0775    0.0000 C   0  0  0  0  0  0  0  0  0  0  0  0
   -8.4641    0.2103    0.0000 C   0  0  0  0  0  0  0  0  0  0  0  0
   -9.9427    0.4628    0.0000 C   0  0  0  0  0  0  0  0  0  0  0  0
  -11.3962    0.8335    0.0000 C   0  0  0  0  0  0  0  0  0  0  0  0
  -12.8151    1.3199    0.0000 C   0  0  0  0  0  0  0  0  0  0  0  0
  -14.1903    1.9190    0.0000 C   0  0  0  0  0  0  0  0  0  0  0  0
  -15.5128    2.6267    0.0000 C   0  0  0  0  0  0  0  0  0  0  0  0
  -16.7741    3.4386    0.0000 C   0  0  0  0  0  0  0  0  0  0  0  0
  -17.9660    4.3494    0.0000 C   0  0  0  0  0  0  0  0  0  0  0  0
  -19.0807    5.3531    0.0000 C   0  0  0  0  0  0  0  0  0  0  0  0
  -20.1111    6.4432    0.0000 C   0  0  0  0  0  0  0  0  0  0  0  0
  -21.0503    7.6127    0.0000 C   0  0  0  0  0  0  0  0  0  0  0  0
  -21.8925    8.8540    0.0000 C   0  0  0  0  0  0  0  0  0  0  0  0
  -22.6320   10.1591    0.0000 C   0  0  0  0  0  0  0  0  0  0  0  0
  -23.2641   11.5194    0.0000 C   0  0  0  0  0  0  0  0  0  0  0  0
  -23.7847   12.9261    0.0000 C   0  0  0  0  0  0  0  0  0  0  0  0
  -24.1904   14.3702    0.0000 C   0  0  0  0  0  0  0  0  0  0  0  0
  -24.4786   15.8423    0.0000 C   0  0  0  0  0  0  0  0  0  0  0  0
  -24.6474   17.3327    0.0000 C   0  0  0  0  0  0  0  0  0  0  0  0
  -24.6957   18.8320    0.0000 C   0  0  0  0  0  0  0  0  0  0  0  0
  -24.6232   20.3302    0.0000 C   0  0  0  0  0  0  0  0  0  0  0  0
  -24.4304   21.8178    0.0000 C   0  0  0  0  0  0  0  0  0  0  0  0
  -24.1186   23.2850    0.0000 C   0  0  0  0  0  0  0  0  0  0  0  0
  -23.6896   24.7224    0.0000 C   0  0  0  0  0  0  0  0  0  0  0  0
  -23.1464   26.1206    0.0000 C   0  0  0  0  0  0  0  0  0  0  0  0
  -22.4925   27.4705    0.0000 C   0  0  0  0  0  0  0  0  0  0  0  0
  -21.7321   28.7635    0.0000 C   0  0  0  0  0  0  0  0  0  0  0  0
  -20.8701   29.9910    0.0000 C   0  0  0  0  0  0  0  0  0  0  0  0
  -19.9121   31.1453    0.0000 C   0  0  0  0  0  0  0  0  0  0  0  0
  -18.8643   32.2187    0.0000 C   0  0  0  0  0  0  0  0  0  0  0  0
  -17.7336   33.2043    0.0000 C   0  0  0  0  0  0  0  0  0  0  0  0
  -16.5272   34.0957    0.0000 C   0  0  0  0  0  0  0  0  0  0  0  0
  -15.2530   34.8872    0.0000 C   0  0  0  0  0  0  0  0  0  0  0  0
  -13.9192   35.5735    0.0000 C   0  0  0  0  0  0  0  0  0  0  0  0
  -12.5346   36.1503    0.0000 C   0  0  0  0  0  0  0  0  0  0  0  0
  -11.1080   36.6139    0.0000 C   0  0  0  0  0  0  0  0  0  0  0  0
   -9.6487   36.9611    0.0000 C   0  0  0  0  0  0  0  0  0  0  0  0
   -8.1662   37.1898    0.0000 C   0  0  0  0  0  0  0  0  0  0  0  0
   -6.6702   37.2984    0.0000 C   0  0  0  0  0  0  0  0  0  0  0  0
   -5.1702   37.2863    0.0000 C   0  0  0  0  0  0  0  0  0  0  0  0
   -3.6761   37.1536    0.0000 C   0  0  0  0  0  0  0  0  0  0  0  0
   -2.1975   36.9011    0.0000 C   0  0  0  0  0  0  0  0  0  0  0  0
   -0.7441   36.5304    0.0000 C   0  0  0  0  0  0  0  0  0  0  0  0
    0.6749   36.0439    0.0000 C   0  0  0  0  0  0  0  0  0  0  0  0
    2.0501   35.4449    0.0000 C   0  0  0  0  0  0  0  0  0  0  0  0
    3.3726   34.7371    0.0000 C   0  0  0  0  0  0  0  0  0  0  0  0
    4.6339   33.9252    0.0000 C   0  0  0  0  0  0  0  0  0  0  0  0
    5.8257   33.0145    0.0000 C   0  0  0  0  0  0  0  0  0  0  0  0
    6.9405   32.0108    0.0000 C   0  0  0  0  0  0  0  0  0  0  0  0
    7.9708   30.9207    0.0000 C   0  0  0  0  0  0  0  0  0  0  0  0
    8.9101   29.7511    0.0000 C   0  0  0  0  0  0  0  0  0  0  0  0
    9.7522   28.5098    0.0000 C   0  0  0  0  0  0  0  0  0  0  0  0
   10.4917   27.2048    0.0000 C   0  0  0  0  0  0  0  0  0  0  0  0
   11.1238   25.8445    0.0000 C   0  0  0  0  0  0  0  0  0  0  0  0
   11.6444   24.4377    0.0000 C   0  0  0  0  0  0  0  0  0  0  0  0
   12.0501   22.9936    0.0000 C   0  0  0  0  0  0  0  0  0  0  0  0
   12.3383   21.5216    0.0000 C   0  0  0  0  0  0  0  0  0  0  0  0
   12.5071   20.0311    0.0000 C   0  0  0  0  0  0  0  0  0  0  0  0
   12.5554   18.5319    0.0000 C   0  0  0  0  0  0  0  0  0  0  0  0
   12.4830   17.0336    0.0000 C   0  0  0  0  0  0  0  0  0  0  0  0
   12.2902   15.5461    0.0000 C   0  0  0  0  0  0  0  0  0  0  0  0
   11.9783   14.0789    0.0000 C   0  0  0  0  0  0  0  0  0  0  0  0
   11.5494   12.6415    0.0000 C   0  0  0  0  0  0  0  0  0  0  0  0
   11.0062   11.2433    0.0000 C   0  0  0  0  0  0  0  0  0  0  0  0
   10.3523    9.8933    0.0000 C   0  0  0  0  0  0  0  0  0  0  0  0
    9.5918    8.6004    0.0000 C   0  0  0  0  0  0  0  0  0  0  0  0
    8.7298    7.3728    0.0000 C   0  0  0  0  0  0  0  0  0  0  0  0
    7.7718    6.2186    0.0000 C   0  0  0  0  0  0  0  0  0  0  0  0
    6.7240    5.1452    0.0000 C   0  0  0  0  0  0  0  0  0  0  0  0
    5.5933    4.1596    0.0000 C   0  0  0  0  0  0  0  0  0  0  0  0
    4.3869    3.2682    0.0000 C   0  0  0  0  0  0  0  0  0  0  0  0
    3.1127    2.4767    0.0000 C   0  0  0  0  0  0  0  0  0  0  0  0
    1.7790    1.7903    0.0000 C   0  0  0  0  0  0  0  0  0  0  0  0
    0.3943    1.2135    0.0000 C   0  0  0  0  0  0  0  0  0  0  0  0
    1.2760    0.0000    0.0000 C   0  0  0  0  0  0  0  0  0  0  0  0
    0.3943   -1.2135    0.0000 C   0  0  0  0  0  0  0  0  0  0  0  0
   -1.0323   -0.7500    0.0000 C   0  0  0  0  0  0  0  0  0  0  0  0
   -1.0323    0.7500    0.0000 C   0  0  0  0  0  0  0  0  0  0  0  0
  1  2  1  0
  2  3  1  0
  3  4  1  0
  4  5  1  0
  5  6  1  0
  6  7  1  0
  7  8  1  0
  8  9  1  0
  9 10  1  0
 10 11  1  0
 11 12  1  0
 12 13  1  0
 13 14  1  0
 14 15  1  0
 15 16  1  0
 16 17  1  0
 17 18  1  0
 18 19  1  0
 19 20  1  0
 20 21  1  0
 21 22  1  0
 22 23  1  0
 23 24  1  0
 24 25  1  0
 25 26  1  0
 26 27  1  0
 27 28  1  0
 28 29  1  0
 29 30  1  0
 30 31  1  0
 31 32  1  0
 32 33  1  0
 33 34  1  0
 34 35  1  0
 35 36  1  0
 36 37  1  0
 37 38  1  0
 38 39  1  0
 39 40  1  0
 40 41  1  0
 41 42  1  0
 42 43  1  0
 43 44  1  0
 44 45  1  0
 45 46  1  0
 46 47  1  0
 47 48  1  0
 48 49  1  0
 49 50  1  0
 50 51  1  0
 51 52  1  0
 52 53  1  0
 53 54  1  0
 54 55  1  0
 55 56  1  0
 56 57  1  0
 57 58  2  0
 58 59  1  0
 59 60  2  0
 60 61  1  0
 61 62  2  0
 62 63  1  0
 63 64  2  0
 64 65  1  0
 65 66  2  0
 66 67  1  0
 67 68  2  0
 68 69  1  0
 69 70  2  0
 70 71  1  0
 71 72  2  0
 72 73  1  0
 73 74  2  0
 74 75  1  0
 75 76  2  0
 76 77  1  0
 77 78  2  0
 78 79  1  0
 79 80  2  0
 80 81  1  0
 81 82  2  0
 82  2  1  0
 82 78  1  0
M  END
>  <Title>  (309) 
idAAJYgen13

$$$$

     RDKit          2D

 15 16  0  0  0  0  0  0  0  0999 V2000
    0.3207   -8.5658    0.0000 C   0  0  0  0  0  0  0  0  0  0  0  0
    0.4775   -7.0740    0.0000 N   0  0  0  0  0  0  0  0  0  0  0  0
    1.8478   -6.4639    0.0000 C   0  0  0  0  0  0  0  0  0  0  0  0
    3.0613   -7.3456    0.0000 O   0  0  0  0  0  0  0  0  0  0  0  0
    2.0046   -4.9721    0.0000 C   0  0  0  0  0  0  0  0  0  0  0  0
    3.3037   -4.2221    0.0000 C   0  0  0  0  0  0  0  0  0  0  0  0
    2.9918   -2.7549    0.0000 C   0  0  0  0  0  0  0  0  0  0  0  0
    1.5000   -2.5981    0.0000 C   0  0  0  0  0  0  0  0  0  0  0  0
    0.7500   -1.2990    0.0000 C   0  0  0  0  0  0  0  0  0  0  0  0
    1.5000    0.0000    0.0000 C   0  0  0  0  0  0  0  0  0  0  0  0
    0.7500    1.2990    0.0000 C   0  0  0  0  0  0  0  0  0  0  0  0
   -0.7500    1.2990    0.0000 C   0  0  0  0  0  0  0  0  0  0  0  0
   -1.5000    0.0000    0.0000 C   0  0  0  0  0  0  0  0  0  0  0  0
   -0.7500   -1.2990    0.0000 C   0  0  0  0  0  0  0  0  0  0  0  0
    0.8899   -3.9684    0.0000 C   0  0  0  0  0  0  0  0  0  0  0  0
  1  2  1  0
  2  3  1  0
  3  4  2  0
  3  5  1  0
  5  6  2  0
  6  7  1  0
  7  8  2  0
  8  9  1  0
  9 10  2  0
 10 11  1  0
 11 12  2  0
 12 13  1  0
 13 14  2  0
  8 15  1  0
 15  5  1  0
 14  9  1  0
M  END
>  <Title>  (310) 
idAAJZgen13

$$$$

     RDKit          2D

 96 97  0  0  0  0  0  0  0  0999 V2000
   -2.1720   -1.0816    0.0000 C   0  0  0  0  0  0  0  0  0  0  0  0
   -2.4872    0.3849    0.0000 C   0  0  0  0  0  0  0  0  0  0  0  0
   -3.9636    0.1200    0.0000 C   0  0  0  0  0  0  0  0  0  0  0  0
   -5.4546   -0.0436    0.0000 C   0  0  0  0  0  0  0  0  0  0  0  0
   -6.9534   -0.1051    0.0000 C   0  0  0  0  0  0  0  0  0  0  0  0
   -8.4528   -0.0641    0.0000 C   0  0  0  0  0  0  0  0  0  0  0  0
   -9.9460    0.0791    0.0000 C   0  0  0  0  0  0  0  0  0  0  0  0
  -11.4259    0.3239    0.0000 C   0  0  0  0  0  0  0  0  0  0  0  0
  -12.8856    0.6690    0.0000 C   0  0  0  0  0  0  0  0  0  0  0  0
  -14.3184    1.1130    0.0000 C   0  0  0  0  0  0  0  0  0  0  0  0
  -15.7175    1.6538    0.0000 C   0  0  0  0  0  0  0  0  0  0  0  0
  -17.0765    2.2887    0.0000 C   0  0  0  0  0  0  0  0  0  0  0  0
  -18.3890    3.0150    0.0000 C   0  0  0  0  0  0  0  0  0  0  0  0
  -19.6489    3.8291    0.0000 C   0  0  0  0  0  0  0  0  0  0  0  0
  -20.8502    4.7272    0.0000 C   0  0  0  0  0  0  0  0  0  0  0  0
  -21.9875    5.7053    0.0000 C   0  0  0  0  0  0  0  0  0  0  0  0
  -23.0554    6.7587    0.0000 C   0  0  0  0  0  0  0  0  0  0  0  0
  -24.0489    7.8825    0.0000 C   0  0  0  0  0  0  0  0  0  0  0  0
  -24.9634    9.0715    0.0000 C   0  0  0  0  0  0  0  0  0  0  0  0
  -25.7946   10.3201    0.0000 C   0  0  0  0  0  0  0  0  0  0  0  0
  -26.5387   11.6225    0.0000 C   0  0  0  0  0  0  0  0  0  0  0  0
  -27.1922   12.9727    0.0000 C   0  0  0  0  0  0  0  0  0  0  0  0
  -27.7519   14.3643    0.0000 C   0  0  0  0  0  0  0  0  0  0  0  0
  -28.2155   15.7909    0.0000 C   0  0  0  0  0  0  0  0  0  0  0  0
  -28.5806   17.2458    0.0000 C   0  0  0  0  0  0  0  0  0  0  0  0
  -28.8455   18.7222    0.0000 C   0  0  0  0  0  0  0  0  0  0  0  0
  -29.0091   20.2133    0.0000 C   0  0  0  0  0  0  0  0  0  0  0  0
  -29.0706   21.7120    0.0000 C   0  0  0  0  0  0  0  0  0  0  0  0
  -29.0296   23.2115    0.0000 C   0  0  0  0  0  0  0  0  0  0  0  0
  -28.8864   24.7046    0.0000 C   0  0  0  0  0  0  0  0  0  0  0  0
  -28.6416   26.1845    0.0000 C   0  0  0  0  0  0  0  0  0  0  0  0
  -28.2964   27.6443    0.0000 C   0  0  0  0  0  0  0  0  0  0  0  0
  -27.8524   29.0770    0.0000 C   0  0  0  0  0  0  0  0  0  0  0  0
  -27.3117   30.4762    0.0000 C   0  0  0  0  0  0  0  0  0  0  0  0
  -26.6767   31.8352    0.0000 C   0  0  0  0  0  0  0  0  0  0  0  0
  -25.9505   33.1476    0.0000 C   0  0  0  0  0  0  0  0  0  0  0  0
  -25.1364   34.4075    0.0000 C   0  0  0  0  0  0  0  0  0  0  0  0
  -24.2383   35.6089    0.0000 C   0  0  0  0  0  0  0  0  0  0  0  0
  -23.2602   36.7462    0.0000 C   0  0  0  0  0  0  0  0  0  0  0  0
  -22.2068   37.8140    0.0000 C   0  0  0  0  0  0  0  0  0  0  0  0
  -21.0830   38.8075    0.0000 C   0  0  0  0  0  0  0  0  0  0  0  0
  -19.8940   39.7220    0.0000 C   0  0  0  0  0  0  0  0  0  0  0  0
  -18.6454   40.5533    0.0000 C   0  0  0  0  0  0  0  0  0  0  0  0
  -17.3429   41.2973    0.0000 C   0  0  0  0  0  0  0  0  0  0  0  0
  -15.9928   41.9508    0.0000 C   0  0  0  0  0  0  0  0  0  0  0  0
  -14.6011   42.5106    0.0000 C   0  0  0  0  0  0  0  0  0  0  0  0
  -13.1745   42.9741    0.0000 C   0  0  0  0  0  0  0  0  0  0  0  0
  -11.7197   43.3392    0.0000 C   0  0  0  0  0  0  0  0  0  0  0  0
  -10.2432   43.6042    0.0000 C   0  0  0  0  0  0  0  0  0  0  0  0
   -8.7522   43.7678    0.0000 C   0  0  0  0  0  0  0  0  0  0  0  0
   -7.2534   43.8292    0.0000 C   0  0  0  0  0  0  0  0  0  0  0  0
   -5.7540   43.7882    0.0000 C   0  0  0  0  0  0  0  0  0  0  0  0
   -4.2609   43.6450    0.0000 C   0  0  0  0  0  0  0  0  0  0  0  0
   -2.7810   43.4003    0.0000 C   0  0  0  0  0  0  0  0  0  0  0  0
   -1.3212   43.0551    0.0000 C   0  0  0  0  0  0  0  0  0  0  0  0
    0.1116   42.6111    0.0000 C   0  0  0  0  0  0  0  0  0  0  0  0
    1.5107   42.0703    0.0000 C   0  0  0  0  0  0  0  0  0  0  0  0
    2.8697   41.4354    0.0000 C   0  0  0  0  0  0  0  0  0  0  0  0
    4.1822   40.7092    0.0000 C   0  0  0  0  0  0  0  0  0  0  0  0
    5.4420   39.8951    0.0000 C   0  0  0  0  0  0  0  0  0  0  0  0
    6.6434   38.9969    0.0000 C   0  0  0  0  0  0  0  0  0  0  0  0
    7.7807   38.0188    0.0000 C   0  0  0  0  0  0  0  0  0  0  0  0
    8.8486   36.9654    0.0000 C   0  0  0  0  0  0  0  0  0  0  0  0
    9.8421   35.8416    0.0000 C   0  0  0  0  0  0  0  0  0  0  0  0
   10.7566   34.6526    0.0000 C   0  0  0  0  0  0  0  0  0  0  0  0
   11.5878   33.4040    0.0000 C   0  0  0  0  0  0  0  0  0  0  0  0
   12.3319   32.1016    0.0000 C   0  0  0  0  0  0  0  0  0  0  0  0
   12.9853   30.7514    0.0000 C   0  0  0  0  0  0  0  0  0  0  0  0
   13.5451   29.3598    0.0000 C   0  0  0  0  0  0  0  0  0  0  0  0
   14.0086   27.9332    0.0000 C   0  0  0  0  0  0  0  0  0  0  0  0
   14.3737   26.4783    0.0000 C   0  0  0  0  0  0  0  0  0  0  0  0
   14.6387   25.0019    0.0000 C   0  0  0  0  0  0  0  0  0  0  0  0
   14.8023   23.5108    0.0000 C   0  0  0  0  0  0  0  0  0  0  0  0
   14.8637   22.0121    0.0000 C   0  0  0  0  0  0  0  0  0  0  0  0
   14.8228   20.5126    0.0000 C   0  0  0  0  0  0  0  0  0  0  0  0
   14.6796   19.0195    0.0000 C   0  0  0  0  0  0  0  0  0  0  0  0
   14.4348   17.5396    0.0000 C   0  0  0  0  0  0  0  0  0  0  0  0
   14.0896   16.0799    0.0000 C   0  0  0  0  0  0  0  0  0  0  0  0
   13.6456   14.6471    0.0000 C   0  0  0  0  0  0  0  0  0  0  0  0
   13.1049   13.2479    0.0000 C   0  0  0  0  0  0  0  0  0  0  0  0
   12.4699   11.8890    0.0000 C   0  0  0  0  0  0  0  0  0  0  0  0
   11.7437   10.5765    0.0000 C   0  0  0  0  0  0  0  0  0  0  0  0
   10.9296    9.3166    0.0000 C   0  0  0  0  0  0  0  0  0  0  0  0
   10.0314    8.1152    0.0000 C   0  0  0  0  0  0  0  0  0  0  0  0
    9.0534    6.9780    0.0000 C   0  0  0  0  0  0  0  0  0  0  0  0
    8.0000    5.9101    0.0000 C   0  0  0  0  0  0  0  0  0  0  0  0
    6.8762    4.9166    0.0000 C   0  0  0  0  0  0  0  0  0  0  0  0
    5.6872    4.0021    0.0000 C   0  0  0  0  0  0  0  0  0  0  0  0
    4.4385    3.1709    0.0000 C   0  0  0  0  0  0  0  0  0  0  0  0
    3.1361    2.4268    0.0000 C   0  0  0  0  0  0  0  0  0  0  0  0
    1.7859    1.7733    0.0000 C   0  0  0  0  0  0  0  0  0  0  0  0
    0.3943    1.2135    0.0000 C   0  0  0  0  0  0  0  0  0  0  0  0
    1.2760    0.0000    0.0000 C   0  0  0  0  0  0  0  0  0  0  0  0
    0.3943   -1.2135    0.0000 C   0  0  0  0  0  0  0  0  0  0  0  0
   -1.0323   -0.7500    0.0000 C   0  0  0  0  0  0  0  0  0  0  0  0
   -1.0323    0.7500    0.0000 C   0  0  0  0  0  0  0  0  0  0  0  0
  1  2  1  0
  2  3  1  0
  3  4  1  0
  4  5  1  0
  5  6  1  0
  6  7  1  0
  7  8  1  0
  8  9  1  0
  9 10  1  0
 10 11  1  0
 11 12  1  0
 12 13  1  0
 13 14  1  0
 14 15  1  0
 15 16  1  0
 16 17  1  0
 17 18  1  0
 18 19  1  0
 19 20  1  0
 20 21  1  0
 21 22  1  0
 22 23  1  0
 23 24  1  0
 24 25  1  0
 25 26  1  0
 26 27  1  0
 27 28  1  0
 28 29  1  0
 29 30  1  0
 30 31  1  0
 31 32  1  0
 32 33  1  0
 33 34  1  0
 34 35  1  0
 35 36  1  0
 36 37  1  0
 37 38  1  0
 38 39  1  0
 39 40  1  0
 40 41  1  0
 41 42  1  0
 42 43  1  0
 43 44  1  0
 44 45  1  0
 45 46  1  0
 46 47  1  0
 47 48  1  0
 48 49  1  0
 49 50  1  0
 50 51  1  0
 51 52  1  0
 52 53  1  0
 53 54  1  0
 54 55  1  0
 55 56  1  0
 56 57  1  0
 57 58  1  0
 58 59  1  0
 59 60  1  0
 60 61  1  0
 61 62  1  0
 62 63  1  0
 63 64  1  0
 64 65  1  0
 65 66  2  0
 66 67  1  0
 67 68  2  0
 68 69  1  0
 69 70  2  0
 70 71  1  0
 71 72  2  0
 72 73  1  0
 73 74  2  0
 74 75  1  0
 75 76  2  0
 76 77  1  0
 77 78  2  0
 78 79  1  0
 79 80  2  0
 80 81  1  0
 81 82  2  0
 82 83  1  0
 83 84  2  0
 84 85  1  0
 85 86  2  0
 86 87  1  0
 87 88  2  0
 88 89  1  0
 89 90  2  0
 90 91  1  0
 91 92  2  0
 92 93  1  0
 93 94  2  0
 94 95  1  0
 95 96  2  0
 96  2  1  0
 96 92  1  0
M  END
>  <Title>  (311) 
idAAKAgen13

$$$$

     RDKit          2D

  6  6  0  0  0  0  0  0  0  0999 V2000
    2.7760    0.0000    0.0000 C   0  0  0  0  0  0  0  0  0  0  0  0
    1.2760    0.0000    0.0000 N   0  0  0  0  0  0  0  0  0  0  0  0
    0.3943    1.2135    0.0000 C   0  0  0  0  0  0  0  0  0  0  0  0
   -1.0323    0.7500    0.0000 C   0  0  0  0  0  0  0  0  0  0  0  0
   -1.0323   -0.7500    0.0000 C   0  0  0  0  0  0  0  0  0  0  0  0
    0.3943   -1.2135    0.0000 O   0  0  0  0  0  0  0  0  0  0  0  0
  1  2  1  0
  2  3  1  0
  3  4  1  0
  4  5  2  0
  5  6  1  0
  6  2  1  0
M  END
>  <Title>  (312) 
idAAKBgen13

$$$$

     RDKit          2D

 15 14  0  0  0  0  0  0  0  0999 V2000
    0.0000    0.0000    0.0000 C   0  0  0  0  0  0  0  0  0  0  0  0
   -0.0000   -1.5000    0.0000 C   0  0  0  0  0  0  0  0  0  0  0  0
   -0.0000   -3.0000    0.0000 C   0  0  0  0  0  0  0  0  0  0  0  0
   -0.0000   -4.5000    0.0000 C   0  0  0  0  0  0  0  0  0  0  0  0
   -0.0000   -6.0000    0.0000 C   0  0  0  0  0  0  0  0  0  0  0  0
   -0.0000   -7.5000    0.0000 C   0  0  0  0  0  0  0  0  0  0  0  0
   -0.0000   -9.0000    0.0000 C   0  0  0  0  0  0  0  0  0  0  0  0
   -0.0000  -10.5000    0.0000 C   0  0  0  0  0  0  0  0  0  0  0  0
   -0.0000  -12.0000    0.0000 C   0  0  0  0  0  0  0  0  0  0  0  0
   -0.0000  -13.5000    0.0000 C   0  0  0  0  0  0  0  0  0  0  0  0
   -0.0000  -15.0000    0.0000 C   0  0  0  0  0  0  0  0  0  0  0  0
   -0.0000  -16.5000    0.0000 C   0  0  0  0  0  0  0  0  0  0  0  0
   -0.0000  -18.0000    0.0000 C   0  0  0  0  0  0  0  0  0  0  0  0
    1.2990  -18.7500    0.0000 C   0  0  0  0  0  0  0  0  0  0  0  0
    1.2990  -20.2500    0.0000 C   0  0  0  0  0  0  0  0  0  0  0  0
  1  2  3  0
  2  3  1  0
  3  4  3  0
  4  5  1  0
  5  6  3  0
  6  7  1  0
  7  8  3  0
  8  9  1  0
  9 10  3  0
 10 11  1  0
 11 12  3  0
 12 13  1  0
 13 14  1  0
 14 15  2  0
M  END
>  <Title>  (313) 
idAAKCgen13

$$$$

     RDKit          2D

 49 55  0  0  0  0  0  0  0  0999 V2000
   -1.1382   -8.3460    0.0000 C   0  0  0  0  0  0  0  0  0  0  0  0
   -0.7500   -6.8971    0.0000 C   0  0  0  0  0  0  0  0  0  0  0  0
    0.7500   -6.8971    0.0000 C   0  0  0  0  0  0  0  0  0  0  0  0
    2.0490   -6.1471    0.0000 C   0  0  0  0  0  0  0  0  0  0  0  0
    2.7990   -4.8481    0.0000 C   0  0  0  0  0  0  0  0  0  0  0  0
    2.7990   -3.3481    0.0000 C   0  0  0  0  0  0  0  0  0  0  0  0
    2.0490   -2.0490    0.0000 C   0  0  0  0  0  0  0  0  0  0  0  0
    3.1097   -0.9884    0.0000 C   0  0  0  0  0  0  0  0  0  0  0  0
    2.7215    0.4605    0.0000 O   0  0  0  0  0  0  0  0  0  0  0  0
    4.5586   -1.3766    0.0000 N   0  0  0  0  0  0  0  0  0  0  0  0
    5.6192   -0.3159    0.0000 C   0  0  0  0  0  0  0  0  0  0  0  0
    5.3846    1.1656    0.0000 N   0  0  0  0  0  0  0  0  0  0  0  0
    6.7211    1.8466    0.0000 N   0  0  0  0  0  0  0  0  0  0  0  0
    7.7818    0.7859    0.0000 N   0  0  0  0  0  0  0  0  0  0  0  0
    7.1008   -0.5506    0.0000 N   0  0  0  0  0  0  0  0  0  0  0  0
    7.7818   -1.8871    0.0000 C   0  0  0  0  0  0  0  0  0  0  0  0
    9.2633   -2.1218    0.0000 C   0  0  0  0  0  0  0  0  0  0  0  0
    9.4979   -3.6033    0.0000 C   0  0  0  0  0  0  0  0  0  0  0  0
    8.1614   -4.2843    0.0000 C   0  0  0  0  0  0  0  0  0  0  0  0
    7.9268   -5.7658    0.0000 O   0  0  0  0  0  0  0  0  0  0  0  0
    6.5264   -6.3034    0.0000 C   0  0  0  0  0  0  0  0  0  0  0  0
    5.3607   -5.3594    0.0000 O   0  0  0  0  0  0  0  0  0  0  0  0
    6.2918   -7.7849    0.0000 N   0  0  0  0  0  0  0  0  0  0  0  0
    4.8914   -8.3224    0.0000 C   0  0  0  0  0  0  0  0  0  0  0  0
    3.7257   -7.3785    0.0000 N   0  0  0  0  0  0  0  0  0  0  0  0
    2.3253   -7.9160    0.0000 N   0  0  0  0  0  0  0  0  0  0  0  0
    2.0907   -9.3976    0.0000 N   0  0  0  0  0  0  0  0  0  0  0  0
    3.2564  -10.3415    0.0000 N   0  0  0  0  0  0  0  0  0  0  0  0
    4.6567   -9.8040    0.0000 N   0  0  0  0  0  0  0  0  0  0  0  0
    7.1008   -3.2236    0.0000 C   0  0  0  0  0  0  0  0  0  0  0  0
    5.6192   -3.4583    0.0000 O   0  0  0  0  0  0  0  0  0  0  0  0
    0.7500   -1.2990    0.0000 C   0  0  0  0  0  0  0  0  0  0  0  0
    1.5000    0.0000    0.0000 C   0  0  0  0  0  0  0  0  0  0  0  0
    0.7500    1.2990    0.0000 C   0  0  0  0  0  0  0  0  0  0  0  0
   -0.7500    1.2990    0.0000 C   0  0  0  0  0  0  0  0  0  0  0  0
   -1.5000    0.0000    0.0000 C   0  0  0  0  0  0  0  0  0  0  0  0
   -0.7500   -1.2990    0.0000 C   0  0  0  0  0  0  0  0  0  0  0  0
   -2.0490   -2.0490    0.0000 C   0  0  0  0  0  0  0  0  0  0  0  0
   -2.7990   -0.7500    0.0000 C   0  0  0  0  0  0  0  0  0  0  0  0
   -4.2990   -0.7500    0.0000 C   0  0  0  0  0  0  0  0  0  0  0  0
   -5.0490   -2.0490    0.0000 C   0  0  0  0  0  0  0  0  0  0  0  0
   -4.2990   -3.3481    0.0000 C   0  0  0  0  0  0  0  0  0  0  0  0
   -2.7990   -3.3481    0.0000 C   0  0  0  0  0  0  0  0  0  0  0  0
   -2.7990   -4.8481    0.0000 C   0  0  0  0  0  0  0  0  0  0  0  0
   -4.2990   -4.8481    0.0000 C   0  0  0  0  0  0  0  0  0  0  0  0
   -5.0490   -6.1471    0.0000 C   0  0  0  0  0  0  0  0  0  0  0  0
   -4.2990   -7.4462    0.0000 C   0  0  0  0  0  0  0  0  0  0  0  0
   -2.7990   -7.4462    0.0000 C   0  0  0  0  0  0  0  0  0  0  0  0
   -2.0490   -6.1471    0.0000 C   0  0  0  0  0  0  0  0  0  0  0  0
  1  2  1  0
  2  3  2  0
  3  4  1  0
  4  5  2  0
  5  6  1  0
  6  7  1  0
  7  8  1  0
  8  9  2  0
  8 10  1  0
 10 11  1  0
 11 12  2  0
 12 13  1  0
 13 14  2  0
 14 15  1  0
 15 16  1  0
 16 17  2  0
 17 18  1  0
 18 19  2  0
 19 20  1  0
 20 21  1  0
 21 22  2  0
 21 23  1  0
 23 24  1  0
 24 25  2  0
 25 26  1  0
 26 27  2  0
 27 28  1  0
 28 29  2  0
 19 30  1  0
 30 31  2  0
  7 32  1  0
 32 33  2  0
 33 34  1  0
 34 35  2  0
 35 36  1  0
 36 37  2  0
 37 38  1  0
 38 39  2  0
 39 40  1  0
 40 41  2  0
 41 42  1  0
 42 43  2  0
 43 44  1  0
 44 45  2  0
 45 46  1  0
 46 47  2  0
 47 48  1  0
 48 49  2  0
 49  2  1  0
 15 11  1  0
 30 16  1  0
 37 32  1  0
 43 38  1  0
 49 44  1  0
 29 24  1  0
M  END
>  <Title>  (314) 
idAAKDgen13

$$$$

     RDKit          2D

  6  5  0  0  0  0  0  0  0  0999 V2000
    0.0000    0.0000    0.0000 C   0  0  0  0  0  0  0  0  0  0  0  0
   -0.0000   -1.5000    0.0000 C   0  0  0  0  0  0  0  0  0  0  0  0
   -0.0000   -3.0000    0.0000 C   0  0  0  0  0  0  0  0  0  0  0  0
   -0.0000   -4.5000    0.0000 C   0  0  0  0  0  0  0  0  0  0  0  0
   -0.0000   -6.0000    0.0000 C   0  0  0  0  0  0  0  0  0  0  0  0
    1.2990   -6.7500    0.0000 C   0  0  0  0  0  0  0  0  0  0  0  0
  1  2  3  0
  2  3  1  0
  3  4  3  0
  4  5  1  0
  5  6  1  0
M  END
>  <Title>  (315) 
idAAKEgen13

$$$$

     RDKit          2D

 31 35  0  0  0  0  0  0  0  0999 V2000
   -3.0000   -2.5981    0.0000 C   0  0  0  0  0  0  0  0  0  0  0  0
   -1.5000   -2.5981    0.0000 C   0  0  0  0  0  0  0  0  0  0  0  0
   -0.7500   -3.8971    0.0000 C   0  0  0  0  0  0  0  0  0  0  0  0
    0.7500   -3.8971    0.0000 C   0  0  0  0  0  0  0  0  0  0  0  0
    1.5000   -2.5981    0.0000 C   0  0  0  0  0  0  0  0  0  0  0  0
    3.0000   -2.5981    0.0000 C   0  0  0  0  0  0  0  0  0  0  0  0
    3.7500   -1.2990    0.0000 O   0  0  0  0  0  0  0  0  0  0  0  0
    3.7500   -3.8971    0.0000 N   0  0  0  0  0  0  0  0  0  0  0  0
    5.2500   -3.8971    0.0000 C   0  0  0  0  0  0  0  0  0  0  0  0
    6.1317   -2.6836    0.0000 N   0  0  0  0  0  0  0  0  0  0  0  0
    7.5583   -3.1471    0.0000 N   0  0  0  0  0  0  0  0  0  0  0  0
    7.5583   -4.6471    0.0000 N   0  0  0  0  0  0  0  0  0  0  0  0
    6.1317   -5.1106    0.0000 N   0  0  0  0  0  0  0  0  0  0  0  0
    5.6682   -6.5372    0.0000 N   0  0  0  0  0  0  0  0  0  0  0  0
    6.5498   -7.7508    0.0000 C   0  0  0  0  0  0  0  0  0  0  0  0
    5.6682   -8.9643    0.0000 C   0  0  0  0  0  0  0  0  0  0  0  0
    4.2416   -8.5008    0.0000 N   0  0  0  0  0  0  0  0  0  0  0  0
    3.0280   -9.3824    0.0000 C   0  0  0  0  0  0  0  0  0  0  0  0
    1.6577   -8.7723    0.0000 C   0  0  0  0  0  0  0  0  0  0  0  0
    0.3587   -9.5223    0.0000 C   0  0  0  0  0  0  0  0  0  0  0  0
   -0.7560   -8.5186    0.0000 C   0  0  0  0  0  0  0  0  0  0  0  0
   -0.1459   -7.1483    0.0000 C   0  0  0  0  0  0  0  0  0  0  0  0
    1.3459   -7.3051    0.0000 C   0  0  0  0  0  0  0  0  0  0  0  0
    4.2416   -7.0008    0.0000 C   0  0  0  0  0  0  0  0  0  0  0  0
    3.0280   -6.1191    0.0000 O   0  0  0  0  0  0  0  0  0  0  0  0
    0.7500   -1.2990    0.0000 C   0  0  0  0  0  0  0  0  0  0  0  0
    1.5000    0.0000    0.0000 C   0  0  0  0  0  0  0  0  0  0  0  0
    0.7500    1.2990    0.0000 C   0  0  0  0  0  0  0  0  0  0  0  0
   -0.7500    1.2990    0.0000 C   0  0  0  0  0  0  0  0  0  0  0  0
   -1.5000    0.0000    0.0000 C   0  0  0  0  0  0  0  0  0  0  0  0
   -0.7500   -1.2990    0.0000 C   0  0  0  0  0  0  0  0  0  0  0  0
  1  2  1  0
  2  3  2  0
  3  4  1  0
  4  5  2  0
  5  6  1  0
  6  7  2  0
  6  8  1  0
  8  9  1  0
  9 10  2  0
 10 11  1  0
 11 12  2  0
 12 13  1  0
 13 14  1  0
 14 15  1  0
 15 16  1  0
 16 17  1  0
 17 18  1  0
 18 19  1  0
 19 20  1  0
 20 21  2  0
 21 22  1  0
 22 23  2  0
 17 24  1  0
 24 25  2  0
  5 26  1  0
 26 27  2  0
 27 28  1  0
 28 29  2  0
 29 30  1  0
 30 31  2  0
 31  2  1  0
 13  9  1  0
 24 14  1  0
 31 26  1  0
 23 19  1  0
M  END
>  <Title>  (316) 
idAAKFgen13

$$$$

     RDKit          2D

 79 80  0  0  0  0  0  0  0  0999 V2000
   -2.2116   -1.0660    0.0000 C   0  0  0  0  0  0  0  0  0  0  0  0
   -2.4927    0.4075    0.0000 C   0  0  0  0  0  0  0  0  0  0  0  0
   -3.9766    0.1883    0.0000 C   0  0  0  0  0  0  0  0  0  0  0  0
   -5.4736    0.0942    0.0000 C   0  0  0  0  0  0  0  0  0  0  0  0
   -6.9733    0.1256    0.0000 C   0  0  0  0  0  0  0  0  0  0  0  0
   -8.4651    0.2824    0.0000 C   0  0  0  0  0  0  0  0  0  0  0  0
   -9.9385    0.5634    0.0000 C   0  0  0  0  0  0  0  0  0  0  0  0
  -11.3832    0.9668    0.0000 C   0  0  0  0  0  0  0  0  0  0  0  0
  -12.7892    1.4897    0.0000 C   0  0  0  0  0  0  0  0  0  0  0  0
  -14.1464    2.1283    0.0000 C   0  0  0  0  0  0  0  0  0  0  0  0
  -15.4454    2.8783    0.0000 C   0  0  0  0  0  0  0  0  0  0  0  0
  -16.6772    3.7344    0.0000 C   0  0  0  0  0  0  0  0  0  0  0  0
  -17.8329    4.6906    0.0000 C   0  0  0  0  0  0  0  0  0  0  0  0
  -18.9046    5.7400    0.0000 C   0  0  0  0  0  0  0  0  0  0  0  0
  -19.8848    6.8755    0.0000 C   0  0  0  0  0  0  0  0  0  0  0  0
  -20.7664    8.0891    0.0000 C   0  0  0  0  0  0  0  0  0  0  0  0
  -21.5435    9.3721    0.0000 C   0  0  0  0  0  0  0  0  0  0  0  0
  -22.2104   10.7157    0.0000 C   0  0  0  0  0  0  0  0  0  0  0  0
  -22.7626   12.1103    0.0000 C   0  0  0  0  0  0  0  0  0  0  0  0
  -23.1962   13.5463    0.0000 C   0  0  0  0  0  0  0  0  0  0  0  0
  -23.5080   15.0135    0.0000 C   0  0  0  0  0  0  0  0  0  0  0  0
  -23.6960   16.5017    0.0000 C   0  0  0  0  0  0  0  0  0  0  0  0
  -23.7589   18.0004    0.0000 C   0  0  0  0  0  0  0  0  0  0  0  0
  -23.6960   19.4991    0.0000 C   0  0  0  0  0  0  0  0  0  0  0  0
  -23.5080   20.9873    0.0000 C   0  0  0  0  0  0  0  0  0  0  0  0
  -23.1962   22.4545    0.0000 C   0  0  0  0  0  0  0  0  0  0  0  0
  -22.7626   23.8905    0.0000 C   0  0  0  0  0  0  0  0  0  0  0  0
  -22.2104   25.2851    0.0000 C   0  0  0  0  0  0  0  0  0  0  0  0
  -21.5435   26.6287    0.0000 C   0  0  0  0  0  0  0  0  0  0  0  0
  -20.7664   27.9117    0.0000 C   0  0  0  0  0  0  0  0  0  0  0  0
  -19.8848   29.1253    0.0000 C   0  0  0  0  0  0  0  0  0  0  0  0
  -18.9046   30.2608    0.0000 C   0  0  0  0  0  0  0  0  0  0  0  0
  -17.8329   31.3103    0.0000 C   0  0  0  0  0  0  0  0  0  0  0  0
  -16.6772   32.2664    0.0000 C   0  0  0  0  0  0  0  0  0  0  0  0
  -15.4454   33.1225    0.0000 C   0  0  0  0  0  0  0  0  0  0  0  0
  -14.1464   33.8725    0.0000 C   0  0  0  0  0  0  0  0  0  0  0  0
  -12.7892   34.5111    0.0000 C   0  0  0  0  0  0  0  0  0  0  0  0
  -11.3832   35.0340    0.0000 C   0  0  0  0  0  0  0  0  0  0  0  0
   -9.9385   35.4374    0.0000 C   0  0  0  0  0  0  0  0  0  0  0  0
   -8.4651   35.7184    0.0000 C   0  0  0  0  0  0  0  0  0  0  0  0
   -6.9733   35.8752    0.0000 C   0  0  0  0  0  0  0  0  0  0  0  0
   -5.4736   35.9066    0.0000 C   0  0  0  0  0  0  0  0  0  0  0  0
   -3.9766   35.8125    0.0000 C   0  0  0  0  0  0  0  0  0  0  0  0
   -2.4927   35.5933    0.0000 C   0  0  0  0  0  0  0  0  0  0  0  0
   -1.0323   35.2508    0.0000 C   0  0  0  0  0  0  0  0  0  0  0  0
    0.3943   34.7873    0.0000 C   0  0  0  0  0  0  0  0  0  0  0  0
    1.7771   34.2060    0.0000 C   0  0  0  0  0  0  0  0  0  0  0  0
    3.1064   33.5111    0.0000 C   0  0  0  0  0  0  0  0  0  0  0  0
    4.3729   32.7073    0.0000 C   0  0  0  0  0  0  0  0  0  0  0  0
    5.5677   31.8004    0.0000 C   0  0  0  0  0  0  0  0  0  0  0  0
    6.6824   30.7967    0.0000 C   0  0  0  0  0  0  0  0  0  0  0  0
    7.7092   29.7033    0.0000 C   0  0  0  0  0  0  0  0  0  0  0  0
    8.6409   28.5277    0.0000 C   0  0  0  0  0  0  0  0  0  0  0  0
    9.4710   27.2784    0.0000 C   0  0  0  0  0  0  0  0  0  0  0  0
   10.1937   25.9639    0.0000 C   0  0  0  0  0  0  0  0  0  0  0  0
   10.8038   24.5936    0.0000 C   0  0  0  0  0  0  0  0  0  0  0  0
   11.2971   23.1770    0.0000 C   0  0  0  0  0  0  0  0  0  0  0  0
   11.6701   21.7241    0.0000 C   0  0  0  0  0  0  0  0  0  0  0  0
   11.9203   20.2451    0.0000 C   0  0  0  0  0  0  0  0  0  0  0  0
   12.0458   18.7504    0.0000 C   0  0  0  0  0  0  0  0  0  0  0  0
   12.0458   17.2504    0.0000 C   0  0  0  0  0  0  0  0  0  0  0  0
   11.9203   15.7557    0.0000 C   0  0  0  0  0  0  0  0  0  0  0  0
   11.6701   14.2767    0.0000 C   0  0  0  0  0  0  0  0  0  0  0  0
   11.2971   12.8238    0.0000 C   0  0  0  0  0  0  0  0  0  0  0  0
   10.8038   11.4072    0.0000 C   0  0  0  0  0  0  0  0  0  0  0  0
   10.1937   10.0369    0.0000 C   0  0  0  0  0  0  0  0  0  0  0  0
    9.4710    8.7225    0.0000 C   0  0  0  0  0  0  0  0  0  0  0  0
    8.6409    7.4731    0.0000 C   0  0  0  0  0  0  0  0  0  0  0  0
    7.7092    6.2975    0.0000 C   0  0  0  0  0  0  0  0  0  0  0  0
    6.6824    5.2041    0.0000 C   0  0  0  0  0  0  0  0  0  0  0  0
    5.5677    4.2004    0.0000 C   0  0  0  0  0  0  0  0  0  0  0  0
    4.3729    3.2935    0.0000 C   0  0  0  0  0  0  0  0  0  0  0  0
    3.1064    2.4897    0.0000 C   0  0  0  0  0  0  0  0  0  0  0  0
    1.7771    1.7948    0.0000 C   0  0  0  0  0  0  0  0  0  0  0  0
    0.3943    1.2135    0.0000 C   0  0  0  0  0  0  0  0  0  0  0  0
    1.2760    0.0000    0.0000 C   0  0  0  0  0  0  0  0  0  0  0  0
    0.3943   -1.2135    0.0000 C   0  0  0  0  0  0  0  0  0  0  0  0
   -1.0323   -0.7500    0.0000 C   0  0  0  0  0  0  0  0  0  0  0  0
   -1.0323    0.7500    0.0000 C   0  0  0  0  0  0  0  0  0  0  0  0
  1  2  1  0
  2  3  1  0
  3  4  1  0
  4  5  1  0
  5  6  1  0
  6  7  1  0
  7  8  1  0
  8  9  1  0
  9 10  1  0
 10 11  1  0
 11 12  1  0
 12 13  1  0
 13 14  1  0
 14 15  1  0
 15 16  1  0
 16 17  1  0
 17 18  1  0
 18 19  1  0
 19 20  1  0
 20 21  1  0
 21 22  1  0
 22 23  1  0
 23 24  1  0
 24 25  1  0
 25 26  1  0
 26 27  1  0
 27 28  1  0
 28 29  1  0
 29 30  1  0
 30 31  1  0
 31 32  1  0
 32 33  1  0
 33 34  1  0
 34 35  1  0
 35 36  1  0
 36 37  1  0
 37 38  1  0
 38 39  1  0
 39 40  1  0
 40 41  1  0
 41 42  1  0
 42 43  1  0
 43 44  1  0
 44 45  1  0
 45 46  1  0
 46 47  1  0
 47 48  1  0
 48 49  1  0
 49 50  1  0
 50 51  1  0
 51 52  1  0
 52 53  1  0
 53 54  1  0
 54 55  1  0
 55 56  1  0
 56 57  1  0
 57 58  1  0
 58 59  1  0
 59 60  1  0
 60 61  1  0
 61 62  1  0
 62 63  1  0
 63 64  1  0
 64 65  1  0
 65 66  1  0
 66 67  1  0
 67 68  1  0
 68 69  1  0
 69 70  1  0
 70 71  2  0
 71 72  1  0
 72 73  2  0
 73 74  1  0
 74 75  2  0
 75 76  1  0
 76 77  2  0
 77 78  1  0
 78 79  2  0
 79  2  1  0
 79 75  1  0
M  END
>  <Title>  (317) 
idAAKGgen13

$$$$

     RDKit          2D

 35 39  0  0  0  0  0  0  0  0999 V2000
   -3.1476   -2.1380    0.0000 C   0  0  0  0  0  0  0  0  0  0  0  0
   -1.6852   -2.4718    0.0000 C   0  0  0  0  0  0  0  0  0  0  0  0
   -1.3515   -3.9342    0.0000 C   0  0  0  0  0  0  0  0  0  0  0  0
   -0.0000   -4.5850    0.0000 C   0  0  0  0  0  0  0  0  0  0  0  0
    1.3515   -3.9342    0.0000 C   0  0  0  0  0  0  0  0  0  0  0  0
    1.6852   -2.4718    0.0000 C   0  0  0  0  0  0  0  0  0  0  0  0
    3.1476   -2.1380    0.0000 C   0  0  0  0  0  0  0  0  0  0  0  0
    3.5898   -0.7046    0.0000 O   0  0  0  0  0  0  0  0  0  0  0  0
    4.1679   -3.2376    0.0000 N   0  0  0  0  0  0  0  0  0  0  0  0
    5.6303   -2.9038    0.0000 C   0  0  0  0  0  0  0  0  0  0  0  0
    6.2198   -1.5245    0.0000 N   0  0  0  0  0  0  0  0  0  0  0  0
    7.7138   -1.6590    0.0000 N   0  0  0  0  0  0  0  0  0  0  0  0
    8.0476   -3.1214    0.0000 N   0  0  0  0  0  0  0  0  0  0  0  0
    6.7599   -3.8907    0.0000 N   0  0  0  0  0  0  0  0  0  0  0  0
    6.6254   -5.3847    0.0000 N   0  0  0  0  0  0  0  0  0  0  0  0
    7.7550   -6.3716    0.0000 C   0  0  0  0  0  0  0  0  0  0  0  0
    7.1655   -7.7509    0.0000 C   0  0  0  0  0  0  0  0  0  0  0  0
    5.6715   -7.6164    0.0000 N   0  0  0  0  0  0  0  0  0  0  0  0
    4.6846   -8.7460    0.0000 C   0  0  0  0  0  0  0  0  0  0  0  0
    5.1694  -10.1655    0.0000 O   0  0  0  0  0  0  0  0  0  0  0  0
    3.2129   -8.4561    0.0000 N   0  0  0  0  0  0  0  0  0  0  0  0
    2.2260   -9.5857    0.0000 C   0  0  0  0  0  0  0  0  0  0  0  0
    0.7543   -9.2959    0.0000 N   0  0  0  0  0  0  0  0  0  0  0  0
   -0.2326  -10.4255    0.0000 N   0  0  0  0  0  0  0  0  0  0  0  0
    0.2522  -11.8450    0.0000 N   0  0  0  0  0  0  0  0  0  0  0  0
    1.7239  -12.1348    0.0000 N   0  0  0  0  0  0  0  0  0  0  0  0
    2.7108  -11.0052    0.0000 N   0  0  0  0  0  0  0  0  0  0  0  0
    5.3378   -6.1540    0.0000 C   0  0  0  0  0  0  0  0  0  0  0  0
    3.9585   -5.5645    0.0000 O   0  0  0  0  0  0  0  0  0  0  0  0
    0.7500   -1.2990    0.0000 C   0  0  0  0  0  0  0  0  0  0  0  0
    1.5000    0.0000    0.0000 C   0  0  0  0  0  0  0  0  0  0  0  0
    0.7500    1.2990    0.0000 C   0  0  0  0  0  0  0  0  0  0  0  0
   -0.7500    1.2990    0.0000 C   0  0  0  0  0  0  0  0  0  0  0  0
   -1.5000    0.0000    0.0000 C   0  0  0  0  0  0  0  0  0  0  0  0
   -0.7500   -1.2990    0.0000 C   0  0  0  0  0  0  0  0  0  0  0  0
  1  2  1  0
  2  3  1  0
  3  4  2  0
  4  5  1  0
  5  6  2  0
  6  7  1  0
  7  8  2  0
  7  9  1  0
  9 10  1  0
 10 11  2  0
 11 12  1  0
 12 13  2  0
 13 14  1  0
 14 15  1  0
 15 16  1  0
 16 17  1  0
 17 18  1  0
 18 19  1  0
 19 20  2  0
 19 21  1  0
 21 22  1  0
 22 23  2  0
 23 24  1  0
 24 25  2  0
 25 26  1  0
 26 27  2  0
 18 28  1  0
 28 29  2  0
  6 30  1  0
 30 31  2  0
 31 32  1  0
 32 33  2  0
 33 34  1  0
 34 35  2  0
 35  2  1  0
 14 10  1  0
 28 15  1  0
 35 30  1  0
 27 22  1  0
M  END
>  <Title>  (318) 
idAAKHgen13

$$$$

     RDKit          2D

  6  5  0  0  0  0  0  0  0  0999 V2000
    0.0000    0.0000    0.0000 C   0  0  0  0  0  0  0  0  0  0  0  0
   -0.0000   -1.5000    0.0000 C   0  0  0  0  0  0  0  0  0  0  0  0
   -0.0000   -3.0000    0.0000 C   0  0  0  0  0  0  0  0  0  0  0  0
    1.2990   -3.7500    0.0000 C   0  0  0  0  0  0  0  0  0  0  0  0
    1.2990   -5.2500    0.0000 C   0  0  0  0  0  0  0  0  0  0  0  0
    2.5981   -6.0000    0.0000 C   0  0  0  0  0  0  0  0  0  0  0  0
  1  2  3  0
  2  3  1  0
  3  4  1  0
  4  5  1  0
  5  6  2  0
M  END
>  <Title>  (319) 
idAAKIgen13

$$$$

     RDKit          2D

 12 11  0  0  0  0  0  0  0  0999 V2000
    0.0000    0.0000    0.0000 C   0  0  0  0  0  0  0  0  0  0  0  0
    1.2990    0.7500    0.0000 C   0  0  0  0  0  0  0  0  0  0  0  0
    2.5981   -0.0000    0.0000 C   0  0  0  0  0  0  0  0  0  0  0  0
    3.8971    0.7500    0.0000 C   0  0  0  0  0  0  0  0  0  0  0  0
    5.1962   -0.0000    0.0000 N   0  0  0  0  0  0  0  0  0  0  0  0
    6.4952    0.7500    0.0000 C   0  0  0  0  0  0  0  0  0  0  0  0
    6.4952    2.2500    0.0000 O   0  0  0  0  0  0  0  0  0  0  0  0
    7.7942   -0.0000    0.0000 C   0  0  0  0  0  0  0  0  0  0  0  0
    9.0933    0.7500    0.0000 C   0  0  0  0  0  0  0  0  0  0  0  0
   10.3923   -0.0000    0.0000 C   0  0  0  0  0  0  0  0  0  0  0  0
   11.6913    0.7500    0.0000 C   0  0  0  0  0  0  0  0  0  0  0  0
   12.9904   -0.0000    0.0000 C   0  0  0  0  0  0  0  0  0  0  0  0
  1  2  1  0
  2  3  1  0
  3  4  2  3
  4  5  1  0
  5  6  1  0
  6  7  2  0
  6  8  1  0
  8  9  1  0
  9 10  1  0
 10 11  1  0
 11 12  1  0
M  END
>  <Title>  (320) 
idAAKJgen13

$$$$

     RDKit          2D

  9  9  0  0  0  0  0  0  0  0999 V2000
    5.0260   -1.2990    0.0000 C   0  0  0  0  0  0  0  0  0  0  0  0
    3.5260   -1.2990    0.0000 N   0  0  0  0  0  0  0  0  0  0  0  0
    2.7760    0.0000    0.0000 C   0  0  0  0  0  0  0  0  0  0  0  0
    3.5260    1.2990    0.0000 O   0  0  0  0  0  0  0  0  0  0  0  0
    1.2760    0.0000    0.0000 C   0  0  0  0  0  0  0  0  0  0  0  0
    0.3943    1.2135    0.0000 C   0  0  0  0  0  0  0  0  0  0  0  0
   -1.0323    0.7500    0.0000 C   0  0  0  0  0  0  0  0  0  0  0  0
   -1.0323   -0.7500    0.0000 C   0  0  0  0  0  0  0  0  0  0  0  0
    0.3943   -1.2135    0.0000 C   0  0  0  0  0  0  0  0  0  0  0  0
  1  2  1  0
  2  3  1  0
  3  4  2  0
  3  5  1  0
  5  6  1  0
  6  7  2  0
  7  8  1  0
  8  9  1  0
  9  5  1  0
M  END
>  <Title>  (321) 
idAAKKgen13

$$$$

     RDKit          2D

110111  0  0  0  0  0  0  0  0999 V2000
   -2.3818    0.1052    0.0000 C   0  0  0  0  0  0  0  0  0  0  0  0
   -2.2473   -1.3887    0.0000 C   0  0  0  0  0  0  0  0  0  0  0  0
   -3.7366   -1.5678    0.0000 C   0  0  0  0  0  0  0  0  0  0  0  0
   -5.2125   -1.8357    0.0000 C   0  0  0  0  0  0  0  0  0  0  0  0
   -6.6697   -2.1913    0.0000 C   0  0  0  0  0  0  0  0  0  0  0  0
   -8.1031   -2.6334    0.0000 C   0  0  0  0  0  0  0  0  0  0  0  0
   -9.5074   -3.1605    0.0000 C   0  0  0  0  0  0  0  0  0  0  0  0
  -10.8777   -3.7706    0.0000 C   0  0  0  0  0  0  0  0  0  0  0  0
  -12.2091   -4.4616    0.0000 C   0  0  0  0  0  0  0  0  0  0  0  0
  -13.4968   -5.2309    0.0000 C   0  0  0  0  0  0  0  0  0  0  0  0
  -14.7362   -6.0759    0.0000 C   0  0  0  0  0  0  0  0  0  0  0  0
  -15.9228   -6.9935    0.0000 C   0  0  0  0  0  0  0  0  0  0  0  0
  -17.0524   -7.9804    0.0000 C   0  0  0  0  0  0  0  0  0  0  0  0
  -18.1209   -9.0331    0.0000 C   0  0  0  0  0  0  0  0  0  0  0  0
  -19.1246  -10.1478    0.0000 C   0  0  0  0  0  0  0  0  0  0  0  0
  -20.0599  -11.3205    0.0000 C   0  0  0  0  0  0  0  0  0  0  0  0
  -20.9233  -12.5471    0.0000 C   0  0  0  0  0  0  0  0  0  0  0  0
  -21.7118  -13.8231    0.0000 C   0  0  0  0  0  0  0  0  0  0  0  0
  -22.4226  -15.1440    0.0000 C   0  0  0  0  0  0  0  0  0  0  0  0
  -23.0532  -16.5051    0.0000 C   0  0  0  0  0  0  0  0  0  0  0  0
  -23.6012  -17.9014    0.0000 C   0  0  0  0  0  0  0  0  0  0  0  0
  -24.0647  -19.3280    0.0000 C   0  0  0  0  0  0  0  0  0  0  0  0
  -24.4421  -20.7797    0.0000 C   0  0  0  0  0  0  0  0  0  0  0  0
  -24.7320  -22.2514    0.0000 C   0  0  0  0  0  0  0  0  0  0  0  0
  -24.9333  -23.7379    0.0000 C   0  0  0  0  0  0  0  0  0  0  0  0
  -25.0454  -25.2337    0.0000 C   0  0  0  0  0  0  0  0  0  0  0  0
  -25.0678  -26.7335    0.0000 C   0  0  0  0  0  0  0  0  0  0  0  0
  -25.0005  -28.2320    0.0000 C   0  0  0  0  0  0  0  0  0  0  0  0
  -24.8437  -29.7238    0.0000 C   0  0  0  0  0  0  0  0  0  0  0  0
  -24.5980  -31.2035    0.0000 C   0  0  0  0  0  0  0  0  0  0  0  0
  -24.2642  -32.6659    0.0000 C   0  0  0  0  0  0  0  0  0  0  0  0
  -23.8436  -34.1057    0.0000 C   0  0  0  0  0  0  0  0  0  0  0  0
  -23.3376  -35.5178    0.0000 C   0  0  0  0  0  0  0  0  0  0  0  0
  -22.7481  -36.8971    0.0000 C   0  0  0  0  0  0  0  0  0  0  0  0
  -22.0771  -38.2387    0.0000 C   0  0  0  0  0  0  0  0  0  0  0  0
  -21.3271  -39.5377    0.0000 C   0  0  0  0  0  0  0  0  0  0  0  0
  -20.5008  -40.7896    0.0000 C   0  0  0  0  0  0  0  0  0  0  0  0
  -19.6010  -41.9898    0.0000 C   0  0  0  0  0  0  0  0  0  0  0  0
  -18.6311  -43.1340    0.0000 C   0  0  0  0  0  0  0  0  0  0  0  0
  -17.5945  -44.2182    0.0000 C   0  0  0  0  0  0  0  0  0  0  0  0
  -16.4949  -45.2384    0.0000 C   0  0  0  0  0  0  0  0  0  0  0  0
  -15.3363  -46.1911    0.0000 C   0  0  0  0  0  0  0  0  0  0  0  0
  -14.1228  -47.0728    0.0000 C   0  0  0  0  0  0  0  0  0  0  0  0
  -12.8587  -47.8803    0.0000 C   0  0  0  0  0  0  0  0  0  0  0  0
  -11.5486  -48.6108    0.0000 C   0  0  0  0  0  0  0  0  0  0  0  0
  -10.1971  -49.2616    0.0000 C   0  0  0  0  0  0  0  0  0  0  0  0
   -8.8092  -49.8305    0.0000 C   0  0  0  0  0  0  0  0  0  0  0  0
   -7.3897  -50.3153    0.0000 C   0  0  0  0  0  0  0  0  0  0  0  0
   -5.9438  -50.7143    0.0000 C   0  0  0  0  0  0  0  0  0  0  0  0
   -4.4765  -51.0262    0.0000 C   0  0  0  0  0  0  0  0  0  0  0  0
   -2.9933  -51.2498    0.0000 C   0  0  0  0  0  0  0  0  0  0  0  0
   -1.4993  -51.3842    0.0000 C   0  0  0  0  0  0  0  0  0  0  0  0
   -0.0000  -51.4291    0.0000 C   0  0  0  0  0  0  0  0  0  0  0  0
    1.4993  -51.3842    0.0000 C   0  0  0  0  0  0  0  0  0  0  0  0
    2.9933  -51.2498    0.0000 C   0  0  0  0  0  0  0  0  0  0  0  0
    4.4765  -51.0262    0.0000 C   0  0  0  0  0  0  0  0  0  0  0  0
    5.9438  -50.7143    0.0000 C   0  0  0  0  0  0  0  0  0  0  0  0
    7.3897  -50.3153    0.0000 C   0  0  0  0  0  0  0  0  0  0  0  0
    8.8092  -49.8305    0.0000 C   0  0  0  0  0  0  0  0  0  0  0  0
   10.1971  -49.2616    0.0000 C   0  0  0  0  0  0  0  0  0  0  0  0
   11.5486  -48.6108    0.0000 C   0  0  0  0  0  0  0  0  0  0  0  0
   12.8587  -47.8803    0.0000 C   0  0  0  0  0  0  0  0  0  0  0  0
   14.1228  -47.0728    0.0000 C   0  0  0  0  0  0  0  0  0  0  0  0
   15.3363  -46.1911    0.0000 C   0  0  0  0  0  0  0  0  0  0  0  0
   16.4949  -45.2384    0.0000 C   0  0  0  0  0  0  0  0  0  0  0  0
   17.5945  -44.2182    0.0000 C   0  0  0  0  0  0  0  0  0  0  0  0
   18.6311  -43.1340    0.0000 C   0  0  0  0  0  0  0  0  0  0  0  0
   19.6010  -41.9898    0.0000 C   0  0  0  0  0  0  0  0  0  0  0  0
   20.5008  -40.7896    0.0000 C   0  0  0  0  0  0  0  0  0  0  0  0
   21.3271  -39.5377    0.0000 C   0  0  0  0  0  0  0  0  0  0  0  0
   22.0771  -38.2387    0.0000 C   0  0  0  0  0  0  0  0  0  0  0  0
   22.7481  -36.8971    0.0000 C   0  0  0  0  0  0  0  0  0  0  0  0
   23.3376  -35.5178    0.0000 C   0  0  0  0  0  0  0  0  0  0  0  0
   23.8436  -34.1057    0.0000 C   0  0  0  0  0  0  0  0  0  0  0  0
   24.2642  -32.6659    0.0000 C   0  0  0  0  0  0  0  0  0  0  0  0
   24.5980  -31.2035    0.0000 C   0  0  0  0  0  0  0  0  0  0  0  0
   24.8437  -29.7238    0.0000 C   0  0  0  0  0  0  0  0  0  0  0  0
   25.0005  -28.2320    0.0000 C   0  0  0  0  0  0  0  0  0  0  0  0
   25.0678  -26.7335    0.0000 C   0  0  0  0  0  0  0  0  0  0  0  0
   25.0454  -25.2337    0.0000 C   0  0  0  0  0  0  0  0  0  0  0  0
   24.9333  -23.7379    0.0000 C   0  0  0  0  0  0  0  0  0  0  0  0
   24.7320  -22.2514    0.0000 C   0  0  0  0  0  0  0  0  0  0  0  0
   24.4421  -20.7797    0.0000 C   0  0  0  0  0  0  0  0  0  0  0  0
   24.0647  -19.3280    0.0000 C   0  0  0  0  0  0  0  0  0  0  0  0
   23.6012  -17.9014    0.0000 C   0  0  0  0  0  0  0  0  0  0  0  0
   23.0532  -16.5051    0.0000 C   0  0  0  0  0  0  0  0  0  0  0  0
   22.4226  -15.1440    0.0000 C   0  0  0  0  0  0  0  0  0  0  0  0
   21.7118  -13.8231    0.0000 C   0  0  0  0  0  0  0  0  0  0  0  0
   20.9233  -12.5471    0.0000 C   0  0  0  0  0  0  0  0  0  0  0  0
   20.0599  -11.3205    0.0000 C   0  0  0  0  0  0  0  0  0  0  0  0
   19.1246  -10.1478    0.0000 C   0  0  0  0  0  0  0  0  0  0  0  0
   18.1209   -9.0331    0.0000 C   0  0  0  0  0  0  0  0  0  0  0  0
   17.0524   -7.9804    0.0000 C   0  0  0  0  0  0  0  0  0  0  0  0
   15.9228   -6.9935    0.0000 C   0  0  0  0  0  0  0  0  0  0  0  0
   14.7362   -6.0759    0.0000 C   0  0  0  0  0  0  0  0  0  0  0  0
   13.4968   -5.2309    0.0000 C   0  0  0  0  0  0  0  0  0  0  0  0
   12.2091   -4.4616    0.0000 C   0  0  0  0  0  0  0  0  0  0  0  0
   10.8777   -3.7706    0.0000 C   0  0  0  0  0  0  0  0  0  0  0  0
    9.5074   -3.1605    0.0000 C   0  0  0  0  0  0  0  0  0  0  0  0
    8.1031   -2.6334    0.0000 C   0  0  0  0  0  0  0  0  0  0  0  0
    6.6697   -2.1913    0.0000 C   0  0  0  0  0  0  0  0  0  0  0  0
    5.2125   -1.8357    0.0000 C   0  0  0  0  0  0  0  0  0  0  0  0
    3.7366   -1.5678    0.0000 C   0  0  0  0  0  0  0  0  0  0  0  0
    2.2473   -1.3887    0.0000 C   0  0  0  0  0  0  0  0  0  0  0  0
    0.7500   -1.2990    0.0000 C   0  0  0  0  0  0  0  0  0  0  0  0
    1.5000    0.0000    0.0000 C   0  0  0  0  0  0  0  0  0  0  0  0
    0.7500    1.2990    0.0000 C   0  0  0  0  0  0  0  0  0  0  0  0
   -0.7500    1.2990    0.0000 C   0  0  0  0  0  0  0  0  0  0  0  0
   -1.5000    0.0000    0.0000 C   0  0  0  0  0  0  0  0  0  0  0  0
   -0.7500   -1.2990    0.0000 C   0  0  0  0  0  0  0  0  0  0  0  0
  1  2  1  0
  2  3  1  0
  3  4  1  0
  4  5  1  0
  5  6  1  0
  6  7  1  0
  7  8  1  0
  8  9  1  0
  9 10  1  0
 10 11  1  0
 11 12  1  0
 12 13  1  0
 13 14  1  0
 14 15  1  0
 15 16  1  0
 16 17  1  0
 17 18  1  0
 18 19  1  0
 19 20  1  0
 20 21  1  0
 21 22  1  0
 22 23  1  0
 23 24  1  0
 24 25  1  0
 25 26  1  0
 26 27  1  0
 27 28  1  0
 28 29  1  0
 29 30  1  0
 30 31  1  0
 31 32  1  0
 32 33  1  0
 33 34  1  0
 34 35  1  0
 35 36  1  0
 36 37  1  0
 37 38  1  0
 38 39  1  0
 39 40  1  0
 40 41  1  0
 41 42  1  0
 42 43  1  0
 43 44  1  0
 44 45  1  0
 45 46  1  0
 46 47  1  0
 47 48  1  0
 48 49  1  0
 49 50  1  0
 50 51  1  0
 51 52  1  0
 52 53  1  0
 53 54  1  0
 54 55  1  0
 55 56  1  0
 56 57  1  0
 57 58  1  0
 58 59  1  0
 59 60  1  0
 60 61  1  0
 61 62  1  0
 62 63  1  0
 63 64  1  0
 64 65  1  0
 65 66  1  0
 66 67  1  0
 67 68  1  0
 68 69  1  0
 69 70  1  0
 70 71  1  0
 71 72  1  0
 72 73  1  0
 73 74  1  0
 74 75  1  0
 75 76  1  0
 76 77  1  0
 77 78  1  0
 78 79  1  0
 79 80  1  0
 80 81  1  0
 81 82  1  0
 82 83  1  0
 83 84  1  0
 84 85  1  0
 85 86  1  0
 86 87  1  0
 87 88  1  0
 88 89  1  0
 89 90  1  0
 90 91  1  0
 91 92  1  0
 92 93  1  0
 93 94  1  0
 94 95  1  0
 95 96  1  0
 96 97  1  0
 97 98  1  0
 98 99  1  0
 99100  1  0
100101  1  0
101102  1  0
102103  1  0
103104  1  0
104105  1  0
105106  2  0
106107  1  0
107108  2  0
108109  1  0
109110  2  0
110  2  1  0
110105  1  0
M  END
>  <Title>  (322) 
idAAKLgen13

$$$$

     RDKit          2D

 45 50  0  0  0  0  0  0  0  0999 V2000
   -4.2479   -5.2363    0.0000 C   0  0  0  0  0  0  0  0  0  0  0  0
   -2.7990   -4.8481    0.0000 C   0  0  0  0  0  0  0  0  0  0  0  0
   -2.0490   -6.1471    0.0000 C   0  0  0  0  0  0  0  0  0  0  0  0
   -0.7500   -6.8971    0.0000 C   0  0  0  0  0  0  0  0  0  0  0  0
    0.7500   -6.8971    0.0000 C   0  0  0  0  0  0  0  0  0  0  0  0
    2.0490   -6.1471    0.0000 C   0  0  0  0  0  0  0  0  0  0  0  0
    2.7990   -4.8481    0.0000 C   0  0  0  0  0  0  0  0  0  0  0  0
    4.2479   -5.2363    0.0000 C   0  0  0  0  0  0  0  0  0  0  0  0
    5.3086   -4.1756    0.0000 O   0  0  0  0  0  0  0  0  0  0  0  0
    4.6362   -6.6852    0.0000 N   0  0  0  0  0  0  0  0  0  0  0  0
    6.0850   -7.0734    0.0000 C   0  0  0  0  0  0  0  0  0  0  0  0
    7.2508   -6.1294    0.0000 N   0  0  0  0  0  0  0  0  0  0  0  0
    8.5088   -6.9464    0.0000 N   0  0  0  0  0  0  0  0  0  0  0  0
    8.1205   -8.3953    0.0000 N   0  0  0  0  0  0  0  0  0  0  0  0
    6.6226   -8.4738    0.0000 N   0  0  0  0  0  0  0  0  0  0  0  0
    5.8056   -9.7318    0.0000 C   0  0  0  0  0  0  0  0  0  0  0  0
    6.3432  -11.1322    0.0000 C   0  0  0  0  0  0  0  0  0  0  0  0
    5.1775  -12.0761    0.0000 C   0  0  0  0  0  0  0  0  0  0  0  0
    3.9195  -11.2592    0.0000 C   0  0  0  0  0  0  0  0  0  0  0  0
    2.5191  -11.7967    0.0000 C   0  0  0  0  0  0  0  0  0  0  0  0
    2.2844  -13.2783    0.0000 O   0  0  0  0  0  0  0  0  0  0  0  0
    1.3534  -10.8528    0.0000 N   0  0  0  0  0  0  0  0  0  0  0  0
   -0.0470  -11.3903    0.0000 C   0  0  0  0  0  0  0  0  0  0  0  0
   -1.2127  -10.4463    0.0000 N   0  0  0  0  0  0  0  0  0  0  0  0
   -2.6131  -10.9839    0.0000 N   0  0  0  0  0  0  0  0  0  0  0  0
   -2.8477  -12.4654    0.0000 N   0  0  0  0  0  0  0  0  0  0  0  0
   -1.6820  -13.4094    0.0000 N   0  0  0  0  0  0  0  0  0  0  0  0
   -0.2816  -12.8718    0.0000 N   0  0  0  0  0  0  0  0  0  0  0  0
    4.3077   -9.8103    0.0000 C   0  0  0  0  0  0  0  0  0  0  0  0
    3.3637   -8.6446    0.0000 O   0  0  0  0  0  0  0  0  0  0  0  0
    2.7990   -3.3481    0.0000 C   0  0  0  0  0  0  0  0  0  0  0  0
    4.2479   -2.9598    0.0000 O   0  0  0  0  0  0  0  0  0  0  0  0
    2.0490   -2.0490    0.0000 O   0  0  0  0  0  0  0  0  0  0  0  0
    0.7500   -1.2990    0.0000 C   0  0  0  0  0  0  0  0  0  0  0  0
    1.5000    0.0000    0.0000 C   0  0  0  0  0  0  0  0  0  0  0  0
    0.7500    1.2990    0.0000 C   0  0  0  0  0  0  0  0  0  0  0  0
   -0.7500    1.2990    0.0000 C   0  0  0  0  0  0  0  0  0  0  0  0
   -1.5000    0.0000    0.0000 C   0  0  0  0  0  0  0  0  0  0  0  0
   -0.7500   -1.2990    0.0000 C   0  0  0  0  0  0  0  0  0  0  0  0
   -2.0490   -2.0490    0.0000 C   0  0  0  0  0  0  0  0  0  0  0  0
   -2.7990   -0.7500    0.0000 C   0  0  0  0  0  0  0  0  0  0  0  0
   -4.2990   -0.7500    0.0000 C   0  0  0  0  0  0  0  0  0  0  0  0
   -5.0490   -2.0490    0.0000 C   0  0  0  0  0  0  0  0  0  0  0  0
   -4.2990   -3.3481    0.0000 C   0  0  0  0  0  0  0  0  0  0  0  0
   -2.7990   -3.3481    0.0000 C   0  0  0  0  0  0  0  0  0  0  0  0
  1  2  1  0
  2  3  1  0
  3  4  2  0
  4  5  1  0
  5  6  1  0
  6  7  1  0
  7  8  1  0
  8  9  2  0
  8 10  1  0
 10 11  1  0
 11 12  2  0
 12 13  1  0
 13 14  2  0
 14 15  1  0
 15 16  1  0
 16 17  2  0
 17 18  1  0
 18 19  2  0
 19 20  1  0
 20 21  2  0
 20 22  1  0
 22 23  1  0
 23 24  2  0
 24 25  1  0
 25 26  2  0
 26 27  1  0
 27 28  2  0
 19 29  1  0
 29 30  2  0
  7 31  1  0
 31 32  2  0
 31 33  1  0
 33 34  1  0
 34 35  2  0
 35 36  1  0
 36 37  2  0
 37 38  1  0
 38 39  2  0
 39 40  1  0
 40 41  2  0
 41 42  1  0
 42 43  2  0
 43 44  1  0
 44 45  2  0
 45  2  1  0
 15 11  1  0
 29 16  1  0
 39 34  1  0
 45 40  1  0
 28 23  1  0
M  END
>  <Title>  (323) 
idAAKMgen13

$$$$

     RDKit          2D

 17 18  0  0  0  0  0  0  0  0999 V2000
    8.0260    3.8971    0.0000 C   0  0  0  0  0  0  0  0  0  0  0  0
    7.2760    2.5981    0.0000 C   0  0  0  0  0  0  0  0  0  0  0  0
    5.7760    2.5981    0.0000 C   0  0  0  0  0  0  0  0  0  0  0  0
    5.0260    1.2990    0.0000 C   0  0  0  0  0  0  0  0  0  0  0  0
    3.5260    1.2990    0.0000 C   0  0  0  0  0  0  0  0  0  0  0  0
    2.7760    2.5981    0.0000 O   0  0  0  0  0  0  0  0  0  0  0  0
    2.7760    0.0000    0.0000 N   0  0  0  0  0  0  0  0  0  0  0  0
    1.2760    0.0000    0.0000 C   0  0  0  0  0  0  0  0  0  0  0  0
    0.3943    1.2135    0.0000 N   0  0  0  0  0  0  0  0  0  0  0  0
   -1.0323    0.7500    0.0000 N   0  0  0  0  0  0  0  0  0  0  0  0
   -1.0323   -0.7500    0.0000 N   0  0  0  0  0  0  0  0  0  0  0  0
    0.3943   -1.2135    0.0000 N   0  0  0  0  0  0  0  0  0  0  0  0
    0.8578   -2.6401    0.0000 C   0  0  0  0  0  0  0  0  0  0  0  0
   -0.0239   -3.8536    0.0000 C   0  0  0  0  0  0  0  0  0  0  0  0
    0.8578   -5.0672    0.0000 C   0  0  0  0  0  0  0  0  0  0  0  0
    2.2844   -4.6036    0.0000 C   0  0  0  0  0  0  0  0  0  0  0  0
    2.2844   -3.1036    0.0000 C   0  0  0  0  0  0  0  0  0  0  0  0
  1  2  2  0
  2  3  1  0
  3  4  1  0
  4  5  1  0
  5  6  2  0
  5  7  1  0
  7  8  1  0
  8  9  2  0
  9 10  1  0
 10 11  2  0
 11 12  1  0
 12 13  1  0
 13 14  1  0
 14 15  2  0
 15 16  1  0
 16 17  2  0
 12  8  1  0
 17 13  1  0
M  END
>  <Title>  (324) 
idAAKNgen13

$$$$

     RDKit          2D

 48 54  0  0  0  0  0  0  0  0999 V2000
    3.1443   -9.0806    0.0000 C   0  0  0  0  0  0  0  0  0  0  0  0
    2.6807   -7.6540    0.0000 C   0  0  0  0  0  0  0  0  0  0  0  0
    1.2135   -7.3421    0.0000 C   0  0  0  0  0  0  0  0  0  0  0  0
    0.7500   -5.9156    0.0000 C   0  0  0  0  0  0  0  0  0  0  0  0
    1.9635   -5.0339    0.0000 C   0  0  0  0  0  0  0  0  0  0  0  0
    2.4271   -3.6073    0.0000 C   0  0  0  0  0  0  0  0  0  0  0  0
    1.9635   -2.1807    0.0000 C   0  0  0  0  0  0  0  0  0  0  0  0
    3.1771   -1.2990    0.0000 C   0  0  0  0  0  0  0  0  0  0  0  0
    3.0203    0.1927    0.0000 O   0  0  0  0  0  0  0  0  0  0  0  0
    4.5474   -1.9091    0.0000 N   0  0  0  0  0  0  0  0  0  0  0  0
    5.7609   -1.0275    0.0000 C   0  0  0  0  0  0  0  0  0  0  0  0
    5.7609    0.4725    0.0000 N   0  0  0  0  0  0  0  0  0  0  0  0
    7.1875    0.9361    0.0000 N   0  0  0  0  0  0  0  0  0  0  0  0
    8.0692   -0.2775    0.0000 N   0  0  0  0  0  0  0  0  0  0  0  0
    7.1875   -1.4910    0.0000 N   0  0  0  0  0  0  0  0  0  0  0  0
    7.6510   -2.9176    0.0000 N   0  0  0  0  0  0  0  0  0  0  0  0
    9.0776   -3.3811    0.0000 C   0  0  0  0  0  0  0  0  0  0  0  0
    9.0776   -4.8811    0.0000 C   0  0  0  0  0  0  0  0  0  0  0  0
    7.6510   -5.3446    0.0000 C   0  0  0  0  0  0  0  0  0  0  0  0
    7.1875   -6.7712    0.0000 C   0  0  0  0  0  0  0  0  0  0  0  0
    5.7203   -7.0831    0.0000 O   0  0  0  0  0  0  0  0  0  0  0  0
    8.1912   -7.8859    0.0000 N   0  0  0  0  0  0  0  0  0  0  0  0
    7.7276   -9.3125    0.0000 C   0  0  0  0  0  0  0  0  0  0  0  0
    8.7313  -10.4272    0.0000 N   0  0  0  0  0  0  0  0  0  0  0  0
    8.2678  -11.8538    0.0000 N   0  0  0  0  0  0  0  0  0  0  0  0
    6.8006  -12.1657    0.0000 N   0  0  0  0  0  0  0  0  0  0  0  0
    5.7969  -11.0510    0.0000 N   0  0  0  0  0  0  0  0  0  0  0  0
    6.2604   -9.6244    0.0000 N   0  0  0  0  0  0  0  0  0  0  0  0
    6.7693   -4.1311    0.0000 C   0  0  0  0  0  0  0  0  0  0  0  0
    5.2693   -4.1311    0.0000 O   0  0  0  0  0  0  0  0  0  0  0  0
    0.7500   -1.2990    0.0000 C   0  0  0  0  0  0  0  0  0  0  0  0
    1.5000    0.0000    0.0000 C   0  0  0  0  0  0  0  0  0  0  0  0
    0.7500    1.2990    0.0000 C   0  0  0  0  0  0  0  0  0  0  0  0
   -0.7500    1.2990    0.0000 C   0  0  0  0  0  0  0  0  0  0  0  0
   -1.5000    0.0000    0.0000 C   0  0  0  0  0  0  0  0  0  0  0  0
   -0.7500   -1.2990    0.0000 C   0  0  0  0  0  0  0  0  0  0  0  0
   -1.9635   -2.1807    0.0000 C   0  0  0  0  0  0  0  0  0  0  0  0
   -2.9672   -1.0660    0.0000 C   0  0  0  0  0  0  0  0  0  0  0  0
   -4.4344   -1.3779    0.0000 C   0  0  0  0  0  0  0  0  0  0  0  0
   -4.8980   -2.8045    0.0000 C   0  0  0  0  0  0  0  0  0  0  0  0
   -3.8943   -3.9192    0.0000 C   0  0  0  0  0  0  0  0  0  0  0  0
   -2.4271   -3.6073    0.0000 C   0  0  0  0  0  0  0  0  0  0  0  0
   -1.9635   -5.0339    0.0000 C   0  0  0  0  0  0  0  0  0  0  0  0
   -3.3338   -5.6440    0.0000 C   0  0  0  0  0  0  0  0  0  0  0  0
   -3.4906   -7.1358    0.0000 C   0  0  0  0  0  0  0  0  0  0  0  0
   -2.2771   -8.0175    0.0000 C   0  0  0  0  0  0  0  0  0  0  0  0
   -0.9068   -7.4073    0.0000 C   0  0  0  0  0  0  0  0  0  0  0  0
   -0.7500   -5.9156    0.0000 C   0  0  0  0  0  0  0  0  0  0  0  0
  1  2  2  0
  2  3  1  0
  3  4  1  0
  4  5  2  0
  5  6  1  0
  6  7  2  0
  7  8  1  0
  8  9  2  0
  8 10  1  0
 10 11  1  0
 11 12  2  0
 12 13  1  0
 13 14  2  0
 14 15  1  0
 15 16  1  0
 16 17  1  0
 17 18  1  0
 18 19  1  0
 19 20  1  0
 20 21  2  0
 20 22  1  0
 22 23  1  0
 23 24  2  0
 24 25  1  0
 25 26  2  0
 26 27  1  0
 27 28  2  0
 19 29  1  0
 29 30  2  0
  7 31  1  0
 31 32  2  0
 32 33  1  0
 33 34  2  0
 34 35  1  0
 35 36  2  0
 36 37  1  0
 37 38  2  0
 38 39  1  0
 39 40  2  0
 40 41  1  0
 41 42  2  0
 42 43  1  0
 43 44  2  0
 44 45  1  0
 45 46  2  0
 46 47  1  0
 47 48  2  0
 48  4  1  0
 15 11  1  0
 29 16  1  0
 36 31  1  0
 42 37  1  0
 48 43  1  0
 28 23  1  0
M  END
>  <Title>  (325) 
idAAKOgen13

$$$$

     RDKit          2D

  5  5  0  0  0  0  0  0  0  0999 V2000
    1.2760    0.0000    0.0000 C   0  0  0  0  0  0  0  0  0  0  0  0
    0.3943    1.2135    0.0000 C   0  0  0  0  0  0  0  0  0  0  0  0
   -1.0323    0.7500    0.0000 C   0  0  0  0  0  0  0  0  0  0  0  0
   -1.0323   -0.7500    0.0000 C   0  0  0  0  0  0  0  0  0  0  0  0
    0.3943   -1.2135    0.0000 C   0  0  0  0  0  0  0  0  0  0  0  0
  1  2  1  0
  2  3  1  0
  3  4  1  0
  4  5  1  0
  5  1  1  0
M  END
>  <Title>  (326) 
idAAKPgen13

$$$$

     RDKit          2D

  8  9  0  0  0  0  0  0  0  0999 V2000
    1.5000    0.0000    0.0000 C   0  0  0  0  0  0  0  0  0  0  0  0
    0.7500   -1.2990    0.0000 C   0  0  0  0  0  0  0  0  0  0  0  0
   -0.7500   -1.2990    0.0000 C   0  0  0  0  0  0  0  0  0  0  0  0
   -1.5000    0.0000    0.0000 C   0  0  0  0  0  0  0  0  0  0  0  0
   -2.7990    0.7500    0.0000 C   0  0  0  0  0  0  0  0  0  0  0  0
   -2.0490    2.0490    0.0000 C   0  0  0  0  0  0  0  0  0  0  0  0
   -0.7500    1.2990    0.0000 C   0  0  0  0  0  0  0  0  0  0  0  0
    0.7500    1.2990    0.0000 C   0  0  0  0  0  0  0  0  0  0  0  0
  1  2  2  0
  2  3  1  0
  3  4  2  0
  4  5  1  0
  5  6  1  0
  6  7  1  0
  7  8  2  0
  8  1  1  0
  7  4  1  0
M  END
>  <Title>  (327) 
idAAKQgen13

$$$$

     RDKit          2D

 16 16  0  0  0  0  0  0  0  0999 V2000
    4.2760  -10.3923    0.0000 C   0  0  0  0  0  0  0  0  0  0  0  0
    3.5260   -9.0933    0.0000 C   0  0  0  0  0  0  0  0  0  0  0  0
    2.7760   -7.7942    0.0000 C   0  0  0  0  0  0  0  0  0  0  0  0
    3.5260   -6.4952    0.0000 C   0  0  0  0  0  0  0  0  0  0  0  0
    2.7760   -5.1962    0.0000 N   0  0  0  0  0  0  0  0  0  0  0  0
    3.5260   -3.8971    0.0000 C   0  0  0  0  0  0  0  0  0  0  0  0
    5.0260   -3.8971    0.0000 O   0  0  0  0  0  0  0  0  0  0  0  0
    2.7760   -2.5981    0.0000 N   0  0  0  0  0  0  0  0  0  0  0  0
    3.5260   -1.2990    0.0000 C   0  0  0  0  0  0  0  0  0  0  0  0
    5.0260   -1.2990    0.0000 C   0  0  0  0  0  0  0  0  0  0  0  0
    2.7760    0.0000    0.0000 C   0  0  0  0  0  0  0  0  0  0  0  0
    1.2760    0.0000    0.0000 C   0  0  0  0  0  0  0  0  0  0  0  0
    0.3943    1.2135    0.0000 C   0  0  0  0  0  0  0  0  0  0  0  0
   -1.0323    0.7500    0.0000 C   0  0  0  0  0  0  0  0  0  0  0  0
   -1.0323   -0.7500    0.0000 C   0  0  0  0  0  0  0  0  0  0  0  0
    0.3943   -1.2135    0.0000 C   0  0  0  0  0  0  0  0  0  0  0  0
  1  2  3  0
  2  3  1  0
  3  4  1  0
  4  5  1  0
  5  6  1  0
  6  7  2  0
  6  8  1  0
  8  9  1  0
  9 10  1  0
  9 11  1  0
 11 12  1  0
 12 13  1  0
 13 14  2  0
 14 15  1  0
 15 16  1  0
 16 12  1  0
M  END
>  <Title>  (328) 
idAAKRgen13

$$$$

     RDKit          2D

 41 46  0  0  0  0  0  0  0  0999 V2000
   -2.3737   -6.1885    0.0000 C   0  0  0  0  0  0  0  0  0  0  0  0
   -1.4095   -5.0395    0.0000 C   0  0  0  0  0  0  0  0  0  0  0  0
   -0.0000   -5.5525    0.0000 C   0  0  0  0  0  0  0  0  0  0  0  0
    1.4095   -5.0395    0.0000 C   0  0  0  0  0  0  0  0  0  0  0  0
    2.1595   -3.7404    0.0000 C   0  0  0  0  0  0  0  0  0  0  0  0
    1.8991   -2.2632    0.0000 C   0  0  0  0  0  0  0  0  0  0  0  0
    3.1981   -1.5132    0.0000 C   0  0  0  0  0  0  0  0  0  0  0  0
    3.1981   -0.0132    0.0000 O   0  0  0  0  0  0  0  0  0  0  0  0
    4.4971   -2.2632    0.0000 N   0  0  0  0  0  0  0  0  0  0  0  0
    5.7962   -1.5132    0.0000 C   0  0  0  0  0  0  0  0  0  0  0  0
    5.9530   -0.0214    0.0000 N   0  0  0  0  0  0  0  0  0  0  0  0
    7.4202    0.2904    0.0000 N   0  0  0  0  0  0  0  0  0  0  0  0
    8.1702   -1.0086    0.0000 N   0  0  0  0  0  0  0  0  0  0  0  0
    7.1665   -2.1233    0.0000 N   0  0  0  0  0  0  0  0  0  0  0  0
    7.4784   -3.5905    0.0000 N   0  0  0  0  0  0  0  0  0  0  0  0
    8.8487   -4.2007    0.0000 C   0  0  0  0  0  0  0  0  0  0  0  0
    8.6919   -5.6924    0.0000 C   0  0  0  0  0  0  0  0  0  0  0  0
    7.2247   -6.0043    0.0000 C   0  0  0  0  0  0  0  0  0  0  0  0
    6.6146   -7.3746    0.0000 C   0  0  0  0  0  0  0  0  0  0  0  0
    7.4962   -8.5881    0.0000 O   0  0  0  0  0  0  0  0  0  0  0  0
    5.1228   -7.5314    0.0000 N   0  0  0  0  0  0  0  0  0  0  0  0
    4.5127   -8.9017    0.0000 C   0  0  0  0  0  0  0  0  0  0  0  0
    3.0209   -9.0585    0.0000 N   0  0  0  0  0  0  0  0  0  0  0  0
    2.4108  -10.4288    0.0000 N   0  0  0  0  0  0  0  0  0  0  0  0
    3.2925  -11.6424    0.0000 N   0  0  0  0  0  0  0  0  0  0  0  0
    4.7843  -11.4856    0.0000 N   0  0  0  0  0  0  0  0  0  0  0  0
    5.3944  -10.1153    0.0000 N   0  0  0  0  0  0  0  0  0  0  0  0
    6.4747   -4.7053    0.0000 C   0  0  0  0  0  0  0  0  0  0  0  0
    4.9829   -4.5485    0.0000 O   0  0  0  0  0  0  0  0  0  0  0  0
    0.7500   -1.2990    0.0000 C   0  0  0  0  0  0  0  0  0  0  0  0
    1.5000    0.0000    0.0000 C   0  0  0  0  0  0  0  0  0  0  0  0
    0.7500    1.2990    0.0000 C   0  0  0  0  0  0  0  0  0  0  0  0
   -0.7500    1.2990    0.0000 C   0  0  0  0  0  0  0  0  0  0  0  0
   -1.5000    0.0000    0.0000 C   0  0  0  0  0  0  0  0  0  0  0  0
   -0.7500   -1.2990    0.0000 C   0  0  0  0  0  0  0  0  0  0  0  0
   -1.8991   -2.2632    0.0000 C   0  0  0  0  0  0  0  0  0  0  0  0
   -3.0481   -1.2990    0.0000 C   0  0  0  0  0  0  0  0  0  0  0  0
   -4.4577   -1.8121    0.0000 C   0  0  0  0  0  0  0  0  0  0  0  0
   -4.7181   -3.2893    0.0000 C   0  0  0  0  0  0  0  0  0  0  0  0
   -3.5691   -4.2535    0.0000 C   0  0  0  0  0  0  0  0  0  0  0  0
   -2.1595   -3.7404    0.0000 C   0  0  0  0  0  0  0  0  0  0  0  0
  1  2  1  0
  2  3  1  0
  3  4  2  0
  4  5  1  0
  5  6  1  0
  6  7  1  0
  7  8  2  0
  7  9  1  0
  9 10  1  0
 10 11  2  0
 11 12  1  0
 12 13  2  0
 13 14  1  0
 14 15  1  0
 15 16  1  0
 16 17  1  0
 17 18  1  0
 18 19  1  0
 19 20  2  0
 19 21  1  0
 21 22  1  0
 22 23  2  0
 23 24  1  0
 24 25  2  0
 25 26  1  0
 26 27  2  0
 18 28  1  0
 28 29  2  0
  6 30  1  0
 30 31  2  0
 31 32  1  0
 32 33  2  0
 33 34  1  0
 34 35  2  0
 35 36  1  0
 36 37  2  0
 37 38  1  0
 38 39  2  0
 39 40  1  0
 40 41  2  0
 41  2  1  0
 14 10  1  0
 28 15  1  0
 35 30  1  0
 41 36  1  0
 27 22  1  0
M  END
>  <Title>  (329) 
idAAKSgen13

$$$$

     RDKit          2D

 32 36  0  0  0  0  0  0  0  0999 V2000
   -3.0000   -2.5981    0.0000 C   0  0  0  0  0  0  0  0  0  0  0  0
   -1.5000   -2.5981    0.0000 C   0  0  0  0  0  0  0  0  0  0  0  0
   -0.7500   -3.8971    0.0000 C   0  0  0  0  0  0  0  0  0  0  0  0
    0.7500   -3.8971    0.0000 C   0  0  0  0  0  0  0  0  0  0  0  0
    1.5000   -2.5981    0.0000 C   0  0  0  0  0  0  0  0  0  0  0  0
    3.0000   -2.5981    0.0000 C   0  0  0  0  0  0  0  0  0  0  0  0
    3.7500   -1.2990    0.0000 O   0  0  0  0  0  0  0  0  0  0  0  0
    3.7500   -3.8971    0.0000 N   0  0  0  0  0  0  0  0  0  0  0  0
    5.2500   -3.8971    0.0000 C   0  0  0  0  0  0  0  0  0  0  0  0
    6.1317   -2.6836    0.0000 N   0  0  0  0  0  0  0  0  0  0  0  0
    7.5583   -3.1471    0.0000 N   0  0  0  0  0  0  0  0  0  0  0  0
    7.5583   -4.6471    0.0000 N   0  0  0  0  0  0  0  0  0  0  0  0
    6.1317   -5.1106    0.0000 N   0  0  0  0  0  0  0  0  0  0  0  0
    5.6682   -6.5372    0.0000 N   0  0  0  0  0  0  0  0  0  0  0  0
    6.5498   -7.7508    0.0000 C   0  0  0  0  0  0  0  0  0  0  0  0
    5.6682   -8.9643    0.0000 C   0  0  0  0  0  0  0  0  0  0  0  0
    4.2416   -8.5008    0.0000 N   0  0  0  0  0  0  0  0  0  0  0  0
    3.0280   -9.3824    0.0000 C   0  0  0  0  0  0  0  0  0  0  0  0
    3.1848  -10.8742    0.0000 O   0  0  0  0  0  0  0  0  0  0  0  0
    1.6577   -8.7723    0.0000 N   0  0  0  0  0  0  0  0  0  0  0  0
    0.3587   -9.5223    0.0000 C   0  0  0  0  0  0  0  0  0  0  0  0
   -0.7560   -8.5186    0.0000 C   0  0  0  0  0  0  0  0  0  0  0  0
   -0.1459   -7.1483    0.0000 C   0  0  0  0  0  0  0  0  0  0  0  0
    1.3459   -7.3051    0.0000 C   0  0  0  0  0  0  0  0  0  0  0  0
    4.2416   -7.0008    0.0000 C   0  0  0  0  0  0  0  0  0  0  0  0
    3.0280   -6.1191    0.0000 O   0  0  0  0  0  0  0  0  0  0  0  0
    0.7500   -1.2990    0.0000 C   0  0  0  0  0  0  0  0  0  0  0  0
    1.5000    0.0000    0.0000 C   0  0  0  0  0  0  0  0  0  0  0  0
    0.7500    1.2990    0.0000 C   0  0  0  0  0  0  0  0  0  0  0  0
   -0.7500    1.2990    0.0000 C   0  0  0  0  0  0  0  0  0  0  0  0
   -1.5000    0.0000    0.0000 C   0  0  0  0  0  0  0  0  0  0  0  0
   -0.7500   -1.2990    0.0000 C   0  0  0  0  0  0  0  0  0  0  0  0
  1  2  1  0
  2  3  1  0
  3  4  1  0
  4  5  1  0
  5  6  1  0
  6  7  2  0
  6  8  1  0
  8  9  1  0
  9 10  2  0
 10 11  1  0
 11 12  2  0
 12 13  1  0
 13 14  1  0
 14 15  1  0
 15 16  1  0
 16 17  1  0
 17 18  1  0
 18 19  2  0
 18 20  1  0
 20 21  1  0
 21 22  2  0
 22 23  1  0
 23 24  2  0
 17 25  1  0
 25 26  2  0
  5 27  1  0
 27 28  2  0
 28 29  1  0
 29 30  2  0
 30 31  1  0
 31 32  2  0
 32  2  1  0
 13  9  1  0
 25 14  1  0
 32 27  1  0
 24 20  1  0
M  END
>  <Title>  (330) 
idAAKTgen13

$$$$

     RDKit          2D

 39 44  0  0  0  0  0  0  0  0999 V2000
   -3.1771   -5.9156    0.0000 C   0  0  0  0  0  0  0  0  0  0  0  0
   -1.9635   -5.0339    0.0000 C   0  0  0  0  0  0  0  0  0  0  0  0
   -0.7500   -5.9156    0.0000 C   0  0  0  0  0  0  0  0  0  0  0  0
    0.7500   -5.9156    0.0000 C   0  0  0  0  0  0  0  0  0  0  0  0
    1.9635   -5.0339    0.0000 C   0  0  0  0  0  0  0  0  0  0  0  0
    2.4271   -3.6073    0.0000 C   0  0  0  0  0  0  0  0  0  0  0  0
    1.9635   -2.1807    0.0000 C   0  0  0  0  0  0  0  0  0  0  0  0
    3.1771   -1.2990    0.0000 C   0  0  0  0  0  0  0  0  0  0  0  0
    3.0203    0.1927    0.0000 O   0  0  0  0  0  0  0  0  0  0  0  0
    4.5474   -1.9091    0.0000 N   0  0  0  0  0  0  0  0  0  0  0  0
    5.7609   -1.0275    0.0000 C   0  0  0  0  0  0  0  0  0  0  0  0
    5.7609    0.4725    0.0000 N   0  0  0  0  0  0  0  0  0  0  0  0
    7.1875    0.9361    0.0000 N   0  0  0  0  0  0  0  0  0  0  0  0
    8.0692   -0.2775    0.0000 N   0  0  0  0  0  0  0  0  0  0  0  0
    7.1875   -1.4910    0.0000 N   0  0  0  0  0  0  0  0  0  0  0  0
    7.6510   -2.9176    0.0000 N   0  0  0  0  0  0  0  0  0  0  0  0
    9.0776   -3.3811    0.0000 C   0  0  0  0  0  0  0  0  0  0  0  0
    9.0776   -4.8811    0.0000 C   0  0  0  0  0  0  0  0  0  0  0  0
    7.6510   -5.3446    0.0000 N   0  0  0  0  0  0  0  0  0  0  0  0
    7.1875   -6.7712    0.0000 C   0  0  0  0  0  0  0  0  0  0  0  0
    5.7203   -7.0831    0.0000 N   0  0  0  0  0  0  0  0  0  0  0  0
    5.2567   -8.5097    0.0000 N   0  0  0  0  0  0  0  0  0  0  0  0
    6.2604   -9.6244    0.0000 N   0  0  0  0  0  0  0  0  0  0  0  0
    7.7276   -9.3125    0.0000 N   0  0  0  0  0  0  0  0  0  0  0  0
    8.1912   -7.8859    0.0000 N   0  0  0  0  0  0  0  0  0  0  0  0
    6.7693   -4.1311    0.0000 C   0  0  0  0  0  0  0  0  0  0  0  0
    5.2693   -4.1311    0.0000 O   0  0  0  0  0  0  0  0  0  0  0  0
    0.7500   -1.2990    0.0000 C   0  0  0  0  0  0  0  0  0  0  0  0
    1.5000    0.0000    0.0000 C   0  0  0  0  0  0  0  0  0  0  0  0
    0.7500    1.2990    0.0000 C   0  0  0  0  0  0  0  0  0  0  0  0
   -0.7500    1.2990    0.0000 C   0  0  0  0  0  0  0  0  0  0  0  0
   -1.5000    0.0000    0.0000 C   0  0  0  0  0  0  0  0  0  0  0  0
   -0.7500   -1.2990    0.0000 C   0  0  0  0  0  0  0  0  0  0  0  0
   -1.9635   -2.1807    0.0000 C   0  0  0  0  0  0  0  0  0  0  0  0
   -2.9672   -1.0660    0.0000 C   0  0  0  0  0  0  0  0  0  0  0  0
   -4.4344   -1.3779    0.0000 C   0  0  0  0  0  0  0  0  0  0  0  0
   -4.8980   -2.8045    0.0000 C   0  0  0  0  0  0  0  0  0  0  0  0
   -3.8943   -3.9192    0.0000 C   0  0  0  0  0  0  0  0  0  0  0  0
   -2.4271   -3.6073    0.0000 C   0  0  0  0  0  0  0  0  0  0  0  0
  1  2  1  0
  2  3  1  0
  3  4  2  0
  4  5  1  0
  5  6  1  0
  6  7  1  0
  7  8  1  0
  8  9  2  0
  8 10  1  0
 10 11  1  0
 11 12  2  0
 12 13  1  0
 13 14  2  0
 14 15  1  0
 15 16  1  0
 16 17  1  0
 17 18  1  0
 18 19  1  0
 19 20  1  0
 20 21  2  0
 21 22  1  0
 22 23  2  0
 23 24  1  0
 24 25  2  0
 19 26  1  0
 26 27  2  0
  7 28  1  0
 28 29  2  0
 29 30  1  0
 30 31  2  0
 31 32  1  0
 32 33  2  0
 33 34  1  0
 34 35  2  0
 35 36  1  0
 36 37  2  0
 37 38  1  0
 38 39  2  0
 39  2  1  0
 15 11  1  0
 26 16  1  0
 33 28  1  0
 39 34  1  0
 25 20  1  0
M  END
>  <Title>  (331) 
idAAKUgen13

$$$$

     RDKit          2D

 30 34  0  0  0  0  0  0  0  0999 V2000
   -1.3240   -6.3062    0.0000 C   0  0  0  0  0  0  0  0  0  0  0  0
   -0.7500   -4.9204    0.0000 C   0  0  0  0  0  0  0  0  0  0  0  0
    0.7500   -4.9204    0.0000 C   0  0  0  0  0  0  0  0  0  0  0  0
    1.8107   -3.8597    0.0000 C   0  0  0  0  0  0  0  0  0  0  0  0
    1.8107   -2.3597    0.0000 C   0  0  0  0  0  0  0  0  0  0  0  0
    3.1965   -1.7857    0.0000 C   0  0  0  0  0  0  0  0  0  0  0  0
    3.3923   -0.2985    0.0000 O   0  0  0  0  0  0  0  0  0  0  0  0
    4.3865   -2.6988    0.0000 N   0  0  0  0  0  0  0  0  0  0  0  0
    5.7723   -2.1248    0.0000 C   0  0  0  0  0  0  0  0  0  0  0  0
    6.1225   -0.6662    0.0000 N   0  0  0  0  0  0  0  0  0  0  0  0
    7.6179   -0.5485    0.0000 N   0  0  0  0  0  0  0  0  0  0  0  0
    8.1919   -1.9344    0.0000 N   0  0  0  0  0  0  0  0  0  0  0  0
    7.0513   -2.9085    0.0000 N   0  0  0  0  0  0  0  0  0  0  0  0
    7.1690   -4.4039    0.0000 N   0  0  0  0  0  0  0  0  0  0  0  0
    8.4479   -5.1877    0.0000 C   0  0  0  0  0  0  0  0  0  0  0  0
    8.0978   -6.6462    0.0000 N   0  0  0  0  0  0  0  0  0  0  0  0
    6.6024   -6.7639    0.0000 N   0  0  0  0  0  0  0  0  0  0  0  0
    6.0284   -5.3781    0.0000 N   0  0  0  0  0  0  0  0  0  0  0  0
    0.7500   -1.2990    0.0000 C   0  0  0  0  0  0  0  0  0  0  0  0
    1.5000    0.0000    0.0000 C   0  0  0  0  0  0  0  0  0  0  0  0
    0.7500    1.2990    0.0000 C   0  0  0  0  0  0  0  0  0  0  0  0
   -0.7500    1.2990    0.0000 C   0  0  0  0  0  0  0  0  0  0  0  0
   -1.5000    0.0000    0.0000 C   0  0  0  0  0  0  0  0  0  0  0  0
   -0.7500   -1.2990    0.0000 C   0  0  0  0  0  0  0  0  0  0  0  0
   -1.8107   -2.3597    0.0000 C   0  0  0  0  0  0  0  0  0  0  0  0
   -3.1097   -1.6097    0.0000 C   0  0  0  0  0  0  0  0  0  0  0  0
   -4.4087   -2.3597    0.0000 C   0  0  0  0  0  0  0  0  0  0  0  0
   -4.4087   -3.8597    0.0000 C   0  0  0  0  0  0  0  0  0  0  0  0
   -3.1097   -4.6097    0.0000 C   0  0  0  0  0  0  0  0  0  0  0  0
   -1.8107   -3.8597    0.0000 C   0  0  0  0  0  0  0  0  0  0  0  0
  1  2  1  0
  2  3  2  0
  3  4  1  0
  4  5  2  0
  5  6  1  0
  6  7  2  0
  6  8  1  0
  8  9  1  0
  9 10  2  0
 10 11  1  0
 11 12  2  0
 12 13  1  0
 13 14  1  0
 14 15  1  0
 15 16  2  0
 16 17  1  0
 17 18  2  0
  5 19  1  0
 19 20  2  0
 20 21  1  0
 21 22  2  0
 22 23  1  0
 23 24  2  0
 24 25  1  0
 25 26  2  0
 26 27  1  0
 27 28  2  0
 28 29  1  0
 29 30  2  0
 30  2  1  0
 13  9  1  0
 18 14  1  0
 24 19  1  0
 30 25  1  0
M  END
>  <Title>  (332) 
idAAKVgen13

$$$$

     RDKit          2D

  7  6  0  0  0  0  0  0  0  0999 V2000
    0.0000    0.0000    0.0000 C   0  0  0  0  0  0  0  0  0  0  0  0
   -0.0000   -1.5000    0.0000 C   0  0  0  0  0  0  0  0  0  0  0  0
   -0.0000   -3.0000    0.0000 C   0  0  0  0  0  0  0  0  0  0  0  0
    1.2990   -3.7500    0.0000 C   0  0  0  0  0  0  0  0  0  0  0  0
    1.2990   -5.2500    0.0000 C   0  0  0  0  0  0  0  0  0  0  0  0
    2.5981   -6.0000    0.0000 C   0  0  0  0  0  0  0  0  0  0  0  0
   -0.0000   -6.0000    0.0000 F   0  0  0  0  0  0  0  0  0  0  0  0
  1  2  3  0
  2  3  1  0
  3  4  1  0
  4  5  1  0
  5  6  1  0
  5  7  1  0
M  END
>  <Title>  (333) 
idAAKWgen13

$$$$

     RDKit          2D

  6  6  0  0  0  0  0  0  0  0999 V2000
    1.5000    0.0000    0.0000 C   0  0  0  0  0  0  0  0  0  0  0  0
    0.7500   -1.2990    0.0000 C   0  0  0  0  0  0  0  0  0  0  0  0
   -0.7500   -1.2990    0.0000 N   0  0  0  0  0  0  0  0  0  0  0  0
   -1.5000    0.0000    0.0000 C   0  0  0  0  0  0  0  0  0  0  0  0
   -0.7500    1.2990    0.0000 C   0  0  0  0  0  0  0  0  0  0  0  0
    0.7500    1.2990    0.0000 C   0  0  0  0  0  0  0  0  0  0  0  0
  1  2  2  0
  2  3  1  0
  3  4  1  0
  4  5  2  0
  5  6  1  0
  6  1  1  0
M  END
>  <Title>  (334) 
idAAKXgen13

$$$$

     RDKit          2D

  9  8  0  0  0  0  0  0  0  0999 V2000
    0.0000    0.0000    0.0000 C   0  0  0  0  0  0  0  0  0  0  0  0
   -0.0000   -1.5000    0.0000 C   0  0  0  0  0  0  0  0  0  0  0  0
   -0.0000   -3.0000    0.0000 C   0  0  0  0  0  0  0  0  0  0  0  0
   -0.0000   -4.5000    0.0000 C   0  0  0  0  0  0  0  0  0  0  0  0
   -0.0000   -6.0000    0.0000 C   0  0  0  0  0  0  0  0  0  0  0  0
    1.2990   -6.7500    0.0000 C   0  0  0  0  0  0  0  0  0  0  0  0
    1.2990   -8.2500    0.0000 C   0  0  0  0  0  0  0  0  0  0  0  0
    2.5981   -9.0000    0.0000 C   0  0  0  0  0  0  0  0  0  0  0  0
    2.5981  -10.5000    0.0000 C   0  0  0  0  0  0  0  0  0  0  0  0
  1  2  3  0
  2  3  1  0
  3  4  3  0
  4  5  1  0
  5  6  1  0
  6  7  1  0
  7  8  2  3
  8  9  1  0
M  END
>  <Title>  (335) 
idAAKYgen13

$$$$

     RDKit          2D

 16 18  0  0  0  0  0  0  0  0999 V2000
   -2.9108    4.3555    0.0000 C   0  0  0  0  0  0  0  0  0  0  0  0
   -2.8323    2.8576    0.0000 C   0  0  0  0  0  0  0  0  0  0  0  0
   -4.0903    2.0406    0.0000 O   0  0  0  0  0  0  0  0  0  0  0  0
   -1.4958    2.1766    0.0000 N   0  0  0  0  0  0  0  0  0  0  0  0
   -0.0692    2.6401    0.0000 C   0  0  0  0  0  0  0  0  0  0  0  0
    0.3943    1.2135    0.0000 C   0  0  0  0  0  0  0  0  0  0  0  0
    1.2760    0.0000    0.0000 C   0  0  0  0  0  0  0  0  0  0  0  0
    0.3943   -1.2135    0.0000 C   0  0  0  0  0  0  0  0  0  0  0  0
   -1.0323   -0.7500    0.0000 N   0  0  0  0  0  0  0  0  0  0  0  0
   -2.2458   -1.6317    0.0000 C   0  0  0  0  0  0  0  0  0  0  0  0
   -3.6161   -1.0216    0.0000 N   0  0  0  0  0  0  0  0  0  0  0  0
   -4.9152   -1.7716    0.0000 C   0  0  0  0  0  0  0  0  0  0  0  0
   -6.0299   -0.7679    0.0000 C   0  0  0  0  0  0  0  0  0  0  0  0
   -5.4198    0.6024    0.0000 C   0  0  0  0  0  0  0  0  0  0  0  0
   -3.9280    0.4456    0.0000 C   0  0  0  0  0  0  0  0  0  0  0  0
   -1.0323    0.7500    0.0000 C   0  0  0  0  0  0  0  0  0  0  0  0
  1  2  1  0
  2  3  2  0
  2  4  1  0
  4  5  1  0
  5  6  1  0
  6  7  1  0
  7  8  1  0
  8  9  1  0
  9 10  1  0
 10 11  1  0
 11 12  1  0
 12 13  1  0
 13 14  2  0
 14 15  1  0
  9 16  1  0
 16  4  1  0
 16  6  1  0
 15 11  1  0
M  END
>  <Title>  (336) 
idAAKZgen13

$$$$

     RDKit          2D

 37 41  0  0  0  0  0  0  0  0999 V2000
   -3.1965   -1.7857    0.0000 C   0  0  0  0  0  0  0  0  0  0  0  0
   -1.8107   -2.3597    0.0000 C   0  0  0  0  0  0  0  0  0  0  0  0
   -1.8107   -3.8597    0.0000 C   0  0  0  0  0  0  0  0  0  0  0  0
   -0.7500   -4.9204    0.0000 C   0  0  0  0  0  0  0  0  0  0  0  0
    0.7500   -4.9204    0.0000 C   0  0  0  0  0  0  0  0  0  0  0  0
    1.8107   -3.8597    0.0000 C   0  0  0  0  0  0  0  0  0  0  0  0
    1.8107   -2.3597    0.0000 C   0  0  0  0  0  0  0  0  0  0  0  0
    3.1965   -1.7857    0.0000 C   0  0  0  0  0  0  0  0  0  0  0  0
    3.3923   -0.2985    0.0000 O   0  0  0  0  0  0  0  0  0  0  0  0
    4.3865   -2.6988    0.0000 N   0  0  0  0  0  0  0  0  0  0  0  0
    5.7723   -2.1248    0.0000 C   0  0  0  0  0  0  0  0  0  0  0  0
    6.1225   -0.6662    0.0000 N   0  0  0  0  0  0  0  0  0  0  0  0
    7.6179   -0.5485    0.0000 N   0  0  0  0  0  0  0  0  0  0  0  0
    8.1919   -1.9344    0.0000 N   0  0  0  0  0  0  0  0  0  0  0  0
    7.0513   -2.9085    0.0000 N   0  0  0  0  0  0  0  0  0  0  0  0
    7.1690   -4.4039    0.0000 C   0  0  0  0  0  0  0  0  0  0  0  0
    8.4479   -5.1877    0.0000 C   0  0  0  0  0  0  0  0  0  0  0  0
    8.0978   -6.6462    0.0000 C   0  0  0  0  0  0  0  0  0  0  0  0
    6.6024   -6.7639    0.0000 C   0  0  0  0  0  0  0  0  0  0  0  0
    5.8186   -8.0429    0.0000 O   0  0  0  0  0  0  0  0  0  0  0  0
    4.3192   -8.0036    0.0000 C   0  0  0  0  0  0  0  0  0  0  0  0
    3.6034   -6.6854    0.0000 O   0  0  0  0  0  0  0  0  0  0  0  0
    3.5354   -9.2826    0.0000 N   0  0  0  0  0  0  0  0  0  0  0  0
    2.0359   -9.2433    0.0000 C   0  0  0  0  0  0  0  0  0  0  0  0
    1.3202   -7.9251    0.0000 N   0  0  0  0  0  0  0  0  0  0  0  0
   -0.1793   -7.8858    0.0000 N   0  0  0  0  0  0  0  0  0  0  0  0
   -0.9630   -9.1648    0.0000 N   0  0  0  0  0  0  0  0  0  0  0  0
   -0.2473  -10.4830    0.0000 N   0  0  0  0  0  0  0  0  0  0  0  0
    1.2522  -10.5223    0.0000 N   0  0  0  0  0  0  0  0  0  0  0  0
    6.0284   -5.3781    0.0000 C   0  0  0  0  0  0  0  0  0  0  0  0
    4.5698   -5.0279    0.0000 O   0  0  0  0  0  0  0  0  0  0  0  0
    0.7500   -1.2990    0.0000 C   0  0  0  0  0  0  0  0  0  0  0  0
    1.5000    0.0000    0.0000 C   0  0  0  0  0  0  0  0  0  0  0  0
    0.7500    1.2990    0.0000 C   0  0  0  0  0  0  0  0  0  0  0  0
   -0.7500    1.2990    0.0000 C   0  0  0  0  0  0  0  0  0  0  0  0
   -1.5000    0.0000    0.0000 C   0  0  0  0  0  0  0  0  0  0  0  0
   -0.7500   -1.2990    0.0000 C   0  0  0  0  0  0  0  0  0  0  0  0
  1  2  1  0
  2  3  1  0
  3  4  1  0
  4  5  1  0
  5  6  1  0
  6  7  1  0
  7  8  1  0
  8  9  2  0
  8 10  1  0
 10 11  1  0
 11 12  2  0
 12 13  1  0
 13 14  2  0
 14 15  1  0
 15 16  1  0
 16 17  2  0
 17 18  1  0
 18 19  2  0
 19 20  1  0
 20 21  1  0
 21 22  2  0
 21 23  1  0
 23 24  1  0
 24 25  2  0
 25 26  1  0
 26 27  2  0
 27 28  1  0
 28 29  2  0
 19 30  1  0
 30 31  2  0
  7 32  1  0
 32 33  2  0
 33 34  1  0
 34 35  2  0
 35 36  1  0
 36 37  2  0
 37  2  1  0
 15 11  1  0
 30 16  1  0
 37 32  1  0
 29 24  1  0
M  END
>  <Title>  (337) 
idAALAgen13

$$$$

     RDKit          2D

 40 44  0  0  0  0  0  0  0  0999 V2000
   -8.2500   -6.4952    0.0000 C   0  0  0  0  0  0  0  0  0  0  0  0
   -7.5000   -5.1962    0.0000 C   0  0  0  0  0  0  0  0  0  0  0  0
   -6.0000   -5.1962    0.0000 C   0  0  0  0  0  0  0  0  0  0  0  0
   -5.2500   -3.8971    0.0000 C   0  0  0  0  0  0  0  0  0  0  0  0
   -3.7500   -3.8971    0.0000 C   0  0  0  0  0  0  0  0  0  0  0  0
   -3.0000   -5.1962    0.0000 O   0  0  0  0  0  0  0  0  0  0  0  0
   -3.0000   -2.5981    0.0000 N   0  0  0  0  0  0  0  0  0  0  0  0
   -1.5000   -2.5981    0.0000 C   0  0  0  0  0  0  0  0  0  0  0  0
   -0.7500   -3.8971    0.0000 C   0  0  0  0  0  0  0  0  0  0  0  0
    0.7500   -3.8971    0.0000 C   0  0  0  0  0  0  0  0  0  0  0  0
    1.5000   -2.5981    0.0000 C   0  0  0  0  0  0  0  0  0  0  0  0
    3.0000   -2.5981    0.0000 C   0  0  0  0  0  0  0  0  0  0  0  0
    3.7500   -1.2990    0.0000 O   0  0  0  0  0  0  0  0  0  0  0  0
    3.7500   -3.8971    0.0000 N   0  0  0  0  0  0  0  0  0  0  0  0
    5.2500   -3.8971    0.0000 C   0  0  0  0  0  0  0  0  0  0  0  0
    6.1317   -2.6836    0.0000 N   0  0  0  0  0  0  0  0  0  0  0  0
    7.5583   -3.1471    0.0000 N   0  0  0  0  0  0  0  0  0  0  0  0
    7.5583   -4.6471    0.0000 N   0  0  0  0  0  0  0  0  0  0  0  0
    6.1317   -5.1106    0.0000 N   0  0  0  0  0  0  0  0  0  0  0  0
    5.6682   -6.5372    0.0000 N   0  0  0  0  0  0  0  0  0  0  0  0
    6.5498   -7.7508    0.0000 C   0  0  0  0  0  0  0  0  0  0  0  0
    5.6682   -8.9643    0.0000 C   0  0  0  0  0  0  0  0  0  0  0  0
    4.2416   -8.5008    0.0000 C   0  0  0  0  0  0  0  0  0  0  0  0
    3.0280   -9.3824    0.0000 C   0  0  0  0  0  0  0  0  0  0  0  0
    3.1848  -10.8742    0.0000 O   0  0  0  0  0  0  0  0  0  0  0  0
    1.6577   -8.7723    0.0000 N   0  0  0  0  0  0  0  0  0  0  0  0
    0.4442   -9.6540    0.0000 C   0  0  0  0  0  0  0  0  0  0  0  0
   -0.9261   -9.0439    0.0000 N   0  0  0  0  0  0  0  0  0  0  0  0
   -2.1396   -9.9256    0.0000 N   0  0  0  0  0  0  0  0  0  0  0  0
   -1.9829  -11.4174    0.0000 N   0  0  0  0  0  0  0  0  0  0  0  0
   -0.6125  -12.0275    0.0000 N   0  0  0  0  0  0  0  0  0  0  0  0
    0.6010  -11.1458    0.0000 N   0  0  0  0  0  0  0  0  0  0  0  0
    4.2416   -7.0008    0.0000 C   0  0  0  0  0  0  0  0  0  0  0  0
    3.0280   -6.1191    0.0000 O   0  0  0  0  0  0  0  0  0  0  0  0
    0.7500   -1.2990    0.0000 C   0  0  0  0  0  0  0  0  0  0  0  0
    1.5000    0.0000    0.0000 C   0  0  0  0  0  0  0  0  0  0  0  0
    0.7500    1.2990    0.0000 C   0  0  0  0  0  0  0  0  0  0  0  0
   -0.7500    1.2990    0.0000 C   0  0  0  0  0  0  0  0  0  0  0  0
   -1.5000    0.0000    0.0000 C   0  0  0  0  0  0  0  0  0  0  0  0
   -0.7500   -1.2990    0.0000 C   0  0  0  0  0  0  0  0  0  0  0  0
  1  2  2  0
  2  3  1  0
  3  4  1  0
  4  5  1  0
  5  6  2  0
  5  7  1  0
  7  8  1  0
  8  9  2  0
  9 10  1  0
 10 11  2  0
 11 12  1  0
 12 13  2  0
 12 14  1  0
 14 15  1  0
 15 16  2  0
 16 17  1  0
 17 18  2  0
 18 19  1  0
 19 20  1  0
 20 21  1  0
 21 22  1  0
 22 23  1  0
 23 24  1  0
 24 25  2  0
 24 26  1  0
 26 27  1  0
 27 28  2  0
 28 29  1  0
 29 30  2  0
 30 31  1  0
 31 32  2  0
 23 33  1  0
 33 34  2  0
 11 35  1  0
 35 36  2  0
 36 37  1  0
 37 38  2  0
 38 39  1  0
 39 40  2  0
 40  8  1  0
 19 15  1  0
 33 20  1  0
 40 35  1  0
 32 27  1  0
M  END
>  <Title>  (338) 
idAALBgen13

$$$$

     RDKit          2D

 59 58  0  0  0  0  0  0  0  0999 V2000
    0.0000    0.0000    0.0000 C   0  0  0  0  0  0  0  0  0  0  0  0
   -0.0000   -1.5000    0.0000 C   0  0  0  0  0  0  0  0  0  0  0  0
   -0.0000   -3.0000    0.0000 C   0  0  0  0  0  0  0  0  0  0  0  0
   -0.0000   -4.5000    0.0000 C   0  0  0  0  0  0  0  0  0  0  0  0
   -0.0000   -6.0000    0.0000 C   0  0  0  0  0  0  0  0  0  0  0  0
   -0.0000   -7.5000    0.0000 C   0  0  0  0  0  0  0  0  0  0  0  0
   -0.0000   -9.0000    0.0000 C   0  0  0  0  0  0  0  0  0  0  0  0
   -0.0000  -10.5000    0.0000 C   0  0  0  0  0  0  0  0  0  0  0  0
   -0.0000  -12.0000    0.0000 C   0  0  0  0  0  0  0  0  0  0  0  0
   -0.0000  -13.5000    0.0000 C   0  0  0  0  0  0  0  0  0  0  0  0
   -0.0000  -15.0000    0.0000 C   0  0  0  0  0  0  0  0  0  0  0  0
   -0.0000  -16.5000    0.0000 C   0  0  0  0  0  0  0  0  0  0  0  0
   -0.0000  -18.0000    0.0000 C   0  0  0  0  0  0  0  0  0  0  0  0
   -0.0000  -19.5000    0.0000 C   0  0  0  0  0  0  0  0  0  0  0  0
   -0.0000  -21.0000    0.0000 C   0  0  0  0  0  0  0  0  0  0  0  0
   -0.0000  -22.5000    0.0000 C   0  0  0  0  0  0  0  0  0  0  0  0
   -0.0000  -24.0000    0.0000 C   0  0  0  0  0  0  0  0  0  0  0  0
   -0.0000  -25.5000    0.0000 C   0  0  0  0  0  0  0  0  0  0  0  0
   -0.0000  -27.0000    0.0000 C   0  0  0  0  0  0  0  0  0  0  0  0
   -0.0000  -28.5000    0.0000 C   0  0  0  0  0  0  0  0  0  0  0  0
   -0.0000  -30.0000    0.0000 C   0  0  0  0  0  0  0  0  0  0  0  0
   -0.0000  -31.5000    0.0000 C   0  0  0  0  0  0  0  0  0  0  0  0
   -0.0000  -33.0000    0.0000 C   0  0  0  0  0  0  0  0  0  0  0  0
   -0.0000  -34.5000    0.0000 C   0  0  0  0  0  0  0  0  0  0  0  0
   -0.0000  -36.0000    0.0000 C   0  0  0  0  0  0  0  0  0  0  0  0
   -0.0000  -37.5000    0.0000 C   0  0  0  0  0  0  0  0  0  0  0  0
   -0.0000  -39.0000    0.0000 C   0  0  0  0  0  0  0  0  0  0  0  0
   -0.0000  -40.5000    0.0000 C   0  0  0  0  0  0  0  0  0  0  0  0
   -0.0000  -42.0000    0.0000 C   0  0  0  0  0  0  0  0  0  0  0  0
   -0.0000  -43.5000    0.0000 C   0  0  0  0  0  0  0  0  0  0  0  0
   -0.0000  -45.0000    0.0000 C   0  0  0  0  0  0  0  0  0  0  0  0
   -0.0000  -46.5000    0.0000 C   0  0  0  0  0  0  0  0  0  0  0  0
   -0.0000  -48.0000    0.0000 C   0  0  0  0  0  0  0  0  0  0  0  0
   -0.0000  -49.5000    0.0000 C   0  0  0  0  0  0  0  0  0  0  0  0
   -0.0000  -51.0000    0.0000 C   0  0  0  0  0  0  0  0  0  0  0  0
   -0.0000  -52.5000    0.0000 C   0  0  0  0  0  0  0  0  0  0  0  0
   -0.0000  -54.0000    0.0000 C   0  0  0  0  0  0  0  0  0  0  0  0
   -0.0000  -55.5000    0.0000 C   0  0  0  0  0  0  0  0  0  0  0  0
   -0.0000  -57.0000    0.0000 C   0  0  0  0  0  0  0  0  0  0  0  0
   -0.0000  -58.5000    0.0000 C   0  0  0  0  0  0  0  0  0  0  0  0
   -0.0000  -60.0000    0.0000 C   0  0  0  0  0  0  0  0  0  0  0  0
   -0.0000  -61.5000    0.0000 C   0  0  0  0  0  0  0  0  0  0  0  0
   -0.0000  -63.0000    0.0000 C   0  0  0  0  0  0  0  0  0  0  0  0
   -0.0000  -64.5000    0.0000 C   0  0  0  0  0  0  0  0  0  0  0  0
   -0.0000  -66.0000    0.0000 C   0  0  0  0  0  0  0  0  0  0  0  0
   -0.0000  -67.5000    0.0000 C   0  0  0  0  0  0  0  0  0  0  0  0
   -0.0000  -69.0000    0.0000 C   0  0  0  0  0  0  0  0  0  0  0  0
   -0.0000  -70.5000    0.0000 C   0  0  0  0  0  0  0  0  0  0  0  0
   -0.0000  -72.0000    0.0000 C   0  0  0  0  0  0  0  0  0  0  0  0
   -0.0000  -73.5000    0.0000 C   0  0  0  0  0  0  0  0  0  0  0  0
   -0.0000  -75.0000    0.0000 C   0  0  0  0  0  0  0  0  0  0  0  0
   -0.0000  -76.5000    0.0000 C   0  0  0  0  0  0  0  0  0  0  0  0
   -0.0000  -78.0000    0.0000 C   0  0  0  0  0  0  0  0  0  0  0  0
   -0.0000  -79.5000    0.0000 C   0  0  0  0  0  0  0  0  0  0  0  0
   -0.0000  -81.0000    0.0000 C   0  0  0  0  0  0  0  0  0  0  0  0
   -0.0000  -82.5000    0.0000 C   0  0  0  0  0  0  0  0  0  0  0  0
   -0.0000  -84.0000    0.0000 C   0  0  0  0  0  0  0  0  0  0  0  0
   -0.0000  -85.5000    0.0000 C   0  0  0  0  0  0  0  0  0  0  0  0
   -0.0000  -87.0000    0.0000 O   0  0  0  0  0  0  0  0  0  0  0  0
  1  2  3  0
  2  3  1  0
  3  4  3  0
  4  5  1  0
  5  6  3  0
  6  7  1  0
  7  8  3  0
  8  9  1  0
  9 10  3  0
 10 11  1  0
 11 12  3  0
 12 13  1  0
 13 14  3  0
 14 15  1  0
 15 16  3  0
 16 17  1  0
 17 18  3  0
 18 19  1  0
 19 20  3  0
 20 21  1  0
 21 22  3  0
 22 23  1  0
 23 24  3  0
 24 25  1  0
 25 26  3  0
 26 27  1  0
 27 28  3  0
 28 29  1  0
 29 30  3  0
 30 31  1  0
 31 32  3  0
 32 33  1  0
 33 34  3  0
 34 35  1  0
 35 36  3  0
 36 37  1  0
 37 38  3  0
 38 39  1  0
 39 40  3  0
 40 41  1  0
 41 42  3  0
 42 43  1  0
 43 44  3  0
 44 45  1  0
 45 46  3  0
 46 47  1  0
 47 48  3  0
 48 49  1  0
 49 50  3  0
 50 51  1  0
 51 52  3  0
 52 53  1  0
 53 54  3  0
 54 55  1  0
 55 56  3  0
 56 57  1  0
 57 58  3  0
 58 59  1  0
M  END
>  <Title>  (339) 
idAALCgen13

$$$$

     RDKit          2D

  9  8  0  0  0  0  0  0  0  0999 V2000
    0.0000    0.0000    0.0000 C   0  0  0  0  0  0  0  0  0  0  0  0
    1.2990    0.7500    0.0000 C   0  0  0  0  0  0  0  0  0  0  0  0
    2.5981   -0.0000    0.0000 C   0  0  0  0  0  0  0  0  0  0  0  0
    3.8971    0.7500    0.0000 O   0  0  0  0  0  0  0  0  0  0  0  0
    5.1962   -0.0000    0.0000 C   0  0  0  0  0  0  0  0  0  0  0  0
    5.1962   -1.5000    0.0000 O   0  0  0  0  0  0  0  0  0  0  0  0
    6.4952    0.7500    0.0000 C   0  0  0  0  0  0  0  0  0  0  0  0
    7.7942   -0.0000    0.0000 C   0  0  0  0  0  0  0  0  0  0  0  0
    9.0933    0.7500    0.0000 C   0  0  0  0  0  0  0  0  0  0  0  0
  1  2  2  0
  2  3  1  0
  3  4  1  0
  4  5  1  0
  5  6  2  0
  5  7  1  0
  7  8  1  0
  8  9  1  0
M  END
>  <Title>  (340) 
idAALDgen13

$$$$

     RDKit          2D

 63 62  0  0  0  0  0  0  0  0999 V2000
    0.0000    0.0000    0.0000 C   0  0  0  0  0  0  0  0  0  0  0  0
   -0.0000   -1.5000    0.0000 C   0  0  0  0  0  0  0  0  0  0  0  0
   -0.0000   -3.0000    0.0000 C   0  0  0  0  0  0  0  0  0  0  0  0
   -0.0000   -4.5000    0.0000 C   0  0  0  0  0  0  0  0  0  0  0  0
   -0.0000   -6.0000    0.0000 C   0  0  0  0  0  0  0  0  0  0  0  0
   -0.0000   -7.5000    0.0000 C   0  0  0  0  0  0  0  0  0  0  0  0
   -0.0000   -9.0000    0.0000 C   0  0  0  0  0  0  0  0  0  0  0  0
   -0.0000  -10.5000    0.0000 C   0  0  0  0  0  0  0  0  0  0  0  0
   -0.0000  -12.0000    0.0000 C   0  0  0  0  0  0  0  0  0  0  0  0
   -0.0000  -13.5000    0.0000 C   0  0  0  0  0  0  0  0  0  0  0  0
   -0.0000  -15.0000    0.0000 C   0  0  0  0  0  0  0  0  0  0  0  0
   -0.0000  -16.5000    0.0000 C   0  0  0  0  0  0  0  0  0  0  0  0
   -0.0000  -18.0000    0.0000 C   0  0  0  0  0  0  0  0  0  0  0  0
   -0.0000  -19.5000    0.0000 C   0  0  0  0  0  0  0  0  0  0  0  0
   -0.0000  -21.0000    0.0000 C   0  0  0  0  0  0  0  0  0  0  0  0
   -0.0000  -22.5000    0.0000 C   0  0  0  0  0  0  0  0  0  0  0  0
   -0.0000  -24.0000    0.0000 C   0  0  0  0  0  0  0  0  0  0  0  0
   -0.0000  -25.5000    0.0000 C   0  0  0  0  0  0  0  0  0  0  0  0
   -0.0000  -27.0000    0.0000 C   0  0  0  0  0  0  0  0  0  0  0  0
   -0.0000  -28.5000    0.0000 C   0  0  0  0  0  0  0  0  0  0  0  0
   -0.0000  -30.0000    0.0000 C   0  0  0  0  0  0  0  0  0  0  0  0
   -0.0000  -31.5000    0.0000 C   0  0  0  0  0  0  0  0  0  0  0  0
   -0.0000  -33.0000    0.0000 C   0  0  0  0  0  0  0  0  0  0  0  0
   -0.0000  -34.5000    0.0000 C   0  0  0  0  0  0  0  0  0  0  0  0
   -0.0000  -36.0000    0.0000 C   0  0  0  0  0  0  0  0  0  0  0  0
   -0.0000  -37.5000    0.0000 C   0  0  0  0  0  0  0  0  0  0  0  0
   -0.0000  -39.0000    0.0000 C   0  0  0  0  0  0  0  0  0  0  0  0
   -0.0000  -40.5000    0.0000 C   0  0  0  0  0  0  0  0  0  0  0  0
   -0.0000  -42.0000    0.0000 C   0  0  0  0  0  0  0  0  0  0  0  0
   -0.0000  -43.5000    0.0000 C   0  0  0  0  0  0  0  0  0  0  0  0
   -0.0000  -45.0000    0.0000 C   0  0  0  0  0  0  0  0  0  0  0  0
   -0.0000  -46.5000    0.0000 C   0  0  0  0  0  0  0  0  0  0  0  0
   -0.0000  -48.0000    0.0000 C   0  0  0  0  0  0  0  0  0  0  0  0
   -0.0000  -49.5000    0.0000 C   0  0  0  0  0  0  0  0  0  0  0  0
   -0.0000  -51.0000    0.0000 C   0  0  0  0  0  0  0  0  0  0  0  0
   -0.0000  -52.5000    0.0000 C   0  0  0  0  0  0  0  0  0  0  0  0
   -0.0000  -54.0000    0.0000 C   0  0  0  0  0  0  0  0  0  0  0  0
   -0.0000  -55.5000    0.0000 C   0  0  0  0  0  0  0  0  0  0  0  0
   -0.0000  -57.0000    0.0000 C   0  0  0  0  0  0  0  0  0  0  0  0
   -0.0000  -58.5000    0.0000 C   0  0  0  0  0  0  0  0  0  0  0  0
   -0.0000  -60.0000    0.0000 C   0  0  0  0  0  0  0  0  0  0  0  0
   -0.0000  -61.5000    0.0000 C   0  0  0  0  0  0  0  0  0  0  0  0
   -0.0000  -63.0000    0.0000 C   0  0  0  0  0  0  0  0  0  0  0  0
   -0.0000  -64.5000    0.0000 C   0  0  0  0  0  0  0  0  0  0  0  0
   -0.0000  -66.0000    0.0000 C   0  0  0  0  0  0  0  0  0  0  0  0
   -0.0000  -67.5000    0.0000 C   0  0  0  0  0  0  0  0  0  0  0  0
   -0.0000  -69.0000    0.0000 C   0  0  0  0  0  0  0  0  0  0  0  0
   -0.0000  -70.5000    0.0000 C   0  0  0  0  0  0  0  0  0  0  0  0
   -0.0000  -72.0000    0.0000 C   0  0  0  0  0  0  0  0  0  0  0  0
   -0.0000  -73.5000    0.0000 C   0  0  0  0  0  0  0  0  0  0  0  0
   -0.0000  -75.0000    0.0000 C   0  0  0  0  0  0  0  0  0  0  0  0
   -0.0000  -76.5000    0.0000 C   0  0  0  0  0  0  0  0  0  0  0  0
   -0.0000  -78.0000    0.0000 C   0  0  0  0  0  0  0  0  0  0  0  0
   -0.0000  -79.5000    0.0000 C   0  0  0  0  0  0  0  0  0  0  0  0
   -0.0000  -81.0000    0.0000 C   0  0  0  0  0  0  0  0  0  0  0  0
   -0.0000  -82.5000    0.0000 C   0  0  0  0  0  0  0  0  0  0  0  0
   -0.0000  -84.0000    0.0000 C   0  0  0  0  0  0  0  0  0  0  0  0
   -0.0000  -85.5000    0.0000 C   0  0  0  0  0  0  0  0  0  0  0  0
   -0.0000  -87.0000    0.0000 C   0  0  0  0  0  0  0  0  0  0  0  0
   -0.0000  -88.5000    0.0000 C   0  0  0  0  0  0  0  0  0  0  0  0
   -0.0000  -90.0000    0.0000 C   0  0  0  0  0  0  0  0  0  0  0  0
   -0.0000  -91.5000    0.0000 C   0  0  0  0  0  0  0  0  0  0  0  0
   -0.0000  -93.0000    0.0000 N   0  0  0  0  0  0  0  0  0  0  0  0
  1  2  3  0
  2  3  1  0
  3  4  3  0
  4  5  1  0
  5  6  3  0
  6  7  1  0
  7  8  3  0
  8  9  1  0
  9 10  3  0
 10 11  1  0
 11 12  3  0
 12 13  1  0
 13 14  3  0
 14 15  1  0
 15 16  3  0
 16 17  1  0
 17 18  3  0
 18 19  1  0
 19 20  3  0
 20 21  1  0
 21 22  3  0
 22 23  1  0
 23 24  3  0
 24 25  1  0
 25 26  3  0
 26 27  1  0
 27 28  3  0
 28 29  1  0
 29 30  3  0
 30 31  1  0
 31 32  3  0
 32 33  1  0
 33 34  3  0
 34 35  1  0
 35 36  3  0
 36 37  1  0
 37 38  3  0
 38 39  1  0
 39 40  3  0
 40 41  1  0
 41 42  3  0
 42 43  1  0
 43 44  3  0
 44 45  1  0
 45 46  3  0
 46 47  1  0
 47 48  3  0
 48 49  1  0
 49 50  3  0
 50 51  1  0
 51 52  3  0
 52 53  1  0
 53 54  3  0
 54 55  1  0
 55 56  3  0
 56 57  1  0
 57 58  3  0
 58 59  1  0
 59 60  3  0
 60 61  1  0
 61 62  3  0
 62 63  1  0
M  END
>  <Title>  (341) 
idAALEgen13

$$$$

     RDKit          2D

 75 78  0  0  0  0  0  0  0  0999 V2000
   -5.6592   -0.7782    0.0000 C   0  0  0  0  0  0  0  0  0  0  0  0
   -5.1462   -2.1877    0.0000 C   0  0  0  0  0  0  0  0  0  0  0  0
   -6.5284   -2.7704    0.0000 C   0  0  0  0  0  0  0  0  0  0  0  0
   -7.8457   -3.4878    0.0000 C   0  0  0  0  0  0  0  0  0  0  0  0
   -9.0851   -4.3328    0.0000 C   0  0  0  0  0  0  0  0  0  0  0  0
  -10.2341   -5.2969    0.0000 C   0  0  0  0  0  0  0  0  0  0  0  0
  -11.2815   -6.3707    0.0000 C   0  0  0  0  0  0  0  0  0  0  0  0
  -12.2167   -7.5435    0.0000 C   0  0  0  0  0  0  0  0  0  0  0  0
  -13.0305   -8.8035    0.0000 C   0  0  0  0  0  0  0  0  0  0  0  0
  -13.7149  -10.1383    0.0000 C   0  0  0  0  0  0  0  0  0  0  0  0
  -14.2629  -11.5346    0.0000 C   0  0  0  0  0  0  0  0  0  0  0  0
  -14.6691  -12.9786    0.0000 C   0  0  0  0  0  0  0  0  0  0  0  0
  -14.9296  -14.4558    0.0000 C   0  0  0  0  0  0  0  0  0  0  0  0
  -15.0417  -15.9516    0.0000 C   0  0  0  0  0  0  0  0  0  0  0  0
  -15.0043  -17.4511    0.0000 C   0  0  0  0  0  0  0  0  0  0  0  0
  -14.8178  -18.9395    0.0000 C   0  0  0  0  0  0  0  0  0  0  0  0
  -14.4840  -20.4019    0.0000 C   0  0  0  0  0  0  0  0  0  0  0  0
  -14.0063  -21.8238    0.0000 C   0  0  0  0  0  0  0  0  0  0  0  0
  -13.3893  -23.1910    0.0000 C   0  0  0  0  0  0  0  0  0  0  0  0
  -12.6393  -24.4901    0.0000 C   0  0  0  0  0  0  0  0  0  0  0  0
  -11.7637  -25.7080    0.0000 C   0  0  0  0  0  0  0  0  0  0  0  0
  -10.7712  -26.8326    0.0000 C   0  0  0  0  0  0  0  0  0  0  0  0
   -9.6716  -27.8529    0.0000 C   0  0  0  0  0  0  0  0  0  0  0  0
   -8.4759  -28.7586    0.0000 C   0  0  0  0  0  0  0  0  0  0  0  0
   -7.1960  -29.5408    0.0000 C   0  0  0  0  0  0  0  0  0  0  0  0
   -5.8445  -30.1916    0.0000 C   0  0  0  0  0  0  0  0  0  0  0  0
   -4.4350  -30.7046    0.0000 C   0  0  0  0  0  0  0  0  0  0  0  0
   -2.9814  -31.0748    0.0000 C   0  0  0  0  0  0  0  0  0  0  0  0
   -1.4981  -31.2983    0.0000 C   0  0  0  0  0  0  0  0  0  0  0  0
   -0.0000  -31.3731    0.0000 C   0  0  0  0  0  0  0  0  0  0  0  0
    1.4981  -31.2983    0.0000 C   0  0  0  0  0  0  0  0  0  0  0  0
    2.9814  -31.0748    0.0000 C   0  0  0  0  0  0  0  0  0  0  0  0
    4.4350  -30.7046    0.0000 C   0  0  0  0  0  0  0  0  0  0  0  0
    5.8445  -30.1916    0.0000 C   0  0  0  0  0  0  0  0  0  0  0  0
    7.1960  -29.5408    0.0000 C   0  0  0  0  0  0  0  0  0  0  0  0
    8.4759  -28.7586    0.0000 C   0  0  0  0  0  0  0  0  0  0  0  0
    9.6716  -27.8529    0.0000 C   0  0  0  0  0  0  0  0  0  0  0  0
   10.7712  -26.8326    0.0000 C   0  0  0  0  0  0  0  0  0  0  0  0
   11.7637  -25.7080    0.0000 C   0  0  0  0  0  0  0  0  0  0  0  0
   12.6393  -24.4901    0.0000 C   0  0  0  0  0  0  0  0  0  0  0  0
   13.3893  -23.1910    0.0000 C   0  0  0  0  0  0  0  0  0  0  0  0
   14.0063  -21.8238    0.0000 C   0  0  0  0  0  0  0  0  0  0  0  0
   14.4840  -20.4019    0.0000 C   0  0  0  0  0  0  0  0  0  0  0  0
   14.8178  -18.9395    0.0000 C   0  0  0  0  0  0  0  0  0  0  0  0
   15.0043  -17.4511    0.0000 C   0  0  0  0  0  0  0  0  0  0  0  0
   15.0417  -15.9516    0.0000 C   0  0  0  0  0  0  0  0  0  0  0  0
   14.9296  -14.4558    0.0000 C   0  0  0  0  0  0  0  0  0  0  0  0
   14.6691  -12.9786    0.0000 C   0  0  0  0  0  0  0  0  0  0  0  0
   14.2629  -11.5346    0.0000 C   0  0  0  0  0  0  0  0  0  0  0  0
   13.7149  -10.1383    0.0000 C   0  0  0  0  0  0  0  0  0  0  0  0
   13.0305   -8.8035    0.0000 C   0  0  0  0  0  0  0  0  0  0  0  0
   12.2167   -7.5435    0.0000 C   0  0  0  0  0  0  0  0  0  0  0  0
   11.2815   -6.3707    0.0000 C   0  0  0  0  0  0  0  0  0  0  0  0
   10.2341   -5.2969    0.0000 C   0  0  0  0  0  0  0  0  0  0  0  0
    9.0851   -4.3328    0.0000 C   0  0  0  0  0  0  0  0  0  0  0  0
    7.8457   -3.4878    0.0000 C   0  0  0  0  0  0  0  0  0  0  0  0
    6.5284   -2.7704    0.0000 C   0  0  0  0  0  0  0  0  0  0  0  0
    5.1462   -2.1877    0.0000 C   0  0  0  0  0  0  0  0  0  0  0  0
    3.7128   -1.7456    0.0000 C   0  0  0  0  0  0  0  0  0  0  0  0
    3.8845   -3.2358    0.0000 C   0  0  0  0  0  0  0  0  0  0  0  0
    2.5203   -3.8595    0.0000 C   0  0  0  0  0  0  0  0  0  0  0  0
    1.5055   -2.7548    0.0000 C   0  0  0  0  0  0  0  0  0  0  0  0
    2.2425   -1.4484    0.0000 C   0  0  0  0  0  0  0  0  0  0  0  0
    0.7500   -1.2990    0.0000 C   0  0  0  0  0  0  0  0  0  0  0  0
    1.5000    0.0000    0.0000 C   0  0  0  0  0  0  0  0  0  0  0  0
    0.7500    1.2990    0.0000 C   0  0  0  0  0  0  0  0  0  0  0  0
   -0.7500    1.2990    0.0000 C   0  0  0  0  0  0  0  0  0  0  0  0
   -1.5000    0.0000    0.0000 C   0  0  0  0  0  0  0  0  0  0  0  0
   -0.7500   -1.2990    0.0000 C   0  0  0  0  0  0  0  0  0  0  0  0
   -2.2425   -1.4484    0.0000 C   0  0  0  0  0  0  0  0  0  0  0  0
   -1.2500   -2.5731    0.0000 C   0  0  0  0  0  0  0  0  0  0  0  0
   -1.7277   -3.9950    0.0000 C   0  0  0  0  0  0  0  0  0  0  0  0
   -3.1980   -4.2922    0.0000 C   0  0  0  0  0  0  0  0  0  0  0  0
   -4.1905   -3.1675    0.0000 C   0  0  0  0  0  0  0  0  0  0  0  0
   -3.7128   -1.7456    0.0000 C   0  0  0  0  0  0  0  0  0  0  0  0
  1  2  1  0
  2  3  1  0
  3  4  1  0
  4  5  1  0
  5  6  1  0
  6  7  1  0
  7  8  1  0
  8  9  1  0
  9 10  1  0
 10 11  1  0
 11 12  1  0
 12 13  1  0
 13 14  1  0
 14 15  1  0
 15 16  1  0
 16 17  1  0
 17 18  1  0
 18 19  1  0
 19 20  1  0
 20 21  1  0
 21 22  1  0
 22 23  1  0
 23 24  1  0
 24 25  1  0
 25 26  1  0
 26 27  1  0
 27 28  1  0
 28 29  1  0
 29 30  1  0
 30 31  1  0
 31 32  1  0
 32 33  1  0
 33 34  1  0
 34 35  1  0
 35 36  1  0
 36 37  1  0
 37 38  1  0
 38 39  1  0
 39 40  1  0
 40 41  1  0
 41 42  1  0
 42 43  1  0
 43 44  1  0
 44 45  1  0
 45 46  1  0
 46 47  1  0
 47 48  1  0
 48 49  1  0
 49 50  1  0
 50 51  1  0
 51 52  1  0
 52 53  1  0
 53 54  1  0
 54 55  1  0
 55 56  1  0
 56 57  1  0
 57 58  1  0
 58 59  1  0
 59 60  1  0
 60 61  2  0
 61 62  1  0
 62 63  2  0
 63 64  1  0
 64 65  2  0
 65 66  1  0
 66 67  2  0
 67 68  1  0
 68 69  2  0
 69 70  1  0
 70 71  2  0
 71 72  1  0
 72 73  2  0
 73 74  1  0
 74 75  2  0
 75  2  1  0
 63 59  1  0
 69 64  1  0
 75 70  1  0
M  END
>  <Title>  (342) 
idAALFgen13

$$$$

     RDKit          2D

 11 12  0  0  0  0  0  0  0  0999 V2000
   -0.4921    5.7184    0.0000 C   0  0  0  0  0  0  0  0  0  0  0  0
   -1.4958    4.6036    0.0000 C   0  0  0  0  0  0  0  0  0  0  0  0
   -2.9630    4.9155    0.0000 O   0  0  0  0  0  0  0  0  0  0  0  0
   -1.0323    3.1771    0.0000 N   0  0  0  0  0  0  0  0  0  0  0  0
    0.3943    2.7135    0.0000 C   0  0  0  0  0  0  0  0  0  0  0  0
    0.3943    1.2135    0.0000 C   0  0  0  0  0  0  0  0  0  0  0  0
    1.2760    0.0000    0.0000 C   0  0  0  0  0  0  0  0  0  0  0  0
    0.3943   -1.2135    0.0000 C   0  0  0  0  0  0  0  0  0  0  0  0
   -1.0323   -0.7500    0.0000 C   0  0  0  0  0  0  0  0  0  0  0  0
   -1.0323    0.7500    0.0000 N   0  0  0  0  0  0  0  0  0  0  0  0
   -1.9140    1.9635    0.0000 C   0  0  0  0  0  0  0  0  0  0  0  0
  1  2  1  0
  2  3  2  0
  2  4  1  0
  4  5  1  0
  5  6  1  0
  6  7  2  0
  7  8  1  0
  8  9  2  0
  9 10  1  0
 10 11  1  0
 11  4  1  0
 10  6  1  0
M  END
>  <Title>  (343) 
idAALGgen13

$$$$

     RDKit          2D

 96 97  0  0  0  0  0  0  0  0999 V2000
   10.6899   -4.4778    0.0000 C   0  0  0  0  0  0  0  0  0  0  0  0
   11.4870   -4.4682    0.0000 C   0  0  0  0  0  0  0  0  0  0  0  0
   11.6052   -5.9636    0.0000 C   0  0  0  0  0  0  0  0  0  0  0  0
   11.9217   -7.4298    0.0000 C   0  0  0  0  0  0  0  0  0  0  0  0
   12.4307   -8.8408    0.0000 C   0  0  0  0  0  0  0  0  0  0  0  0
   13.1233  -10.1713    0.0000 C   0  0  0  0  0  0  0  0  0  0  0  0
   13.9870  -11.3977    0.0000 C   0  0  0  0  0  0  0  0  0  0  0  0
   15.0065  -12.4980    0.0000 C   0  0  0  0  0  0  0  0  0  0  0  0
   16.1636  -13.4526    0.0000 C   0  0  0  0  0  0  0  0  0  0  0  0
   17.4375  -14.2444    0.0000 C   0  0  0  0  0  0  0  0  0  0  0  0
   18.8057  -14.8594    0.0000 C   0  0  0  0  0  0  0  0  0  0  0  0
   20.2436  -15.2865    0.0000 C   0  0  0  0  0  0  0  0  0  0  0  0
   21.7256  -15.5182    0.0000 C   0  0  0  0  0  0  0  0  0  0  0  0
   23.2252  -15.5503    0.0000 C   0  0  0  0  0  0  0  0  0  0  0  0
   24.7158  -15.3822    0.0000 C   0  0  0  0  0  0  0  0  0  0  0  0
   26.1706  -15.0170    0.0000 C   0  0  0  0  0  0  0  0  0  0  0  0
   27.5638  -14.4610    0.0000 C   0  0  0  0  0  0  0  0  0  0  0  0
   28.8705  -13.7244    0.0000 C   0  0  0  0  0  0  0  0  0  0  0  0
   30.0673  -12.8202    0.0000 C   0  0  0  0  0  0  0  0  0  0  0  0
   31.1329  -11.7645    0.0000 C   0  0  0  0  0  0  0  0  0  0  0  0
   32.0483  -10.5762    0.0000 C   0  0  0  0  0  0  0  0  0  0  0  0
   32.7971   -9.2765    0.0000 C   0  0  0  0  0  0  0  0  0  0  0  0
   33.3660   -7.8886    0.0000 C   0  0  0  0  0  0  0  0  0  0  0  0
   33.7449   -6.4372    0.0000 C   0  0  0  0  0  0  0  0  0  0  0  0
   33.9269   -4.9483    0.0000 C   0  0  0  0  0  0  0  0  0  0  0  0
   33.9089   -3.4484    0.0000 C   0  0  0  0  0  0  0  0  0  0  0  0
   33.6911   -1.9643    0.0000 C   0  0  0  0  0  0  0  0  0  0  0  0
   33.2774   -0.5224    0.0000 C   0  0  0  0  0  0  0  0  0  0  0  0
   32.6753    0.8514    0.0000 C   0  0  0  0  0  0  0  0  0  0  0  0
   31.8954    2.1327    0.0000 C   0  0  0  0  0  0  0  0  0  0  0  0
   30.9516    3.2986    0.0000 C   0  0  0  0  0  0  0  0  0  0  0  0
   29.8609    4.3284    0.0000 C   0  0  0  0  0  0  0  0  0  0  0  0
   28.6427    5.2035    0.0000 C   0  0  0  0  0  0  0  0  0  0  0  0
   27.3187    5.9085    0.0000 C   0  0  0  0  0  0  0  0  0  0  0  0
   25.9126    6.4308    0.0000 C   0  0  0  0  0  0  0  0  0  0  0  0
   24.4493    6.7609    0.0000 C   0  0  0  0  0  0  0  0  0  0  0  0
   22.9552    6.8931    0.0000 C   0  0  0  0  0  0  0  0  0  0  0  0
   21.4567    6.8249    0.0000 C   0  0  0  0  0  0  0  0  0  0  0  0
   19.9807    6.5577    0.0000 C   0  0  0  0  0  0  0  0  0  0  0  0
   18.5535    6.0960    0.0000 C   0  0  0  0  0  0  0  0  0  0  0  0
   17.2006    5.4483    0.0000 C   0  0  0  0  0  0  0  0  0  0  0  0
   15.9460    4.6260    0.0000 C   0  0  0  0  0  0  0  0  0  0  0  0
   14.8123    3.6439    0.0000 C   0  0  0  0  0  0  0  0  0  0  0  0
   13.8196    2.5194    0.0000 C   0  0  0  0  0  0  0  0  0  0  0  0
   12.9856    1.2726    0.0000 C   0  0  0  0  0  0  0  0  0  0  0  0
   12.3252   -0.0742    0.0000 C   0  0  0  0  0  0  0  0  0  0  0  0
   11.8503   -1.4970    0.0000 C   0  0  0  0  0  0  0  0  0  0  0  0
   11.2445    0.0000    0.0000 C   0  0  0  0  0  0  0  0  0  0  0  0
   11.1558    1.4093    0.0000 C   0  0  0  0  0  0  0  0  0  0  0  0
   10.8912    2.7964    0.0000 C   0  0  0  0  0  0  0  0  0  0  0  0
   10.4549    4.1394    0.0000 C   0  0  0  0  0  0  0  0  0  0  0  0
    9.8536    5.4171    0.0000 C   0  0  0  0  0  0  0  0  0  0  0  0
    9.0970    6.6093    0.0000 C   0  0  0  0  0  0  0  0  0  0  0  0
    8.1969    7.6974    0.0000 C   0  0  0  0  0  0  0  0  0  0  0  0
    7.1675    8.6640    0.0000 C   0  0  0  0  0  0  0  0  0  0  0  0
    6.0251    9.4940    0.0000 C   0  0  0  0  0  0  0  0  0  0  0  0
    4.7877   10.1743    0.0000 C   0  0  0  0  0  0  0  0  0  0  0  0
    3.4747   10.6941    0.0000 C   0  0  0  0  0  0  0  0  0  0  0  0
    2.1070   11.0453    0.0000 C   0  0  0  0  0  0  0  0  0  0  0  0
    0.7060   11.2223    0.0000 C   0  0  0  0  0  0  0  0  0  0  0  0
   -0.7060   11.2223    0.0000 C   0  0  0  0  0  0  0  0  0  0  0  0
   -2.1070   11.0453    0.0000 C   0  0  0  0  0  0  0  0  0  0  0  0
   -3.4747   10.6941    0.0000 C   0  0  0  0  0  0  0  0  0  0  0  0
   -4.7877   10.1743    0.0000 C   0  0  0  0  0  0  0  0  0  0  0  0
   -6.0251    9.4940    0.0000 C   0  0  0  0  0  0  0  0  0  0  0  0
   -7.1675    8.6640    0.0000 C   0  0  0  0  0  0  0  0  0  0  0  0
   -8.1969    7.6974    0.0000 C   0  0  0  0  0  0  0  0  0  0  0  0
   -9.0970    6.6093    0.0000 C   0  0  0  0  0  0  0  0  0  0  0  0
   -9.8536    5.4171    0.0000 C   0  0  0  0  0  0  0  0  0  0  0  0
  -10.4549    4.1394    0.0000 C   0  0  0  0  0  0  0  0  0  0  0  0
  -10.8912    2.7964    0.0000 C   0  0  0  0  0  0  0  0  0  0  0  0
  -11.1558    1.4093    0.0000 C   0  0  0  0  0  0  0  0  0  0  0  0
  -11.2445    0.0000    0.0000 C   0  0  0  0  0  0  0  0  0  0  0  0
  -11.1558   -1.4093    0.0000 C   0  0  0  0  0  0  0  0  0  0  0  0
  -10.8912   -2.7964    0.0000 C   0  0  0  0  0  0  0  0  0  0  0  0
  -10.4549   -4.1394    0.0000 C   0  0  0  0  0  0  0  0  0  0  0  0
   -9.8536   -5.4171    0.0000 C   0  0  0  0  0  0  0  0  0  0  0  0
   -9.0970   -6.6093    0.0000 C   0  0  0  0  0  0  0  0  0  0  0  0
   -8.1969   -7.6974    0.0000 C   0  0  0  0  0  0  0  0  0  0  0  0
   -7.1675   -8.6640    0.0000 C   0  0  0  0  0  0  0  0  0  0  0  0
   -6.0251   -9.4940    0.0000 C   0  0  0  0  0  0  0  0  0  0  0  0
   -4.7877  -10.1743    0.0000 C   0  0  0  0  0  0  0  0  0  0  0  0
   -3.4747  -10.6941    0.0000 C   0  0  0  0  0  0  0  0  0  0  0  0
   -2.1070  -11.0453    0.0000 C   0  0  0  0  0  0  0  0  0  0  0  0
   -0.7060  -11.2223    0.0000 C   0  0  0  0  0  0  0  0  0  0  0  0
    0.7060  -11.2223    0.0000 C   0  0  0  0  0  0  0  0  0  0  0  0
    2.1070  -11.0453    0.0000 C   0  0  0  0  0  0  0  0  0  0  0  0
    3.4747  -10.6941    0.0000 C   0  0  0  0  0  0  0  0  0  0  0  0
    4.7877  -10.1743    0.0000 C   0  0  0  0  0  0  0  0  0  0  0  0
    6.0251   -9.4940    0.0000 C   0  0  0  0  0  0  0  0  0  0  0  0
    7.1675   -8.6640    0.0000 C   0  0  0  0  0  0  0  0  0  0  0  0
    8.1969   -7.6974    0.0000 C   0  0  0  0  0  0  0  0  0  0  0  0
    9.0970   -6.6093    0.0000 C   0  0  0  0  0  0  0  0  0  0  0  0
    9.8536   -5.4171    0.0000 C   0  0  0  0  0  0  0  0  0  0  0  0
   10.4549   -4.1394    0.0000 C   0  0  0  0  0  0  0  0  0  0  0  0
   11.5692   -2.9705    0.0000 C   0  0  0  0  0  0  0  0  0  0  0  0
  1  2  1  0
  2  3  1  0
  3  4  1  0
  4  5  1  0
  5  6  1  0
  6  7  1  0
  7  8  1  0
  8  9  1  0
  9 10  1  0
 10 11  1  0
 11 12  1  0
 12 13  1  0
 13 14  1  0
 14 15  1  0
 15 16  1  0
 16 17  1  0
 17 18  1  0
 18 19  1  0
 19 20  1  0
 20 21  1  0
 21 22  1  0
 22 23  1  0
 23 24  1  0
 24 25  1  0
 25 26  1  0
 26 27  1  0
 27 28  1  0
 28 29  1  0
 29 30  1  0
 30 31  1  0
 31 32  1  0
 32 33  1  0
 33 34  1  0
 34 35  1  0
 35 36  1  0
 36 37  1  0
 37 38  1  0
 38 39  1  0
 39 40  1  0
 40 41  1  0
 41 42  1  0
 42 43  1  0
 43 44  1  0
 44 45  1  0
 45 46  1  0
 46 47  1  0
 47 48  1  0
 48 49  1  0
 49 50  1  0
 50 51  1  0
 51 52  1  0
 52 53  1  0
 53 54  1  0
 54 55  1  0
 55 56  1  0
 56 57  1  0
 57 58  2  0
 58 59  1  0
 59 60  2  0
 60 61  1  0
 61 62  2  0
 62 63  1  0
 63 64  2  0
 64 65  1  0
 65 66  2  0
 66 67  1  0
 67 68  2  0
 68 69  1  0
 69 70  2  0
 70 71  1  0
 71 72  2  0
 72 73  1  0
 73 74  2  0
 74 75  1  0
 75 76  2  0
 76 77  1  0
 77 78  2  0
 78 79  1  0
 79 80  2  0
 80 81  1  0
 81 82  2  0
 82 83  1  0
 83 84  2  0
 84 85  1  0
 85 86  2  0
 86 87  1  0
 87 88  2  0
 88 89  1  0
 89 90  2  0
 90 91  1  0
 91 92  2  0
 92 93  1  0
 93 94  2  0
 94 95  1  0
 95 96  2  0
 96  2  1  0
 96 47  1  0
M  END
>  <Title>  (344) 
idAALHgen13

$$$$

     RDKit          2D

 80 81  0  0  0  0  0  0  0  0999 V2000
   -2.2088   -1.0671    0.0000 C   0  0  0  0  0  0  0  0  0  0  0  0
   -2.4923    0.4059    0.0000 C   0  0  0  0  0  0  0  0  0  0  0  0
   -3.9757    0.1835    0.0000 C   0  0  0  0  0  0  0  0  0  0  0  0
   -5.4724    0.0843    0.0000 C   0  0  0  0  0  0  0  0  0  0  0  0
   -6.9722    0.1091    0.0000 C   0  0  0  0  0  0  0  0  0  0  0  0
   -8.4648    0.2577    0.0000 C   0  0  0  0  0  0  0  0  0  0  0  0
   -9.9401    0.5290    0.0000 C   0  0  0  0  0  0  0  0  0  0  0  0
  -11.3879    0.9212    0.0000 C   0  0  0  0  0  0  0  0  0  0  0  0
  -12.7984    1.4317    0.0000 C   0  0  0  0  0  0  0  0  0  0  0  0
  -14.1619    2.0569    0.0000 C   0  0  0  0  0  0  0  0  0  0  0  0
  -15.4691    2.7925    0.0000 C   0  0  0  0  0  0  0  0  0  0  0  0
  -16.7111    3.6336    0.0000 C   0  0  0  0  0  0  0  0  0  0  0  0
  -17.8795    4.5743    0.0000 C   0  0  0  0  0  0  0  0  0  0  0  0
  -18.9661    5.6084    0.0000 C   0  0  0  0  0  0  0  0  0  0  0  0
  -19.9636    6.7286    0.0000 C   0  0  0  0  0  0  0  0  0  0  0  0
  -20.8652    7.9274    0.0000 C   0  0  0  0  0  0  0  0  0  0  0  0
  -21.6648    9.1965    0.0000 C   0  0  0  0  0  0  0  0  0  0  0  0
  -22.3568   10.5273    0.0000 C   0  0  0  0  0  0  0  0  0  0  0  0
  -22.9366   11.9108    0.0000 C   0  0  0  0  0  0  0  0  0  0  0  0
  -23.4001   13.3374    0.0000 C   0  0  0  0  0  0  0  0  0  0  0  0
  -23.7442   14.7974    0.0000 C   0  0  0  0  0  0  0  0  0  0  0  0
  -23.9666   16.2808    0.0000 C   0  0  0  0  0  0  0  0  0  0  0  0
  -24.0658   17.7775    0.0000 C   0  0  0  0  0  0  0  0  0  0  0  0
  -24.0409   19.2773    0.0000 C   0  0  0  0  0  0  0  0  0  0  0  0
  -23.8924   20.7699    0.0000 C   0  0  0  0  0  0  0  0  0  0  0  0
  -23.6211   22.2452    0.0000 C   0  0  0  0  0  0  0  0  0  0  0  0
  -23.2288   23.6930    0.0000 C   0  0  0  0  0  0  0  0  0  0  0  0
  -22.7184   25.1035    0.0000 C   0  0  0  0  0  0  0  0  0  0  0  0
  -22.0932   26.4670    0.0000 C   0  0  0  0  0  0  0  0  0  0  0  0
  -21.3576   27.7742    0.0000 C   0  0  0  0  0  0  0  0  0  0  0  0
  -20.5165   29.0162    0.0000 C   0  0  0  0  0  0  0  0  0  0  0  0
  -19.5758   30.1845    0.0000 C   0  0  0  0  0  0  0  0  0  0  0  0
  -18.5417   31.2712    0.0000 C   0  0  0  0  0  0  0  0  0  0  0  0
  -17.4215   32.2687    0.0000 C   0  0  0  0  0  0  0  0  0  0  0  0
  -16.2227   33.1703    0.0000 C   0  0  0  0  0  0  0  0  0  0  0  0
  -14.9536   33.9699    0.0000 C   0  0  0  0  0  0  0  0  0  0  0  0
  -13.6227   34.6619    0.0000 C   0  0  0  0  0  0  0  0  0  0  0  0
  -12.2393   35.2416    0.0000 C   0  0  0  0  0  0  0  0  0  0  0  0
  -10.8127   35.7052    0.0000 C   0  0  0  0  0  0  0  0  0  0  0  0
   -9.3527   36.0493    0.0000 C   0  0  0  0  0  0  0  0  0  0  0  0
   -7.8693   36.2717    0.0000 C   0  0  0  0  0  0  0  0  0  0  0  0
   -6.3726   36.3708    0.0000 C   0  0  0  0  0  0  0  0  0  0  0  0
   -4.8728   36.3460    0.0000 C   0  0  0  0  0  0  0  0  0  0  0  0
   -3.3802   36.1975    0.0000 C   0  0  0  0  0  0  0  0  0  0  0  0
   -1.9049   35.9261    0.0000 C   0  0  0  0  0  0  0  0  0  0  0  0
   -0.4571   35.5339    0.0000 C   0  0  0  0  0  0  0  0  0  0  0  0
    0.9534   35.0235    0.0000 C   0  0  0  0  0  0  0  0  0  0  0  0
    2.3169   34.3983    0.0000 C   0  0  0  0  0  0  0  0  0  0  0  0
    3.6241   33.6627    0.0000 C   0  0  0  0  0  0  0  0  0  0  0  0
    4.8661   32.8216    0.0000 C   0  0  0  0  0  0  0  0  0  0  0  0
    6.0345   31.8808    0.0000 C   0  0  0  0  0  0  0  0  0  0  0  0
    7.1211   30.8468    0.0000 C   0  0  0  0  0  0  0  0  0  0  0  0
    8.1186   29.7266    0.0000 C   0  0  0  0  0  0  0  0  0  0  0  0
    9.0202   28.5278    0.0000 C   0  0  0  0  0  0  0  0  0  0  0  0
    9.8198   27.2587    0.0000 C   0  0  0  0  0  0  0  0  0  0  0  0
   10.5118   25.9278    0.0000 C   0  0  0  0  0  0  0  0  0  0  0  0
   11.0916   24.5444    0.0000 C   0  0  0  0  0  0  0  0  0  0  0  0
   11.5551   23.1178    0.0000 C   0  0  0  0  0  0  0  0  0  0  0  0
   11.8992   21.6578    0.0000 C   0  0  0  0  0  0  0  0  0  0  0  0
   12.1216   20.1744    0.0000 C   0  0  0  0  0  0  0  0  0  0  0  0
   12.2207   18.6777    0.0000 C   0  0  0  0  0  0  0  0  0  0  0  0
   12.1959   17.1779    0.0000 C   0  0  0  0  0  0  0  0  0  0  0  0
   12.0474   15.6852    0.0000 C   0  0  0  0  0  0  0  0  0  0  0  0
   11.7761   14.2100    0.0000 C   0  0  0  0  0  0  0  0  0  0  0  0
   11.3838   12.7622    0.0000 C   0  0  0  0  0  0  0  0  0  0  0  0
   10.8734   11.3517    0.0000 C   0  0  0  0  0  0  0  0  0  0  0  0
   10.2482    9.9882    0.0000 C   0  0  0  0  0  0  0  0  0  0  0  0
    9.5126    8.6810    0.0000 C   0  0  0  0  0  0  0  0  0  0  0  0
    8.6715    7.4389    0.0000 C   0  0  0  0  0  0  0  0  0  0  0  0
    7.7308    6.2706    0.0000 C   0  0  0  0  0  0  0  0  0  0  0  0
    6.6967    5.1840    0.0000 C   0  0  0  0  0  0  0  0  0  0  0  0
    5.5765    4.1865    0.0000 C   0  0  0  0  0  0  0  0  0  0  0  0
    4.3777    3.2848    0.0000 C   0  0  0  0  0  0  0  0  0  0  0  0
    3.1086    2.4853    0.0000 C   0  0  0  0  0  0  0  0  0  0  0  0
    1.7777    1.7933    0.0000 C   0  0  0  0  0  0  0  0  0  0  0  0
    0.3943    1.2135    0.0000 C   0  0  0  0  0  0  0  0  0  0  0  0
    1.2760    0.0000    0.0000 C   0  0  0  0  0  0  0  0  0  0  0  0
    0.3943   -1.2135    0.0000 C   0  0  0  0  0  0  0  0  0  0  0  0
   -1.0323   -0.7500    0.0000 C   0  0  0  0  0  0  0  0  0  0  0  0
   -1.0323    0.7500    0.0000 C   0  0  0  0  0  0  0  0  0  0  0  0
  1  2  1  0
  2  3  1  0
  3  4  1  0
  4  5  1  0
  5  6  1  0
  6  7  1  0
  7  8  1  0
  8  9  1  0
  9 10  1  0
 10 11  1  0
 11 12  1  0
 12 13  1  0
 13 14  1  0
 14 15  1  0
 15 16  1  0
 16 17  1  0
 17 18  1  0
 18 19  1  0
 19 20  1  0
 20 21  1  0
 21 22  1  0
 22 23  1  0
 23 24  1  0
 24 25  1  0
 25 26  1  0
 26 27  1  0
 27 28  1  0
 28 29  1  0
 29 30  1  0
 30 31  1  0
 31 32  1  0
 32 33  1  0
 33 34  1  0
 34 35  1  0
 35 36  1  0
 36 37  1  0
 37 38  1  0
 38 39  1  0
 39 40  1  0
 40 41  1  0
 41 42  1  0
 42 43  1  0
 43 44  2  0
 44 45  1  0
 45 46  2  0
 46 47  1  0
 47 48  2  0
 48 49  1  0
 49 50  2  0
 50 51  1  0
 51 52  2  0
 52 53  1  0
 53 54  2  0
 54 55  1  0
 55 56  2  0
 56 57  1  0
 57 58  2  0
 58 59  1  0
 59 60  2  0
 60 61  1  0
 61 62  2  0
 62 63  1  0
 63 64  2  0
 64 65  1  0
 65 66  2  0
 66 67  1  0
 67 68  2  0
 68 69  1  0
 69 70  2  0
 70 71  1  0
 71 72  2  0
 72 73  1  0
 73 74  2  0
 74 75  1  0
 75 76  2  0
 76 77  1  0
 77 78  2  0
 78 79  1  0
 79 80  2  0
 80  2  1  0
 80 76  1  0
M  END
>  <Title>  (345) 
idAALIgen13

$$$$

     RDKit          2D

 59 67  0  0  0  0  0  0  0  0999 V2000
    3.7955   -8.2450    0.0000 C   0  0  0  0  0  0  0  0  0  0  0  0
    2.6807   -7.2413    0.0000 C   0  0  0  0  0  0  0  0  0  0  0  0
    3.4307   -5.9422    0.0000 C   0  0  0  0  0  0  0  0  0  0  0  0
    3.5875   -4.4504    0.0000 C   0  0  0  0  0  0  0  0  0  0  0  0
    3.1240   -3.0239    0.0000 C   0  0  0  0  0  0  0  0  0  0  0  0
    2.1203   -1.9091    0.0000 C   0  0  0  0  0  0  0  0  0  0  0  0
    3.0020   -0.6956    0.0000 C   0  0  0  0  0  0  0  0  0  0  0  0
    2.3919    0.6747    0.0000 O   0  0  0  0  0  0  0  0  0  0  0  0
    4.4938   -0.8524    0.0000 N   0  0  0  0  0  0  0  0  0  0  0  0
    5.3755    0.3611    0.0000 C   0  0  0  0  0  0  0  0  0  0  0  0
    4.9119    1.7877    0.0000 N   0  0  0  0  0  0  0  0  0  0  0  0
    6.1255    2.6694    0.0000 N   0  0  0  0  0  0  0  0  0  0  0  0
    7.3390    1.7877    0.0000 N   0  0  0  0  0  0  0  0  0  0  0  0
    6.8755    0.3611    0.0000 N   0  0  0  0  0  0  0  0  0  0  0  0
    7.7571   -0.8524    0.0000 N   0  0  0  0  0  0  0  0  0  0  0  0
    9.2571   -0.8524    0.0000 C   0  0  0  0  0  0  0  0  0  0  0  0
    9.7207   -2.2790    0.0000 C   0  0  0  0  0  0  0  0  0  0  0  0
    8.5071   -3.1607    0.0000 N   0  0  0  0  0  0  0  0  0  0  0  0
    8.5071   -4.6607    0.0000 C   0  0  0  0  0  0  0  0  0  0  0  0
    9.8062   -5.4107    0.0000 O   0  0  0  0  0  0  0  0  0  0  0  0
    7.2081   -5.4107    0.0000 N   0  0  0  0  0  0  0  0  0  0  0  0
    7.2081   -6.9107    0.0000 C   0  0  0  0  0  0  0  0  0  0  0  0
    5.9091   -7.6607    0.0000 N   0  0  0  0  0  0  0  0  0  0  0  0
    5.9091   -9.1607    0.0000 N   0  0  0  0  0  0  0  0  0  0  0  0
    7.2081   -9.9107    0.0000 N   0  0  0  0  0  0  0  0  0  0  0  0
    8.5071   -9.1607    0.0000 N   0  0  0  0  0  0  0  0  0  0  0  0
    8.5071   -7.6607    0.0000 N   0  0  0  0  0  0  0  0  0  0  0  0
    7.2936   -2.2790    0.0000 C   0  0  0  0  0  0  0  0  0  0  0  0
    5.8670   -2.7425    0.0000 O   0  0  0  0  0  0  0  0  0  0  0  0
    0.7500   -1.2990    0.0000 C   0  0  0  0  0  0  0  0  0  0  0  0
    1.5000    0.0000    0.0000 C   0  0  0  0  0  0  0  0  0  0  0  0
    0.7500    1.2990    0.0000 C   0  0  0  0  0  0  0  0  0  0  0  0
   -0.7500    1.2990    0.0000 C   0  0  0  0  0  0  0  0  0  0  0  0
   -1.5000    0.0000    0.0000 C   0  0  0  0  0  0  0  0  0  0  0  0
   -0.7500   -1.2990    0.0000 C   0  0  0  0  0  0  0  0  0  0  0  0
   -2.1203   -1.9091    0.0000 C   0  0  0  0  0  0  0  0  0  0  0  0
   -2.5838   -0.4826    0.0000 C   0  0  0  0  0  0  0  0  0  0  0  0
   -4.0511   -0.1707    0.0000 C   0  0  0  0  0  0  0  0  0  0  0  0
   -5.0548   -1.2854    0.0000 C   0  0  0  0  0  0  0  0  0  0  0  0
   -4.5912   -2.7120    0.0000 C   0  0  0  0  0  0  0  0  0  0  0  0
   -3.1240   -3.0239    0.0000 C   0  0  0  0  0  0  0  0  0  0  0  0
   -3.5875   -4.4504    0.0000 C   0  0  0  0  0  0  0  0  0  0  0  0
   -4.9579   -3.8403    0.0000 C   0  0  0  0  0  0  0  0  0  0  0  0
   -6.1714   -4.7220    0.0000 C   0  0  0  0  0  0  0  0  0  0  0  0
   -6.0146   -6.2138    0.0000 C   0  0  0  0  0  0  0  0  0  0  0  0
   -4.6443   -6.8239    0.0000 C   0  0  0  0  0  0  0  0  0  0  0  0
   -3.4307   -5.9422    0.0000 C   0  0  0  0  0  0  0  0  0  0  0  0
   -2.6807   -7.2413    0.0000 C   0  0  0  0  0  0  0  0  0  0  0  0
   -4.0511   -7.8514    0.0000 C   0  0  0  0  0  0  0  0  0  0  0  0
   -4.2079   -9.3432    0.0000 C   0  0  0  0  0  0  0  0  0  0  0  0
   -2.9943  -10.2248    0.0000 C   0  0  0  0  0  0  0  0  0  0  0  0
   -1.6240   -9.6147    0.0000 C   0  0  0  0  0  0  0  0  0  0  0  0
   -1.4672   -8.1229    0.0000 C   0  0  0  0  0  0  0  0  0  0  0  0
   -0.0000   -8.4348    0.0000 C   0  0  0  0  0  0  0  0  0  0  0  0
   -0.4635   -9.8614    0.0000 C   0  0  0  0  0  0  0  0  0  0  0  0
    0.5402  -10.9761    0.0000 C   0  0  0  0  0  0  0  0  0  0  0  0
    2.0074  -10.6642    0.0000 C   0  0  0  0  0  0  0  0  0  0  0  0
    2.4709   -9.2377    0.0000 C   0  0  0  0  0  0  0  0  0  0  0  0
    1.4672   -8.1229    0.0000 C   0  0  0  0  0  0  0  0  0  0  0  0
  1  2  1  0
  2  3  1  0
  3  4  2  0
  4  5  1  0
  5  6  1  0
  6  7  1  0
  7  8  2  0
  7  9  1  0
  9 10  1  0
 10 11  2  0
 11 12  1  0
 12 13  2  0
 13 14  1  0
 14 15  1  0
 15 16  1  0
 16 17  1  0
 17 18  1  0
 18 19  1  0
 19 20  2  0
 19 21  1  0
 21 22  1  0
 22 23  2  0
 23 24  1  0
 24 25  2  0
 25 26  1  0
 26 27  2  0
 18 28  1  0
 28 29  2  0
  6 30  1  0
 30 31  2  0
 31 32  1  0
 32 33  2  0
 33 34  1  0
 34 35  2  0
 35 36  1  0
 36 37  2  0
 37 38  1  0
 38 39  2  0
 39 40  1  0
 40 41  2  0
 41 42  1  0
 42 43  2  0
 43 44  1  0
 44 45  2  0
 45 46  1  0
 46 47  2  0
 47 48  1  0
 48 49  2  0
 49 50  1  0
 50 51  2  0
 51 52  1  0
 52 53  2  0
 53 54  1  0
 54 55  2  0
 55 56  1  0
 56 57  2  0
 57 58  1  0
 58 59  2  0
 59  2  1  0
 14 10  1  0
 28 15  1  0
 35 30  1  0
 41 36  1  0
 47 42  1  0
 53 48  1  0
 59 54  1  0
 27 22  1  0
M  END
>  <Title>  (346) 
idAALJgen13

$$$$

     RDKit          2D

 74 75  0  0  0  0  0  0  0  0999 V2000
   -2.2268   -1.0597    0.0000 C   0  0  0  0  0  0  0  0  0  0  0  0
   -2.4947    0.4162    0.0000 C   0  0  0  0  0  0  0  0  0  0  0  0
   -3.9811    0.2149    0.0000 C   0  0  0  0  0  0  0  0  0  0  0  0
   -5.4796    0.1476    0.0000 C   0  0  0  0  0  0  0  0  0  0  0  0
   -6.9781    0.2149    0.0000 C   0  0  0  0  0  0  0  0  0  0  0  0
   -8.4645    0.4162    0.0000 C   0  0  0  0  0  0  0  0  0  0  0  0
   -9.9269    0.7500    0.0000 C   0  0  0  0  0  0  0  0  0  0  0  0
  -11.3535    1.2135    0.0000 C   0  0  0  0  0  0  0  0  0  0  0  0
  -12.7328    1.8031    0.0000 C   0  0  0  0  0  0  0  0  0  0  0  0
  -14.0537    2.5139    0.0000 C   0  0  0  0  0  0  0  0  0  0  0  0
  -15.3055    3.3402    0.0000 C   0  0  0  0  0  0  0  0  0  0  0  0
  -16.4783    4.2754    0.0000 C   0  0  0  0  0  0  0  0  0  0  0  0
  -17.5625    5.3120    0.0000 C   0  0  0  0  0  0  0  0  0  0  0  0
  -18.5494    6.4416    0.0000 C   0  0  0  0  0  0  0  0  0  0  0  0
  -19.4311    7.6552    0.0000 C   0  0  0  0  0  0  0  0  0  0  0  0
  -20.2004    8.9428    0.0000 C   0  0  0  0  0  0  0  0  0  0  0  0
  -20.8512   10.2943    0.0000 C   0  0  0  0  0  0  0  0  0  0  0  0
  -21.3783   11.6987    0.0000 C   0  0  0  0  0  0  0  0  0  0  0  0
  -21.7773   13.1446    0.0000 C   0  0  0  0  0  0  0  0  0  0  0  0
  -22.0452   14.6205    0.0000 C   0  0  0  0  0  0  0  0  0  0  0  0
  -22.1796   16.1145    0.0000 C   0  0  0  0  0  0  0  0  0  0  0  0
  -22.1796   17.6145    0.0000 C   0  0  0  0  0  0  0  0  0  0  0  0
  -22.0452   19.1084    0.0000 C   0  0  0  0  0  0  0  0  0  0  0  0
  -21.7773   20.5843    0.0000 C   0  0  0  0  0  0  0  0  0  0  0  0
  -21.3783   22.0303    0.0000 C   0  0  0  0  0  0  0  0  0  0  0  0
  -20.8512   23.4346    0.0000 C   0  0  0  0  0  0  0  0  0  0  0  0
  -20.2004   24.7861    0.0000 C   0  0  0  0  0  0  0  0  0  0  0  0
  -19.4311   26.0737    0.0000 C   0  0  0  0  0  0  0  0  0  0  0  0
  -18.5494   27.2873    0.0000 C   0  0  0  0  0  0  0  0  0  0  0  0
  -17.5625   28.4169    0.0000 C   0  0  0  0  0  0  0  0  0  0  0  0
  -16.4783   29.4535    0.0000 C   0  0  0  0  0  0  0  0  0  0  0  0
  -15.3055   30.3887    0.0000 C   0  0  0  0  0  0  0  0  0  0  0  0
  -14.0537   31.2150    0.0000 C   0  0  0  0  0  0  0  0  0  0  0  0
  -12.7328   31.9258    0.0000 C   0  0  0  0  0  0  0  0  0  0  0  0
  -11.3535   32.5154    0.0000 C   0  0  0  0  0  0  0  0  0  0  0  0
   -9.9269   32.9789    0.0000 C   0  0  0  0  0  0  0  0  0  0  0  0
   -8.4645   33.3127    0.0000 C   0  0  0  0  0  0  0  0  0  0  0  0
   -6.9781   33.5140    0.0000 C   0  0  0  0  0  0  0  0  0  0  0  0
   -5.4796   33.5813    0.0000 C   0  0  0  0  0  0  0  0  0  0  0  0
   -3.9811   33.5140    0.0000 C   0  0  0  0  0  0  0  0  0  0  0  0
   -2.4947   33.3127    0.0000 C   0  0  0  0  0  0  0  0  0  0  0  0
   -1.0323   32.9789    0.0000 C   0  0  0  0  0  0  0  0  0  0  0  0
    0.3943   32.5154    0.0000 C   0  0  0  0  0  0  0  0  0  0  0  0
    1.7736   31.9258    0.0000 C   0  0  0  0  0  0  0  0  0  0  0  0
    3.0945   31.2150    0.0000 C   0  0  0  0  0  0  0  0  0  0  0  0
    4.3463   30.3887    0.0000 C   0  0  0  0  0  0  0  0  0  0  0  0
    5.5191   29.4535    0.0000 C   0  0  0  0  0  0  0  0  0  0  0  0
    6.6033   28.4169    0.0000 C   0  0  0  0  0  0  0  0  0  0  0  0
    7.5902   27.2873    0.0000 C   0  0  0  0  0  0  0  0  0  0  0  0
    8.4719   26.0737    0.0000 C   0  0  0  0  0  0  0  0  0  0  0  0
    9.2412   24.7861    0.0000 C   0  0  0  0  0  0  0  0  0  0  0  0
    9.8920   23.4346    0.0000 C   0  0  0  0  0  0  0  0  0  0  0  0
   10.4191   22.0303    0.0000 C   0  0  0  0  0  0  0  0  0  0  0  0
   10.8182   20.5843    0.0000 C   0  0  0  0  0  0  0  0  0  0  0  0
   11.0860   19.1084    0.0000 C   0  0  0  0  0  0  0  0  0  0  0  0
   11.2205   17.6145    0.0000 C   0  0  0  0  0  0  0  0  0  0  0  0
   11.2205   16.1145    0.0000 C   0  0  0  0  0  0  0  0  0  0  0  0
   11.0860   14.6205    0.0000 C   0  0  0  0  0  0  0  0  0  0  0  0
   10.8182   13.1446    0.0000 C   0  0  0  0  0  0  0  0  0  0  0  0
   10.4191   11.6987    0.0000 C   0  0  0  0  0  0  0  0  0  0  0  0
    9.8920   10.2943    0.0000 C   0  0  0  0  0  0  0  0  0  0  0  0
    9.2412    8.9428    0.0000 C   0  0  0  0  0  0  0  0  0  0  0  0
    8.4719    7.6552    0.0000 C   0  0  0  0  0  0  0  0  0  0  0  0
    7.5902    6.4416    0.0000 C   0  0  0  0  0  0  0  0  0  0  0  0
    6.6033    5.3120    0.0000 C   0  0  0  0  0  0  0  0  0  0  0  0
    5.5191    4.2754    0.0000 C   0  0  0  0  0  0  0  0  0  0  0  0
    4.3463    3.3402    0.0000 C   0  0  0  0  0  0  0  0  0  0  0  0
    3.0945    2.5139    0.0000 C   0  0  0  0  0  0  0  0  0  0  0  0
    1.7736    1.8031    0.0000 C   0  0  0  0  0  0  0  0  0  0  0  0
    0.3943    1.2135    0.0000 C   0  0  0  0  0  0  0  0  0  0  0  0
    1.2760    0.0000    0.0000 C   0  0  0  0  0  0  0  0  0  0  0  0
    0.3943   -1.2135    0.0000 C   0  0  0  0  0  0  0  0  0  0  0  0
   -1.0323   -0.7500    0.0000 C   0  0  0  0  0  0  0  0  0  0  0  0
   -1.0323    0.7500    0.0000 C   0  0  0  0  0  0  0  0  0  0  0  0
  1  2  1  0
  2  3  1  0
  3  4  1  0
  4  5  1  0
  5  6  1  0
  6  7  1  0
  7  8  1  0
  8  9  1  0
  9 10  1  0
 10 11  1  0
 11 12  1  0
 12 13  1  0
 13 14  1  0
 14 15  1  0
 15 16  1  0
 16 17  1  0
 17 18  1  0
 18 19  1  0
 19 20  1  0
 20 21  1  0
 21 22  1  0
 22 23  1  0
 23 24  1  0
 24 25  1  0
 25 26  1  0
 26 27  1  0
 27 28  1  0
 28 29  1  0
 29 30  1  0
 30 31  1  0
 31 32  1  0
 32 33  1  0
 33 34  1  0
 34 35  1  0
 35 36  1  0
 36 37  1  0
 37 38  1  0
 38 39  1  0
 39 40  1  0
 40 41  1  0
 41 42  1  0
 42 43  1  0
 43 44  1  0
 44 45  1  0
 45 46  1  0
 46 47  1  0
 47 48  1  0
 48 49  1  0
 49 50  1  0
 50 51  1  0
 51 52  1  0
 52 53  1  0
 53 54  2  0
 54 55  1  0
 55 56  2  0
 56 57  1  0
 57 58  2  0
 58 59  1  0
 59 60  2  0
 60 61  1  0
 61 62  2  0
 62 63  1  0
 63 64  2  0
 64 65  1  0
 65 66  2  0
 66 67  1  0
 67 68  2  0
 68 69  1  0
 69 70  2  0
 70 71  1  0
 71 72  2  0
 72 73  1  0
 73 74  2  0
 74  2  1  0
 74 70  1  0
M  END
>  <Title>  (347) 
idAALKgen13

$$$$

     RDKit          2D

 64 63  0  0  0  0  0  0  0  0999 V2000
    0.0000    0.0000    0.0000 C   0  0  0  0  0  0  0  0  0  0  0  0
   -0.0000   -1.5000    0.0000 C   0  0  0  0  0  0  0  0  0  0  0  0
   -0.0000   -3.0000    0.0000 C   0  0  0  0  0  0  0  0  0  0  0  0
   -0.0000   -4.5000    0.0000 C   0  0  0  0  0  0  0  0  0  0  0  0
   -0.0000   -6.0000    0.0000 C   0  0  0  0  0  0  0  0  0  0  0  0
   -0.0000   -7.5000    0.0000 C   0  0  0  0  0  0  0  0  0  0  0  0
   -0.0000   -9.0000    0.0000 C   0  0  0  0  0  0  0  0  0  0  0  0
   -0.0000  -10.5000    0.0000 C   0  0  0  0  0  0  0  0  0  0  0  0
   -0.0000  -12.0000    0.0000 C   0  0  0  0  0  0  0  0  0  0  0  0
   -0.0000  -13.5000    0.0000 C   0  0  0  0  0  0  0  0  0  0  0  0
   -0.0000  -15.0000    0.0000 C   0  0  0  0  0  0  0  0  0  0  0  0
   -0.0000  -16.5000    0.0000 C   0  0  0  0  0  0  0  0  0  0  0  0
   -0.0000  -18.0000    0.0000 C   0  0  0  0  0  0  0  0  0  0  0  0
   -0.0000  -19.5000    0.0000 C   0  0  0  0  0  0  0  0  0  0  0  0
   -0.0000  -21.0000    0.0000 C   0  0  0  0  0  0  0  0  0  0  0  0
   -0.0000  -22.5000    0.0000 C   0  0  0  0  0  0  0  0  0  0  0  0
   -0.0000  -24.0000    0.0000 C   0  0  0  0  0  0  0  0  0  0  0  0
   -0.0000  -25.5000    0.0000 C   0  0  0  0  0  0  0  0  0  0  0  0
   -0.0000  -27.0000    0.0000 C   0  0  0  0  0  0  0  0  0  0  0  0
   -0.0000  -28.5000    0.0000 C   0  0  0  0  0  0  0  0  0  0  0  0
   -0.0000  -30.0000    0.0000 C   0  0  0  0  0  0  0  0  0  0  0  0
   -0.0000  -31.5000    0.0000 C   0  0  0  0  0  0  0  0  0  0  0  0
   -0.0000  -33.0000    0.0000 C   0  0  0  0  0  0  0  0  0  0  0  0
   -0.0000  -34.5000    0.0000 C   0  0  0  0  0  0  0  0  0  0  0  0
   -0.0000  -36.0000    0.0000 C   0  0  0  0  0  0  0  0  0  0  0  0
   -0.0000  -37.5000    0.0000 C   0  0  0  0  0  0  0  0  0  0  0  0
   -0.0000  -39.0000    0.0000 C   0  0  0  0  0  0  0  0  0  0  0  0
   -0.0000  -40.5000    0.0000 C   0  0  0  0  0  0  0  0  0  0  0  0
   -0.0000  -42.0000    0.0000 C   0  0  0  0  0  0  0  0  0  0  0  0
   -0.0000  -43.5000    0.0000 C   0  0  0  0  0  0  0  0  0  0  0  0
   -0.0000  -45.0000    0.0000 C   0  0  0  0  0  0  0  0  0  0  0  0
   -0.0000  -46.5000    0.0000 C   0  0  0  0  0  0  0  0  0  0  0  0
   -0.0000  -48.0000    0.0000 C   0  0  0  0  0  0  0  0  0  0  0  0
   -0.0000  -49.5000    0.0000 C   0  0  0  0  0  0  0  0  0  0  0  0
   -0.0000  -51.0000    0.0000 C   0  0  0  0  0  0  0  0  0  0  0  0
   -0.0000  -52.5000    0.0000 C   0  0  0  0  0  0  0  0  0  0  0  0
   -0.0000  -54.0000    0.0000 C   0  0  0  0  0  0  0  0  0  0  0  0
   -0.0000  -55.5000    0.0000 C   0  0  0  0  0  0  0  0  0  0  0  0
   -0.0000  -57.0000    0.0000 C   0  0  0  0  0  0  0  0  0  0  0  0
   -0.0000  -58.5000    0.0000 C   0  0  0  0  0  0  0  0  0  0  0  0
   -0.0000  -60.0000    0.0000 C   0  0  0  0  0  0  0  0  0  0  0  0
   -0.0000  -61.5000    0.0000 C   0  0  0  0  0  0  0  0  0  0  0  0
   -0.0000  -63.0000    0.0000 C   0  0  0  0  0  0  0  0  0  0  0  0
   -0.0000  -64.5000    0.0000 C   0  0  0  0  0  0  0  0  0  0  0  0
   -0.0000  -66.0000    0.0000 C   0  0  0  0  0  0  0  0  0  0  0  0
   -0.0000  -67.5000    0.0000 C   0  0  0  0  0  0  0  0  0  0  0  0
   -0.0000  -69.0000    0.0000 C   0  0  0  0  0  0  0  0  0  0  0  0
   -0.0000  -70.5000    0.0000 C   0  0  0  0  0  0  0  0  0  0  0  0
   -0.0000  -72.0000    0.0000 C   0  0  0  0  0  0  0  0  0  0  0  0
   -0.0000  -73.5000    0.0000 C   0  0  0  0  0  0  0  0  0  0  0  0
   -0.0000  -75.0000    0.0000 C   0  0  0  0  0  0  0  0  0  0  0  0
   -0.0000  -76.5000    0.0000 C   0  0  0  0  0  0  0  0  0  0  0  0
   -0.0000  -78.0000    0.0000 C   0  0  0  0  0  0  0  0  0  0  0  0
   -0.0000  -79.5000    0.0000 C   0  0  0  0  0  0  0  0  0  0  0  0
   -0.0000  -81.0000    0.0000 C   0  0  0  0  0  0  0  0  0  0  0  0
   -0.0000  -82.5000    0.0000 C   0  0  0  0  0  0  0  0  0  0  0  0
   -0.0000  -84.0000    0.0000 C   0  0  0  0  0  0  0  0  0  0  0  0
   -0.0000  -85.5000    0.0000 C   0  0  0  0  0  0  0  0  0  0  0  0
   -0.0000  -87.0000    0.0000 C   0  0  0  0  0  0  0  0  0  0  0  0
   -0.0000  -88.5000    0.0000 C   0  0  0  0  0  0  0  0  0  0  0  0
   -0.0000  -90.0000    0.0000 C   0  0  0  0  0  0  0  0  0  0  0  0
   -0.0000  -91.5000    0.0000 C   0  0  0  0  0  0  0  0  0  0  0  0
   -0.0000  -93.0000    0.0000 C   0  0  0  0  0  0  0  0  0  0  0  0
   -0.0000  -94.5000    0.0000 C   0  0  0  0  0  0  0  0  0  0  0  0
  1  2  3  0
  2  3  1  0
  3  4  3  0
  4  5  1  0
  5  6  3  0
  6  7  1  0
  7  8  3  0
  8  9  1  0
  9 10  3  0
 10 11  1  0
 11 12  3  0
 12 13  1  0
 13 14  3  0
 14 15  1  0
 15 16  3  0
 16 17  1  0
 17 18  3  0
 18 19  1  0
 19 20  3  0
 20 21  1  0
 21 22  3  0
 22 23  1  0
 23 24  3  0
 24 25  1  0
 25 26  3  0
 26 27  1  0
 27 28  3  0
 28 29  1  0
 29 30  3  0
 30 31  1  0
 31 32  3  0
 32 33  1  0
 33 34  3  0
 34 35  1  0
 35 36  3  0
 36 37  1  0
 37 38  3  0
 38 39  1  0
 39 40  3  0
 40 41  1  0
 41 42  3  0
 42 43  1  0
 43 44  3  0
 44 45  1  0
 45 46  3  0
 46 47  1  0
 47 48  3  0
 48 49  1  0
 49 50  3  0
 50 51  1  0
 51 52  3  0
 52 53  1  0
 53 54  3  0
 54 55  1  0
 55 56  3  0
 56 57  1  0
 57 58  3  0
 58 59  1  0
 59 60  3  0
 60 61  1  0
 61 62  3  0
 62 63  1  0
 63 64  3  0
M  END
>  <Title>  (348) 
idAALLgen13

$$$$

     RDKit          2D

  7  6  0  0  0  0  0  0  0  0999 V2000
    0.0000    0.0000    0.0000 C   0  0  0  0  0  0  0  0  0  0  0  0
    1.2990    0.7500    0.0000 C   0  0  0  0  0  0  0  0  0  0  0  0
    2.5981   -0.0000    0.0000 C   0  0  0  0  0  0  0  0  0  0  0  0
    3.8971    0.7500    0.0000 C   0  0  0  0  0  0  0  0  0  0  0  0
    5.1962   -0.0000    0.0000 C   0  0  0  0  0  0  0  0  0  0  0  0
    5.1962   -1.5000    0.0000 C   0  0  0  0  0  0  0  0  0  0  0  0
    6.4952    0.7500    0.0000 C   0  0  0  0  0  0  0  0  0  0  0  0
  1  2  2  0
  2  3  1  0
  3  4  1  0
  4  5  1  0
  5  6  2  0
  5  7  1  0
M  END
>  <Title>  (349) 
idAALMgen13

$$$$

     RDKit          2D

 36 40  0  0  0  0  0  0  0  0999 V2000
   -4.5000   -5.1962    0.0000 C   0  0  0  0  0  0  0  0  0  0  0  0
   -3.7500   -3.8971    0.0000 C   0  0  0  0  0  0  0  0  0  0  0  0
   -3.0000   -2.5981    0.0000 C   0  0  0  0  0  0  0  0  0  0  0  0
   -1.5000   -2.5981    0.0000 C   0  0  0  0  0  0  0  0  0  0  0  0
   -0.7500   -3.8971    0.0000 C   0  0  0  0  0  0  0  0  0  0  0  0
    0.7500   -3.8971    0.0000 C   0  0  0  0  0  0  0  0  0  0  0  0
    1.5000   -2.5981    0.0000 C   0  0  0  0  0  0  0  0  0  0  0  0
    3.0000   -2.5981    0.0000 C   0  0  0  0  0  0  0  0  0  0  0  0
    3.7500   -1.2990    0.0000 O   0  0  0  0  0  0  0  0  0  0  0  0
    3.7500   -3.8971    0.0000 N   0  0  0  0  0  0  0  0  0  0  0  0
    5.2500   -3.8971    0.0000 C   0  0  0  0  0  0  0  0  0  0  0  0
    6.1317   -2.6836    0.0000 N   0  0  0  0  0  0  0  0  0  0  0  0
    7.5583   -3.1471    0.0000 N   0  0  0  0  0  0  0  0  0  0  0  0
    7.5583   -4.6471    0.0000 N   0  0  0  0  0  0  0  0  0  0  0  0
    6.1317   -5.1106    0.0000 N   0  0  0  0  0  0  0  0  0  0  0  0
    5.6682   -6.5372    0.0000 N   0  0  0  0  0  0  0  0  0  0  0  0
    6.5498   -7.7508    0.0000 C   0  0  0  0  0  0  0  0  0  0  0  0
    5.6682   -8.9643    0.0000 C   0  0  0  0  0  0  0  0  0  0  0  0
    4.2416   -8.5008    0.0000 N   0  0  0  0  0  0  0  0  0  0  0  0
    3.0280   -9.3824    0.0000 C   0  0  0  0  0  0  0  0  0  0  0  0
    3.1848  -10.8742    0.0000 O   0  0  0  0  0  0  0  0  0  0  0  0
    1.6577   -8.7723    0.0000 N   0  0  0  0  0  0  0  0  0  0  0  0
    0.4442   -9.6540    0.0000 C   0  0  0  0  0  0  0  0  0  0  0  0
   -0.9261   -9.0439    0.0000 N   0  0  0  0  0  0  0  0  0  0  0  0
   -2.1396   -9.9256    0.0000 N   0  0  0  0  0  0  0  0  0  0  0  0
   -1.9829  -11.4174    0.0000 N   0  0  0  0  0  0  0  0  0  0  0  0
   -0.6125  -12.0275    0.0000 N   0  0  0  0  0  0  0  0  0  0  0  0
    0.6010  -11.1458    0.0000 N   0  0  0  0  0  0  0  0  0  0  0  0
    4.2416   -7.0008    0.0000 C   0  0  0  0  0  0  0  0  0  0  0  0
    3.0280   -6.1191    0.0000 O   0  0  0  0  0  0  0  0  0  0  0  0
    0.7500   -1.2990    0.0000 C   0  0  0  0  0  0  0  0  0  0  0  0
    1.5000    0.0000    0.0000 C   0  0  0  0  0  0  0  0  0  0  0  0
    0.7500    1.2990    0.0000 C   0  0  0  0  0  0  0  0  0  0  0  0
   -0.7500    1.2990    0.0000 C   0  0  0  0  0  0  0  0  0  0  0  0
   -1.5000    0.0000    0.0000 C   0  0  0  0  0  0  0  0  0  0  0  0
   -0.7500   -1.2990    0.0000 C   0  0  0  0  0  0  0  0  0  0  0  0
  1  2  3  0
  2  3  1  0
  3  4  1  0
  4  5  2  0
  5  6  1  0
  6  7  2  0
  7  8  1  0
  8  9  2  0
  8 10  1  0
 10 11  1  0
 11 12  2  0
 12 13  1  0
 13 14  2  0
 14 15  1  0
 15 16  1  0
 16 17  1  0
 17 18  1  0
 18 19  1  0
 19 20  1  0
 20 21  2  0
 20 22  1  0
 22 23  1  0
 23 24  2  0
 24 25  1  0
 25 26  2  0
 26 27  1  0
 27 28  2  0
 19 29  1  0
 29 30  2  0
  7 31  1  0
 31 32  2  0
 32 33  1  0
 33 34  2  0
 34 35  1  0
 35 36  2  0
 36  4  1  0
 15 11  1  0
 29 16  1  0
 36 31  1  0
 28 23  1  0
M  END
>  <Title>  (350) 
idAALNgen13

$$$$

     RDKit          2D

 37 41  0  0  0  0  0  0  0  0999 V2000
   -3.1965   -1.7857    0.0000 C   0  0  0  0  0  0  0  0  0  0  0  0
   -1.8107   -2.3597    0.0000 C   0  0  0  0  0  0  0  0  0  0  0  0
   -1.8107   -3.8597    0.0000 C   0  0  0  0  0  0  0  0  0  0  0  0
   -0.7500   -4.9204    0.0000 C   0  0  0  0  0  0  0  0  0  0  0  0
    0.7500   -4.9204    0.0000 C   0  0  0  0  0  0  0  0  0  0  0  0
    1.3240   -6.3062    0.0000 C   0  0  0  0  0  0  0  0  0  0  0  0
    2.8112   -6.5020    0.0000 O   0  0  0  0  0  0  0  0  0  0  0  0
    0.4109   -7.4962    0.0000 N   0  0  0  0  0  0  0  0  0  0  0  0
    0.9849   -8.8820    0.0000 C   0  0  0  0  0  0  0  0  0  0  0  0
    2.4435   -9.2322    0.0000 N   0  0  0  0  0  0  0  0  0  0  0  0
    2.5612  -10.7276    0.0000 N   0  0  0  0  0  0  0  0  0  0  0  0
    1.1753  -11.3016    0.0000 N   0  0  0  0  0  0  0  0  0  0  0  0
    0.2012  -10.1610    0.0000 N   0  0  0  0  0  0  0  0  0  0  0  0
   -1.2942  -10.2787    0.0000 N   0  0  0  0  0  0  0  0  0  0  0  0
   -2.0780  -11.5576    0.0000 C   0  0  0  0  0  0  0  0  0  0  0  0
   -3.5365  -11.2075    0.0000 C   0  0  0  0  0  0  0  0  0  0  0  0
   -3.6542   -9.7121    0.0000 N   0  0  0  0  0  0  0  0  0  0  0  0
   -4.9332   -8.9283    0.0000 C   0  0  0  0  0  0  0  0  0  0  0  0
   -6.2514   -9.6441    0.0000 O   0  0  0  0  0  0  0  0  0  0  0  0
   -4.8939   -7.4289    0.0000 N   0  0  0  0  0  0  0  0  0  0  0  0
   -6.1729   -6.6451    0.0000 C   0  0  0  0  0  0  0  0  0  0  0  0
   -6.1336   -5.1456    0.0000 N   0  0  0  0  0  0  0  0  0  0  0  0
   -7.4126   -4.3619    0.0000 N   0  0  0  0  0  0  0  0  0  0  0  0
   -8.7308   -5.0776    0.0000 N   0  0  0  0  0  0  0  0  0  0  0  0
   -8.7700   -6.5771    0.0000 N   0  0  0  0  0  0  0  0  0  0  0  0
   -7.4911   -7.3608    0.0000 N   0  0  0  0  0  0  0  0  0  0  0  0
   -2.2684   -9.1381    0.0000 C   0  0  0  0  0  0  0  0  0  0  0  0
   -1.9182   -7.6795    0.0000 O   0  0  0  0  0  0  0  0  0  0  0  0
    1.8107   -3.8597    0.0000 C   0  0  0  0  0  0  0  0  0  0  0  0
    3.1965   -4.4337    0.0000 O   0  0  0  0  0  0  0  0  0  0  0  0
    1.8107   -2.3597    0.0000 O   0  0  0  0  0  0  0  0  0  0  0  0
    0.7500   -1.2990    0.0000 C   0  0  0  0  0  0  0  0  0  0  0  0
    1.5000    0.0000    0.0000 C   0  0  0  0  0  0  0  0  0  0  0  0
    0.7500    1.2990    0.0000 C   0  0  0  0  0  0  0  0  0  0  0  0
   -0.7500    1.2990    0.0000 C   0  0  0  0  0  0  0  0  0  0  0  0
   -1.5000    0.0000    0.0000 C   0  0  0  0  0  0  0  0  0  0  0  0
   -0.7500   -1.2990    0.0000 C   0  0  0  0  0  0  0  0  0  0  0  0
  1  2  1  0
  2  3  2  0
  3  4  1  0
  4  5  2  0
  5  6  1  0
  6  7  2  0
  6  8  1  0
  8  9  1  0
  9 10  2  0
 10 11  1  0
 11 12  2  0
 12 13  1  0
 13 14  1  0
 14 15  1  0
 15 16  1  0
 16 17  1  0
 17 18  1  0
 18 19  2  0
 18 20  1  0
 20 21  1  0
 21 22  2  0
 22 23  1  0
 23 24  2  0
 24 25  1  0
 25 26  2  0
 17 27  1  0
 27 28  2  0
  5 29  1  0
 29 30  2  0
 29 31  1  0
 31 32  1  0
 32 33  2  0
 33 34  1  0
 34 35  2  0
 35 36  1  0
 36 37  2  0
 37  2  1  0
 13  9  1  0
 27 14  1  0
 37 32  1  0
 26 21  1  0
M  END
>  <Title>  (351) 
idAALOgen13

$$$$

     RDKit          2D

 95 96  0  0  0  0  0  0  0  0999 V2000
   10.9504    4.4897    0.0000 C   0  0  0  0  0  0  0  0  0  0  0  0
   11.7474    4.4701    0.0000 C   0  0  0  0  0  0  0  0  0  0  0  0
   11.8888    5.9634    0.0000 C   0  0  0  0  0  0  0  0  0  0  0  0
   12.2367    7.4225    0.0000 C   0  0  0  0  0  0  0  0  0  0  0  0
   12.7843    8.8190    0.0000 C   0  0  0  0  0  0  0  0  0  0  0  0
   13.5210   10.1256    0.0000 C   0  0  0  0  0  0  0  0  0  0  0  0
   14.4323   11.3171    0.0000 C   0  0  0  0  0  0  0  0  0  0  0  0
   15.5005   12.3701    0.0000 C   0  0  0  0  0  0  0  0  0  0  0  0
   16.7049   13.2642    0.0000 C   0  0  0  0  0  0  0  0  0  0  0  0
   18.0221   13.9819    0.0000 C   0  0  0  0  0  0  0  0  0  0  0  0
   19.4263   14.5094    0.0000 C   0  0  0  0  0  0  0  0  0  0  0  0
   20.8902   14.8363    0.0000 C   0  0  0  0  0  0  0  0  0  0  0  0
   22.3854   14.9563    0.0000 C   0  0  0  0  0  0  0  0  0  0  0  0
   23.8827   14.8670    0.0000 C   0  0  0  0  0  0  0  0  0  0  0  0
   25.3531   14.5703    0.0000 C   0  0  0  0  0  0  0  0  0  0  0  0
   26.7678   14.0717    0.0000 C   0  0  0  0  0  0  0  0  0  0  0  0
   28.0994   13.3812    0.0000 C   0  0  0  0  0  0  0  0  0  0  0  0
   29.3219   12.5120    0.0000 C   0  0  0  0  0  0  0  0  0  0  0  0
   30.4116   11.4811    0.0000 C   0  0  0  0  0  0  0  0  0  0  0  0
   31.3471   10.3087    0.0000 C   0  0  0  0  0  0  0  0  0  0  0  0
   32.1104    9.0174    0.0000 C   0  0  0  0  0  0  0  0  0  0  0  0
   32.6866    7.6324    0.0000 C   0  0  0  0  0  0  0  0  0  0  0  0
   33.0644    6.1808    0.0000 C   0  0  0  0  0  0  0  0  0  0  0  0
   33.2365    4.6907    0.0000 C   0  0  0  0  0  0  0  0  0  0  0  0
   33.1995    3.1912    0.0000 C   0  0  0  0  0  0  0  0  0  0  0  0
   32.9543    1.7114    0.0000 C   0  0  0  0  0  0  0  0  0  0  0  0
   32.5054    0.2801    0.0000 C   0  0  0  0  0  0  0  0  0  0  0  0
   31.8617   -1.0748    0.0000 C   0  0  0  0  0  0  0  0  0  0  0  0
   31.0357   -2.3269    0.0000 C   0  0  0  0  0  0  0  0  0  0  0  0
   30.0435   -3.4518    0.0000 C   0  0  0  0  0  0  0  0  0  0  0  0
   28.9044   -4.4278    0.0000 C   0  0  0  0  0  0  0  0  0  0  0  0
   27.6406   -5.2357    0.0000 C   0  0  0  0  0  0  0  0  0  0  0  0
   26.2766   -5.8598    0.0000 C   0  0  0  0  0  0  0  0  0  0  0  0
   24.8390   -6.2880    0.0000 C   0  0  0  0  0  0  0  0  0  0  0  0
   23.3559   -6.5120    0.0000 C   0  0  0  0  0  0  0  0  0  0  0  0
   21.8559   -6.5274    0.0000 C   0  0  0  0  0  0  0  0  0  0  0  0
   20.3685   -6.3339    0.0000 C   0  0  0  0  0  0  0  0  0  0  0  0
   18.9224   -5.9353    0.0000 C   0  0  0  0  0  0  0  0  0  0  0  0
   17.5459   -5.3393    0.0000 C   0  0  0  0  0  0  0  0  0  0  0  0
   16.2657   -4.5575    0.0000 C   0  0  0  0  0  0  0  0  0  0  0  0
   15.1068   -3.6052    0.0000 C   0  0  0  0  0  0  0  0  0  0  0  0
   14.0917   -2.5008    0.0000 C   0  0  0  0  0  0  0  0  0  0  0  0
   13.2402   -1.2660    0.0000 C   0  0  0  0  0  0  0  0  0  0  0  0
   12.5689    0.0754    0.0000 C   0  0  0  0  0  0  0  0  0  0  0  0
   12.0907    1.4972    0.0000 C   0  0  0  0  0  0  0  0  0  0  0  0
   11.4831    0.0000    0.0000 C   0  0  0  0  0  0  0  0  0  0  0  0
   11.3960   -1.4111    0.0000 C   0  0  0  0  0  0  0  0  0  0  0  0
   11.1362   -2.8009    0.0000 C   0  0  0  0  0  0  0  0  0  0  0  0
   10.7076   -4.1482    0.0000 C   0  0  0  0  0  0  0  0  0  0  0  0
   10.1167   -5.4326    0.0000 C   0  0  0  0  0  0  0  0  0  0  0  0
    9.3724   -6.6346    0.0000 C   0  0  0  0  0  0  0  0  0  0  0  0
    8.4861   -7.7361    0.0000 C   0  0  0  0  0  0  0  0  0  0  0  0
    7.4711   -8.7203    0.0000 C   0  0  0  0  0  0  0  0  0  0  0  0
    6.3428   -9.5723    0.0000 C   0  0  0  0  0  0  0  0  0  0  0  0
    5.1184  -10.2792    0.0000 C   0  0  0  0  0  0  0  0  0  0  0  0
    3.8164  -10.8303    0.0000 C   0  0  0  0  0  0  0  0  0  0  0  0
    2.4566  -11.2172    0.0000 C   0  0  0  0  0  0  0  0  0  0  0  0
    1.0595  -11.4341    0.0000 C   0  0  0  0  0  0  0  0  0  0  0  0
   -0.3536  -11.4776    0.0000 C   0  0  0  0  0  0  0  0  0  0  0  0
   -1.7614  -11.3472    0.0000 C   0  0  0  0  0  0  0  0  0  0  0  0
   -3.1425  -11.0447    0.0000 C   0  0  0  0  0  0  0  0  0  0  0  0
   -4.4759  -10.5748    0.0000 C   0  0  0  0  0  0  0  0  0  0  0  0
   -5.7415   -9.9446    0.0000 C   0  0  0  0  0  0  0  0  0  0  0  0
   -6.9201   -9.1637    0.0000 C   0  0  0  0  0  0  0  0  0  0  0  0
   -7.9937   -8.2438    0.0000 C   0  0  0  0  0  0  0  0  0  0  0  0
   -8.9462   -7.1990    0.0000 C   0  0  0  0  0  0  0  0  0  0  0  0
   -9.7631   -6.0451    0.0000 C   0  0  0  0  0  0  0  0  0  0  0  0
  -10.4320   -4.7995    0.0000 C   0  0  0  0  0  0  0  0  0  0  0  0
  -10.9427   -3.4811    0.0000 C   0  0  0  0  0  0  0  0  0  0  0  0
  -11.2875   -2.1100    0.0000 C   0  0  0  0  0  0  0  0  0  0  0  0
  -11.4613   -0.7069    0.0000 C   0  0  0  0  0  0  0  0  0  0  0  0
  -11.4613    0.7069    0.0000 C   0  0  0  0  0  0  0  0  0  0  0  0
  -11.2875    2.1100    0.0000 C   0  0  0  0  0  0  0  0  0  0  0  0
  -10.9427    3.4811    0.0000 C   0  0  0  0  0  0  0  0  0  0  0  0
  -10.4320    4.7995    0.0000 C   0  0  0  0  0  0  0  0  0  0  0  0
   -9.7631    6.0451    0.0000 C   0  0  0  0  0  0  0  0  0  0  0  0
   -8.9462    7.1990    0.0000 C   0  0  0  0  0  0  0  0  0  0  0  0
   -7.9937    8.2438    0.0000 C   0  0  0  0  0  0  0  0  0  0  0  0
   -6.9201    9.1637    0.0000 C   0  0  0  0  0  0  0  0  0  0  0  0
   -5.7415    9.9446    0.0000 C   0  0  0  0  0  0  0  0  0  0  0  0
   -4.4759   10.5748    0.0000 C   0  0  0  0  0  0  0  0  0  0  0  0
   -3.1425   11.0447    0.0000 C   0  0  0  0  0  0  0  0  0  0  0  0
   -1.7614   11.3472    0.0000 C   0  0  0  0  0  0  0  0  0  0  0  0
   -0.3536   11.4776    0.0000 C   0  0  0  0  0  0  0  0  0  0  0  0
    1.0595   11.4341    0.0000 C   0  0  0  0  0  0  0  0  0  0  0  0
    2.4566   11.2172    0.0000 C   0  0  0  0  0  0  0  0  0  0  0  0
    3.8164   10.8303    0.0000 C   0  0  0  0  0  0  0  0  0  0  0  0
    5.1184   10.2792    0.0000 C   0  0  0  0  0  0  0  0  0  0  0  0
    6.3428    9.5723    0.0000 C   0  0  0  0  0  0  0  0  0  0  0  0
    7.4711    8.7203    0.0000 C   0  0  0  0  0  0  0  0  0  0  0  0
    8.4861    7.7361    0.0000 C   0  0  0  0  0  0  0  0  0  0  0  0
    9.3724    6.6346    0.0000 C   0  0  0  0  0  0  0  0  0  0  0  0
   10.1167    5.4326    0.0000 C   0  0  0  0  0  0  0  0  0  0  0  0
   10.7076    4.1482    0.0000 C   0  0  0  0  0  0  0  0  0  0  0  0
   11.8151    2.9716    0.0000 C   0  0  0  0  0  0  0  0  0  0  0  0
  1  2  1  0
  2  3  1  0
  3  4  1  0
  4  5  1  0
  5  6  1  0
  6  7  1  0
  7  8  1  0
  8  9  1  0
  9 10  1  0
 10 11  1  0
 11 12  1  0
 12 13  1  0
 13 14  1  0
 14 15  1  0
 15 16  1  0
 16 17  1  0
 17 18  1  0
 18 19  1  0
 19 20  1  0
 20 21  1  0
 21 22  1  0
 22 23  1  0
 23 24  1  0
 24 25  1  0
 25 26  1  0
 26 27  1  0
 27 28  1  0
 28 29  1  0
 29 30  1  0
 30 31  1  0
 31 32  1  0
 32 33  1  0
 33 34  1  0
 34 35  1  0
 35 36  1  0
 36 37  1  0
 37 38  1  0
 38 39  1  0
 39 40  1  0
 40 41  1  0
 41 42  1  0
 42 43  1  0
 43 44  1  0
 44 45  1  0
 45 46  1  0
 46 47  1  0
 47 48  1  0
 48 49  2  0
 49 50  1  0
 50 51  2  0
 51 52  1  0
 52 53  2  0
 53 54  1  0
 54 55  2  0
 55 56  1  0
 56 57  2  0
 57 58  1  0
 58 59  2  0
 59 60  1  0
 60 61  2  0
 61 62  1  0
 62 63  2  0
 63 64  1  0
 64 65  2  0
 65 66  1  0
 66 67  2  0
 67 68  1  0
 68 69  2  0
 69 70  1  0
 70 71  2  0
 71 72  1  0
 72 73  2  0
 73 74  1  0
 74 75  2  0
 75 76  1  0
 76 77  2  0
 77 78  1  0
 78 79  2  0
 79 80  1  0
 80 81  2  0
 81 82  1  0
 82 83  2  0
 83 84  1  0
 84 85  2  0
 85 86  1  0
 86 87  2  0
 87 88  1  0
 88 89  2  0
 89 90  1  0
 90 91  2  0
 91 92  1  0
 92 93  2  0
 93 94  1  0
 94 95  2  0
 95  2  1  0
 95 45  1  0
M  END
>  <Title>  (352) 
idAALPgen13

$$$$

     RDKit          2D

 85 86  0  0  0  0  0  0  0  0999 V2000
    4.6300    4.2055    0.0000 C   0  0  0  0  0  0  0  0  0  0  0  0
    5.4129    4.3555    0.0000 C   0  0  0  0  0  0  0  0  0  0  0  0
    5.2094    5.8416    0.0000 C   0  0  0  0  0  0  0  0  0  0  0  0
    5.1650    7.3410    0.0000 C   0  0  0  0  0  0  0  0  0  0  0  0
    5.2803    8.8365    0.0000 C   0  0  0  0  0  0  0  0  0  0  0  0
    5.5538   10.3114    0.0000 C   0  0  0  0  0  0  0  0  0  0  0  0
    5.9826   11.7488    0.0000 C   0  0  0  0  0  0  0  0  0  0  0  0
    6.5618   13.1325    0.0000 C   0  0  0  0  0  0  0  0  0  0  0  0
    7.2847   14.4468    0.0000 C   0  0  0  0  0  0  0  0  0  0  0  0
    8.1433   15.6768    0.0000 C   0  0  0  0  0  0  0  0  0  0  0  0
    9.1277   16.8085    0.0000 C   0  0  0  0  0  0  0  0  0  0  0  0
   10.2268   17.8292    0.0000 C   0  0  0  0  0  0  0  0  0  0  0  0
   11.4283   18.7274    0.0000 C   0  0  0  0  0  0  0  0  0  0  0  0
   12.7183   19.4927    0.0000 C   0  0  0  0  0  0  0  0  0  0  0  0
   14.0824   20.1165    0.0000 C   0  0  0  0  0  0  0  0  0  0  0  0
   15.5051   20.5919    0.0000 C   0  0  0  0  0  0  0  0  0  0  0  0
   16.9703   20.9133    0.0000 C   0  0  0  0  0  0  0  0  0  0  0  0
   18.4613   21.0771    0.0000 C   0  0  0  0  0  0  0  0  0  0  0  0
   19.9613   21.0816    0.0000 C   0  0  0  0  0  0  0  0  0  0  0  0
   21.4533   20.9265    0.0000 C   0  0  0  0  0  0  0  0  0  0  0  0
   22.9203   20.6138    0.0000 C   0  0  0  0  0  0  0  0  0  0  0  0
   24.3458   20.1469    0.0000 C   0  0  0  0  0  0  0  0  0  0  0  0
   25.7136   19.5311    0.0000 C   0  0  0  0  0  0  0  0  0  0  0  0
   27.0082   18.7734    0.0000 C   0  0  0  0  0  0  0  0  0  0  0  0
   28.2149   17.8825    0.0000 C   0  0  0  0  0  0  0  0  0  0  0  0
   29.3200   16.8683    0.0000 C   0  0  0  0  0  0  0  0  0  0  0  0
   30.3111   15.7423    0.0000 C   0  0  0  0  0  0  0  0  0  0  0  0
   31.1769   14.5174    0.0000 C   0  0  0  0  0  0  0  0  0  0  0  0
   31.9077   13.2074    0.0000 C   0  0  0  0  0  0  0  0  0  0  0  0
   32.4950   11.8272    0.0000 C   0  0  0  0  0  0  0  0  0  0  0  0
   32.9323   10.3924    0.0000 C   0  0  0  0  0  0  0  0  0  0  0  0
   33.2146    8.9192    0.0000 C   0  0  0  0  0  0  0  0  0  0  0  0
   33.3387    7.4243    0.0000 C   0  0  0  0  0  0  0  0  0  0  0  0
   33.3032    5.9247    0.0000 C   0  0  0  0  0  0  0  0  0  0  0  0
   33.1085    4.4374    0.0000 C   0  0  0  0  0  0  0  0  0  0  0  0
   32.7568    2.9792    0.0000 C   0  0  0  0  0  0  0  0  0  0  0  0
   32.2521    1.5667    0.0000 C   0  0  0  0  0  0  0  0  0  0  0  0
   31.6001    0.2158    0.0000 C   0  0  0  0  0  0  0  0  0  0  0  0
   30.8083   -1.0582    0.0000 C   0  0  0  0  0  0  0  0  0  0  0  0
   29.8855   -2.2407    0.0000 C   0  0  0  0  0  0  0  0  0  0  0  0
   28.8422   -3.3185    0.0000 C   0  0  0  0  0  0  0  0  0  0  0  0
   27.6903   -4.2793    0.0000 C   0  0  0  0  0  0  0  0  0  0  0  0
   26.4428   -5.1122    0.0000 C   0  0  0  0  0  0  0  0  0  0  0  0
   25.1138   -5.8078    0.0000 C   0  0  0  0  0  0  0  0  0  0  0  0
   23.7184   -6.3581    0.0000 C   0  0  0  0  0  0  0  0  0  0  0  0
   22.2725   -6.7571    0.0000 C   0  0  0  0  0  0  0  0  0  0  0  0
   20.7923   -7.0000    0.0000 C   0  0  0  0  0  0  0  0  0  0  0  0
   19.2946   -7.0843    0.0000 C   0  0  0  0  0  0  0  0  0  0  0  0
   17.7965   -7.0089    0.0000 C   0  0  0  0  0  0  0  0  0  0  0  0
   16.3149   -6.7747    0.0000 C   0  0  0  0  0  0  0  0  0  0  0  0
   14.8666   -6.3843    0.0000 C   0  0  0  0  0  0  0  0  0  0  0  0
   13.4680   -5.8422    0.0000 C   0  0  0  0  0  0  0  0  0  0  0  0
   12.1349   -5.1545    0.0000 C   0  0  0  0  0  0  0  0  0  0  0  0
   10.8825   -4.3290    0.0000 C   0  0  0  0  0  0  0  0  0  0  0  0
    9.7249   -3.3751    0.0000 C   0  0  0  0  0  0  0  0  0  0  0  0
    8.6753   -2.3035    0.0000 C   0  0  0  0  0  0  0  0  0  0  0  0
    7.7455   -1.1264    0.0000 C   0  0  0  0  0  0  0  0  0  0  0  0
    6.9462    0.1428    0.0000 C   0  0  0  0  0  0  0  0  0  0  0  0
    6.2862    1.4899    0.0000 C   0  0  0  0  0  0  0  0  0  0  0  0
    5.7603   -0.0000    0.0000 C   0  0  0  0  0  0  0  0  0  0  0  0
    5.6051   -1.3284    0.0000 C   0  0  0  0  0  0  0  0  0  0  0  0
    5.1476   -2.5852    0.0000 C   0  0  0  0  0  0  0  0  0  0  0  0
    4.4127   -3.7027    0.0000 C   0  0  0  0  0  0  0  0  0  0  0  0
    3.4398   -4.6205    0.0000 C   0  0  0  0  0  0  0  0  0  0  0  0
    2.2816   -5.2892    0.0000 C   0  0  0  0  0  0  0  0  0  0  0  0
    1.0003   -5.6728    0.0000 C   0  0  0  0  0  0  0  0  0  0  0  0
   -0.3349   -5.7506    0.0000 C   0  0  0  0  0  0  0  0  0  0  0  0
   -1.6521   -5.5183    0.0000 C   0  0  0  0  0  0  0  0  0  0  0  0
   -2.8802   -4.9886    0.0000 C   0  0  0  0  0  0  0  0  0  0  0  0
   -3.9530   -4.1899    0.0000 C   0  0  0  0  0  0  0  0  0  0  0  0
   -4.8127   -3.1654    0.0000 C   0  0  0  0  0  0  0  0  0  0  0  0
   -5.4130   -1.9702    0.0000 C   0  0  0  0  0  0  0  0  0  0  0  0
   -5.7214   -0.6687    0.0000 C   0  0  0  0  0  0  0  0  0  0  0  0
   -5.7214    0.6687    0.0000 C   0  0  0  0  0  0  0  0  0  0  0  0
   -5.4130    1.9702    0.0000 C   0  0  0  0  0  0  0  0  0  0  0  0
   -4.8127    3.1654    0.0000 C   0  0  0  0  0  0  0  0  0  0  0  0
   -3.9530    4.1899    0.0000 C   0  0  0  0  0  0  0  0  0  0  0  0
   -2.8802    4.9886    0.0000 C   0  0  0  0  0  0  0  0  0  0  0  0
   -1.6521    5.5183    0.0000 C   0  0  0  0  0  0  0  0  0  0  0  0
   -0.3349    5.7506    0.0000 C   0  0  0  0  0  0  0  0  0  0  0  0
    1.0003    5.6728    0.0000 C   0  0  0  0  0  0  0  0  0  0  0  0
    2.2816    5.2892    0.0000 C   0  0  0  0  0  0  0  0  0  0  0  0
    3.4398    4.6205    0.0000 C   0  0  0  0  0  0  0  0  0  0  0  0
    4.4127    3.7027    0.0000 C   0  0  0  0  0  0  0  0  0  0  0  0
    5.7732    2.8994    0.0000 C   0  0  0  0  0  0  0  0  0  0  0  0
  1  2  1  0
  2  3  1  0
  3  4  1  0
  4  5  1  0
  5  6  1  0
  6  7  1  0
  7  8  1  0
  8  9  1  0
  9 10  1  0
 10 11  1  0
 11 12  1  0
 12 13  1  0
 13 14  1  0
 14 15  1  0
 15 16  1  0
 16 17  1  0
 17 18  1  0
 18 19  1  0
 19 20  1  0
 20 21  1  0
 21 22  1  0
 22 23  1  0
 23 24  1  0
 24 25  1  0
 25 26  1  0
 26 27  1  0
 27 28  1  0
 28 29  1  0
 29 30  1  0
 30 31  1  0
 31 32  1  0
 32 33  1  0
 33 34  1  0
 34 35  1  0
 35 36  1  0
 36 37  1  0
 37 38  1  0
 38 39  1  0
 39 40  1  0
 40 41  1  0
 41 42  1  0
 42 43  1  0
 43 44  1  0
 44 45  1  0
 45 46  1  0
 46 47  1  0
 47 48  1  0
 48 49  1  0
 49 50  1  0
 50 51  1  0
 51 52  1  0
 52 53  1  0
 53 54  1  0
 54 55  1  0
 55 56  1  0
 56 57  1  0
 57 58  1  0
 58 59  1  0
 59 60  1  0
 60 61  2  0
 61 62  1  0
 62 63  2  0
 63 64  1  0
 64 65  2  0
 65 66  1  0
 66 67  2  0
 67 68  1  0
 68 69  2  0
 69 70  1  0
 70 71  2  0
 71 72  1  0
 72 73  2  0
 73 74  1  0
 74 75  2  0
 75 76  1  0
 76 77  2  0
 77 78  1  0
 78 79  2  0
 79 80  1  0
 80 81  2  0
 81 82  1  0
 82 83  2  0
 83 84  1  0
 84 85  2  0
 85  2  1  0
 85 59  1  0
M  END
>  <Title>  (353) 
idAALQgen13

$$$$

     RDKit          2D

  5  4  0  0  0  0  0  0  0  0999 V2000
    0.0000    0.0000    0.0000 C   0  0  0  0  0  0  0  0  0  0  0  0
   -0.0000   -1.5000    0.0000 C   0  0  0  0  0  0  0  0  0  0  0  0
   -0.0000   -3.0000    0.0000 C   0  0  0  0  0  0  0  0  0  0  0  0
    1.2990   -3.7500    0.0000 C   0  0  0  0  0  0  0  0  0  0  0  0
    1.2990   -5.2500    0.0000 N   0  0  0  0  0  0  0  0  0  0  0  0
  1  2  3  0
  2  3  1  0
  3  4  1  0
  4  5  1  0
M  END
>  <Title>  (354) 
idAALRgen13

$$$$

     RDKit          2D

  7  6  0  0  0  0  0  0  0  0999 V2000
    0.0000    0.0000    0.0000 C   0  0  0  0  0  0  0  0  0  0  0  0
    1.2990    0.7500    0.0000 C   0  0  0  0  0  0  0  0  0  0  0  0
    2.5981   -0.0000    0.0000 C   0  0  0  0  0  0  0  0  0  0  0  0
    3.8971    0.7500    0.0000 C   0  0  0  0  0  0  0  0  0  0  0  0
    5.1962   -0.0000    0.0000 C   0  0  0  0  0  0  0  0  0  0  0  0
    6.4952    0.7500    0.0000 C   0  0  0  0  0  0  0  0  0  0  0  0
    5.1962   -1.5000    0.0000 O   0  0  0  0  0  0  0  0  0  0  0  0
  1  2  2  0
  2  3  1  0
  3  4  1  0
  4  5  1  0
  5  6  1  0
  5  7  2  0
M  END
>  <Title>  (355) 
idAALSgen13

$$$$

     RDKit          2D

 38 42  0  0  0  0  0  0  0  0999 V2000
   -5.7723   -2.1248    0.0000 C   0  0  0  0  0  0  0  0  0  0  0  0
   -4.3865   -2.6988    0.0000 C   0  0  0  0  0  0  0  0  0  0  0  0
   -3.1965   -1.7857    0.0000 C   0  0  0  0  0  0  0  0  0  0  0  0
   -1.8107   -2.3597    0.0000 C   0  0  0  0  0  0  0  0  0  0  0  0
   -1.8107   -3.8597    0.0000 C   0  0  0  0  0  0  0  0  0  0  0  0
   -0.7500   -4.9204    0.0000 C   0  0  0  0  0  0  0  0  0  0  0  0
    0.7500   -4.9204    0.0000 C   0  0  0  0  0  0  0  0  0  0  0  0
    1.3240   -6.3062    0.0000 C   0  0  0  0  0  0  0  0  0  0  0  0
    2.8112   -6.5020    0.0000 O   0  0  0  0  0  0  0  0  0  0  0  0
    0.4109   -7.4962    0.0000 N   0  0  0  0  0  0  0  0  0  0  0  0
    0.9849   -8.8820    0.0000 C   0  0  0  0  0  0  0  0  0  0  0  0
    2.4435   -9.2322    0.0000 N   0  0  0  0  0  0  0  0  0  0  0  0
    2.5612  -10.7276    0.0000 N   0  0  0  0  0  0  0  0  0  0  0  0
    1.1753  -11.3016    0.0000 N   0  0  0  0  0  0  0  0  0  0  0  0
    0.2012  -10.1610    0.0000 N   0  0  0  0  0  0  0  0  0  0  0  0
   -1.2942  -10.2787    0.0000 N   0  0  0  0  0  0  0  0  0  0  0  0
   -2.4348   -9.3045    0.0000 C   0  0  0  0  0  0  0  0  0  0  0  0
   -3.4090  -10.4451    0.0000 C   0  0  0  0  0  0  0  0  0  0  0  0
   -4.9044  -10.5628    0.0000 C   0  0  0  0  0  0  0  0  0  0  0  0
   -5.5501  -11.9167    0.0000 O   0  0  0  0  0  0  0  0  0  0  0  0
   -5.7540   -9.3266    0.0000 N   0  0  0  0  0  0  0  0  0  0  0  0
   -7.2494   -9.4443    0.0000 C   0  0  0  0  0  0  0  0  0  0  0  0
   -8.0990   -8.2081    0.0000 N   0  0  0  0  0  0  0  0  0  0  0  0
   -9.5943   -8.3258    0.0000 N   0  0  0  0  0  0  0  0  0  0  0  0
  -10.2401   -9.6797    0.0000 N   0  0  0  0  0  0  0  0  0  0  0  0
   -9.3905  -10.9159    0.0000 N   0  0  0  0  0  0  0  0  0  0  0  0
   -7.8951  -10.7982    0.0000 N   0  0  0  0  0  0  0  0  0  0  0  0
   -2.2684  -11.4193    0.0000 C   0  0  0  0  0  0  0  0  0  0  0  0
   -2.1507  -12.9147    0.0000 O   0  0  0  0  0  0  0  0  0  0  0  0
    1.8107   -3.8597    0.0000 C   0  0  0  0  0  0  0  0  0  0  0  0
    3.1965   -4.4337    0.0000 O   0  0  0  0  0  0  0  0  0  0  0  0
    1.8107   -2.3597    0.0000 O   0  0  0  0  0  0  0  0  0  0  0  0
    0.7500   -1.2990    0.0000 C   0  0  0  0  0  0  0  0  0  0  0  0
    1.5000    0.0000    0.0000 C   0  0  0  0  0  0  0  0  0  0  0  0
    0.7500    1.2990    0.0000 C   0  0  0  0  0  0  0  0  0  0  0  0
   -0.7500    1.2990    0.0000 C   0  0  0  0  0  0  0  0  0  0  0  0
   -1.5000    0.0000    0.0000 C   0  0  0  0  0  0  0  0  0  0  0  0
   -0.7500   -1.2990    0.0000 C   0  0  0  0  0  0  0  0  0  0  0  0
  1  2  2  0
  2  3  1  0
  3  4  1  0
  4  5  2  0
  5  6  1  0
  6  7  2  0
  7  8  1  0
  8  9  2  0
  8 10  1  0
 10 11  1  0
 11 12  2  0
 12 13  1  0
 13 14  2  0
 14 15  1  0
 15 16  1  0
 16 17  1  0
 17 18  2  0
 18 19  1  0
 19 20  2  0
 19 21  1  0
 21 22  1  0
 22 23  2  0
 23 24  1  0
 24 25  2  0
 25 26  1  0
 26 27  2  0
 18 28  1  0
 28 29  2  0
  7 30  1  0
 30 31  2  0
 30 32  1  0
 32 33  1  0
 33 34  2  0
 34 35  1  0
 35 36  2  0
 36 37  1  0
 37 38  2  0
 38  4  1  0
 15 11  1  0
 28 16  1  0
 38 33  1  0
 27 22  1  0
M  END
>  <Title>  (356) 
idAALTgen13

$$$$

     RDKit          2D

 56 55  0  0  0  0  0  0  0  0999 V2000
    0.0000    0.0000    0.0000 C   0  0  0  0  0  0  0  0  0  0  0  0
   -0.0000   -1.5000    0.0000 C   0  0  0  0  0  0  0  0  0  0  0  0
   -0.0000   -3.0000    0.0000 C   0  0  0  0  0  0  0  0  0  0  0  0
   -0.0000   -4.5000    0.0000 C   0  0  0  0  0  0  0  0  0  0  0  0
   -0.0000   -6.0000    0.0000 C   0  0  0  0  0  0  0  0  0  0  0  0
   -0.0000   -7.5000    0.0000 C   0  0  0  0  0  0  0  0  0  0  0  0
   -0.0000   -9.0000    0.0000 C   0  0  0  0  0  0  0  0  0  0  0  0
   -0.0000  -10.5000    0.0000 C   0  0  0  0  0  0  0  0  0  0  0  0
   -0.0000  -12.0000    0.0000 C   0  0  0  0  0  0  0  0  0  0  0  0
   -0.0000  -13.5000    0.0000 C   0  0  0  0  0  0  0  0  0  0  0  0
   -0.0000  -15.0000    0.0000 C   0  0  0  0  0  0  0  0  0  0  0  0
   -0.0000  -16.5000    0.0000 C   0  0  0  0  0  0  0  0  0  0  0  0
   -0.0000  -18.0000    0.0000 C   0  0  0  0  0  0  0  0  0  0  0  0
   -0.0000  -19.5000    0.0000 C   0  0  0  0  0  0  0  0  0  0  0  0
   -0.0000  -21.0000    0.0000 C   0  0  0  0  0  0  0  0  0  0  0  0
   -0.0000  -22.5000    0.0000 C   0  0  0  0  0  0  0  0  0  0  0  0
   -0.0000  -24.0000    0.0000 C   0  0  0  0  0  0  0  0  0  0  0  0
   -0.0000  -25.5000    0.0000 C   0  0  0  0  0  0  0  0  0  0  0  0
   -0.0000  -27.0000    0.0000 C   0  0  0  0  0  0  0  0  0  0  0  0
   -0.0000  -28.5000    0.0000 C   0  0  0  0  0  0  0  0  0  0  0  0
   -0.0000  -30.0000    0.0000 C   0  0  0  0  0  0  0  0  0  0  0  0
   -0.0000  -31.5000    0.0000 C   0  0  0  0  0  0  0  0  0  0  0  0
   -0.0000  -33.0000    0.0000 C   0  0  0  0  0  0  0  0  0  0  0  0
   -0.0000  -34.5000    0.0000 C   0  0  0  0  0  0  0  0  0  0  0  0
   -0.0000  -36.0000    0.0000 C   0  0  0  0  0  0  0  0  0  0  0  0
   -0.0000  -37.5000    0.0000 C   0  0  0  0  0  0  0  0  0  0  0  0
   -0.0000  -39.0000    0.0000 C   0  0  0  0  0  0  0  0  0  0  0  0
   -0.0000  -40.5000    0.0000 C   0  0  0  0  0  0  0  0  0  0  0  0
   -0.0000  -42.0000    0.0000 C   0  0  0  0  0  0  0  0  0  0  0  0
   -0.0000  -43.5000    0.0000 C   0  0  0  0  0  0  0  0  0  0  0  0
   -0.0000  -45.0000    0.0000 C   0  0  0  0  0  0  0  0  0  0  0  0
   -0.0000  -46.5000    0.0000 C   0  0  0  0  0  0  0  0  0  0  0  0
   -0.0000  -48.0000    0.0000 C   0  0  0  0  0  0  0  0  0  0  0  0
   -0.0000  -49.5000    0.0000 C   0  0  0  0  0  0  0  0  0  0  0  0
   -0.0000  -51.0000    0.0000 C   0  0  0  0  0  0  0  0  0  0  0  0
   -0.0000  -52.5000    0.0000 C   0  0  0  0  0  0  0  0  0  0  0  0
   -0.0000  -54.0000    0.0000 C   0  0  0  0  0  0  0  0  0  0  0  0
   -0.0000  -55.5000    0.0000 C   0  0  0  0  0  0  0  0  0  0  0  0
   -0.0000  -57.0000    0.0000 C   0  0  0  0  0  0  0  0  0  0  0  0
   -0.0000  -58.5000    0.0000 C   0  0  0  0  0  0  0  0  0  0  0  0
   -0.0000  -60.0000    0.0000 C   0  0  0  0  0  0  0  0  0  0  0  0
   -0.0000  -61.5000    0.0000 C   0  0  0  0  0  0  0  0  0  0  0  0
   -0.0000  -63.0000    0.0000 C   0  0  0  0  0  0  0  0  0  0  0  0
   -0.0000  -64.5000    0.0000 C   0  0  0  0  0  0  0  0  0  0  0  0
   -0.0000  -66.0000    0.0000 C   0  0  0  0  0  0  0  0  0  0  0  0
   -0.0000  -67.5000    0.0000 C   0  0  0  0  0  0  0  0  0  0  0  0
   -0.0000  -69.0000    0.0000 C   0  0  0  0  0  0  0  0  0  0  0  0
   -0.0000  -70.5000    0.0000 C   0  0  0  0  0  0  0  0  0  0  0  0
   -0.0000  -72.0000    0.0000 C   0  0  0  0  0  0  0  0  0  0  0  0
   -0.0000  -73.5000    0.0000 C   0  0  0  0  0  0  0  0  0  0  0  0
   -0.0000  -75.0000    0.0000 C   0  0  0  0  0  0  0  0  0  0  0  0
   -0.0000  -76.5000    0.0000 C   0  0  0  0  0  0  0  0  0  0  0  0
   -0.0000  -78.0000    0.0000 C   0  0  0  0  0  0  0  0  0  0  0  0
   -0.0000  -79.5000    0.0000 C   0  0  0  0  0  0  0  0  0  0  0  0
   -0.0000  -81.0000    0.0000 C   0  0  0  0  0  0  0  0  0  0  0  0
   -0.0000  -82.5000    0.0000 C   0  0  0  0  0  0  0  0  0  0  0  0
  1  2  3  0
  2  3  1  0
  3  4  3  0
  4  5  1  0
  5  6  3  0
  6  7  1  0
  7  8  3  0
  8  9  1  0
  9 10  3  0
 10 11  1  0
 11 12  3  0
 12 13  1  0
 13 14  3  0
 14 15  1  0
 15 16  3  0
 16 17  1  0
 17 18  3  0
 18 19  1  0
 19 20  3  0
 20 21  1  0
 21 22  3  0
 22 23  1  0
 23 24  3  0
 24 25  1  0
 25 26  3  0
 26 27  1  0
 27 28  3  0
 28 29  1  0
 29 30  3  0
 30 31  1  0
 31 32  3  0
 32 33  1  0
 33 34  3  0
 34 35  1  0
 35 36  3  0
 36 37  1  0
 37 38  3  0
 38 39  1  0
 39 40  3  0
 40 41  1  0
 41 42  3  0
 42 43  1  0
 43 44  3  0
 44 45  1  0
 45 46  3  0
 46 47  1  0
 47 48  3  0
 48 49  1  0
 49 50  3  0
 50 51  1  0
 51 52  3  0
 52 53  1  0
 53 54  3  0
 54 55  1  0
 55 56  3  0
M  END
>  <Title>  (357) 
idAALUgen13

$$$$

     RDKit          2D

 41 45  0  0  0  0  0  0  0  0999 V2000
   -9.1332   -4.7692    0.0000 C   0  0  0  0  0  0  0  0  0  0  0  0
   -8.1129   -3.6696    0.0000 C   0  0  0  0  0  0  0  0  0  0  0  0
   -6.6505   -4.0034    0.0000 C   0  0  0  0  0  0  0  0  0  0  0  0
   -5.6303   -2.9038    0.0000 C   0  0  0  0  0  0  0  0  0  0  0  0
   -4.1679   -3.2376    0.0000 C   0  0  0  0  0  0  0  0  0  0  0  0
   -3.7258   -4.6709    0.0000 O   0  0  0  0  0  0  0  0  0  0  0  0
   -3.1476   -2.1380    0.0000 N   0  0  0  0  0  0  0  0  0  0  0  0
   -1.6852   -2.4718    0.0000 C   0  0  0  0  0  0  0  0  0  0  0  0
   -1.3515   -3.9342    0.0000 C   0  0  0  0  0  0  0  0  0  0  0  0
   -0.0000   -4.5850    0.0000 C   0  0  0  0  0  0  0  0  0  0  0  0
    1.3515   -3.9342    0.0000 C   0  0  0  0  0  0  0  0  0  0  0  0
    1.6852   -2.4718    0.0000 C   0  0  0  0  0  0  0  0  0  0  0  0
    3.1476   -2.1380    0.0000 C   0  0  0  0  0  0  0  0  0  0  0  0
    3.5898   -0.7046    0.0000 O   0  0  0  0  0  0  0  0  0  0  0  0
    4.1679   -3.2376    0.0000 N   0  0  0  0  0  0  0  0  0  0  0  0
    5.6303   -2.9038    0.0000 C   0  0  0  0  0  0  0  0  0  0  0  0
    6.2198   -1.5245    0.0000 N   0  0  0  0  0  0  0  0  0  0  0  0
    7.7138   -1.6590    0.0000 N   0  0  0  0  0  0  0  0  0  0  0  0
    8.0476   -3.1214    0.0000 N   0  0  0  0  0  0  0  0  0  0  0  0
    6.7599   -3.8907    0.0000 N   0  0  0  0  0  0  0  0  0  0  0  0
    6.6254   -5.3847    0.0000 N   0  0  0  0  0  0  0  0  0  0  0  0
    7.7550   -6.3716    0.0000 C   0  0  0  0  0  0  0  0  0  0  0  0
    7.1655   -7.7509    0.0000 C   0  0  0  0  0  0  0  0  0  0  0  0
    5.6715   -7.6164    0.0000 N   0  0  0  0  0  0  0  0  0  0  0  0
    4.6846   -8.7460    0.0000 C   0  0  0  0  0  0  0  0  0  0  0  0
    5.1694  -10.1655    0.0000 O   0  0  0  0  0  0  0  0  0  0  0  0
    3.2129   -8.4561    0.0000 N   0  0  0  0  0  0  0  0  0  0  0  0
    2.2260   -9.5857    0.0000 C   0  0  0  0  0  0  0  0  0  0  0  0
    0.7543   -9.2959    0.0000 N   0  0  0  0  0  0  0  0  0  0  0  0
   -0.2326  -10.4255    0.0000 N   0  0  0  0  0  0  0  0  0  0  0  0
    0.2522  -11.8450    0.0000 N   0  0  0  0  0  0  0  0  0  0  0  0
    1.7239  -12.1348    0.0000 N   0  0  0  0  0  0  0  0  0  0  0  0
    2.7108  -11.0052    0.0000 N   0  0  0  0  0  0  0  0  0  0  0  0
    5.3378   -6.1540    0.0000 C   0  0  0  0  0  0  0  0  0  0  0  0
    3.9585   -5.5645    0.0000 O   0  0  0  0  0  0  0  0  0  0  0  0
    0.7500   -1.2990    0.0000 C   0  0  0  0  0  0  0  0  0  0  0  0
    1.5000    0.0000    0.0000 C   0  0  0  0  0  0  0  0  0  0  0  0
    0.7500    1.2990    0.0000 C   0  0  0  0  0  0  0  0  0  0  0  0
   -0.7500    1.2990    0.0000 C   0  0  0  0  0  0  0  0  0  0  0  0
   -1.5000    0.0000    0.0000 C   0  0  0  0  0  0  0  0  0  0  0  0
   -0.7500   -1.2990    0.0000 C   0  0  0  0  0  0  0  0  0  0  0  0
  1  2  2  0
  2  3  1  0
  3  4  1  0
  4  5  1  0
  5  6  2  0
  5  7  1  0
  7  8  1  0
  8  9  2  0
  9 10  1  0
 10 11  2  0
 11 12  1  0
 12 13  1  0
 13 14  2  0
 13 15  1  0
 15 16  1  0
 16 17  2  0
 17 18  1  0
 18 19  2  0
 19 20  1  0
 20 21  1  0
 21 22  1  0
 22 23  1  0
 23 24  1  0
 24 25  1  0
 25 26  2  0
 25 27  1  0
 27 28  1  0
 28 29  2  0
 29 30  1  0
 30 31  2  0
 31 32  1  0
 32 33  2  0
 24 34  1  0
 34 35  2  0
 12 36  1  0
 36 37  2  0
 37 38  1  0
 38 39  2  0
 39 40  1  0
 40 41  2  0
 41  8  1  0
 20 16  1  0
 34 21  1  0
 41 36  1  0
 33 28  1  0
M  END
>  <Title>  (358) 
idAALVgen13

$$$$

     RDKit          2D

 46 52  0  0  0  0  0  0  0  0999 V2000
    1.2135   -7.3421    0.0000 C   0  0  0  0  0  0  0  0  0  0  0  0
    0.7500   -5.9156    0.0000 C   0  0  0  0  0  0  0  0  0  0  0  0
    1.9635   -5.0339    0.0000 C   0  0  0  0  0  0  0  0  0  0  0  0
    2.4271   -3.6073    0.0000 C   0  0  0  0  0  0  0  0  0  0  0  0
    1.9635   -2.1807    0.0000 C   0  0  0  0  0  0  0  0  0  0  0  0
    3.1771   -1.2990    0.0000 C   0  0  0  0  0  0  0  0  0  0  0  0
    3.0203    0.1927    0.0000 O   0  0  0  0  0  0  0  0  0  0  0  0
    4.5474   -1.9091    0.0000 N   0  0  0  0  0  0  0  0  0  0  0  0
    5.7609   -1.0275    0.0000 C   0  0  0  0  0  0  0  0  0  0  0  0
    5.7609    0.4725    0.0000 N   0  0  0  0  0  0  0  0  0  0  0  0
    7.1875    0.9361    0.0000 N   0  0  0  0  0  0  0  0  0  0  0  0
    8.0692   -0.2775    0.0000 N   0  0  0  0  0  0  0  0  0  0  0  0
    7.1875   -1.4910    0.0000 N   0  0  0  0  0  0  0  0  0  0  0  0
    7.6510   -2.9176    0.0000 C   0  0  0  0  0  0  0  0  0  0  0  0
    9.0776   -3.3811    0.0000 C   0  0  0  0  0  0  0  0  0  0  0  0
    9.0776   -4.8811    0.0000 C   0  0  0  0  0  0  0  0  0  0  0  0
    7.6510   -5.3446    0.0000 C   0  0  0  0  0  0  0  0  0  0  0  0
    7.1875   -6.7712    0.0000 C   0  0  0  0  0  0  0  0  0  0  0  0
    8.1912   -7.8859    0.0000 O   0  0  0  0  0  0  0  0  0  0  0  0
    5.7203   -7.0831    0.0000 N   0  0  0  0  0  0  0  0  0  0  0  0
    5.2567   -8.5097    0.0000 C   0  0  0  0  0  0  0  0  0  0  0  0
    3.7895   -8.8215    0.0000 N   0  0  0  0  0  0  0  0  0  0  0  0
    3.3260  -10.2481    0.0000 N   0  0  0  0  0  0  0  0  0  0  0  0
    4.3297  -11.3628    0.0000 N   0  0  0  0  0  0  0  0  0  0  0  0
    5.7969  -11.0510    0.0000 N   0  0  0  0  0  0  0  0  0  0  0  0
    6.2604   -9.6244    0.0000 N   0  0  0  0  0  0  0  0  0  0  0  0
    6.7693   -4.1311    0.0000 C   0  0  0  0  0  0  0  0  0  0  0  0
    5.2693   -4.1311    0.0000 O   0  0  0  0  0  0  0  0  0  0  0  0
    0.7500   -1.2990    0.0000 C   0  0  0  0  0  0  0  0  0  0  0  0
    1.5000    0.0000    0.0000 C   0  0  0  0  0  0  0  0  0  0  0  0
    0.7500    1.2990    0.0000 C   0  0  0  0  0  0  0  0  0  0  0  0
   -0.7500    1.2990    0.0000 C   0  0  0  0  0  0  0  0  0  0  0  0
   -1.5000    0.0000    0.0000 C   0  0  0  0  0  0  0  0  0  0  0  0
   -0.7500   -1.2990    0.0000 C   0  0  0  0  0  0  0  0  0  0  0  0
   -1.9635   -2.1807    0.0000 C   0  0  0  0  0  0  0  0  0  0  0  0
   -2.9672   -1.0660    0.0000 C   0  0  0  0  0  0  0  0  0  0  0  0
   -4.4344   -1.3779    0.0000 C   0  0  0  0  0  0  0  0  0  0  0  0
   -4.8980   -2.8045    0.0000 C   0  0  0  0  0  0  0  0  0  0  0  0
   -3.8943   -3.9192    0.0000 C   0  0  0  0  0  0  0  0  0  0  0  0
   -2.4271   -3.6073    0.0000 C   0  0  0  0  0  0  0  0  0  0  0  0
   -1.9635   -5.0339    0.0000 C   0  0  0  0  0  0  0  0  0  0  0  0
   -3.3338   -5.6440    0.0000 C   0  0  0  0  0  0  0  0  0  0  0  0
   -3.4906   -7.1358    0.0000 C   0  0  0  0  0  0  0  0  0  0  0  0
   -2.2771   -8.0175    0.0000 C   0  0  0  0  0  0  0  0  0  0  0  0
   -0.9068   -7.4073    0.0000 C   0  0  0  0  0  0  0  0  0  0  0  0
   -0.7500   -5.9156    0.0000 C   0  0  0  0  0  0  0  0  0  0  0  0
  1  2  1  0
  2  3  1  0
  3  4  2  0
  4  5  1  0
  5  6  1  0
  6  7  2  0
  6  8  1  0
  8  9  1  0
  9 10  2  0
 10 11  1  0
 11 12  2  0
 12 13  1  0
 13 14  1  0
 14 15  2  0
 15 16  1  0
 16 17  2  0
 17 18  1  0
 18 19  2  0
 18 20  1  0
 20 21  1  0
 21 22  2  0
 22 23  1  0
 23 24  2  0
 24 25  1  0
 25 26  2  0
 17 27  1  0
 27 28  2  0
  5 29  1  0
 29 30  2  0
 30 31  1  0
 31 32  2  0
 32 33  1  0
 33 34  2  0
 34 35  1  0
 35 36  2  0
 36 37  1  0
 37 38  2  0
 38 39  1  0
 39 40  2  0
 40 41  1  0
 41 42  2  0
 42 43  1  0
 43 44  2  0
 44 45  1  0
 45 46  2  0
 46  2  1  0
 13  9  1  0
 27 14  1  0
 34 29  1  0
 40 35  1  0
 46 41  1  0
 26 21  1  0
M  END
>  <Title>  (359) 
idAALWgen13

$$$$

     RDKit          2D

  9  9  0  0  0  0  0  0  0  0999 V2000
    4.5000   -2.5981    0.0000 C   0  0  0  0  0  0  0  0  0  0  0  0
    3.7500   -1.2990    0.0000 C   0  0  0  0  0  0  0  0  0  0  0  0
    3.0000    0.0000    0.0000 C   0  0  0  0  0  0  0  0  0  0  0  0
    1.5000    0.0000    0.0000 C   0  0  0  0  0  0  0  0  0  0  0  0
    0.7500   -1.2990    0.0000 C   0  0  0  0  0  0  0  0  0  0  0  0
   -0.7500   -1.2990    0.0000 C   0  0  0  0  0  0  0  0  0  0  0  0
   -1.5000    0.0000    0.0000 C   0  0  0  0  0  0  0  0  0  0  0  0
   -0.7500    1.2990    0.0000 C   0  0  0  0  0  0  0  0  0  0  0  0
    0.7500    1.2990    0.0000 C   0  0  0  0  0  0  0  0  0  0  0  0
  1  2  3  0
  2  3  1  0
  3  4  1  0
  4  5  2  0
  5  6  1  0
  6  7  2  0
  7  8  1  0
  8  9  2  0
  9  4  1  0
M  END
>  <Title>  (360) 
idAALXgen13

$$$$

     RDKit          2D

 12 11  0  0  0  0  0  0  0  0999 V2000
    0.0000    0.0000    0.0000 C   0  0  0  0  0  0  0  0  0  0  0  0
    1.2990    0.7500    0.0000 C   0  0  0  0  0  0  0  0  0  0  0  0
    1.2990    2.2500    0.0000 F   0  0  0  0  0  0  0  0  0  0  0  0
    2.5981   -0.0000    0.0000 N   0  0  0  0  0  0  0  0  0  0  0  0
    3.8971    0.7500    0.0000 C   0  0  0  0  0  0  0  0  0  0  0  0
    3.8971    2.2500    0.0000 O   0  0  0  0  0  0  0  0  0  0  0  0
    5.1962   -0.0000    0.0000 N   0  0  0  0  0  0  0  0  0  0  0  0
    6.4952    0.7500    0.0000 C   0  0  0  0  0  0  0  0  0  0  0  0
    7.7942   -0.0000    0.0000 C   0  0  0  0  0  0  0  0  0  0  0  0
    6.4952    2.2500    0.0000 C   0  0  0  0  0  0  0  0  0  0  0  0
    5.1962    3.0000    0.0000 O   0  0  0  0  0  0  0  0  0  0  0  0
    7.7942    3.0000    0.0000 O   0  0  0  0  0  0  0  0  0  0  0  0
  1  2  1  0
  2  3  1  0
  2  4  1  0
  4  5  1  0
  5  6  2  0
  5  7  1  0
  7  8  1  0
  8  9  1  0
  8 10  1  0
 10 11  2  0
 10 12  1  0
M  END
>  <Title>  (361) 
idAALYgen13

$$$$

     RDKit          2D

 72 74  0  0  0  0  0  0  0  0999 V2000
   -2.9036    5.3270    0.0000 C   0  0  0  0  0  0  0  0  0  0  0  0
   -1.5715    6.0165    0.0000 C   0  0  0  0  0  0  0  0  0  0  0  0
   -2.1879    7.3840    0.0000 C   0  0  0  0  0  0  0  0  0  0  0  0
   -2.6528    8.8101    0.0000 C   0  0  0  0  0  0  0  0  0  0  0  0
   -2.9608   10.2782    0.0000 C   0  0  0  0  0  0  0  0  0  0  0  0
   -3.1083   11.7709    0.0000 C   0  0  0  0  0  0  0  0  0  0  0  0
   -3.0935   13.2708    0.0000 C   0  0  0  0  0  0  0  0  0  0  0  0
   -2.9167   14.7603    0.0000 C   0  0  0  0  0  0  0  0  0  0  0  0
   -2.5798   16.2220    0.0000 C   0  0  0  0  0  0  0  0  0  0  0  0
   -2.0869   17.6387    0.0000 C   0  0  0  0  0  0  0  0  0  0  0  0
   -1.4437   18.9938    0.0000 C   0  0  0  0  0  0  0  0  0  0  0  0
   -0.6577   20.2714    0.0000 C   0  0  0  0  0  0  0  0  0  0  0  0
    0.2617   21.4566    0.0000 C   0  0  0  0  0  0  0  0  0  0  0  0
    1.3040   22.5354    0.0000 C   0  0  0  0  0  0  0  0  0  0  0  0
    2.4567   23.4951    0.0000 C   0  0  0  0  0  0  0  0  0  0  0  0
    3.7065   24.3246    0.0000 C   0  0  0  0  0  0  0  0  0  0  0  0
    5.0386   25.0142    0.0000 C   0  0  0  0  0  0  0  0  0  0  0  0
    6.4375   25.5556    0.0000 C   0  0  0  0  0  0  0  0  0  0  0  0
    7.8867   25.9427    0.0000 C   0  0  0  0  0  0  0  0  0  0  0  0
    9.3692   26.1707    0.0000 C   0  0  0  0  0  0  0  0  0  0  0  0
   10.8678   26.2372    0.0000 C   0  0  0  0  0  0  0  0  0  0  0  0
   12.3647   26.1412    0.0000 C   0  0  0  0  0  0  0  0  0  0  0  0
   13.8425   25.8840    0.0000 C   0  0  0  0  0  0  0  0  0  0  0  0
   15.2838   25.4685    0.0000 C   0  0  0  0  0  0  0  0  0  0  0  0
   16.6717   24.8996    0.0000 C   0  0  0  0  0  0  0  0  0  0  0  0
   17.9900   24.1840    0.0000 C   0  0  0  0  0  0  0  0  0  0  0  0
   19.2232   23.3300    0.0000 C   0  0  0  0  0  0  0  0  0  0  0  0
   20.3568   22.3477    0.0000 C   0  0  0  0  0  0  0  0  0  0  0  0
   21.3776   21.2486    0.0000 C   0  0  0  0  0  0  0  0  0  0  0  0
   22.2735   20.0456    0.0000 C   0  0  0  0  0  0  0  0  0  0  0  0
   23.0342   18.7528    0.0000 C   0  0  0  0  0  0  0  0  0  0  0  0
   23.6506   17.3853    0.0000 C   0  0  0  0  0  0  0  0  0  0  0  0
   24.1155   15.9591    0.0000 C   0  0  0  0  0  0  0  0  0  0  0  0
   24.4235   14.4911    0.0000 C   0  0  0  0  0  0  0  0  0  0  0  0
   24.5710   12.9984    0.0000 C   0  0  0  0  0  0  0  0  0  0  0  0
   24.5562   11.4984    0.0000 C   0  0  0  0  0  0  0  0  0  0  0  0
   24.3794   10.0089    0.0000 C   0  0  0  0  0  0  0  0  0  0  0  0
   24.0425    8.5472    0.0000 C   0  0  0  0  0  0  0  0  0  0  0  0
   23.5496    7.1305    0.0000 C   0  0  0  0  0  0  0  0  0  0  0  0
   22.9064    5.7754    0.0000 C   0  0  0  0  0  0  0  0  0  0  0  0
   22.1204    4.4978    0.0000 C   0  0  0  0  0  0  0  0  0  0  0  0
   21.2009    3.3127    0.0000 C   0  0  0  0  0  0  0  0  0  0  0  0
   20.1587    2.2339    0.0000 C   0  0  0  0  0  0  0  0  0  0  0  0
   19.0060    1.2741    0.0000 C   0  0  0  0  0  0  0  0  0  0  0  0
   17.7562    0.4446    0.0000 C   0  0  0  0  0  0  0  0  0  0  0  0
   16.4241   -0.2449    0.0000 C   0  0  0  0  0  0  0  0  0  0  0  0
   15.0252   -0.7864    0.0000 C   0  0  0  0  0  0  0  0  0  0  0  0
   13.5760   -1.1734    0.0000 C   0  0  0  0  0  0  0  0  0  0  0  0
   12.0934   -1.4015    0.0000 C   0  0  0  0  0  0  0  0  0  0  0  0
   10.5949   -1.4680    0.0000 C   0  0  0  0  0  0  0  0  0  0  0  0
    9.0980   -1.3720    0.0000 C   0  0  0  0  0  0  0  0  0  0  0  0
    7.6202   -1.1148    0.0000 C   0  0  0  0  0  0  0  0  0  0  0  0
    6.1789   -0.6993    0.0000 C   0  0  0  0  0  0  0  0  0  0  0  0
    4.7910   -0.1304    0.0000 C   0  0  0  0  0  0  0  0  0  0  0  0
    3.4727    0.5853    0.0000 C   0  0  0  0  0  0  0  0  0  0  0  0
    2.2395    1.4392    0.0000 C   0  0  0  0  0  0  0  0  0  0  0  0
    2.6621    0.0000    0.0000 C   0  0  0  0  0  0  0  0  0  0  0  0
    2.2395   -1.4392    0.0000 C   0  0  0  0  0  0  0  0  0  0  0  0
    1.1059   -2.4215    0.0000 C   0  0  0  0  0  0  0  0  0  0  0  0
   -0.3789   -2.6350    0.0000 C   0  0  0  0  0  0  0  0  0  0  0  0
   -1.7433   -2.0119    0.0000 C   0  0  0  0  0  0  0  0  0  0  0  0
   -2.5543   -0.7500    0.0000 C   0  0  0  0  0  0  0  0  0  0  0  0
   -2.5543    0.7500    0.0000 C   0  0  0  0  0  0  0  0  0  0  0  0
   -1.7433    2.0119    0.0000 C   0  0  0  0  0  0  0  0  0  0  0  0
   -0.3789    2.6350    0.0000 C   0  0  0  0  0  0  0  0  0  0  0  0
    1.1059    2.4215    0.0000 C   0  0  0  0  0  0  0  0  0  0  0  0
    0.0851    3.5206    0.0000 C   0  0  0  0  0  0  0  0  0  0  0  0
    1.5749    3.6950    0.0000 C   0  0  0  0  0  0  0  0  0  0  0  0
    2.1688    5.0725    0.0000 C   0  0  0  0  0  0  0  0  0  0  0  0
    1.2728    6.2755    0.0000 C   0  0  0  0  0  0  0  0  0  0  0  0
   -0.2170    6.1011    0.0000 C   0  0  0  0  0  0  0  0  0  0  0  0
   -0.8109    4.7237    0.0000 C   0  0  0  0  0  0  0  0  0  0  0  0
  1  2  1  0
  2  3  1  0
  3  4  1  0
  4  5  1  0
  5  6  1  0
  6  7  1  0
  7  8  1  0
  8  9  1  0
  9 10  1  0
 10 11  1  0
 11 12  1  0
 12 13  1  0
 13 14  1  0
 14 15  1  0
 15 16  1  0
 16 17  1  0
 17 18  1  0
 18 19  1  0
 19 20  1  0
 20 21  1  0
 21 22  1  0
 22 23  1  0
 23 24  1  0
 24 25  1  0
 25 26  1  0
 26 27  1  0
 27 28  1  0
 28 29  1  0
 29 30  1  0
 30 31  1  0
 31 32  1  0
 32 33  1  0
 33 34  1  0
 34 35  1  0
 35 36  1  0
 36 37  1  0
 37 38  1  0
 38 39  1  0
 39 40  1  0
 40 41  1  0
 41 42  1  0
 42 43  1  0
 43 44  1  0
 44 45  1  0
 45 46  1  0
 46 47  1  0
 47 48  1  0
 48 49  1  0
 49 50  1  0
 50 51  1  0
 51 52  1  0
 52 53  1  0
 53 54  1  0
 54 55  1  0
 55 56  1  0
 56 57  1  0
 57 58  1  0
 58 59  1  0
 59 60  2  0
 60 61  1  0
 61 62  2  0
 62 63  1  0
 63 64  2  0
 64 65  1  0
 65 66  2  0
 66 67  1  0
 67 68  2  0
 68 69  1  0
 69 70  2  0
 70 71  1  0
 71 72  2  0
 72  2  1  0
 66 56  1  0
 72 67  1  0
M  END
>  <Title>  (362) 
idAALZgen13

$$$$

     RDKit          2D

  4  3  0  0  0  0  0  0  0  0999 V2000
    0.0000    0.0000    0.0000 C   0  0  0  0  0  0  0  0  0  0  0  0
   -0.0000   -1.5000    0.0000 C   0  0  0  0  0  0  0  0  0  0  0  0
   -0.0000   -3.0000    0.0000 C   0  0  0  0  0  0  0  0  0  0  0  0
    1.2990   -3.7500    0.0000 C   0  0  0  0  0  0  0  0  0  0  0  0
  1  2  3  0
  2  3  1  0
  3  4  2  0
M  END
>  <Title>  (363) 
idAAMAgen13

$$$$

     RDKit          2D

 78 79  0  0  0  0  0  0  0  0999 V2000
   -2.2145   -1.0648    0.0000 C   0  0  0  0  0  0  0  0  0  0  0  0
   -2.4930    0.4091    0.0000 C   0  0  0  0  0  0  0  0  0  0  0  0
   -3.9774    0.1934    0.0000 C   0  0  0  0  0  0  0  0  0  0  0  0
   -5.4748    0.1043    0.0000 C   0  0  0  0  0  0  0  0  0  0  0  0
   -6.9743    0.1425    0.0000 C   0  0  0  0  0  0  0  0  0  0  0  0
   -8.4652    0.3077    0.0000 C   0  0  0  0  0  0  0  0  0  0  0  0
   -9.9367    0.5988    0.0000 C   0  0  0  0  0  0  0  0  0  0  0  0
  -11.3782    1.0136    0.0000 C   0  0  0  0  0  0  0  0  0  0  0  0
  -12.7793    1.5492    0.0000 C   0  0  0  0  0  0  0  0  0  0  0  0
  -14.1300    2.2016    0.0000 C   0  0  0  0  0  0  0  0  0  0  0  0
  -15.4204    2.9663    0.0000 C   0  0  0  0  0  0  0  0  0  0  0  0
  -16.6414    3.8376    0.0000 C   0  0  0  0  0  0  0  0  0  0  0  0
  -17.7841    4.8094    0.0000 C   0  0  0  0  0  0  0  0  0  0  0  0
  -18.8402    5.8745    0.0000 C   0  0  0  0  0  0  0  0  0  0  0  0
  -19.8022    7.0254    0.0000 C   0  0  0  0  0  0  0  0  0  0  0  0
  -20.6632    8.2537    0.0000 C   0  0  0  0  0  0  0  0  0  0  0  0
  -21.4168    9.5506    0.0000 C   0  0  0  0  0  0  0  0  0  0  0  0
  -22.0578   10.9068    0.0000 C   0  0  0  0  0  0  0  0  0  0  0  0
  -22.5815   12.3124    0.0000 C   0  0  0  0  0  0  0  0  0  0  0  0
  -22.9840   13.7574    0.0000 C   0  0  0  0  0  0  0  0  0  0  0  0
  -23.2626   15.2313    0.0000 C   0  0  0  0  0  0  0  0  0  0  0  0
  -23.4152   16.7235    0.0000 C   0  0  0  0  0  0  0  0  0  0  0  0
  -23.4406   18.2233    0.0000 C   0  0  0  0  0  0  0  0  0  0  0  0
  -23.3388   19.7198    0.0000 C   0  0  0  0  0  0  0  0  0  0  0  0
  -23.1105   21.2024    0.0000 C   0  0  0  0  0  0  0  0  0  0  0  0
  -22.7572   22.6602    0.0000 C   0  0  0  0  0  0  0  0  0  0  0  0
  -22.2816   24.0828    0.0000 C   0  0  0  0  0  0  0  0  0  0  0  0
  -21.6870   25.4599    0.0000 C   0  0  0  0  0  0  0  0  0  0  0  0
  -20.9778   26.7817    0.0000 C   0  0  0  0  0  0  0  0  0  0  0  0
  -20.1591   28.0385    0.0000 C   0  0  0  0  0  0  0  0  0  0  0  0
  -19.2367   29.2214    0.0000 C   0  0  0  0  0  0  0  0  0  0  0  0
  -18.2174   30.3218    0.0000 C   0  0  0  0  0  0  0  0  0  0  0  0
  -17.1083   31.3318    0.0000 C   0  0  0  0  0  0  0  0  0  0  0  0
  -15.9177   32.2441    0.0000 C   0  0  0  0  0  0  0  0  0  0  0  0
  -14.6539   33.0521    0.0000 C   0  0  0  0  0  0  0  0  0  0  0  0
  -13.3262   33.7501    0.0000 C   0  0  0  0  0  0  0  0  0  0  0  0
  -11.9440   34.3329    0.0000 C   0  0  0  0  0  0  0  0  0  0  0  0
  -10.5175   34.7964    0.0000 C   0  0  0  0  0  0  0  0  0  0  0  0
   -9.0567   35.1373    0.0000 C   0  0  0  0  0  0  0  0  0  0  0  0
   -7.5723   35.3531    0.0000 C   0  0  0  0  0  0  0  0  0  0  0  0
   -6.0749   35.4422    0.0000 C   0  0  0  0  0  0  0  0  0  0  0  0
   -4.5754   35.4040    0.0000 C   0  0  0  0  0  0  0  0  0  0  0  0
   -3.0846   35.2387    0.0000 C   0  0  0  0  0  0  0  0  0  0  0  0
   -1.6131   34.9477    0.0000 C   0  0  0  0  0  0  0  0  0  0  0  0
   -0.1716   34.5329    0.0000 C   0  0  0  0  0  0  0  0  0  0  0  0
    1.2296   33.9973    0.0000 C   0  0  0  0  0  0  0  0  0  0  0  0
    2.5802   33.3448    0.0000 C   0  0  0  0  0  0  0  0  0  0  0  0
    3.8707   32.5802    0.0000 C   0  0  0  0  0  0  0  0  0  0  0  0
    5.0917   31.7088    0.0000 C   0  0  0  0  0  0  0  0  0  0  0  0
    6.2343   30.7371    0.0000 C   0  0  0  0  0  0  0  0  0  0  0  0
    7.2905   29.6719    0.0000 C   0  0  0  0  0  0  0  0  0  0  0  0
    8.2525   28.5210    0.0000 C   0  0  0  0  0  0  0  0  0  0  0  0
    9.1134   27.2927    0.0000 C   0  0  0  0  0  0  0  0  0  0  0  0
    9.8671   25.9958    0.0000 C   0  0  0  0  0  0  0  0  0  0  0  0
   10.5081   24.6396    0.0000 C   0  0  0  0  0  0  0  0  0  0  0  0
   11.0317   23.2340    0.0000 C   0  0  0  0  0  0  0  0  0  0  0  0
   11.4343   21.7890    0.0000 C   0  0  0  0  0  0  0  0  0  0  0  0
   11.7129   20.3151    0.0000 C   0  0  0  0  0  0  0  0  0  0  0  0
   11.8654   18.8229    0.0000 C   0  0  0  0  0  0  0  0  0  0  0  0
   11.8909   17.3231    0.0000 C   0  0  0  0  0  0  0  0  0  0  0  0
   11.7891   15.8266    0.0000 C   0  0  0  0  0  0  0  0  0  0  0  0
   11.5607   14.3441    0.0000 C   0  0  0  0  0  0  0  0  0  0  0  0
   11.2075   12.8863    0.0000 C   0  0  0  0  0  0  0  0  0  0  0  0
   10.7318   11.4637    0.0000 C   0  0  0  0  0  0  0  0  0  0  0  0
   10.1373   10.0865    0.0000 C   0  0  0  0  0  0  0  0  0  0  0  0
    9.4281    8.7648    0.0000 C   0  0  0  0  0  0  0  0  0  0  0  0
    8.6094    7.5079    0.0000 C   0  0  0  0  0  0  0  0  0  0  0  0
    7.6870    6.3250    0.0000 C   0  0  0  0  0  0  0  0  0  0  0  0
    6.6676    5.2246    0.0000 C   0  0  0  0  0  0  0  0  0  0  0  0
    5.5586    4.2147    0.0000 C   0  0  0  0  0  0  0  0  0  0  0  0
    4.3679    3.3024    0.0000 C   0  0  0  0  0  0  0  0  0  0  0  0
    3.1042    2.4943    0.0000 C   0  0  0  0  0  0  0  0  0  0  0  0
    1.7764    1.7964    0.0000 C   0  0  0  0  0  0  0  0  0  0  0  0
    0.3943    1.2135    0.0000 C   0  0  0  0  0  0  0  0  0  0  0  0
    1.2760    0.0000    0.0000 C   0  0  0  0  0  0  0  0  0  0  0  0
    0.3943   -1.2135    0.0000 C   0  0  0  0  0  0  0  0  0  0  0  0
   -1.0323   -0.7500    0.0000 C   0  0  0  0  0  0  0  0  0  0  0  0
   -1.0323    0.7500    0.0000 C   0  0  0  0  0  0  0  0  0  0  0  0
  1  2  1  0
  2  3  1  0
  3  4  1  0
  4  5  1  0
  5  6  1  0
  6  7  1  0
  7  8  1  0
  8  9  1  0
  9 10  1  0
 10 11  1  0
 11 12  1  0
 12 13  1  0
 13 14  1  0
 14 15  1  0
 15 16  1  0
 16 17  1  0
 17 18  1  0
 18 19  1  0
 19 20  1  0
 20 21  1  0
 21 22  1  0
 22 23  1  0
 23 24  1  0
 24 25  1  0
 25 26  1  0
 26 27  1  0
 27 28  1  0
 28 29  1  0
 29 30  1  0
 30 31  1  0
 31 32  1  0
 32 33  1  0
 33 34  1  0
 34 35  1  0
 35 36  1  0
 36 37  1  0
 37 38  1  0
 38 39  1  0
 39 40  1  0
 40 41  1  0
 41 42  2  0
 42 43  1  0
 43 44  2  0
 44 45  1  0
 45 46  2  0
 46 47  1  0
 47 48  2  0
 48 49  1  0
 49 50  2  0
 50 51  1  0
 51 52  2  0
 52 53  1  0
 53 54  2  0
 54 55  1  0
 55 56  2  0
 56 57  1  0
 57 58  2  0
 58 59  1  0
 59 60  2  0
 60 61  1  0
 61 62  2  0
 62 63  1  0
 63 64  2  0
 64 65  1  0
 65 66  2  0
 66 67  1  0
 67 68  2  0
 68 69  1  0
 69 70  2  0
 70 71  1  0
 71 72  2  0
 72 73  1  0
 73 74  2  0
 74 75  1  0
 75 76  2  0
 76 77  1  0
 77 78  2  0
 78  2  1  0
 78 74  1  0
M  END
>  <Title>  (364) 
idAAMBgen13

$$$$

     RDKit          2D

 83 85  0  0  0  0  0  0  0  0999 V2000
   -5.6139   -0.6235    0.0000 C   0  0  0  0  0  0  0  0  0  0  0  0
   -5.1746   -2.0577    0.0000 C   0  0  0  0  0  0  0  0  0  0  0  0
   -6.5889   -2.5574    0.0000 C   0  0  0  0  0  0  0  0  0  0  0  0
   -7.9558   -3.1753    0.0000 C   0  0  0  0  0  0  0  0  0  0  0  0
   -9.2653   -3.9068    0.0000 C   0  0  0  0  0  0  0  0  0  0  0  0
  -10.5081   -4.7468    0.0000 C   0  0  0  0  0  0  0  0  0  0  0  0
  -11.6751   -5.6891    0.0000 C   0  0  0  0  0  0  0  0  0  0  0  0
  -12.7581   -6.7270    0.0000 C   0  0  0  0  0  0  0  0  0  0  0  0
  -13.7491   -7.8530    0.0000 C   0  0  0  0  0  0  0  0  0  0  0  0
  -14.6410   -9.0590    0.0000 C   0  0  0  0  0  0  0  0  0  0  0  0
  -15.4275  -10.3363    0.0000 C   0  0  0  0  0  0  0  0  0  0  0  0
  -16.1028  -11.6757    0.0000 C   0  0  0  0  0  0  0  0  0  0  0  0
  -16.6621  -13.0675    0.0000 C   0  0  0  0  0  0  0  0  0  0  0  0
  -17.1013  -14.5018    0.0000 C   0  0  0  0  0  0  0  0  0  0  0  0
  -17.4173  -15.9681    0.0000 C   0  0  0  0  0  0  0  0  0  0  0  0
  -17.6078  -17.4560    0.0000 C   0  0  0  0  0  0  0  0  0  0  0  0
  -17.6715  -18.9546    0.0000 C   0  0  0  0  0  0  0  0  0  0  0  0
  -17.6078  -20.4533    0.0000 C   0  0  0  0  0  0  0  0  0  0  0  0
  -17.4173  -21.9411    0.0000 C   0  0  0  0  0  0  0  0  0  0  0  0
  -17.1013  -23.4075    0.0000 C   0  0  0  0  0  0  0  0  0  0  0  0
  -16.6621  -24.8417    0.0000 C   0  0  0  0  0  0  0  0  0  0  0  0
  -16.1028  -26.2335    0.0000 C   0  0  0  0  0  0  0  0  0  0  0  0
  -15.4275  -27.5729    0.0000 C   0  0  0  0  0  0  0  0  0  0  0  0
  -14.6410  -28.8502    0.0000 C   0  0  0  0  0  0  0  0  0  0  0  0
  -13.7491  -30.0562    0.0000 C   0  0  0  0  0  0  0  0  0  0  0  0
  -12.7581  -31.1822    0.0000 C   0  0  0  0  0  0  0  0  0  0  0  0
  -11.6751  -32.2201    0.0000 C   0  0  0  0  0  0  0  0  0  0  0  0
  -10.5081  -33.1625    0.0000 C   0  0  0  0  0  0  0  0  0  0  0  0
   -9.2653  -34.0024    0.0000 C   0  0  0  0  0  0  0  0  0  0  0  0
   -7.9558  -34.7340    0.0000 C   0  0  0  0  0  0  0  0  0  0  0  0
   -6.5889  -35.3518    0.0000 C   0  0  0  0  0  0  0  0  0  0  0  0
   -5.1746  -35.8515    0.0000 C   0  0  0  0  0  0  0  0  0  0  0  0
   -3.7230  -36.2295    0.0000 C   0  0  0  0  0  0  0  0  0  0  0  0
   -2.2446  -36.4830    0.0000 C   0  0  0  0  0  0  0  0  0  0  0  0
   -0.7500  -36.6102    0.0000 C   0  0  0  0  0  0  0  0  0  0  0  0
    0.7500  -36.6102    0.0000 C   0  0  0  0  0  0  0  0  0  0  0  0
    2.2446  -36.4830    0.0000 C   0  0  0  0  0  0  0  0  0  0  0  0
    3.7230  -36.2295    0.0000 C   0  0  0  0  0  0  0  0  0  0  0  0
    5.1746  -35.8515    0.0000 C   0  0  0  0  0  0  0  0  0  0  0  0
    6.5889  -35.3518    0.0000 C   0  0  0  0  0  0  0  0  0  0  0  0
    7.9558  -34.7340    0.0000 C   0  0  0  0  0  0  0  0  0  0  0  0
    9.2653  -34.0024    0.0000 C   0  0  0  0  0  0  0  0  0  0  0  0
   10.5081  -33.1625    0.0000 C   0  0  0  0  0  0  0  0  0  0  0  0
   11.6751  -32.2201    0.0000 C   0  0  0  0  0  0  0  0  0  0  0  0
   12.7581  -31.1822    0.0000 C   0  0  0  0  0  0  0  0  0  0  0  0
   13.7491  -30.0562    0.0000 C   0  0  0  0  0  0  0  0  0  0  0  0
   14.6410  -28.8502    0.0000 C   0  0  0  0  0  0  0  0  0  0  0  0
   15.4275  -27.5729    0.0000 C   0  0  0  0  0  0  0  0  0  0  0  0
   16.1028  -26.2335    0.0000 C   0  0  0  0  0  0  0  0  0  0  0  0
   16.6621  -24.8417    0.0000 C   0  0  0  0  0  0  0  0  0  0  0  0
   17.1013  -23.4075    0.0000 C   0  0  0  0  0  0  0  0  0  0  0  0
   17.4173  -21.9411    0.0000 C   0  0  0  0  0  0  0  0  0  0  0  0
   17.6078  -20.4533    0.0000 C   0  0  0  0  0  0  0  0  0  0  0  0
   17.6715  -18.9546    0.0000 C   0  0  0  0  0  0  0  0  0  0  0  0
   17.6078  -17.4560    0.0000 C   0  0  0  0  0  0  0  0  0  0  0  0
   17.4173  -15.9681    0.0000 C   0  0  0  0  0  0  0  0  0  0  0  0
   17.1013  -14.5018    0.0000 C   0  0  0  0  0  0  0  0  0  0  0  0
   16.6621  -13.0675    0.0000 C   0  0  0  0  0  0  0  0  0  0  0  0
   16.1028  -11.6757    0.0000 C   0  0  0  0  0  0  0  0  0  0  0  0
   15.4275  -10.3363    0.0000 C   0  0  0  0  0  0  0  0  0  0  0  0
   14.6410   -9.0590    0.0000 C   0  0  0  0  0  0  0  0  0  0  0  0
   13.7491   -7.8530    0.0000 C   0  0  0  0  0  0  0  0  0  0  0  0
   12.7581   -6.7270    0.0000 C   0  0  0  0  0  0  0  0  0  0  0  0
   11.6751   -5.6891    0.0000 C   0  0  0  0  0  0  0  0  0  0  0  0
   10.5081   -4.7468    0.0000 C   0  0  0  0  0  0  0  0  0  0  0  0
    9.2653   -3.9068    0.0000 C   0  0  0  0  0  0  0  0  0  0  0  0
    7.9558   -3.1753    0.0000 C   0  0  0  0  0  0  0  0  0  0  0  0
    6.5889   -2.5574    0.0000 C   0  0  0  0  0  0  0  0  0  0  0  0
    5.1746   -2.0577    0.0000 C   0  0  0  0  0  0  0  0  0  0  0  0
    3.7230   -1.6797    0.0000 C   0  0  0  0  0  0  0  0  0  0  0  0
    2.2446   -1.4262    0.0000 C   0  0  0  0  0  0  0  0  0  0  0  0
    0.7500   -1.2990    0.0000 C   0  0  0  0  0  0  0  0  0  0  0  0
    1.5000    0.0000    0.0000 C   0  0  0  0  0  0  0  0  0  0  0  0
    0.7500    1.2990    0.0000 C   0  0  0  0  0  0  0  0  0  0  0  0
   -0.7500    1.2990    0.0000 C   0  0  0  0  0  0  0  0  0  0  0  0
   -1.5000    0.0000    0.0000 C   0  0  0  0  0  0  0  0  0  0  0  0
   -0.7500   -1.2990    0.0000 C   0  0  0  0  0  0  0  0  0  0  0  0
   -2.2446   -1.4262    0.0000 C   0  0  0  0  0  0  0  0  0  0  0  0
   -1.2858   -2.5798    0.0000 C   0  0  0  0  0  0  0  0  0  0  0  0
   -1.8055   -3.9870    0.0000 C   0  0  0  0  0  0  0  0  0  0  0  0
   -3.2839   -4.2405    0.0000 C   0  0  0  0  0  0  0  0  0  0  0  0
   -4.2427   -3.0869    0.0000 C   0  0  0  0  0  0  0  0  0  0  0  0
   -3.7230   -1.6797    0.0000 C   0  0  0  0  0  0  0  0  0  0  0  0
  1  2  1  0
  2  3  1  0
  3  4  1  0
  4  5  1  0
  5  6  1  0
  6  7  1  0
  7  8  1  0
  8  9  1  0
  9 10  1  0
 10 11  1  0
 11 12  1  0
 12 13  1  0
 13 14  1  0
 14 15  1  0
 15 16  1  0
 16 17  1  0
 17 18  1  0
 18 19  1  0
 19 20  1  0
 20 21  1  0
 21 22  1  0
 22 23  1  0
 23 24  1  0
 24 25  1  0
 25 26  1  0
 26 27  1  0
 27 28  1  0
 28 29  1  0
 29 30  1  0
 30 31  1  0
 31 32  1  0
 32 33  1  0
 33 34  1  0
 34 35  1  0
 35 36  1  0
 36 37  1  0
 37 38  1  0
 38 39  1  0
 39 40  1  0
 40 41  1  0
 41 42  1  0
 42 43  1  0
 43 44  1  0
 44 45  1  0
 45 46  1  0
 46 47  1  0
 47 48  1  0
 48 49  1  0
 49 50  1  0
 50 51  1  0
 51 52  1  0
 52 53  1  0
 53 54  1  0
 54 55  1  0
 55 56  1  0
 56 57  1  0
 57 58  1  0
 58 59  1  0
 59 60  1  0
 60 61  1  0
 61 62  1  0
 62 63  1  0
 63 64  1  0
 64 65  1  0
 65 66  1  0
 66 67  1  0
 67 68  1  0
 68 69  1  0
 69 70  1  0
 70 71  1  0
 71 72  1  0
 72 73  1  0
 73 74  1  0
 74 75  2  0
 75 76  1  0
 76 77  2  0
 77 78  1  0
 78 79  2  0
 79 80  1  0
 80 81  2  0
 81 82  1  0
 82 83  2  0
 83  2  1  0
 77 72  1  0
 83 78  1  0
M  END
>  <Title>  (365) 
idAAMCgen13

$$$$

     RDKit          2D

 35 39  0  0  0  0  0  0  0  0999 V2000
   -3.1476   -2.1380    0.0000 C   0  0  0  0  0  0  0  0  0  0  0  0
   -1.6852   -2.4718    0.0000 C   0  0  0  0  0  0  0  0  0  0  0  0
   -1.3515   -3.9342    0.0000 C   0  0  0  0  0  0  0  0  0  0  0  0
   -0.0000   -4.5850    0.0000 C   0  0  0  0  0  0  0  0  0  0  0  0
    1.3515   -3.9342    0.0000 C   0  0  0  0  0  0  0  0  0  0  0  0
    1.6852   -2.4718    0.0000 C   0  0  0  0  0  0  0  0  0  0  0  0
    3.1476   -2.1380    0.0000 C   0  0  0  0  0  0  0  0  0  0  0  0
    3.5898   -0.7046    0.0000 O   0  0  0  0  0  0  0  0  0  0  0  0
    4.1679   -3.2376    0.0000 N   0  0  0  0  0  0  0  0  0  0  0  0
    5.6303   -2.9038    0.0000 C   0  0  0  0  0  0  0  0  0  0  0  0
    6.2198   -1.5245    0.0000 N   0  0  0  0  0  0  0  0  0  0  0  0
    7.7138   -1.6590    0.0000 N   0  0  0  0  0  0  0  0  0  0  0  0
    8.0476   -3.1214    0.0000 N   0  0  0  0  0  0  0  0  0  0  0  0
    6.7599   -3.8907    0.0000 N   0  0  0  0  0  0  0  0  0  0  0  0
    6.6254   -5.3847    0.0000 N   0  0  0  0  0  0  0  0  0  0  0  0
    7.7550   -6.3716    0.0000 C   0  0  0  0  0  0  0  0  0  0  0  0
    7.1655   -7.7509    0.0000 C   0  0  0  0  0  0  0  0  0  0  0  0
    5.6715   -7.6164    0.0000 N   0  0  0  0  0  0  0  0  0  0  0  0
    4.6846   -8.7460    0.0000 C   0  0  0  0  0  0  0  0  0  0  0  0
    5.1694  -10.1655    0.0000 O   0  0  0  0  0  0  0  0  0  0  0  0
    3.2129   -8.4561    0.0000 N   0  0  0  0  0  0  0  0  0  0  0  0
    2.2260   -9.5857    0.0000 C   0  0  0  0  0  0  0  0  0  0  0  0
    0.7543   -9.2959    0.0000 N   0  0  0  0  0  0  0  0  0  0  0  0
   -0.2326  -10.4255    0.0000 N   0  0  0  0  0  0  0  0  0  0  0  0
    0.2522  -11.8450    0.0000 N   0  0  0  0  0  0  0  0  0  0  0  0
    1.7239  -12.1348    0.0000 N   0  0  0  0  0  0  0  0  0  0  0  0
    2.7108  -11.0052    0.0000 N   0  0  0  0  0  0  0  0  0  0  0  0
    5.3378   -6.1540    0.0000 C   0  0  0  0  0  0  0  0  0  0  0  0
    3.9585   -5.5645    0.0000 O   0  0  0  0  0  0  0  0  0  0  0  0
    0.7500   -1.2990    0.0000 C   0  0  0  0  0  0  0  0  0  0  0  0
    1.5000    0.0000    0.0000 C   0  0  0  0  0  0  0  0  0  0  0  0
    0.7500    1.2990    0.0000 C   0  0  0  0  0  0  0  0  0  0  0  0
   -0.7500    1.2990    0.0000 C   0  0  0  0  0  0  0  0  0  0  0  0
   -1.5000    0.0000    0.0000 C   0  0  0  0  0  0  0  0  0  0  0  0
   -0.7500   -1.2990    0.0000 C   0  0  0  0  0  0  0  0  0  0  0  0
  1  2  1  0
  2  3  1  0
  3  4  2  0
  4  5  1  0
  5  6  1  0
  6  7  1  0
  7  8  2  0
  7  9  1  0
  9 10  1  0
 10 11  2  0
 11 12  1  0
 12 13  2  0
 13 14  1  0
 14 15  1  0
 15 16  1  0
 16 17  1  0
 17 18  1  0
 18 19  1  0
 19 20  2  0
 19 21  1  0
 21 22  1  0
 22 23  2  0
 23 24  1  0
 24 25  2  0
 25 26  1  0
 26 27  2  0
 18 28  1  0
 28 29  2  0
  6 30  1  0
 30 31  2  0
 31 32  1  0
 32 33  2  0
 33 34  1  0
 34 35  2  0
 35  2  1  0
 14 10  1  0
 28 15  1  0
 35 30  1  0
 27 22  1  0
M  END
>  <Title>  (366) 
idAAMDgen13

$$$$

     RDKit          2D

 38 37  0  0  0  0  0  0  0  0999 V2000
    0.0000    0.0000    0.0000 C   0  0  0  0  0  0  0  0  0  0  0  0
   -0.0000   -1.5000    0.0000 C   0  0  0  0  0  0  0  0  0  0  0  0
   -0.0000   -3.0000    0.0000 C   0  0  0  0  0  0  0  0  0  0  0  0
   -0.0000   -4.5000    0.0000 C   0  0  0  0  0  0  0  0  0  0  0  0
   -0.0000   -6.0000    0.0000 C   0  0  0  0  0  0  0  0  0  0  0  0
   -0.0000   -7.5000    0.0000 C   0  0  0  0  0  0  0  0  0  0  0  0
   -0.0000   -9.0000    0.0000 C   0  0  0  0  0  0  0  0  0  0  0  0
   -0.0000  -10.5000    0.0000 C   0  0  0  0  0  0  0  0  0  0  0  0
   -0.0000  -12.0000    0.0000 C   0  0  0  0  0  0  0  0  0  0  0  0
   -0.0000  -13.5000    0.0000 C   0  0  0  0  0  0  0  0  0  0  0  0
   -0.0000  -15.0000    0.0000 C   0  0  0  0  0  0  0  0  0  0  0  0
   -0.0000  -16.5000    0.0000 C   0  0  0  0  0  0  0  0  0  0  0  0
   -0.0000  -18.0000    0.0000 C   0  0  0  0  0  0  0  0  0  0  0  0
   -0.0000  -19.5000    0.0000 C   0  0  0  0  0  0  0  0  0  0  0  0
   -0.0000  -21.0000    0.0000 C   0  0  0  0  0  0  0  0  0  0  0  0
   -0.0000  -22.5000    0.0000 C   0  0  0  0  0  0  0  0  0  0  0  0
   -0.0000  -24.0000    0.0000 C   0  0  0  0  0  0  0  0  0  0  0  0
   -0.0000  -25.5000    0.0000 C   0  0  0  0  0  0  0  0  0  0  0  0
   -0.0000  -27.0000    0.0000 C   0  0  0  0  0  0  0  0  0  0  0  0
   -0.0000  -28.5000    0.0000 C   0  0  0  0  0  0  0  0  0  0  0  0
   -0.0000  -30.0000    0.0000 C   0  0  0  0  0  0  0  0  0  0  0  0
   -0.0000  -31.5000    0.0000 C   0  0  0  0  0  0  0  0  0  0  0  0
   -0.0000  -33.0000    0.0000 C   0  0  0  0  0  0  0  0  0  0  0  0
   -0.0000  -34.5000    0.0000 C   0  0  0  0  0  0  0  0  0  0  0  0
   -0.0000  -36.0000    0.0000 C   0  0  0  0  0  0  0  0  0  0  0  0
   -0.0000  -37.5000    0.0000 C   0  0  0  0  0  0  0  0  0  0  0  0
   -0.0000  -39.0000    0.0000 C   0  0  0  0  0  0  0  0  0  0  0  0
   -0.0000  -40.5000    0.0000 C   0  0  0  0  0  0  0  0  0  0  0  0
   -0.0000  -42.0000    0.0000 C   0  0  0  0  0  0  0  0  0  0  0  0
   -0.0000  -43.5000    0.0000 C   0  0  0  0  0  0  0  0  0  0  0  0
   -0.0000  -45.0000    0.0000 C   0  0  0  0  0  0  0  0  0  0  0  0
   -0.0000  -46.5000    0.0000 C   0  0  0  0  0  0  0  0  0  0  0  0
   -0.0000  -48.0000    0.0000 C   0  0  0  0  0  0  0  0  0  0  0  0
   -0.0000  -49.5000    0.0000 C   0  0  0  0  0  0  0  0  0  0  0  0
   -0.0000  -51.0000    0.0000 C   0  0  0  0  0  0  0  0  0  0  0  0
   -0.0000  -52.5000    0.0000 C   0  0  0  0  0  0  0  0  0  0  0  0
   -0.0000  -54.0000    0.0000 C   0  0  0  0  0  0  0  0  0  0  0  0
   -0.0000  -55.5000    0.0000 C   0  0  0  0  0  0  0  0  0  0  0  0
  1  2  3  0
  2  3  1  0
  3  4  3  0
  4  5  1  0
  5  6  3  0
  6  7  1  0
  7  8  3  0
  8  9  1  0
  9 10  3  0
 10 11  1  0
 11 12  3  0
 12 13  1  0
 13 14  3  0
 14 15  1  0
 15 16  3  0
 16 17  1  0
 17 18  3  0
 18 19  1  0
 19 20  3  0
 20 21  1  0
 21 22  3  0
 22 23  1  0
 23 24  3  0
 24 25  1  0
 25 26  3  0
 26 27  1  0
 27 28  3  0
 28 29  1  0
 29 30  3  0
 30 31  1  0
 31 32  3  0
 32 33  1  0
 33 34  3  0
 34 35  1  0
 35 36  3  0
 36 37  1  0
 37 38  3  0
M  END
>  <Title>  (367) 
idAAMEgen13

$$$$

     RDKit          2D

 36 40  0  0  0  0  0  0  0  0999 V2000
   -5.2500   -3.8971    0.0000 C   0  0  0  0  0  0  0  0  0  0  0  0
   -3.7500   -3.8971    0.0000 C   0  0  0  0  0  0  0  0  0  0  0  0
   -3.0000   -2.5981    0.0000 C   0  0  0  0  0  0  0  0  0  0  0  0
   -1.5000   -2.5981    0.0000 C   0  0  0  0  0  0  0  0  0  0  0  0
   -0.7500   -3.8971    0.0000 C   0  0  0  0  0  0  0  0  0  0  0  0
    0.7500   -3.8971    0.0000 C   0  0  0  0  0  0  0  0  0  0  0  0
    1.5000   -2.5981    0.0000 C   0  0  0  0  0  0  0  0  0  0  0  0
    3.0000   -2.5981    0.0000 C   0  0  0  0  0  0  0  0  0  0  0  0
    3.7500   -1.2990    0.0000 O   0  0  0  0  0  0  0  0  0  0  0  0
    3.7500   -3.8971    0.0000 N   0  0  0  0  0  0  0  0  0  0  0  0
    5.2500   -3.8971    0.0000 C   0  0  0  0  0  0  0  0  0  0  0  0
    6.1317   -2.6836    0.0000 N   0  0  0  0  0  0  0  0  0  0  0  0
    7.5583   -3.1471    0.0000 N   0  0  0  0  0  0  0  0  0  0  0  0
    7.5583   -4.6471    0.0000 N   0  0  0  0  0  0  0  0  0  0  0  0
    6.1317   -5.1106    0.0000 N   0  0  0  0  0  0  0  0  0  0  0  0
    5.6682   -6.5372    0.0000 N   0  0  0  0  0  0  0  0  0  0  0  0
    6.5498   -7.7508    0.0000 C   0  0  0  0  0  0  0  0  0  0  0  0
    5.6682   -8.9643    0.0000 C   0  0  0  0  0  0  0  0  0  0  0  0
    4.2416   -8.5008    0.0000 N   0  0  0  0  0  0  0  0  0  0  0  0
    3.0280   -9.3824    0.0000 C   0  0  0  0  0  0  0  0  0  0  0  0
    3.1848  -10.8742    0.0000 O   0  0  0  0  0  0  0  0  0  0  0  0
    1.6577   -8.7723    0.0000 N   0  0  0  0  0  0  0  0  0  0  0  0
    0.4442   -9.6540    0.0000 C   0  0  0  0  0  0  0  0  0  0  0  0
   -0.9261   -9.0439    0.0000 N   0  0  0  0  0  0  0  0  0  0  0  0
   -2.1396   -9.9256    0.0000 N   0  0  0  0  0  0  0  0  0  0  0  0
   -1.9829  -11.4174    0.0000 N   0  0  0  0  0  0  0  0  0  0  0  0
   -0.6125  -12.0275    0.0000 N   0  0  0  0  0  0  0  0  0  0  0  0
    0.6010  -11.1458    0.0000 N   0  0  0  0  0  0  0  0  0  0  0  0
    4.2416   -7.0008    0.0000 C   0  0  0  0  0  0  0  0  0  0  0  0
    3.0280   -6.1191    0.0000 O   0  0  0  0  0  0  0  0  0  0  0  0
    0.7500   -1.2990    0.0000 C   0  0  0  0  0  0  0  0  0  0  0  0
    1.5000    0.0000    0.0000 C   0  0  0  0  0  0  0  0  0  0  0  0
    0.7500    1.2990    0.0000 C   0  0  0  0  0  0  0  0  0  0  0  0
   -0.7500    1.2990    0.0000 C   0  0  0  0  0  0  0  0  0  0  0  0
   -1.5000    0.0000    0.0000 C   0  0  0  0  0  0  0  0  0  0  0  0
   -0.7500   -1.2990    0.0000 C   0  0  0  0  0  0  0  0  0  0  0  0
  1  2  2  0
  2  3  1  0
  3  4  1  0
  4  5  2  0
  5  6  1  0
  6  7  2  0
  7  8  1  0
  8  9  2  0
  8 10  1  0
 10 11  1  0
 11 12  2  0
 12 13  1  0
 13 14  2  0
 14 15  1  0
 15 16  1  0
 16 17  1  0
 17 18  1  0
 18 19  1  0
 19 20  1  0
 20 21  2  0
 20 22  1  0
 22 23  1  0
 23 24  2  0
 24 25  1  0
 25 26  2  0
 26 27  1  0
 27 28  2  0
 19 29  1  0
 29 30  2  0
  7 31  1  0
 31 32  2  0
 32 33  1  0
 33 34  2  0
 34 35  1  0
 35 36  2  0
 36  4  1  0
 15 11  1  0
 29 16  1  0
 36 31  1  0
 28 23  1  0
M  END
>  <Title>  (368) 
idAAMFgen13

$$$$

     RDKit          2D

 62 63  0  0  0  0  0  0  0  0999 V2000
   -2.2740   -1.0393    0.0000 C   0  0  0  0  0  0  0  0  0  0  0  0
   -2.5006    0.4434    0.0000 C   0  0  0  0  0  0  0  0  0  0  0  0
   -3.9935    0.2974    0.0000 C   0  0  0  0  0  0  0  0  0  0  0  0
   -5.4934    0.3137    0.0000 C   0  0  0  0  0  0  0  0  0  0  0  0
   -6.9828    0.4920    0.0000 C   0  0  0  0  0  0  0  0  0  0  0  0
   -8.4441    0.8303    0.0000 C   0  0  0  0  0  0  0  0  0  0  0  0
   -9.8603    1.3246    0.0000 C   0  0  0  0  0  0  0  0  0  0  0  0
  -11.2148    1.9692    0.0000 C   0  0  0  0  0  0  0  0  0  0  0  0
  -12.4916    2.7564    0.0000 C   0  0  0  0  0  0  0  0  0  0  0  0
  -13.6759    3.6770    0.0000 C   0  0  0  0  0  0  0  0  0  0  0  0
  -14.7536    4.7203    0.0000 C   0  0  0  0  0  0  0  0  0  0  0  0
  -15.7123    5.8740    0.0000 C   0  0  0  0  0  0  0  0  0  0  0  0
  -16.5405    7.1246    0.0000 C   0  0  0  0  0  0  0  0  0  0  0  0
  -17.2288    8.4574    0.0000 C   0  0  0  0  0  0  0  0  0  0  0  0
  -17.7688    9.8568    0.0000 C   0  0  0  0  0  0  0  0  0  0  0  0
  -18.1544   11.3064    0.0000 C   0  0  0  0  0  0  0  0  0  0  0  0
  -18.3811   12.7891    0.0000 C   0  0  0  0  0  0  0  0  0  0  0  0
  -18.4460   14.2877    0.0000 C   0  0  0  0  0  0  0  0  0  0  0  0
  -18.3486   15.7846    0.0000 C   0  0  0  0  0  0  0  0  0  0  0  0
  -18.0899   17.2621    0.0000 C   0  0  0  0  0  0  0  0  0  0  0  0
  -17.6730   18.7030    0.0000 C   0  0  0  0  0  0  0  0  0  0  0  0
  -17.1027   20.0904    0.0000 C   0  0  0  0  0  0  0  0  0  0  0  0
  -16.3858   21.4079    0.0000 C   0  0  0  0  0  0  0  0  0  0  0  0
  -15.5306   22.6403    0.0000 C   0  0  0  0  0  0  0  0  0  0  0  0
  -14.5472   23.7729    0.0000 C   0  0  0  0  0  0  0  0  0  0  0  0
  -13.4471   24.7926    0.0000 C   0  0  0  0  0  0  0  0  0  0  0  0
  -12.2432   25.6874    0.0000 C   0  0  0  0  0  0  0  0  0  0  0  0
  -10.9496   26.4468    0.0000 C   0  0  0  0  0  0  0  0  0  0  0  0
   -9.5815   27.0618    0.0000 C   0  0  0  0  0  0  0  0  0  0  0  0
   -8.1549   27.5253    0.0000 C   0  0  0  0  0  0  0  0  0  0  0  0
   -6.6866   27.8319    0.0000 C   0  0  0  0  0  0  0  0  0  0  0  0
   -5.1937   27.9779    0.0000 C   0  0  0  0  0  0  0  0  0  0  0  0
   -3.6938   27.9617    0.0000 C   0  0  0  0  0  0  0  0  0  0  0  0
   -2.2044   27.7833    0.0000 C   0  0  0  0  0  0  0  0  0  0  0  0
   -0.7431   27.4450    0.0000 C   0  0  0  0  0  0  0  0  0  0  0  0
    0.6731   26.9507    0.0000 C   0  0  0  0  0  0  0  0  0  0  0  0
    2.0276   26.3062    0.0000 C   0  0  0  0  0  0  0  0  0  0  0  0
    3.3044   25.5190    0.0000 C   0  0  0  0  0  0  0  0  0  0  0  0
    4.4887   24.5983    0.0000 C   0  0  0  0  0  0  0  0  0  0  0  0
    5.5664   23.5550    0.0000 C   0  0  0  0  0  0  0  0  0  0  0  0
    6.5250   22.4013    0.0000 C   0  0  0  0  0  0  0  0  0  0  0  0
    7.3533   21.1508    0.0000 C   0  0  0  0  0  0  0  0  0  0  0  0
    8.0415   19.8180    0.0000 C   0  0  0  0  0  0  0  0  0  0  0  0
    8.5816   18.4186    0.0000 C   0  0  0  0  0  0  0  0  0  0  0  0
    8.9672   16.9690    0.0000 C   0  0  0  0  0  0  0  0  0  0  0  0
    9.1939   15.4862    0.0000 C   0  0  0  0  0  0  0  0  0  0  0  0
    9.2588   13.9876    0.0000 C   0  0  0  0  0  0  0  0  0  0  0  0
    9.1614   12.4908    0.0000 C   0  0  0  0  0  0  0  0  0  0  0  0
    8.9027   11.0132    0.0000 C   0  0  0  0  0  0  0  0  0  0  0  0
    8.4858    9.5723    0.0000 C   0  0  0  0  0  0  0  0  0  0  0  0
    7.9155    8.1850    0.0000 C   0  0  0  0  0  0  0  0  0  0  0  0
    7.1986    6.8674    0.0000 C   0  0  0  0  0  0  0  0  0  0  0  0
    6.3434    5.6351    0.0000 C   0  0  0  0  0  0  0  0  0  0  0  0
    5.3600    4.5024    0.0000 C   0  0  0  0  0  0  0  0  0  0  0  0
    4.2599    3.4827    0.0000 C   0  0  0  0  0  0  0  0  0  0  0  0
    3.0560    2.5879    0.0000 C   0  0  0  0  0  0  0  0  0  0  0  0
    1.7624    1.8286    0.0000 C   0  0  0  0  0  0  0  0  0  0  0  0
    0.3943    1.2135    0.0000 C   0  0  0  0  0  0  0  0  0  0  0  0
    1.2760    0.0000    0.0000 C   0  0  0  0  0  0  0  0  0  0  0  0
    0.3943   -1.2135    0.0000 C   0  0  0  0  0  0  0  0  0  0  0  0
   -1.0323   -0.7500    0.0000 C   0  0  0  0  0  0  0  0  0  0  0  0
   -1.0323    0.7500    0.0000 C   0  0  0  0  0  0  0  0  0  0  0  0
  1  2  1  0
  2  3  1  0
  3  4  1  0
  4  5  1  0
  5  6  1  0
  6  7  1  0
  7  8  1  0
  8  9  1  0
  9 10  1  0
 10 11  1  0
 11 12  1  0
 12 13  1  0
 13 14  1  0
 14 15  1  0
 15 16  1  0
 16 17  1  0
 17 18  1  0
 18 19  1  0
 19 20  1  0
 20 21  1  0
 21 22  1  0
 22 23  1  0
 23 24  1  0
 24 25  1  0
 25 26  1  0
 26 27  1  0
 27 28  1  0
 28 29  1  0
 29 30  1  0
 30 31  1  0
 31 32  1  0
 32 33  1  0
 33 34  1  0
 34 35  1  0
 35 36  1  0
 36 37  1  0
 37 38  1  0
 38 39  1  0
 39 40  1  0
 40 41  1  0
 41 42  2  0
 42 43  1  0
 43 44  2  0
 44 45  1  0
 45 46  2  0
 46 47  1  0
 47 48  2  0
 48 49  1  0
 49 50  2  0
 50 51  1  0
 51 52  2  0
 52 53  1  0
 53 54  2  0
 54 55  1  0
 55 56  2  0
 56 57  1  0
 57 58  2  0
 58 59  1  0
 59 60  2  0
 60 61  1  0
 61 62  2  0
 62  2  1  0
 62 58  1  0
M  END
>  <Title>  (369) 
idAAMGgen13

$$$$

     RDKit          2D

 13 12  0  0  0  0  0  0  0  0999 V2000
    0.0000    0.0000    0.0000 C   0  0  0  0  0  0  0  0  0  0  0  0
    1.2990    0.7500    0.0000 C   0  0  0  0  0  0  0  0  0  0  0  0
    1.2990    2.2500    0.0000 O   0  0  0  0  0  0  0  0  0  0  0  0
    2.5981   -0.0000    0.0000 N   0  0  0  0  0  0  0  0  0  0  0  0
    3.8971    0.7500    0.0000 C   0  0  0  0  0  0  0  0  0  0  0  0
    3.8971    2.2500    0.0000 O   0  0  0  0  0  0  0  0  0  0  0  0
    5.1962   -0.0000    0.0000 N   0  0  0  0  0  0  0  0  0  0  0  0
    6.4952    0.7500    0.0000 C   0  0  0  0  0  0  0  0  0  0  0  0
    7.7942   -0.0000    0.0000 C   0  0  0  0  0  0  0  0  0  0  0  0
    6.4952    2.2500    0.0000 C   0  0  0  0  0  0  0  0  0  0  0  0
    7.7942    3.0000    0.0000 C   0  0  0  0  0  0  0  0  0  0  0  0
    7.7942    4.5000    0.0000 C   0  0  0  0  0  0  0  0  0  0  0  0
    9.0933    2.2500    0.0000 C   0  0  0  0  0  0  0  0  0  0  0  0
  1  2  1  0
  2  3  2  0
  2  4  1  0
  4  5  1  0
  5  6  2  0
  5  7  1  0
  7  8  1  0
  8  9  1  0
  8 10  1  0
 10 11  1  0
 11 12  1  0
 11 13  1  0
M  END
>  <Title>  (370) 
idAAMHgen13

$$$$

     RDKit          2D

 31 35  0  0  0  0  0  0  0  0999 V2000
    0.5923   -7.4733    0.0000 O   0  0  0  0  0  0  0  0  0  0  0  0
   -0.7780   -8.0834    0.0000 C   0  0  0  0  0  0  0  0  0  0  0  0
   -0.9348   -9.5752    0.0000 N   0  0  0  0  0  0  0  0  0  0  0  0
    0.2787  -10.4569    0.0000 C   0  0  0  0  0  0  0  0  0  0  0  0
    1.5996   -9.7460    0.0000 C   0  0  0  0  0  0  0  0  0  0  0  0
    2.9789  -10.3356    0.0000 N   0  0  0  0  0  0  0  0  0  0  0  0
    3.3779  -11.7815    0.0000 N   0  0  0  0  0  0  0  0  0  0  0  0
    2.4963  -12.9951    0.0000 N   0  0  0  0  0  0  0  0  0  0  0  0
    0.9978  -13.0624    0.0000 N   0  0  0  0  0  0  0  0  0  0  0  0
    0.0109  -11.9327    0.0000 N   0  0  0  0  0  0  0  0  0  0  0  0
   -1.9916   -7.2017    0.0000 C   0  0  0  0  0  0  0  0  0  0  0  0
   -3.4182   -7.6652    0.0000 C   0  0  0  0  0  0  0  0  0  0  0  0
   -4.2998   -6.4517    0.0000 C   0  0  0  0  0  0  0  0  0  0  0  0
   -3.4182   -5.2382    0.0000 C   0  0  0  0  0  0  0  0  0  0  0  0
   -3.8817   -3.8116    0.0000 N   0  0  0  0  0  0  0  0  0  0  0  0
   -5.3083   -3.3481    0.0000 N   0  0  0  0  0  0  0  0  0  0  0  0
   -5.3083   -1.8481    0.0000 N   0  0  0  0  0  0  0  0  0  0  0  0
   -3.8817   -1.3846    0.0000 N   0  0  0  0  0  0  0  0  0  0  0  0
   -3.0000   -2.5981    0.0000 C   0  0  0  0  0  0  0  0  0  0  0  0
   -1.5000   -2.5981    0.0000 C   0  0  0  0  0  0  0  0  0  0  0  0
   -0.7500   -3.8971    0.0000 O   0  0  0  0  0  0  0  0  0  0  0  0
    0.7500   -3.8971    0.0000 C   0  0  0  0  0  0  0  0  0  0  0  0
    1.5000   -2.5981    0.0000 C   0  0  0  0  0  0  0  0  0  0  0  0
    0.7500   -1.2990    0.0000 C   0  0  0  0  0  0  0  0  0  0  0  0
    1.5000    0.0000    0.0000 C   0  0  0  0  0  0  0  0  0  0  0  0
    0.7500    1.2990    0.0000 C   0  0  0  0  0  0  0  0  0  0  0  0
   -0.7500    1.2990    0.0000 C   0  0  0  0  0  0  0  0  0  0  0  0
   -1.5000    0.0000    0.0000 C   0  0  0  0  0  0  0  0  0  0  0  0
   -0.7500   -1.2990    0.0000 C   0  0  0  0  0  0  0  0  0  0  0  0
   -1.9916   -5.7017    0.0000 C   0  0  0  0  0  0  0  0  0  0  0  0
   -0.7780   -4.8200    0.0000 O   0  0  0  0  0  0  0  0  0  0  0  0
  1  2  2  0
  2  3  1  0
  3  4  1  0
  4  5  1  0
  5  6  1  0
  6  7  1  0
  7  8  2  0
  8  9  1  0
  9 10  2  0
  2 11  1  0
 11 12  2  0
 12 13  1  0
 13 14  2  0
 14 15  1  0
 15 16  1  0
 16 17  2  0
 17 18  1  0
 18 19  2  0
 19 20  1  0
 20 21  1  0
 21 22  1  0
 22 23  2  0
 23 24  1  0
 24 25  2  0
 25 26  1  0
 26 27  2  0
 27 28  1  0
 28 29  2  0
 14 30  1  0
 30 31  2  0
 10  4  1  0
 30 11  1  0
 19 15  1  0
 29 20  1  0
 29 24  1  0
M  END
>  <Title>  (371) 
idAAMIgen13

$$$$

     RDKit          2D

  4  3  0  0  0  0  0  0  0  0999 V2000
    0.0000    0.0000    0.0000 C   0  0  0  0  0  0  0  0  0  0  0  0
    1.2990    0.7500    0.0000 C   0  0  0  0  0  0  0  0  0  0  0  0
    2.5981   -0.0000    0.0000 C   0  0  0  0  0  0  0  0  0  0  0  0
    3.8971    0.7500    0.0000 N   0  0  0  0  0  0  0  0  0  0  0  0
  1  2  1  0
  2  3  2  3
  3  4  1  0
M  END
>  <Title>  (372) 
idAAMJgen13

$$$$

     RDKit          2D

  5  5  0  0  0  0  0  0  0  0999 V2000
    1.2760    0.0000    0.0000 C   0  0  0  0  0  0  0  0  0  0  0  0
    0.3943    1.2135    0.0000 C   0  0  0  0  0  0  0  0  0  0  0  0
   -1.0323    0.7500    0.0000 N   0  0  0  0  0  0  0  0  0  0  0  0
   -1.0323   -0.7500    0.0000 C   0  0  0  0  0  0  0  0  0  0  0  0
    0.3943   -1.2135    0.0000 C   0  0  0  0  0  0  0  0  0  0  0  0
  1  2  2  0
  2  3  1  0
  3  4  2  0
  4  5  1  0
  5  1  1  0
M  END
>  <Title>  (373) 
idAAMKgen13

$$$$

     RDKit          2D

 35 39  0  0  0  0  0  0  0  0999 V2000
   -3.1476   -2.1380    0.0000 C   0  0  0  0  0  0  0  0  0  0  0  0
   -1.6852   -2.4718    0.0000 C   0  0  0  0  0  0  0  0  0  0  0  0
   -1.3515   -3.9342    0.0000 C   0  0  0  0  0  0  0  0  0  0  0  0
   -0.0000   -4.5850    0.0000 C   0  0  0  0  0  0  0  0  0  0  0  0
    1.3515   -3.9342    0.0000 C   0  0  0  0  0  0  0  0  0  0  0  0
    1.6852   -2.4718    0.0000 C   0  0  0  0  0  0  0  0  0  0  0  0
    3.1476   -2.1380    0.0000 C   0  0  0  0  0  0  0  0  0  0  0  0
    3.5898   -0.7046    0.0000 O   0  0  0  0  0  0  0  0  0  0  0  0
    4.1679   -3.2376    0.0000 N   0  0  0  0  0  0  0  0  0  0  0  0
    5.6303   -2.9038    0.0000 C   0  0  0  0  0  0  0  0  0  0  0  0
    6.2198   -1.5245    0.0000 N   0  0  0  0  0  0  0  0  0  0  0  0
    7.7138   -1.6590    0.0000 N   0  0  0  0  0  0  0  0  0  0  0  0
    8.0476   -3.1214    0.0000 N   0  0  0  0  0  0  0  0  0  0  0  0
    6.7599   -3.8907    0.0000 N   0  0  0  0  0  0  0  0  0  0  0  0
    6.6254   -5.3847    0.0000 C   0  0  0  0  0  0  0  0  0  0  0  0
    7.7550   -6.3716    0.0000 C   0  0  0  0  0  0  0  0  0  0  0  0
    7.1655   -7.7509    0.0000 C   0  0  0  0  0  0  0  0  0  0  0  0
    5.6715   -7.6164    0.0000 C   0  0  0  0  0  0  0  0  0  0  0  0
    4.6846   -8.7460    0.0000 C   0  0  0  0  0  0  0  0  0  0  0  0
    5.1694  -10.1655    0.0000 O   0  0  0  0  0  0  0  0  0  0  0  0
    3.2129   -8.4561    0.0000 N   0  0  0  0  0  0  0  0  0  0  0  0
    2.2260   -9.5857    0.0000 C   0  0  0  0  0  0  0  0  0  0  0  0
    0.7543   -9.2959    0.0000 N   0  0  0  0  0  0  0  0  0  0  0  0
   -0.2326  -10.4255    0.0000 N   0  0  0  0  0  0  0  0  0  0  0  0
    0.2522  -11.8450    0.0000 N   0  0  0  0  0  0  0  0  0  0  0  0
    1.7239  -12.1348    0.0000 N   0  0  0  0  0  0  0  0  0  0  0  0
    2.7108  -11.0052    0.0000 N   0  0  0  0  0  0  0  0  0  0  0  0
    5.3378   -6.1540    0.0000 C   0  0  0  0  0  0  0  0  0  0  0  0
    3.9585   -5.5645    0.0000 O   0  0  0  0  0  0  0  0  0  0  0  0
    0.7500   -1.2990    0.0000 C   0  0  0  0  0  0  0  0  0  0  0  0
    1.5000    0.0000    0.0000 C   0  0  0  0  0  0  0  0  0  0  0  0
    0.7500    1.2990    0.0000 C   0  0  0  0  0  0  0  0  0  0  0  0
   -0.7500    1.2990    0.0000 C   0  0  0  0  0  0  0  0  0  0  0  0
   -1.5000    0.0000    0.0000 C   0  0  0  0  0  0  0  0  0  0  0  0
   -0.7500   -1.2990    0.0000 C   0  0  0  0  0  0  0  0  0  0  0  0
  1  2  1  0
  2  3  1  0
  3  4  1  0
  4  5  1  0
  5  6  1  0
  6  7  1  0
  7  8  2  0
  7  9  1  0
  9 10  1  0
 10 11  2  0
 11 12  1  0
 12 13  2  0
 13 14  1  0
 14 15  1  0
 15 16  2  0
 16 17  1  0
 17 18  2  0
 18 19  1  0
 19 20  2  0
 19 21  1  0
 21 22  1  0
 22 23  2  0
 23 24  1  0
 24 25  2  0
 25 26  1  0
 26 27  2  0
 18 28  1  0
 28 29  2  0
  6 30  1  0
 30 31  2  0
 31 32  1  0
 32 33  2  0
 33 34  1  0
 34 35  2  0
 35  2  1  0
 14 10  1  0
 28 15  1  0
 35 30  1  0
 27 22  1  0
M  END
>  <Title>  (374) 
idAAMLgen13

$$$$

     RDKit          2D

 31 35  0  0  0  0  0  0  0  0999 V2000
   -3.0000   -2.5981    0.0000 C   0  0  0  0  0  0  0  0  0  0  0  0
   -1.5000   -2.5981    0.0000 C   0  0  0  0  0  0  0  0  0  0  0  0
   -0.7500   -3.8971    0.0000 C   0  0  0  0  0  0  0  0  0  0  0  0
    0.7500   -3.8971    0.0000 C   0  0  0  0  0  0  0  0  0  0  0  0
    1.5000   -2.5981    0.0000 C   0  0  0  0  0  0  0  0  0  0  0  0
    3.0000   -2.5981    0.0000 C   0  0  0  0  0  0  0  0  0  0  0  0
    3.7500   -1.2990    0.0000 O   0  0  0  0  0  0  0  0  0  0  0  0
    3.7500   -3.8971    0.0000 N   0  0  0  0  0  0  0  0  0  0  0  0
    5.2500   -3.8971    0.0000 C   0  0  0  0  0  0  0  0  0  0  0  0
    6.1317   -2.6836    0.0000 N   0  0  0  0  0  0  0  0  0  0  0  0
    7.5583   -3.1471    0.0000 N   0  0  0  0  0  0  0  0  0  0  0  0
    7.5583   -4.6471    0.0000 N   0  0  0  0  0  0  0  0  0  0  0  0
    6.1317   -5.1106    0.0000 N   0  0  0  0  0  0  0  0  0  0  0  0
    5.6682   -6.5372    0.0000 C   0  0  0  0  0  0  0  0  0  0  0  0
    6.5498   -7.7508    0.0000 C   0  0  0  0  0  0  0  0  0  0  0  0
    5.6682   -8.9643    0.0000 C   0  0  0  0  0  0  0  0  0  0  0  0
    4.2416   -8.5008    0.0000 C   0  0  0  0  0  0  0  0  0  0  0  0
    3.0280   -9.3824    0.0000 N   0  0  0  0  0  0  0  0  0  0  0  0
    1.6577   -8.7723    0.0000 C   0  0  0  0  0  0  0  0  0  0  0  0
    0.4442   -9.6540    0.0000 C   0  0  0  0  0  0  0  0  0  0  0  0
    0.6010  -11.1458    0.0000 N   0  0  0  0  0  0  0  0  0  0  0  0
    1.9713  -11.7559    0.0000 N   0  0  0  0  0  0  0  0  0  0  0  0
    3.1848  -10.8742    0.0000 N   0  0  0  0  0  0  0  0  0  0  0  0
    4.2416   -7.0008    0.0000 C   0  0  0  0  0  0  0  0  0  0  0  0
    3.0280   -6.1191    0.0000 O   0  0  0  0  0  0  0  0  0  0  0  0
    0.7500   -1.2990    0.0000 C   0  0  0  0  0  0  0  0  0  0  0  0
    1.5000    0.0000    0.0000 C   0  0  0  0  0  0  0  0  0  0  0  0
    0.7500    1.2990    0.0000 C   0  0  0  0  0  0  0  0  0  0  0  0
   -0.7500    1.2990    0.0000 C   0  0  0  0  0  0  0  0  0  0  0  0
   -1.5000    0.0000    0.0000 C   0  0  0  0  0  0  0  0  0  0  0  0
   -0.7500   -1.2990    0.0000 C   0  0  0  0  0  0  0  0  0  0  0  0
  1  2  1  0
  2  3  1  0
  3  4  2  0
  4  5  1  0
  5  6  1  0
  6  7  2  0
  6  8  1  0
  8  9  1  0
  9 10  2  0
 10 11  1  0
 11 12  2  0
 12 13  1  0
 13 14  1  0
 14 15  2  0
 15 16  1  0
 16 17  2  0
 17 18  1  0
 18 19  1  0
 19 20  1  0
 20 21  2  0
 21 22  1  0
 22 23  2  0
 17 24  1  0
 24 25  2  0
  5 26  1  0
 26 27  2  0
 27 28  1  0
 28 29  2  0
 29 30  1  0
 30 31  2  0
 31  2  1  0
 13  9  1  0
 24 14  1  0
 31 26  1  0
 23 18  1  0
M  END
>  <Title>  (375) 
idAAMMgen13

$$$$

     RDKit          2D

 29 32  0  0  0  0  0  0  0  0999 V2000
   -3.1476   -2.1380    0.0000 C   0  0  0  0  0  0  0  0  0  0  0  0
   -1.6852   -2.4718    0.0000 C   0  0  0  0  0  0  0  0  0  0  0  0
   -1.3515   -3.9342    0.0000 C   0  0  0  0  0  0  0  0  0  0  0  0
   -0.0000   -4.5850    0.0000 C   0  0  0  0  0  0  0  0  0  0  0  0
    1.3515   -3.9342    0.0000 C   0  0  0  0  0  0  0  0  0  0  0  0
    1.6852   -2.4718    0.0000 C   0  0  0  0  0  0  0  0  0  0  0  0
    3.1476   -2.1380    0.0000 C   0  0  0  0  0  0  0  0  0  0  0  0
    3.5898   -0.7046    0.0000 O   0  0  0  0  0  0  0  0  0  0  0  0
    4.1679   -3.2376    0.0000 N   0  0  0  0  0  0  0  0  0  0  0  0
    5.6303   -2.9038    0.0000 C   0  0  0  0  0  0  0  0  0  0  0  0
    6.2198   -1.5245    0.0000 N   0  0  0  0  0  0  0  0  0  0  0  0
    7.7138   -1.6590    0.0000 N   0  0  0  0  0  0  0  0  0  0  0  0
    8.0476   -3.1214    0.0000 N   0  0  0  0  0  0  0  0  0  0  0  0
    6.7599   -3.8907    0.0000 N   0  0  0  0  0  0  0  0  0  0  0  0
    6.6254   -5.3847    0.0000 N   0  0  0  0  0  0  0  0  0  0  0  0
    7.7550   -6.3716    0.0000 C   0  0  0  0  0  0  0  0  0  0  0  0
    7.1655   -7.7509    0.0000 C   0  0  0  0  0  0  0  0  0  0  0  0
    5.6715   -7.6164    0.0000 N   0  0  0  0  0  0  0  0  0  0  0  0
    4.6846   -8.7460    0.0000 C   0  0  0  0  0  0  0  0  0  0  0  0
    5.1694  -10.1655    0.0000 O   0  0  0  0  0  0  0  0  0  0  0  0
    3.2129   -8.4561    0.0000 O   0  0  0  0  0  0  0  0  0  0  0  0
    5.3378   -6.1540    0.0000 C   0  0  0  0  0  0  0  0  0  0  0  0
    3.9585   -5.5645    0.0000 O   0  0  0  0  0  0  0  0  0  0  0  0
    0.7500   -1.2990    0.0000 C   0  0  0  0  0  0  0  0  0  0  0  0
    1.5000    0.0000    0.0000 C   0  0  0  0  0  0  0  0  0  0  0  0
    0.7500    1.2990    0.0000 C   0  0  0  0  0  0  0  0  0  0  0  0
   -0.7500    1.2990    0.0000 C   0  0  0  0  0  0  0  0  0  0  0  0
   -1.5000    0.0000    0.0000 C   0  0  0  0  0  0  0  0  0  0  0  0
   -0.7500   -1.2990    0.0000 C   0  0  0  0  0  0  0  0  0  0  0  0
  1  2  1  0
  2  3  1  0
  3  4  2  0
  4  5  1  0
  5  6  1  0
  6  7  1  0
  7  8  2  0
  7  9  1  0
  9 10  1  0
 10 11  2  0
 11 12  1  0
 12 13  2  0
 13 14  1  0
 14 15  1  0
 15 16  1  0
 16 17  1  0
 17 18  1  0
 18 19  1  0
 19 20  2  0
 19 21  1  0
 18 22  1  0
 22 23  2  0
  6 24  1  0
 24 25  2  0
 25 26  1  0
 26 27  2  0
 27 28  1  0
 28 29  2  0
 29  2  1  0
 14 10  1  0
 22 15  1  0
 29 24  1  0
M  END
>  <Title>  (376) 
idAAMNgen13

$$$$

     RDKit          2D

 35 39  0  0  0  0  0  0  0  0999 V2000
   -3.1476   -2.1380    0.0000 C   0  0  0  0  0  0  0  0  0  0  0  0
   -1.6852   -2.4718    0.0000 C   0  0  0  0  0  0  0  0  0  0  0  0
   -1.3515   -3.9342    0.0000 C   0  0  0  0  0  0  0  0  0  0  0  0
   -0.0000   -4.5850    0.0000 C   0  0  0  0  0  0  0  0  0  0  0  0
    1.3515   -3.9342    0.0000 C   0  0  0  0  0  0  0  0  0  0  0  0
    1.6852   -2.4718    0.0000 C   0  0  0  0  0  0  0  0  0  0  0  0
    3.1476   -2.1380    0.0000 C   0  0  0  0  0  0  0  0  0  0  0  0
    3.5898   -0.7046    0.0000 O   0  0  0  0  0  0  0  0  0  0  0  0
    4.1679   -3.2376    0.0000 N   0  0  0  0  0  0  0  0  0  0  0  0
    5.6303   -2.9038    0.0000 C   0  0  0  0  0  0  0  0  0  0  0  0
    6.2198   -1.5245    0.0000 N   0  0  0  0  0  0  0  0  0  0  0  0
    7.7138   -1.6590    0.0000 N   0  0  0  0  0  0  0  0  0  0  0  0
    8.0476   -3.1214    0.0000 N   0  0  0  0  0  0  0  0  0  0  0  0
    6.7599   -3.8907    0.0000 N   0  0  0  0  0  0  0  0  0  0  0  0
    6.6254   -5.3847    0.0000 N   0  0  0  0  0  0  0  0  0  0  0  0
    7.7550   -6.3716    0.0000 C   0  0  0  0  0  0  0  0  0  0  0  0
    7.1655   -7.7509    0.0000 C   0  0  0  0  0  0  0  0  0  0  0  0
    5.6715   -7.6164    0.0000 N   0  0  0  0  0  0  0  0  0  0  0  0
    4.6846   -8.7460    0.0000 C   0  0  0  0  0  0  0  0  0  0  0  0
    5.1694  -10.1655    0.0000 O   0  0  0  0  0  0  0  0  0  0  0  0
    3.2129   -8.4561    0.0000 N   0  0  0  0  0  0  0  0  0  0  0  0
    2.2260   -9.5857    0.0000 C   0  0  0  0  0  0  0  0  0  0  0  0
    0.7543   -9.2959    0.0000 N   0  0  0  0  0  0  0  0  0  0  0  0
   -0.2326  -10.4255    0.0000 N   0  0  0  0  0  0  0  0  0  0  0  0
    0.2522  -11.8450    0.0000 N   0  0  0  0  0  0  0  0  0  0  0  0
    1.7239  -12.1348    0.0000 N   0  0  0  0  0  0  0  0  0  0  0  0
    2.7108  -11.0052    0.0000 N   0  0  0  0  0  0  0  0  0  0  0  0
    5.3378   -6.1540    0.0000 C   0  0  0  0  0  0  0  0  0  0  0  0
    3.9585   -5.5645    0.0000 O   0  0  0  0  0  0  0  0  0  0  0  0
    0.7500   -1.2990    0.0000 C   0  0  0  0  0  0  0  0  0  0  0  0
    1.5000    0.0000    0.0000 C   0  0  0  0  0  0  0  0  0  0  0  0
    0.7500    1.2990    0.0000 C   0  0  0  0  0  0  0  0  0  0  0  0
   -0.7500    1.2990    0.0000 C   0  0  0  0  0  0  0  0  0  0  0  0
   -1.5000    0.0000    0.0000 C   0  0  0  0  0  0  0  0  0  0  0  0
   -0.7500   -1.2990    0.0000 C   0  0  0  0  0  0  0  0  0  0  0  0
  1  2  1  0
  2  3  1  0
  3  4  1  0
  4  5  1  0
  5  6  1  0
  6  7  1  0
  7  8  2  0
  7  9  1  0
  9 10  1  0
 10 11  2  0
 11 12  1  0
 12 13  2  0
 13 14  1  0
 14 15  1  0
 15 16  1  0
 16 17  1  0
 17 18  1  0
 18 19  1  0
 19 20  2  0
 19 21  1  0
 21 22  1  0
 22 23  2  0
 23 24  1  0
 24 25  2  0
 25 26  1  0
 26 27  2  0
 18 28  1  0
 28 29  2  0
  6 30  1  0
 30 31  2  0
 31 32  1  0
 32 33  2  0
 33 34  1  0
 34 35  2  0
 35  2  1  0
 14 10  1  0
 28 15  1  0
 35 30  1  0
 27 22  1  0
M  END
>  <Title>  (377) 
idAAMOgen13

$$$$

     RDKit          2D

104105  0  0  0  0  0  0  0  0999 V2000
   -2.1579   -1.0869    0.0000 C   0  0  0  0  0  0  0  0  0  0  0  0
   -2.4852    0.3770    0.0000 C   0  0  0  0  0  0  0  0  0  0  0  0
   -3.9586    0.0959    0.0000 C   0  0  0  0  0  0  0  0  0  0  0  0
   -5.4468   -0.0921    0.0000 C   0  0  0  0  0  0  0  0  0  0  0  0
   -6.9438   -0.1863    0.0000 C   0  0  0  0  0  0  0  0  0  0  0  0
   -8.4438   -0.1863    0.0000 C   0  0  0  0  0  0  0  0  0  0  0  0
   -9.9408   -0.0921    0.0000 C   0  0  0  0  0  0  0  0  0  0  0  0
  -11.4290    0.0959    0.0000 C   0  0  0  0  0  0  0  0  0  0  0  0
  -12.9024    0.3770    0.0000 C   0  0  0  0  0  0  0  0  0  0  0  0
  -14.3553    0.7500    0.0000 C   0  0  0  0  0  0  0  0  0  0  0  0
  -15.7819    1.2135    0.0000 C   0  0  0  0  0  0  0  0  0  0  0  0
  -17.1766    1.7657    0.0000 C   0  0  0  0  0  0  0  0  0  0  0  0
  -18.5338    2.4044    0.0000 C   0  0  0  0  0  0  0  0  0  0  0  0
  -19.8483    3.1270    0.0000 C   0  0  0  0  0  0  0  0  0  0  0  0
  -21.1148    3.9308    0.0000 C   0  0  0  0  0  0  0  0  0  0  0  0
  -22.3283    4.8124    0.0000 C   0  0  0  0  0  0  0  0  0  0  0  0
  -23.4841    5.7686    0.0000 C   0  0  0  0  0  0  0  0  0  0  0  0
  -24.5775    6.7954    0.0000 C   0  0  0  0  0  0  0  0  0  0  0  0
  -25.6043    7.8888    0.0000 C   0  0  0  0  0  0  0  0  0  0  0  0
  -26.5605    9.0446    0.0000 C   0  0  0  0  0  0  0  0  0  0  0  0
  -27.4421   10.2581    0.0000 C   0  0  0  0  0  0  0  0  0  0  0  0
  -28.2459   11.5246    0.0000 C   0  0  0  0  0  0  0  0  0  0  0  0
  -28.9685   12.8391    0.0000 C   0  0  0  0  0  0  0  0  0  0  0  0
  -29.6072   14.1963    0.0000 C   0  0  0  0  0  0  0  0  0  0  0  0
  -30.1594   15.5910    0.0000 C   0  0  0  0  0  0  0  0  0  0  0  0
  -30.6229   17.0176    0.0000 C   0  0  0  0  0  0  0  0  0  0  0  0
  -30.9959   18.4705    0.0000 C   0  0  0  0  0  0  0  0  0  0  0  0
  -31.2770   19.9439    0.0000 C   0  0  0  0  0  0  0  0  0  0  0  0
  -31.4650   21.4321    0.0000 C   0  0  0  0  0  0  0  0  0  0  0  0
  -31.5592   22.9291    0.0000 C   0  0  0  0  0  0  0  0  0  0  0  0
  -31.5592   24.4291    0.0000 C   0  0  0  0  0  0  0  0  0  0  0  0
  -31.4650   25.9261    0.0000 C   0  0  0  0  0  0  0  0  0  0  0  0
  -31.2770   27.4143    0.0000 C   0  0  0  0  0  0  0  0  0  0  0  0
  -30.9959   28.8877    0.0000 C   0  0  0  0  0  0  0  0  0  0  0  0
  -30.6229   30.3406    0.0000 C   0  0  0  0  0  0  0  0  0  0  0  0
  -30.1594   31.7672    0.0000 C   0  0  0  0  0  0  0  0  0  0  0  0
  -29.6072   33.1619    0.0000 C   0  0  0  0  0  0  0  0  0  0  0  0
  -28.9685   34.5191    0.0000 C   0  0  0  0  0  0  0  0  0  0  0  0
  -28.2459   35.8336    0.0000 C   0  0  0  0  0  0  0  0  0  0  0  0
  -27.4421   37.1001    0.0000 C   0  0  0  0  0  0  0  0  0  0  0  0
  -26.5605   38.3136    0.0000 C   0  0  0  0  0  0  0  0  0  0  0  0
  -25.6043   39.4693    0.0000 C   0  0  0  0  0  0  0  0  0  0  0  0
  -24.5775   40.5628    0.0000 C   0  0  0  0  0  0  0  0  0  0  0  0
  -23.4841   41.5896    0.0000 C   0  0  0  0  0  0  0  0  0  0  0  0
  -22.3283   42.5458    0.0000 C   0  0  0  0  0  0  0  0  0  0  0  0
  -21.1148   43.4274    0.0000 C   0  0  0  0  0  0  0  0  0  0  0  0
  -19.8483   44.2312    0.0000 C   0  0  0  0  0  0  0  0  0  0  0  0
  -18.5338   44.9538    0.0000 C   0  0  0  0  0  0  0  0  0  0  0  0
  -17.1766   45.5925    0.0000 C   0  0  0  0  0  0  0  0  0  0  0  0
  -15.7819   46.1447    0.0000 C   0  0  0  0  0  0  0  0  0  0  0  0
  -14.3553   46.6082    0.0000 C   0  0  0  0  0  0  0  0  0  0  0  0
  -12.9024   46.9812    0.0000 C   0  0  0  0  0  0  0  0  0  0  0  0
  -11.4290   47.2623    0.0000 C   0  0  0  0  0  0  0  0  0  0  0  0
   -9.9408   47.4503    0.0000 C   0  0  0  0  0  0  0  0  0  0  0  0
   -8.4438   47.5445    0.0000 C   0  0  0  0  0  0  0  0  0  0  0  0
   -6.9438   47.5445    0.0000 C   0  0  0  0  0  0  0  0  0  0  0  0
   -5.4468   47.4503    0.0000 C   0  0  0  0  0  0  0  0  0  0  0  0
   -3.9586   47.2623    0.0000 C   0  0  0  0  0  0  0  0  0  0  0  0
   -2.4852   46.9812    0.0000 C   0  0  0  0  0  0  0  0  0  0  0  0
   -1.0323   46.6082    0.0000 C   0  0  0  0  0  0  0  0  0  0  0  0
    0.3943   46.1447    0.0000 C   0  0  0  0  0  0  0  0  0  0  0  0
    1.7890   45.5925    0.0000 C   0  0  0  0  0  0  0  0  0  0  0  0
    3.1462   44.9538    0.0000 C   0  0  0  0  0  0  0  0  0  0  0  0
    4.4607   44.2312    0.0000 C   0  0  0  0  0  0  0  0  0  0  0  0
    5.7272   43.4274    0.0000 C   0  0  0  0  0  0  0  0  0  0  0  0
    6.9407   42.5458    0.0000 C   0  0  0  0  0  0  0  0  0  0  0  0
    8.0965   41.5896    0.0000 C   0  0  0  0  0  0  0  0  0  0  0  0
    9.1899   40.5628    0.0000 C   0  0  0  0  0  0  0  0  0  0  0  0
   10.2167   39.4693    0.0000 C   0  0  0  0  0  0  0  0  0  0  0  0
   11.1729   38.3136    0.0000 C   0  0  0  0  0  0  0  0  0  0  0  0
   12.0545   37.1001    0.0000 C   0  0  0  0  0  0  0  0  0  0  0  0
   12.8583   35.8336    0.0000 C   0  0  0  0  0  0  0  0  0  0  0  0
   13.5809   34.5191    0.0000 C   0  0  0  0  0  0  0  0  0  0  0  0
   14.2196   33.1619    0.0000 C   0  0  0  0  0  0  0  0  0  0  0  0
   14.7718   31.7672    0.0000 C   0  0  0  0  0  0  0  0  0  0  0  0
   15.2353   30.3406    0.0000 C   0  0  0  0  0  0  0  0  0  0  0  0
   15.6083   28.8877    0.0000 C   0  0  0  0  0  0  0  0  0  0  0  0
   15.8894   27.4143    0.0000 C   0  0  0  0  0  0  0  0  0  0  0  0
   16.0774   25.9261    0.0000 C   0  0  0  0  0  0  0  0  0  0  0  0
   16.1716   24.4291    0.0000 C   0  0  0  0  0  0  0  0  0  0  0  0
   16.1716   22.9291    0.0000 C   0  0  0  0  0  0  0  0  0  0  0  0
   16.0774   21.4321    0.0000 C   0  0  0  0  0  0  0  0  0  0  0  0
   15.8894   19.9439    0.0000 C   0  0  0  0  0  0  0  0  0  0  0  0
   15.6083   18.4705    0.0000 C   0  0  0  0  0  0  0  0  0  0  0  0
   15.2353   17.0176    0.0000 C   0  0  0  0  0  0  0  0  0  0  0  0
   14.7718   15.5910    0.0000 C   0  0  0  0  0  0  0  0  0  0  0  0
   14.2196   14.1963    0.0000 C   0  0  0  0  0  0  0  0  0  0  0  0
   13.5809   12.8391    0.0000 C   0  0  0  0  0  0  0  0  0  0  0  0
   12.8583   11.5246    0.0000 C   0  0  0  0  0  0  0  0  0  0  0  0
   12.0545   10.2581    0.0000 C   0  0  0  0  0  0  0  0  0  0  0  0
   11.1729    9.0446    0.0000 C   0  0  0  0  0  0  0  0  0  0  0  0
   10.2167    7.8888    0.0000 C   0  0  0  0  0  0  0  0  0  0  0  0
    9.1899    6.7954    0.0000 C   0  0  0  0  0  0  0  0  0  0  0  0
    8.0965    5.7686    0.0000 C   0  0  0  0  0  0  0  0  0  0  0  0
    6.9407    4.8124    0.0000 C   0  0  0  0  0  0  0  0  0  0  0  0
    5.7272    3.9308    0.0000 C   0  0  0  0  0  0  0  0  0  0  0  0
    4.4607    3.1270    0.0000 C   0  0  0  0  0  0  0  0  0  0  0  0
    3.1462    2.4044    0.0000 C   0  0  0  0  0  0  0  0  0  0  0  0
    1.7890    1.7657    0.0000 C   0  0  0  0  0  0  0  0  0  0  0  0
    0.3943    1.2135    0.0000 C   0  0  0  0  0  0  0  0  0  0  0  0
    1.2760    0.0000    0.0000 C   0  0  0  0  0  0  0  0  0  0  0  0
    0.3943   -1.2135    0.0000 C   0  0  0  0  0  0  0  0  0  0  0  0
   -1.0323   -0.7500    0.0000 C   0  0  0  0  0  0  0  0  0  0  0  0
   -1.0323    0.7500    0.0000 C   0  0  0  0  0  0  0  0  0  0  0  0
  1  2  1  0
  2  3  1  0
  3  4  1  0
  4  5  1  0
  5  6  1  0
  6  7  1  0
  7  8  1  0
  8  9  1  0
  9 10  1  0
 10 11  1  0
 11 12  1  0
 12 13  1  0
 13 14  1  0
 14 15  1  0
 15 16  1  0
 16 17  1  0
 17 18  1  0
 18 19  1  0
 19 20  1  0
 20 21  1  0
 21 22  1  0
 22 23  1  0
 23 24  1  0
 24 25  1  0
 25 26  1  0
 26 27  1  0
 27 28  1  0
 28 29  1  0
 29 30  1  0
 30 31  1  0
 31 32  1  0
 32 33  1  0
 33 34  1  0
 34 35  1  0
 35 36  1  0
 36 37  1  0
 37 38  1  0
 38 39  1  0
 39 40  1  0
 40 41  1  0
 41 42  1  0
 42 43  1  0
 43 44  1  0
 44 45  1  0
 45 46  1  0
 46 47  1  0
 47 48  1  0
 48 49  1  0
 49 50  1  0
 50 51  1  0
 51 52  1  0
 52 53  1  0
 53 54  1  0
 54 55  1  0
 55 56  1  0
 56 57  1  0
 57 58  1  0
 58 59  1  0
 59 60  1  0
 60 61  1  0
 61 62  1  0
 62 63  1  0
 63 64  1  0
 64 65  1  0
 65 66  1  0
 66 67  1  0
 67 68  1  0
 68 69  1  0
 69 70  1  0
 70 71  1  0
 71 72  1  0
 72 73  1  0
 73 74  1  0
 74 75  1  0
 75 76  1  0
 76 77  1  0
 77 78  1  0
 78 79  1  0
 79 80  1  0
 80 81  1  0
 81 82  2  0
 82 83  1  0
 83 84  2  0
 84 85  1  0
 85 86  2  0
 86 87  1  0
 87 88  2  0
 88 89  1  0
 89 90  2  0
 90 91  1  0
 91 92  2  0
 92 93  1  0
 93 94  2  0
 94 95  1  0
 95 96  2  0
 96 97  1  0
 97 98  2  0
 98 99  1  0
 99100  2  0
100101  1  0
101102  2  0
102103  1  0
103104  2  0
104  2  1  0
104100  1  0
M  END
>  <Title>  (378) 
idAAMPgen13

$$$$

     RDKit          2D

 38 43  0  0  0  0  0  0  0  0999 V2000
   -1.3240   -6.3062    0.0000 C   0  0  0  0  0  0  0  0  0  0  0  0
   -0.7500   -4.9204    0.0000 C   0  0  0  0  0  0  0  0  0  0  0  0
    0.7500   -4.9204    0.0000 C   0  0  0  0  0  0  0  0  0  0  0  0
    1.8107   -3.8597    0.0000 C   0  0  0  0  0  0  0  0  0  0  0  0
    1.8107   -2.3597    0.0000 C   0  0  0  0  0  0  0  0  0  0  0  0
    3.1965   -1.7857    0.0000 C   0  0  0  0  0  0  0  0  0  0  0  0
    3.5466   -0.3271    0.0000 N   0  0  0  0  0  0  0  0  0  0  0  0
    5.0420   -0.2094    0.0000 N   0  0  0  0  0  0  0  0  0  0  0  0
    5.6160   -1.5952    0.0000 N   0  0  0  0  0  0  0  0  0  0  0  0
    4.4754   -2.5694    0.0000 N   0  0  0  0  0  0  0  0  0  0  0  0
    4.5931   -4.0648    0.0000 C   0  0  0  0  0  0  0  0  0  0  0  0
    5.8721   -4.8485    0.0000 C   0  0  0  0  0  0  0  0  0  0  0  0
    5.5219   -6.3071    0.0000 C   0  0  0  0  0  0  0  0  0  0  0  0
    4.0265   -6.4248    0.0000 C   0  0  0  0  0  0  0  0  0  0  0  0
    3.2428   -7.7037    0.0000 O   0  0  0  0  0  0  0  0  0  0  0  0
    3.9585   -9.0220    0.0000 C   0  0  0  0  0  0  0  0  0  0  0  0
    5.4580   -9.0612    0.0000 O   0  0  0  0  0  0  0  0  0  0  0  0
    3.1748  -10.3009    0.0000 N   0  0  0  0  0  0  0  0  0  0  0  0
    3.8905  -11.6192    0.0000 C   0  0  0  0  0  0  0  0  0  0  0  0
    3.1068  -12.8981    0.0000 N   0  0  0  0  0  0  0  0  0  0  0  0
    3.8225  -14.2163    0.0000 N   0  0  0  0  0  0  0  0  0  0  0  0
    5.3220  -14.2556    0.0000 N   0  0  0  0  0  0  0  0  0  0  0  0
    6.1057  -12.9767    0.0000 N   0  0  0  0  0  0  0  0  0  0  0  0
    5.3900  -11.6584    0.0000 N   0  0  0  0  0  0  0  0  0  0  0  0
    3.4525   -5.0390    0.0000 C   0  0  0  0  0  0  0  0  0  0  0  0
    1.9940   -4.6888    0.0000 O   0  0  0  0  0  0  0  0  0  0  0  0
    0.7500   -1.2990    0.0000 C   0  0  0  0  0  0  0  0  0  0  0  0
    1.5000    0.0000    0.0000 C   0  0  0  0  0  0  0  0  0  0  0  0
    0.7500    1.2990    0.0000 C   0  0  0  0  0  0  0  0  0  0  0  0
   -0.7500    1.2990    0.0000 C   0  0  0  0  0  0  0  0  0  0  0  0
   -1.5000    0.0000    0.0000 C   0  0  0  0  0  0  0  0  0  0  0  0
   -0.7500   -1.2990    0.0000 C   0  0  0  0  0  0  0  0  0  0  0  0
   -1.8107   -2.3597    0.0000 C   0  0  0  0  0  0  0  0  0  0  0  0
   -3.1097   -1.6097    0.0000 C   0  0  0  0  0  0  0  0  0  0  0  0
   -4.4087   -2.3597    0.0000 C   0  0  0  0  0  0  0  0  0  0  0  0
   -4.4087   -3.8597    0.0000 C   0  0  0  0  0  0  0  0  0  0  0  0
   -3.1097   -4.6097    0.0000 C   0  0  0  0  0  0  0  0  0  0  0  0
   -1.8107   -3.8597    0.0000 C   0  0  0  0  0  0  0  0  0  0  0  0
  1  2  1  0
  2  3  2  0
  3  4  1  0
  4  5  2  0
  5  6  1  0
  6  7  2  0
  7  8  1  0
  8  9  2  0
  9 10  1  0
 10 11  1  0
 11 12  2  0
 12 13  1  0
 13 14  2  0
 14 15  1  0
 15 16  1  0
 16 17  2  0
 16 18  1  0
 18 19  1  0
 19 20  2  0
 20 21  1  0
 21 22  2  0
 22 23  1  0
 23 24  2  0
 14 25  1  0
 25 26  2  0
  5 27  1  0
 27 28  2  0
 28 29  1  0
 29 30  2  0
 30 31  1  0
 31 32  2  0
 32 33  1  0
 33 34  2  0
 34 35  1  0
 35 36  2  0
 36 37  1  0
 37 38  2  0
 38  2  1  0
 10  6  1  0
 25 11  1  0
 32 27  1  0
 38 33  1  0
 24 19  1  0
M  END
>  <Title>  (379) 
idAAMQgen13

$$$$

     RDKit          2D

  7  6  0  0  0  0  0  0  0  0999 V2000
    0.0000    0.0000    0.0000 C   0  0  0  0  0  0  0  0  0  0  0  0
    1.2990    0.7500    0.0000 C   0  0  0  0  0  0  0  0  0  0  0  0
    2.5981   -0.0000    0.0000 C   0  0  0  0  0  0  0  0  0  0  0  0
    3.8971    0.7500    0.0000 C   0  0  0  0  0  0  0  0  0  0  0  0
    5.1962   -0.0000    0.0000 C   0  0  0  0  0  0  0  0  0  0  0  0
    5.1962   -1.5000    0.0000 C   0  0  0  0  0  0  0  0  0  0  0  0
    6.4952    0.7500    0.0000 C   0  0  0  0  0  0  0  0  0  0  0  0
  1  2  2  0
  2  3  1  0
  3  4  2  3
  4  5  1  0
  5  6  2  0
  5  7  1  0
M  END
>  <Title>  (380) 
idAAMRgen13

$$$$

     RDKit          2D

 72 73  0  0  0  0  0  0  0  0999 V2000
   -2.3472    0.7565    0.0000 C   0  0  0  0  0  0  0  0  0  0  0  0
   -1.8087    2.1565    0.0000 C   0  0  0  0  0  0  0  0  0  0  0  0
   -3.1815    2.7610    0.0000 C   0  0  0  0  0  0  0  0  0  0  0  0
   -4.4906    3.4933    0.0000 C   0  0  0  0  0  0  0  0  0  0  0  0
   -5.7242    4.3467    0.0000 C   0  0  0  0  0  0  0  0  0  0  0  0
   -6.8711    5.3135    0.0000 C   0  0  0  0  0  0  0  0  0  0  0  0
   -7.9208    6.3849    0.0000 C   0  0  0  0  0  0  0  0  0  0  0  0
   -8.8640    7.5512    0.0000 C   0  0  0  0  0  0  0  0  0  0  0  0
   -9.6921    8.8020    0.0000 C   0  0  0  0  0  0  0  0  0  0  0  0
  -10.3975   10.1258    0.0000 C   0  0  0  0  0  0  0  0  0  0  0  0
  -10.9739   11.5106    0.0000 C   0  0  0  0  0  0  0  0  0  0  0  0
  -11.4160   12.9440    0.0000 C   0  0  0  0  0  0  0  0  0  0  0  0
  -11.7199   14.4129    0.0000 C   0  0  0  0  0  0  0  0  0  0  0  0
  -11.8828   15.9040    0.0000 C   0  0  0  0  0  0  0  0  0  0  0  0
  -11.9032   17.4038    0.0000 C   0  0  0  0  0  0  0  0  0  0  0  0
  -11.7809   18.8989    0.0000 C   0  0  0  0  0  0  0  0  0  0  0  0
  -11.5171   20.3755    0.0000 C   0  0  0  0  0  0  0  0  0  0  0  0
  -11.1141   21.8203    0.0000 C   0  0  0  0  0  0  0  0  0  0  0  0
  -10.5756   23.2203    0.0000 C   0  0  0  0  0  0  0  0  0  0  0  0
   -9.9064   24.5628    0.0000 C   0  0  0  0  0  0  0  0  0  0  0  0
   -9.1127   25.8356    0.0000 C   0  0  0  0  0  0  0  0  0  0  0  0
   -8.2016   27.0272    0.0000 C   0  0  0  0  0  0  0  0  0  0  0  0
   -7.1813   28.1268    0.0000 C   0  0  0  0  0  0  0  0  0  0  0  0
   -6.0612   29.1244    0.0000 C   0  0  0  0  0  0  0  0  0  0  0  0
   -4.8513   30.0110    0.0000 C   0  0  0  0  0  0  0  0  0  0  0  0
   -3.5625   30.7786    0.0000 C   0  0  0  0  0  0  0  0  0  0  0  0
   -2.2067   31.4202    0.0000 C   0  0  0  0  0  0  0  0  0  0  0  0
   -0.7960   31.9301    0.0000 C   0  0  0  0  0  0  0  0  0  0  0  0
    0.6568   32.3035    0.0000 C   0  0  0  0  0  0  0  0  0  0  0  0
    2.1385   32.5371    0.0000 C   0  0  0  0  0  0  0  0  0  0  0  0
    3.6357   32.6289    0.0000 C   0  0  0  0  0  0  0  0  0  0  0  0
    5.1348   32.5779    0.0000 C   0  0  0  0  0  0  0  0  0  0  0  0
    6.6223   32.3846    0.0000 C   0  0  0  0  0  0  0  0  0  0  0  0
    8.0847   32.0508    0.0000 C   0  0  0  0  0  0  0  0  0  0  0  0
    9.5087   31.5796    0.0000 C   0  0  0  0  0  0  0  0  0  0  0  0
   10.8815   30.9750    0.0000 C   0  0  0  0  0  0  0  0  0  0  0  0
   12.1906   30.2428    0.0000 C   0  0  0  0  0  0  0  0  0  0  0  0
   13.4242   29.3894    0.0000 C   0  0  0  0  0  0  0  0  0  0  0  0
   14.5711   28.4226    0.0000 C   0  0  0  0  0  0  0  0  0  0  0  0
   15.6209   27.3512    0.0000 C   0  0  0  0  0  0  0  0  0  0  0  0
   16.5641   26.1848    0.0000 C   0  0  0  0  0  0  0  0  0  0  0  0
   17.3921   24.9341    0.0000 C   0  0  0  0  0  0  0  0  0  0  0  0
   18.0975   23.6103    0.0000 C   0  0  0  0  0  0  0  0  0  0  0  0
   18.6739   22.2255    0.0000 C   0  0  0  0  0  0  0  0  0  0  0  0
   19.1160   20.7921    0.0000 C   0  0  0  0  0  0  0  0  0  0  0  0
   19.4199   19.3232    0.0000 C   0  0  0  0  0  0  0  0  0  0  0  0
   19.5828   17.8321    0.0000 C   0  0  0  0  0  0  0  0  0  0  0  0
   19.6032   16.3322    0.0000 C   0  0  0  0  0  0  0  0  0  0  0  0
   19.4809   14.8372    0.0000 C   0  0  0  0  0  0  0  0  0  0  0  0
   19.2171   13.3606    0.0000 C   0  0  0  0  0  0  0  0  0  0  0  0
   18.8141   11.9157    0.0000 C   0  0  0  0  0  0  0  0  0  0  0  0
   18.2756   10.5157    0.0000 C   0  0  0  0  0  0  0  0  0  0  0  0
   17.6065    9.1733    0.0000 C   0  0  0  0  0  0  0  0  0  0  0  0
   16.8128    7.9005    0.0000 C   0  0  0  0  0  0  0  0  0  0  0  0
   15.9016    6.7089    0.0000 C   0  0  0  0  0  0  0  0  0  0  0  0
   14.8814    5.6093    0.0000 C   0  0  0  0  0  0  0  0  0  0  0  0
   13.7612    4.6117    0.0000 C   0  0  0  0  0  0  0  0  0  0  0  0
   12.5513    3.7251    0.0000 C   0  0  0  0  0  0  0  0  0  0  0  0
   11.2626    2.9575    0.0000 C   0  0  0  0  0  0  0  0  0  0  0  0
    9.9067    2.3159    0.0000 C   0  0  0  0  0  0  0  0  0  0  0  0
    8.4960    1.8060    0.0000 C   0  0  0  0  0  0  0  0  0  0  0  0
    7.0433    1.4326    0.0000 C   0  0  0  0  0  0  0  0  0  0  0  0
    5.5616    1.1989    0.0000 C   0  0  0  0  0  0  0  0  0  0  0  0
    4.0644    1.1072    0.0000 C   0  0  0  0  0  0  0  0  0  0  0  0
    2.5652    1.1582    0.0000 C   0  0  0  0  0  0  0  0  0  0  0  0
    1.0777    1.3515    0.0000 C   0  0  0  0  0  0  0  0  0  0  0  0
    1.7286    0.0000    0.0000 C   0  0  0  0  0  0  0  0  0  0  0  0
    1.0777   -1.3515    0.0000 C   0  0  0  0  0  0  0  0  0  0  0  0
   -0.3846   -1.6852    0.0000 C   0  0  0  0  0  0  0  0  0  0  0  0
   -1.5574   -0.7500    0.0000 C   0  0  0  0  0  0  0  0  0  0  0  0
   -1.5574    0.7500    0.0000 C   0  0  0  0  0  0  0  0  0  0  0  0
   -0.3846    1.6852    0.0000 C   0  0  0  0  0  0  0  0  0  0  0  0
  1  2  1  0
  2  3  1  0
  3  4  1  0
  4  5  1  0
  5  6  1  0
  6  7  1  0
  7  8  1  0
  8  9  1  0
  9 10  1  0
 10 11  1  0
 11 12  1  0
 12 13  1  0
 13 14  1  0
 14 15  1  0
 15 16  1  0
 16 17  1  0
 17 18  1  0
 18 19  1  0
 19 20  1  0
 20 21  1  0
 21 22  1  0
 22 23  1  0
 23 24  1  0
 24 25  1  0
 25 26  1  0
 26 27  1  0
 27 28  1  0
 28 29  1  0
 29 30  1  0
 30 31  1  0
 31 32  1  0
 32 33  1  0
 33 34  1  0
 34 35  1  0
 35 36  1  0
 36 37  1  0
 37 38  1  0
 38 39  1  0
 39 40  1  0
 40 41  1  0
 41 42  1  0
 42 43  1  0
 43 44  1  0
 44 45  1  0
 45 46  1  0
 46 47  1  0
 47 48  1  0
 48 49  1  0
 49 50  1  0
 50 51  1  0
 51 52  1  0
 52 53  1  0
 53 54  1  0
 54 55  1  0
 55 56  1  0
 56 57  1  0
 57 58  1  0
 58 59  1  0
 59 60  1  0
 60 61  1  0
 61 62  1  0
 62 63  1  0
 63 64  1  0
 64 65  1  0
 65 66  1  0
 66 67  1  0
 67 68  2  0
 68 69  1  0
 69 70  2  0
 70 71  1  0
 71 72  2  0
 72  2  1  0
 72 66  1  0
M  END
>  <Title>  (381) 
idAAMSgen13

$$$$

     RDKit          2D

 47 53  0  0  0  0  0  0  0  0999 V2000
    3.1771   -5.9156    0.0000 C   0  0  0  0  0  0  0  0  0  0  0  0
    1.9635   -5.0339    0.0000 C   0  0  0  0  0  0  0  0  0  0  0  0
    2.4271   -3.6073    0.0000 C   0  0  0  0  0  0  0  0  0  0  0  0
    1.9635   -2.1807    0.0000 C   0  0  0  0  0  0  0  0  0  0  0  0
    3.1771   -1.2990    0.0000 C   0  0  0  0  0  0  0  0  0  0  0  0
    3.0203    0.1927    0.0000 O   0  0  0  0  0  0  0  0  0  0  0  0
    4.5474   -1.9091    0.0000 N   0  0  0  0  0  0  0  0  0  0  0  0
    5.7609   -1.0275    0.0000 C   0  0  0  0  0  0  0  0  0  0  0  0
    5.7609    0.4725    0.0000 N   0  0  0  0  0  0  0  0  0  0  0  0
    7.1875    0.9361    0.0000 N   0  0  0  0  0  0  0  0  0  0  0  0
    8.0692   -0.2775    0.0000 N   0  0  0  0  0  0  0  0  0  0  0  0
    7.1875   -1.4910    0.0000 N   0  0  0  0  0  0  0  0  0  0  0  0
    7.6510   -2.9176    0.0000 N   0  0  0  0  0  0  0  0  0  0  0  0
    9.0776   -3.3811    0.0000 C   0  0  0  0  0  0  0  0  0  0  0  0
    9.0776   -4.8811    0.0000 C   0  0  0  0  0  0  0  0  0  0  0  0
    7.6510   -5.3446    0.0000 N   0  0  0  0  0  0  0  0  0  0  0  0
    7.1875   -6.7712    0.0000 C   0  0  0  0  0  0  0  0  0  0  0  0
    8.1912   -7.8859    0.0000 O   0  0  0  0  0  0  0  0  0  0  0  0
    5.7203   -7.0831    0.0000 N   0  0  0  0  0  0  0  0  0  0  0  0
    5.2567   -8.5097    0.0000 C   0  0  0  0  0  0  0  0  0  0  0  0
    3.7895   -8.8215    0.0000 N   0  0  0  0  0  0  0  0  0  0  0  0
    3.3260  -10.2481    0.0000 N   0  0  0  0  0  0  0  0  0  0  0  0
    4.3297  -11.3628    0.0000 N   0  0  0  0  0  0  0  0  0  0  0  0
    5.7969  -11.0510    0.0000 N   0  0  0  0  0  0  0  0  0  0  0  0
    6.2604   -9.6244    0.0000 N   0  0  0  0  0  0  0  0  0  0  0  0
    6.7693   -4.1311    0.0000 C   0  0  0  0  0  0  0  0  0  0  0  0
    5.2693   -4.1311    0.0000 O   0  0  0  0  0  0  0  0  0  0  0  0
    0.7500   -1.2990    0.0000 C   0  0  0  0  0  0  0  0  0  0  0  0
    1.5000    0.0000    0.0000 C   0  0  0  0  0  0  0  0  0  0  0  0
    0.7500    1.2990    0.0000 C   0  0  0  0  0  0  0  0  0  0  0  0
   -0.7500    1.2990    0.0000 C   0  0  0  0  0  0  0  0  0  0  0  0
   -1.5000    0.0000    0.0000 C   0  0  0  0  0  0  0  0  0  0  0  0
   -0.7500   -1.2990    0.0000 C   0  0  0  0  0  0  0  0  0  0  0  0
   -1.9635   -2.1807    0.0000 C   0  0  0  0  0  0  0  0  0  0  0  0
   -2.9672   -1.0660    0.0000 C   0  0  0  0  0  0  0  0  0  0  0  0
   -4.4344   -1.3779    0.0000 C   0  0  0  0  0  0  0  0  0  0  0  0
   -4.8980   -2.8045    0.0000 C   0  0  0  0  0  0  0  0  0  0  0  0
   -3.8943   -3.9192    0.0000 C   0  0  0  0  0  0  0  0  0  0  0  0
   -2.4271   -3.6073    0.0000 C   0  0  0  0  0  0  0  0  0  0  0  0
   -1.9635   -5.0339    0.0000 C   0  0  0  0  0  0  0  0  0  0  0  0
   -3.3338   -5.6440    0.0000 C   0  0  0  0  0  0  0  0  0  0  0  0
   -3.4906   -7.1358    0.0000 C   0  0  0  0  0  0  0  0  0  0  0  0
   -2.2771   -8.0175    0.0000 C   0  0  0  0  0  0  0  0  0  0  0  0
   -0.9068   -7.4073    0.0000 C   0  0  0  0  0  0  0  0  0  0  0  0
   -0.7500   -5.9156    0.0000 C   0  0  0  0  0  0  0  0  0  0  0  0
    0.7500   -5.9156    0.0000 C   0  0  0  0  0  0  0  0  0  0  0  0
    1.2135   -7.3421    0.0000 C   0  0  0  0  0  0  0  0  0  0  0  0
  1  2  1  0
  2  3  1  0
  3  4  1  0
  4  5  1  0
  5  6  2  0
  5  7  1  0
  7  8  1  0
  8  9  2  0
  9 10  1  0
 10 11  2  0
 11 12  1  0
 12 13  1  0
 13 14  1  0
 14 15  1  0
 15 16  1  0
 16 17  1  0
 17 18  2  0
 17 19  1  0
 19 20  1  0
 20 21  2  0
 21 22  1  0
 22 23  2  0
 23 24  1  0
 24 25  2  0
 16 26  1  0
 26 27  2  0
  4 28  1  0
 28 29  2  0
 29 30  1  0
 30 31  2  0
 31 32  1  0
 32 33  2  0
 33 34  1  0
 34 35  2  0
 35 36  1  0
 36 37  2  0
 37 38  1  0
 38 39  2  0
 39 40  1  0
 40 41  2  0
 41 42  1  0
 42 43  2  0
 43 44  1  0
 44 45  2  0
 45 46  1  0
 46 47  1  0
 46  2  1  0
 12  8  1  0
 26 13  1  0
 33 28  1  0
 39 34  1  0
 45 40  1  0
 25 20  1  0
M  END
>  <Title>  (382) 
idAAMTgen13

$$$$

     RDKit          2D

 62 61  0  0  0  0  0  0  0  0999 V2000
    0.0000    0.0000    0.0000 C   0  0  0  0  0  0  0  0  0  0  0  0
   -0.0000   -1.5000    0.0000 C   0  0  0  0  0  0  0  0  0  0  0  0
   -0.0000   -3.0000    0.0000 C   0  0  0  0  0  0  0  0  0  0  0  0
   -0.0000   -4.5000    0.0000 C   0  0  0  0  0  0  0  0  0  0  0  0
   -0.0000   -6.0000    0.0000 C   0  0  0  0  0  0  0  0  0  0  0  0
   -0.0000   -7.5000    0.0000 C   0  0  0  0  0  0  0  0  0  0  0  0
   -0.0000   -9.0000    0.0000 C   0  0  0  0  0  0  0  0  0  0  0  0
   -0.0000  -10.5000    0.0000 C   0  0  0  0  0  0  0  0  0  0  0  0
   -0.0000  -12.0000    0.0000 C   0  0  0  0  0  0  0  0  0  0  0  0
   -0.0000  -13.5000    0.0000 C   0  0  0  0  0  0  0  0  0  0  0  0
   -0.0000  -15.0000    0.0000 C   0  0  0  0  0  0  0  0  0  0  0  0
   -0.0000  -16.5000    0.0000 C   0  0  0  0  0  0  0  0  0  0  0  0
   -0.0000  -18.0000    0.0000 C   0  0  0  0  0  0  0  0  0  0  0  0
   -0.0000  -19.5000    0.0000 C   0  0  0  0  0  0  0  0  0  0  0  0
   -0.0000  -21.0000    0.0000 C   0  0  0  0  0  0  0  0  0  0  0  0
   -0.0000  -22.5000    0.0000 C   0  0  0  0  0  0  0  0  0  0  0  0
   -0.0000  -24.0000    0.0000 C   0  0  0  0  0  0  0  0  0  0  0  0
   -0.0000  -25.5000    0.0000 C   0  0  0  0  0  0  0  0  0  0  0  0
   -0.0000  -27.0000    0.0000 C   0  0  0  0  0  0  0  0  0  0  0  0
   -0.0000  -28.5000    0.0000 C   0  0  0  0  0  0  0  0  0  0  0  0
   -0.0000  -30.0000    0.0000 C   0  0  0  0  0  0  0  0  0  0  0  0
   -0.0000  -31.5000    0.0000 C   0  0  0  0  0  0  0  0  0  0  0  0
   -0.0000  -33.0000    0.0000 C   0  0  0  0  0  0  0  0  0  0  0  0
   -0.0000  -34.5000    0.0000 C   0  0  0  0  0  0  0  0  0  0  0  0
   -0.0000  -36.0000    0.0000 C   0  0  0  0  0  0  0  0  0  0  0  0
   -0.0000  -37.5000    0.0000 C   0  0  0  0  0  0  0  0  0  0  0  0
   -0.0000  -39.0000    0.0000 C   0  0  0  0  0  0  0  0  0  0  0  0
   -0.0000  -40.5000    0.0000 C   0  0  0  0  0  0  0  0  0  0  0  0
   -0.0000  -42.0000    0.0000 C   0  0  0  0  0  0  0  0  0  0  0  0
   -0.0000  -43.5000    0.0000 C   0  0  0  0  0  0  0  0  0  0  0  0
   -0.0000  -45.0000    0.0000 C   0  0  0  0  0  0  0  0  0  0  0  0
   -0.0000  -46.5000    0.0000 C   0  0  0  0  0  0  0  0  0  0  0  0
   -0.0000  -48.0000    0.0000 C   0  0  0  0  0  0  0  0  0  0  0  0
   -0.0000  -49.5000    0.0000 C   0  0  0  0  0  0  0  0  0  0  0  0
   -0.0000  -51.0000    0.0000 C   0  0  0  0  0  0  0  0  0  0  0  0
   -0.0000  -52.5000    0.0000 C   0  0  0  0  0  0  0  0  0  0  0  0
   -0.0000  -54.0000    0.0000 C   0  0  0  0  0  0  0  0  0  0  0  0
   -0.0000  -55.5000    0.0000 C   0  0  0  0  0  0  0  0  0  0  0  0
   -0.0000  -57.0000    0.0000 C   0  0  0  0  0  0  0  0  0  0  0  0
   -0.0000  -58.5000    0.0000 C   0  0  0  0  0  0  0  0  0  0  0  0
   -0.0000  -60.0000    0.0000 C   0  0  0  0  0  0  0  0  0  0  0  0
   -0.0000  -61.5000    0.0000 C   0  0  0  0  0  0  0  0  0  0  0  0
   -0.0000  -63.0000    0.0000 C   0  0  0  0  0  0  0  0  0  0  0  0
   -0.0000  -64.5000    0.0000 C   0  0  0  0  0  0  0  0  0  0  0  0
   -0.0000  -66.0000    0.0000 C   0  0  0  0  0  0  0  0  0  0  0  0
   -0.0000  -67.5000    0.0000 C   0  0  0  0  0  0  0  0  0  0  0  0
   -0.0000  -69.0000    0.0000 C   0  0  0  0  0  0  0  0  0  0  0  0
   -0.0000  -70.5000    0.0000 C   0  0  0  0  0  0  0  0  0  0  0  0
   -0.0000  -72.0000    0.0000 C   0  0  0  0  0  0  0  0  0  0  0  0
   -0.0000  -73.5000    0.0000 C   0  0  0  0  0  0  0  0  0  0  0  0
   -0.0000  -75.0000    0.0000 C   0  0  0  0  0  0  0  0  0  0  0  0
   -0.0000  -76.5000    0.0000 C   0  0  0  0  0  0  0  0  0  0  0  0
   -0.0000  -78.0000    0.0000 C   0  0  0  0  0  0  0  0  0  0  0  0
   -0.0000  -79.5000    0.0000 C   0  0  0  0  0  0  0  0  0  0  0  0
   -0.0000  -81.0000    0.0000 C   0  0  0  0  0  0  0  0  0  0  0  0
   -0.0000  -82.5000    0.0000 C   0  0  0  0  0  0  0  0  0  0  0  0
   -0.0000  -84.0000    0.0000 C   0  0  0  0  0  0  0  0  0  0  0  0
   -0.0000  -85.5000    0.0000 C   0  0  0  0  0  0  0  0  0  0  0  0
   -0.0000  -87.0000    0.0000 C   0  0  0  0  0  0  0  0  0  0  0  0
   -0.0000  -88.5000    0.0000 C   0  0  0  0  0  0  0  0  0  0  0  0
   -0.0000  -90.0000    0.0000 C   0  0  0  0  0  0  0  0  0  0  0  0
   -0.0000  -91.5000    0.0000 C   0  0  0  0  0  0  0  0  0  0  0  0
  1  2  3  0
  2  3  1  0
  3  4  3  0
  4  5  1  0
  5  6  3  0
  6  7  1  0
  7  8  3  0
  8  9  1  0
  9 10  3  0
 10 11  1  0
 11 12  3  0
 12 13  1  0
 13 14  3  0
 14 15  1  0
 15 16  3  0
 16 17  1  0
 17 18  3  0
 18 19  1  0
 19 20  3  0
 20 21  1  0
 21 22  3  0
 22 23  1  0
 23 24  3  0
 24 25  1  0
 25 26  3  0
 26 27  1  0
 27 28  3  0
 28 29  1  0
 29 30  3  0
 30 31  1  0
 31 32  3  0
 32 33  1  0
 33 34  3  0
 34 35  1  0
 35 36  3  0
 36 37  1  0
 37 38  3  0
 38 39  1  0
 39 40  3  0
 40 41  1  0
 41 42  3  0
 42 43  1  0
 43 44  3  0
 44 45  1  0
 45 46  3  0
 46 47  1  0
 47 48  3  0
 48 49  1  0
 49 50  3  0
 50 51  1  0
 51 52  3  0
 52 53  1  0
 53 54  3  0
 54 55  1  0
 55 56  3  0
 56 57  1  0
 57 58  3  0
 58 59  1  0
 59 60  3  0
 60 61  1  0
 61 62  3  0
M  END
>  <Title>  (383) 
idAAMUgen13

$$$$

     RDKit          2D

 73 75  0  0  0  0  0  0  0  0999 V2000
    1.8022    7.2275    0.0000 C   0  0  0  0  0  0  0  0  0  0  0  0
    3.3022    7.2275    0.0000 C   0  0  0  0  0  0  0  0  0  0  0  0
    3.3983    8.7245    0.0000 C   0  0  0  0  0  0  0  0  0  0  0  0
    3.6851   10.1968    0.0000 C   0  0  0  0  0  0  0  0  0  0  0  0
    4.1577   11.6204    0.0000 C   0  0  0  0  0  0  0  0  0  0  0  0
    4.8086   12.9718    0.0000 C   0  0  0  0  0  0  0  0  0  0  0  0
    5.6269   14.2290    0.0000 C   0  0  0  0  0  0  0  0  0  0  0  0
    6.5992   15.3711    0.0000 C   0  0  0  0  0  0  0  0  0  0  0  0
    7.7096   16.3796    0.0000 C   0  0  0  0  0  0  0  0  0  0  0  0
    8.9399   17.2378    0.0000 C   0  0  0  0  0  0  0  0  0  0  0  0
   10.2698   17.9316    0.0000 C   0  0  0  0  0  0  0  0  0  0  0  0
   11.6775   18.4496    0.0000 C   0  0  0  0  0  0  0  0  0  0  0  0
   13.1399   18.7834    0.0000 C   0  0  0  0  0  0  0  0  0  0  0  0
   14.6329   18.9274    0.0000 C   0  0  0  0  0  0  0  0  0  0  0  0
   16.1322   18.8794    0.0000 C   0  0  0  0  0  0  0  0  0  0  0  0
   17.6130   18.6400    0.0000 C   0  0  0  0  0  0  0  0  0  0  0  0
   19.0510   18.2132    0.0000 C   0  0  0  0  0  0  0  0  0  0  0  0
   20.4226   17.6060    0.0000 C   0  0  0  0  0  0  0  0  0  0  0  0
   21.7053   16.8284    0.0000 C   0  0  0  0  0  0  0  0  0  0  0  0
   22.8780   15.8932    0.0000 C   0  0  0  0  0  0  0  0  0  0  0  0
   23.9216   14.8156    0.0000 C   0  0  0  0  0  0  0  0  0  0  0  0
   24.8187   13.6135    0.0000 C   0  0  0  0  0  0  0  0  0  0  0  0
   25.5548   12.3065    0.0000 C   0  0  0  0  0  0  0  0  0  0  0  0
   26.1177   10.9162    0.0000 C   0  0  0  0  0  0  0  0  0  0  0  0
   26.4982    9.4652    0.0000 C   0  0  0  0  0  0  0  0  0  0  0  0
   26.6900    7.9775    0.0000 C   0  0  0  0  0  0  0  0  0  0  0  0
   26.6900    6.4775    0.0000 C   0  0  0  0  0  0  0  0  0  0  0  0
   26.4982    4.9899    0.0000 C   0  0  0  0  0  0  0  0  0  0  0  0
   26.1177    3.5389    0.0000 C   0  0  0  0  0  0  0  0  0  0  0  0
   25.5548    2.1485    0.0000 C   0  0  0  0  0  0  0  0  0  0  0  0
   24.8187    0.8416    0.0000 C   0  0  0  0  0  0  0  0  0  0  0  0
   23.9216   -0.3606    0.0000 C   0  0  0  0  0  0  0  0  0  0  0  0
   22.8780   -1.4381    0.0000 C   0  0  0  0  0  0  0  0  0  0  0  0
   21.7053   -2.3733    0.0000 C   0  0  0  0  0  0  0  0  0  0  0  0
   20.4226   -3.1509    0.0000 C   0  0  0  0  0  0  0  0  0  0  0  0
   19.0510   -3.7581    0.0000 C   0  0  0  0  0  0  0  0  0  0  0  0
   17.6130   -4.1849    0.0000 C   0  0  0  0  0  0  0  0  0  0  0  0
   16.1322   -4.4243    0.0000 C   0  0  0  0  0  0  0  0  0  0  0  0
   14.6329   -4.4724    0.0000 C   0  0  0  0  0  0  0  0  0  0  0  0
   13.1399   -4.3283    0.0000 C   0  0  0  0  0  0  0  0  0  0  0  0
   11.6775   -3.9945    0.0000 C   0  0  0  0  0  0  0  0  0  0  0  0
   10.2698   -3.4765    0.0000 C   0  0  0  0  0  0  0  0  0  0  0  0
    8.9399   -2.7827    0.0000 C   0  0  0  0  0  0  0  0  0  0  0  0
    7.7096   -1.9245    0.0000 C   0  0  0  0  0  0  0  0  0  0  0  0
    6.5992   -0.9161    0.0000 C   0  0  0  0  0  0  0  0  0  0  0  0
    5.6269    0.2261    0.0000 C   0  0  0  0  0  0  0  0  0  0  0  0
    4.8086    1.4832    0.0000 C   0  0  0  0  0  0  0  0  0  0  0  0
    4.3321    0.0000    0.0000 C   0  0  0  0  0  0  0  0  0  0  0  0
    4.1397   -1.2769    0.0000 C   0  0  0  0  0  0  0  0  0  0  0  0
    3.5794   -2.4404    0.0000 C   0  0  0  0  0  0  0  0  0  0  0  0
    2.7010   -3.3870    0.0000 C   0  0  0  0  0  0  0  0  0  0  0  0
    1.5827   -4.0327    0.0000 C   0  0  0  0  0  0  0  0  0  0  0  0
    0.3237   -4.3200    0.0000 C   0  0  0  0  0  0  0  0  0  0  0  0
   -0.9640   -4.2235    0.0000 C   0  0  0  0  0  0  0  0  0  0  0  0
   -2.1661   -3.7517    0.0000 C   0  0  0  0  0  0  0  0  0  0  0  0
   -3.1757   -2.9466    0.0000 C   0  0  0  0  0  0  0  0  0  0  0  0
   -3.9031   -1.8796    0.0000 C   0  0  0  0  0  0  0  0  0  0  0  0
   -4.2837   -0.6457    0.0000 C   0  0  0  0  0  0  0  0  0  0  0  0
   -4.2837    0.6457    0.0000 C   0  0  0  0  0  0  0  0  0  0  0  0
   -3.9031    1.8796    0.0000 C   0  0  0  0  0  0  0  0  0  0  0  0
   -3.1757    2.9466    0.0000 C   0  0  0  0  0  0  0  0  0  0  0  0
   -2.1661    3.7517    0.0000 C   0  0  0  0  0  0  0  0  0  0  0  0
   -0.9640    4.2235    0.0000 C   0  0  0  0  0  0  0  0  0  0  0  0
    0.3237    4.3200    0.0000 C   0  0  0  0  0  0  0  0  0  0  0  0
    1.5827    4.0327    0.0000 C   0  0  0  0  0  0  0  0  0  0  0  0
    2.7010    3.3870    0.0000 C   0  0  0  0  0  0  0  0  0  0  0  0
    4.1577    2.8347    0.0000 C   0  0  0  0  0  0  0  0  0  0  0  0
    3.6851    4.2583    0.0000 C   0  0  0  0  0  0  0  0  0  0  0  0
    5.1035    3.7704    0.0000 C   0  0  0  0  0  0  0  0  0  0  0  0
    6.2352    4.7549    0.0000 C   0  0  0  0  0  0  0  0  0  0  0  0
    5.9485    6.2273    0.0000 C   0  0  0  0  0  0  0  0  0  0  0  0
    4.5301    6.7151    0.0000 C   0  0  0  0  0  0  0  0  0  0  0  0
    3.3983    5.7306    0.0000 C   0  0  0  0  0  0  0  0  0  0  0  0
  1  2  1  0
  2  3  1  0
  3  4  1  0
  4  5  1  0
  5  6  1  0
  6  7  1  0
  7  8  1  0
  8  9  1  0
  9 10  1  0
 10 11  1  0
 11 12  1  0
 12 13  1  0
 13 14  1  0
 14 15  1  0
 15 16  1  0
 16 17  1  0
 17 18  1  0
 18 19  1  0
 19 20  1  0
 20 21  1  0
 21 22  1  0
 22 23  1  0
 23 24  1  0
 24 25  1  0
 25 26  1  0
 26 27  1  0
 27 28  1  0
 28 29  1  0
 29 30  1  0
 30 31  1  0
 31 32  1  0
 32 33  1  0
 33 34  1  0
 34 35  1  0
 35 36  1  0
 36 37  1  0
 37 38  1  0
 38 39  1  0
 39 40  1  0
 40 41  1  0
 41 42  1  0
 42 43  1  0
 43 44  1  0
 44 45  1  0
 45 46  1  0
 46 47  1  0
 47 48  1  0
 48 49  2  0
 49 50  1  0
 50 51  2  0
 51 52  1  0
 52 53  2  0
 53 54  1  0
 54 55  2  0
 55 56  1  0
 56 57  2  0
 57 58  1  0
 58 59  2  0
 59 60  1  0
 60 61  2  0
 61 62  1  0
 62 63  2  0
 63 64  1  0
 64 65  2  0
 65 66  1  0
 66 67  2  0
 67 68  1  0
 68 69  2  0
 69 70  1  0
 70 71  2  0
 71 72  1  0
 72 73  2  0
 73  2  1  0
 67 47  1  0
 73 68  1  0
M  END
>  <Title>  (384) 
idAAMVgen13

$$$$

     RDKit          2D

 10  9  0  0  0  0  0  0  0  0999 V2000
    0.0000    0.0000    0.0000 C   0  0  0  0  0  0  0  0  0  0  0  0
   -0.0000   -1.5000    0.0000 C   0  0  0  0  0  0  0  0  0  0  0  0
   -0.0000   -3.0000    0.0000 C   0  0  0  0  0  0  0  0  0  0  0  0
   -0.0000   -4.5000    0.0000 C   0  0  0  0  0  0  0  0  0  0  0  0
   -0.0000   -6.0000    0.0000 C   0  0  0  0  0  0  0  0  0  0  0  0
    1.2990   -6.7500    0.0000 C   0  0  0  0  0  0  0  0  0  0  0  0
    1.2990   -8.2500    0.0000 C   0  0  0  0  0  0  0  0  0  0  0  0
    2.5981   -9.0000    0.0000 C   0  0  0  0  0  0  0  0  0  0  0  0
    2.5981  -10.5000    0.0000 C   0  0  0  0  0  0  0  0  0  0  0  0
    3.8971   -8.2500    0.0000 C   0  0  0  0  0  0  0  0  0  0  0  0
  1  2  3  0
  2  3  1  0
  3  4  3  0
  4  5  1  0
  5  6  1  0
  6  7  2  3
  7  8  1  0
  8  9  1  0
  8 10  1  0
M  END
>  <Title>  (385) 
idAAMWgen13

$$$$

     RDKit          2D

 88 89  0  0  0  0  0  0  0  0999 V2000
   10.7321   -4.5123    0.0000 C   0  0  0  0  0  0  0  0  0  0  0  0
   11.5281   -4.4699    0.0000 C   0  0  0  0  0  0  0  0  0  0  0  0
   11.7281   -5.9565    0.0000 C   0  0  0  0  0  0  0  0  0  0  0  0
   12.1640   -7.3918    0.0000 C   0  0  0  0  0  0  0  0  0  0  0  0
   12.8244   -8.7386    0.0000 C   0  0  0  0  0  0  0  0  0  0  0  0
   13.6924   -9.9620    0.0000 C   0  0  0  0  0  0  0  0  0  0  0  0
   14.7453  -11.0303    0.0000 C   0  0  0  0  0  0  0  0  0  0  0  0
   15.9560  -11.9159    0.0000 C   0  0  0  0  0  0  0  0  0  0  0  0
   17.2931  -12.5958    0.0000 C   0  0  0  0  0  0  0  0  0  0  0  0
   18.7219  -13.0524    0.0000 C   0  0  0  0  0  0  0  0  0  0  0  0
   20.2054  -13.2739    0.0000 C   0  0  0  0  0  0  0  0  0  0  0  0
   21.7053  -13.2546    0.0000 C   0  0  0  0  0  0  0  0  0  0  0  0
   23.1826  -12.9949    0.0000 C   0  0  0  0  0  0  0  0  0  0  0  0
   24.5992  -12.5016    0.0000 C   0  0  0  0  0  0  0  0  0  0  0  0
   25.9183  -11.7875    0.0000 C   0  0  0  0  0  0  0  0  0  0  0  0
   27.1057  -10.8710    0.0000 C   0  0  0  0  0  0  0  0  0  0  0  0
   28.1308   -9.7759    0.0000 C   0  0  0  0  0  0  0  0  0  0  0  0
   28.9669   -8.5305    0.0000 C   0  0  0  0  0  0  0  0  0  0  0  0
   29.5924   -7.1672    0.0000 C   0  0  0  0  0  0  0  0  0  0  0  0
   29.9912   -5.7211    0.0000 C   0  0  0  0  0  0  0  0  0  0  0  0
   30.1528   -4.2299    0.0000 C   0  0  0  0  0  0  0  0  0  0  0  0
   30.0730   -2.7320    0.0000 C   0  0  0  0  0  0  0  0  0  0  0  0
   29.7541   -1.2663    0.0000 C   0  0  0  0  0  0  0  0  0  0  0  0
   29.2042    0.1293    0.0000 C   0  0  0  0  0  0  0  0  0  0  0  0
   28.4375    1.4185    0.0000 C   0  0  0  0  0  0  0  0  0  0  0  0
   27.4739    2.5681    0.0000 C   0  0  0  0  0  0  0  0  0  0  0  0
   26.3384    3.5483    0.0000 C   0  0  0  0  0  0  0  0  0  0  0  0
   25.0604    4.3336    0.0000 C   0  0  0  0  0  0  0  0  0  0  0  0
   23.6730    4.9037    0.0000 C   0  0  0  0  0  0  0  0  0  0  0  0
   22.2121    5.2438    0.0000 C   0  0  0  0  0  0  0  0  0  0  0  0
   20.7155    5.3453    0.0000 C   0  0  0  0  0  0  0  0  0  0  0  0
   19.2220    5.2053    0.0000 C   0  0  0  0  0  0  0  0  0  0  0  0
   17.7704    4.8276    0.0000 C   0  0  0  0  0  0  0  0  0  0  0  0
   16.3981    4.2219    0.0000 C   0  0  0  0  0  0  0  0  0  0  0  0
   15.1407    3.4039    0.0000 C   0  0  0  0  0  0  0  0  0  0  0  0
   14.0309    2.3949    0.0000 C   0  0  0  0  0  0  0  0  0  0  0  0
   13.0973    1.2208    0.0000 C   0  0  0  0  0  0  0  0  0  0  0  0
   12.3641   -0.0878    0.0000 C   0  0  0  0  0  0  0  0  0  0  0  0
   11.8503   -1.4970    0.0000 C   0  0  0  0  0  0  0  0  0  0  0  0
   11.2445    0.0000    0.0000 C   0  0  0  0  0  0  0  0  0  0  0  0
   11.1558    1.4093    0.0000 C   0  0  0  0  0  0  0  0  0  0  0  0
   10.8912    2.7964    0.0000 C   0  0  0  0  0  0  0  0  0  0  0  0
   10.4549    4.1394    0.0000 C   0  0  0  0  0  0  0  0  0  0  0  0
    9.8536    5.4171    0.0000 C   0  0  0  0  0  0  0  0  0  0  0  0
    9.0970    6.6093    0.0000 C   0  0  0  0  0  0  0  0  0  0  0  0
    8.1969    7.6974    0.0000 C   0  0  0  0  0  0  0  0  0  0  0  0
    7.1675    8.6640    0.0000 C   0  0  0  0  0  0  0  0  0  0  0  0
    6.0251    9.4940    0.0000 C   0  0  0  0  0  0  0  0  0  0  0  0
    4.7877   10.1743    0.0000 C   0  0  0  0  0  0  0  0  0  0  0  0
    3.4747   10.6941    0.0000 C   0  0  0  0  0  0  0  0  0  0  0  0
    2.1070   11.0453    0.0000 C   0  0  0  0  0  0  0  0  0  0  0  0
    0.7060   11.2223    0.0000 C   0  0  0  0  0  0  0  0  0  0  0  0
   -0.7060   11.2223    0.0000 C   0  0  0  0  0  0  0  0  0  0  0  0
   -2.1070   11.0453    0.0000 C   0  0  0  0  0  0  0  0  0  0  0  0
   -3.4747   10.6941    0.0000 C   0  0  0  0  0  0  0  0  0  0  0  0
   -4.7877   10.1743    0.0000 C   0  0  0  0  0  0  0  0  0  0  0  0
   -6.0251    9.4940    0.0000 C   0  0  0  0  0  0  0  0  0  0  0  0
   -7.1675    8.6640    0.0000 C   0  0  0  0  0  0  0  0  0  0  0  0
   -8.1969    7.6974    0.0000 C   0  0  0  0  0  0  0  0  0  0  0  0
   -9.0970    6.6093    0.0000 C   0  0  0  0  0  0  0  0  0  0  0  0
   -9.8536    5.4171    0.0000 C   0  0  0  0  0  0  0  0  0  0  0  0
  -10.4549    4.1394    0.0000 C   0  0  0  0  0  0  0  0  0  0  0  0
  -10.8912    2.7964    0.0000 C   0  0  0  0  0  0  0  0  0  0  0  0
  -11.1558    1.4093    0.0000 C   0  0  0  0  0  0  0  0  0  0  0  0
  -11.2445    0.0000    0.0000 C   0  0  0  0  0  0  0  0  0  0  0  0
  -11.1558   -1.4093    0.0000 C   0  0  0  0  0  0  0  0  0  0  0  0
  -10.8912   -2.7964    0.0000 C   0  0  0  0  0  0  0  0  0  0  0  0
  -10.4549   -4.1394    0.0000 C   0  0  0  0  0  0  0  0  0  0  0  0
   -9.8536   -5.4171    0.0000 C   0  0  0  0  0  0  0  0  0  0  0  0
   -9.0970   -6.6093    0.0000 C   0  0  0  0  0  0  0  0  0  0  0  0
   -8.1969   -7.6974    0.0000 C   0  0  0  0  0  0  0  0  0  0  0  0
   -7.1675   -8.6640    0.0000 C   0  0  0  0  0  0  0  0  0  0  0  0
   -6.0251   -9.4940    0.0000 C   0  0  0  0  0  0  0  0  0  0  0  0
   -4.7877  -10.1743    0.0000 C   0  0  0  0  0  0  0  0  0  0  0  0
   -3.4747  -10.6941    0.0000 C   0  0  0  0  0  0  0  0  0  0  0  0
   -2.1070  -11.0453    0.0000 C   0  0  0  0  0  0  0  0  0  0  0  0
   -0.7060  -11.2223    0.0000 C   0  0  0  0  0  0  0  0  0  0  0  0
    0.7060  -11.2223    0.0000 C   0  0  0  0  0  0  0  0  0  0  0  0
    2.1070  -11.0453    0.0000 C   0  0  0  0  0  0  0  0  0  0  0  0
    3.4747  -10.6941    0.0000 C   0  0  0  0  0  0  0  0  0  0  0  0
    4.7877  -10.1743    0.0000 C   0  0  0  0  0  0  0  0  0  0  0  0
    6.0251   -9.4940    0.0000 C   0  0  0  0  0  0  0  0  0  0  0  0
    7.1675   -8.6640    0.0000 C   0  0  0  0  0  0  0  0  0  0  0  0
    8.1969   -7.6974    0.0000 C   0  0  0  0  0  0  0  0  0  0  0  0
    9.0970   -6.6093    0.0000 C   0  0  0  0  0  0  0  0  0  0  0  0
    9.8536   -5.4171    0.0000 C   0  0  0  0  0  0  0  0  0  0  0  0
   10.4549   -4.1394    0.0000 C   0  0  0  0  0  0  0  0  0  0  0  0
   11.5692   -2.9705    0.0000 C   0  0  0  0  0  0  0  0  0  0  0  0
  1  2  1  0
  2  3  1  0
  3  4  2  0
  4  5  1  0
  5  6  1  0
  6  7  1  0
  7  8  1  0
  8  9  1  0
  9 10  1  0
 10 11  1  0
 11 12  1  0
 12 13  1  0
 13 14  1  0
 14 15  1  0
 15 16  1  0
 16 17  1  0
 17 18  1  0
 18 19  1  0
 19 20  1  0
 20 21  1  0
 21 22  1  0
 22 23  1  0
 23 24  1  0
 24 25  1  0
 25 26  1  0
 26 27  1  0
 27 28  1  0
 28 29  1  0
 29 30  1  0
 30 31  1  0
 31 32  1  0
 32 33  1  0
 33 34  1  0
 34 35  1  0
 35 36  1  0
 36 37  1  0
 37 38  1  0
 38 39  1  0
 39 40  1  0
 40 41  1  0
 41 42  2  0
 42 43  1  0
 43 44  2  0
 44 45  1  0
 45 46  2  0
 46 47  1  0
 47 48  2  0
 48 49  1  0
 49 50  2  0
 50 51  1  0
 51 52  2  0
 52 53  1  0
 53 54  2  0
 54 55  1  0
 55 56  2  0
 56 57  1  0
 57 58  2  0
 58 59  1  0
 59 60  2  0
 60 61  1  0
 61 62  2  0
 62 63  1  0
 63 64  2  0
 64 65  1  0
 65 66  2  0
 66 67  1  0
 67 68  2  0
 68 69  1  0
 69 70  2  0
 70 71  1  0
 71 72  2  0
 72 73  1  0
 73 74  2  0
 74 75  1  0
 75 76  2  0
 76 77  1  0
 77 78  2  0
 78 79  1  0
 79 80  2  0
 80 81  1  0
 81 82  2  0
 82 83  1  0
 83 84  2  0
 84 85  1  0
 85 86  2  0
 86 87  1  0
 87 88  2  0
 88  2  1  0
 88 39  1  0
M  END
>  <Title>  (386) 
idAAMXgen13

$$$$

     RDKit          2D

 71 72  0  0  0  0  0  0  0  0999 V2000
   -2.2371   -1.0554    0.0000 C   0  0  0  0  0  0  0  0  0  0  0  0
   -2.4960    0.4221    0.0000 C   0  0  0  0  0  0  0  0  0  0  0  0
   -3.9840    0.2327    0.0000 C   0  0  0  0  0  0  0  0  0  0  0  0
   -5.4832    0.1835    0.0000 C   0  0  0  0  0  0  0  0  0  0  0  0
   -6.9804    0.2749    0.0000 C   0  0  0  0  0  0  0  0  0  0  0  0
   -8.4625    0.5060    0.0000 C   0  0  0  0  0  0  0  0  0  0  0  0
   -9.9164    0.8750    0.0000 C   0  0  0  0  0  0  0  0  0  0  0  0
  -11.3294    1.3785    0.0000 C   0  0  0  0  0  0  0  0  0  0  0  0
  -12.6890    2.0120    0.0000 C   0  0  0  0  0  0  0  0  0  0  0  0
  -13.9833    2.7701    0.0000 C   0  0  0  0  0  0  0  0  0  0  0  0
  -15.2010    3.6461    0.0000 C   0  0  0  0  0  0  0  0  0  0  0  0
  -16.3313    4.6323    0.0000 C   0  0  0  0  0  0  0  0  0  0  0  0
  -17.3642    5.7199    0.0000 C   0  0  0  0  0  0  0  0  0  0  0  0
  -18.2908    6.8995    0.0000 C   0  0  0  0  0  0  0  0  0  0  0  0
  -19.1028    8.1607    0.0000 C   0  0  0  0  0  0  0  0  0  0  0  0
  -19.7932    9.4924    0.0000 C   0  0  0  0  0  0  0  0  0  0  0  0
  -20.3558   10.8829    0.0000 C   0  0  0  0  0  0  0  0  0  0  0  0
  -20.7858   12.3199    0.0000 C   0  0  0  0  0  0  0  0  0  0  0  0
  -21.0793   13.7909    0.0000 C   0  0  0  0  0  0  0  0  0  0  0  0
  -21.2337   15.2830    0.0000 C   0  0  0  0  0  0  0  0  0  0  0  0
  -21.2478   16.7829    0.0000 C   0  0  0  0  0  0  0  0  0  0  0  0
  -21.1213   18.2776    0.0000 C   0  0  0  0  0  0  0  0  0  0  0  0
  -20.8555   19.7538    0.0000 C   0  0  0  0  0  0  0  0  0  0  0  0
  -20.4526   21.1987    0.0000 C   0  0  0  0  0  0  0  0  0  0  0  0
  -19.9161   22.5995    0.0000 C   0  0  0  0  0  0  0  0  0  0  0  0
  -19.2508   23.9439    0.0000 C   0  0  0  0  0  0  0  0  0  0  0  0
  -18.4626   25.2201    0.0000 C   0  0  0  0  0  0  0  0  0  0  0  0
  -17.5583   26.4169    0.0000 C   0  0  0  0  0  0  0  0  0  0  0  0
  -16.5459   27.5237    0.0000 C   0  0  0  0  0  0  0  0  0  0  0  0
  -15.4344   28.5309    0.0000 C   0  0  0  0  0  0  0  0  0  0  0  0
  -14.2334   29.4295    0.0000 C   0  0  0  0  0  0  0  0  0  0  0  0
  -12.9535   30.2118    0.0000 C   0  0  0  0  0  0  0  0  0  0  0  0
  -11.6060   30.8707    0.0000 C   0  0  0  0  0  0  0  0  0  0  0  0
  -10.2027   31.4006    0.0000 C   0  0  0  0  0  0  0  0  0  0  0  0
   -8.7559   31.7968    0.0000 C   0  0  0  0  0  0  0  0  0  0  0  0
   -7.2785   32.0557    0.0000 C   0  0  0  0  0  0  0  0  0  0  0  0
   -5.7832   32.1751    0.0000 C   0  0  0  0  0  0  0  0  0  0  0  0
   -4.2834   32.1540    0.0000 C   0  0  0  0  0  0  0  0  0  0  0  0
   -2.7921   31.9926    0.0000 C   0  0  0  0  0  0  0  0  0  0  0  0
   -1.3225   31.6922    0.0000 C   0  0  0  0  0  0  0  0  0  0  0  0
    0.1126   31.2555    0.0000 C   0  0  0  0  0  0  0  0  0  0  0  0
    1.5004   30.6864    0.0000 C   0  0  0  0  0  0  0  0  0  0  0  0
    2.8288   29.9898    0.0000 C   0  0  0  0  0  0  0  0  0  0  0  0
    4.0862   29.1718    0.0000 C   0  0  0  0  0  0  0  0  0  0  0  0
    5.2614   28.2397    0.0000 C   0  0  0  0  0  0  0  0  0  0  0  0
    6.3442   27.2017    0.0000 C   0  0  0  0  0  0  0  0  0  0  0  0
    7.3251   26.0668    0.0000 C   0  0  0  0  0  0  0  0  0  0  0  0
    8.1953   24.8451    0.0000 C   0  0  0  0  0  0  0  0  0  0  0  0
    8.9474   23.5472    0.0000 C   0  0  0  0  0  0  0  0  0  0  0  0
    9.5746   22.1846    0.0000 C   0  0  0  0  0  0  0  0  0  0  0  0
   10.0714   20.7693    0.0000 C   0  0  0  0  0  0  0  0  0  0  0  0
   10.4335   19.3137    0.0000 C   0  0  0  0  0  0  0  0  0  0  0  0
   10.6578   17.8305    0.0000 C   0  0  0  0  0  0  0  0  0  0  0  0
   10.7421   16.3329    0.0000 C   0  0  0  0  0  0  0  0  0  0  0  0
   10.6859   14.8339    0.0000 C   0  0  0  0  0  0  0  0  0  0  0  0
   10.4895   13.3468    0.0000 C   0  0  0  0  0  0  0  0  0  0  0  0
   10.1547   11.8847    0.0000 C   0  0  0  0  0  0  0  0  0  0  0  0
    9.6845   10.4603    0.0000 C   0  0  0  0  0  0  0  0  0  0  0  0
    9.0830    9.0862    0.0000 C   0  0  0  0  0  0  0  0  0  0  0  0
    8.3554    7.7744    0.0000 C   0  0  0  0  0  0  0  0  0  0  0  0
    7.5082    6.5366    0.0000 C   0  0  0  0  0  0  0  0  0  0  0  0
    6.5489    5.3835    0.0000 C   0  0  0  0  0  0  0  0  0  0  0  0
    5.4857    4.3253    0.0000 C   0  0  0  0  0  0  0  0  0  0  0  0
    4.3282    3.3714    0.0000 C   0  0  0  0  0  0  0  0  0  0  0  0
    3.0863    2.5300    0.0000 C   0  0  0  0  0  0  0  0  0  0  0  0
    1.7712    1.8086    0.0000 C   0  0  0  0  0  0  0  0  0  0  0  0
    0.3943    1.2135    0.0000 C   0  0  0  0  0  0  0  0  0  0  0  0
    1.2760    0.0000    0.0000 C   0  0  0  0  0  0  0  0  0  0  0  0
    0.3943   -1.2135    0.0000 C   0  0  0  0  0  0  0  0  0  0  0  0
   -1.0323   -0.7500    0.0000 C   0  0  0  0  0  0  0  0  0  0  0  0
   -1.0323    0.7500    0.0000 C   0  0  0  0  0  0  0  0  0  0  0  0
  1  2  1  0
  2  3  1  0
  3  4  1  0
  4  5  1  0
  5  6  1  0
  6  7  1  0
  7  8  1  0
  8  9  1  0
  9 10  1  0
 10 11  1  0
 11 12  1  0
 12 13  1  0
 13 14  1  0
 14 15  1  0
 15 16  1  0
 16 17  1  0
 17 18  1  0
 18 19  1  0
 19 20  1  0
 20 21  1  0
 21 22  1  0
 22 23  1  0
 23 24  1  0
 24 25  1  0
 25 26  1  0
 26 27  1  0
 27 28  1  0
 28 29  1  0
 29 30  1  0
 30 31  1  0
 31 32  1  0
 32 33  1  0
 33 34  1  0
 34 35  1  0
 35 36  1  0
 36 37  1  0
 37 38  1  0
 38 39  1  0
 39 40  1  0
 40 41  1  0
 41 42  1  0
 42 43  1  0
 43 44  1  0
 44 45  1  0
 45 46  1  0
 46 47  1  0
 47 48  1  0
 48 49  1  0
 49 50  1  0
 50 51  1  0
 51 52  1  0
 52 53  1  0
 53 54  1  0
 54 55  1  0
 55 56  1  0
 56 57  2  0
 57 58  1  0
 58 59  2  0
 59 60  1  0
 60 61  2  0
 61 62  1  0
 62 63  2  0
 63 64  1  0
 64 65  2  0
 65 66  1  0
 66 67  2  0
 67 68  1  0
 68 69  2  0
 69 70  1  0
 70 71  2  0
 71  2  1  0
 71 67  1  0
M  END
>  <Title>  (387) 
idAAMYgen13

$$$$

     RDKit          2D

 14 15  0  0  0  0  0  0  0  0999 V2000
   -2.5081   -6.0187    0.0000 C   0  0  0  0  0  0  0  0  0  0  0  0
   -1.0409   -5.7068    0.0000 C   0  0  0  0  0  0  0  0  0  0  0  0
   -0.5773   -4.2803    0.0000 C   0  0  0  0  0  0  0  0  0  0  0  0
    0.8899   -3.9684    0.0000 C   0  0  0  0  0  0  0  0  0  0  0  0
    2.0046   -4.9721    0.0000 N   0  0  0  0  0  0  0  0  0  0  0  0
    3.3037   -4.2221    0.0000 N   0  0  0  0  0  0  0  0  0  0  0  0
    2.9918   -2.7549    0.0000 N   0  0  0  0  0  0  0  0  0  0  0  0
    1.5000   -2.5981    0.0000 N   0  0  0  0  0  0  0  0  0  0  0  0
    0.7500   -1.2990    0.0000 C   0  0  0  0  0  0  0  0  0  0  0  0
    1.5000    0.0000    0.0000 C   0  0  0  0  0  0  0  0  0  0  0  0
    0.7500    1.2990    0.0000 C   0  0  0  0  0  0  0  0  0  0  0  0
   -0.7500    1.2990    0.0000 C   0  0  0  0  0  0  0  0  0  0  0  0
   -1.5000    0.0000    0.0000 C   0  0  0  0  0  0  0  0  0  0  0  0
   -0.7500   -1.2990    0.0000 C   0  0  0  0  0  0  0  0  0  0  0  0
  1  2  2  0
  2  3  1  0
  3  4  1  0
  4  5  2  0
  5  6  1  0
  6  7  2  0
  7  8  1  0
  8  9  1  0
  9 10  2  0
 10 11  1  0
 11 12  2  0
 12 13  1  0
 13 14  2  0
  8  4  1  0
 14  9  1  0
M  END
>  <Title>  (388) 
idAAMZgen13

$$$$

     RDKit          2D

 17 18  0  0  0  0  0  0  0  0999 V2000
    8.0260    3.8971    0.0000 C   0  0  0  0  0  0  0  0  0  0  0  0
    7.2760    2.5981    0.0000 C   0  0  0  0  0  0  0  0  0  0  0  0
    5.7760    2.5981    0.0000 C   0  0  0  0  0  0  0  0  0  0  0  0
    5.0260    1.2990    0.0000 C   0  0  0  0  0  0  0  0  0  0  0  0
    3.5260    1.2990    0.0000 C   0  0  0  0  0  0  0  0  0  0  0  0
    2.7760    2.5981    0.0000 O   0  0  0  0  0  0  0  0  0  0  0  0
    2.7760    0.0000    0.0000 N   0  0  0  0  0  0  0  0  0  0  0  0
    1.2760    0.0000    0.0000 C   0  0  0  0  0  0  0  0  0  0  0  0
    0.3943    1.2135    0.0000 N   0  0  0  0  0  0  0  0  0  0  0  0
   -1.0323    0.7500    0.0000 N   0  0  0  0  0  0  0  0  0  0  0  0
   -1.0323   -0.7500    0.0000 N   0  0  0  0  0  0  0  0  0  0  0  0
    0.3943   -1.2135    0.0000 N   0  0  0  0  0  0  0  0  0  0  0  0
    0.8578   -2.6401    0.0000 C   0  0  0  0  0  0  0  0  0  0  0  0
   -0.0239   -3.8536    0.0000 C   0  0  0  0  0  0  0  0  0  0  0  0
    0.8578   -5.0672    0.0000 C   0  0  0  0  0  0  0  0  0  0  0  0
    2.2844   -4.6036    0.0000 C   0  0  0  0  0  0  0  0  0  0  0  0
    2.2844   -3.1036    0.0000 C   0  0  0  0  0  0  0  0  0  0  0  0
  1  2  2  0
  2  3  1  0
  3  4  1  0
  4  5  1  0
  5  6  2  0
  5  7  1  0
  7  8  1  0
  8  9  2  0
  9 10  1  0
 10 11  2  0
 11 12  1  0
 12 13  1  0
 13 14  2  0
 14 15  1  0
 15 16  2  0
 16 17  1  0
 12  8  1  0
 17 13  1  0
M  END
>  <Title>  (389) 
idAANAgen13

$$$$

     RDKit          2D

 44 48  0  0  0  0  0  0  0  0999 V2000
   -3.0020   -0.6956    0.0000 C   0  0  0  0  0  0  0  0  0  0  0  0
   -2.1203   -1.9091    0.0000 C   0  0  0  0  0  0  0  0  0  0  0  0
   -3.1240   -3.0239    0.0000 C   0  0  0  0  0  0  0  0  0  0  0  0
   -3.5875   -4.4504    0.0000 C   0  0  0  0  0  0  0  0  0  0  0  0
   -3.4307   -5.9422    0.0000 C   0  0  0  0  0  0  0  0  0  0  0  0
   -2.6807   -7.2413    0.0000 C   0  0  0  0  0  0  0  0  0  0  0  0
   -1.4672   -8.1229    0.0000 C   0  0  0  0  0  0  0  0  0  0  0  0
   -0.0000   -8.4348    0.0000 C   0  0  0  0  0  0  0  0  0  0  0  0
    1.4672   -8.1229    0.0000 C   0  0  0  0  0  0  0  0  0  0  0  0
    2.6807   -7.2413    0.0000 C   0  0  0  0  0  0  0  0  0  0  0  0
    3.4307   -5.9422    0.0000 C   0  0  0  0  0  0  0  0  0  0  0  0
    3.5875   -4.4504    0.0000 C   0  0  0  0  0  0  0  0  0  0  0  0
    3.1240   -3.0239    0.0000 C   0  0  0  0  0  0  0  0  0  0  0  0
    2.1203   -1.9091    0.0000 C   0  0  0  0  0  0  0  0  0  0  0  0
    3.0020   -0.6956    0.0000 C   0  0  0  0  0  0  0  0  0  0  0  0
    2.3919    0.6747    0.0000 O   0  0  0  0  0  0  0  0  0  0  0  0
    4.4938   -0.8524    0.0000 N   0  0  0  0  0  0  0  0  0  0  0  0
    5.3755    0.3611    0.0000 C   0  0  0  0  0  0  0  0  0  0  0  0
    4.9119    1.7877    0.0000 N   0  0  0  0  0  0  0  0  0  0  0  0
    6.1255    2.6694    0.0000 N   0  0  0  0  0  0  0  0  0  0  0  0
    7.3390    1.7877    0.0000 N   0  0  0  0  0  0  0  0  0  0  0  0
    6.8755    0.3611    0.0000 N   0  0  0  0  0  0  0  0  0  0  0  0
    7.7571   -0.8524    0.0000 C   0  0  0  0  0  0  0  0  0  0  0  0
    9.2571   -0.8524    0.0000 C   0  0  0  0  0  0  0  0  0  0  0  0
    9.7207   -2.2790    0.0000 C   0  0  0  0  0  0  0  0  0  0  0  0
    8.5071   -3.1607    0.0000 C   0  0  0  0  0  0  0  0  0  0  0  0
    8.5071   -4.6607    0.0000 O   0  0  0  0  0  0  0  0  0  0  0  0
    7.2081   -5.4107    0.0000 C   0  0  0  0  0  0  0  0  0  0  0  0
    5.9091   -4.6607    0.0000 O   0  0  0  0  0  0  0  0  0  0  0  0
    7.2081   -6.9107    0.0000 N   0  0  0  0  0  0  0  0  0  0  0  0
    8.5071   -7.6607    0.0000 C   0  0  0  0  0  0  0  0  0  0  0  0
    8.5071   -9.1607    0.0000 N   0  0  0  0  0  0  0  0  0  0  0  0
    9.8062   -9.9107    0.0000 N   0  0  0  0  0  0  0  0  0  0  0  0
   11.1052   -9.1607    0.0000 N   0  0  0  0  0  0  0  0  0  0  0  0
   11.1052   -7.6607    0.0000 N   0  0  0  0  0  0  0  0  0  0  0  0
    9.8062   -6.9107    0.0000 N   0  0  0  0  0  0  0  0  0  0  0  0
    7.2936   -2.2790    0.0000 C   0  0  0  0  0  0  0  0  0  0  0  0
    5.8670   -2.7425    0.0000 O   0  0  0  0  0  0  0  0  0  0  0  0
    0.7500   -1.2990    0.0000 C   0  0  0  0  0  0  0  0  0  0  0  0
    1.5000    0.0000    0.0000 C   0  0  0  0  0  0  0  0  0  0  0  0
    0.7500    1.2990    0.0000 C   0  0  0  0  0  0  0  0  0  0  0  0
   -0.7500    1.2990    0.0000 C   0  0  0  0  0  0  0  0  0  0  0  0
   -1.5000    0.0000    0.0000 C   0  0  0  0  0  0  0  0  0  0  0  0
   -0.7500   -1.2990    0.0000 C   0  0  0  0  0  0  0  0  0  0  0  0
  1  2  1  0
  2  3  1  0
  3  4  1  0
  4  5  1  0
  5  6  1  0
  6  7  1  0
  7  8  1  0
  8  9  1  0
  9 10  1  0
 10 11  1  0
 11 12  1  0
 12 13  1  0
 13 14  1  0
 14 15  1  0
 15 16  2  0
 15 17  1  0
 17 18  1  0
 18 19  2  0
 19 20  1  0
 20 21  2  0
 21 22  1  0
 22 23  1  0
 23 24  2  0
 24 25  1  0
 25 26  2  0
 26 27  1  0
 27 28  1  0
 28 29  2  0
 28 30  1  0
 30 31  1  0
 31 32  2  0
 32 33  1  0
 33 34  2  0
 34 35  1  0
 35 36  2  0
 26 37  1  0
 37 38  2  0
 14 39  1  0
 39 40  2  0
 40 41  1  0
 41 42  2  0
 42 43  1  0
 43 44  2  0
 44  2  1  0
 22 18  1  0
 37 23  1  0
 44 39  1  0
 36 31  1  0
M  END
>  <Title>  (390) 
idAANBgen13

$$$$

     RDKit          2D

 30 34  0  0  0  0  0  0  0  0999 V2000
   -2.6401   -3.1891    0.0000 C   0  0  0  0  0  0  0  0  0  0  0  0
   -1.2135   -2.7256    0.0000 C   0  0  0  0  0  0  0  0  0  0  0  0
   -0.0000   -3.6073    0.0000 C   0  0  0  0  0  0  0  0  0  0  0  0
    1.2135   -2.7256    0.0000 C   0  0  0  0  0  0  0  0  0  0  0  0
    2.6401   -3.1891    0.0000 N   0  0  0  0  0  0  0  0  0  0  0  0
    3.8536   -2.3075    0.0000 C   0  0  0  0  0  0  0  0  0  0  0  0
    5.0672   -3.1891    0.0000 C   0  0  0  0  0  0  0  0  0  0  0  0
    4.6036   -4.6157    0.0000 N   0  0  0  0  0  0  0  0  0  0  0  0
    3.1036   -4.6157    0.0000 N   0  0  0  0  0  0  0  0  0  0  0  0
    2.2220   -5.8293    0.0000 N   0  0  0  0  0  0  0  0  0  0  0  0
    2.6855   -7.2558    0.0000 C   0  0  0  0  0  0  0  0  0  0  0  0
    1.4720   -8.1375    0.0000 C   0  0  0  0  0  0  0  0  0  0  0  0
    0.2584   -7.2558    0.0000 N   0  0  0  0  0  0  0  0  0  0  0  0
   -1.1682   -7.7194    0.0000 C   0  0  0  0  0  0  0  0  0  0  0  0
   -1.4800   -9.1866    0.0000 O   0  0  0  0  0  0  0  0  0  0  0  0
   -2.2829   -6.7157    0.0000 N   0  0  0  0  0  0  0  0  0  0  0  0
   -3.7095   -7.1792    0.0000 C   0  0  0  0  0  0  0  0  0  0  0  0
   -4.8242   -6.1755    0.0000 N   0  0  0  0  0  0  0  0  0  0  0  0
   -6.2508   -6.6390    0.0000 N   0  0  0  0  0  0  0  0  0  0  0  0
   -6.5626   -8.1062    0.0000 N   0  0  0  0  0  0  0  0  0  0  0  0
   -5.4479   -9.1099    0.0000 N   0  0  0  0  0  0  0  0  0  0  0  0
   -4.0213   -8.6464    0.0000 N   0  0  0  0  0  0  0  0  0  0  0  0
    0.7220   -5.8293    0.0000 C   0  0  0  0  0  0  0  0  0  0  0  0
   -0.1597   -4.6157    0.0000 O   0  0  0  0  0  0  0  0  0  0  0  0
    0.7500   -1.2990    0.0000 C   0  0  0  0  0  0  0  0  0  0  0  0
    1.5000    0.0000    0.0000 C   0  0  0  0  0  0  0  0  0  0  0  0
    0.7500    1.2990    0.0000 C   0  0  0  0  0  0  0  0  0  0  0  0
   -0.7500    1.2990    0.0000 C   0  0  0  0  0  0  0  0  0  0  0  0
   -1.5000    0.0000    0.0000 C   0  0  0  0  0  0  0  0  0  0  0  0
   -0.7500   -1.2990    0.0000 C   0  0  0  0  0  0  0  0  0  0  0  0
  1  2  1  0
  2  3  2  0
  3  4  1  0
  4  5  1  0
  5  6  1  0
  6  7  1  0
  7  8  2  0
  8  9  1  0
  9 10  1  0
 10 11  1  0
 11 12  1  0
 12 13  1  0
 13 14  1  0
 14 15  2  0
 14 16  1  0
 16 17  1  0
 17 18  2  0
 18 19  1  0
 19 20  2  0
 20 21  1  0
 21 22  2  0
 13 23  1  0
 23 24  2  0
  4 25  1  0
 25 26  2  0
 26 27  1  0
 27 28  2  0
 28 29  1  0
 29 30  2  0
 30  2  1  0
  9  5  1  0
 23 10  1  0
 30 25  1  0
 22 17  1  0
M  END
>  <Title>  (391) 
idAANCgen13

$$$$

     RDKit          2D

 30 29  0  0  0  0  0  0  0  0999 V2000
    0.0000    0.0000    0.0000 C   0  0  0  0  0  0  0  0  0  0  0  0
   -0.0000   -1.5000    0.0000 C   0  0  0  0  0  0  0  0  0  0  0  0
   -0.0000   -3.0000    0.0000 C   0  0  0  0  0  0  0  0  0  0  0  0
   -0.0000   -4.5000    0.0000 C   0  0  0  0  0  0  0  0  0  0  0  0
   -0.0000   -6.0000    0.0000 C   0  0  0  0  0  0  0  0  0  0  0  0
   -0.0000   -7.5000    0.0000 C   0  0  0  0  0  0  0  0  0  0  0  0
   -0.0000   -9.0000    0.0000 C   0  0  0  0  0  0  0  0  0  0  0  0
   -0.0000  -10.5000    0.0000 C   0  0  0  0  0  0  0  0  0  0  0  0
   -0.0000  -12.0000    0.0000 C   0  0  0  0  0  0  0  0  0  0  0  0
   -0.0000  -13.5000    0.0000 C   0  0  0  0  0  0  0  0  0  0  0  0
   -0.0000  -15.0000    0.0000 C   0  0  0  0  0  0  0  0  0  0  0  0
   -0.0000  -16.5000    0.0000 C   0  0  0  0  0  0  0  0  0  0  0  0
   -0.0000  -18.0000    0.0000 C   0  0  0  0  0  0  0  0  0  0  0  0
   -0.0000  -19.5000    0.0000 C   0  0  0  0  0  0  0  0  0  0  0  0
   -0.0000  -21.0000    0.0000 C   0  0  0  0  0  0  0  0  0  0  0  0
   -0.0000  -22.5000    0.0000 C   0  0  0  0  0  0  0  0  0  0  0  0
   -0.0000  -24.0000    0.0000 C   0  0  0  0  0  0  0  0  0  0  0  0
   -0.0000  -25.5000    0.0000 C   0  0  0  0  0  0  0  0  0  0  0  0
   -0.0000  -27.0000    0.0000 C   0  0  0  0  0  0  0  0  0  0  0  0
   -0.0000  -28.5000    0.0000 C   0  0  0  0  0  0  0  0  0  0  0  0
   -0.0000  -30.0000    0.0000 C   0  0  0  0  0  0  0  0  0  0  0  0
   -0.0000  -31.5000    0.0000 C   0  0  0  0  0  0  0  0  0  0  0  0
   -0.0000  -33.0000    0.0000 C   0  0  0  0  0  0  0  0  0  0  0  0
   -0.0000  -34.5000    0.0000 C   0  0  0  0  0  0  0  0  0  0  0  0
   -0.0000  -36.0000    0.0000 C   0  0  0  0  0  0  0  0  0  0  0  0
   -0.0000  -37.5000    0.0000 C   0  0  0  0  0  0  0  0  0  0  0  0
   -0.0000  -39.0000    0.0000 C   0  0  0  0  0  0  0  0  0  0  0  0
   -0.0000  -40.5000    0.0000 C   0  0  0  0  0  0  0  0  0  0  0  0
   -0.0000  -42.0000    0.0000 C   0  0  0  0  0  0  0  0  0  0  0  0
   -0.0000  -43.5000    0.0000 N   0  0  0  0  0  0  0  0  0  0  0  0
  1  2  3  0
  2  3  1  0
  3  4  3  0
  4  5  1  0
  5  6  3  0
  6  7  1  0
  7  8  3  0
  8  9  1  0
  9 10  3  0
 10 11  1  0
 11 12  3  0
 12 13  1  0
 13 14  3  0
 14 15  1  0
 15 16  3  0
 16 17  1  0
 17 18  3  0
 18 19  1  0
 19 20  3  0
 20 21  1  0
 21 22  3  0
 22 23  1  0
 23 24  3  0
 24 25  1  0
 25 26  3  0
 26 27  1  0
 27 28  3  0
 28 29  1  0
 29 30  3  0
M  END
>  <Title>  (392) 
idAANDgen13

$$$$

     RDKit          2D

 83 86  0  0  0  0  0  0  0  0999 V2000
   -5.6254   -0.6607    0.0000 C   0  0  0  0  0  0  0  0  0  0  0  0
   -5.1681   -2.0893    0.0000 C   0  0  0  0  0  0  0  0  0  0  0  0
   -6.5751   -2.6092    0.0000 C   0  0  0  0  0  0  0  0  0  0  0  0
   -7.9307   -3.2515    0.0000 C   0  0  0  0  0  0  0  0  0  0  0  0
   -9.2242   -4.0111    0.0000 C   0  0  0  0  0  0  0  0  0  0  0  0
  -10.4454   -4.8820    0.0000 C   0  0  0  0  0  0  0  0  0  0  0  0
  -11.5850   -5.8574    0.0000 C   0  0  0  0  0  0  0  0  0  0  0  0
  -12.6338   -6.9297    0.0000 C   0  0  0  0  0  0  0  0  0  0  0  0
  -13.5838   -8.0906    0.0000 C   0  0  0  0  0  0  0  0  0  0  0  0
  -14.4275   -9.3308    0.0000 C   0  0  0  0  0  0  0  0  0  0  0  0
  -15.1582  -10.6408    0.0000 C   0  0  0  0  0  0  0  0  0  0  0  0
  -15.7704  -12.0102    0.0000 C   0  0  0  0  0  0  0  0  0  0  0  0
  -16.2591  -13.4283    0.0000 C   0  0  0  0  0  0  0  0  0  0  0  0
  -16.6205  -14.8841    0.0000 C   0  0  0  0  0  0  0  0  0  0  0  0
  -16.8519  -16.3662    0.0000 C   0  0  0  0  0  0  0  0  0  0  0  0
  -16.9514  -17.8629    0.0000 C   0  0  0  0  0  0  0  0  0  0  0  0
  -16.9182  -19.3625    0.0000 C   0  0  0  0  0  0  0  0  0  0  0  0
  -16.7526  -20.8533    0.0000 C   0  0  0  0  0  0  0  0  0  0  0  0
  -16.4559  -22.3237    0.0000 C   0  0  0  0  0  0  0  0  0  0  0  0
  -16.0304  -23.7621    0.0000 C   0  0  0  0  0  0  0  0  0  0  0  0
  -15.4795  -25.1573    0.0000 C   0  0  0  0  0  0  0  0  0  0  0  0
  -14.8074  -26.4983    0.0000 C   0  0  0  0  0  0  0  0  0  0  0  0
  -14.0194  -27.7746    0.0000 C   0  0  0  0  0  0  0  0  0  0  0  0
  -13.1217  -28.9763    0.0000 C   0  0  0  0  0  0  0  0  0  0  0  0
  -12.1213  -30.0940    0.0000 C   0  0  0  0  0  0  0  0  0  0  0  0
  -11.0260  -31.1189    0.0000 C   0  0  0  0  0  0  0  0  0  0  0  0
   -9.8444  -32.0429    0.0000 C   0  0  0  0  0  0  0  0  0  0  0  0
   -8.5858  -32.8590    0.0000 C   0  0  0  0  0  0  0  0  0  0  0  0
   -7.2600  -33.5606    0.0000 C   0  0  0  0  0  0  0  0  0  0  0  0
   -5.8774  -34.1423    0.0000 C   0  0  0  0  0  0  0  0  0  0  0  0
   -4.4488  -34.5995    0.0000 C   0  0  0  0  0  0  0  0  0  0  0  0
   -2.9853  -34.9286    0.0000 C   0  0  0  0  0  0  0  0  0  0  0  0
   -1.4985  -35.1272    0.0000 C   0  0  0  0  0  0  0  0  0  0  0  0
    0.0000  -35.1935    0.0000 C   0  0  0  0  0  0  0  0  0  0  0  0
    1.4985  -35.1272    0.0000 C   0  0  0  0  0  0  0  0  0  0  0  0
    2.9853  -34.9286    0.0000 C   0  0  0  0  0  0  0  0  0  0  0  0
    4.4488  -34.5995    0.0000 C   0  0  0  0  0  0  0  0  0  0  0  0
    5.8774  -34.1423    0.0000 C   0  0  0  0  0  0  0  0  0  0  0  0
    7.2600  -33.5606    0.0000 C   0  0  0  0  0  0  0  0  0  0  0  0
    8.5858  -32.8590    0.0000 C   0  0  0  0  0  0  0  0  0  0  0  0
    9.8444  -32.0429    0.0000 C   0  0  0  0  0  0  0  0  0  0  0  0
   11.0260  -31.1189    0.0000 C   0  0  0  0  0  0  0  0  0  0  0  0
   12.1213  -30.0940    0.0000 C   0  0  0  0  0  0  0  0  0  0  0  0
   13.1217  -28.9763    0.0000 C   0  0  0  0  0  0  0  0  0  0  0  0
   14.0194  -27.7746    0.0000 C   0  0  0  0  0  0  0  0  0  0  0  0
   14.8074  -26.4983    0.0000 C   0  0  0  0  0  0  0  0  0  0  0  0
   15.4795  -25.1573    0.0000 C   0  0  0  0  0  0  0  0  0  0  0  0
   16.0304  -23.7621    0.0000 C   0  0  0  0  0  0  0  0  0  0  0  0
   16.4559  -22.3237    0.0000 C   0  0  0  0  0  0  0  0  0  0  0  0
   16.7526  -20.8533    0.0000 C   0  0  0  0  0  0  0  0  0  0  0  0
   16.9182  -19.3625    0.0000 C   0  0  0  0  0  0  0  0  0  0  0  0
   16.9514  -17.8629    0.0000 C   0  0  0  0  0  0  0  0  0  0  0  0
   16.8519  -16.3662    0.0000 C   0  0  0  0  0  0  0  0  0  0  0  0
   16.6205  -14.8841    0.0000 C   0  0  0  0  0  0  0  0  0  0  0  0
   16.2591  -13.4283    0.0000 C   0  0  0  0  0  0  0  0  0  0  0  0
   15.7704  -12.0102    0.0000 C   0  0  0  0  0  0  0  0  0  0  0  0
   15.1582  -10.6408    0.0000 C   0  0  0  0  0  0  0  0  0  0  0  0
   14.4275   -9.3308    0.0000 C   0  0  0  0  0  0  0  0  0  0  0  0
   13.5838   -8.0906    0.0000 C   0  0  0  0  0  0  0  0  0  0  0  0
   12.6338   -6.9297    0.0000 C   0  0  0  0  0  0  0  0  0  0  0  0
   11.5850   -5.8574    0.0000 C   0  0  0  0  0  0  0  0  0  0  0  0
   10.4454   -4.8820    0.0000 C   0  0  0  0  0  0  0  0  0  0  0  0
    9.2242   -4.0111    0.0000 C   0  0  0  0  0  0  0  0  0  0  0  0
    7.9307   -3.2515    0.0000 C   0  0  0  0  0  0  0  0  0  0  0  0
    6.5751   -2.6092    0.0000 C   0  0  0  0  0  0  0  0  0  0  0  0
    5.1681   -2.0893    0.0000 C   0  0  0  0  0  0  0  0  0  0  0  0
    3.7207   -1.6957    0.0000 C   0  0  0  0  0  0  0  0  0  0  0  0
    3.9258   -3.1816    0.0000 C   0  0  0  0  0  0  0  0  0  0  0  0
    2.5760   -3.8359    0.0000 C   0  0  0  0  0  0  0  0  0  0  0  0
    1.5367   -2.7543    0.0000 C   0  0  0  0  0  0  0  0  0  0  0  0
    2.2441   -1.4316    0.0000 C   0  0  0  0  0  0  0  0  0  0  0  0
    0.7500   -1.2990    0.0000 C   0  0  0  0  0  0  0  0  0  0  0  0
    1.5000    0.0000    0.0000 C   0  0  0  0  0  0  0  0  0  0  0  0
    0.7500    1.2990    0.0000 C   0  0  0  0  0  0  0  0  0  0  0  0
   -0.7500    1.2990    0.0000 C   0  0  0  0  0  0  0  0  0  0  0  0
   -1.5000    0.0000    0.0000 C   0  0  0  0  0  0  0  0  0  0  0  0
   -0.7500   -1.2990    0.0000 C   0  0  0  0  0  0  0  0  0  0  0  0
   -2.2441   -1.4316    0.0000 C   0  0  0  0  0  0  0  0  0  0  0  0
   -1.2771   -2.5783    0.0000 C   0  0  0  0  0  0  0  0  0  0  0  0
   -1.7867   -3.9891    0.0000 C   0  0  0  0  0  0  0  0  0  0  0  0
   -3.2633   -4.2532    0.0000 C   0  0  0  0  0  0  0  0  0  0  0  0
   -4.2303   -3.1065    0.0000 C   0  0  0  0  0  0  0  0  0  0  0  0
   -3.7207   -1.6957    0.0000 C   0  0  0  0  0  0  0  0  0  0  0  0
  1  2  1  0
  2  3  1  0
  3  4  1  0
  4  5  1  0
  5  6  1  0
  6  7  1  0
  7  8  1  0
  8  9  1  0
  9 10  1  0
 10 11  1  0
 11 12  1  0
 12 13  1  0
 13 14  1  0
 14 15  1  0
 15 16  1  0
 16 17  1  0
 17 18  1  0
 18 19  1  0
 19 20  1  0
 20 21  1  0
 21 22  1  0
 22 23  1  0
 23 24  1  0
 24 25  1  0
 25 26  1  0
 26 27  1  0
 27 28  1  0
 28 29  1  0
 29 30  1  0
 30 31  1  0
 31 32  1  0
 32 33  1  0
 33 34  1  0
 34 35  1  0
 35 36  1  0
 36 37  1  0
 37 38  1  0
 38 39  1  0
 39 40  1  0
 40 41  1  0
 41 42  1  0
 42 43  1  0
 43 44  1  0
 44 45  1  0
 45 46  1  0
 46 47  1  0
 47 48  1  0
 48 49  1  0
 49 50  1  0
 50 51  2  0
 51 52  1  0
 52 53  2  0
 53 54  1  0
 54 55  2  0
 55 56  1  0
 56 57  2  0
 57 58  1  0
 58 59  2  0
 59 60  1  0
 60 61  2  0
 61 62  1  0
 62 63  2  0
 63 64  1  0
 64 65  2  0
 65 66  1  0
 66 67  2  0
 67 68  1  0
 68 69  2  0
 69 70  1  0
 70 71  2  0
 71 72  1  0
 72 73  2  0
 73 74  1  0
 74 75  2  0
 75 76  1  0
 76 77  2  0
 77 78  1  0
 78 79  2  0
 79 80  1  0
 80 81  2  0
 81 82  1  0
 82 83  2  0
 83  2  1  0
 71 67  1  0
 77 72  1  0
 83 78  1  0
M  END
>  <Title>  (393) 
idAANEgen13

$$$$

     RDKit          2D

 13 12  0  0  0  0  0  0  0  0999 V2000
    0.0000    0.0000    0.0000 C   0  0  0  0  0  0  0  0  0  0  0  0
   -0.0000   -1.5000    0.0000 C   0  0  0  0  0  0  0  0  0  0  0  0
   -0.0000   -3.0000    0.0000 C   0  0  0  0  0  0  0  0  0  0  0  0
   -0.0000   -4.5000    0.0000 C   0  0  0  0  0  0  0  0  0  0  0  0
   -0.0000   -6.0000    0.0000 C   0  0  0  0  0  0  0  0  0  0  0  0
   -0.0000   -7.5000    0.0000 C   0  0  0  0  0  0  0  0  0  0  0  0
   -0.0000   -9.0000    0.0000 C   0  0  0  0  0  0  0  0  0  0  0  0
   -0.0000  -10.5000    0.0000 C   0  0  0  0  0  0  0  0  0  0  0  0
   -0.0000  -12.0000    0.0000 C   0  0  0  0  0  0  0  0  0  0  0  0
   -0.0000  -13.5000    0.0000 C   0  0  0  0  0  0  0  0  0  0  0  0
   -0.0000  -15.0000    0.0000 C   0  0  0  0  0  0  0  0  0  0  0  0
   -0.0000  -16.5000    0.0000 C   0  0  0  0  0  0  0  0  0  0  0  0
   -0.0000  -18.0000    0.0000 C   0  0  0  0  0  0  0  0  0  0  0  0
  1  2  3  0
  2  3  1  0
  3  4  3  0
  4  5  1  0
  5  6  3  0
  6  7  1  0
  7  8  3  0
  8  9  1  0
  9 10  3  0
 10 11  1  0
 11 12  3  0
 12 13  1  0
M  END
>  <Title>  (394) 
idAANFgen13

$$$$

     RDKit          2D

 76 77  0  0  0  0  0  0  0  0999 V2000
   10.3165   -4.5699    0.0000 C   0  0  0  0  0  0  0  0  0  0  0  0
   11.1071   -4.4677    0.0000 C   0  0  0  0  0  0  0  0  0  0  0  0
   11.4592   -5.9257    0.0000 C   0  0  0  0  0  0  0  0  0  0  0  0
   12.1166   -7.2740    0.0000 C   0  0  0  0  0  0  0  0  0  0  0  0
   13.0484   -8.4495    0.0000 C   0  0  0  0  0  0  0  0  0  0  0  0
   14.2111   -9.3971    0.0000 C   0  0  0  0  0  0  0  0  0  0  0  0
   15.5504  -10.0727    0.0000 C   0  0  0  0  0  0  0  0  0  0  0  0
   17.0036  -10.4445    0.0000 C   0  0  0  0  0  0  0  0  0  0  0  0
   18.5027  -10.4953    0.0000 C   0  0  0  0  0  0  0  0  0  0  0  0
   19.9777  -10.2226    0.0000 C   0  0  0  0  0  0  0  0  0  0  0  0
   21.3596   -9.6392    0.0000 C   0  0  0  0  0  0  0  0  0  0  0  0
   22.5838   -8.7724    0.0000 C   0  0  0  0  0  0  0  0  0  0  0  0
   23.5930   -7.6627    0.0000 C   0  0  0  0  0  0  0  0  0  0  0  0
   24.3401   -6.3620    0.0000 C   0  0  0  0  0  0  0  0  0  0  0  0
   24.7901   -4.9310    0.0000 C   0  0  0  0  0  0  0  0  0  0  0  0
   24.9219   -3.4369    0.0000 C   0  0  0  0  0  0  0  0  0  0  0  0
   24.7295   -1.9493    0.0000 C   0  0  0  0  0  0  0  0  0  0  0  0
   24.2218   -0.5378    0.0000 C   0  0  0  0  0  0  0  0  0  0  0  0
   23.4225    0.7315    0.0000 C   0  0  0  0  0  0  0  0  0  0  0  0
   22.3690    1.7993    0.0000 C   0  0  0  0  0  0  0  0  0  0  0  0
   21.1107    2.6157    0.0000 C   0  0  0  0  0  0  0  0  0  0  0  0
   19.7062    3.1425    0.0000 C   0  0  0  0  0  0  0  0  0  0  0  0
   18.2213    3.3551    0.0000 C   0  0  0  0  0  0  0  0  0  0  0  0
   16.7255    3.2435    0.0000 C   0  0  0  0  0  0  0  0  0  0  0  0
   15.2886    2.8129    0.0000 C   0  0  0  0  0  0  0  0  0  0  0  0
   13.9779    2.0835    0.0000 C   0  0  0  0  0  0  0  0  0  0  0  0
   12.8546    1.0894    0.0000 C   0  0  0  0  0  0  0  0  0  0  0  0
   11.9713   -0.1229    0.0000 C   0  0  0  0  0  0  0  0  0  0  0  0
   11.3692   -1.4968    0.0000 C   0  0  0  0  0  0  0  0  0  0  0  0
   10.7673   -0.0000    0.0000 C   0  0  0  0  0  0  0  0  0  0  0  0
   10.6752    1.4054    0.0000 C   0  0  0  0  0  0  0  0  0  0  0  0
   10.4005    2.7868    0.0000 C   0  0  0  0  0  0  0  0  0  0  0  0
    9.9477    4.1205    0.0000 C   0  0  0  0  0  0  0  0  0  0  0  0
    9.3248    5.3837    0.0000 C   0  0  0  0  0  0  0  0  0  0  0  0
    8.5423    6.5547    0.0000 C   0  0  0  0  0  0  0  0  0  0  0  0
    7.6137    7.6137    0.0000 C   0  0  0  0  0  0  0  0  0  0  0  0
    6.5547    8.5423    0.0000 C   0  0  0  0  0  0  0  0  0  0  0  0
    5.3837    9.3248    0.0000 C   0  0  0  0  0  0  0  0  0  0  0  0
    4.1205    9.9477    0.0000 C   0  0  0  0  0  0  0  0  0  0  0  0
    2.7868   10.4005    0.0000 C   0  0  0  0  0  0  0  0  0  0  0  0
    1.4054   10.6752    0.0000 C   0  0  0  0  0  0  0  0  0  0  0  0
    0.0000   10.7673    0.0000 C   0  0  0  0  0  0  0  0  0  0  0  0
   -1.4054   10.6752    0.0000 C   0  0  0  0  0  0  0  0  0  0  0  0
   -2.7868   10.4005    0.0000 C   0  0  0  0  0  0  0  0  0  0  0  0
   -4.1205    9.9477    0.0000 C   0  0  0  0  0  0  0  0  0  0  0  0
   -5.3837    9.3248    0.0000 C   0  0  0  0  0  0  0  0  0  0  0  0
   -6.5547    8.5423    0.0000 C   0  0  0  0  0  0  0  0  0  0  0  0
   -7.6137    7.6137    0.0000 C   0  0  0  0  0  0  0  0  0  0  0  0
   -8.5423    6.5547    0.0000 C   0  0  0  0  0  0  0  0  0  0  0  0
   -9.3248    5.3837    0.0000 C   0  0  0  0  0  0  0  0  0  0  0  0
   -9.9477    4.1205    0.0000 C   0  0  0  0  0  0  0  0  0  0  0  0
  -10.4005    2.7868    0.0000 C   0  0  0  0  0  0  0  0  0  0  0  0
  -10.6752    1.4054    0.0000 C   0  0  0  0  0  0  0  0  0  0  0  0
  -10.7673    0.0000    0.0000 C   0  0  0  0  0  0  0  0  0  0  0  0
  -10.6752   -1.4054    0.0000 C   0  0  0  0  0  0  0  0  0  0  0  0
  -10.4005   -2.7868    0.0000 C   0  0  0  0  0  0  0  0  0  0  0  0
   -9.9477   -4.1205    0.0000 C   0  0  0  0  0  0  0  0  0  0  0  0
   -9.3248   -5.3837    0.0000 C   0  0  0  0  0  0  0  0  0  0  0  0
   -8.5423   -6.5547    0.0000 C   0  0  0  0  0  0  0  0  0  0  0  0
   -7.6137   -7.6137    0.0000 C   0  0  0  0  0  0  0  0  0  0  0  0
   -6.5547   -8.5423    0.0000 C   0  0  0  0  0  0  0  0  0  0  0  0
   -5.3837   -9.3248    0.0000 C   0  0  0  0  0  0  0  0  0  0  0  0
   -4.1205   -9.9477    0.0000 C   0  0  0  0  0  0  0  0  0  0  0  0
   -2.7868  -10.4005    0.0000 C   0  0  0  0  0  0  0  0  0  0  0  0
   -1.4054  -10.6752    0.0000 C   0  0  0  0  0  0  0  0  0  0  0  0
   -0.0000  -10.7673    0.0000 C   0  0  0  0  0  0  0  0  0  0  0  0
    1.4054  -10.6752    0.0000 C   0  0  0  0  0  0  0  0  0  0  0  0
    2.7868  -10.4005    0.0000 C   0  0  0  0  0  0  0  0  0  0  0  0
    4.1205   -9.9477    0.0000 C   0  0  0  0  0  0  0  0  0  0  0  0
    5.3837   -9.3248    0.0000 C   0  0  0  0  0  0  0  0  0  0  0  0
    6.5547   -8.5423    0.0000 C   0  0  0  0  0  0  0  0  0  0  0  0
    7.6137   -7.6137    0.0000 C   0  0  0  0  0  0  0  0  0  0  0  0
    8.5423   -6.5547    0.0000 C   0  0  0  0  0  0  0  0  0  0  0  0
    9.3248   -5.3837    0.0000 C   0  0  0  0  0  0  0  0  0  0  0  0
    9.9477   -4.1205    0.0000 C   0  0  0  0  0  0  0  0  0  0  0  0
   11.0766   -2.9680    0.0000 C   0  0  0  0  0  0  0  0  0  0  0  0
  1  2  1  0
  2  3  1  0
  3  4  1  0
  4  5  1  0
  5  6  1  0
  6  7  1  0
  7  8  1  0
  8  9  1  0
  9 10  1  0
 10 11  1  0
 11 12  1  0
 12 13  1  0
 13 14  1  0
 14 15  1  0
 15 16  1  0
 16 17  1  0
 17 18  1  0
 18 19  1  0
 19 20  1  0
 20 21  1  0
 21 22  1  0
 22 23  1  0
 23 24  1  0
 24 25  1  0
 25 26  1  0
 26 27  1  0
 27 28  1  0
 28 29  1  0
 29 30  1  0
 30 31  1  0
 31 32  1  0
 32 33  1  0
 33 34  1  0
 34 35  1  0
 35 36  1  0
 36 37  1  0
 37 38  1  0
 38 39  1  0
 39 40  1  0
 40 41  1  0
 41 42  1  0
 42 43  1  0
 43 44  1  0
 44 45  1  0
 45 46  1  0
 46 47  1  0
 47 48  1  0
 48 49  1  0
 49 50  1  0
 50 51  1  0
 51 52  1  0
 52 53  1  0
 53 54  1  0
 54 55  1  0
 55 56  1  0
 56 57  1  0
 57 58  1  0
 58 59  1  0
 59 60  1  0
 60 61  1  0
 61 62  1  0
 62 63  1  0
 63 64  1  0
 64 65  1  0
 65 66  1  0
 66 67  1  0
 67 68  1  0
 68 69  1  0
 69 70  1  0
 70 71  1  0
 71 72  2  0
 72 73  1  0
 73 74  2  0
 74 75  1  0
 75 76  2  0
 76  2  1  0
 76 29  1  0
M  END
>  <Title>  (395) 
idAANGgen13

$$$$

     RDKit          2D

 33 37  0  0  0  0  0  0  0  0999 V2000
   -5.2500   -3.8971    0.0000 C   0  0  0  0  0  0  0  0  0  0  0  0
   -3.7500   -3.8971    0.0000 C   0  0  0  0  0  0  0  0  0  0  0  0
   -3.0000   -2.5981    0.0000 C   0  0  0  0  0  0  0  0  0  0  0  0
   -1.5000   -2.5981    0.0000 N   0  0  0  0  0  0  0  0  0  0  0  0
   -0.7500   -3.8971    0.0000 C   0  0  0  0  0  0  0  0  0  0  0  0
    0.7500   -3.8971    0.0000 C   0  0  0  0  0  0  0  0  0  0  0  0
    1.5000   -2.5981    0.0000 C   0  0  0  0  0  0  0  0  0  0  0  0
    3.0000   -2.5981    0.0000 C   0  0  0  0  0  0  0  0  0  0  0  0
    3.7500   -1.2990    0.0000 O   0  0  0  0  0  0  0  0  0  0  0  0
    3.7500   -3.8971    0.0000 N   0  0  0  0  0  0  0  0  0  0  0  0
    5.2500   -3.8971    0.0000 C   0  0  0  0  0  0  0  0  0  0  0  0
    6.1317   -2.6836    0.0000 N   0  0  0  0  0  0  0  0  0  0  0  0
    7.5583   -3.1471    0.0000 N   0  0  0  0  0  0  0  0  0  0  0  0
    7.5583   -4.6471    0.0000 N   0  0  0  0  0  0  0  0  0  0  0  0
    6.1317   -5.1106    0.0000 N   0  0  0  0  0  0  0  0  0  0  0  0
    5.6682   -6.5372    0.0000 N   0  0  0  0  0  0  0  0  0  0  0  0
    6.5498   -7.7508    0.0000 C   0  0  0  0  0  0  0  0  0  0  0  0
    5.6682   -8.9643    0.0000 C   0  0  0  0  0  0  0  0  0  0  0  0
    4.2416   -8.5008    0.0000 N   0  0  0  0  0  0  0  0  0  0  0  0
    3.0280   -9.3824    0.0000 C   0  0  0  0  0  0  0  0  0  0  0  0
    1.6577   -8.7723    0.0000 C   0  0  0  0  0  0  0  0  0  0  0  0
    0.4442   -9.6540    0.0000 C   0  0  0  0  0  0  0  0  0  0  0  0
    0.6010  -11.1458    0.0000 C   0  0  0  0  0  0  0  0  0  0  0  0
    1.9713  -11.7559    0.0000 C   0  0  0  0  0  0  0  0  0  0  0  0
    3.1848  -10.8742    0.0000 C   0  0  0  0  0  0  0  0  0  0  0  0
    4.2416   -7.0008    0.0000 C   0  0  0  0  0  0  0  0  0  0  0  0
    3.0280   -6.1191    0.0000 O   0  0  0  0  0  0  0  0  0  0  0  0
    0.7500   -1.2990    0.0000 C   0  0  0  0  0  0  0  0  0  0  0  0
    1.5000    0.0000    0.0000 C   0  0  0  0  0  0  0  0  0  0  0  0
    0.7500    1.2990    0.0000 C   0  0  0  0  0  0  0  0  0  0  0  0
   -0.7500    1.2990    0.0000 C   0  0  0  0  0  0  0  0  0  0  0  0
   -1.5000    0.0000    0.0000 C   0  0  0  0  0  0  0  0  0  0  0  0
   -0.7500   -1.2990    0.0000 C   0  0  0  0  0  0  0  0  0  0  0  0
  1  2  1  0
  2  3  1  0
  3  4  1  0
  4  5  1  0
  5  6  1  0
  6  7  1  0
  7  8  1  0
  8  9  2  0
  8 10  1  0
 10 11  1  0
 11 12  2  0
 12 13  1  0
 13 14  2  0
 14 15  1  0
 15 16  1  0
 16 17  1  0
 17 18  1  0
 18 19  1  0
 19 20  1  0
 20 21  2  0
 21 22  1  0
 22 23  2  0
 23 24  1  0
 24 25  2  0
 19 26  1  0
 26 27  2  0
  7 28  1  0
 28 29  2  0
 29 30  1  0
 30 31  2  0
 31 32  1  0
 32 33  2  0
 33  4  1  0
 15 11  1  0
 26 16  1  0
 33 28  1  0
 25 20  1  0
M  END
>  <Title>  (396) 
idAANHgen13

$$$$

     RDKit          2D

 18 20  0  0  0  0  0  0  0  0999 V2000
   -4.5000   -2.5981    0.0000 C   0  0  0  0  0  0  0  0  0  0  0  0
   -3.0000   -2.5981    0.0000 C   0  0  0  0  0  0  0  0  0  0  0  0
   -1.5000   -2.5981    0.0000 C   0  0  0  0  0  0  0  0  0  0  0  0
   -0.7500   -3.8971    0.0000 C   0  0  0  0  0  0  0  0  0  0  0  0
    0.7500   -3.8971    0.0000 C   0  0  0  0  0  0  0  0  0  0  0  0
    1.5000   -2.5981    0.0000 C   0  0  0  0  0  0  0  0  0  0  0  0
    3.0000   -2.5981    0.0000 N   0  0  0  0  0  0  0  0  0  0  0  0
    3.7500   -3.8971    0.0000 C   0  0  0  0  0  0  0  0  0  0  0  0
    5.2500   -3.8971    0.0000 C   0  0  0  0  0  0  0  0  0  0  0  0
    6.0000   -2.5981    0.0000 N   0  0  0  0  0  0  0  0  0  0  0  0
    5.2500   -1.2990    0.0000 N   0  0  0  0  0  0  0  0  0  0  0  0
    3.7500   -1.2990    0.0000 N   0  0  0  0  0  0  0  0  0  0  0  0
    0.7500   -1.2990    0.0000 C   0  0  0  0  0  0  0  0  0  0  0  0
    1.5000    0.0000    0.0000 C   0  0  0  0  0  0  0  0  0  0  0  0
    0.7500    1.2990    0.0000 C   0  0  0  0  0  0  0  0  0  0  0  0
   -0.7500    1.2990    0.0000 C   0  0  0  0  0  0  0  0  0  0  0  0
   -1.5000    0.0000    0.0000 C   0  0  0  0  0  0  0  0  0  0  0  0
   -0.7500   -1.2990    0.0000 C   0  0  0  0  0  0  0  0  0  0  0  0
  1  2  3  0
  2  3  1  0
  3  4  2  0
  4  5  1  0
  5  6  2  0
  6  7  1  0
  7  8  1  0
  8  9  1  0
  9 10  2  0
 10 11  1  0
 11 12  2  0
  6 13  1  0
 13 14  2  0
 14 15  1  0
 15 16  2  0
 16 17  1  0
 17 18  2  0
 18  3  1  0
 12  7  1  0
 18 13  1  0
M  END
>  <Title>  (397) 
idAANIgen13

$$$$

     RDKit          2D

 48 49  0  0  0  0  0  0  0  0999 V2000
   58.2760   -0.0000    0.0000 C   0  0  0  0  0  0  0  0  0  0  0  0
   56.7760   -0.0000    0.0000 C   0  0  0  0  0  0  0  0  0  0  0  0
   55.2760   -0.0000    0.0000 C   0  0  0  0  0  0  0  0  0  0  0  0
   53.7760   -0.0000    0.0000 C   0  0  0  0  0  0  0  0  0  0  0  0
   52.2760   -0.0000    0.0000 C   0  0  0  0  0  0  0  0  0  0  0  0
   50.7760   -0.0000    0.0000 C   0  0  0  0  0  0  0  0  0  0  0  0
   49.2760   -0.0000    0.0000 C   0  0  0  0  0  0  0  0  0  0  0  0
   47.7760   -0.0000    0.0000 C   0  0  0  0  0  0  0  0  0  0  0  0
   46.2760   -0.0000    0.0000 C   0  0  0  0  0  0  0  0  0  0  0  0
   44.7760   -0.0000    0.0000 C   0  0  0  0  0  0  0  0  0  0  0  0
   43.2760   -0.0000    0.0000 C   0  0  0  0  0  0  0  0  0  0  0  0
   41.7760   -0.0000    0.0000 C   0  0  0  0  0  0  0  0  0  0  0  0
   40.2760   -0.0000    0.0000 C   0  0  0  0  0  0  0  0  0  0  0  0
   38.7760   -0.0000    0.0000 C   0  0  0  0  0  0  0  0  0  0  0  0
   37.2760   -0.0000    0.0000 C   0  0  0  0  0  0  0  0  0  0  0  0
   35.7760   -0.0000    0.0000 C   0  0  0  0  0  0  0  0  0  0  0  0
   34.2760   -0.0000    0.0000 C   0  0  0  0  0  0  0  0  0  0  0  0
   32.7760   -0.0000    0.0000 C   0  0  0  0  0  0  0  0  0  0  0  0
   31.2760   -0.0000    0.0000 C   0  0  0  0  0  0  0  0  0  0  0  0
   29.7760   -0.0000    0.0000 C   0  0  0  0  0  0  0  0  0  0  0  0
   28.2760   -0.0000    0.0000 C   0  0  0  0  0  0  0  0  0  0  0  0
   26.7760   -0.0000    0.0000 C   0  0  0  0  0  0  0  0  0  0  0  0
   25.2760   -0.0000    0.0000 C   0  0  0  0  0  0  0  0  0  0  0  0
   23.7760   -0.0000    0.0000 C   0  0  0  0  0  0  0  0  0  0  0  0
   22.2760   -0.0000    0.0000 C   0  0  0  0  0  0  0  0  0  0  0  0
   20.7760   -0.0000    0.0000 C   0  0  0  0  0  0  0  0  0  0  0  0
   19.2760   -0.0000    0.0000 C   0  0  0  0  0  0  0  0  0  0  0  0
   17.7760   -0.0000    0.0000 C   0  0  0  0  0  0  0  0  0  0  0  0
   16.2760   -0.0000    0.0000 C   0  0  0  0  0  0  0  0  0  0  0  0
   14.7760   -0.0000    0.0000 C   0  0  0  0  0  0  0  0  0  0  0  0
   13.2760   -0.0000    0.0000 C   0  0  0  0  0  0  0  0  0  0  0  0
   11.7760   -0.0000    0.0000 C   0  0  0  0  0  0  0  0  0  0  0  0
   10.2760   -0.0000    0.0000 C   0  0  0  0  0  0  0  0  0  0  0  0
    8.7760   -0.0000    0.0000 C   0  0  0  0  0  0  0  0  0  0  0  0
    7.2760   -0.0000    0.0000 C   0  0  0  0  0  0  0  0  0  0  0  0
    5.7760   -0.0000    0.0000 C   0  0  0  0  0  0  0  0  0  0  0  0
    4.2760   -0.0000    0.0000 C   0  0  0  0  0  0  0  0  0  0  0  0
    2.7760    0.0000    0.0000 C   0  0  0  0  0  0  0  0  0  0  0  0
    1.2760    0.0000    0.0000 C   0  0  0  0  0  0  0  0  0  0  0  0
    0.3943    1.2135    0.0000 N   0  0  0  0  0  0  0  0  0  0  0  0
   -1.0323    0.7500    0.0000 N   0  0  0  0  0  0  0  0  0  0  0  0
   -1.0323   -0.7500    0.0000 N   0  0  0  0  0  0  0  0  0  0  0  0
    0.3943   -1.2135    0.0000 N   0  0  0  0  0  0  0  0  0  0  0  0
    0.8578   -2.6401    0.0000 C   0  0  0  0  0  0  0  0  0  0  0  0
    2.2844   -3.1036    0.0000 C   0  0  0  0  0  0  0  0  0  0  0  0
    2.2844   -4.6036    0.0000 C   0  0  0  0  0  0  0  0  0  0  0  0
    0.8578   -5.0672    0.0000 C   0  0  0  0  0  0  0  0  0  0  0  0
   -0.0239   -3.8536    0.0000 C   0  0  0  0  0  0  0  0  0  0  0  0
  1  2  3  0
  2  3  1  0
  3  4  3  0
  4  5  1  0
  5  6  3  0
  6  7  1  0
  7  8  3  0
  8  9  1  0
  9 10  3  0
 10 11  1  0
 11 12  3  0
 12 13  1  0
 13 14  3  0
 14 15  1  0
 15 16  3  0
 16 17  1  0
 17 18  3  0
 18 19  1  0
 19 20  3  0
 20 21  1  0
 21 22  3  0
 22 23  1  0
 23 24  3  0
 24 25  1  0
 25 26  3  0
 26 27  1  0
 27 28  3  0
 28 29  1  0
 29 30  3  0
 30 31  1  0
 31 32  3  0
 32 33  1  0
 33 34  3  0
 34 35  1  0
 35 36  3  0
 36 37  1  0
 37 38  3  0
 38 39  1  0
 39 40  2  0
 40 41  1  0
 41 42  2  0
 42 43  1  0
 43 44  1  0
 44 45  2  0
 45 46  1  0
 46 47  1  0
 47 48  2  0
 43 39  1  0
 48 44  1  0
M  END
>  <Title>  (398) 
idAANJgen13

$$$$

     RDKit          2D

 38 42  0  0  0  0  0  0  0  0999 V2000
   -3.1771   -1.2990    0.0000 C   0  0  0  0  0  0  0  0  0  0  0  0
   -1.9635   -2.1807    0.0000 C   0  0  0  0  0  0  0  0  0  0  0  0
   -2.4271   -3.6073    0.0000 C   0  0  0  0  0  0  0  0  0  0  0  0
   -1.9635   -5.0339    0.0000 C   0  0  0  0  0  0  0  0  0  0  0  0
   -0.7500   -5.9156    0.0000 C   0  0  0  0  0  0  0  0  0  0  0  0
    0.7500   -5.9156    0.0000 C   0  0  0  0  0  0  0  0  0  0  0  0
    1.9635   -5.0339    0.0000 C   0  0  0  0  0  0  0  0  0  0  0  0
    2.4271   -3.6073    0.0000 C   0  0  0  0  0  0  0  0  0  0  0  0
    1.9635   -2.1807    0.0000 C   0  0  0  0  0  0  0  0  0  0  0  0
    3.1771   -1.2990    0.0000 C   0  0  0  0  0  0  0  0  0  0  0  0
    3.0203    0.1927    0.0000 O   0  0  0  0  0  0  0  0  0  0  0  0
    4.5474   -1.9091    0.0000 N   0  0  0  0  0  0  0  0  0  0  0  0
    5.7609   -1.0275    0.0000 C   0  0  0  0  0  0  0  0  0  0  0  0
    5.7609    0.4725    0.0000 N   0  0  0  0  0  0  0  0  0  0  0  0
    7.1875    0.9361    0.0000 N   0  0  0  0  0  0  0  0  0  0  0  0
    8.0692   -0.2775    0.0000 N   0  0  0  0  0  0  0  0  0  0  0  0
    7.1875   -1.4910    0.0000 N   0  0  0  0  0  0  0  0  0  0  0  0
    7.6510   -2.9176    0.0000 N   0  0  0  0  0  0  0  0  0  0  0  0
    9.0776   -3.3811    0.0000 C   0  0  0  0  0  0  0  0  0  0  0  0
    9.0776   -4.8811    0.0000 C   0  0  0  0  0  0  0  0  0  0  0  0
    7.6510   -5.3446    0.0000 N   0  0  0  0  0  0  0  0  0  0  0  0
    7.1875   -6.7712    0.0000 C   0  0  0  0  0  0  0  0  0  0  0  0
    8.1912   -7.8859    0.0000 O   0  0  0  0  0  0  0  0  0  0  0  0
    5.7203   -7.0831    0.0000 N   0  0  0  0  0  0  0  0  0  0  0  0
    5.2567   -8.5097    0.0000 C   0  0  0  0  0  0  0  0  0  0  0  0
    3.7895   -8.8215    0.0000 N   0  0  0  0  0  0  0  0  0  0  0  0
    3.3260  -10.2481    0.0000 N   0  0  0  0  0  0  0  0  0  0  0  0
    4.3297  -11.3628    0.0000 N   0  0  0  0  0  0  0  0  0  0  0  0
    5.7969  -11.0510    0.0000 N   0  0  0  0  0  0  0  0  0  0  0  0
    6.2604   -9.6244    0.0000 N   0  0  0  0  0  0  0  0  0  0  0  0
    6.7693   -4.1311    0.0000 C   0  0  0  0  0  0  0  0  0  0  0  0
    5.2693   -4.1311    0.0000 O   0  0  0  0  0  0  0  0  0  0  0  0
    0.7500   -1.2990    0.0000 C   0  0  0  0  0  0  0  0  0  0  0  0
    1.5000    0.0000    0.0000 C   0  0  0  0  0  0  0  0  0  0  0  0
    0.7500    1.2990    0.0000 C   0  0  0  0  0  0  0  0  0  0  0  0
   -0.7500    1.2990    0.0000 C   0  0  0  0  0  0  0  0  0  0  0  0
   -1.5000    0.0000    0.0000 C   0  0  0  0  0  0  0  0  0  0  0  0
   -0.7500   -1.2990    0.0000 C   0  0  0  0  0  0  0  0  0  0  0  0
  1  2  1  0
  2  3  1  0
  3  4  1  0
  4  5  1  0
  5  6  1  0
  6  7  1  0
  7  8  1  0
  8  9  1  0
  9 10  1  0
 10 11  2  0
 10 12  1  0
 12 13  1  0
 13 14  2  0
 14 15  1  0
 15 16  2  0
 16 17  1  0
 17 18  1  0
 18 19  1  0
 19 20  1  0
 20 21  1  0
 21 22  1  0
 22 23  2  0
 22 24  1  0
 24 25  1  0
 25 26  2  0
 26 27  1  0
 27 28  2  0
 28 29  1  0
 29 30  2  0
 21 31  1  0
 31 32  2  0
  9 33  1  0
 33 34  2  0
 34 35  1  0
 35 36  2  0
 36 37  1  0
 37 38  2  0
 38  2  1  0
 17 13  1  0
 31 18  1  0
 38 33  1  0
 30 25  1  0
M  END
>  <Title>  (399) 
idAANKgen13

$$$$

     RDKit          2D

  4  3  0  0  0  0  0  0  0  0999 V2000
    0.0000    0.0000    0.0000 C   0  0  0  0  0  0  0  0  0  0  0  0
    1.2990    0.7500    0.0000 C   0  0  0  0  0  0  0  0  0  0  0  0
    2.5981   -0.0000    0.0000 C   0  0  0  0  0  0  0  0  0  0  0  0
    1.2990    2.2500    0.0000 O   0  0  0  0  0  0  0  0  0  0  0  0
  1  2  1  0
  2  3  1  0
  2  4  1  0
M  END
>  <Title>  (400) 
idAANLgen13

$$$$

     RDKit          2D

 34 38  0  0  0  0  0  0  0  0999 V2000
   -2.5242   -4.8694    0.0000 C   0  0  0  0  0  0  0  0  0  0  0  0
   -1.3515   -3.9342    0.0000 C   0  0  0  0  0  0  0  0  0  0  0  0
   -1.6852   -2.4718    0.0000 C   0  0  0  0  0  0  0  0  0  0  0  0
   -0.7500   -1.2990    0.0000 C   0  0  0  0  0  0  0  0  0  0  0  0
    0.7500   -1.2990    0.0000 C   0  0  0  0  0  0  0  0  0  0  0  0
    1.6852   -2.4718    0.0000 C   0  0  0  0  0  0  0  0  0  0  0  0
    3.1476   -2.1380    0.0000 C   0  0  0  0  0  0  0  0  0  0  0  0
    4.1679   -3.2376    0.0000 C   0  0  0  0  0  0  0  0  0  0  0  0
    5.6303   -2.9038    0.0000 C   0  0  0  0  0  0  0  0  0  0  0  0
    6.0724   -1.4704    0.0000 C   0  0  0  0  0  0  0  0  0  0  0  0
    5.0522   -0.3709    0.0000 C   0  0  0  0  0  0  0  0  0  0  0  0
    3.5898   -0.7046    0.0000 C   0  0  0  0  0  0  0  0  0  0  0  0
    2.5695    0.3949    0.0000 C   0  0  0  0  0  0  0  0  0  0  0  0
    1.0802    0.2158    0.0000 C   0  0  0  0  0  0  0  0  0  0  0  0
    0.4497    1.5769    0.0000 C   0  0  0  0  0  0  0  0  0  0  0  0
    1.5493    2.5971    0.0000 C   0  0  0  0  0  0  0  0  0  0  0  0
    1.3702    4.0864    0.0000 O   0  0  0  0  0  0  0  0  0  0  0  0
    2.5704    4.9861    0.0000 C   0  0  0  0  0  0  0  0  0  0  0  0
    3.9497    4.3966    0.0000 O   0  0  0  0  0  0  0  0  0  0  0  0
    2.3913    6.4754    0.0000 N   0  0  0  0  0  0  0  0  0  0  0  0
    3.5915    7.3751    0.0000 C   0  0  0  0  0  0  0  0  0  0  0  0
    4.9708    6.7856    0.0000 N   0  0  0  0  0  0  0  0  0  0  0  0
    6.1710    7.6853    0.0000 N   0  0  0  0  0  0  0  0  0  0  0  0
    5.9919    9.1746    0.0000 N   0  0  0  0  0  0  0  0  0  0  0  0
    4.6126    9.7641    0.0000 N   0  0  0  0  0  0  0  0  0  0  0  0
    3.4124    8.8644    0.0000 N   0  0  0  0  0  0  0  0  0  0  0  0
    2.8594    1.8667    0.0000 C   0  0  0  0  0  0  0  0  0  0  0  0
    4.2204    2.4972    0.0000 O   0  0  0  0  0  0  0  0  0  0  0  0
    1.3515   -3.9342    0.0000 C   0  0  0  0  0  0  0  0  0  0  0  0
    2.5908   -4.7792    0.0000 C   0  0  0  0  0  0  0  0  0  0  0  0
    2.4787   -6.2750    0.0000 C   0  0  0  0  0  0  0  0  0  0  0  0
    1.1273   -6.9258    0.0000 C   0  0  0  0  0  0  0  0  0  0  0  0
   -0.1121   -6.0808    0.0000 C   0  0  0  0  0  0  0  0  0  0  0  0
   -0.0000   -4.5850    0.0000 C   0  0  0  0  0  0  0  0  0  0  0  0
  1  2  1  0
  2  3  1  0
  3  4  1  0
  4  5  1  0
  5  6  1  0
  6  7  1  0
  7  8  2  0
  8  9  1  0
  9 10  2  0
 10 11  1  0
 11 12  2  0
 12 13  1  0
 13 14  2  0
 14 15  1  0
 15 16  2  0
 16 17  1  0
 17 18  1  0
 18 19  2  0
 18 20  1  0
 20 21  1  0
 21 22  2  0
 22 23  1  0
 23 24  2  0
 24 25  1  0
 25 26  2  0
 16 27  1  0
 27 28  2  0
  6 29  1  0
 29 30  2  0
 30 31  1  0
 31 32  2  0
 32 33  1  0
 33 34  2  0
 34  2  1  0
 12  7  1  0
 27 13  1  0
 34 29  1  0
 26 21  1  0
M  END
>  <Title>  (401) 
idAANMgen13

$$$$

     RDKit          2D

 11 12  0  0  0  0  0  0  0  0999 V2000
    2.7760    0.0000    0.0000 C   0  0  0  0  0  0  0  0  0  0  0  0
    1.2760    0.0000    0.0000 C   0  0  0  0  0  0  0  0  0  0  0  0
    0.3943    1.2135    0.0000 C   0  0  0  0  0  0  0  0  0  0  0  0
   -1.0323    0.7500    0.0000 C   0  0  0  0  0  0  0  0  0  0  0  0
   -1.0323   -0.7500    0.0000 C   0  0  0  0  0  0  0  0  0  0  0  0
   -2.2458   -1.6317    0.0000 N   0  0  0  0  0  0  0  0  0  0  0  0
   -2.2458   -3.1317    0.0000 N   0  0  0  0  0  0  0  0  0  0  0  0
   -3.6724   -3.5952    0.0000 N   0  0  0  0  0  0  0  0  0  0  0  0
   -4.5541   -2.3817    0.0000 N   0  0  0  0  0  0  0  0  0  0  0  0
   -3.6724   -1.1682    0.0000 N   0  0  0  0  0  0  0  0  0  0  0  0
    0.3943   -1.2135    0.0000 C   0  0  0  0  0  0  0  0  0  0  0  0
  1  2  1  0
  2  3  2  0
  3  4  1  0
  4  5  2  0
  5  6  1  0
  6  7  1  0
  7  8  2  0
  8  9  1  0
  9 10  2  0
  5 11  1  0
 11  2  1  0
 10  6  1  0
M  END
>  <Title>  (402) 
idAANNgen13

$$$$

     RDKit          2D

  5  4  0  0  0  0  0  0  0  0999 V2000
    0.0000    0.0000    0.0000 C   0  0  0  0  0  0  0  0  0  0  0  0
   -0.0000   -1.5000    0.0000 C   0  0  0  0  0  0  0  0  0  0  0  0
   -0.0000   -3.0000    0.0000 C   0  0  0  0  0  0  0  0  0  0  0  0
    1.2990   -3.7500    0.0000 C   0  0  0  0  0  0  0  0  0  0  0  0
   -1.2990   -3.7500    0.0000 C   0  0  0  0  0  0  0  0  0  0  0  0
  1  2  3  0
  2  3  1  0
  3  4  1  0
  3  5  1  0
M  END
>  <Title>  (403) 
idAANOgen13

$$$$

     RDKit          2D

 19 20  0  0  0  0  0  0  0  0999 V2000
    7.2760    2.5981    0.0000 C   0  0  0  0  0  0  0  0  0  0  0  0
    5.7760    2.5981    0.0000 C   0  0  0  0  0  0  0  0  0  0  0  0
    5.0260    3.8971    0.0000 F   0  0  0  0  0  0  0  0  0  0  0  0
    5.0260    1.2990    0.0000 C   0  0  0  0  0  0  0  0  0  0  0  0
    3.5260    1.2990    0.0000 C   0  0  0  0  0  0  0  0  0  0  0  0
    2.7760    2.5981    0.0000 O   0  0  0  0  0  0  0  0  0  0  0  0
    2.7760    0.0000    0.0000 N   0  0  0  0  0  0  0  0  0  0  0  0
    1.2760    0.0000    0.0000 C   0  0  0  0  0  0  0  0  0  0  0  0
    0.3943    1.2135    0.0000 N   0  0  0  0  0  0  0  0  0  0  0  0
   -1.0323    0.7500    0.0000 N   0  0  0  0  0  0  0  0  0  0  0  0
   -1.0323   -0.7500    0.0000 N   0  0  0  0  0  0  0  0  0  0  0  0
    0.3943   -1.2135    0.0000 C   0  0  0  0  0  0  0  0  0  0  0  0
    0.9214   -2.6179    0.0000 C   0  0  0  0  0  0  0  0  0  0  0  0
    0.1520   -3.9056    0.0000 C   0  0  0  0  0  0  0  0  0  0  0  0
   -1.3344   -4.1069    0.0000 C   0  0  0  0  0  0  0  0  0  0  0  0
   -2.4186   -3.0703    0.0000 C   0  0  0  0  0  0  0  0  0  0  0  0
   -3.8230   -3.5974    0.0000 C   0  0  0  0  0  0  0  0  0  0  0  0
   -2.2841   -1.5763    0.0000 C   0  0  0  0  0  0  0  0  0  0  0  0
   -3.5718   -0.8070    0.0000 O   0  0  0  0  0  0  0  0  0  0  0  0
  1  2  1  0
  2  3  1  0
  2  4  1  0
  4  5  1  0
  5  6  2  0
  5  7  1  0
  7  8  1  0
  8  9  1  0
  9 10  2  0
 10 11  1  0
 11 12  1  0
 12 13  1  0
 13 14  1  0
 14 15  1  0
 15 16  1  0
 16 17  1  0
 16 18  1  0
 18 19  2  0
 12  8  2  0
 18 11  1  0
M  END
>  <Title>  (404) 
idAANPgen13

$$$$

     RDKit          2D

 57 59  0  0  0  0  0  0  0  0999 V2000
   -2.6961    5.6884    0.0000 C   0  0  0  0  0  0  0  0  0  0  0  0
   -1.2847    6.1962    0.0000 C   0  0  0  0  0  0  0  0  0  0  0  0
   -1.6881    7.6410    0.0000 C   0  0  0  0  0  0  0  0  0  0  0  0
   -1.8769    9.1290    0.0000 C   0  0  0  0  0  0  0  0  0  0  0  0
   -1.8471   10.6287    0.0000 C   0  0  0  0  0  0  0  0  0  0  0  0
   -1.5991   12.1081    0.0000 C   0  0  0  0  0  0  0  0  0  0  0  0
   -1.1384   13.5356    0.0000 C   0  0  0  0  0  0  0  0  0  0  0  0
   -0.4748   14.8808    0.0000 C   0  0  0  0  0  0  0  0  0  0  0  0
    0.3776   16.1151    0.0000 C   0  0  0  0  0  0  0  0  0  0  0  0
    1.4006   17.2121    0.0000 C   0  0  0  0  0  0  0  0  0  0  0  0
    2.5725   18.1484    0.0000 C   0  0  0  0  0  0  0  0  0  0  0  0
    3.8682   18.9042    0.0000 C   0  0  0  0  0  0  0  0  0  0  0  0
    5.2601   19.4632    0.0000 C   0  0  0  0  0  0  0  0  0  0  0  0
    6.7186   19.8136    0.0000 C   0  0  0  0  0  0  0  0  0  0  0  0
    8.2126   19.9479    0.0000 C   0  0  0  0  0  0  0  0  0  0  0  0
    9.7102   19.8633    0.0000 C   0  0  0  0  0  0  0  0  0  0  0  0
   11.1795   19.5615    0.0000 C   0  0  0  0  0  0  0  0  0  0  0  0
   12.5893   19.0490    0.0000 C   0  0  0  0  0  0  0  0  0  0  0  0
   13.9093   18.3367    0.0000 C   0  0  0  0  0  0  0  0  0  0  0  0
   15.1116   17.4398    0.0000 C   0  0  0  0  0  0  0  0  0  0  0  0
   16.1705   16.3773    0.0000 C   0  0  0  0  0  0  0  0  0  0  0  0
   17.0635   15.1721    0.0000 C   0  0  0  0  0  0  0  0  0  0  0  0
   17.7714   13.8496    0.0000 C   0  0  0  0  0  0  0  0  0  0  0  0
   18.2792   12.4382    0.0000 C   0  0  0  0  0  0  0  0  0  0  0  0
   18.5761   10.9679    0.0000 C   0  0  0  0  0  0  0  0  0  0  0  0
   18.6558    9.4700    0.0000 C   0  0  0  0  0  0  0  0  0  0  0  0
   18.5165    7.9765    0.0000 C   0  0  0  0  0  0  0  0  0  0  0  0
   18.1613    6.5192    0.0000 C   0  0  0  0  0  0  0  0  0  0  0  0
   17.5976    5.1291    0.0000 C   0  0  0  0  0  0  0  0  0  0  0  0
   16.8376    3.8359    0.0000 C   0  0  0  0  0  0  0  0  0  0  0  0
   15.8973    2.6672    0.0000 C   0  0  0  0  0  0  0  0  0  0  0  0
   14.7969    1.6478    0.0000 C   0  0  0  0  0  0  0  0  0  0  0  0
   13.5599    0.7995    0.0000 C   0  0  0  0  0  0  0  0  0  0  0  0
   12.2124    0.1403    0.0000 C   0  0  0  0  0  0  0  0  0  0  0  0
   10.7834   -0.3156    0.0000 C   0  0  0  0  0  0  0  0  0  0  0  0
    9.3032   -0.5586    0.0000 C   0  0  0  0  0  0  0  0  0  0  0  0
    7.8034   -0.5835    0.0000 C   0  0  0  0  0  0  0  0  0  0  0  0
    6.3160   -0.3898    0.0000 C   0  0  0  0  0  0  0  0  0  0  0  0
    4.8726    0.0184    0.0000 C   0  0  0  0  0  0  0  0  0  0  0  0
    3.5041    0.6325    0.0000 C   0  0  0  0  0  0  0  0  0  0  0  0
    2.2395    1.4392    0.0000 C   0  0  0  0  0  0  0  0  0  0  0  0
    2.6621    0.0000    0.0000 C   0  0  0  0  0  0  0  0  0  0  0  0
    2.2395   -1.4392    0.0000 C   0  0  0  0  0  0  0  0  0  0  0  0
    1.1059   -2.4215    0.0000 C   0  0  0  0  0  0  0  0  0  0  0  0
   -0.3789   -2.6350    0.0000 C   0  0  0  0  0  0  0  0  0  0  0  0
   -1.7433   -2.0119    0.0000 C   0  0  0  0  0  0  0  0  0  0  0  0
   -2.5543   -0.7500    0.0000 C   0  0  0  0  0  0  0  0  0  0  0  0
   -2.5543    0.7500    0.0000 C   0  0  0  0  0  0  0  0  0  0  0  0
   -1.7433    2.0119    0.0000 C   0  0  0  0  0  0  0  0  0  0  0  0
   -0.3789    2.6350    0.0000 C   0  0  0  0  0  0  0  0  0  0  0  0
    1.1059    2.4215    0.0000 C   0  0  0  0  0  0  0  0  0  0  0  0
    0.1274    3.5584    0.0000 C   0  0  0  0  0  0  0  0  0  0  0  0
    1.6261    3.6198    0.0000 C   0  0  0  0  0  0  0  0  0  0  0  0
    2.3223    4.9485    0.0000 C   0  0  0  0  0  0  0  0  0  0  0  0
    1.5197    6.2157    0.0000 C   0  0  0  0  0  0  0  0  0  0  0  0
    0.0210    6.1543    0.0000 C   0  0  0  0  0  0  0  0  0  0  0  0
   -0.6752    4.8256    0.0000 C   0  0  0  0  0  0  0  0  0  0  0  0
  1  2  1  0
  2  3  1  0
  3  4  1  0
  4  5  1  0
  5  6  1  0
  6  7  1  0
  7  8  1  0
  8  9  1  0
  9 10  1  0
 10 11  1  0
 11 12  1  0
 12 13  1  0
 13 14  1  0
 14 15  1  0
 15 16  1  0
 16 17  1  0
 17 18  1  0
 18 19  1  0
 19 20  1  0
 20 21  1  0
 21 22  1  0
 22 23  1  0
 23 24  1  0
 24 25  1  0
 25 26  1  0
 26 27  1  0
 27 28  1  0
 28 29  1  0
 29 30  1  0
 30 31  1  0
 31 32  1  0
 32 33  1  0
 33 34  1  0
 34 35  1  0
 35 36  1  0
 36 37  1  0
 37 38  1  0
 38 39  1  0
 39 40  1  0
 40 41  1  0
 41 42  1  0
 42 43  2  0
 43 44  1  0
 44 45  2  0
 45 46  1  0
 46 47  2  0
 47 48  1  0
 48 49  2  0
 49 50  1  0
 50 51  2  0
 51 52  1  0
 52 53  2  0
 53 54  1  0
 54 55  2  0
 55 56  1  0
 56 57  2  0
 57  2  1  0
 51 41  1  0
 57 52  1  0
M  END
>  <Title>  (405) 
idAANQgen13

$$$$

     RDKit          2D

 93 95  0  0  0  0  0  0  0  0999 V2000
   -2.4119    0.0810    0.0000 C   0  0  0  0  0  0  0  0  0  0  0  0
   -2.2459   -1.4098    0.0000 C   0  0  0  0  0  0  0  0  0  0  0  0
   -3.7295   -1.6308    0.0000 C   0  0  0  0  0  0  0  0  0  0  0  0
   -5.1928   -1.9607    0.0000 C   0  0  0  0  0  0  0  0  0  0  0  0
   -6.6277   -2.3978    0.0000 C   0  0  0  0  0  0  0  0  0  0  0  0
   -8.0264   -2.9396    0.0000 C   0  0  0  0  0  0  0  0  0  0  0  0
   -9.3813   -3.5833    0.0000 C   0  0  0  0  0  0  0  0  0  0  0  0
  -10.6849   -4.3253    0.0000 C   0  0  0  0  0  0  0  0  0  0  0  0
  -11.9302   -5.1615    0.0000 C   0  0  0  0  0  0  0  0  0  0  0  0
  -13.1103   -6.0875    0.0000 C   0  0  0  0  0  0  0  0  0  0  0  0
  -14.2188   -7.0980    0.0000 C   0  0  0  0  0  0  0  0  0  0  0  0
  -15.2497   -8.1876    0.0000 C   0  0  0  0  0  0  0  0  0  0  0  0
  -16.1973   -9.3505    0.0000 C   0  0  0  0  0  0  0  0  0  0  0  0
  -17.0564  -10.5801    0.0000 C   0  0  0  0  0  0  0  0  0  0  0  0
  -17.8223  -11.8698    0.0000 C   0  0  0  0  0  0  0  0  0  0  0  0
  -18.4909  -13.2125    0.0000 C   0  0  0  0  0  0  0  0  0  0  0  0
  -19.0585  -14.6010    0.0000 C   0  0  0  0  0  0  0  0  0  0  0  0
  -19.5221  -16.0275    0.0000 C   0  0  0  0  0  0  0  0  0  0  0  0
  -19.8790  -17.4845    0.0000 C   0  0  0  0  0  0  0  0  0  0  0  0
  -20.1273  -18.9638    0.0000 C   0  0  0  0  0  0  0  0  0  0  0  0
  -20.2657  -20.4574    0.0000 C   0  0  0  0  0  0  0  0  0  0  0  0
  -20.2934  -21.9571    0.0000 C   0  0  0  0  0  0  0  0  0  0  0  0
  -20.2103  -23.4548    0.0000 C   0  0  0  0  0  0  0  0  0  0  0  0
  -20.0168  -24.9423    0.0000 C   0  0  0  0  0  0  0  0  0  0  0  0
  -19.7140  -26.4114    0.0000 C   0  0  0  0  0  0  0  0  0  0  0  0
  -19.3035  -27.8541    0.0000 C   0  0  0  0  0  0  0  0  0  0  0  0
  -18.7876  -29.2626    0.0000 C   0  0  0  0  0  0  0  0  0  0  0  0
  -18.1690  -30.6291    0.0000 C   0  0  0  0  0  0  0  0  0  0  0  0
  -17.4513  -31.9463    0.0000 C   0  0  0  0  0  0  0  0  0  0  0  0
  -16.6382  -33.2068    0.0000 C   0  0  0  0  0  0  0  0  0  0  0  0
  -15.7342  -34.4038    0.0000 C   0  0  0  0  0  0  0  0  0  0  0  0
  -14.7443  -35.5308    0.0000 C   0  0  0  0  0  0  0  0  0  0  0  0
  -13.6739  -36.5816    0.0000 C   0  0  0  0  0  0  0  0  0  0  0  0
  -12.5288  -37.5505    0.0000 C   0  0  0  0  0  0  0  0  0  0  0  0
  -11.3153  -38.4322    0.0000 C   0  0  0  0  0  0  0  0  0  0  0  0
  -10.0400  -39.2218    0.0000 C   0  0  0  0  0  0  0  0  0  0  0  0
   -8.7098  -39.9151    0.0000 C   0  0  0  0  0  0  0  0  0  0  0  0
   -7.3321  -40.5083    0.0000 C   0  0  0  0  0  0  0  0  0  0  0  0
   -5.9143  -40.9981    0.0000 C   0  0  0  0  0  0  0  0  0  0  0  0
   -4.4642  -41.3819    0.0000 C   0  0  0  0  0  0  0  0  0  0  0  0
   -2.9898  -41.6575    0.0000 C   0  0  0  0  0  0  0  0  0  0  0  0
   -1.4990  -41.8235    0.0000 C   0  0  0  0  0  0  0  0  0  0  0  0
   -0.0000  -41.8789    0.0000 C   0  0  0  0  0  0  0  0  0  0  0  0
    1.4990  -41.8235    0.0000 C   0  0  0  0  0  0  0  0  0  0  0  0
    2.9898  -41.6575    0.0000 C   0  0  0  0  0  0  0  0  0  0  0  0
    4.4642  -41.3819    0.0000 C   0  0  0  0  0  0  0  0  0  0  0  0
    5.9143  -40.9981    0.0000 C   0  0  0  0  0  0  0  0  0  0  0  0
    7.3321  -40.5083    0.0000 C   0  0  0  0  0  0  0  0  0  0  0  0
    8.7098  -39.9151    0.0000 C   0  0  0  0  0  0  0  0  0  0  0  0
   10.0400  -39.2218    0.0000 C   0  0  0  0  0  0  0  0  0  0  0  0
   11.3153  -38.4322    0.0000 C   0  0  0  0  0  0  0  0  0  0  0  0
   12.5288  -37.5505    0.0000 C   0  0  0  0  0  0  0  0  0  0  0  0
   13.6739  -36.5816    0.0000 C   0  0  0  0  0  0  0  0  0  0  0  0
   14.7443  -35.5308    0.0000 C   0  0  0  0  0  0  0  0  0  0  0  0
   15.7342  -34.4038    0.0000 C   0  0  0  0  0  0  0  0  0  0  0  0
   16.6382  -33.2068    0.0000 C   0  0  0  0  0  0  0  0  0  0  0  0
   17.4513  -31.9463    0.0000 C   0  0  0  0  0  0  0  0  0  0  0  0
   18.1690  -30.6291    0.0000 C   0  0  0  0  0  0  0  0  0  0  0  0
   18.7876  -29.2626    0.0000 C   0  0  0  0  0  0  0  0  0  0  0  0
   19.3035  -27.8541    0.0000 C   0  0  0  0  0  0  0  0  0  0  0  0
   19.7140  -26.4114    0.0000 C   0  0  0  0  0  0  0  0  0  0  0  0
   20.0168  -24.9423    0.0000 C   0  0  0  0  0  0  0  0  0  0  0  0
   20.2103  -23.4548    0.0000 C   0  0  0  0  0  0  0  0  0  0  0  0
   20.2934  -21.9571    0.0000 C   0  0  0  0  0  0  0  0  0  0  0  0
   20.2657  -20.4574    0.0000 C   0  0  0  0  0  0  0  0  0  0  0  0
   20.1273  -18.9638    0.0000 C   0  0  0  0  0  0  0  0  0  0  0  0
   19.8790  -17.4845    0.0000 C   0  0  0  0  0  0  0  0  0  0  0  0
   19.5221  -16.0275    0.0000 C   0  0  0  0  0  0  0  0  0  0  0  0
   19.0585  -14.6010    0.0000 C   0  0  0  0  0  0  0  0  0  0  0  0
   18.4909  -13.2125    0.0000 C   0  0  0  0  0  0  0  0  0  0  0  0
   17.8223  -11.8698    0.0000 C   0  0  0  0  0  0  0  0  0  0  0  0
   17.0564  -10.5801    0.0000 C   0  0  0  0  0  0  0  0  0  0  0  0
   16.1973   -9.3505    0.0000 C   0  0  0  0  0  0  0  0  0  0  0  0
   15.2497   -8.1876    0.0000 C   0  0  0  0  0  0  0  0  0  0  0  0
   14.2188   -7.0980    0.0000 C   0  0  0  0  0  0  0  0  0  0  0  0
   13.1103   -6.0875    0.0000 C   0  0  0  0  0  0  0  0  0  0  0  0
   11.9302   -5.1615    0.0000 C   0  0  0  0  0  0  0  0  0  0  0  0
   10.6849   -4.3253    0.0000 C   0  0  0  0  0  0  0  0  0  0  0  0
    9.3813   -3.5833    0.0000 C   0  0  0  0  0  0  0  0  0  0  0  0
    8.0264   -2.9396    0.0000 C   0  0  0  0  0  0  0  0  0  0  0  0
    6.6277   -2.3978    0.0000 C   0  0  0  0  0  0  0  0  0  0  0  0
    5.1928   -1.9607    0.0000 C   0  0  0  0  0  0  0  0  0  0  0  0
    3.7295   -1.6308    0.0000 C   0  0  0  0  0  0  0  0  0  0  0  0
    3.9779   -3.1101    0.0000 C   0  0  0  0  0  0  0  0  0  0  0  0
    2.6477   -3.8034    0.0000 C   0  0  0  0  0  0  0  0  0  0  0  0
    1.5773   -2.7526    0.0000 C   0  0  0  0  0  0  0  0  0  0  0  0
    2.2459   -1.4098    0.0000 C   0  0  0  0  0  0  0  0  0  0  0  0
    0.7500   -1.2990    0.0000 C   0  0  0  0  0  0  0  0  0  0  0  0
    1.5000    0.0000    0.0000 C   0  0  0  0  0  0  0  0  0  0  0  0
    0.7500    1.2990    0.0000 C   0  0  0  0  0  0  0  0  0  0  0  0
   -0.7500    1.2990    0.0000 C   0  0  0  0  0  0  0  0  0  0  0  0
   -1.5000    0.0000    0.0000 C   0  0  0  0  0  0  0  0  0  0  0  0
   -0.7500   -1.2990    0.0000 C   0  0  0  0  0  0  0  0  0  0  0  0
  1  2  1  0
  2  3  1  0
  3  4  1  0
  4  5  1  0
  5  6  1  0
  6  7  1  0
  7  8  1  0
  8  9  1  0
  9 10  1  0
 10 11  1  0
 11 12  1  0
 12 13  1  0
 13 14  1  0
 14 15  1  0
 15 16  1  0
 16 17  1  0
 17 18  1  0
 18 19  1  0
 19 20  1  0
 20 21  1  0
 21 22  1  0
 22 23  1  0
 23 24  1  0
 24 25  1  0
 25 26  1  0
 26 27  1  0
 27 28  1  0
 28 29  1  0
 29 30  1  0
 30 31  1  0
 31 32  1  0
 32 33  1  0
 33 34  1  0
 34 35  1  0
 35 36  1  0
 36 37  1  0
 37 38  1  0
 38 39  1  0
 39 40  1  0
 40 41  1  0
 41 42  1  0
 42 43  1  0
 43 44  1  0
 44 45  1  0
 45 46  1  0
 46 47  1  0
 47 48  1  0
 48 49  1  0
 49 50  1  0
 50 51  1  0
 51 52  1  0
 52 53  1  0
 53 54  1  0
 54 55  1  0
 55 56  1  0
 56 57  1  0
 57 58  1  0
 58 59  1  0
 59 60  1  0
 60 61  1  0
 61 62  1  0
 62 63  1  0
 63 64  1  0
 64 65  2  0
 65 66  1  0
 66 67  2  0
 67 68  1  0
 68 69  2  0
 69 70  1  0
 70 71  2  0
 71 72  1  0
 72 73  2  0
 73 74  1  0
 74 75  2  0
 75 76  1  0
 76 77  2  0
 77 78  1  0
 78 79  2  0
 79 80  1  0
 80 81  2  0
 81 82  1  0
 82 83  2  0
 83 84  1  0
 84 85  2  0
 85 86  1  0
 86 87  2  0
 87 88  1  0
 88 89  2  0
 89 90  1  0
 90 91  2  0
 91 92  1  0
 92 93  2  0
 93  2  1  0
 87 83  1  0
 93 88  1  0
M  END
>  <Title>  (406) 
idAANRgen13

$$$$

     RDKit          2D

 93 94  0  0  0  0  0  0  0  0999 V2000
   -2.1779   -1.0793    0.0000 C   0  0  0  0  0  0  0  0  0  0  0  0
   -2.4880    0.3883    0.0000 C   0  0  0  0  0  0  0  0  0  0  0  0
   -3.9656    0.1301    0.0000 C   0  0  0  0  0  0  0  0  0  0  0  0
   -5.4578   -0.0232    0.0000 C   0  0  0  0  0  0  0  0  0  0  0  0
   -6.9570   -0.0708    0.0000 C   0  0  0  0  0  0  0  0  0  0  0  0
   -8.4559   -0.0126    0.0000 C   0  0  0  0  0  0  0  0  0  0  0  0
   -9.9469    0.1512    0.0000 C   0  0  0  0  0  0  0  0  0  0  0  0
  -11.4227    0.4198    0.0000 C   0  0  0  0  0  0  0  0  0  0  0  0
  -12.8758    0.7918    0.0000 C   0  0  0  0  0  0  0  0  0  0  0  0
  -14.2991    1.2654    0.0000 C   0  0  0  0  0  0  0  0  0  0  0  0
  -15.6854    1.8382    0.0000 C   0  0  0  0  0  0  0  0  0  0  0  0
  -17.0279    2.5074    0.0000 C   0  0  0  0  0  0  0  0  0  0  0  0
  -18.3198    3.2696    0.0000 C   0  0  0  0  0  0  0  0  0  0  0  0
  -19.5547    4.1210    0.0000 C   0  0  0  0  0  0  0  0  0  0  0  0
  -20.7266    5.0574    0.0000 C   0  0  0  0  0  0  0  0  0  0  0  0
  -21.8294    6.0741    0.0000 C   0  0  0  0  0  0  0  0  0  0  0  0
  -22.8577    7.1661    0.0000 C   0  0  0  0  0  0  0  0  0  0  0  0
  -23.8065    8.3280    0.0000 C   0  0  0  0  0  0  0  0  0  0  0  0
  -24.6710    9.5538    0.0000 C   0  0  0  0  0  0  0  0  0  0  0  0
  -25.4468   10.8376    0.0000 C   0  0  0  0  0  0  0  0  0  0  0  0
  -26.1301   12.1729    0.0000 C   0  0  0  0  0  0  0  0  0  0  0  0
  -26.7176   13.5531    0.0000 C   0  0  0  0  0  0  0  0  0  0  0  0
  -27.2062   14.9713    0.0000 C   0  0  0  0  0  0  0  0  0  0  0  0
  -27.5936   16.4204    0.0000 C   0  0  0  0  0  0  0  0  0  0  0  0
  -27.8778   17.8932    0.0000 C   0  0  0  0  0  0  0  0  0  0  0  0
  -28.0574   19.3824    0.0000 C   0  0  0  0  0  0  0  0  0  0  0  0
  -28.1315   20.8806    0.0000 C   0  0  0  0  0  0  0  0  0  0  0  0
  -28.0997   22.3803    0.0000 C   0  0  0  0  0  0  0  0  0  0  0  0
  -27.9622   23.8739    0.0000 C   0  0  0  0  0  0  0  0  0  0  0  0
  -27.7198   25.3542    0.0000 C   0  0  0  0  0  0  0  0  0  0  0  0
  -27.3735   26.8137    0.0000 C   0  0  0  0  0  0  0  0  0  0  0  0
  -26.9251   28.2451    0.0000 C   0  0  0  0  0  0  0  0  0  0  0  0
  -26.3768   29.6413    0.0000 C   0  0  0  0  0  0  0  0  0  0  0  0
  -25.7314   30.9954    0.0000 C   0  0  0  0  0  0  0  0  0  0  0  0
  -24.9922   32.3006    0.0000 C   0  0  0  0  0  0  0  0  0  0  0  0
  -24.1627   33.5503    0.0000 C   0  0  0  0  0  0  0  0  0  0  0  0
  -23.2471   34.7385    0.0000 C   0  0  0  0  0  0  0  0  0  0  0  0
  -22.2500   35.8591    0.0000 C   0  0  0  0  0  0  0  0  0  0  0  0
  -21.1763   36.9066    0.0000 C   0  0  0  0  0  0  0  0  0  0  0  0
  -20.0314   37.8757    0.0000 C   0  0  0  0  0  0  0  0  0  0  0  0
  -18.8210   38.7616    0.0000 C   0  0  0  0  0  0  0  0  0  0  0  0
  -17.5511   39.5600    0.0000 C   0  0  0  0  0  0  0  0  0  0  0  0
  -16.2280   40.2668    0.0000 C   0  0  0  0  0  0  0  0  0  0  0  0
  -14.8585   40.8785    0.0000 C   0  0  0  0  0  0  0  0  0  0  0  0
  -13.4491   41.3921    0.0000 C   0  0  0  0  0  0  0  0  0  0  0  0
  -12.0071   41.8050    0.0000 C   0  0  0  0  0  0  0  0  0  0  0  0
  -10.5395   42.1151    0.0000 C   0  0  0  0  0  0  0  0  0  0  0  0
   -9.0537   42.3210    0.0000 C   0  0  0  0  0  0  0  0  0  0  0  0
   -7.5570   42.4215    0.0000 C   0  0  0  0  0  0  0  0  0  0  0  0
   -6.0570   42.4162    0.0000 C   0  0  0  0  0  0  0  0  0  0  0  0
   -4.5612   42.3051    0.0000 C   0  0  0  0  0  0  0  0  0  0  0  0
   -3.0768   42.0888    0.0000 C   0  0  0  0  0  0  0  0  0  0  0  0
   -1.6115   41.7683    0.0000 C   0  0  0  0  0  0  0  0  0  0  0  0
   -0.1724   41.3452    0.0000 C   0  0  0  0  0  0  0  0  0  0  0  0
    1.2333   40.8217    0.0000 C   0  0  0  0  0  0  0  0  0  0  0  0
    2.5985   40.2004    0.0000 C   0  0  0  0  0  0  0  0  0  0  0  0
    3.9166   39.4842    0.0000 C   0  0  0  0  0  0  0  0  0  0  0  0
    5.1808   38.6769    0.0000 C   0  0  0  0  0  0  0  0  0  0  0  0
    6.3849   37.7824    0.0000 C   0  0  0  0  0  0  0  0  0  0  0  0
    7.5229   36.8053    0.0000 C   0  0  0  0  0  0  0  0  0  0  0  0
    8.5892   35.7502    0.0000 C   0  0  0  0  0  0  0  0  0  0  0  0
    9.5784   34.6226    0.0000 C   0  0  0  0  0  0  0  0  0  0  0  0
   10.4855   33.4280    0.0000 C   0  0  0  0  0  0  0  0  0  0  0  0
   11.3062   32.1724    0.0000 C   0  0  0  0  0  0  0  0  0  0  0  0
   12.0362   30.8621    0.0000 C   0  0  0  0  0  0  0  0  0  0  0  0
   12.6720   29.5035    0.0000 C   0  0  0  0  0  0  0  0  0  0  0  0
   13.2104   28.1034    0.0000 C   0  0  0  0  0  0  0  0  0  0  0  0
   13.6487   26.6689    0.0000 C   0  0  0  0  0  0  0  0  0  0  0  0
   13.9847   25.2070    0.0000 C   0  0  0  0  0  0  0  0  0  0  0  0
   14.2167   23.7251    0.0000 C   0  0  0  0  0  0  0  0  0  0  0  0
   14.3436   22.2304    0.0000 C   0  0  0  0  0  0  0  0  0  0  0  0
   14.3648   20.7306    0.0000 C   0  0  0  0  0  0  0  0  0  0  0  0
   14.2802   19.2330    0.0000 C   0  0  0  0  0  0  0  0  0  0  0  0
   14.0901   17.7451    0.0000 C   0  0  0  0  0  0  0  0  0  0  0  0
   13.7955   16.2743    0.0000 C   0  0  0  0  0  0  0  0  0  0  0  0
   13.3979   14.8279    0.0000 C   0  0  0  0  0  0  0  0  0  0  0  0
   12.8992   13.4132    0.0000 C   0  0  0  0  0  0  0  0  0  0  0  0
   12.3021   12.0372    0.0000 C   0  0  0  0  0  0  0  0  0  0  0  0
   11.6093   10.7068    0.0000 C   0  0  0  0  0  0  0  0  0  0  0  0
   10.8244    9.4285    0.0000 C   0  0  0  0  0  0  0  0  0  0  0  0
    9.9513    8.2088    0.0000 C   0  0  0  0  0  0  0  0  0  0  0  0
    8.9944    7.0537    0.0000 C   0  0  0  0  0  0  0  0  0  0  0  0
    7.9583    5.9690    0.0000 C   0  0  0  0  0  0  0  0  0  0  0  0
    6.8484    4.9601    0.0000 C   0  0  0  0  0  0  0  0  0  0  0  0
    5.6700    4.0319    0.0000 C   0  0  0  0  0  0  0  0  0  0  0  0
    4.4291    3.1893    0.0000 C   0  0  0  0  0  0  0  0  0  0  0  0
    3.1318    2.4362    0.0000 C   0  0  0  0  0  0  0  0  0  0  0  0
    1.7846    1.7765    0.0000 C   0  0  0  0  0  0  0  0  0  0  0  0
    0.3943    1.2135    0.0000 C   0  0  0  0  0  0  0  0  0  0  0  0
    1.2760    0.0000    0.0000 C   0  0  0  0  0  0  0  0  0  0  0  0
    0.3943   -1.2135    0.0000 C   0  0  0  0  0  0  0  0  0  0  0  0
   -1.0323   -0.7500    0.0000 C   0  0  0  0  0  0  0  0  0  0  0  0
   -1.0323    0.7500    0.0000 C   0  0  0  0  0  0  0  0  0  0  0  0
  1  2  1  0
  2  3  1  0
  3  4  1  0
  4  5  1  0
  5  6  1  0
  6  7  1  0
  7  8  1  0
  8  9  1  0
  9 10  1  0
 10 11  1  0
 11 12  1  0
 12 13  1  0
 13 14  1  0
 14 15  1  0
 15 16  1  0
 16 17  1  0
 17 18  1  0
 18 19  1  0
 19 20  1  0
 20 21  1  0
 21 22  1  0
 22 23  1  0
 23 24  1  0
 24 25  1  0
 25 26  1  0
 26 27  1  0
 27 28  1  0
 28 29  1  0
 29 30  1  0
 30 31  1  0
 31 32  1  0
 32 33  1  0
 33 34  1  0
 34 35  1  0
 35 36  1  0
 36 37  1  0
 37 38  1  0
 38 39  1  0
 39 40  1  0
 40 41  1  0
 41 42  1  0
 42 43  1  0
 43 44  1  0
 44 45  1  0
 45 46  1  0
 46 47  1  0
 47 48  1  0
 48 49  1  0
 49 50  1  0
 50 51  1  0
 51 52  1  0
 52 53  1  0
 53 54  1  0
 54 55  1  0
 55 56  1  0
 56 57  1  0
 57 58  1  0
 58 59  1  0
 59 60  1  0
 60 61  1  0
 61 62  1  0
 62 63  1  0
 63 64  1  0
 64 65  2  0
 65 66  1  0
 66 67  2  0
 67 68  1  0
 68 69  2  0
 69 70  1  0
 70 71  2  0
 71 72  1  0
 72 73  2  0
 73 74  1  0
 74 75  2  0
 75 76  1  0
 76 77  2  0
 77 78  1  0
 78 79  2  0
 79 80  1  0
 80 81  2  0
 81 82  1  0
 82 83  2  0
 83 84  1  0
 84 85  2  0
 85 86  1  0
 86 87  2  0
 87 88  1  0
 88 89  2  0
 89 90  1  0
 90 91  2  0
 91 92  1  0
 92 93  2  0
 93  2  1  0
 93 89  1  0
M  END
>  <Title>  (407) 
idAANSgen13

$$$$

     RDKit          2D

 78 79  0  0  0  0  0  0  0  0999 V2000
   -2.3342    0.7389    0.0000 C   0  0  0  0  0  0  0  0  0  0  0  0
   -1.8124    2.1452    0.0000 C   0  0  0  0  0  0  0  0  0  0  0  0
   -3.1946    2.7279    0.0000 C   0  0  0  0  0  0  0  0  0  0  0  0
   -4.5208    3.4288    0.0000 C   0  0  0  0  0  0  0  0  0  0  0  0
   -5.7808    4.2426    0.0000 C   0  0  0  0  0  0  0  0  0  0  0  0
   -6.9651    5.1631    0.0000 C   0  0  0  0  0  0  0  0  0  0  0  0
   -8.0647    6.1834    0.0000 C   0  0  0  0  0  0  0  0  0  0  0  0
   -9.0712    7.2956    0.0000 C   0  0  0  0  0  0  0  0  0  0  0  0
   -9.9769    8.4913    0.0000 C   0  0  0  0  0  0  0  0  0  0  0  0
  -10.7749    9.7614    0.0000 C   0  0  0  0  0  0  0  0  0  0  0  0
  -11.4592   11.0962    0.0000 C   0  0  0  0  0  0  0  0  0  0  0  0
  -12.0246   12.4856    0.0000 C   0  0  0  0  0  0  0  0  0  0  0  0
  -12.4668   13.9189    0.0000 C   0  0  0  0  0  0  0  0  0  0  0  0
  -12.7823   15.3854    0.0000 C   0  0  0  0  0  0  0  0  0  0  0  0
  -12.9688   16.8737    0.0000 C   0  0  0  0  0  0  0  0  0  0  0  0
  -13.0249   18.3727    0.0000 C   0  0  0  0  0  0  0  0  0  0  0  0
  -12.9501   19.8708    0.0000 C   0  0  0  0  0  0  0  0  0  0  0  0
  -12.7451   21.3567    0.0000 C   0  0  0  0  0  0  0  0  0  0  0  0
  -12.4113   22.8191    0.0000 C   0  0  0  0  0  0  0  0  0  0  0  0
  -11.9513   24.2468    0.0000 C   0  0  0  0  0  0  0  0  0  0  0  0
  -11.3687   25.6291    0.0000 C   0  0  0  0  0  0  0  0  0  0  0  0
  -10.6677   26.9552    0.0000 C   0  0  0  0  0  0  0  0  0  0  0  0
   -9.8539   28.2153    0.0000 C   0  0  0  0  0  0  0  0  0  0  0  0
   -8.9334   29.3996    0.0000 C   0  0  0  0  0  0  0  0  0  0  0  0
   -7.9131   30.4992    0.0000 C   0  0  0  0  0  0  0  0  0  0  0  0
   -6.8009   31.5056    0.0000 C   0  0  0  0  0  0  0  0  0  0  0  0
   -5.6052   32.4113    0.0000 C   0  0  0  0  0  0  0  0  0  0  0  0
   -4.3351   33.2094    0.0000 C   0  0  0  0  0  0  0  0  0  0  0  0
   -3.0003   33.8937    0.0000 C   0  0  0  0  0  0  0  0  0  0  0  0
   -1.6110   34.4591    0.0000 C   0  0  0  0  0  0  0  0  0  0  0  0
   -0.1776   34.9012    0.0000 C   0  0  0  0  0  0  0  0  0  0  0  0
    1.2888   35.2167    0.0000 C   0  0  0  0  0  0  0  0  0  0  0  0
    2.7772   35.4033    0.0000 C   0  0  0  0  0  0  0  0  0  0  0  0
    4.2762   35.4593    0.0000 C   0  0  0  0  0  0  0  0  0  0  0  0
    5.7743   35.3846    0.0000 C   0  0  0  0  0  0  0  0  0  0  0  0
    7.2602   35.1795    0.0000 C   0  0  0  0  0  0  0  0  0  0  0  0
    8.7226   34.8457    0.0000 C   0  0  0  0  0  0  0  0  0  0  0  0
   10.1503   34.3858    0.0000 C   0  0  0  0  0  0  0  0  0  0  0  0
   11.5325   33.8031    0.0000 C   0  0  0  0  0  0  0  0  0  0  0  0
   12.8587   33.1022    0.0000 C   0  0  0  0  0  0  0  0  0  0  0  0
   14.1188   32.2884    0.0000 C   0  0  0  0  0  0  0  0  0  0  0  0
   15.3031   31.3678    0.0000 C   0  0  0  0  0  0  0  0  0  0  0  0
   16.4027   30.3476    0.0000 C   0  0  0  0  0  0  0  0  0  0  0  0
   17.4091   29.2354    0.0000 C   0  0  0  0  0  0  0  0  0  0  0  0
   18.3148   28.0397    0.0000 C   0  0  0  0  0  0  0  0  0  0  0  0
   19.1129   26.7696    0.0000 C   0  0  0  0  0  0  0  0  0  0  0  0
   19.7972   25.4348    0.0000 C   0  0  0  0  0  0  0  0  0  0  0  0
   20.3626   24.0454    0.0000 C   0  0  0  0  0  0  0  0  0  0  0  0
   20.8047   22.6121    0.0000 C   0  0  0  0  0  0  0  0  0  0  0  0
   21.1202   21.1456    0.0000 C   0  0  0  0  0  0  0  0  0  0  0  0
   21.3067   19.6573    0.0000 C   0  0  0  0  0  0  0  0  0  0  0  0
   21.3628   18.1583    0.0000 C   0  0  0  0  0  0  0  0  0  0  0  0
   21.2881   16.6602    0.0000 C   0  0  0  0  0  0  0  0  0  0  0  0
   21.0830   15.1743    0.0000 C   0  0  0  0  0  0  0  0  0  0  0  0
   20.7492   13.7119    0.0000 C   0  0  0  0  0  0  0  0  0  0  0  0
   20.2893   12.2841    0.0000 C   0  0  0  0  0  0  0  0  0  0  0  0
   19.7066   10.9019    0.0000 C   0  0  0  0  0  0  0  0  0  0  0  0
   19.0057    9.5757    0.0000 C   0  0  0  0  0  0  0  0  0  0  0  0
   18.1919    8.3157    0.0000 C   0  0  0  0  0  0  0  0  0  0  0  0
   17.2713    7.1314    0.0000 C   0  0  0  0  0  0  0  0  0  0  0  0
   16.2511    6.0318    0.0000 C   0  0  0  0  0  0  0  0  0  0  0  0
   15.1389    5.0253    0.0000 C   0  0  0  0  0  0  0  0  0  0  0  0
   13.9432    4.1196    0.0000 C   0  0  0  0  0  0  0  0  0  0  0  0
   12.6731    3.3216    0.0000 C   0  0  0  0  0  0  0  0  0  0  0  0
   11.3383    2.6373    0.0000 C   0  0  0  0  0  0  0  0  0  0  0  0
    9.9489    2.0719    0.0000 C   0  0  0  0  0  0  0  0  0  0  0  0
    8.5156    1.6298    0.0000 C   0  0  0  0  0  0  0  0  0  0  0  0
    7.0491    1.3142    0.0000 C   0  0  0  0  0  0  0  0  0  0  0  0
    5.5608    1.1277    0.0000 C   0  0  0  0  0  0  0  0  0  0  0  0
    4.0618    1.0716    0.0000 C   0  0  0  0  0  0  0  0  0  0  0  0
    2.5637    1.1464    0.0000 C   0  0  0  0  0  0  0  0  0  0  0  0
    1.0777    1.3515    0.0000 C   0  0  0  0  0  0  0  0  0  0  0  0
    1.7286    0.0000    0.0000 C   0  0  0  0  0  0  0  0  0  0  0  0
    1.0777   -1.3515    0.0000 C   0  0  0  0  0  0  0  0  0  0  0  0
   -0.3846   -1.6852    0.0000 C   0  0  0  0  0  0  0  0  0  0  0  0
   -1.5574   -0.7500    0.0000 C   0  0  0  0  0  0  0  0  0  0  0  0
   -1.5574    0.7500    0.0000 C   0  0  0  0  0  0  0  0  0  0  0  0
   -0.3846    1.6852    0.0000 C   0  0  0  0  0  0  0  0  0  0  0  0
  1  2  1  0
  2  3  1  0
  3  4  1  0
  4  5  1  0
  5  6  1  0
  6  7  1  0
  7  8  1  0
  8  9  1  0
  9 10  1  0
 10 11  1  0
 11 12  1  0
 12 13  1  0
 13 14  1  0
 14 15  1  0
 15 16  1  0
 16 17  1  0
 17 18  1  0
 18 19  1  0
 19 20  1  0
 20 21  1  0
 21 22  1  0
 22 23  1  0
 23 24  1  0
 24 25  1  0
 25 26  1  0
 26 27  1  0
 27 28  1  0
 28 29  1  0
 29 30  1  0
 30 31  1  0
 31 32  1  0
 32 33  1  0
 33 34  1  0
 34 35  1  0
 35 36  1  0
 36 37  1  0
 37 38  1  0
 38 39  1  0
 39 40  1  0
 40 41  1  0
 41 42  1  0
 42 43  1  0
 43 44  1  0
 44 45  1  0
 45 46  1  0
 46 47  1  0
 47 48  1  0
 48 49  1  0
 49 50  1  0
 50 51  1  0
 51 52  1  0
 52 53  1  0
 53 54  1  0
 54 55  1  0
 55 56  1  0
 56 57  1  0
 57 58  1  0
 58 59  1  0
 59 60  1  0
 60 61  1  0
 61 62  1  0
 62 63  1  0
 63 64  1  0
 64 65  1  0
 65 66  1  0
 66 67  1  0
 67 68  1  0
 68 69  1  0
 69 70  1  0
 70 71  1  0
 71 72  1  0
 72 73  1  0
 73 74  2  0
 74 75  1  0
 75 76  2  0
 76 77  1  0
 77 78  2  0
 78  2  1  0
 78 72  1  0
M  END
>  <Title>  (408) 
idAANTgen13

$$$$

     RDKit          2D

  6  6  0  0  0  0  0  0  0  0999 V2000
    2.7760    0.0000    0.0000 O   0  0  0  0  0  0  0  0  0  0  0  0
    1.2760    0.0000    0.0000 C   0  0  0  0  0  0  0  0  0  0  0  0
    0.3943    1.2135    0.0000 C   0  0  0  0  0  0  0  0  0  0  0  0
   -1.0323    0.7500    0.0000 C   0  0  0  0  0  0  0  0  0  0  0  0
   -1.0323   -0.7500    0.0000 C   0  0  0  0  0  0  0  0  0  0  0  0
    0.3943   -1.2135    0.0000 O   0  0  0  0  0  0  0  0  0  0  0  0
  1  2  1  0
  2  3  2  0
  3  4  1  0
  4  5  2  0
  5  6  1  0
  6  2  1  0
M  END
>  <Title>  (409) 
idAANUgen13

$$$$

     RDKit          2D

 77 78  0  0  0  0  0  0  0  0999 V2000
   -2.2174   -1.0636    0.0000 C   0  0  0  0  0  0  0  0  0  0  0  0
   -2.4934    0.4108    0.0000 C   0  0  0  0  0  0  0  0  0  0  0  0
   -3.9783    0.1985    0.0000 C   0  0  0  0  0  0  0  0  0  0  0  0
   -5.4760    0.1146    0.0000 C   0  0  0  0  0  0  0  0  0  0  0  0
   -6.9753    0.1598    0.0000 C   0  0  0  0  0  0  0  0  0  0  0  0
   -8.4652    0.3337    0.0000 C   0  0  0  0  0  0  0  0  0  0  0  0
   -9.9346    0.6351    0.0000 C   0  0  0  0  0  0  0  0  0  0  0  0
  -11.3727    1.0616    0.0000 C   0  0  0  0  0  0  0  0  0  0  0  0
  -12.7688    1.6102    0.0000 C   0  0  0  0  0  0  0  0  0  0  0  0
  -14.1125    2.2767    0.0000 C   0  0  0  0  0  0  0  0  0  0  0  0
  -15.3940    3.0564    0.0000 C   0  0  0  0  0  0  0  0  0  0  0  0
  -16.6037    3.9433    0.0000 C   0  0  0  0  0  0  0  0  0  0  0  0
  -17.7327    4.9309    0.0000 C   0  0  0  0  0  0  0  0  0  0  0  0
  -18.7727    6.0119    0.0000 C   0  0  0  0  0  0  0  0  0  0  0  0
  -19.7158    7.1783    0.0000 C   0  0  0  0  0  0  0  0  0  0  0  0
  -20.5552    8.4214    0.0000 C   0  0  0  0  0  0  0  0  0  0  0  0
  -21.2846    9.7321    0.0000 C   0  0  0  0  0  0  0  0  0  0  0  0
  -21.8986   11.1007    0.0000 C   0  0  0  0  0  0  0  0  0  0  0  0
  -22.3927   12.5170    0.0000 C   0  0  0  0  0  0  0  0  0  0  0  0
  -22.7633   13.9705    0.0000 C   0  0  0  0  0  0  0  0  0  0  0  0
  -23.0075   15.4505    0.0000 C   0  0  0  0  0  0  0  0  0  0  0  0
  -23.1236   16.9460    0.0000 C   0  0  0  0  0  0  0  0  0  0  0  0
  -23.1107   18.4459    0.0000 C   0  0  0  0  0  0  0  0  0  0  0  0
  -22.9689   19.9392    0.0000 C   0  0  0  0  0  0  0  0  0  0  0  0
  -22.6992   21.4148    0.0000 C   0  0  0  0  0  0  0  0  0  0  0  0
  -22.3037   22.8617    0.0000 C   0  0  0  0  0  0  0  0  0  0  0  0
  -21.7853   24.2692    0.0000 C   0  0  0  0  0  0  0  0  0  0  0  0
  -21.1478   25.6270    0.0000 C   0  0  0  0  0  0  0  0  0  0  0  0
  -20.3959   26.9250    0.0000 C   0  0  0  0  0  0  0  0  0  0  0  0
  -19.5353   28.1535    0.0000 C   0  0  0  0  0  0  0  0  0  0  0  0
  -18.5722   29.3035    0.0000 C   0  0  0  0  0  0  0  0  0  0  0  0
  -17.5138   30.3664    0.0000 C   0  0  0  0  0  0  0  0  0  0  0  0
  -16.3680   31.3345    0.0000 C   0  0  0  0  0  0  0  0  0  0  0  0
  -15.1432   32.2004    0.0000 C   0  0  0  0  0  0  0  0  0  0  0  0
  -13.8485   32.9578    0.0000 C   0  0  0  0  0  0  0  0  0  0  0  0
  -12.4934   33.6012    0.0000 C   0  0  0  0  0  0  0  0  0  0  0  0
  -11.0881   34.1257    0.0000 C   0  0  0  0  0  0  0  0  0  0  0  0
   -9.6429   34.5274    0.0000 C   0  0  0  0  0  0  0  0  0  0  0  0
   -8.1685   34.8034    0.0000 C   0  0  0  0  0  0  0  0  0  0  0  0
   -6.6758   34.9516    0.0000 C   0  0  0  0  0  0  0  0  0  0  0  0
   -5.1760   34.9710    0.0000 C   0  0  0  0  0  0  0  0  0  0  0  0
   -3.6800   34.8613    0.0000 C   0  0  0  0  0  0  0  0  0  0  0  0
   -2.1990   34.6235    0.0000 C   0  0  0  0  0  0  0  0  0  0  0  0
   -0.7439   34.2592    0.0000 C   0  0  0  0  0  0  0  0  0  0  0  0
    0.6745   33.7712    0.0000 C   0  0  0  0  0  0  0  0  0  0  0  0
    2.0457   33.1631    0.0000 C   0  0  0  0  0  0  0  0  0  0  0  0
    3.3596   32.4393    0.0000 C   0  0  0  0  0  0  0  0  0  0  0  0
    4.6063   31.6053    0.0000 C   0  0  0  0  0  0  0  0  0  0  0  0
    5.7768   30.6672    0.0000 C   0  0  0  0  0  0  0  0  0  0  0  0
    6.8622   29.6319    0.0000 C   0  0  0  0  0  0  0  0  0  0  0  0
    7.8547   28.5072    0.0000 C   0  0  0  0  0  0  0  0  0  0  0  0
    8.7468   27.3013    0.0000 C   0  0  0  0  0  0  0  0  0  0  0  0
    9.5319   26.0232    0.0000 C   0  0  0  0  0  0  0  0  0  0  0  0
   10.2042   24.6823    0.0000 C   0  0  0  0  0  0  0  0  0  0  0  0
   10.7588   23.2886    0.0000 C   0  0  0  0  0  0  0  0  0  0  0  0
   11.1915   21.8523    0.0000 C   0  0  0  0  0  0  0  0  0  0  0  0
   11.4992   20.3842    0.0000 C   0  0  0  0  0  0  0  0  0  0  0  0
   11.6795   18.8951    0.0000 C   0  0  0  0  0  0  0  0  0  0  0  0
   11.7311   17.3960    0.0000 C   0  0  0  0  0  0  0  0  0  0  0  0
   11.6537   15.8980    0.0000 C   0  0  0  0  0  0  0  0  0  0  0  0
   11.4478   14.4122    0.0000 C   0  0  0  0  0  0  0  0  0  0  0  0
   11.1149   12.9496    0.0000 C   0  0  0  0  0  0  0  0  0  0  0  0
   10.6575   11.5210    0.0000 C   0  0  0  0  0  0  0  0  0  0  0  0
   10.0790   10.1371    0.0000 C   0  0  0  0  0  0  0  0  0  0  0  0
    9.3837    8.8080    0.0000 C   0  0  0  0  0  0  0  0  0  0  0  0
    8.5767    7.5436    0.0000 C   0  0  0  0  0  0  0  0  0  0  0  0
    7.6640    6.3532    0.0000 C   0  0  0  0  0  0  0  0  0  0  0  0
    6.6523    5.2457    0.0000 C   0  0  0  0  0  0  0  0  0  0  0  0
    5.5492    4.2293    0.0000 C   0  0  0  0  0  0  0  0  0  0  0  0
    4.3628    3.3115    0.0000 C   0  0  0  0  0  0  0  0  0  0  0  0
    3.1019    2.4990    0.0000 C   0  0  0  0  0  0  0  0  0  0  0  0
    1.7758    1.7980    0.0000 C   0  0  0  0  0  0  0  0  0  0  0  0
    0.3943    1.2135    0.0000 C   0  0  0  0  0  0  0  0  0  0  0  0
    1.2760    0.0000    0.0000 C   0  0  0  0  0  0  0  0  0  0  0  0
    0.3943   -1.2135    0.0000 C   0  0  0  0  0  0  0  0  0  0  0  0
   -1.0323   -0.7500    0.0000 C   0  0  0  0  0  0  0  0  0  0  0  0
   -1.0323    0.7500    0.0000 C   0  0  0  0  0  0  0  0  0  0  0  0
  1  2  1  0
  2  3  1  0
  3  4  1  0
  4  5  1  0
  5  6  1  0
  6  7  1  0
  7  8  1  0
  8  9  1  0
  9 10  1  0
 10 11  1  0
 11 12  1  0
 12 13  1  0
 13 14  1  0
 14 15  1  0
 15 16  1  0
 16 17  1  0
 17 18  1  0
 18 19  1  0
 19 20  1  0
 20 21  1  0
 21 22  1  0
 22 23  1  0
 23 24  1  0
 24 25  1  0
 25 26  1  0
 26 27  1  0
 27 28  1  0
 28 29  1  0
 29 30  1  0
 30 31  1  0
 31 32  1  0
 32 33  1  0
 33 34  1  0
 34 35  1  0
 35 36  1  0
 36 37  1  0
 37 38  1  0
 38 39  1  0
 39 40  1  0
 40 41  1  0
 41 42  1  0
 42 43  1  0
 43 44  1  0
 44 45  1  0
 45 46  1  0
 46 47  1  0
 47 48  1  0
 48 49  1  0
 49 50  1  0
 50 51  2  0
 51 52  1  0
 52 53  2  0
 53 54  1  0
 54 55  2  0
 55 56  1  0
 56 57  2  0
 57 58  1  0
 58 59  2  0
 59 60  1  0
 60 61  2  0
 61 62  1  0
 62 63  2  0
 63 64  1  0
 64 65  2  0
 65 66  1  0
 66 67  2  0
 67 68  1  0
 68 69  2  0
 69 70  1  0
 70 71  2  0
 71 72  1  0
 72 73  2  0
 73 74  1  0
 74 75  2  0
 75 76  1  0
 76 77  2  0
 77  2  1  0
 77 73  1  0
M  END
>  <Title>  (410) 
idAANVgen13

$$$$

     RDKit          2D

 10 10  0  0  0  0  0  0  0  0999 V2000
    6.0000   -2.5981    0.0000 C   0  0  0  0  0  0  0  0  0  0  0  0
    5.2500   -1.2990    0.0000 C   0  0  0  0  0  0  0  0  0  0  0  0
    3.7500   -1.2990    0.0000 C   0  0  0  0  0  0  0  0  0  0  0  0
    3.0000    0.0000    0.0000 C   0  0  0  0  0  0  0  0  0  0  0  0
    1.5000    0.0000    0.0000 C   0  0  0  0  0  0  0  0  0  0  0  0
    0.7500   -1.2990    0.0000 C   0  0  0  0  0  0  0  0  0  0  0  0
   -0.7500   -1.2990    0.0000 C   0  0  0  0  0  0  0  0  0  0  0  0
   -1.5000    0.0000    0.0000 C   0  0  0  0  0  0  0  0  0  0  0  0
   -0.7500    1.2990    0.0000 C   0  0  0  0  0  0  0  0  0  0  0  0
    0.7500    1.2990    0.0000 C   0  0  0  0  0  0  0  0  0  0  0  0
  1  2  2  0
  2  3  1  0
  3  4  2  3
  4  5  1  0
  5  6  2  0
  6  7  1  0
  7  8  2  0
  8  9  1  0
  9 10  2  0
 10  5  1  0
M  END
>  <Title>  (411) 
idAANWgen13

$$$$

     RDKit          2D

 18 18  0  0  0  0  0  0  0  0999 V2000
   12.5260   -6.4952    0.0000 C   0  0  0  0  0  0  0  0  0  0  0  0
   11.7760   -5.1962    0.0000 C   0  0  0  0  0  0  0  0  0  0  0  0
   10.2760   -5.1962    0.0000 C   0  0  0  0  0  0  0  0  0  0  0  0
    9.5260   -3.8971    0.0000 C   0  0  0  0  0  0  0  0  0  0  0  0
   10.2760   -2.5981    0.0000 O   0  0  0  0  0  0  0  0  0  0  0  0
    8.0260   -3.8971    0.0000 N   0  0  0  0  0  0  0  0  0  0  0  0
    7.2760   -2.5981    0.0000 C   0  0  0  0  0  0  0  0  0  0  0  0
    5.7760   -2.5981    0.0000 C   0  0  0  0  0  0  0  0  0  0  0  0
    5.0260   -1.2990    0.0000 C   0  0  0  0  0  0  0  0  0  0  0  0
    3.5260   -1.2990    0.0000 C   0  0  0  0  0  0  0  0  0  0  0  0
    2.7760    0.0000    0.0000 N   0  0  0  0  0  0  0  0  0  0  0  0
    1.2760    0.0000    0.0000 C   0  0  0  0  0  0  0  0  0  0  0  0
    0.3943    1.2135    0.0000 C   0  0  0  0  0  0  0  0  0  0  0  0
   -1.0323    0.7500    0.0000 C   0  0  0  0  0  0  0  0  0  0  0  0
   -1.0323   -0.7500    0.0000 C   0  0  0  0  0  0  0  0  0  0  0  0
   -2.2458   -1.6317    0.0000 O   0  0  0  0  0  0  0  0  0  0  0  0
   -3.6161   -1.0216    0.0000 C   0  0  0  0  0  0  0  0  0  0  0  0
    0.3943   -1.2135    0.0000 C   0  0  0  0  0  0  0  0  0  0  0  0
  1  2  2  0
  2  3  1  0
  3  4  1  0
  4  5  2  0
  4  6  1  0
  6  7  1  0
  7  8  1  0
  8  9  2  3
  9 10  1  0
 10 11  1  0
 11 12  2  3
 12 13  1  0
 13 14  2  0
 14 15  1  0
 15 16  1  0
 16 17  1  0
 15 18  2  0
 18 12  1  0
M  END
>  <Title>  (412) 
idAANXgen13

$$$$

     RDKit          2D

 30 33  0  0  0  0  0  0  0  0999 V2000
    3.0000    0.0000    0.0000 C   0  0  0  0  0  0  0  0  0  0  0  0
    1.5000    0.0000    0.0000 C   0  0  0  0  0  0  0  0  0  0  0  0
    0.7500   -1.2990    0.0000 C   0  0  0  0  0  0  0  0  0  0  0  0
   -0.7500   -1.2990    0.0000 C   0  0  0  0  0  0  0  0  0  0  0  0
   -1.5000    0.0000    0.0000 C   0  0  0  0  0  0  0  0  0  0  0  0
   -0.7500    1.2990    0.0000 C   0  0  0  0  0  0  0  0  0  0  0  0
   -1.5000    2.5981    0.0000 C   0  0  0  0  0  0  0  0  0  0  0  0
   -3.0000    2.5981    0.0000 O   0  0  0  0  0  0  0  0  0  0  0  0
   -0.7500    3.8971    0.0000 N   0  0  0  0  0  0  0  0  0  0  0  0
   -1.5000    5.1962    0.0000 C   0  0  0  0  0  0  0  0  0  0  0  0
   -2.9918    5.3529    0.0000 N   0  0  0  0  0  0  0  0  0  0  0  0
   -3.3037    6.8202    0.0000 N   0  0  0  0  0  0  0  0  0  0  0  0
   -2.0046    7.5702    0.0000 N   0  0  0  0  0  0  0  0  0  0  0  0
   -0.8899    6.5665    0.0000 N   0  0  0  0  0  0  0  0  0  0  0  0
    0.5773    6.8783    0.0000 N   0  0  0  0  0  0  0  0  0  0  0  0
    1.1874    8.2487    0.0000 C   0  0  0  0  0  0  0  0  0  0  0  0
    2.6792    8.0919    0.0000 C   0  0  0  0  0  0  0  0  0  0  0  0
    2.9911    6.6246    0.0000 N   0  0  0  0  0  0  0  0  0  0  0  0
    4.3614    6.0145    0.0000 C   0  0  0  0  0  0  0  0  0  0  0  0
    5.5749    6.8962    0.0000 O   0  0  0  0  0  0  0  0  0  0  0  0
    4.5182    4.5228    0.0000 N   0  0  0  0  0  0  0  0  0  0  0  0
    5.8885    3.9126    0.0000 C   0  0  0  0  0  0  0  0  0  0  0  0
    6.0453    2.4209    0.0000 N   0  0  0  0  0  0  0  0  0  0  0  0
    7.4156    1.8108    0.0000 N   0  0  0  0  0  0  0  0  0  0  0  0
    8.6291    2.6924    0.0000 N   0  0  0  0  0  0  0  0  0  0  0  0
    8.4724    4.1842    0.0000 N   0  0  0  0  0  0  0  0  0  0  0  0
    7.1020    4.7943    0.0000 N   0  0  0  0  0  0  0  0  0  0  0  0
    1.6920    5.8746    0.0000 C   0  0  0  0  0  0  0  0  0  0  0  0
    1.5353    4.3829    0.0000 O   0  0  0  0  0  0  0  0  0  0  0  0
    0.7500    1.2990    0.0000 C   0  0  0  0  0  0  0  0  0  0  0  0
  1  2  1  0
  2  3  1  0
  3  4  1  0
  4  5  1  0
  5  6  1  0
  6  7  1  0
  7  8  2  0
  7  9  1  0
  9 10  1  0
 10 11  2  0
 11 12  1  0
 12 13  2  0
 13 14  1  0
 14 15  1  0
 15 16  1  0
 16 17  1  0
 17 18  1  0
 18 19  1  0
 19 20  2  0
 19 21  1  0
 21 22  1  0
 22 23  2  0
 23 24  1  0
 24 25  2  0
 25 26  1  0
 26 27  2  0
 18 28  1  0
 28 29  2  0
  6 30  1  0
 30  2  1  0
 14 10  1  0
 28 15  1  0
 27 22  1  0
M  END
>  <Title>  (413) 
idAANYgen13

$$$$

     RDKit          2D

 70 70  0  0  0  0  0  0  0  0999 V2000
   97.5000    0.0000    0.0000 C   0  0  0  0  0  0  0  0  0  0  0  0
   96.0000    0.0000    0.0000 C   0  0  0  0  0  0  0  0  0  0  0  0
   94.5000    0.0000    0.0000 C   0  0  0  0  0  0  0  0  0  0  0  0
   93.0000    0.0000    0.0000 C   0  0  0  0  0  0  0  0  0  0  0  0
   91.5000    0.0000    0.0000 C   0  0  0  0  0  0  0  0  0  0  0  0
   90.0000    0.0000    0.0000 C   0  0  0  0  0  0  0  0  0  0  0  0
   88.5000    0.0000    0.0000 C   0  0  0  0  0  0  0  0  0  0  0  0
   87.0000    0.0000    0.0000 C   0  0  0  0  0  0  0  0  0  0  0  0
   85.5000    0.0000    0.0000 C   0  0  0  0  0  0  0  0  0  0  0  0
   84.0000    0.0000    0.0000 C   0  0  0  0  0  0  0  0  0  0  0  0
   82.5000    0.0000    0.0000 C   0  0  0  0  0  0  0  0  0  0  0  0
   81.0000    0.0000    0.0000 C   0  0  0  0  0  0  0  0  0  0  0  0
   79.5000    0.0000    0.0000 C   0  0  0  0  0  0  0  0  0  0  0  0
   78.0000    0.0000    0.0000 C   0  0  0  0  0  0  0  0  0  0  0  0
   76.5000    0.0000    0.0000 C   0  0  0  0  0  0  0  0  0  0  0  0
   75.0000    0.0000    0.0000 C   0  0  0  0  0  0  0  0  0  0  0  0
   73.5000    0.0000    0.0000 C   0  0  0  0  0  0  0  0  0  0  0  0
   72.0000    0.0000    0.0000 C   0  0  0  0  0  0  0  0  0  0  0  0
   70.5000    0.0000    0.0000 C   0  0  0  0  0  0  0  0  0  0  0  0
   69.0000    0.0000    0.0000 C   0  0  0  0  0  0  0  0  0  0  0  0
   67.5000    0.0000    0.0000 C   0  0  0  0  0  0  0  0  0  0  0  0
   66.0000    0.0000    0.0000 C   0  0  0  0  0  0  0  0  0  0  0  0
   64.5000    0.0000    0.0000 C   0  0  0  0  0  0  0  0  0  0  0  0
   63.0000    0.0000    0.0000 C   0  0  0  0  0  0  0  0  0  0  0  0
   61.5000    0.0000    0.0000 C   0  0  0  0  0  0  0  0  0  0  0  0
   60.0000    0.0000    0.0000 C   0  0  0  0  0  0  0  0  0  0  0  0
   58.5000    0.0000    0.0000 C   0  0  0  0  0  0  0  0  0  0  0  0
   57.0000    0.0000    0.0000 C   0  0  0  0  0  0  0  0  0  0  0  0
   55.5000    0.0000    0.0000 C   0  0  0  0  0  0  0  0  0  0  0  0
   54.0000    0.0000    0.0000 C   0  0  0  0  0  0  0  0  0  0  0  0
   52.5000    0.0000    0.0000 C   0  0  0  0  0  0  0  0  0  0  0  0
   51.0000    0.0000    0.0000 C   0  0  0  0  0  0  0  0  0  0  0  0
   49.5000    0.0000    0.0000 C   0  0  0  0  0  0  0  0  0  0  0  0
   48.0000    0.0000    0.0000 C   0  0  0  0  0  0  0  0  0  0  0  0
   46.5000    0.0000    0.0000 C   0  0  0  0  0  0  0  0  0  0  0  0
   45.0000    0.0000    0.0000 C   0  0  0  0  0  0  0  0  0  0  0  0
   43.5000    0.0000    0.0000 C   0  0  0  0  0  0  0  0  0  0  0  0
   42.0000    0.0000    0.0000 C   0  0  0  0  0  0  0  0  0  0  0  0
   40.5000    0.0000    0.0000 C   0  0  0  0  0  0  0  0  0  0  0  0
   39.0000    0.0000    0.0000 C   0  0  0  0  0  0  0  0  0  0  0  0
   37.5000    0.0000    0.0000 C   0  0  0  0  0  0  0  0  0  0  0  0
   36.0000    0.0000    0.0000 C   0  0  0  0  0  0  0  0  0  0  0  0
   34.5000    0.0000    0.0000 C   0  0  0  0  0  0  0  0  0  0  0  0
   33.0000    0.0000    0.0000 C   0  0  0  0  0  0  0  0  0  0  0  0
   31.5000    0.0000    0.0000 C   0  0  0  0  0  0  0  0  0  0  0  0
   30.0000    0.0000    0.0000 C   0  0  0  0  0  0  0  0  0  0  0  0
   28.5000    0.0000    0.0000 C   0  0  0  0  0  0  0  0  0  0  0  0
   27.0000    0.0000    0.0000 C   0  0  0  0  0  0  0  0  0  0  0  0
   25.5000    0.0000    0.0000 C   0  0  0  0  0  0  0  0  0  0  0  0
   24.0000    0.0000    0.0000 C   0  0  0  0  0  0  0  0  0  0  0  0
   22.5000    0.0000    0.0000 C   0  0  0  0  0  0  0  0  0  0  0  0
   21.0000    0.0000    0.0000 C   0  0  0  0  0  0  0  0  0  0  0  0
   19.5000    0.0000    0.0000 C   0  0  0  0  0  0  0  0  0  0  0  0
   18.0000    0.0000    0.0000 C   0  0  0  0  0  0  0  0  0  0  0  0
   16.5000    0.0000    0.0000 C   0  0  0  0  0  0  0  0  0  0  0  0
   15.0000    0.0000    0.0000 C   0  0  0  0  0  0  0  0  0  0  0  0
   13.5000    0.0000    0.0000 C   0  0  0  0  0  0  0  0  0  0  0  0
   12.0000    0.0000    0.0000 C   0  0  0  0  0  0  0  0  0  0  0  0
   10.5000    0.0000    0.0000 C   0  0  0  0  0  0  0  0  0  0  0  0
    9.0000    0.0000    0.0000 C   0  0  0  0  0  0  0  0  0  0  0  0
    7.5000    0.0000    0.0000 C   0  0  0  0  0  0  0  0  0  0  0  0
    6.0000    0.0000    0.0000 C   0  0  0  0  0  0  0  0  0  0  0  0
    4.5000    0.0000    0.0000 C   0  0  0  0  0  0  0  0  0  0  0  0
    3.0000    0.0000    0.0000 C   0  0  0  0  0  0  0  0  0  0  0  0
    1.5000    0.0000    0.0000 C   0  0  0  0  0  0  0  0  0  0  0  0
    0.7500   -1.2990    0.0000 C   0  0  0  0  0  0  0  0  0  0  0  0
   -0.7500   -1.2990    0.0000 C   0  0  0  0  0  0  0  0  0  0  0  0
   -1.5000    0.0000    0.0000 C   0  0  0  0  0  0  0  0  0  0  0  0
   -0.7500    1.2990    0.0000 C   0  0  0  0  0  0  0  0  0  0  0  0
    0.7500    1.2990    0.0000 C   0  0  0  0  0  0  0  0  0  0  0  0
  1  2  3  0
  2  3  1  0
  3  4  3  0
  4  5  1  0
  5  6  3  0
  6  7  1  0
  7  8  3  0
  8  9  1  0
  9 10  3  0
 10 11  1  0
 11 12  3  0
 12 13  1  0
 13 14  3  0
 14 15  1  0
 15 16  3  0
 16 17  1  0
 17 18  3  0
 18 19  1  0
 19 20  3  0
 20 21  1  0
 21 22  3  0
 22 23  1  0
 23 24  3  0
 24 25  1  0
 25 26  3  0
 26 27  1  0
 27 28  3  0
 28 29  1  0
 29 30  3  0
 30 31  1  0
 31 32  3  0
 32 33  1  0
 33 34  3  0
 34 35  1  0
 35 36  3  0
 36 37  1  0
 37 38  3  0
 38 39  1  0
 39 40  3  0
 40 41  1  0
 41 42  3  0
 42 43  1  0
 43 44  3  0
 44 45  1  0
 45 46  3  0
 46 47  1  0
 47 48  3  0
 48 49  1  0
 49 50  3  0
 50 51  1  0
 51 52  3  0
 52 53  1  0
 53 54  3  0
 54 55  1  0
 55 56  3  0
 56 57  1  0
 57 58  3  0
 58 59  1  0
 59 60  3  0
 60 61  1  0
 61 62  3  0
 62 63  1  0
 63 64  3  0
 64 65  1  0
 65 66  2  0
 66 67  1  0
 67 68  2  0
 68 69  1  0
 69 70  2  0
 70 65  1  0
M  END
>  <Title>  (414) 
idAANZgen13

$$$$

     RDKit          2D

 28 32  0  0  0  0  0  0  0  0999 V2000
   -5.7998   -6.4517    0.0000 O   0  0  0  0  0  0  0  0  0  0  0  0
   -4.2998   -6.4517    0.0000 C   0  0  0  0  0  0  0  0  0  0  0  0
   -3.4182   -7.6652    0.0000 C   0  0  0  0  0  0  0  0  0  0  0  0
   -3.8817   -9.0918    0.0000 C   0  0  0  0  0  0  0  0  0  0  0  0
   -5.3489   -9.4037    0.0000 C   0  0  0  0  0  0  0  0  0  0  0  0
   -5.8124  -10.8303    0.0000 C   0  0  0  0  0  0  0  0  0  0  0  0
   -4.8087  -11.9450    0.0000 C   0  0  0  0  0  0  0  0  0  0  0  0
   -3.3415  -11.6331    0.0000 C   0  0  0  0  0  0  0  0  0  0  0  0
   -2.8780  -10.2065    0.0000 C   0  0  0  0  0  0  0  0  0  0  0  0
   -1.9916   -7.2017    0.0000 C   0  0  0  0  0  0  0  0  0  0  0  0
   -1.9916   -5.7017    0.0000 C   0  0  0  0  0  0  0  0  0  0  0  0
   -3.4182   -5.2382    0.0000 N   0  0  0  0  0  0  0  0  0  0  0  0
   -3.8817   -3.8116    0.0000 N   0  0  0  0  0  0  0  0  0  0  0  0
   -5.3083   -3.3481    0.0000 N   0  0  0  0  0  0  0  0  0  0  0  0
   -5.3083   -1.8481    0.0000 C   0  0  0  0  0  0  0  0  0  0  0  0
   -3.8817   -1.3846    0.0000 C   0  0  0  0  0  0  0  0  0  0  0  0
   -3.0000   -2.5981    0.0000 N   0  0  0  0  0  0  0  0  0  0  0  0
   -1.5000   -2.5981    0.0000 C   0  0  0  0  0  0  0  0  0  0  0  0
   -0.7500   -3.8971    0.0000 C   0  0  0  0  0  0  0  0  0  0  0  0
    0.7500   -3.8971    0.0000 C   0  0  0  0  0  0  0  0  0  0  0  0
    1.5000   -2.5981    0.0000 C   0  0  0  0  0  0  0  0  0  0  0  0
    3.0000   -2.5981    0.0000 O   0  0  0  0  0  0  0  0  0  0  0  0
    0.7500   -1.2990    0.0000 C   0  0  0  0  0  0  0  0  0  0  0  0
    1.5000    0.0000    0.0000 C   0  0  0  0  0  0  0  0  0  0  0  0
    0.7500    1.2990    0.0000 C   0  0  0  0  0  0  0  0  0  0  0  0
   -0.7500    1.2990    0.0000 C   0  0  0  0  0  0  0  0  0  0  0  0
   -1.5000    0.0000    0.0000 C   0  0  0  0  0  0  0  0  0  0  0  0
   -0.7500   -1.2990    0.0000 C   0  0  0  0  0  0  0  0  0  0  0  0
  1  2  2  0
  2  3  1  0
  3  4  1  0
  4  5  2  0
  5  6  1  0
  6  7  2  0
  7  8  1  0
  8  9  2  0
  3 10  1  0
 10 11  1  0
 11 12  1  0
 12 13  1  0
 13 14  1  0
 14 15  2  0
 15 16  1  0
 16 17  1  0
 17 18  1  0
 18 19  2  0
 19 20  1  0
 20 21  2  0
 21 22  1  0
 21 23  1  0
 23 24  2  0
 24 25  1  0
 25 26  2  0
 26 27  1  0
 27 28  2  0
 12  2  1  0
 17 13  1  0
 28 18  1  0
  9  4  1  0
 28 23  1  0
M  END
>  <Title>  (415) 
idAAOAgen13

$$$$

     RDKit          2D

 53 60  0  0  0  0  0  0  0  0999 V2000
    3.1097   -7.2078    0.0000 C   0  0  0  0  0  0  0  0  0  0  0  0
    2.0490   -6.1471    0.0000 C   0  0  0  0  0  0  0  0  0  0  0  0
    2.7990   -4.8481    0.0000 C   0  0  0  0  0  0  0  0  0  0  0  0
    2.7990   -3.3481    0.0000 C   0  0  0  0  0  0  0  0  0  0  0  0
    2.0490   -2.0490    0.0000 C   0  0  0  0  0  0  0  0  0  0  0  0
    3.1097   -0.9884    0.0000 O   0  0  0  0  0  0  0  0  0  0  0  0
    4.5586   -1.3766    0.0000 C   0  0  0  0  0  0  0  0  0  0  0  0
    4.9468   -2.8255    0.0000 O   0  0  0  0  0  0  0  0  0  0  0  0
    5.6192   -0.3159    0.0000 N   0  0  0  0  0  0  0  0  0  0  0  0
    7.0681   -0.7042    0.0000 C   0  0  0  0  0  0  0  0  0  0  0  0
    7.6057   -2.1045    0.0000 N   0  0  0  0  0  0  0  0  0  0  0  0
    9.1036   -2.0260    0.0000 N   0  0  0  0  0  0  0  0  0  0  0  0
    9.4919   -0.5772    0.0000 N   0  0  0  0  0  0  0  0  0  0  0  0
    8.2339    0.2398    0.0000 N   0  0  0  0  0  0  0  0  0  0  0  0
    8.1554    1.7377    0.0000 N   0  0  0  0  0  0  0  0  0  0  0  0
    6.8973    2.5547    0.0000 C   0  0  0  0  0  0  0  0  0  0  0  0
    7.2856    4.0036    0.0000 C   0  0  0  0  0  0  0  0  0  0  0  0
    8.7835    4.0821    0.0000 N   0  0  0  0  0  0  0  0  0  0  0  0
    9.6005    5.3401    0.0000 C   0  0  0  0  0  0  0  0  0  0  0  0
    8.9195    6.6766    0.0000 O   0  0  0  0  0  0  0  0  0  0  0  0
   11.0984    5.2616    0.0000 N   0  0  0  0  0  0  0  0  0  0  0  0
   11.9154    6.5196    0.0000 C   0  0  0  0  0  0  0  0  0  0  0  0
   11.2344    7.8561    0.0000 N   0  0  0  0  0  0  0  0  0  0  0  0
   12.0514    9.1141    0.0000 N   0  0  0  0  0  0  0  0  0  0  0  0
   13.5493    9.0356    0.0000 N   0  0  0  0  0  0  0  0  0  0  0  0
   14.2303    7.6991    0.0000 N   0  0  0  0  0  0  0  0  0  0  0  0
   13.4133    6.4411    0.0000 N   0  0  0  0  0  0  0  0  0  0  0  0
    9.3211    2.6817    0.0000 C   0  0  0  0  0  0  0  0  0  0  0  0
   10.7700    2.2935    0.0000 O   0  0  0  0  0  0  0  0  0  0  0  0
    0.7500   -1.2990    0.0000 C   0  0  0  0  0  0  0  0  0  0  0  0
    1.5000    0.0000    0.0000 C   0  0  0  0  0  0  0  0  0  0  0  0
    0.7500    1.2990    0.0000 C   0  0  0  0  0  0  0  0  0  0  0  0
   -0.7500    1.2990    0.0000 C   0  0  0  0  0  0  0  0  0  0  0  0
   -1.5000    0.0000    0.0000 C   0  0  0  0  0  0  0  0  0  0  0  0
   -0.7500   -1.2990    0.0000 C   0  0  0  0  0  0  0  0  0  0  0  0
   -2.0490   -2.0490    0.0000 C   0  0  0  0  0  0  0  0  0  0  0  0
   -2.7990   -0.7500    0.0000 C   0  0  0  0  0  0  0  0  0  0  0  0
   -4.2990   -0.7500    0.0000 C   0  0  0  0  0  0  0  0  0  0  0  0
   -5.0490   -2.0490    0.0000 C   0  0  0  0  0  0  0  0  0  0  0  0
   -4.2990   -3.3481    0.0000 C   0  0  0  0  0  0  0  0  0  0  0  0
   -2.7990   -3.3481    0.0000 C   0  0  0  0  0  0  0  0  0  0  0  0
   -2.7990   -4.8481    0.0000 C   0  0  0  0  0  0  0  0  0  0  0  0
   -4.2990   -4.8481    0.0000 C   0  0  0  0  0  0  0  0  0  0  0  0
   -5.0490   -6.1471    0.0000 C   0  0  0  0  0  0  0  0  0  0  0  0
   -4.2990   -7.4462    0.0000 C   0  0  0  0  0  0  0  0  0  0  0  0
   -2.7990   -7.4462    0.0000 C   0  0  0  0  0  0  0  0  0  0  0  0
   -2.0490   -6.1471    0.0000 C   0  0  0  0  0  0  0  0  0  0  0  0
   -0.7500   -6.8971    0.0000 C   0  0  0  0  0  0  0  0  0  0  0  0
   -1.5000   -8.1962    0.0000 C   0  0  0  0  0  0  0  0  0  0  0  0
   -0.7500   -9.4952    0.0000 C   0  0  0  0  0  0  0  0  0  0  0  0
    0.7500   -9.4952    0.0000 C   0  0  0  0  0  0  0  0  0  0  0  0
    1.5000   -8.1962    0.0000 C   0  0  0  0  0  0  0  0  0  0  0  0
    0.7500   -6.8971    0.0000 C   0  0  0  0  0  0  0  0  0  0  0  0
  1  2  1  0
  2  3  1  0
  3  4  2  0
  4  5  1  0
  5  6  1  0
  6  7  1  0
  7  8  2  0
  7  9  1  0
  9 10  1  0
 10 11  2  0
 11 12  1  0
 12 13  2  0
 13 14  1  0
 14 15  1  0
 15 16  1  0
 16 17  1  0
 17 18  1  0
 18 19  1  0
 19 20  2  0
 19 21  1  0
 21 22  1  0
 22 23  2  0
 23 24  1  0
 24 25  2  0
 25 26  1  0
 26 27  2  0
 18 28  1  0
 28 29  2  0
  5 30  1  0
 30 31  2  0
 31 32  1  0
 32 33  2  0
 33 34  1  0
 34 35  2  0
 35 36  1  0
 36 37  2  0
 37 38  1  0
 38 39  2  0
 39 40  1  0
 40 41  2  0
 41 42  1  0
 42 43  2  0
 43 44  1  0
 44 45  2  0
 45 46  1  0
 46 47  2  0
 47 48  1  0
 48 49  2  0
 49 50  1  0
 50 51  2  0
 51 52  1  0
 52 53  2  0
 53  2  1  0
 14 10  1  0
 28 15  1  0
 35 30  1  0
 41 36  1  0
 47 42  1  0
 53 48  1  0
 27 22  1  0
M  END
>  <Title>  (416) 
idAAOBgen13

$$$$

     RDKit          2D

 36 40  0  0  0  0  0  0  0  0999 V2000
   -3.1965   -1.7857    0.0000 C   0  0  0  0  0  0  0  0  0  0  0  0
   -1.8107   -2.3597    0.0000 C   0  0  0  0  0  0  0  0  0  0  0  0
   -1.8107   -3.8597    0.0000 C   0  0  0  0  0  0  0  0  0  0  0  0
   -0.7500   -4.9204    0.0000 C   0  0  0  0  0  0  0  0  0  0  0  0
    0.7500   -4.9204    0.0000 C   0  0  0  0  0  0  0  0  0  0  0  0
    1.8107   -3.8597    0.0000 C   0  0  0  0  0  0  0  0  0  0  0  0
    1.8107   -2.3597    0.0000 C   0  0  0  0  0  0  0  0  0  0  0  0
    3.1965   -1.7857    0.0000 C   0  0  0  0  0  0  0  0  0  0  0  0
    3.3923   -0.2985    0.0000 O   0  0  0  0  0  0  0  0  0  0  0  0
    4.3865   -2.6988    0.0000 N   0  0  0  0  0  0  0  0  0  0  0  0
    5.7723   -2.1248    0.0000 C   0  0  0  0  0  0  0  0  0  0  0  0
    6.1225   -0.6662    0.0000 N   0  0  0  0  0  0  0  0  0  0  0  0
    7.6179   -0.5485    0.0000 N   0  0  0  0  0  0  0  0  0  0  0  0
    8.1919   -1.9344    0.0000 N   0  0  0  0  0  0  0  0  0  0  0  0
    7.0513   -2.9085    0.0000 N   0  0  0  0  0  0  0  0  0  0  0  0
    7.1690   -4.4039    0.0000 N   0  0  0  0  0  0  0  0  0  0  0  0
    8.4479   -5.1877    0.0000 C   0  0  0  0  0  0  0  0  0  0  0  0
    8.0978   -6.6462    0.0000 C   0  0  0  0  0  0  0  0  0  0  0  0
    6.6024   -6.7639    0.0000 N   0  0  0  0  0  0  0  0  0  0  0  0
    5.8186   -8.0429    0.0000 C   0  0  0  0  0  0  0  0  0  0  0  0
    6.5344   -9.3611    0.0000 O   0  0  0  0  0  0  0  0  0  0  0  0
    4.3192   -8.0036    0.0000 N   0  0  0  0  0  0  0  0  0  0  0  0
    3.5354   -9.2826    0.0000 C   0  0  0  0  0  0  0  0  0  0  0  0
    2.0359   -9.2433    0.0000 N   0  0  0  0  0  0  0  0  0  0  0  0
    1.2522  -10.5223    0.0000 N   0  0  0  0  0  0  0  0  0  0  0  0
    1.9679  -11.8405    0.0000 N   0  0  0  0  0  0  0  0  0  0  0  0
    3.4674  -11.8797    0.0000 N   0  0  0  0  0  0  0  0  0  0  0  0
    4.2512  -10.6008    0.0000 N   0  0  0  0  0  0  0  0  0  0  0  0
    6.0284   -5.3781    0.0000 C   0  0  0  0  0  0  0  0  0  0  0  0
    4.5698   -5.0279    0.0000 O   0  0  0  0  0  0  0  0  0  0  0  0
    0.7500   -1.2990    0.0000 C   0  0  0  0  0  0  0  0  0  0  0  0
    1.5000    0.0000    0.0000 C   0  0  0  0  0  0  0  0  0  0  0  0
    0.7500    1.2990    0.0000 C   0  0  0  0  0  0  0  0  0  0  0  0
   -0.7500    1.2990    0.0000 C   0  0  0  0  0  0  0  0  0  0  0  0
   -1.5000    0.0000    0.0000 C   0  0  0  0  0  0  0  0  0  0  0  0
   -0.7500   -1.2990    0.0000 C   0  0  0  0  0  0  0  0  0  0  0  0
  1  2  1  0
  2  3  2  0
  3  4  1  0
  4  5  2  0
  5  6  1  0
  6  7  1  0
  7  8  1  0
  8  9  2  0
  8 10  1  0
 10 11  1  0
 11 12  2  0
 12 13  1  0
 13 14  2  0
 14 15  1  0
 15 16  1  0
 16 17  1  0
 17 18  1  0
 18 19  1  0
 19 20  1  0
 20 21  2  0
 20 22  1  0
 22 23  1  0
 23 24  2  0
 24 25  1  0
 25 26  2  0
 26 27  1  0
 27 28  2  0
 19 29  1  0
 29 30  2  0
  7 31  1  0
 31 32  2  0
 32 33  1  0
 33 34  2  0
 34 35  1  0
 35 36  2  0
 36  2  1  0
 15 11  1  0
 29 16  1  0
 36 31  1  0
 28 23  1  0
M  END
>  <Title>  (417) 
idAAOCgen13

$$$$

     RDKit          2D

  7  7  0  0  0  0  0  0  0  0999 V2000
    4.8107   -1.2990    0.0000 C   0  0  0  0  0  0  0  0  0  0  0  0
    3.3107   -1.2990    0.0000 C   0  0  0  0  0  0  0  0  0  0  0  0
    2.5607    0.0000    0.0000 C   0  0  0  0  0  0  0  0  0  0  0  0
    1.0607    0.0000    0.0000 N   0  0  0  0  0  0  0  0  0  0  0  0
   -0.0000   -1.0607    0.0000 C   0  0  0  0  0  0  0  0  0  0  0  0
   -1.0607    0.0000    0.0000 C   0  0  0  0  0  0  0  0  0  0  0  0
    0.0000    1.0607    0.0000 C   0  0  0  0  0  0  0  0  0  0  0  0
  1  2  1  0
  2  3  1  0
  3  4  1  0
  4  5  1  0
  5  6  2  0
  6  7  1  0
  7  4  1  0
M  END
>  <Title>  (418) 
idAAODgen13

$$$$

     RDKit          2D

 73 74  0  0  0  0  0  0  0  0999 V2000
   -2.0268    2.1143    0.0000 C   0  0  0  0  0  0  0  0  0  0  0  0
   -0.8398    3.0314    0.0000 C   0  0  0  0  0  0  0  0  0  0  0  0
   -1.9705    4.0170    0.0000 C   0  0  0  0  0  0  0  0  0  0  0  0
   -3.0009    5.1072    0.0000 C   0  0  0  0  0  0  0  0  0  0  0  0
   -3.9212    6.2917    0.0000 C   0  0  0  0  0  0  0  0  0  0  0  0
   -4.7229    7.5594    0.0000 C   0  0  0  0  0  0  0  0  0  0  0  0
   -5.3985    8.8987    0.0000 C   0  0  0  0  0  0  0  0  0  0  0  0
   -5.9417   10.2969    0.0000 C   0  0  0  0  0  0  0  0  0  0  0  0
   -6.3474   11.7410    0.0000 C   0  0  0  0  0  0  0  0  0  0  0  0
   -6.6118   13.2175    0.0000 C   0  0  0  0  0  0  0  0  0  0  0  0
   -6.7325   14.7126    0.0000 C   0  0  0  0  0  0  0  0  0  0  0  0
   -6.7084   16.2124    0.0000 C   0  0  0  0  0  0  0  0  0  0  0  0
   -6.5396   17.7029    0.0000 C   0  0  0  0  0  0  0  0  0  0  0  0
   -6.2277   19.1701    0.0000 C   0  0  0  0  0  0  0  0  0  0  0  0
   -5.7757   20.6004    0.0000 C   0  0  0  0  0  0  0  0  0  0  0  0
   -5.1877   21.9803    0.0000 C   0  0  0  0  0  0  0  0  0  0  0  0
   -4.4693   23.2971    0.0000 C   0  0  0  0  0  0  0  0  0  0  0  0
   -3.6272   24.5384    0.0000 C   0  0  0  0  0  0  0  0  0  0  0  0
   -2.6692   25.6927    0.0000 C   0  0  0  0  0  0  0  0  0  0  0  0
   -1.6043   26.7490    0.0000 C   0  0  0  0  0  0  0  0  0  0  0  0
   -0.4424   27.6977    0.0000 C   0  0  0  0  0  0  0  0  0  0  0  0
    0.8057   28.5298    0.0000 C   0  0  0  0  0  0  0  0  0  0  0  0
    2.1282   29.2376    0.0000 C   0  0  0  0  0  0  0  0  0  0  0  0
    3.5129   29.8144    0.0000 C   0  0  0  0  0  0  0  0  0  0  0  0
    4.9467   30.2549    0.0000 C   0  0  0  0  0  0  0  0  0  0  0  0
    6.4164   30.5549    0.0000 C   0  0  0  0  0  0  0  0  0  0  0  0
    7.9082   30.7117    0.0000 C   0  0  0  0  0  0  0  0  0  0  0  0
    9.4081   30.7238    0.0000 C   0  0  0  0  0  0  0  0  0  0  0  0
   10.9023   30.5910    0.0000 C   0  0  0  0  0  0  0  0  0  0  0  0
   12.3766   30.3147    0.0000 C   0  0  0  0  0  0  0  0  0  0  0  0
   13.8174   29.8974    0.0000 C   0  0  0  0  0  0  0  0  0  0  0  0
   15.2111   29.3430    0.0000 C   0  0  0  0  0  0  0  0  0  0  0  0
   16.5449   28.6566    0.0000 C   0  0  0  0  0  0  0  0  0  0  0  0
   17.8062   27.8447    0.0000 C   0  0  0  0  0  0  0  0  0  0  0  0
   18.9832   26.9149    0.0000 C   0  0  0  0  0  0  0  0  0  0  0  0
   20.0650   25.8758    0.0000 C   0  0  0  0  0  0  0  0  0  0  0  0
   21.0415   24.7371    0.0000 C   0  0  0  0  0  0  0  0  0  0  0  0
   21.9035   23.5096    0.0000 C   0  0  0  0  0  0  0  0  0  0  0  0
   22.6430   22.2045    0.0000 C   0  0  0  0  0  0  0  0  0  0  0  0
   23.2531   20.8342    0.0000 C   0  0  0  0  0  0  0  0  0  0  0  0
   23.7281   19.4114    0.0000 C   0  0  0  0  0  0  0  0  0  0  0  0
   24.0636   17.9494    0.0000 C   0  0  0  0  0  0  0  0  0  0  0  0
   24.2564   16.4618    0.0000 C   0  0  0  0  0  0  0  0  0  0  0  0
   24.3047   14.9626    0.0000 C   0  0  0  0  0  0  0  0  0  0  0  0
   24.2081   13.4657    0.0000 C   0  0  0  0  0  0  0  0  0  0  0  0
   23.9675   11.9852    0.0000 C   0  0  0  0  0  0  0  0  0  0  0  0
   23.5851   10.5347    0.0000 C   0  0  0  0  0  0  0  0  0  0  0  0
   23.0645    9.1280    0.0000 C   0  0  0  0  0  0  0  0  0  0  0  0
   22.4106    7.7780    0.0000 C   0  0  0  0  0  0  0  0  0  0  0  0
   21.6294    6.4975    0.0000 C   0  0  0  0  0  0  0  0  0  0  0  0
   20.7283    5.2983    0.0000 C   0  0  0  0  0  0  0  0  0  0  0  0
   19.7156    4.1917    0.0000 C   0  0  0  0  0  0  0  0  0  0  0  0
   18.6009    3.1880    0.0000 C   0  0  0  0  0  0  0  0  0  0  0  0
   17.3945    2.2966    0.0000 C   0  0  0  0  0  0  0  0  0  0  0  0
   16.1078    1.5258    0.0000 C   0  0  0  0  0  0  0  0  0  0  0  0
   14.7526    0.8827    0.0000 C   0  0  0  0  0  0  0  0  0  0  0  0
   13.3417    0.3735    0.0000 C   0  0  0  0  0  0  0  0  0  0  0  0
   11.8882    0.0028    0.0000 C   0  0  0  0  0  0  0  0  0  0  0  0
   10.4057   -0.2259    0.0000 C   0  0  0  0  0  0  0  0  0  0  0  0
    8.9081   -0.3104    0.0000 C   0  0  0  0  0  0  0  0  0  0  0  0
    7.4093   -0.2500    0.0000 C   0  0  0  0  0  0  0  0  0  0  0  0
    5.9234   -0.0453    0.0000 C   0  0  0  0  0  0  0  0  0  0  0  0
    4.4641    0.3020    0.0000 C   0  0  0  0  0  0  0  0  0  0  0  0
    3.0452    0.7884    0.0000 C   0  0  0  0  0  0  0  0  0  0  0  0
    1.6798    1.4095    0.0000 C   0  0  0  0  0  0  0  0  0  0  0  0
    2.1929    0.0000    0.0000 C   0  0  0  0  0  0  0  0  0  0  0  0
    1.6798   -1.4095    0.0000 C   0  0  0  0  0  0  0  0  0  0  0  0
    0.3808   -2.1595    0.0000 C   0  0  0  0  0  0  0  0  0  0  0  0
   -1.0964   -1.8991    0.0000 C   0  0  0  0  0  0  0  0  0  0  0  0
   -2.0606   -0.7500    0.0000 C   0  0  0  0  0  0  0  0  0  0  0  0
   -2.0606    0.7500    0.0000 C   0  0  0  0  0  0  0  0  0  0  0  0
   -1.0964    1.8991    0.0000 C   0  0  0  0  0  0  0  0  0  0  0  0
    0.3808    2.1595    0.0000 C   0  0  0  0  0  0  0  0  0  0  0  0
  1  2  1  0
  2  3  1  0
  3  4  1  0
  4  5  1  0
  5  6  1  0
  6  7  1  0
  7  8  1  0
  8  9  1  0
  9 10  1  0
 10 11  1  0
 11 12  1  0
 12 13  1  0
 13 14  1  0
 14 15  1  0
 15 16  1  0
 16 17  1  0
 17 18  1  0
 18 19  1  0
 19 20  1  0
 20 21  1  0
 21 22  1  0
 22 23  1  0
 23 24  1  0
 24 25  1  0
 25 26  1  0
 26 27  1  0
 27 28  1  0
 28 29  1  0
 29 30  1  0
 30 31  1  0
 31 32  1  0
 32 33  1  0
 33 34  1  0
 34 35  1  0
 35 36  1  0
 36 37  1  0
 37 38  1  0
 38 39  1  0
 39 40  1  0
 40 41  1  0
 41 42  1  0
 42 43  1  0
 43 44  1  0
 44 45  1  0
 45 46  1  0
 46 47  1  0
 47 48  1  0
 48 49  1  0
 49 50  1  0
 50 51  1  0
 51 52  1  0
 52 53  1  0
 53 54  1  0
 54 55  1  0
 55 56  1  0
 56 57  1  0
 57 58  1  0
 58 59  1  0
 59 60  1  0
 60 61  1  0
 61 62  1  0
 62 63  1  0
 63 64  1  0
 64 65  1  0
 65 66  1  0
 66 67  1  0
 67 68  1  0
 68 69  2  0
 69 70  1  0
 70 71  2  0
 71 72  1  0
 72 73  2  0
 73  2  1  0
 73 65  1  0
M  END
>  <Title>  (419) 
idAAOEgen13

$$$$

     RDKit          2D

 17 18  0  0  0  0  0  0  0  0999 V2000
    8.0260    3.8971    0.0000 C   0  0  0  0  0  0  0  0  0  0  0  0
    7.2760    2.5981    0.0000 C   0  0  0  0  0  0  0  0  0  0  0  0
    5.7760    2.5981    0.0000 C   0  0  0  0  0  0  0  0  0  0  0  0
    5.0260    1.2990    0.0000 C   0  0  0  0  0  0  0  0  0  0  0  0
    3.5260    1.2990    0.0000 C   0  0  0  0  0  0  0  0  0  0  0  0
    2.7760    2.5981    0.0000 O   0  0  0  0  0  0  0  0  0  0  0  0
    2.7760    0.0000    0.0000 N   0  0  0  0  0  0  0  0  0  0  0  0
    1.2760    0.0000    0.0000 C   0  0  0  0  0  0  0  0  0  0  0  0
    0.3943    1.2135    0.0000 N   0  0  0  0  0  0  0  0  0  0  0  0
   -1.0323    0.7500    0.0000 N   0  0  0  0  0  0  0  0  0  0  0  0
   -1.0323   -0.7500    0.0000 N   0  0  0  0  0  0  0  0  0  0  0  0
    0.3943   -1.2135    0.0000 N   0  0  0  0  0  0  0  0  0  0  0  0
    0.8578   -2.6401    0.0000 C   0  0  0  0  0  0  0  0  0  0  0  0
   -0.0239   -3.8536    0.0000 C   0  0  0  0  0  0  0  0  0  0  0  0
    0.8578   -5.0672    0.0000 C   0  0  0  0  0  0  0  0  0  0  0  0
    2.2844   -4.6036    0.0000 C   0  0  0  0  0  0  0  0  0  0  0  0
    2.2844   -3.1036    0.0000 C   0  0  0  0  0  0  0  0  0  0  0  0
  1  2  2  0
  2  3  1  0
  3  4  1  0
  4  5  1  0
  5  6  2  0
  5  7  1  0
  7  8  1  0
  8  9  2  0
  9 10  1  0
 10 11  2  0
 11 12  1  0
 12 13  1  0
 13 14  2  0
 14 15  1  0
 15 16  2  0
 16 17  2  0
 12  8  1  0
 17 13  1  0
M  END
>  <Title>  (420) 
idAAOFgen13

$$$$

     RDKit          2D

 32 36  0  0  0  0  0  0  0  0999 V2000
   -3.0000   -2.5981    0.0000 C   0  0  0  0  0  0  0  0  0  0  0  0
   -1.5000   -2.5981    0.0000 C   0  0  0  0  0  0  0  0  0  0  0  0
   -0.7500   -3.8971    0.0000 C   0  0  0  0  0  0  0  0  0  0  0  0
    0.7500   -3.8971    0.0000 C   0  0  0  0  0  0  0  0  0  0  0  0
    1.5000   -2.5981    0.0000 C   0  0  0  0  0  0  0  0  0  0  0  0
    3.0000   -2.5981    0.0000 C   0  0  0  0  0  0  0  0  0  0  0  0
    3.7500   -1.2990    0.0000 O   0  0  0  0  0  0  0  0  0  0  0  0
    3.7500   -3.8971    0.0000 N   0  0  0  0  0  0  0  0  0  0  0  0
    5.2500   -3.8971    0.0000 C   0  0  0  0  0  0  0  0  0  0  0  0
    6.1317   -2.6836    0.0000 N   0  0  0  0  0  0  0  0  0  0  0  0
    7.5583   -3.1471    0.0000 N   0  0  0  0  0  0  0  0  0  0  0  0
    7.5583   -4.6471    0.0000 N   0  0  0  0  0  0  0  0  0  0  0  0
    6.1317   -5.1106    0.0000 N   0  0  0  0  0  0  0  0  0  0  0  0
    5.6682   -6.5372    0.0000 C   0  0  0  0  0  0  0  0  0  0  0  0
    6.5498   -7.7508    0.0000 C   0  0  0  0  0  0  0  0  0  0  0  0
    5.6682   -8.9643    0.0000 C   0  0  0  0  0  0  0  0  0  0  0  0
    4.2416   -8.5008    0.0000 C   0  0  0  0  0  0  0  0  0  0  0  0
    3.0280   -9.3824    0.0000 C   0  0  0  0  0  0  0  0  0  0  0  0
    1.6577   -8.7723    0.0000 N   0  0  0  0  0  0  0  0  0  0  0  0
    1.5009   -7.2805    0.0000 C   0  0  0  0  0  0  0  0  0  0  0  0
    0.1306   -6.6704    0.0000 C   0  0  0  0  0  0  0  0  0  0  0  0
   -1.0829   -7.5521    0.0000 N   0  0  0  0  0  0  0  0  0  0  0  0
   -0.9261   -9.0439    0.0000 N   0  0  0  0  0  0  0  0  0  0  0  0
    0.4442   -9.6540    0.0000 N   0  0  0  0  0  0  0  0  0  0  0  0
    4.2416   -7.0008    0.0000 C   0  0  0  0  0  0  0  0  0  0  0  0
    3.0280   -6.1191    0.0000 O   0  0  0  0  0  0  0  0  0  0  0  0
    0.7500   -1.2990    0.0000 C   0  0  0  0  0  0  0  0  0  0  0  0
    1.5000    0.0000    0.0000 C   0  0  0  0  0  0  0  0  0  0  0  0
    0.7500    1.2990    0.0000 C   0  0  0  0  0  0  0  0  0  0  0  0
   -0.7500    1.2990    0.0000 C   0  0  0  0  0  0  0  0  0  0  0  0
   -1.5000    0.0000    0.0000 C   0  0  0  0  0  0  0  0  0  0  0  0
   -0.7500   -1.2990    0.0000 C   0  0  0  0  0  0  0  0  0  0  0  0
  1  2  1  0
  2  3  1  0
  3  4  2  0
  4  5  1  0
  5  6  1  0
  6  7  2  0
  6  8  1  0
  8  9  1  0
  9 10  2  0
 10 11  1  0
 11 12  2  0
 12 13  1  0
 13 14  1  0
 14 15  2  0
 15 16  1  0
 16 17  2  0
 17 18  1  0
 18 19  1  0
 19 20  1  0
 20 21  1  0
 21 22  2  0
 22 23  1  0
 23 24  2  0
 17 25  1  0
 25 26  2  0
  5 27  1  0
 27 28  2  0
 28 29  1  0
 29 30  2  0
 30 31  1  0
 31 32  2  0
 32  2  1  0
 13  9  1  0
 25 14  1  0
 32 27  1  0
 24 19  1  0
M  END
>  <Title>  (421) 
idAAOGgen13

$$$$

     RDKit          2D

 40 45  0  0  0  0  0  0  0  0999 V2000
   -1.1382   -8.3460    0.0000 C   0  0  0  0  0  0  0  0  0  0  0  0
   -0.7500   -6.8971    0.0000 C   0  0  0  0  0  0  0  0  0  0  0  0
    0.7500   -6.8971    0.0000 C   0  0  0  0  0  0  0  0  0  0  0  0
    2.0490   -6.1471    0.0000 C   0  0  0  0  0  0  0  0  0  0  0  0
    2.7990   -4.8481    0.0000 C   0  0  0  0  0  0  0  0  0  0  0  0
    2.7990   -3.3481    0.0000 C   0  0  0  0  0  0  0  0  0  0  0  0
    2.0490   -2.0490    0.0000 C   0  0  0  0  0  0  0  0  0  0  0  0
    3.1097   -0.9884    0.0000 C   0  0  0  0  0  0  0  0  0  0  0  0
    2.8750    0.4932    0.0000 C   0  0  0  0  0  0  0  0  0  0  0  0
    4.2116    1.1741    0.0000 C   0  0  0  0  0  0  0  0  0  0  0  0
    5.2722    0.1135    0.0000 C   0  0  0  0  0  0  0  0  0  0  0  0
    6.7537    0.3481    0.0000 C   0  0  0  0  0  0  0  0  0  0  0  0
    7.2913    1.7485    0.0000 O   0  0  0  0  0  0  0  0  0  0  0  0
    7.6977   -0.8176    0.0000 N   0  0  0  0  0  0  0  0  0  0  0  0
    9.1793   -0.5829    0.0000 C   0  0  0  0  0  0  0  0  0  0  0  0
   10.1232   -1.7487    0.0000 N   0  0  0  0  0  0  0  0  0  0  0  0
   11.6048   -1.5140    0.0000 N   0  0  0  0  0  0  0  0  0  0  0  0
   12.1423   -0.1136    0.0000 N   0  0  0  0  0  0  0  0  0  0  0  0
   11.1983    1.0521    0.0000 N   0  0  0  0  0  0  0  0  0  0  0  0
    9.7168    0.8174    0.0000 N   0  0  0  0  0  0  0  0  0  0  0  0
    4.5912   -1.2230    0.0000 C   0  0  0  0  0  0  0  0  0  0  0  0
    5.2722   -2.5595    0.0000 O   0  0  0  0  0  0  0  0  0  0  0  0
    0.7500   -1.2990    0.0000 C   0  0  0  0  0  0  0  0  0  0  0  0
    1.5000    0.0000    0.0000 C   0  0  0  0  0  0  0  0  0  0  0  0
    0.7500    1.2990    0.0000 C   0  0  0  0  0  0  0  0  0  0  0  0
   -0.7500    1.2990    0.0000 C   0  0  0  0  0  0  0  0  0  0  0  0
   -1.5000    0.0000    0.0000 C   0  0  0  0  0  0  0  0  0  0  0  0
   -0.7500   -1.2990    0.0000 C   0  0  0  0  0  0  0  0  0  0  0  0
   -2.0490   -2.0490    0.0000 C   0  0  0  0  0  0  0  0  0  0  0  0
   -2.7990   -0.7500    0.0000 C   0  0  0  0  0  0  0  0  0  0  0  0
   -4.2990   -0.7500    0.0000 C   0  0  0  0  0  0  0  0  0  0  0  0
   -5.0490   -2.0490    0.0000 C   0  0  0  0  0  0  0  0  0  0  0  0
   -4.2990   -3.3481    0.0000 C   0  0  0  0  0  0  0  0  0  0  0  0
   -2.7990   -3.3481    0.0000 C   0  0  0  0  0  0  0  0  0  0  0  0
   -2.7990   -4.8481    0.0000 C   0  0  0  0  0  0  0  0  0  0  0  0
   -4.2990   -4.8481    0.0000 C   0  0  0  0  0  0  0  0  0  0  0  0
   -5.0490   -6.1471    0.0000 C   0  0  0  0  0  0  0  0  0  0  0  0
   -4.2990   -7.4462    0.0000 C   0  0  0  0  0  0  0  0  0  0  0  0
   -2.7990   -7.4462    0.0000 C   0  0  0  0  0  0  0  0  0  0  0  0
   -2.0490   -6.1471    0.0000 C   0  0  0  0  0  0  0  0  0  0  0  0
  1  2  1  0
  2  3  1  0
  3  4  2  0
  4  5  1  0
  5  6  1  0
  6  7  1  0
  7  8  1  0
  8  9  2  0
  9 10  1  0
 10 11  2  0
 11 12  1  0
 12 13  2  0
 12 14  1  0
 14 15  1  0
 15 16  2  0
 16 17  1  0
 17 18  2  0
 18 19  1  0
 19 20  2  0
 11 21  1  0
 21 22  2  0
  7 23  1  0
 23 24  2  0
 24 25  1  0
 25 26  2  0
 26 27  1  0
 27 28  2  0
 28 29  1  0
 29 30  2  0
 30 31  1  0
 31 32  2  0
 32 33  1  0
 33 34  2  0
 34 35  1  0
 35 36  2  0
 36 37  1  0
 37 38  2  0
 38 39  1  0
 39 40  2  0
 40  2  1  0
 21  8  1  0
 28 23  1  0
 34 29  1  0
 40 35  1  0
 20 15  1  0
M  END
>  <Title>  (422) 
idAAOHgen13

$$$$

     RDKit          2D

  5  4  0  0  0  0  0  0  0  0999 V2000
    0.0000    0.0000    0.0000 C   0  0  0  0  0  0  0  0  0  0  0  0
    1.2990    0.7500    0.0000 C   0  0  0  0  0  0  0  0  0  0  0  0
    2.5981   -0.0000    0.0000 C   0  0  0  0  0  0  0  0  0  0  0  0
    3.8971    0.7500    0.0000 C   0  0  0  0  0  0  0  0  0  0  0  0
    2.5981   -1.5000    0.0000 C   0  0  0  0  0  0  0  0  0  0  0  0
  1  2  2  0
  2  3  1  0
  3  4  1  0
  3  5  1  0
M  END
>  <Title>  (423) 
idAAOIgen13

$$$$

     RDKit          2D

 40 45  0  0  0  0  0  0  0  0999 V2000
   -1.3240   -6.3062    0.0000 C   0  0  0  0  0  0  0  0  0  0  0  0
   -0.7500   -4.9204    0.0000 C   0  0  0  0  0  0  0  0  0  0  0  0
    0.7500   -4.9204    0.0000 C   0  0  0  0  0  0  0  0  0  0  0  0
    1.8107   -3.8597    0.0000 C   0  0  0  0  0  0  0  0  0  0  0  0
    1.8107   -2.3597    0.0000 C   0  0  0  0  0  0  0  0  0  0  0  0
    3.1965   -1.7857    0.0000 C   0  0  0  0  0  0  0  0  0  0  0  0
    3.3923   -0.2985    0.0000 O   0  0  0  0  0  0  0  0  0  0  0  0
    4.3865   -2.6988    0.0000 N   0  0  0  0  0  0  0  0  0  0  0  0
    5.7723   -2.1248    0.0000 C   0  0  0  0  0  0  0  0  0  0  0  0
    6.1225   -0.6662    0.0000 N   0  0  0  0  0  0  0  0  0  0  0  0
    7.6179   -0.5485    0.0000 N   0  0  0  0  0  0  0  0  0  0  0  0
    8.1919   -1.9344    0.0000 N   0  0  0  0  0  0  0  0  0  0  0  0
    7.0513   -2.9085    0.0000 N   0  0  0  0  0  0  0  0  0  0  0  0
    7.1690   -4.4039    0.0000 N   0  0  0  0  0  0  0  0  0  0  0  0
    8.4479   -5.1877    0.0000 C   0  0  0  0  0  0  0  0  0  0  0  0
    8.0978   -6.6462    0.0000 C   0  0  0  0  0  0  0  0  0  0  0  0
    6.6024   -6.7639    0.0000 C   0  0  0  0  0  0  0  0  0  0  0  0
    5.8186   -8.0429    0.0000 C   0  0  0  0  0  0  0  0  0  0  0  0
    6.5344   -9.3611    0.0000 O   0  0  0  0  0  0  0  0  0  0  0  0
    4.3192   -8.0036    0.0000 N   0  0  0  0  0  0  0  0  0  0  0  0
    3.5354   -9.2826    0.0000 C   0  0  0  0  0  0  0  0  0  0  0  0
    2.0359   -9.2433    0.0000 N   0  0  0  0  0  0  0  0  0  0  0  0
    1.2522  -10.5223    0.0000 N   0  0  0  0  0  0  0  0  0  0  0  0
    1.9679  -11.8405    0.0000 N   0  0  0  0  0  0  0  0  0  0  0  0
    3.4674  -11.8797    0.0000 N   0  0  0  0  0  0  0  0  0  0  0  0
    4.2512  -10.6008    0.0000 N   0  0  0  0  0  0  0  0  0  0  0  0
    6.0284   -5.3781    0.0000 C   0  0  0  0  0  0  0  0  0  0  0  0
    4.5698   -5.0279    0.0000 O   0  0  0  0  0  0  0  0  0  0  0  0
    0.7500   -1.2990    0.0000 C   0  0  0  0  0  0  0  0  0  0  0  0
    1.5000    0.0000    0.0000 C   0  0  0  0  0  0  0  0  0  0  0  0
    0.7500    1.2990    0.0000 C   0  0  0  0  0  0  0  0  0  0  0  0
   -0.7500    1.2990    0.0000 C   0  0  0  0  0  0  0  0  0  0  0  0
   -1.5000    0.0000    0.0000 C   0  0  0  0  0  0  0  0  0  0  0  0
   -0.7500   -1.2990    0.0000 C   0  0  0  0  0  0  0  0  0  0  0  0
   -1.8107   -2.3597    0.0000 C   0  0  0  0  0  0  0  0  0  0  0  0
   -3.1097   -1.6097    0.0000 C   0  0  0  0  0  0  0  0  0  0  0  0
   -4.4087   -2.3597    0.0000 C   0  0  0  0  0  0  0  0  0  0  0  0
   -4.4087   -3.8597    0.0000 C   0  0  0  0  0  0  0  0  0  0  0  0
   -3.1097   -4.6097    0.0000 C   0  0  0  0  0  0  0  0  0  0  0  0
   -1.8107   -3.8597    0.0000 C   0  0  0  0  0  0  0  0  0  0  0  0
  1  2  1  0
  2  3  1  0
  3  4  2  0
  4  5  1  0
  5  6  1  0
  6  7  2  0
  6  8  1  0
  8  9  1  0
  9 10  2  0
 10 11  1  0
 11 12  2  0
 12 13  1  0
 13 14  1  0
 14 15  1  0
 15 16  1  0
 16 17  1  0
 17 18  1  0
 18 19  2  0
 18 20  1  0
 20 21  1  0
 21 22  2  0
 22 23  1  0
 23 24  2  0
 24 25  1  0
 25 26  2  0
 17 27  1  0
 27 28  2  0
  5 29  1  0
 29 30  2  0
 30 31  1  0
 31 32  2  0
 32 33  1  0
 33 34  2  0
 34 35  1  0
 35 36  2  0
 36 37  1  0
 37 38  2  0
 38 39  1  0
 39 40  2  0
 40  2  1  0
 13  9  1  0
 27 14  1  0
 34 29  1  0
 40 35  1  0
 26 21  1  0
M  END
>  <Title>  (424) 
idAAOJgen13

$$$$

     RDKit          2D

 43 47  0  0  0  0  0  0  0  0999 V2000
   -9.7500   -6.4952    0.0000 C   0  0  0  0  0  0  0  0  0  0  0  0
   -8.2500   -6.4952    0.0000 C   0  0  0  0  0  0  0  0  0  0  0  0
   -7.5000   -5.1962    0.0000 C   0  0  0  0  0  0  0  0  0  0  0  0
   -6.0000   -5.1962    0.0000 C   0  0  0  0  0  0  0  0  0  0  0  0
   -5.2500   -3.8971    0.0000 C   0  0  0  0  0  0  0  0  0  0  0  0
   -6.0000   -2.5981    0.0000 O   0  0  0  0  0  0  0  0  0  0  0  0
   -7.5000   -2.5981    0.0000 C   0  0  0  0  0  0  0  0  0  0  0  0
   -3.7500   -3.8971    0.0000 C   0  0  0  0  0  0  0  0  0  0  0  0
   -3.0000   -5.1962    0.0000 O   0  0  0  0  0  0  0  0  0  0  0  0
   -3.0000   -2.5981    0.0000 N   0  0  0  0  0  0  0  0  0  0  0  0
   -1.5000   -2.5981    0.0000 C   0  0  0  0  0  0  0  0  0  0  0  0
   -0.7500   -3.8971    0.0000 C   0  0  0  0  0  0  0  0  0  0  0  0
    0.7500   -3.8971    0.0000 C   0  0  0  0  0  0  0  0  0  0  0  0
    1.5000   -2.5981    0.0000 C   0  0  0  0  0  0  0  0  0  0  0  0
    3.0000   -2.5981    0.0000 C   0  0  0  0  0  0  0  0  0  0  0  0
    3.7500   -1.2990    0.0000 O   0  0  0  0  0  0  0  0  0  0  0  0
    3.7500   -3.8971    0.0000 N   0  0  0  0  0  0  0  0  0  0  0  0
    5.2500   -3.8971    0.0000 C   0  0  0  0  0  0  0  0  0  0  0  0
    6.1317   -2.6836    0.0000 N   0  0  0  0  0  0  0  0  0  0  0  0
    7.5583   -3.1471    0.0000 N   0  0  0  0  0  0  0  0  0  0  0  0
    7.5583   -4.6471    0.0000 N   0  0  0  0  0  0  0  0  0  0  0  0
    6.1317   -5.1106    0.0000 N   0  0  0  0  0  0  0  0  0  0  0  0
    5.6682   -6.5372    0.0000 N   0  0  0  0  0  0  0  0  0  0  0  0
    6.5498   -7.7508    0.0000 C   0  0  0  0  0  0  0  0  0  0  0  0
    5.6682   -8.9643    0.0000 C   0  0  0  0  0  0  0  0  0  0  0  0
    4.2416   -8.5008    0.0000 N   0  0  0  0  0  0  0  0  0  0  0  0
    3.0280   -9.3824    0.0000 C   0  0  0  0  0  0  0  0  0  0  0  0
    3.1848  -10.8742    0.0000 O   0  0  0  0  0  0  0  0  0  0  0  0
    1.6577   -8.7723    0.0000 N   0  0  0  0  0  0  0  0  0  0  0  0
    0.4442   -9.6540    0.0000 C   0  0  0  0  0  0  0  0  0  0  0  0
   -0.9261   -9.0439    0.0000 N   0  0  0  0  0  0  0  0  0  0  0  0
   -2.1396   -9.9256    0.0000 N   0  0  0  0  0  0  0  0  0  0  0  0
   -1.9829  -11.4174    0.0000 N   0  0  0  0  0  0  0  0  0  0  0  0
   -0.6125  -12.0275    0.0000 N   0  0  0  0  0  0  0  0  0  0  0  0
    0.6010  -11.1458    0.0000 N   0  0  0  0  0  0  0  0  0  0  0  0
    4.2416   -7.0008    0.0000 C   0  0  0  0  0  0  0  0  0  0  0  0
    3.0280   -6.1191    0.0000 O   0  0  0  0  0  0  0  0  0  0  0  0
    0.7500   -1.2990    0.0000 C   0  0  0  0  0  0  0  0  0  0  0  0
    1.5000    0.0000    0.0000 C   0  0  0  0  0  0  0  0  0  0  0  0
    0.7500    1.2990    0.0000 C   0  0  0  0  0  0  0  0  0  0  0  0
   -0.7500    1.2990    0.0000 C   0  0  0  0  0  0  0  0  0  0  0  0
   -1.5000    0.0000    0.0000 C   0  0  0  0  0  0  0  0  0  0  0  0
   -0.7500   -1.2990    0.0000 C   0  0  0  0  0  0  0  0  0  0  0  0
  1  2  2  0
  2  3  1  0
  3  4  1  0
  4  5  2  3
  5  6  1  0
  6  7  1  0
  5  8  1  0
  8  9  2  0
  8 10  1  0
 10 11  1  0
 11 12  2  0
 12 13  1  0
 13 14  2  0
 14 15  1  0
 15 16  2  0
 15 17  1  0
 17 18  1  0
 18 19  2  0
 19 20  1  0
 20 21  2  0
 21 22  1  0
 22 23  1  0
 23 24  1  0
 24 25  1  0
 25 26  1  0
 26 27  1  0
 27 28  2  0
 27 29  1  0
 29 30  1  0
 30 31  2  0
 31 32  1  0
 32 33  2  0
 33 34  1  0
 34 35  2  0
 26 36  1  0
 36 37  2  0
 14 38  1  0
 38 39  2  0
 39 40  1  0
 40 41  2  0
 41 42  1  0
 42 43  2  0
 43 11  1  0
 22 18  1  0
 36 23  1  0
 43 38  1  0
 35 30  1  0
M  END
>  <Title>  (425) 
idAAOKgen13

$$$$

     RDKit          2D

 32 36  0  0  0  0  0  0  0  0999 V2000
   -3.0000   -2.5981    0.0000 C   0  0  0  0  0  0  0  0  0  0  0  0
   -1.5000   -2.5981    0.0000 C   0  0  0  0  0  0  0  0  0  0  0  0
   -0.7500   -3.8971    0.0000 C   0  0  0  0  0  0  0  0  0  0  0  0
    0.7500   -3.8971    0.0000 C   0  0  0  0  0  0  0  0  0  0  0  0
    1.5000   -2.5981    0.0000 C   0  0  0  0  0  0  0  0  0  0  0  0
    3.0000   -2.5981    0.0000 O   0  0  0  0  0  0  0  0  0  0  0  0
    3.7500   -3.8971    0.0000 C   0  0  0  0  0  0  0  0  0  0  0  0
    5.2418   -4.0539    0.0000 N   0  0  0  0  0  0  0  0  0  0  0  0
    5.5537   -5.5211    0.0000 N   0  0  0  0  0  0  0  0  0  0  0  0
    4.2546   -6.2711    0.0000 N   0  0  0  0  0  0  0  0  0  0  0  0
    3.1399   -5.2674    0.0000 N   0  0  0  0  0  0  0  0  0  0  0  0
    1.6727   -5.5793    0.0000 N   0  0  0  0  0  0  0  0  0  0  0  0
    1.0626   -6.9496    0.0000 C   0  0  0  0  0  0  0  0  0  0  0  0
   -0.4292   -6.7928    0.0000 C   0  0  0  0  0  0  0  0  0  0  0  0
   -0.7411   -5.3256    0.0000 N   0  0  0  0  0  0  0  0  0  0  0  0
   -2.1114   -4.7155    0.0000 C   0  0  0  0  0  0  0  0  0  0  0  0
   -2.2682   -3.2237    0.0000 O   0  0  0  0  0  0  0  0  0  0  0  0
   -3.3249   -5.5972    0.0000 N   0  0  0  0  0  0  0  0  0  0  0  0
   -4.6952   -4.9871    0.0000 C   0  0  0  0  0  0  0  0  0  0  0  0
   -4.8520   -3.4953    0.0000 N   0  0  0  0  0  0  0  0  0  0  0  0
   -6.2224   -2.8852    0.0000 N   0  0  0  0  0  0  0  0  0  0  0  0
   -7.4359   -3.7669    0.0000 N   0  0  0  0  0  0  0  0  0  0  0  0
   -7.2791   -5.2586    0.0000 N   0  0  0  0  0  0  0  0  0  0  0  0
   -5.9088   -5.8687    0.0000 N   0  0  0  0  0  0  0  0  0  0  0  0
    0.5580   -4.5756    0.0000 C   0  0  0  0  0  0  0  0  0  0  0  0
    0.7147   -3.0838    0.0000 O   0  0  0  0  0  0  0  0  0  0  0  0
    0.7500   -1.2990    0.0000 C   0  0  0  0  0  0  0  0  0  0  0  0
    1.5000    0.0000    0.0000 C   0  0  0  0  0  0  0  0  0  0  0  0
    0.7500    1.2990    0.0000 C   0  0  0  0  0  0  0  0  0  0  0  0
   -0.7500    1.2990    0.0000 C   0  0  0  0  0  0  0  0  0  0  0  0
   -1.5000    0.0000    0.0000 C   0  0  0  0  0  0  0  0  0  0  0  0
   -0.7500   -1.2990    0.0000 C   0  0  0  0  0  0  0  0  0  0  0  0
  1  2  1  0
  2  3  1  0
  3  4  2  0
  4  5  1  0
  5  6  1  0
  6  7  1  0
  7  8  2  0
  8  9  1  0
  9 10  2  0
 10 11  1  0
 11 12  1  0
 12 13  1  0
 13 14  1  0
 14 15  1  0
 15 16  1  0
 16 17  2  0
 16 18  1  0
 18 19  1  0
 19 20  2  0
 20 21  1  0
 21 22  2  0
 22 23  1  0
 23 24  2  0
 15 25  1  0
 25 26  2  0
  5 27  1  0
 27 28  2  0
 28 29  1  0
 29 30  2  0
 30 31  1  0
 31 32  2  0
 32  2  1  0
 11  7  1  0
 25 12  1  0
 32 27  1  0
 24 19  1  0
M  END
>  <Title>  (426) 
idAAOLgen13

$$$$

     RDKit          2D

 93 96  0  0  0  0  0  0  0  0999 V2000
   -7.9745    3.8306    0.0000 C   0  0  0  0  0  0  0  0  0  0  0  0
   -7.0526    5.0138    0.0000 C   0  0  0  0  0  0  0  0  0  0  0  0
   -8.1984    5.9820    0.0000 C   0  0  0  0  0  0  0  0  0  0  0  0
   -9.2635    7.0381    0.0000 C   0  0  0  0  0  0  0  0  0  0  0  0
  -10.2414    8.1756    0.0000 C   0  0  0  0  0  0  0  0  0  0  0  0
  -11.1259    9.3871    0.0000 C   0  0  0  0  0  0  0  0  0  0  0  0
  -11.9112   10.6650    0.0000 C   0  0  0  0  0  0  0  0  0  0  0  0
  -12.5926   12.0014    0.0000 C   0  0  0  0  0  0  0  0  0  0  0  0
  -13.1656   13.3876    0.0000 C   0  0  0  0  0  0  0  0  0  0  0  0
  -13.6267   14.8150    0.0000 C   0  0  0  0  0  0  0  0  0  0  0  0
  -13.9730   16.2745    0.0000 C   0  0  0  0  0  0  0  0  0  0  0  0
  -14.2021   17.7568    0.0000 C   0  0  0  0  0  0  0  0  0  0  0  0
  -14.3128   19.2528    0.0000 C   0  0  0  0  0  0  0  0  0  0  0  0
  -14.3043   20.7527    0.0000 C   0  0  0  0  0  0  0  0  0  0  0  0
  -14.1766   22.2473    0.0000 C   0  0  0  0  0  0  0  0  0  0  0  0
  -13.9306   23.7270    0.0000 C   0  0  0  0  0  0  0  0  0  0  0  0
  -13.5678   25.1824    0.0000 C   0  0  0  0  0  0  0  0  0  0  0  0
  -13.0906   26.6045    0.0000 C   0  0  0  0  0  0  0  0  0  0  0  0
  -12.5018   27.9841    0.0000 C   0  0  0  0  0  0  0  0  0  0  0  0
  -11.8053   29.3126    0.0000 C   0  0  0  0  0  0  0  0  0  0  0  0
  -11.0054   30.5815    0.0000 C   0  0  0  0  0  0  0  0  0  0  0  0
  -10.1073   31.7829    0.0000 C   0  0  0  0  0  0  0  0  0  0  0  0
   -9.1165   32.9092    0.0000 C   0  0  0  0  0  0  0  0  0  0  0  0
   -8.0394   33.9531    0.0000 C   0  0  0  0  0  0  0  0  0  0  0  0
   -6.8828   34.9082    0.0000 C   0  0  0  0  0  0  0  0  0  0  0  0
   -5.6539   35.7684    0.0000 C   0  0  0  0  0  0  0  0  0  0  0  0
   -4.3606   36.5282    0.0000 C   0  0  0  0  0  0  0  0  0  0  0  0
   -3.0110   37.1829    0.0000 C   0  0  0  0  0  0  0  0  0  0  0  0
   -1.6137   37.7282    0.0000 C   0  0  0  0  0  0  0  0  0  0  0  0
   -0.1774   38.1609    0.0000 C   0  0  0  0  0  0  0  0  0  0  0  0
    1.2887   38.4780    0.0000 C   0  0  0  0  0  0  0  0  0  0  0  0
    2.7753   38.6777    0.0000 C   0  0  0  0  0  0  0  0  0  0  0  0
    4.2731   38.7586    0.0000 C   0  0  0  0  0  0  0  0  0  0  0  0
    5.7726   38.7202    0.0000 C   0  0  0  0  0  0  0  0  0  0  0  0
    7.2644   38.5629    0.0000 C   0  0  0  0  0  0  0  0  0  0  0  0
    8.7389   38.2875    0.0000 C   0  0  0  0  0  0  0  0  0  0  0  0
   10.1868   37.8958    0.0000 C   0  0  0  0  0  0  0  0  0  0  0  0
   11.5991   37.3904    0.0000 C   0  0  0  0  0  0  0  0  0  0  0  0
   12.9668   36.7743    0.0000 C   0  0  0  0  0  0  0  0  0  0  0  0
   14.2811   36.0515    0.0000 C   0  0  0  0  0  0  0  0  0  0  0  0
   15.5339   35.2266    0.0000 C   0  0  0  0  0  0  0  0  0  0  0  0
   16.7172   34.3048    0.0000 C   0  0  0  0  0  0  0  0  0  0  0  0
   17.8235   33.2918    0.0000 C   0  0  0  0  0  0  0  0  0  0  0  0
   18.8459   32.1942    0.0000 C   0  0  0  0  0  0  0  0  0  0  0  0
   19.7778   31.0188    0.0000 C   0  0  0  0  0  0  0  0  0  0  0  0
   20.6134   29.7731    0.0000 C   0  0  0  0  0  0  0  0  0  0  0  0
   21.3473   28.4649    0.0000 C   0  0  0  0  0  0  0  0  0  0  0  0
   21.9750   27.1025    0.0000 C   0  0  0  0  0  0  0  0  0  0  0  0
   22.4925   25.6946    0.0000 C   0  0  0  0  0  0  0  0  0  0  0  0
   22.8965   24.2500    0.0000 C   0  0  0  0  0  0  0  0  0  0  0  0
   23.1844   22.7779    0.0000 C   0  0  0  0  0  0  0  0  0  0  0  0
   23.3545   21.2876    0.0000 C   0  0  0  0  0  0  0  0  0  0  0  0
   23.4056   19.7885    0.0000 C   0  0  0  0  0  0  0  0  0  0  0  0
   23.3374   18.2900    0.0000 C   0  0  0  0  0  0  0  0  0  0  0  0
   23.1504   16.8017    0.0000 C   0  0  0  0  0  0  0  0  0  0  0  0
   22.8458   15.3330    0.0000 C   0  0  0  0  0  0  0  0  0  0  0  0
   22.4254   13.8931    0.0000 C   0  0  0  0  0  0  0  0  0  0  0  0
   21.8920   12.4912    0.0000 C   0  0  0  0  0  0  0  0  0  0  0  0
   21.2489   11.1360    0.0000 C   0  0  0  0  0  0  0  0  0  0  0  0
   20.5001    9.8363    0.0000 C   0  0  0  0  0  0  0  0  0  0  0  0
   19.6504    8.6001    0.0000 C   0  0  0  0  0  0  0  0  0  0  0  0
   18.7052    7.4354    0.0000 C   0  0  0  0  0  0  0  0  0  0  0  0
   17.6705    6.3494    0.0000 C   0  0  0  0  0  0  0  0  0  0  0  0
   16.5527    5.3491    0.0000 C   0  0  0  0  0  0  0  0  0  0  0  0
   15.3590    4.4408    0.0000 C   0  0  0  0  0  0  0  0  0  0  0  0
   14.0969    3.6301    0.0000 C   0  0  0  0  0  0  0  0  0  0  0  0
   12.7744    2.9223    0.0000 C   0  0  0  0  0  0  0  0  0  0  0  0
   11.3999    2.3219    0.0000 C   0  0  0  0  0  0  0  0  0  0  0  0
    9.9820    1.8325    0.0000 C   0  0  0  0  0  0  0  0  0  0  0  0
    8.5296    1.4573    0.0000 C   0  0  0  0  0  0  0  0  0  0  0  0
    7.0521    1.1987    0.0000 C   0  0  0  0  0  0  0  0  0  0  0  0
    5.5587    1.0583    0.0000 C   0  0  0  0  0  0  0  0  0  0  0  0
    4.0588    1.0370    0.0000 C   0  0  0  0  0  0  0  0  0  0  0  0
    2.5620    1.1349    0.0000 C   0  0  0  0  0  0  0  0  0  0  0  0
    1.0777    1.3515    0.0000 C   0  0  0  0  0  0  0  0  0  0  0  0
    1.7286    0.0000    0.0000 C   0  0  0  0  0  0  0  0  0  0  0  0
    1.0777   -1.3515    0.0000 C   0  0  0  0  0  0  0  0  0  0  0  0
   -0.3846   -1.6852    0.0000 C   0  0  0  0  0  0  0  0  0  0  0  0
   -1.5574   -0.7500    0.0000 C   0  0  0  0  0  0  0  0  0  0  0  0
   -1.5574    0.7500    0.0000 C   0  0  0  0  0  0  0  0  0  0  0  0
   -0.3846    1.6852    0.0000 C   0  0  0  0  0  0  0  0  0  0  0  0
   -1.8159    2.1341    0.0000 C   0  0  0  0  0  0  0  0  0  0  0  0
   -0.6343    3.0582    0.0000 C   0  0  0  0  0  0  0  0  0  0  0  0
   -0.8439    4.5435    0.0000 C   0  0  0  0  0  0  0  0  0  0  0  0
   -2.2349    5.1047    0.0000 C   0  0  0  0  0  0  0  0  0  0  0  0
   -3.4165    4.1807    0.0000 C   0  0  0  0  0  0  0  0  0  0  0  0
   -3.2070    2.6954    0.0000 C   0  0  0  0  0  0  0  0  0  0  0  0
   -4.5490    3.3653    0.0000 C   0  0  0  0  0  0  0  0  0  0  0  0
   -4.5774    1.8656    0.0000 C   0  0  0  0  0  0  0  0  0  0  0  0
   -5.8904    1.1403    0.0000 C   0  0  0  0  0  0  0  0  0  0  0  0
   -7.1750    1.9148    0.0000 C   0  0  0  0  0  0  0  0  0  0  0  0
   -7.1466    3.4145    0.0000 C   0  0  0  0  0  0  0  0  0  0  0  0
   -5.8336    4.1398    0.0000 C   0  0  0  0  0  0  0  0  0  0  0  0
  1  2  1  0
  2  3  1  0
  3  4  1  0
  4  5  1  0
  5  6  1  0
  6  7  1  0
  7  8  1  0
  8  9  1  0
  9 10  1  0
 10 11  1  0
 11 12  1  0
 12 13  1  0
 13 14  1  0
 14 15  1  0
 15 16  1  0
 16 17  1  0
 17 18  1  0
 18 19  1  0
 19 20  1  0
 20 21  1  0
 21 22  1  0
 22 23  1  0
 23 24  1  0
 24 25  1  0
 25 26  1  0
 26 27  1  0
 27 28  1  0
 28 29  1  0
 29 30  1  0
 30 31  1  0
 31 32  1  0
 32 33  1  0
 33 34  1  0
 34 35  1  0
 35 36  1  0
 36 37  1  0
 37 38  1  0
 38 39  1  0
 39 40  1  0
 40 41  1  0
 41 42  1  0
 42 43  1  0
 43 44  1  0
 44 45  1  0
 45 46  1  0
 46 47  1  0
 47 48  1  0
 48 49  1  0
 49 50  1  0
 50 51  1  0
 51 52  1  0
 52 53  1  0
 53 54  1  0
 54 55  1  0
 55 56  1  0
 56 57  1  0
 57 58  1  0
 58 59  1  0
 59 60  1  0
 60 61  1  0
 61 62  1  0
 62 63  1  0
 63 64  1  0
 64 65  1  0
 65 66  1  0
 66 67  1  0
 67 68  1  0
 68 69  1  0
 69 70  1  0
 70 71  1  0
 71 72  1  0
 72 73  1  0
 73 74  1  0
 74 75  1  0
 75 76  1  0
 76 77  2  0
 77 78  1  0
 78 79  2  0
 79 80  1  0
 80 81  2  0
 81 82  1  0
 82 83  2  0
 83 84  1  0
 84 85  2  0
 85 86  1  0
 86 87  2  0
 87 88  1  0
 88 89  2  0
 89 90  1  0
 90 91  2  0
 91 92  1  0
 92 93  2  0
 93  2  1  0
 81 75  1  0
 87 82  1  0
 93 88  1  0
M  END
>  <Title>  (427) 
idAAOMgen13

$$$$

     RDKit          2D

  9 10  0  0  0  0  0  0  0  0999 V2000
   -0.0000   -3.6073    0.0000 C   0  0  0  0  0  0  0  0  0  0  0  0
    1.2135   -2.7256    0.0000 C   0  0  0  0  0  0  0  0  0  0  0  0
    0.7500   -1.2990    0.0000 C   0  0  0  0  0  0  0  0  0  0  0  0
    1.5000    0.0000    0.0000 C   0  0  0  0  0  0  0  0  0  0  0  0
    0.7500    1.2990    0.0000 C   0  0  0  0  0  0  0  0  0  0  0  0
   -0.7500    1.2990    0.0000 C   0  0  0  0  0  0  0  0  0  0  0  0
   -1.5000    0.0000    0.0000 C   0  0  0  0  0  0  0  0  0  0  0  0
   -0.7500   -1.2990    0.0000 C   0  0  0  0  0  0  0  0  0  0  0  0
   -1.2135   -2.7256    0.0000 C   0  0  0  0  0  0  0  0  0  0  0  0
  1  2  2  0
  2  3  1  0
  3  4  2  0
  4  5  1  0
  5  6  2  0
  6  7  1  0
  7  8  2  0
  8  9  1  0
  9  1  1  0
  8  3  1  0
M  END
>  <Title>  (428) 
idAAONgen13

$$$$

     RDKit          2D

  9  8  0  0  0  0  0  0  0  0999 V2000
    0.0000    0.0000    0.0000 C   0  0  0  0  0  0  0  0  0  0  0  0
    1.2990    0.7500    0.0000 C   0  0  0  0  0  0  0  0  0  0  0  0
    2.5981   -0.0000    0.0000 C   0  0  0  0  0  0  0  0  0  0  0  0
    3.8971    0.7500    0.0000 C   0  0  0  0  0  0  0  0  0  0  0  0
    5.1962   -0.0000    0.0000 C   0  0  0  0  0  0  0  0  0  0  0  0
    6.4952    0.7500    0.0000 C   0  0  0  0  0  0  0  0  0  0  0  0
    7.7942   -0.0000    0.0000 C   0  0  0  0  0  0  0  0  0  0  0  0
    9.0933    0.7500    0.0000 C   0  0  0  0  0  0  0  0  0  0  0  0
    7.7942   -1.5000    0.0000 C   0  0  0  0  0  0  0  0  0  0  0  0
  1  2  2  0
  2  3  1  0
  3  4  1  0
  4  5  1  0
  5  6  1  0
  6  7  1  0
  7  8  1  0
  7  9  1  0
M  END
>  <Title>  (429) 
idAAOOgen13

$$$$

     RDKit          2D

 82 82  0  0  0  0  0  0  0  0999 V2000
  115.5000    0.0000    0.0000 C   0  0  0  0  0  0  0  0  0  0  0  0
  114.0000    0.0000    0.0000 C   0  0  0  0  0  0  0  0  0  0  0  0
  112.5000    0.0000    0.0000 C   0  0  0  0  0  0  0  0  0  0  0  0
  111.0000    0.0000    0.0000 C   0  0  0  0  0  0  0  0  0  0  0  0
  109.5000    0.0000    0.0000 C   0  0  0  0  0  0  0  0  0  0  0  0
  108.0000    0.0000    0.0000 C   0  0  0  0  0  0  0  0  0  0  0  0
  106.5000    0.0000    0.0000 C   0  0  0  0  0  0  0  0  0  0  0  0
  105.0000    0.0000    0.0000 C   0  0  0  0  0  0  0  0  0  0  0  0
  103.5000    0.0000    0.0000 C   0  0  0  0  0  0  0  0  0  0  0  0
  102.0000    0.0000    0.0000 C   0  0  0  0  0  0  0  0  0  0  0  0
  100.5000    0.0000    0.0000 C   0  0  0  0  0  0  0  0  0  0  0  0
   99.0000    0.0000    0.0000 C   0  0  0  0  0  0  0  0  0  0  0  0
   97.5000    0.0000    0.0000 C   0  0  0  0  0  0  0  0  0  0  0  0
   96.0000    0.0000    0.0000 C   0  0  0  0  0  0  0  0  0  0  0  0
   94.5000    0.0000    0.0000 C   0  0  0  0  0  0  0  0  0  0  0  0
   93.0000    0.0000    0.0000 C   0  0  0  0  0  0  0  0  0  0  0  0
   91.5000    0.0000    0.0000 C   0  0  0  0  0  0  0  0  0  0  0  0
   90.0000    0.0000    0.0000 C   0  0  0  0  0  0  0  0  0  0  0  0
   88.5000    0.0000    0.0000 C   0  0  0  0  0  0  0  0  0  0  0  0
   87.0000    0.0000    0.0000 C   0  0  0  0  0  0  0  0  0  0  0  0
   85.5000    0.0000    0.0000 C   0  0  0  0  0  0  0  0  0  0  0  0
   84.0000    0.0000    0.0000 C   0  0  0  0  0  0  0  0  0  0  0  0
   82.5000    0.0000    0.0000 C   0  0  0  0  0  0  0  0  0  0  0  0
   81.0000    0.0000    0.0000 C   0  0  0  0  0  0  0  0  0  0  0  0
   79.5000    0.0000    0.0000 C   0  0  0  0  0  0  0  0  0  0  0  0
   78.0000    0.0000    0.0000 C   0  0  0  0  0  0  0  0  0  0  0  0
   76.5000    0.0000    0.0000 C   0  0  0  0  0  0  0  0  0  0  0  0
   75.0000    0.0000    0.0000 C   0  0  0  0  0  0  0  0  0  0  0  0
   73.5000    0.0000    0.0000 C   0  0  0  0  0  0  0  0  0  0  0  0
   72.0000    0.0000    0.0000 C   0  0  0  0  0  0  0  0  0  0  0  0
   70.5000    0.0000    0.0000 C   0  0  0  0  0  0  0  0  0  0  0  0
   69.0000    0.0000    0.0000 C   0  0  0  0  0  0  0  0  0  0  0  0
   67.5000    0.0000    0.0000 C   0  0  0  0  0  0  0  0  0  0  0  0
   66.0000    0.0000    0.0000 C   0  0  0  0  0  0  0  0  0  0  0  0
   64.5000    0.0000    0.0000 C   0  0  0  0  0  0  0  0  0  0  0  0
   63.0000    0.0000    0.0000 C   0  0  0  0  0  0  0  0  0  0  0  0
   61.5000    0.0000    0.0000 C   0  0  0  0  0  0  0  0  0  0  0  0
   60.0000    0.0000    0.0000 C   0  0  0  0  0  0  0  0  0  0  0  0
   58.5000    0.0000    0.0000 C   0  0  0  0  0  0  0  0  0  0  0  0
   57.0000    0.0000    0.0000 C   0  0  0  0  0  0  0  0  0  0  0  0
   55.5000    0.0000    0.0000 C   0  0  0  0  0  0  0  0  0  0  0  0
   54.0000    0.0000    0.0000 C   0  0  0  0  0  0  0  0  0  0  0  0
   52.5000    0.0000    0.0000 C   0  0  0  0  0  0  0  0  0  0  0  0
   51.0000    0.0000    0.0000 C   0  0  0  0  0  0  0  0  0  0  0  0
   49.5000    0.0000    0.0000 C   0  0  0  0  0  0  0  0  0  0  0  0
   48.0000    0.0000    0.0000 C   0  0  0  0  0  0  0  0  0  0  0  0
   46.5000    0.0000    0.0000 C   0  0  0  0  0  0  0  0  0  0  0  0
   45.0000    0.0000    0.0000 C   0  0  0  0  0  0  0  0  0  0  0  0
   43.5000    0.0000    0.0000 C   0  0  0  0  0  0  0  0  0  0  0  0
   42.0000    0.0000    0.0000 C   0  0  0  0  0  0  0  0  0  0  0  0
   40.5000    0.0000    0.0000 C   0  0  0  0  0  0  0  0  0  0  0  0
   39.0000    0.0000    0.0000 C   0  0  0  0  0  0  0  0  0  0  0  0
   37.5000    0.0000    0.0000 C   0  0  0  0  0  0  0  0  0  0  0  0
   36.0000    0.0000    0.0000 C   0  0  0  0  0  0  0  0  0  0  0  0
   34.5000    0.0000    0.0000 C   0  0  0  0  0  0  0  0  0  0  0  0
   33.0000    0.0000    0.0000 C   0  0  0  0  0  0  0  0  0  0  0  0
   31.5000    0.0000    0.0000 C   0  0  0  0  0  0  0  0  0  0  0  0
   30.0000    0.0000    0.0000 C   0  0  0  0  0  0  0  0  0  0  0  0
   28.5000    0.0000    0.0000 C   0  0  0  0  0  0  0  0  0  0  0  0
   27.0000    0.0000    0.0000 C   0  0  0  0  0  0  0  0  0  0  0  0
   25.5000    0.0000    0.0000 C   0  0  0  0  0  0  0  0  0  0  0  0
   24.0000    0.0000    0.0000 C   0  0  0  0  0  0  0  0  0  0  0  0
   22.5000    0.0000    0.0000 C   0  0  0  0  0  0  0  0  0  0  0  0
   21.0000    0.0000    0.0000 C   0  0  0  0  0  0  0  0  0  0  0  0
   19.5000    0.0000    0.0000 C   0  0  0  0  0  0  0  0  0  0  0  0
   18.0000    0.0000    0.0000 C   0  0  0  0  0  0  0  0  0  0  0  0
   16.5000    0.0000    0.0000 C   0  0  0  0  0  0  0  0  0  0  0  0
   15.0000    0.0000    0.0000 C   0  0  0  0  0  0  0  0  0  0  0  0
   13.5000    0.0000    0.0000 C   0  0  0  0  0  0  0  0  0  0  0  0
   12.0000    0.0000    0.0000 C   0  0  0  0  0  0  0  0  0  0  0  0
   10.5000    0.0000    0.0000 C   0  0  0  0  0  0  0  0  0  0  0  0
    9.0000    0.0000    0.0000 C   0  0  0  0  0  0  0  0  0  0  0  0
    7.5000    0.0000    0.0000 C   0  0  0  0  0  0  0  0  0  0  0  0
    6.0000    0.0000    0.0000 C   0  0  0  0  0  0  0  0  0  0  0  0
    4.5000    0.0000    0.0000 C   0  0  0  0  0  0  0  0  0  0  0  0
    3.0000    0.0000    0.0000 C   0  0  0  0  0  0  0  0  0  0  0  0
    1.5000    0.0000    0.0000 C   0  0  0  0  0  0  0  0  0  0  0  0
    0.7500   -1.2990    0.0000 C   0  0  0  0  0  0  0  0  0  0  0  0
   -0.7500   -1.2990    0.0000 C   0  0  0  0  0  0  0  0  0  0  0  0
   -1.5000    0.0000    0.0000 C   0  0  0  0  0  0  0  0  0  0  0  0
   -0.7500    1.2990    0.0000 C   0  0  0  0  0  0  0  0  0  0  0  0
    0.7500    1.2990    0.0000 C   0  0  0  0  0  0  0  0  0  0  0  0
  1  2  3  0
  2  3  1  0
  3  4  3  0
  4  5  1  0
  5  6  3  0
  6  7  1  0
  7  8  3  0
  8  9  1  0
  9 10  3  0
 10 11  1  0
 11 12  3  0
 12 13  1  0
 13 14  3  0
 14 15  1  0
 15 16  3  0
 16 17  1  0
 17 18  3  0
 18 19  1  0
 19 20  3  0
 20 21  1  0
 21 22  3  0
 22 23  1  0
 23 24  3  0
 24 25  1  0
 25 26  3  0
 26 27  1  0
 27 28  3  0
 28 29  1  0
 29 30  3  0
 30 31  1  0
 31 32  3  0
 32 33  1  0
 33 34  3  0
 34 35  1  0
 35 36  3  0
 36 37  1  0
 37 38  3  0
 38 39  1  0
 39 40  3  0
 40 41  1  0
 41 42  3  0
 42 43  1  0
 43 44  3  0
 44 45  1  0
 45 46  3  0
 46 47  1  0
 47 48  3  0
 48 49  1  0
 49 50  3  0
 50 51  1  0
 51 52  3  0
 52 53  1  0
 53 54  3  0
 54 55  1  0
 55 56  3  0
 56 57  1  0
 57 58  3  0
 58 59  1  0
 59 60  3  0
 60 61  1  0
 61 62  3  0
 62 63  1  0
 63 64  3  0
 64 65  1  0
 65 66  3  0
 66 67  1  0
 67 68  3  0
 68 69  1  0
 69 70  3  0
 70 71  1  0
 71 72  3  0
 72 73  1  0
 73 74  3  0
 74 75  1  0
 75 76  3  0
 76 77  1  0
 77 78  2  0
 78 79  1  0
 79 80  2  0
 80 81  1  0
 81 82  2  0
 82 77  1  0
M  END
>  <Title>  (430) 
idAAOPgen13

$$$$

     RDKit          2D

 99100  0  0  0  0  0  0  0  0999 V2000
   -2.0114    2.0319    0.0000 C   0  0  0  0  0  0  0  0  0  0  0  0
   -0.8634    2.9974    0.0000 C   0  0  0  0  0  0  0  0  0  0  0  0
   -2.0468    3.9191    0.0000 C   0  0  0  0  0  0  0  0  0  0  0  0
   -3.1639    4.9202    0.0000 C   0  0  0  0  0  0  0  0  0  0  0  0
   -4.2092    5.9960    0.0000 C   0  0  0  0  0  0  0  0  0  0  0  0
   -5.1777    7.1413    0.0000 C   0  0  0  0  0  0  0  0  0  0  0  0
   -6.0650    8.3508    0.0000 C   0  0  0  0  0  0  0  0  0  0  0  0
   -6.8667    9.6186    0.0000 C   0  0  0  0  0  0  0  0  0  0  0  0
   -7.5790   10.9387    0.0000 C   0  0  0  0  0  0  0  0  0  0  0  0
   -8.1986   12.3047    0.0000 C   0  0  0  0  0  0  0  0  0  0  0  0
   -8.7224   13.7103    0.0000 C   0  0  0  0  0  0  0  0  0  0  0  0
   -9.1480   15.1486    0.0000 C   0  0  0  0  0  0  0  0  0  0  0  0
   -9.4734   16.6129    0.0000 C   0  0  0  0  0  0  0  0  0  0  0  0
   -9.6969   18.0962    0.0000 C   0  0  0  0  0  0  0  0  0  0  0  0
   -9.8176   19.5913    0.0000 C   0  0  0  0  0  0  0  0  0  0  0  0
   -9.8349   21.0912    0.0000 C   0  0  0  0  0  0  0  0  0  0  0  0
   -9.7486   22.5887    0.0000 C   0  0  0  0  0  0  0  0  0  0  0  0
   -9.5593   24.0767    0.0000 C   0  0  0  0  0  0  0  0  0  0  0  0
   -9.2677   25.5481    0.0000 C   0  0  0  0  0  0  0  0  0  0  0  0
   -8.8753   26.9959    0.0000 C   0  0  0  0  0  0  0  0  0  0  0  0
   -8.3840   28.4131    0.0000 C   0  0  0  0  0  0  0  0  0  0  0  0
   -7.7960   29.7931    0.0000 C   0  0  0  0  0  0  0  0  0  0  0  0
   -7.1142   31.1292    0.0000 C   0  0  0  0  0  0  0  0  0  0  0  0
   -6.3419   32.4151    0.0000 C   0  0  0  0  0  0  0  0  0  0  0  0
   -5.4828   33.6447    0.0000 C   0  0  0  0  0  0  0  0  0  0  0  0
   -4.5408   34.8120    0.0000 C   0  0  0  0  0  0  0  0  0  0  0  0
   -3.5205   35.9116    0.0000 C   0  0  0  0  0  0  0  0  0  0  0  0
   -2.4268   36.9382    0.0000 C   0  0  0  0  0  0  0  0  0  0  0  0
   -1.2649   37.8868    0.0000 C   0  0  0  0  0  0  0  0  0  0  0  0
   -0.0403   38.7531    0.0000 C   0  0  0  0  0  0  0  0  0  0  0  0
    1.2411   39.5328    0.0000 C   0  0  0  0  0  0  0  0  0  0  0  0
    2.5733   40.2222    0.0000 C   0  0  0  0  0  0  0  0  0  0  0  0
    3.9498   40.8181    0.0000 C   0  0  0  0  0  0  0  0  0  0  0  0
    5.3642   41.3176    0.0000 C   0  0  0  0  0  0  0  0  0  0  0  0
    6.8097   41.7183    0.0000 C   0  0  0  0  0  0  0  0  0  0  0  0
    8.2794   42.0183    0.0000 C   0  0  0  0  0  0  0  0  0  0  0  0
    9.7663   42.2163    0.0000 C   0  0  0  0  0  0  0  0  0  0  0  0
   11.2633   42.3111    0.0000 C   0  0  0  0  0  0  0  0  0  0  0  0
   12.7633   42.3025    0.0000 C   0  0  0  0  0  0  0  0  0  0  0  0
   14.2591   42.1904    0.0000 C   0  0  0  0  0  0  0  0  0  0  0  0
   15.7436   41.9754    0.0000 C   0  0  0  0  0  0  0  0  0  0  0  0
   17.2097   41.6585    0.0000 C   0  0  0  0  0  0  0  0  0  0  0  0
   18.6505   41.2411    0.0000 C   0  0  0  0  0  0  0  0  0  0  0  0
   20.0590   40.7254    0.0000 C   0  0  0  0  0  0  0  0  0  0  0  0
   21.4286   40.1137    0.0000 C   0  0  0  0  0  0  0  0  0  0  0  0
   22.7528   39.4090    0.0000 C   0  0  0  0  0  0  0  0  0  0  0  0
   24.0252   38.6146    0.0000 C   0  0  0  0  0  0  0  0  0  0  0  0
   25.2397   37.7343    0.0000 C   0  0  0  0  0  0  0  0  0  0  0  0
   26.3906   36.7724    0.0000 C   0  0  0  0  0  0  0  0  0  0  0  0
   27.4724   35.7333    0.0000 C   0  0  0  0  0  0  0  0  0  0  0  0
   28.4800   34.6220    0.0000 C   0  0  0  0  0  0  0  0  0  0  0  0
   29.4084   33.4439    0.0000 C   0  0  0  0  0  0  0  0  0  0  0  0
   30.2534   32.2046    0.0000 C   0  0  0  0  0  0  0  0  0  0  0  0
   31.0109   30.9099    0.0000 C   0  0  0  0  0  0  0  0  0  0  0  0
   31.6772   29.5660    0.0000 C   0  0  0  0  0  0  0  0  0  0  0  0
   32.2492   28.1793    0.0000 C   0  0  0  0  0  0  0  0  0  0  0  0
   32.7242   26.7565    0.0000 C   0  0  0  0  0  0  0  0  0  0  0  0
   33.1000   25.3043    0.0000 C   0  0  0  0  0  0  0  0  0  0  0  0
   33.3746   23.8297    0.0000 C   0  0  0  0  0  0  0  0  0  0  0  0
   33.5468   22.3396    0.0000 C   0  0  0  0  0  0  0  0  0  0  0  0
   33.6158   20.8412    0.0000 C   0  0  0  0  0  0  0  0  0  0  0  0
   33.5813   19.3416    0.0000 C   0  0  0  0  0  0  0  0  0  0  0  0
   33.4434   17.8480    0.0000 C   0  0  0  0  0  0  0  0  0  0  0  0
   33.2028   16.3674    0.0000 C   0  0  0  0  0  0  0  0  0  0  0  0
   32.8606   14.9069    0.0000 C   0  0  0  0  0  0  0  0  0  0  0  0
   32.4185   13.4736    0.0000 C   0  0  0  0  0  0  0  0  0  0  0  0
   31.8785   12.0741    0.0000 C   0  0  0  0  0  0  0  0  0  0  0  0
   31.2433   10.7153    0.0000 C   0  0  0  0  0  0  0  0  0  0  0  0
   30.5158    9.4035    0.0000 C   0  0  0  0  0  0  0  0  0  0  0  0
   29.6996    8.1450    0.0000 C   0  0  0  0  0  0  0  0  0  0  0  0
   28.7985    6.9459    0.0000 C   0  0  0  0  0  0  0  0  0  0  0  0
   27.8168    5.8117    0.0000 C   0  0  0  0  0  0  0  0  0  0  0  0
   26.7592    4.7480    0.0000 C   0  0  0  0  0  0  0  0  0  0  0  0
   25.6307    3.7598    0.0000 C   0  0  0  0  0  0  0  0  0  0  0  0
   24.4367    2.8518    0.0000 C   0  0  0  0  0  0  0  0  0  0  0  0
   23.1830    2.0283    0.0000 C   0  0  0  0  0  0  0  0  0  0  0  0
   21.8754    1.2933    0.0000 C   0  0  0  0  0  0  0  0  0  0  0  0
   20.5202    0.6503    0.0000 C   0  0  0  0  0  0  0  0  0  0  0  0
   19.1239    0.1023    0.0000 C   0  0  0  0  0  0  0  0  0  0  0  0
   17.6931   -0.3481    0.0000 C   0  0  0  0  0  0  0  0  0  0  0  0
   16.2347   -0.6987    0.0000 C   0  0  0  0  0  0  0  0  0  0  0  0
   14.7555   -0.9478    0.0000 C   0  0  0  0  0  0  0  0  0  0  0  0
   13.2627   -1.0943    0.0000 C   0  0  0  0  0  0  0  0  0  0  0  0
   11.7633   -1.1374    0.0000 C   0  0  0  0  0  0  0  0  0  0  0  0
   10.2645   -1.0770    0.0000 C   0  0  0  0  0  0  0  0  0  0  0  0
    8.7735   -0.9134    0.0000 C   0  0  0  0  0  0  0  0  0  0  0  0
    7.2973   -0.6473    0.0000 C   0  0  0  0  0  0  0  0  0  0  0  0
    5.8429   -0.2799    0.0000 C   0  0  0  0  0  0  0  0  0  0  0  0
    4.4174    0.1869    0.0000 C   0  0  0  0  0  0  0  0  0  0  0  0
    3.0275    0.7509    0.0000 C   0  0  0  0  0  0  0  0  0  0  0  0
    1.6798    1.4095    0.0000 C   0  0  0  0  0  0  0  0  0  0  0  0
    2.1929    0.0000    0.0000 C   0  0  0  0  0  0  0  0  0  0  0  0
    1.6798   -1.4095    0.0000 C   0  0  0  0  0  0  0  0  0  0  0  0
    0.3808   -2.1595    0.0000 C   0  0  0  0  0  0  0  0  0  0  0  0
   -1.0964   -1.8991    0.0000 C   0  0  0  0  0  0  0  0  0  0  0  0
   -2.0606   -0.7500    0.0000 C   0  0  0  0  0  0  0  0  0  0  0  0
   -2.0606    0.7500    0.0000 C   0  0  0  0  0  0  0  0  0  0  0  0
   -1.0964    1.8991    0.0000 C   0  0  0  0  0  0  0  0  0  0  0  0
    0.3808    2.1595    0.0000 C   0  0  0  0  0  0  0  0  0  0  0  0
  1  2  1  0
  2  3  1  0
  3  4  1  0
  4  5  1  0
  5  6  1  0
  6  7  1  0
  7  8  1  0
  8  9  1  0
  9 10  1  0
 10 11  1  0
 11 12  1  0
 12 13  1  0
 13 14  1  0
 14 15  1  0
 15 16  1  0
 16 17  1  0
 17 18  1  0
 18 19  1  0
 19 20  1  0
 20 21  1  0
 21 22  1  0
 22 23  1  0
 23 24  1  0
 24 25  1  0
 25 26  1  0
 26 27  1  0
 27 28  1  0
 28 29  1  0
 29 30  1  0
 30 31  1  0
 31 32  1  0
 32 33  1  0
 33 34  1  0
 34 35  1  0
 35 36  1  0
 36 37  1  0
 37 38  1  0
 38 39  1  0
 39 40  1  0
 40 41  1  0
 41 42  1  0
 42 43  1  0
 43 44  1  0
 44 45  1  0
 45 46  1  0
 46 47  1  0
 47 48  1  0
 48 49  1  0
 49 50  1  0
 50 51  1  0
 51 52  1  0
 52 53  1  0
 53 54  1  0
 54 55  1  0
 55 56  1  0
 56 57  1  0
 57 58  1  0
 58 59  1  0
 59 60  1  0
 60 61  1  0
 61 62  1  0
 62 63  1  0
 63 64  1  0
 64 65  1  0
 65 66  1  0
 66 67  1  0
 67 68  1  0
 68 69  1  0
 69 70  1  0
 70 71  1  0
 71 72  1  0
 72 73  1  0
 73 74  1  0
 74 75  1  0
 75 76  1  0
 76 77  1  0
 77 78  1  0
 78 79  1  0
 79 80  1  0
 80 81  1  0
 81 82  1  0
 82 83  1  0
 83 84  1  0
 84 85  1  0
 85 86  1  0
 86 87  1  0
 87 88  1  0
 88 89  1  0
 89 90  1  0
 90 91  1  0
 91 92  1  0
 92 93  1  0
 93 94  1  0
 94 95  2  0
 95 96  1  0
 96 97  2  0
 97 98  1  0
 98 99  2  0
 99  2  1  0
 99 91  1  0
M  END
>  <Title>  (431) 
idAAOQgen13

$$$$

     RDKit          2D

 10  9  0  0  0  0  0  0  0  0999 V2000
    0.0000    0.0000    0.0000 C   0  0  0  0  0  0  0  0  0  0  0  0
   -0.0000   -1.5000    0.0000 C   0  0  0  0  0  0  0  0  0  0  0  0
   -0.0000   -3.0000    0.0000 C   0  0  0  0  0  0  0  0  0  0  0  0
   -0.0000   -4.5000    0.0000 C   0  0  0  0  0  0  0  0  0  0  0  0
   -0.0000   -6.0000    0.0000 C   0  0  0  0  0  0  0  0  0  0  0  0
   -0.0000   -7.5000    0.0000 C   0  0  0  0  0  0  0  0  0  0  0  0
   -0.0000   -9.0000    0.0000 C   0  0  0  0  0  0  0  0  0  0  0  0
   -0.0000  -10.5000    0.0000 C   0  0  0  0  0  0  0  0  0  0  0  0
   -0.0000  -12.0000    0.0000 C   0  0  0  0  0  0  0  0  0  0  0  0
   -0.0000  -13.5000    0.0000 C   0  0  0  0  0  0  0  0  0  0  0  0
  1  2  3  0
  2  3  1  0
  3  4  3  0
  4  5  1  0
  5  6  3  0
  6  7  1  0
  7  8  3  0
  8  9  1  0
  9 10  3  0
M  END
>  <Title>  (432) 
idAAORgen13

$$$$

     RDKit          2D

 89 91  0  0  0  0  0  0  0  0999 V2000
    7.1847   -7.7358    0.0000 C   0  0  0  0  0  0  0  0  0  0  0  0
    8.6517   -7.4229    0.0000 C   0  0  0  0  0  0  0  0  0  0  0  0
    9.0599   -8.8663    0.0000 C   0  0  0  0  0  0  0  0  0  0  0  0
    9.6529  -10.2441    0.0000 C   0  0  0  0  0  0  0  0  0  0  0  0
   10.4208  -11.5326    0.0000 C   0  0  0  0  0  0  0  0  0  0  0  0
   11.3502  -12.7100    0.0000 C   0  0  0  0  0  0  0  0  0  0  0  0
   12.4254  -13.7559    0.0000 C   0  0  0  0  0  0  0  0  0  0  0  0
   13.6279  -14.6526    0.0000 C   0  0  0  0  0  0  0  0  0  0  0  0
   14.9371  -15.3846    0.0000 C   0  0  0  0  0  0  0  0  0  0  0  0
   16.3307  -15.9395    0.0000 C   0  0  0  0  0  0  0  0  0  0  0  0
   17.7848  -16.3077    0.0000 C   0  0  0  0  0  0  0  0  0  0  0  0
   19.2746  -16.4830    0.0000 C   0  0  0  0  0  0  0  0  0  0  0  0
   20.7744  -16.4623    0.0000 C   0  0  0  0  0  0  0  0  0  0  0  0
   22.2588  -16.2461    0.0000 C   0  0  0  0  0  0  0  0  0  0  0  0
   23.7022  -15.8379    0.0000 C   0  0  0  0  0  0  0  0  0  0  0  0
   25.0799  -15.2449    0.0000 C   0  0  0  0  0  0  0  0  0  0  0  0
   26.3685  -14.4770    0.0000 C   0  0  0  0  0  0  0  0  0  0  0  0
   27.5459  -13.5476    0.0000 C   0  0  0  0  0  0  0  0  0  0  0  0
   28.5918  -12.4724    0.0000 C   0  0  0  0  0  0  0  0  0  0  0  0
   29.4885  -11.2699    0.0000 C   0  0  0  0  0  0  0  0  0  0  0  0
   30.2205   -9.9607    0.0000 C   0  0  0  0  0  0  0  0  0  0  0  0
   30.7754   -8.5671    0.0000 C   0  0  0  0  0  0  0  0  0  0  0  0
   31.1436   -7.1130    0.0000 C   0  0  0  0  0  0  0  0  0  0  0  0
   31.3189   -5.6232    0.0000 C   0  0  0  0  0  0  0  0  0  0  0  0
   31.2982   -4.1234    0.0000 C   0  0  0  0  0  0  0  0  0  0  0  0
   31.0819   -2.6390    0.0000 C   0  0  0  0  0  0  0  0  0  0  0  0
   30.6738   -1.1956    0.0000 C   0  0  0  0  0  0  0  0  0  0  0  0
   30.0807    0.1821    0.0000 C   0  0  0  0  0  0  0  0  0  0  0  0
   29.3129    1.4707    0.0000 C   0  0  0  0  0  0  0  0  0  0  0  0
   28.3834    2.6481    0.0000 C   0  0  0  0  0  0  0  0  0  0  0  0
   27.3083    3.6940    0.0000 C   0  0  0  0  0  0  0  0  0  0  0  0
   26.1058    4.5907    0.0000 C   0  0  0  0  0  0  0  0  0  0  0  0
   24.7965    5.3227    0.0000 C   0  0  0  0  0  0  0  0  0  0  0  0
   23.4029    5.8776    0.0000 C   0  0  0  0  0  0  0  0  0  0  0  0
   21.9488    6.2458    0.0000 C   0  0  0  0  0  0  0  0  0  0  0  0
   20.4591    6.4211    0.0000 C   0  0  0  0  0  0  0  0  0  0  0  0
   18.9592    6.4004    0.0000 C   0  0  0  0  0  0  0  0  0  0  0  0
   17.4749    6.1841    0.0000 C   0  0  0  0  0  0  0  0  0  0  0  0
   16.0315    5.7760    0.0000 C   0  0  0  0  0  0  0  0  0  0  0  0
   14.6537    5.1829    0.0000 C   0  0  0  0  0  0  0  0  0  0  0  0
   13.3652    4.4151    0.0000 C   0  0  0  0  0  0  0  0  0  0  0  0
   12.1878    3.4856    0.0000 C   0  0  0  0  0  0  0  0  0  0  0  0
   11.1419    2.4105    0.0000 C   0  0  0  0  0  0  0  0  0  0  0  0
   10.2452    1.2080    0.0000 C   0  0  0  0  0  0  0  0  0  0  0  0
    9.5132   -0.1013    0.0000 C   0  0  0  0  0  0  0  0  0  0  0  0
    8.9583   -1.4949    0.0000 C   0  0  0  0  0  0  0  0  0  0  0  0
    8.3822   -0.0000    0.0000 C   0  0  0  0  0  0  0  0  0  0  0  0
    8.2679    1.3797    0.0000 C   0  0  0  0  0  0  0  0  0  0  0  0
    7.9280    2.7217    0.0000 C   0  0  0  0  0  0  0  0  0  0  0  0
    7.3719    3.9895    0.0000 C   0  0  0  0  0  0  0  0  0  0  0  0
    6.6147    5.1484    0.0000 C   0  0  0  0  0  0  0  0  0  0  0  0
    5.6771    6.1670    0.0000 C   0  0  0  0  0  0  0  0  0  0  0  0
    4.5846    7.0173    0.0000 C   0  0  0  0  0  0  0  0  0  0  0  0
    3.3671    7.6762    0.0000 C   0  0  0  0  0  0  0  0  0  0  0  0
    2.0577    8.1257    0.0000 C   0  0  0  0  0  0  0  0  0  0  0  0
    0.6922    8.3535    0.0000 C   0  0  0  0  0  0  0  0  0  0  0  0
   -0.6922    8.3535    0.0000 C   0  0  0  0  0  0  0  0  0  0  0  0
   -2.0577    8.1257    0.0000 C   0  0  0  0  0  0  0  0  0  0  0  0
   -3.3671    7.6762    0.0000 C   0  0  0  0  0  0  0  0  0  0  0  0
   -4.5846    7.0173    0.0000 C   0  0  0  0  0  0  0  0  0  0  0  0
   -5.6771    6.1670    0.0000 C   0  0  0  0  0  0  0  0  0  0  0  0
   -6.6147    5.1484    0.0000 C   0  0  0  0  0  0  0  0  0  0  0  0
   -7.3719    3.9895    0.0000 C   0  0  0  0  0  0  0  0  0  0  0  0
   -7.9280    2.7217    0.0000 C   0  0  0  0  0  0  0  0  0  0  0  0
   -8.2679    1.3797    0.0000 C   0  0  0  0  0  0  0  0  0  0  0  0
   -8.3822    0.0000    0.0000 C   0  0  0  0  0  0  0  0  0  0  0  0
   -8.2679   -1.3797    0.0000 C   0  0  0  0  0  0  0  0  0  0  0  0
   -7.9280   -2.7217    0.0000 C   0  0  0  0  0  0  0  0  0  0  0  0
   -7.3719   -3.9895    0.0000 C   0  0  0  0  0  0  0  0  0  0  0  0
   -6.6147   -5.1484    0.0000 C   0  0  0  0  0  0  0  0  0  0  0  0
   -5.6771   -6.1670    0.0000 C   0  0  0  0  0  0  0  0  0  0  0  0
   -4.5846   -7.0173    0.0000 C   0  0  0  0  0  0  0  0  0  0  0  0
   -3.3671   -7.6762    0.0000 C   0  0  0  0  0  0  0  0  0  0  0  0
   -2.0577   -8.1257    0.0000 C   0  0  0  0  0  0  0  0  0  0  0  0
   -0.6922   -8.3535    0.0000 C   0  0  0  0  0  0  0  0  0  0  0  0
    0.6922   -8.3535    0.0000 C   0  0  0  0  0  0  0  0  0  0  0  0
    2.0577   -8.1257    0.0000 C   0  0  0  0  0  0  0  0  0  0  0  0
    3.3671   -7.6762    0.0000 C   0  0  0  0  0  0  0  0  0  0  0  0
    4.5846   -7.0173    0.0000 C   0  0  0  0  0  0  0  0  0  0  0  0
    5.6771   -6.1670    0.0000 C   0  0  0  0  0  0  0  0  0  0  0  0
    6.6147   -5.1484    0.0000 C   0  0  0  0  0  0  0  0  0  0  0  0
    7.3719   -3.9895    0.0000 C   0  0  0  0  0  0  0  0  0  0  0  0
    8.5901   -2.9490    0.0000 C   0  0  0  0  0  0  0  0  0  0  0  0
    8.4148   -4.4387    0.0000 C   0  0  0  0  0  0  0  0  0  0  0  0
    9.7034   -3.6709    0.0000 C   0  0  0  0  0  0  0  0  0  0  0  0
   11.0126   -4.4029    0.0000 C   0  0  0  0  0  0  0  0  0  0  0  0
   11.0333   -5.9028    0.0000 C   0  0  0  0  0  0  0  0  0  0  0  0
    9.7447   -6.6706    0.0000 C   0  0  0  0  0  0  0  0  0  0  0  0
    8.4355   -5.9386    0.0000 C   0  0  0  0  0  0  0  0  0  0  0  0
  1  2  1  0
  2  3  1  0
  3  4  1  0
  4  5  1  0
  5  6  1  0
  6  7  1  0
  7  8  1  0
  8  9  1  0
  9 10  1  0
 10 11  1  0
 11 12  1  0
 12 13  1  0
 13 14  1  0
 14 15  1  0
 15 16  1  0
 16 17  1  0
 17 18  1  0
 18 19  1  0
 19 20  1  0
 20 21  1  0
 21 22  1  0
 22 23  1  0
 23 24  1  0
 24 25  1  0
 25 26  1  0
 26 27  1  0
 27 28  1  0
 28 29  1  0
 29 30  1  0
 30 31  1  0
 31 32  1  0
 32 33  1  0
 33 34  1  0
 34 35  1  0
 35 36  1  0
 36 37  1  0
 37 38  1  0
 38 39  1  0
 39 40  1  0
 40 41  1  0
 41 42  1  0
 42 43  1  0
 43 44  1  0
 44 45  1  0
 45 46  1  0
 46 47  1  0
 47 48  1  0
 48 49  1  0
 49 50  1  0
 50 51  2  0
 51 52  1  0
 52 53  2  0
 53 54  1  0
 54 55  2  0
 55 56  1  0
 56 57  2  0
 57 58  1  0
 58 59  2  0
 59 60  1  0
 60 61  2  0
 61 62  1  0
 62 63  2  0
 63 64  1  0
 64 65  2  0
 65 66  1  0
 66 67  2  0
 67 68  1  0
 68 69  2  0
 69 70  1  0
 70 71  2  0
 71 72  1  0
 72 73  2  0
 73 74  1  0
 74 75  2  0
 75 76  1  0
 76 77  2  0
 77 78  1  0
 78 79  2  0
 79 80  1  0
 80 81  2  0
 81 82  1  0
 82 83  2  0
 83 84  1  0
 84 85  2  0
 85 86  1  0
 86 87  2  0
 87 88  1  0
 88 89  2  0
 89  2  1  0
 83 46  1  0
 89 84  1  0
M  END
>  <Title>  (433) 
idAAOSgen13

$$$$

     RDKit          2D

 19 18  0  0  0  0  0  0  0  0999 V2000
    0.0000    0.0000    0.0000 C   0  0  0  0  0  0  0  0  0  0  0  0
   -0.0000   -1.5000    0.0000 C   0  0  0  0  0  0  0  0  0  0  0  0
   -0.0000   -3.0000    0.0000 C   0  0  0  0  0  0  0  0  0  0  0  0
   -0.0000   -4.5000    0.0000 C   0  0  0  0  0  0  0  0  0  0  0  0
   -0.0000   -6.0000    0.0000 C   0  0  0  0  0  0  0  0  0  0  0  0
   -0.0000   -7.5000    0.0000 C   0  0  0  0  0  0  0  0  0  0  0  0
   -0.0000   -9.0000    0.0000 C   0  0  0  0  0  0  0  0  0  0  0  0
   -0.0000  -10.5000    0.0000 C   0  0  0  0  0  0  0  0  0  0  0  0
   -0.0000  -12.0000    0.0000 C   0  0  0  0  0  0  0  0  0  0  0  0
   -0.0000  -13.5000    0.0000 C   0  0  0  0  0  0  0  0  0  0  0  0
   -0.0000  -15.0000    0.0000 C   0  0  0  0  0  0  0  0  0  0  0  0
   -0.0000  -16.5000    0.0000 C   0  0  0  0  0  0  0  0  0  0  0  0
   -0.0000  -18.0000    0.0000 C   0  0  0  0  0  0  0  0  0  0  0  0
   -0.0000  -19.5000    0.0000 C   0  0  0  0  0  0  0  0  0  0  0  0
   -0.0000  -21.0000    0.0000 C   0  0  0  0  0  0  0  0  0  0  0  0
   -0.0000  -22.5000    0.0000 C   0  0  0  0  0  0  0  0  0  0  0  0
   -0.0000  -24.0000    0.0000 C   0  0  0  0  0  0  0  0  0  0  0  0
    1.2990  -24.7500    0.0000 C   0  0  0  0  0  0  0  0  0  0  0  0
    1.2990  -26.2500    0.0000 C   0  0  0  0  0  0  0  0  0  0  0  0
  1  2  3  0
  2  3  1  0
  3  4  3  0
  4  5  1  0
  5  6  3  0
  6  7  1  0
  7  8  3  0
  8  9  1  0
  9 10  3  0
 10 11  1  0
 11 12  3  0
 12 13  1  0
 13 14  3  0
 14 15  1  0
 15 16  3  0
 16 17  1  0
 17 18  1  0
 18 19  2  0
M  END
>  <Title>  (434) 
idAAOTgen13

$$$$

     RDKit          2D

  9  9  0  0  0  0  0  0  0  0999 V2000
    5.0260   -1.2990    0.0000 C   0  0  0  0  0  0  0  0  0  0  0  0
    3.5260   -1.2990    0.0000 N   0  0  0  0  0  0  0  0  0  0  0  0
    2.7760    0.0000    0.0000 C   0  0  0  0  0  0  0  0  0  0  0  0
    3.5260    1.2990    0.0000 O   0  0  0  0  0  0  0  0  0  0  0  0
    1.2760    0.0000    0.0000 C   0  0  0  0  0  0  0  0  0  0  0  0
    0.3943    1.2135    0.0000 C   0  0  0  0  0  0  0  0  0  0  0  0
   -1.0323    0.7500    0.0000 C   0  0  0  0  0  0  0  0  0  0  0  0
   -1.0323   -0.7500    0.0000 C   0  0  0  0  0  0  0  0  0  0  0  0
    0.3943   -1.2135    0.0000 C   0  0  0  0  0  0  0  0  0  0  0  0
  1  2  1  0
  2  3  1  0
  3  4  2  0
  3  5  1  0
  5  6  2  0
  6  7  1  0
  7  8  2  0
  8  9  1  0
  9  5  1  0
M  END
>  <Title>  (435) 
idAAOUgen13

$$$$

     RDKit          2D

 35 39  0  0  0  0  0  0  0  0999 V2000
   -3.0000   -2.5981    0.0000 C   0  0  0  0  0  0  0  0  0  0  0  0
   -1.5000   -2.5981    0.0000 C   0  0  0  0  0  0  0  0  0  0  0  0
   -0.7500   -3.8971    0.0000 C   0  0  0  0  0  0  0  0  0  0  0  0
    0.7500   -3.8971    0.0000 C   0  0  0  0  0  0  0  0  0  0  0  0
    1.5000   -2.5981    0.0000 C   0  0  0  0  0  0  0  0  0  0  0  0
    3.0000   -2.5981    0.0000 C   0  0  0  0  0  0  0  0  0  0  0  0
    3.7500   -1.2990    0.0000 O   0  0  0  0  0  0  0  0  0  0  0  0
    3.7500   -3.8971    0.0000 N   0  0  0  0  0  0  0  0  0  0  0  0
    5.2500   -3.8971    0.0000 C   0  0  0  0  0  0  0  0  0  0  0  0
    6.1317   -2.6836    0.0000 N   0  0  0  0  0  0  0  0  0  0  0  0
    7.5583   -3.1471    0.0000 N   0  0  0  0  0  0  0  0  0  0  0  0
    7.5583   -4.6471    0.0000 N   0  0  0  0  0  0  0  0  0  0  0  0
    6.1317   -5.1106    0.0000 N   0  0  0  0  0  0  0  0  0  0  0  0
    5.6682   -6.5372    0.0000 C   0  0  0  0  0  0  0  0  0  0  0  0
    6.5498   -7.7508    0.0000 C   0  0  0  0  0  0  0  0  0  0  0  0
    5.6682   -8.9643    0.0000 C   0  0  0  0  0  0  0  0  0  0  0  0
    4.2416   -8.5008    0.0000 C   0  0  0  0  0  0  0  0  0  0  0  0
    3.0280   -9.3824    0.0000 O   0  0  0  0  0  0  0  0  0  0  0  0
    1.6577   -8.7723    0.0000 C   0  0  0  0  0  0  0  0  0  0  0  0
    1.5009   -7.2805    0.0000 O   0  0  0  0  0  0  0  0  0  0  0  0
    0.4442   -9.6540    0.0000 N   0  0  0  0  0  0  0  0  0  0  0  0
   -0.9261   -9.0439    0.0000 C   0  0  0  0  0  0  0  0  0  0  0  0
   -1.0829   -7.5521    0.0000 N   0  0  0  0  0  0  0  0  0  0  0  0
   -2.4532   -6.9420    0.0000 N   0  0  0  0  0  0  0  0  0  0  0  0
   -3.6668   -7.8237    0.0000 N   0  0  0  0  0  0  0  0  0  0  0  0
   -3.5100   -9.3155    0.0000 N   0  0  0  0  0  0  0  0  0  0  0  0
   -2.1396   -9.9256    0.0000 N   0  0  0  0  0  0  0  0  0  0  0  0
    4.2416   -7.0008    0.0000 C   0  0  0  0  0  0  0  0  0  0  0  0
    3.0280   -6.1191    0.0000 O   0  0  0  0  0  0  0  0  0  0  0  0
    0.7500   -1.2990    0.0000 C   0  0  0  0  0  0  0  0  0  0  0  0
    1.5000    0.0000    0.0000 C   0  0  0  0  0  0  0  0  0  0  0  0
    0.7500    1.2990    0.0000 C   0  0  0  0  0  0  0  0  0  0  0  0
   -0.7500    1.2990    0.0000 C   0  0  0  0  0  0  0  0  0  0  0  0
   -1.5000    0.0000    0.0000 C   0  0  0  0  0  0  0  0  0  0  0  0
   -0.7500   -1.2990    0.0000 C   0  0  0  0  0  0  0  0  0  0  0  0
  1  2  1  0
  2  3  1  0
  3  4  2  0
  4  5  1  0
  5  6  1  0
  6  7  2  0
  6  8  1  0
  8  9  1  0
  9 10  2  0
 10 11  1  0
 11 12  2  0
 12 13  1  0
 13 14  1  0
 14 15  2  0
 15 16  1  0
 16 17  2  0
 17 18  1  0
 18 19  1  0
 19 20  2  0
 19 21  1  0
 21 22  1  0
 22 23  2  0
 23 24  1  0
 24 25  2  0
 25 26  1  0
 26 27  2  0
 17 28  1  0
 28 29  2  0
  5 30  1  0
 30 31  2  0
 31 32  1  0
 32 33  2  0
 33 34  1  0
 34 35  2  0
 35  2  1  0
 13  9  1  0
 28 14  1  0
 35 30  1  0
 27 22  1  0
M  END
>  <Title>  (436) 
idAAOVgen13

$$$$

     RDKit          2D

 27 26  0  0  0  0  0  0  0  0999 V2000
    0.0000    0.0000    0.0000 C   0  0  0  0  0  0  0  0  0  0  0  0
   -0.0000   -1.5000    0.0000 C   0  0  0  0  0  0  0  0  0  0  0  0
   -0.0000   -3.0000    0.0000 C   0  0  0  0  0  0  0  0  0  0  0  0
   -0.0000   -4.5000    0.0000 C   0  0  0  0  0  0  0  0  0  0  0  0
   -0.0000   -6.0000    0.0000 C   0  0  0  0  0  0  0  0  0  0  0  0
   -0.0000   -7.5000    0.0000 C   0  0  0  0  0  0  0  0  0  0  0  0
   -0.0000   -9.0000    0.0000 C   0  0  0  0  0  0  0  0  0  0  0  0
   -0.0000  -10.5000    0.0000 C   0  0  0  0  0  0  0  0  0  0  0  0
   -0.0000  -12.0000    0.0000 C   0  0  0  0  0  0  0  0  0  0  0  0
   -0.0000  -13.5000    0.0000 C   0  0  0  0  0  0  0  0  0  0  0  0
   -0.0000  -15.0000    0.0000 C   0  0  0  0  0  0  0  0  0  0  0  0
   -0.0000  -16.5000    0.0000 C   0  0  0  0  0  0  0  0  0  0  0  0
   -0.0000  -18.0000    0.0000 C   0  0  0  0  0  0  0  0  0  0  0  0
   -0.0000  -19.5000    0.0000 C   0  0  0  0  0  0  0  0  0  0  0  0
   -0.0000  -21.0000    0.0000 C   0  0  0  0  0  0  0  0  0  0  0  0
   -0.0000  -22.5000    0.0000 C   0  0  0  0  0  0  0  0  0  0  0  0
   -0.0000  -24.0000    0.0000 C   0  0  0  0  0  0  0  0  0  0  0  0
   -0.0000  -25.5000    0.0000 C   0  0  0  0  0  0  0  0  0  0  0  0
   -0.0000  -27.0000    0.0000 C   0  0  0  0  0  0  0  0  0  0  0  0
   -0.0000  -28.5000    0.0000 C   0  0  0  0  0  0  0  0  0  0  0  0
   -0.0000  -30.0000    0.0000 C   0  0  0  0  0  0  0  0  0  0  0  0
   -0.0000  -31.5000    0.0000 C   0  0  0  0  0  0  0  0  0  0  0  0
   -0.0000  -33.0000    0.0000 C   0  0  0  0  0  0  0  0  0  0  0  0
   -0.0000  -34.5000    0.0000 C   0  0  0  0  0  0  0  0  0  0  0  0
   -0.0000  -36.0000    0.0000 C   0  0  0  0  0  0  0  0  0  0  0  0
   -0.0000  -37.5000    0.0000 C   0  0  0  0  0  0  0  0  0  0  0  0
   -0.0000  -39.0000    0.0000 C   0  0  0  0  0  0  0  0  0  0  0  0
  1  2  3  0
  2  3  1  0
  3  4  3  0
  4  5  1  0
  5  6  3  0
  6  7  1  0
  7  8  3  0
  8  9  1  0
  9 10  3  0
 10 11  1  0
 11 12  3  0
 12 13  1  0
 13 14  3  0
 14 15  1  0
 15 16  3  0
 16 17  1  0
 17 18  3  0
 18 19  1  0
 19 20  3  0
 20 21  1  0
 21 22  3  0
 22 23  1  0
 23 24  3  0
 24 25  1  0
 25 26  3  0
 26 27  1  0
M  END
>  <Title>  (437) 
idAAOWgen13

$$$$

     RDKit          2D

 37 41  0  0  0  0  0  0  0  0999 V2000
   -3.1981   -1.5132    0.0000 C   0  0  0  0  0  0  0  0  0  0  0  0
   -1.8991   -2.2632    0.0000 C   0  0  0  0  0  0  0  0  0  0  0  0
   -2.1595   -3.7404    0.0000 C   0  0  0  0  0  0  0  0  0  0  0  0
   -1.4095   -5.0395    0.0000 C   0  0  0  0  0  0  0  0  0  0  0  0
   -0.0000   -5.5525    0.0000 C   0  0  0  0  0  0  0  0  0  0  0  0
    1.4095   -5.0395    0.0000 C   0  0  0  0  0  0  0  0  0  0  0  0
    2.1595   -3.7404    0.0000 C   0  0  0  0  0  0  0  0  0  0  0  0
    1.8991   -2.2632    0.0000 C   0  0  0  0  0  0  0  0  0  0  0  0
    3.1981   -1.5132    0.0000 C   0  0  0  0  0  0  0  0  0  0  0  0
    3.1981   -0.0132    0.0000 O   0  0  0  0  0  0  0  0  0  0  0  0
    4.4971   -2.2632    0.0000 N   0  0  0  0  0  0  0  0  0  0  0  0
    5.7962   -1.5132    0.0000 C   0  0  0  0  0  0  0  0  0  0  0  0
    5.9530   -0.0214    0.0000 N   0  0  0  0  0  0  0  0  0  0  0  0
    7.4202    0.2904    0.0000 N   0  0  0  0  0  0  0  0  0  0  0  0
    8.1702   -1.0086    0.0000 N   0  0  0  0  0  0  0  0  0  0  0  0
    7.1665   -2.1233    0.0000 N   0  0  0  0  0  0  0  0  0  0  0  0
    7.4784   -3.5905    0.0000 N   0  0  0  0  0  0  0  0  0  0  0  0
    8.8487   -4.2007    0.0000 C   0  0  0  0  0  0  0  0  0  0  0  0
    8.6919   -5.6924    0.0000 C   0  0  0  0  0  0  0  0  0  0  0  0
    7.2247   -6.0043    0.0000 N   0  0  0  0  0  0  0  0  0  0  0  0
    6.6146   -7.3746    0.0000 C   0  0  0  0  0  0  0  0  0  0  0  0
    7.4962   -8.5881    0.0000 O   0  0  0  0  0  0  0  0  0  0  0  0
    5.1228   -7.5314    0.0000 N   0  0  0  0  0  0  0  0  0  0  0  0
    4.5127   -8.9017    0.0000 C   0  0  0  0  0  0  0  0  0  0  0  0
    3.0209   -9.0585    0.0000 N   0  0  0  0  0  0  0  0  0  0  0  0
    2.4108  -10.4288    0.0000 N   0  0  0  0  0  0  0  0  0  0  0  0
    3.2925  -11.6424    0.0000 N   0  0  0  0  0  0  0  0  0  0  0  0
    4.7843  -11.4856    0.0000 N   0  0  0  0  0  0  0  0  0  0  0  0
    5.3944  -10.1153    0.0000 N   0  0  0  0  0  0  0  0  0  0  0  0
    6.4747   -4.7053    0.0000 C   0  0  0  0  0  0  0  0  0  0  0  0
    4.9829   -4.5485    0.0000 O   0  0  0  0  0  0  0  0  0  0  0  0
    0.7500   -1.2990    0.0000 C   0  0  0  0  0  0  0  0  0  0  0  0
    1.5000    0.0000    0.0000 C   0  0  0  0  0  0  0  0  0  0  0  0
    0.7500    1.2990    0.0000 C   0  0  0  0  0  0  0  0  0  0  0  0
   -0.7500    1.2990    0.0000 C   0  0  0  0  0  0  0  0  0  0  0  0
   -1.5000    0.0000    0.0000 C   0  0  0  0  0  0  0  0  0  0  0  0
   -0.7500   -1.2990    0.0000 C   0  0  0  0  0  0  0  0  0  0  0  0
  1  2  1  0
  2  3  2  0
  3  4  1  0
  4  5  1  0
  5  6  2  0
  6  7  1  0
  7  8  1  0
  8  9  1  0
  9 10  2  0
  9 11  1  0
 11 12  1  0
 12 13  2  0
 13 14  1  0
 14 15  2  0
 15 16  1  0
 16 17  1  0
 17 18  1  0
 18 19  1  0
 19 20  1  0
 20 21  1  0
 21 22  2  0
 21 23  1  0
 23 24  1  0
 24 25  2  0
 25 26  1  0
 26 27  2  0
 27 28  1  0
 28 29  2  0
 20 30  1  0
 30 31  2  0
  8 32  1  0
 32 33  2  0
 33 34  1  0
 34 35  2  0
 35 36  1  0
 36 37  2  0
 37  2  1  0
 16 12  1  0
 30 17  1  0
 37 32  1  0
 29 24  1  0
M  END
>  <Title>  (438) 
idAAOXgen13

$$$$

     RDKit          2D

 12 13  0  0  0  0  0  0  0  0999 V2000
   -3.8230    3.5974    0.0000 C   0  0  0  0  0  0  0  0  0  0  0  0
   -2.4186    3.0703    0.0000 C   0  0  0  0  0  0  0  0  0  0  0  0
   -1.3344    4.1069    0.0000 C   0  0  0  0  0  0  0  0  0  0  0  0
    0.1520    3.9056    0.0000 C   0  0  0  0  0  0  0  0  0  0  0  0
    0.9214    2.6179    0.0000 C   0  0  0  0  0  0  0  0  0  0  0  0
    0.3943    1.2135    0.0000 C   0  0  0  0  0  0  0  0  0  0  0  0
    1.2760    0.0000    0.0000 N   0  0  0  0  0  0  0  0  0  0  0  0
    0.3943   -1.2135    0.0000 N   0  0  0  0  0  0  0  0  0  0  0  0
   -1.0323   -0.7500    0.0000 N   0  0  0  0  0  0  0  0  0  0  0  0
   -1.0323    0.7500    0.0000 N   0  0  0  0  0  0  0  0  0  0  0  0
   -2.2841    1.5763    0.0000 C   0  0  0  0  0  0  0  0  0  0  0  0
   -3.5718    0.8070    0.0000 O   0  0  0  0  0  0  0  0  0  0  0  0
  1  2  1  0
  2  3  1  0
  3  4  1  0
  4  5  1  0
  5  6  1  0
  6  7  2  0
  7  8  1  0
  8  9  2  0
  9 10  1  0
 10 11  1  0
 11 12  2  0
 11  2  1  0
 10  6  1  0
M  END
>  <Title>  (439) 
idAAOYgen13

$$$$

     RDKit          2D

 99100  0  0  0  0  0  0  0  0999 V2000
   -2.1664   -1.0837    0.0000 C   0  0  0  0  0  0  0  0  0  0  0  0
   -2.4864    0.3818    0.0000 C   0  0  0  0  0  0  0  0  0  0  0  0
   -3.9616    0.1105    0.0000 C   0  0  0  0  0  0  0  0  0  0  0  0
   -5.4516   -0.0628    0.0000 C   0  0  0  0  0  0  0  0  0  0  0  0
   -6.9498   -0.1372    0.0000 C   0  0  0  0  0  0  0  0  0  0  0  0
   -8.4496   -0.1124    0.0000 C   0  0  0  0  0  0  0  0  0  0  0  0
   -9.9444    0.0115    0.0000 C   0  0  0  0  0  0  0  0  0  0  0  0
  -11.4279    0.2339    0.0000 C   0  0  0  0  0  0  0  0  0  0  0  0
  -12.8933    0.5539    0.0000 C   0  0  0  0  0  0  0  0  0  0  0  0
  -14.3345    0.9700    0.0000 C   0  0  0  0  0  0  0  0  0  0  0  0
  -15.7449    1.4804    0.0000 C   0  0  0  0  0  0  0  0  0  0  0  0
  -17.1186    2.0830    0.0000 C   0  0  0  0  0  0  0  0  0  0  0  0
  -18.4494    2.7750    0.0000 C   0  0  0  0  0  0  0  0  0  0  0  0
  -19.7316    3.5534    0.0000 C   0  0  0  0  0  0  0  0  0  0  0  0
  -20.9596    4.4149    0.0000 C   0  0  0  0  0  0  0  0  0  0  0  0
  -22.1279    5.3557    0.0000 C   0  0  0  0  0  0  0  0  0  0  0  0
  -23.2315    6.3716    0.0000 C   0  0  0  0  0  0  0  0  0  0  0  0
  -24.2655    7.4582    0.0000 C   0  0  0  0  0  0  0  0  0  0  0  0
  -25.2255    8.6108    0.0000 C   0  0  0  0  0  0  0  0  0  0  0  0
  -26.1071    9.8244    0.0000 C   0  0  0  0  0  0  0  0  0  0  0  0
  -26.9067   11.0935    0.0000 C   0  0  0  0  0  0  0  0  0  0  0  0
  -27.6206   12.4127    0.0000 C   0  0  0  0  0  0  0  0  0  0  0  0
  -28.2458   13.7762    0.0000 C   0  0  0  0  0  0  0  0  0  0  0  0
  -28.7795   15.1781    0.0000 C   0  0  0  0  0  0  0  0  0  0  0  0
  -29.2193   16.6121    0.0000 C   0  0  0  0  0  0  0  0  0  0  0  0
  -29.5635   18.0721    0.0000 C   0  0  0  0  0  0  0  0  0  0  0  0
  -29.8104   19.5517    0.0000 C   0  0  0  0  0  0  0  0  0  0  0  0
  -29.9589   21.0443    0.0000 C   0  0  0  0  0  0  0  0  0  0  0  0
  -30.0085   22.5435    0.0000 C   0  0  0  0  0  0  0  0  0  0  0  0
  -29.9589   24.0426    0.0000 C   0  0  0  0  0  0  0  0  0  0  0  0
  -29.8104   25.5353    0.0000 C   0  0  0  0  0  0  0  0  0  0  0  0
  -29.5635   27.0148    0.0000 C   0  0  0  0  0  0  0  0  0  0  0  0
  -29.2193   28.4748    0.0000 C   0  0  0  0  0  0  0  0  0  0  0  0
  -28.7795   29.9089    0.0000 C   0  0  0  0  0  0  0  0  0  0  0  0
  -28.2458   31.3107    0.0000 C   0  0  0  0  0  0  0  0  0  0  0  0
  -27.6206   32.6742    0.0000 C   0  0  0  0  0  0  0  0  0  0  0  0
  -26.9067   33.9934    0.0000 C   0  0  0  0  0  0  0  0  0  0  0  0
  -26.1071   35.2626    0.0000 C   0  0  0  0  0  0  0  0  0  0  0  0
  -25.2255   36.4761    0.0000 C   0  0  0  0  0  0  0  0  0  0  0  0
  -24.2655   37.6287    0.0000 C   0  0  0  0  0  0  0  0  0  0  0  0
  -23.2315   38.7153    0.0000 C   0  0  0  0  0  0  0  0  0  0  0  0
  -22.1279   39.7312    0.0000 C   0  0  0  0  0  0  0  0  0  0  0  0
  -20.9596   40.6720    0.0000 C   0  0  0  0  0  0  0  0  0  0  0  0
  -19.7316   41.5335    0.0000 C   0  0  0  0  0  0  0  0  0  0  0  0
  -18.4494   42.3120    0.0000 C   0  0  0  0  0  0  0  0  0  0  0  0
  -17.1186   43.0040    0.0000 C   0  0  0  0  0  0  0  0  0  0  0  0
  -15.7449   43.6065    0.0000 C   0  0  0  0  0  0  0  0  0  0  0  0
  -14.3345   44.1170    0.0000 C   0  0  0  0  0  0  0  0  0  0  0  0
  -12.8933   44.5331    0.0000 C   0  0  0  0  0  0  0  0  0  0  0  0
  -11.4279   44.8530    0.0000 C   0  0  0  0  0  0  0  0  0  0  0  0
   -9.9444   45.0754    0.0000 C   0  0  0  0  0  0  0  0  0  0  0  0
   -8.4496   45.1993    0.0000 C   0  0  0  0  0  0  0  0  0  0  0  0
   -6.9498   45.2241    0.0000 C   0  0  0  0  0  0  0  0  0  0  0  0
   -5.4516   45.1497    0.0000 C   0  0  0  0  0  0  0  0  0  0  0  0
   -3.9616   44.9765    0.0000 C   0  0  0  0  0  0  0  0  0  0  0  0
   -2.4864   44.7052    0.0000 C   0  0  0  0  0  0  0  0  0  0  0  0
   -1.0323   44.3369    0.0000 C   0  0  0  0  0  0  0  0  0  0  0  0
    0.3943   43.8734    0.0000 C   0  0  0  0  0  0  0  0  0  0  0  0
    1.7871   43.3166    0.0000 C   0  0  0  0  0  0  0  0  0  0  0  0
    3.1401   42.6690    0.0000 C   0  0  0  0  0  0  0  0  0  0  0  0
    4.4473   41.9333    0.0000 C   0  0  0  0  0  0  0  0  0  0  0  0
    5.7031   41.1129    0.0000 C   0  0  0  0  0  0  0  0  0  0  0  0
    6.9019   40.2113    0.0000 C   0  0  0  0  0  0  0  0  0  0  0  0
    8.0384   39.2324    0.0000 C   0  0  0  0  0  0  0  0  0  0  0  0
    9.1078   38.1806    0.0000 C   0  0  0  0  0  0  0  0  0  0  0  0
   10.1054   37.0603    0.0000 C   0  0  0  0  0  0  0  0  0  0  0  0
   11.0267   35.8766    0.0000 C   0  0  0  0  0  0  0  0  0  0  0  0
   11.8678   34.6346    0.0000 C   0  0  0  0  0  0  0  0  0  0  0  0
   12.6249   33.3397    0.0000 C   0  0  0  0  0  0  0  0  0  0  0  0
   13.2948   31.9976    0.0000 C   0  0  0  0  0  0  0  0  0  0  0  0
   13.8746   30.6142    0.0000 C   0  0  0  0  0  0  0  0  0  0  0  0
   14.3616   29.1955    0.0000 C   0  0  0  0  0  0  0  0  0  0  0  0
   14.7538   27.7476    0.0000 C   0  0  0  0  0  0  0  0  0  0  0  0
   15.0495   26.2771    0.0000 C   0  0  0  0  0  0  0  0  0  0  0  0
   15.2474   24.7902    0.0000 C   0  0  0  0  0  0  0  0  0  0  0  0
   15.3465   23.2935    0.0000 C   0  0  0  0  0  0  0  0  0  0  0  0
   15.3465   21.7935    0.0000 C   0  0  0  0  0  0  0  0  0  0  0  0
   15.2474   20.2967    0.0000 C   0  0  0  0  0  0  0  0  0  0  0  0
   15.0495   18.8098    0.0000 C   0  0  0  0  0  0  0  0  0  0  0  0
   14.7538   17.3393    0.0000 C   0  0  0  0  0  0  0  0  0  0  0  0
   14.3616   15.8915    0.0000 C   0  0  0  0  0  0  0  0  0  0  0  0
   13.8746   14.4727    0.0000 C   0  0  0  0  0  0  0  0  0  0  0  0
   13.2948   13.0893    0.0000 C   0  0  0  0  0  0  0  0  0  0  0  0
   12.6249   11.7472    0.0000 C   0  0  0  0  0  0  0  0  0  0  0  0
   11.8678   10.4523    0.0000 C   0  0  0  0  0  0  0  0  0  0  0  0
   11.0267    9.2103    0.0000 C   0  0  0  0  0  0  0  0  0  0  0  0
   10.1054    8.0266    0.0000 C   0  0  0  0  0  0  0  0  0  0  0  0
    9.1078    6.9064    0.0000 C   0  0  0  0  0  0  0  0  0  0  0  0
    8.0384    5.8545    0.0000 C   0  0  0  0  0  0  0  0  0  0  0  0
    6.9019    4.8756    0.0000 C   0  0  0  0  0  0  0  0  0  0  0  0
    5.7031    3.9740    0.0000 C   0  0  0  0  0  0  0  0  0  0  0  0
    4.4473    3.1536    0.0000 C   0  0  0  0  0  0  0  0  0  0  0  0
    3.1401    2.4180    0.0000 C   0  0  0  0  0  0  0  0  0  0  0  0
    1.7871    1.7703    0.0000 C   0  0  0  0  0  0  0  0  0  0  0  0
    0.3943    1.2135    0.0000 C   0  0  0  0  0  0  0  0  0  0  0  0
    1.2760    0.0000    0.0000 C   0  0  0  0  0  0  0  0  0  0  0  0
    0.3943   -1.2135    0.0000 C   0  0  0  0  0  0  0  0  0  0  0  0
   -1.0323   -0.7500    0.0000 C   0  0  0  0  0  0  0  0  0  0  0  0
   -1.0323    0.7500    0.0000 C   0  0  0  0  0  0  0  0  0  0  0  0
  1  2  1  0
  2  3  1  0
  3  4  1  0
  4  5  1  0
  5  6  1  0
  6  7  1  0
  7  8  1  0
  8  9  1  0
  9 10  1  0
 10 11  1  0
 11 12  1  0
 12 13  1  0
 13 14  1  0
 14 15  1  0
 15 16  1  0
 16 17  1  0
 17 18  1  0
 18 19  1  0
 19 20  1  0
 20 21  1  0
 21 22  1  0
 22 23  1  0
 23 24  1  0
 24 25  1  0
 25 26  1  0
 26 27  1  0
 27 28  1  0
 28 29  1  0
 29 30  1  0
 30 31  1  0
 31 32  1  0
 32 33  1  0
 33 34  1  0
 34 35  1  0
 35 36  1  0
 36 37  1  0
 37 38  1  0
 38 39  1  0
 39 40  1  0
 40 41  1  0
 41 42  1  0
 42 43  1  0
 43 44  1  0
 44 45  1  0
 45 46  1  0
 46 47  1  0
 47 48  1  0
 48 49  1  0
 49 50  1  0
 50 51  1  0
 51 52  1  0
 52 53  1  0
 53 54  1  0
 54 55  1  0
 55 56  1  0
 56 57  1  0
 57 58  1  0
 58 59  1  0
 59 60  1  0
 60 61  1  0
 61 62  1  0
 62 63  1  0
 63 64  1  0
 64 65  1  0
 65 66  1  0
 66 67  2  0
 67 68  1  0
 68 69  2  0
 69 70  1  0
 70 71  2  0
 71 72  1  0
 72 73  2  0
 73 74  1  0
 74 75  2  0
 75 76  1  0
 76 77  2  0
 77 78  1  0
 78 79  2  0
 79 80  1  0
 80 81  2  0
 81 82  1  0
 82 83  2  0
 83 84  1  0
 84 85  2  0
 85 86  1  0
 86 87  2  0
 87 88  1  0
 88 89  2  0
 89 90  1  0
 90 91  2  0
 91 92  1  0
 92 93  2  0
 93 94  1  0
 94 95  2  0
 95 96  1  0
 96 97  2  0
 97 98  1  0
 98 99  2  0
 99  2  1  0
 99 95  1  0
M  END
>  <Title>  (440) 
idAAOZgen13

$$$$

     RDKit          2D

 13 12  0  0  0  0  0  0  0  0999 V2000
    0.0000    0.0000    0.0000 C   0  0  0  0  0  0  0  0  0  0  0  0
    1.2990    0.7500    0.0000 C   0  0  0  0  0  0  0  0  0  0  0  0
    2.5981   -0.0000    0.0000 C   0  0  0  0  0  0  0  0  0  0  0  0
    3.8971    0.7500    0.0000 C   0  0  0  0  0  0  0  0  0  0  0  0
    5.1962   -0.0000    0.0000 C   0  0  0  0  0  0  0  0  0  0  0  0
    6.4952    0.7500    0.0000 C   0  0  0  0  0  0  0  0  0  0  0  0
    7.7942   -0.0000    0.0000 C   0  0  0  0  0  0  0  0  0  0  0  0
    9.0933    0.7500    0.0000 N   0  0  0  0  0  0  0  0  0  0  0  0
   10.3923   -0.0000    0.0000 C   0  0  0  0  0  0  0  0  0  0  0  0
   10.3923   -1.5000    0.0000 O   0  0  0  0  0  0  0  0  0  0  0  0
   11.6913    0.7500    0.0000 C   0  0  0  0  0  0  0  0  0  0  0  0
   12.9904   -0.0000    0.0000 C   0  0  0  0  0  0  0  0  0  0  0  0
   14.2894    0.7500    0.0000 C   0  0  0  0  0  0  0  0  0  0  0  0
  1  2  1  0
  2  3  1  0
  3  4  2  3
  4  5  1  0
  5  6  1  0
  6  7  2  3
  7  8  1  0
  8  9  1  0
  9 10  2  0
  9 11  1  0
 11 12  1  0
 12 13  1  0
M  END
>  <Title>  (441) 
idAAPAgen13

$$$$

     RDKit          2D

 64 65  0  0  0  0  0  0  0  0999 V2000
   -2.2649   -1.0434    0.0000 C   0  0  0  0  0  0  0  0  0  0  0  0
   -2.4995    0.4381    0.0000 C   0  0  0  0  0  0  0  0  0  0  0  0
   -3.9913    0.2813    0.0000 C   0  0  0  0  0  0  0  0  0  0  0  0
   -5.4913    0.2813    0.0000 C   0  0  0  0  0  0  0  0  0  0  0  0
   -6.9831    0.4381    0.0000 C   0  0  0  0  0  0  0  0  0  0  0  0
   -8.4503    0.7500    0.0000 C   0  0  0  0  0  0  0  0  0  0  0  0
   -9.8769    1.2135    0.0000 C   0  0  0  0  0  0  0  0  0  0  0  0
  -11.2472    1.8236    0.0000 C   0  0  0  0  0  0  0  0  0  0  0  0
  -12.5462    2.5736    0.0000 C   0  0  0  0  0  0  0  0  0  0  0  0
  -13.7598    3.4553    0.0000 C   0  0  0  0  0  0  0  0  0  0  0  0
  -14.8745    4.4590    0.0000 C   0  0  0  0  0  0  0  0  0  0  0  0
  -15.8782    5.5737    0.0000 C   0  0  0  0  0  0  0  0  0  0  0  0
  -16.7599    6.7872    0.0000 C   0  0  0  0  0  0  0  0  0  0  0  0
  -17.5099    8.0863    0.0000 C   0  0  0  0  0  0  0  0  0  0  0  0
  -18.1200    9.4566    0.0000 C   0  0  0  0  0  0  0  0  0  0  0  0
  -18.5835   10.8832    0.0000 C   0  0  0  0  0  0  0  0  0  0  0  0
  -18.8954   12.3504    0.0000 C   0  0  0  0  0  0  0  0  0  0  0  0
  -19.0521   13.8422    0.0000 C   0  0  0  0  0  0  0  0  0  0  0  0
  -19.0521   15.3422    0.0000 C   0  0  0  0  0  0  0  0  0  0  0  0
  -18.8954   16.8340    0.0000 C   0  0  0  0  0  0  0  0  0  0  0  0
  -18.5835   18.3012    0.0000 C   0  0  0  0  0  0  0  0  0  0  0  0
  -18.1200   19.7278    0.0000 C   0  0  0  0  0  0  0  0  0  0  0  0
  -17.5099   21.0981    0.0000 C   0  0  0  0  0  0  0  0  0  0  0  0
  -16.7599   22.3971    0.0000 C   0  0  0  0  0  0  0  0  0  0  0  0
  -15.8782   23.6107    0.0000 C   0  0  0  0  0  0  0  0  0  0  0  0
  -14.8745   24.7254    0.0000 C   0  0  0  0  0  0  0  0  0  0  0  0
  -13.7598   25.7291    0.0000 C   0  0  0  0  0  0  0  0  0  0  0  0
  -12.5462   26.6108    0.0000 C   0  0  0  0  0  0  0  0  0  0  0  0
  -11.2472   27.3608    0.0000 C   0  0  0  0  0  0  0  0  0  0  0  0
   -9.8769   27.9709    0.0000 C   0  0  0  0  0  0  0  0  0  0  0  0
   -8.4503   28.4344    0.0000 C   0  0  0  0  0  0  0  0  0  0  0  0
   -6.9831   28.7463    0.0000 C   0  0  0  0  0  0  0  0  0  0  0  0
   -5.4913   28.9030    0.0000 C   0  0  0  0  0  0  0  0  0  0  0  0
   -3.9913   28.9030    0.0000 C   0  0  0  0  0  0  0  0  0  0  0  0
   -2.4995   28.7463    0.0000 C   0  0  0  0  0  0  0  0  0  0  0  0
   -1.0323   28.4344    0.0000 C   0  0  0  0  0  0  0  0  0  0  0  0
    0.3943   27.9709    0.0000 C   0  0  0  0  0  0  0  0  0  0  0  0
    1.7646   27.3608    0.0000 C   0  0  0  0  0  0  0  0  0  0  0  0
    3.0637   26.6108    0.0000 C   0  0  0  0  0  0  0  0  0  0  0  0
    4.2772   25.7291    0.0000 C   0  0  0  0  0  0  0  0  0  0  0  0
    5.3919   24.7254    0.0000 C   0  0  0  0  0  0  0  0  0  0  0  0
    6.3956   23.6107    0.0000 C   0  0  0  0  0  0  0  0  0  0  0  0
    7.2773   22.3971    0.0000 C   0  0  0  0  0  0  0  0  0  0  0  0
    8.0273   21.0981    0.0000 C   0  0  0  0  0  0  0  0  0  0  0  0
    8.6374   19.7278    0.0000 C   0  0  0  0  0  0  0  0  0  0  0  0
    9.1009   18.3012    0.0000 C   0  0  0  0  0  0  0  0  0  0  0  0
    9.4128   16.8340    0.0000 C   0  0  0  0  0  0  0  0  0  0  0  0
    9.5696   15.3422    0.0000 C   0  0  0  0  0  0  0  0  0  0  0  0
    9.5696   13.8422    0.0000 C   0  0  0  0  0  0  0  0  0  0  0  0
    9.4128   12.3504    0.0000 C   0  0  0  0  0  0  0  0  0  0  0  0
    9.1009   10.8832    0.0000 C   0  0  0  0  0  0  0  0  0  0  0  0
    8.6374    9.4566    0.0000 C   0  0  0  0  0  0  0  0  0  0  0  0
    8.0273    8.0863    0.0000 C   0  0  0  0  0  0  0  0  0  0  0  0
    7.2773    6.7872    0.0000 C   0  0  0  0  0  0  0  0  0  0  0  0
    6.3956    5.5737    0.0000 C   0  0  0  0  0  0  0  0  0  0  0  0
    5.3919    4.4590    0.0000 C   0  0  0  0  0  0  0  0  0  0  0  0
    4.2772    3.4553    0.0000 C   0  0  0  0  0  0  0  0  0  0  0  0
    3.0637    2.5736    0.0000 C   0  0  0  0  0  0  0  0  0  0  0  0
    1.7646    1.8236    0.0000 C   0  0  0  0  0  0  0  0  0  0  0  0
    0.3943    1.2135    0.0000 C   0  0  0  0  0  0  0  0  0  0  0  0
    1.2760    0.0000    0.0000 C   0  0  0  0  0  0  0  0  0  0  0  0
    0.3943   -1.2135    0.0000 C   0  0  0  0  0  0  0  0  0  0  0  0
   -1.0323   -0.7500    0.0000 C   0  0  0  0  0  0  0  0  0  0  0  0
   -1.0323    0.7500    0.0000 C   0  0  0  0  0  0  0  0  0  0  0  0
  1  2  1  0
  2  3  1  0
  3  4  1  0
  4  5  1  0
  5  6  1  0
  6  7  1  0
  7  8  1  0
  8  9  1  0
  9 10  1  0
 10 11  1  0
 11 12  1  0
 12 13  1  0
 13 14  1  0
 14 15  1  0
 15 16  1  0
 16 17  1  0
 17 18  1  0
 18 19  1  0
 19 20  1  0
 20 21  1  0
 21 22  1  0
 22 23  1  0
 23 24  1  0
 24 25  1  0
 25 26  1  0
 26 27  1  0
 27 28  1  0
 28 29  1  0
 29 30  1  0
 30 31  1  0
 31 32  1  0
 32 33  1  0
 33 34  1  0
 34 35  1  0
 35 36  1  0
 36 37  1  0
 37 38  1  0
 38 39  1  0
 39 40  1  0
 40 41  1  0
 41 42  2  0
 42 43  1  0
 43 44  2  0
 44 45  1  0
 45 46  2  0
 46 47  1  0
 47 48  2  0
 48 49  1  0
 49 50  2  0
 50 51  1  0
 51 52  2  0
 52 53  1  0
 53 54  2  0
 54 55  1  0
 55 56  2  0
 56 57  1  0
 57 58  2  0
 58 59  1  0
 59 60  2  0
 60 61  1  0
 61 62  2  0
 62 63  1  0
 63 64  2  0
 64  2  1  0
 64 60  1  0
M  END
>  <Title>  (442) 
idAAPBgen13

$$$$

     RDKit          2D

 48 54  0  0  0  0  0  0  0  0999 V2000
   -1.1382   -8.3460    0.0000 C   0  0  0  0  0  0  0  0  0  0  0  0
   -0.7500   -6.8971    0.0000 C   0  0  0  0  0  0  0  0  0  0  0  0
    0.7500   -6.8971    0.0000 C   0  0  0  0  0  0  0  0  0  0  0  0
    2.0490   -6.1471    0.0000 C   0  0  0  0  0  0  0  0  0  0  0  0
    2.7990   -4.8481    0.0000 C   0  0  0  0  0  0  0  0  0  0  0  0
    2.7990   -3.3481    0.0000 C   0  0  0  0  0  0  0  0  0  0  0  0
    2.0490   -2.0490    0.0000 C   0  0  0  0  0  0  0  0  0  0  0  0
    3.1097   -0.9884    0.0000 C   0  0  0  0  0  0  0  0  0  0  0  0
    2.7215    0.4605    0.0000 O   0  0  0  0  0  0  0  0  0  0  0  0
    4.5586   -1.3766    0.0000 N   0  0  0  0  0  0  0  0  0  0  0  0
    5.6192   -0.3159    0.0000 C   0  0  0  0  0  0  0  0  0  0  0  0
    5.3846    1.1656    0.0000 N   0  0  0  0  0  0  0  0  0  0  0  0
    6.7211    1.8466    0.0000 N   0  0  0  0  0  0  0  0  0  0  0  0
    7.7818    0.7859    0.0000 N   0  0  0  0  0  0  0  0  0  0  0  0
    7.1008   -0.5506    0.0000 N   0  0  0  0  0  0  0  0  0  0  0  0
    7.7818   -1.8871    0.0000 N   0  0  0  0  0  0  0  0  0  0  0  0
    9.2633   -2.1218    0.0000 C   0  0  0  0  0  0  0  0  0  0  0  0
    9.4979   -3.6033    0.0000 C   0  0  0  0  0  0  0  0  0  0  0  0
    8.1614   -4.2843    0.0000 C   0  0  0  0  0  0  0  0  0  0  0  0
    7.9268   -5.7658    0.0000 C   0  0  0  0  0  0  0  0  0  0  0  0
    9.0925   -6.7098    0.0000 O   0  0  0  0  0  0  0  0  0  0  0  0
    6.5264   -6.3034    0.0000 N   0  0  0  0  0  0  0  0  0  0  0  0
    6.2918   -7.7849    0.0000 C   0  0  0  0  0  0  0  0  0  0  0  0
    4.8914   -8.3224    0.0000 N   0  0  0  0  0  0  0  0  0  0  0  0
    4.6567   -9.8040    0.0000 N   0  0  0  0  0  0  0  0  0  0  0  0
    5.8225  -10.7480    0.0000 N   0  0  0  0  0  0  0  0  0  0  0  0
    7.2228  -10.2104    0.0000 N   0  0  0  0  0  0  0  0  0  0  0  0
    7.4575   -8.7289    0.0000 N   0  0  0  0  0  0  0  0  0  0  0  0
    7.1008   -3.2236    0.0000 C   0  0  0  0  0  0  0  0  0  0  0  0
    5.6192   -3.4583    0.0000 O   0  0  0  0  0  0  0  0  0  0  0  0
    0.7500   -1.2990    0.0000 C   0  0  0  0  0  0  0  0  0  0  0  0
    1.5000    0.0000    0.0000 C   0  0  0  0  0  0  0  0  0  0  0  0
    0.7500    1.2990    0.0000 C   0  0  0  0  0  0  0  0  0  0  0  0
   -0.7500    1.2990    0.0000 C   0  0  0  0  0  0  0  0  0  0  0  0
   -1.5000    0.0000    0.0000 C   0  0  0  0  0  0  0  0  0  0  0  0
   -0.7500   -1.2990    0.0000 C   0  0  0  0  0  0  0  0  0  0  0  0
   -2.0490   -2.0490    0.0000 C   0  0  0  0  0  0  0  0  0  0  0  0
   -2.7990   -0.7500    0.0000 C   0  0  0  0  0  0  0  0  0  0  0  0
   -4.2990   -0.7500    0.0000 C   0  0  0  0  0  0  0  0  0  0  0  0
   -5.0490   -2.0490    0.0000 C   0  0  0  0  0  0  0  0  0  0  0  0
   -4.2990   -3.3481    0.0000 C   0  0  0  0  0  0  0  0  0  0  0  0
   -2.7990   -3.3481    0.0000 C   0  0  0  0  0  0  0  0  0  0  0  0
   -2.7990   -4.8481    0.0000 C   0  0  0  0  0  0  0  0  0  0  0  0
   -4.2990   -4.8481    0.0000 C   0  0  0  0  0  0  0  0  0  0  0  0
   -5.0490   -6.1471    0.0000 C   0  0  0  0  0  0  0  0  0  0  0  0
   -4.2990   -7.4462    0.0000 C   0  0  0  0  0  0  0  0  0  0  0  0
   -2.7990   -7.4462    0.0000 C   0  0  0  0  0  0  0  0  0  0  0  0
   -2.0490   -6.1471    0.0000 C   0  0  0  0  0  0  0  0  0  0  0  0
  1  2  1  0
  2  3  1  0
  3  4  2  0
  4  5  1  0
  5  6  1  0
  6  7  1  0
  7  8  1  0
  8  9  2  0
  8 10  1  0
 10 11  1  0
 11 12  2  0
 12 13  1  0
 13 14  2  0
 14 15  1  0
 15 16  1  0
 16 17  1  0
 17 18  1  0
 18 19  1  0
 19 20  1  0
 20 21  2  0
 20 22  1  0
 22 23  1  0
 23 24  2  0
 24 25  1  0
 25 26  2  0
 26 27  1  0
 27 28  2  0
 19 29  1  0
 29 30  2  0
  7 31  1  0
 31 32  2  0
 32 33  1  0
 33 34  2  0
 34 35  1  0
 35 36  2  0
 36 37  1  0
 37 38  2  0
 38 39  1  0
 39 40  2  0
 40 41  1  0
 41 42  2  0
 42 43  1  0
 43 44  2  0
 44 45  1  0
 45 46  2  0
 46 47  1  0
 47 48  2  0
 48  2  1  0
 15 11  1  0
 29 16  1  0
 36 31  1  0
 42 37  1  0
 48 43  1  0
 28 23  1  0
M  END
>  <Title>  (443) 
idAAPCgen13

$$$$

     RDKit          2D

 19 20  0  0  0  0  0  0  0  0999 V2000
   10.2760   -5.1962    0.0000 C   0  0  0  0  0  0  0  0  0  0  0  0
    9.5260   -3.8971    0.0000 C   0  0  0  0  0  0  0  0  0  0  0  0
    8.0260   -3.8971    0.0000 C   0  0  0  0  0  0  0  0  0  0  0  0
    7.2760   -2.5981    0.0000 C   0  0  0  0  0  0  0  0  0  0  0  0
    5.7760   -2.5981    0.0000 C   0  0  0  0  0  0  0  0  0  0  0  0
    5.0260   -3.8971    0.0000 O   0  0  0  0  0  0  0  0  0  0  0  0
    5.0260   -1.2990    0.0000 C   0  0  0  0  0  0  0  0  0  0  0  0
    3.5260   -1.2990    0.0000 C   0  0  0  0  0  0  0  0  0  0  0  0
    2.7760    0.0000    0.0000 C   0  0  0  0  0  0  0  0  0  0  0  0
    1.2760    0.0000    0.0000 C   0  0  0  0  0  0  0  0  0  0  0  0
    0.3943    1.2135    0.0000 N   0  0  0  0  0  0  0  0  0  0  0  0
   -1.0323    0.7500    0.0000 N   0  0  0  0  0  0  0  0  0  0  0  0
   -1.0323   -0.7500    0.0000 N   0  0  0  0  0  0  0  0  0  0  0  0
    0.3943   -1.2135    0.0000 N   0  0  0  0  0  0  0  0  0  0  0  0
    0.8578   -2.6401    0.0000 C   0  0  0  0  0  0  0  0  0  0  0  0
    2.2844   -3.1036    0.0000 C   0  0  0  0  0  0  0  0  0  0  0  0
    2.2844   -4.6036    0.0000 C   0  0  0  0  0  0  0  0  0  0  0  0
    0.8578   -5.0672    0.0000 C   0  0  0  0  0  0  0  0  0  0  0  0
   -0.0239   -3.8536    0.0000 C   0  0  0  0  0  0  0  0  0  0  0  0
  1  2  2  0
  2  3  1  0
  3  4  1  0
  4  5  1  0
  5  6  2  0
  5  7  1  0
  7  8  1  0
  8  9  1  0
  9 10  1  0
 10 11  2  0
 11 12  1  0
 12 13  2  0
 13 14  1  0
 14 15  1  0
 15 16  2  0
 16 17  1  0
 17 18  1  0
 18 19  1  0
 14 10  1  0
 19 15  1  0
M  END
>  <Title>  (444) 
idAAPDgen13

$$$$

     RDKit          2D

 17 19  0  0  0  0  0  0  0  0999 V2000
    3.9821   -7.4141    0.0000 C   0  0  0  0  0  0  0  0  0  0  0  0
    4.9858   -6.2994    0.0000 C   0  0  0  0  0  0  0  0  0  0  0  0
    6.4776   -6.4562    0.0000 C   0  0  0  0  0  0  0  0  0  0  0  0
    7.0877   -5.0859    0.0000 N   0  0  0  0  0  0  0  0  0  0  0  0
    5.9730   -4.0822    0.0000 N   0  0  0  0  0  0  0  0  0  0  0  0
    4.6740   -4.8322    0.0000 N   0  0  0  0  0  0  0  0  0  0  0  0
    3.3037   -4.2221    0.0000 C   0  0  0  0  0  0  0  0  0  0  0  0
    2.0046   -4.9721    0.0000 C   0  0  0  0  0  0  0  0  0  0  0  0
    0.8899   -3.9684    0.0000 C   0  0  0  0  0  0  0  0  0  0  0  0
    1.5000   -2.5981    0.0000 C   0  0  0  0  0  0  0  0  0  0  0  0
    0.7500   -1.2990    0.0000 N   0  0  0  0  0  0  0  0  0  0  0  0
    1.5000    0.0000    0.0000 C   0  0  0  0  0  0  0  0  0  0  0  0
    0.7500    1.2990    0.0000 C   0  0  0  0  0  0  0  0  0  0  0  0
   -0.7500    1.2990    0.0000 N   0  0  0  0  0  0  0  0  0  0  0  0
   -1.5000    0.0000    0.0000 N   0  0  0  0  0  0  0  0  0  0  0  0
   -0.7500   -1.2990    0.0000 N   0  0  0  0  0  0  0  0  0  0  0  0
    2.9918   -2.7549    0.0000 C   0  0  0  0  0  0  0  0  0  0  0  0
  1  2  1  0
  2  3  2  0
  3  4  1  0
  4  5  2  0
  5  6  1  0
  6  7  1  0
  7  8  2  0
  8  9  1  0
  9 10  2  0
 10 11  1  0
 11 12  1  0
 12 13  1  0
 13 14  2  0
 14 15  1  0
 15 16  2  0
 10 17  1  0
  6  2  1  0
 17  7  1  0
 16 11  1  0
M  END
>  <Title>  (445) 
idAAPEgen13

$$$$

     RDKit          2D

 26 29  0  0  0  0  0  0  0  0999 V2000
   -4.6100   -1.8042    0.0000 N   0  0  0  0  0  0  0  0  0  0  0  0
   -3.1476   -2.1380    0.0000 C   0  0  0  0  0  0  0  0  0  0  0  0
   -1.6852   -2.4718    0.0000 C   0  0  0  0  0  0  0  0  0  0  0  0
   -1.3515   -3.9342    0.0000 C   0  0  0  0  0  0  0  0  0  0  0  0
   -0.0000   -4.5850    0.0000 C   0  0  0  0  0  0  0  0  0  0  0  0
    1.3515   -3.9342    0.0000 C   0  0  0  0  0  0  0  0  0  0  0  0
    2.5242   -4.8694    0.0000 C   0  0  0  0  0  0  0  0  0  0  0  0
    3.9205   -4.3214    0.0000 O   0  0  0  0  0  0  0  0  0  0  0  0
    2.3006   -6.3527    0.0000 N   0  0  0  0  0  0  0  0  0  0  0  0
    3.4734   -7.2879    0.0000 C   0  0  0  0  0  0  0  0  0  0  0  0
    4.9193   -6.8888    0.0000 N   0  0  0  0  0  0  0  0  0  0  0  0
    5.7457   -8.1407    0.0000 N   0  0  0  0  0  0  0  0  0  0  0  0
    4.8104   -9.3134    0.0000 N   0  0  0  0  0  0  0  0  0  0  0  0
    3.4061   -8.7864    0.0000 N   0  0  0  0  0  0  0  0  0  0  0  0
    2.1542   -9.6127    0.0000 C   0  0  0  0  0  0  0  0  0  0  0  0
    2.0869  -11.1112    0.0000 C   0  0  0  0  0  0  0  0  0  0  0  0
    0.6410  -11.5103    0.0000 C   0  0  0  0  0  0  0  0  0  0  0  0
   -0.1854  -10.2584    0.0000 C   0  0  0  0  0  0  0  0  0  0  0  0
    0.7499   -9.0857    0.0000 C   0  0  0  0  0  0  0  0  0  0  0  0
    1.6852   -2.4718    0.0000 C   0  0  0  0  0  0  0  0  0  0  0  0
    0.7500   -1.2990    0.0000 C   0  0  0  0  0  0  0  0  0  0  0  0
    1.5000    0.0000    0.0000 C   0  0  0  0  0  0  0  0  0  0  0  0
    0.7500    1.2990    0.0000 C   0  0  0  0  0  0  0  0  0  0  0  0
   -0.7500    1.2990    0.0000 C   0  0  0  0  0  0  0  0  0  0  0  0
   -1.5000    0.0000    0.0000 C   0  0  0  0  0  0  0  0  0  0  0  0
   -0.7500   -1.2990    0.0000 C   0  0  0  0  0  0  0  0  0  0  0  0
  1  2  3  0
  2  3  1  0
  3  4  2  0
  4  5  1  0
  5  6  2  0
  6  7  1  0
  7  8  2  0
  7  9  1  0
  9 10  1  0
 10 11  2  0
 11 12  1  0
 12 13  2  0
 13 14  1  0
 14 15  1  0
 15 16  1  0
 16 17  2  0
 17 18  1  0
 18 19  2  0
  6 20  1  0
 20 21  1  0
 21 22  2  0
 22 23  1  0
 23 24  2  0
 24 25  1  0
 25 26  2  0
 26  3  1  0
 14 10  1  0
 19 15  1  0
 26 21  1  0
M  END
>  <Title>  (446) 
idAAPFgen13

$$$$

     RDKit          2D

 41 46  0  0  0  0  0  0  0  0999 V2000
   -2.3737   -6.1885    0.0000 C   0  0  0  0  0  0  0  0  0  0  0  0
   -1.4095   -5.0395    0.0000 C   0  0  0  0  0  0  0  0  0  0  0  0
   -0.0000   -5.5525    0.0000 C   0  0  0  0  0  0  0  0  0  0  0  0
    1.4095   -5.0395    0.0000 C   0  0  0  0  0  0  0  0  0  0  0  0
    2.1595   -3.7404    0.0000 C   0  0  0  0  0  0  0  0  0  0  0  0
    1.8991   -2.2632    0.0000 C   0  0  0  0  0  0  0  0  0  0  0  0
    3.1981   -1.5132    0.0000 C   0  0  0  0  0  0  0  0  0  0  0  0
    3.1981   -0.0132    0.0000 O   0  0  0  0  0  0  0  0  0  0  0  0
    4.4971   -2.2632    0.0000 N   0  0  0  0  0  0  0  0  0  0  0  0
    5.7962   -1.5132    0.0000 C   0  0  0  0  0  0  0  0  0  0  0  0
    5.9530   -0.0214    0.0000 N   0  0  0  0  0  0  0  0  0  0  0  0
    7.4202    0.2904    0.0000 N   0  0  0  0  0  0  0  0  0  0  0  0
    8.1702   -1.0086    0.0000 N   0  0  0  0  0  0  0  0  0  0  0  0
    7.1665   -2.1233    0.0000 N   0  0  0  0  0  0  0  0  0  0  0  0
    7.4784   -3.5905    0.0000 N   0  0  0  0  0  0  0  0  0  0  0  0
    8.8487   -4.2007    0.0000 C   0  0  0  0  0  0  0  0  0  0  0  0
    8.6919   -5.6924    0.0000 C   0  0  0  0  0  0  0  0  0  0  0  0
    7.2247   -6.0043    0.0000 N   0  0  0  0  0  0  0  0  0  0  0  0
    6.6146   -7.3746    0.0000 C   0  0  0  0  0  0  0  0  0  0  0  0
    7.4962   -8.5881    0.0000 O   0  0  0  0  0  0  0  0  0  0  0  0
    5.1228   -7.5314    0.0000 N   0  0  0  0  0  0  0  0  0  0  0  0
    4.5127   -8.9017    0.0000 C   0  0  0  0  0  0  0  0  0  0  0  0
    3.0209   -9.0585    0.0000 N   0  0  0  0  0  0  0  0  0  0  0  0
    2.4108  -10.4288    0.0000 N   0  0  0  0  0  0  0  0  0  0  0  0
    3.2925  -11.6424    0.0000 N   0  0  0  0  0  0  0  0  0  0  0  0
    4.7843  -11.4856    0.0000 N   0  0  0  0  0  0  0  0  0  0  0  0
    5.3944  -10.1153    0.0000 N   0  0  0  0  0  0  0  0  0  0  0  0
    6.4747   -4.7053    0.0000 C   0  0  0  0  0  0  0  0  0  0  0  0
    4.9829   -4.5485    0.0000 O   0  0  0  0  0  0  0  0  0  0  0  0
    0.7500   -1.2990    0.0000 C   0  0  0  0  0  0  0  0  0  0  0  0
    1.5000    0.0000    0.0000 C   0  0  0  0  0  0  0  0  0  0  0  0
    0.7500    1.2990    0.0000 C   0  0  0  0  0  0  0  0  0  0  0  0
   -0.7500    1.2990    0.0000 C   0  0  0  0  0  0  0  0  0  0  0  0
   -1.5000    0.0000    0.0000 C   0  0  0  0  0  0  0  0  0  0  0  0
   -0.7500   -1.2990    0.0000 C   0  0  0  0  0  0  0  0  0  0  0  0
   -1.8991   -2.2632    0.0000 C   0  0  0  0  0  0  0  0  0  0  0  0
   -3.0481   -1.2990    0.0000 C   0  0  0  0  0  0  0  0  0  0  0  0
   -4.4577   -1.8121    0.0000 C   0  0  0  0  0  0  0  0  0  0  0  0
   -4.7181   -3.2893    0.0000 C   0  0  0  0  0  0  0  0  0  0  0  0
   -3.5691   -4.2535    0.0000 C   0  0  0  0  0  0  0  0  0  0  0  0
   -2.1595   -3.7404    0.0000 C   0  0  0  0  0  0  0  0  0  0  0  0
  1  2  1  0
  2  3  2  0
  3  4  1  0
  4  5  2  0
  5  6  1  0
  6  7  1  0
  7  8  2  0
  7  9  1  0
  9 10  1  0
 10 11  2  0
 11 12  1  0
 12 13  2  0
 13 14  1  0
 14 15  1  0
 15 16  1  0
 16 17  1  0
 17 18  1  0
 18 19  1  0
 19 20  2  0
 19 21  1  0
 21 22  1  0
 22 23  2  0
 23 24  1  0
 24 25  2  0
 25 26  1  0
 26 27  2  0
 18 28  1  0
 28 29  2  0
  6 30  1  0
 30 31  2  0
 31 32  1  0
 32 33  2  0
 33 34  1  0
 34 35  2  0
 35 36  1  0
 36 37  2  0
 37 38  1  0
 38 39  2  0
 39 40  1  0
 40 41  2  0
 41  2  1  0
 14 10  1  0
 28 15  1  0
 35 30  1  0
 41 36  1  0
 27 22  1  0
M  END
>  <Title>  (447) 
idAAPGgen13

$$$$

     RDKit          2D

 11 10  0  0  0  0  0  0  0  0999 V2000
    0.0000    0.0000    0.0000 C   0  0  0  0  0  0  0  0  0  0  0  0
    1.2990    0.7500    0.0000 C   0  0  0  0  0  0  0  0  0  0  0  0
    2.5981   -0.0000    0.0000 C   0  0  0  0  0  0  0  0  0  0  0  0
    3.8971    0.7500    0.0000 C   0  0  0  0  0  0  0  0  0  0  0  0
    5.1962   -0.0000    0.0000 C   0  0  0  0  0  0  0  0  0  0  0  0
    5.1962   -1.5000    0.0000 O   0  0  0  0  0  0  0  0  0  0  0  0
    6.4952    0.7500    0.0000 N   0  0  0  0  0  0  0  0  0  0  0  0
    7.7942   -0.0000    0.0000 C   0  0  0  0  0  0  0  0  0  0  0  0
    9.0933    0.7500    0.0000 C   0  0  0  0  0  0  0  0  0  0  0  0
    7.7942   -1.5000    0.0000 C   0  0  0  0  0  0  0  0  0  0  0  0
    9.0933   -2.2500    0.0000 C   0  0  0  0  0  0  0  0  0  0  0  0
  1  2  2  0
  2  3  1  0
  3  4  1  0
  4  5  1  0
  5  6  2  0
  5  7  1  0
  7  8  1  0
  8  9  1  0
  8 10  1  0
 10 11  1  0
M  END
>  <Title>  (448) 
idAAPHgen13

$$$$

     RDKit          2D

 54 59  0  0  0  0  0  0  0  0999 V2000
    3.5347   21.4408    0.0000 C   0  0  0  0  0  0  0  0  0  0  0  0
    3.0712   20.0142    0.0000 C   0  0  0  0  0  0  0  0  0  0  0  0
    2.6077   18.5876    0.0000 C   0  0  0  0  0  0  0  0  0  0  0  0
    2.1442   17.1611    0.0000 C   0  0  0  0  0  0  0  0  0  0  0  0
    1.6806   15.7345    0.0000 C   0  0  0  0  0  0  0  0  0  0  0  0
    1.2171   14.3079    0.0000 C   0  0  0  0  0  0  0  0  0  0  0  0
    0.7536   12.8813    0.0000 C   0  0  0  0  0  0  0  0  0  0  0  0
    0.2901   11.4547    0.0000 C   0  0  0  0  0  0  0  0  0  0  0  0
   -0.1735   10.0281    0.0000 C   0  0  0  0  0  0  0  0  0  0  0  0
   -0.6370    8.6015    0.0000 C   0  0  0  0  0  0  0  0  0  0  0  0
   -1.1005    7.1750    0.0000 C   0  0  0  0  0  0  0  0  0  0  0  0
   -1.5641    5.7484    0.0000 C   0  0  0  0  0  0  0  0  0  0  0  0
   -2.0276    4.3218    0.0000 C   0  0  0  0  0  0  0  0  0  0  0  0
   -2.4911    2.8952    0.0000 C   0  0  0  0  0  0  0  0  0  0  0  0
   -2.9546    1.4686    0.0000 C   0  0  0  0  0  0  0  0  0  0  0  0
   -3.4182    0.0420    0.0000 C   0  0  0  0  0  0  0  0  0  0  0  0
   -3.8817   -1.3846    0.0000 C   0  0  0  0  0  0  0  0  0  0  0  0
   -5.3083   -1.8481    0.0000 N   0  0  0  0  0  0  0  0  0  0  0  0
   -5.3083   -3.3481    0.0000 N   0  0  0  0  0  0  0  0  0  0  0  0
   -3.8817   -3.8116    0.0000 N   0  0  0  0  0  0  0  0  0  0  0  0
   -3.0000   -2.5981    0.0000 N   0  0  0  0  0  0  0  0  0  0  0  0
   -1.5000   -2.5981    0.0000 C   0  0  0  0  0  0  0  0  0  0  0  0
   -0.7500   -3.8971    0.0000 C   0  0  0  0  0  0  0  0  0  0  0  0
    0.7500   -3.8971    0.0000 C   0  0  0  0  0  0  0  0  0  0  0  0
    1.5000   -2.5981    0.0000 C   0  0  0  0  0  0  0  0  0  0  0  0
    3.0000   -2.5981    0.0000 C   0  0  0  0  0  0  0  0  0  0  0  0
    3.7500   -1.2990    0.0000 O   0  0  0  0  0  0  0  0  0  0  0  0
    3.7500   -3.8971    0.0000 N   0  0  0  0  0  0  0  0  0  0  0  0
    5.2500   -3.8971    0.0000 C   0  0  0  0  0  0  0  0  0  0  0  0
    6.1317   -2.6836    0.0000 N   0  0  0  0  0  0  0  0  0  0  0  0
    7.5583   -3.1471    0.0000 N   0  0  0  0  0  0  0  0  0  0  0  0
    7.5583   -4.6471    0.0000 N   0  0  0  0  0  0  0  0  0  0  0  0
    6.1317   -5.1106    0.0000 N   0  0  0  0  0  0  0  0  0  0  0  0
    5.6682   -6.5372    0.0000 N   0  0  0  0  0  0  0  0  0  0  0  0
    6.5498   -7.7508    0.0000 C   0  0  0  0  0  0  0  0  0  0  0  0
    5.6682   -8.9643    0.0000 C   0  0  0  0  0  0  0  0  0  0  0  0
    4.2416   -8.5008    0.0000 C   0  0  0  0  0  0  0  0  0  0  0  0
    3.0280   -9.3824    0.0000 C   0  0  0  0  0  0  0  0  0  0  0  0
    3.1848  -10.8742    0.0000 O   0  0  0  0  0  0  0  0  0  0  0  0
    1.6577   -8.7723    0.0000 N   0  0  0  0  0  0  0  0  0  0  0  0
    0.4442   -9.6540    0.0000 C   0  0  0  0  0  0  0  0  0  0  0  0
   -0.9261   -9.0439    0.0000 N   0  0  0  0  0  0  0  0  0  0  0  0
   -2.1396   -9.9256    0.0000 N   0  0  0  0  0  0  0  0  0  0  0  0
   -1.9829  -11.4174    0.0000 N   0  0  0  0  0  0  0  0  0  0  0  0
   -0.6125  -12.0275    0.0000 N   0  0  0  0  0  0  0  0  0  0  0  0
    0.6010  -11.1458    0.0000 N   0  0  0  0  0  0  0  0  0  0  0  0
    4.2416   -7.0008    0.0000 C   0  0  0  0  0  0  0  0  0  0  0  0
    3.0280   -6.1191    0.0000 O   0  0  0  0  0  0  0  0  0  0  0  0
    0.7500   -1.2990    0.0000 C   0  0  0  0  0  0  0  0  0  0  0  0
    1.5000    0.0000    0.0000 C   0  0  0  0  0  0  0  0  0  0  0  0
    0.7500    1.2990    0.0000 C   0  0  0  0  0  0  0  0  0  0  0  0
   -0.7500    1.2990    0.0000 C   0  0  0  0  0  0  0  0  0  0  0  0
   -1.5000    0.0000    0.0000 C   0  0  0  0  0  0  0  0  0  0  0  0
   -0.7500   -1.2990    0.0000 C   0  0  0  0  0  0  0  0  0  0  0  0
  1  2  3  0
  2  3  1  0
  3  4  3  0
  4  5  1  0
  5  6  3  0
  6  7  1  0
  7  8  3  0
  8  9  1  0
  9 10  3  0
 10 11  1  0
 11 12  3  0
 12 13  1  0
 13 14  3  0
 14 15  1  0
 15 16  3  0
 16 17  1  0
 17 18  2  0
 18 19  1  0
 19 20  2  0
 20 21  1  0
 21 22  1  0
 22 23  2  0
 23 24  1  0
 24 25  2  0
 25 26  1  0
 26 27  2  0
 26 28  1  0
 28 29  1  0
 29 30  2  0
 30 31  1  0
 31 32  2  0
 32 33  1  0
 33 34  1  0
 34 35  1  0
 35 36  1  0
 36 37  2  0
 37 38  1  0
 38 39  2  0
 38 40  1  0
 40 41  1  0
 41 42  2  0
 42 43  1  0
 43 44  2  0
 44 45  1  0
 45 46  2  0
 37 47  1  0
 47 48  2  0
 25 49  1  0
 49 50  2  0
 50 51  1  0
 51 52  2  0
 52 53  1  0
 53 54  2  0
 21 17  1  0
 54 22  1  0
 33 29  1  0
 47 34  1  0
 54 49  1  0
 46 41  1  0
M  END
>  <Title>  (449) 
idAAPIgen13

$$$$

     RDKit          2D

105106  0  0  0  0  0  0  0  0999 V2000
   -2.2942    0.6871    0.0000 C   0  0  0  0  0  0  0  0  0  0  0  0
   -1.8229    2.1111    0.0000 C   0  0  0  0  0  0  0  0  0  0  0  0
   -3.2313    2.6273    0.0000 C   0  0  0  0  0  0  0  0  0  0  0  0
   -4.6041    3.2318    0.0000 C   0  0  0  0  0  0  0  0  0  0  0  0
   -5.9358    3.9222    0.0000 C   0  0  0  0  0  0  0  0  0  0  0  0
   -7.2210    4.6956    0.0000 C   0  0  0  0  0  0  0  0  0  0  0  0
   -8.4546    5.5490    0.0000 C   0  0  0  0  0  0  0  0  0  0  0  0
   -9.6316    6.4789    0.0000 C   0  0  0  0  0  0  0  0  0  0  0  0
  -10.7472    7.4816    0.0000 C   0  0  0  0  0  0  0  0  0  0  0  0
  -11.7970    8.5530    0.0000 C   0  0  0  0  0  0  0  0  0  0  0  0
  -12.7767    9.6889    0.0000 C   0  0  0  0  0  0  0  0  0  0  0  0
  -13.6824   10.8846    0.0000 C   0  0  0  0  0  0  0  0  0  0  0  0
  -14.5105   12.1353    0.0000 C   0  0  0  0  0  0  0  0  0  0  0  0
  -15.2575   13.4360    0.0000 C   0  0  0  0  0  0  0  0  0  0  0  0
  -15.9206   14.7815    0.0000 C   0  0  0  0  0  0  0  0  0  0  0  0
  -16.4969   16.1664    0.0000 C   0  0  0  0  0  0  0  0  0  0  0  0
  -16.9843   17.5850    0.0000 C   0  0  0  0  0  0  0  0  0  0  0  0
  -17.3808   19.0317    0.0000 C   0  0  0  0  0  0  0  0  0  0  0  0
  -17.6846   20.5006    0.0000 C   0  0  0  0  0  0  0  0  0  0  0  0
  -17.8947   21.9858    0.0000 C   0  0  0  0  0  0  0  0  0  0  0  0
  -18.0102   23.4813    0.0000 C   0  0  0  0  0  0  0  0  0  0  0  0
  -18.0306   24.9812    0.0000 C   0  0  0  0  0  0  0  0  0  0  0  0
  -17.9559   26.4793    0.0000 C   0  0  0  0  0  0  0  0  0  0  0  0
  -17.7862   27.9697    0.0000 C   0  0  0  0  0  0  0  0  0  0  0  0
  -17.5224   29.4463    0.0000 C   0  0  0  0  0  0  0  0  0  0  0  0
  -17.1655   30.9032    0.0000 C   0  0  0  0  0  0  0  0  0  0  0  0
  -16.7168   32.3346    0.0000 C   0  0  0  0  0  0  0  0  0  0  0  0
  -16.1783   33.7346    0.0000 C   0  0  0  0  0  0  0  0  0  0  0  0
  -15.5521   35.0976    0.0000 C   0  0  0  0  0  0  0  0  0  0  0  0
  -14.8407   36.4182    0.0000 C   0  0  0  0  0  0  0  0  0  0  0  0
  -14.0470   37.6910    0.0000 C   0  0  0  0  0  0  0  0  0  0  0  0
  -13.1741   38.9108    0.0000 C   0  0  0  0  0  0  0  0  0  0  0  0
  -12.2257   40.0729    0.0000 C   0  0  0  0  0  0  0  0  0  0  0  0
  -11.2054   41.1725    0.0000 C   0  0  0  0  0  0  0  0  0  0  0  0
  -10.1175   42.2051    0.0000 C   0  0  0  0  0  0  0  0  0  0  0  0
   -8.9662   43.1667    0.0000 C   0  0  0  0  0  0  0  0  0  0  0  0
   -7.7563   44.0533    0.0000 C   0  0  0  0  0  0  0  0  0  0  0  0
   -6.4926   44.8614    0.0000 C   0  0  0  0  0  0  0  0  0  0  0  0
   -5.1802   45.5878    0.0000 C   0  0  0  0  0  0  0  0  0  0  0  0
   -3.8243   46.2294    0.0000 C   0  0  0  0  0  0  0  0  0  0  0  0
   -2.4305   46.7837    0.0000 C   0  0  0  0  0  0  0  0  0  0  0  0
   -1.0043   47.2485    0.0000 C   0  0  0  0  0  0  0  0  0  0  0  0
    0.4484   47.6220    0.0000 C   0  0  0  0  0  0  0  0  0  0  0  0
    1.9220   47.9025    0.0000 C   0  0  0  0  0  0  0  0  0  0  0  0
    3.4103   48.0890    0.0000 C   0  0  0  0  0  0  0  0  0  0  0  0
    4.9075   48.1808    0.0000 C   0  0  0  0  0  0  0  0  0  0  0  0
    6.4075   48.1774    0.0000 C   0  0  0  0  0  0  0  0  0  0  0  0
    7.9043   48.0788    0.0000 C   0  0  0  0  0  0  0  0  0  0  0  0
    9.3918   47.8856    0.0000 C   0  0  0  0  0  0  0  0  0  0  0  0
   10.8640   47.5984    0.0000 C   0  0  0  0  0  0  0  0  0  0  0  0
   12.3151   47.2183    0.0000 C   0  0  0  0  0  0  0  0  0  0  0  0
   13.7391   46.7471    0.0000 C   0  0  0  0  0  0  0  0  0  0  0  0
   15.1304   46.1864    0.0000 C   0  0  0  0  0  0  0  0  0  0  0  0
   16.4833   45.5387    0.0000 C   0  0  0  0  0  0  0  0  0  0  0  0
   17.7925   44.8064    0.0000 C   0  0  0  0  0  0  0  0  0  0  0  0
   19.0525   43.9926    0.0000 C   0  0  0  0  0  0  0  0  0  0  0  0
   20.2584   43.1005    0.0000 C   0  0  0  0  0  0  0  0  0  0  0  0
   21.4053   42.1337    0.0000 C   0  0  0  0  0  0  0  0  0  0  0  0
   22.4885   41.0961    0.0000 C   0  0  0  0  0  0  0  0  0  0  0  0
   23.5038   39.9919    0.0000 C   0  0  0  0  0  0  0  0  0  0  0  0
   24.4470   38.8256    0.0000 C   0  0  0  0  0  0  0  0  0  0  0  0
   25.3143   37.6017    0.0000 C   0  0  0  0  0  0  0  0  0  0  0  0
   26.1022   36.3254    0.0000 C   0  0  0  0  0  0  0  0  0  0  0  0
   26.8076   35.0016    0.0000 C   0  0  0  0  0  0  0  0  0  0  0  0
   27.4277   33.6357    0.0000 C   0  0  0  0  0  0  0  0  0  0  0  0
   27.9598   32.2333    0.0000 C   0  0  0  0  0  0  0  0  0  0  0  0
   28.4019   30.7999    0.0000 C   0  0  0  0  0  0  0  0  0  0  0  0
   28.7523   29.3414    0.0000 C   0  0  0  0  0  0  0  0  0  0  0  0
   29.0094   27.8636    0.0000 C   0  0  0  0  0  0  0  0  0  0  0  0
   29.1723   26.3725    0.0000 C   0  0  0  0  0  0  0  0  0  0  0  0
   29.2402   24.8740    0.0000 C   0  0  0  0  0  0  0  0  0  0  0  0
   29.2131   23.3743    0.0000 C   0  0  0  0  0  0  0  0  0  0  0  0
   29.0908   21.8793    0.0000 C   0  0  0  0  0  0  0  0  0  0  0  0
   28.8740   20.3950    0.0000 C   0  0  0  0  0  0  0  0  0  0  0  0
   28.5634   18.9275    0.0000 C   0  0  0  0  0  0  0  0  0  0  0  0
   28.1604   17.4827    0.0000 C   0  0  0  0  0  0  0  0  0  0  0  0
   27.6666   16.0663    0.0000 C   0  0  0  0  0  0  0  0  0  0  0  0
   27.0840   14.6841    0.0000 C   0  0  0  0  0  0  0  0  0  0  0  0
   26.4148   13.3416    0.0000 C   0  0  0  0  0  0  0  0  0  0  0  0
   25.6619   12.0442    0.0000 C   0  0  0  0  0  0  0  0  0  0  0  0
   24.8282   10.7973    0.0000 C   0  0  0  0  0  0  0  0  0  0  0  0
   23.9170    9.6057    0.0000 C   0  0  0  0  0  0  0  0  0  0  0  0
   22.9322    8.4743    0.0000 C   0  0  0  0  0  0  0  0  0  0  0  0
   21.8776    7.4077    0.0000 C   0  0  0  0  0  0  0  0  0  0  0  0
   20.7574    6.4100    0.0000 C   0  0  0  0  0  0  0  0  0  0  0  0
   19.5762    5.4855    0.0000 C   0  0  0  0  0  0  0  0  0  0  0  0
   18.3388    4.6377    0.0000 C   0  0  0  0  0  0  0  0  0  0  0  0
   17.0501    3.8701    0.0000 C   0  0  0  0  0  0  0  0  0  0  0  0
   15.7153    3.1858    0.0000 C   0  0  0  0  0  0  0  0  0  0  0  0
   14.3397    2.5875    0.0000 C   0  0  0  0  0  0  0  0  0  0  0  0
   12.9290    2.0777    0.0000 C   0  0  0  0  0  0  0  0  0  0  0  0
   11.4888    1.6583    0.0000 C   0  0  0  0  0  0  0  0  0  0  0  0
   10.0249    1.3312    0.0000 C   0  0  0  0  0  0  0  0  0  0  0  0
    8.5433    1.0975    0.0000 C   0  0  0  0  0  0  0  0  0  0  0  0
    7.0497    0.9583    0.0000 C   0  0  0  0  0  0  0  0  0  0  0  0
    5.5504    0.9141    0.0000 C   0  0  0  0  0  0  0  0  0  0  0  0
    4.0512    0.9651    0.0000 C   0  0  0  0  0  0  0  0  0  0  0  0
    2.5584    1.1111    0.0000 C   0  0  0  0  0  0  0  0  0  0  0  0
    1.0777    1.3515    0.0000 C   0  0  0  0  0  0  0  0  0  0  0  0
    1.7286    0.0000    0.0000 C   0  0  0  0  0  0  0  0  0  0  0  0
    1.0777   -1.3515    0.0000 C   0  0  0  0  0  0  0  0  0  0  0  0
   -0.3846   -1.6852    0.0000 C   0  0  0  0  0  0  0  0  0  0  0  0
   -1.5574   -0.7500    0.0000 C   0  0  0  0  0  0  0  0  0  0  0  0
   -1.5574    0.7500    0.0000 C   0  0  0  0  0  0  0  0  0  0  0  0
   -0.3846    1.6852    0.0000 C   0  0  0  0  0  0  0  0  0  0  0  0
  1  2  1  0
  2  3  1  0
  3  4  1  0
  4  5  1  0
  5  6  1  0
  6  7  1  0
  7  8  1  0
  8  9  1  0
  9 10  1  0
 10 11  1  0
 11 12  1  0
 12 13  1  0
 13 14  1  0
 14 15  1  0
 15 16  1  0
 16 17  1  0
 17 18  1  0
 18 19  1  0
 19 20  1  0
 20 21  1  0
 21 22  1  0
 22 23  1  0
 23 24  1  0
 24 25  1  0
 25 26  1  0
 26 27  1  0
 27 28  1  0
 28 29  1  0
 29 30  1  0
 30 31  1  0
 31 32  1  0
 32 33  1  0
 33 34  1  0
 34 35  1  0
 35 36  1  0
 36 37  1  0
 37 38  1  0
 38 39  1  0
 39 40  1  0
 40 41  1  0
 41 42  1  0
 42 43  1  0
 43 44  1  0
 44 45  1  0
 45 46  1  0
 46 47  1  0
 47 48  1  0
 48 49  1  0
 49 50  1  0
 50 51  1  0
 51 52  1  0
 52 53  1  0
 53 54  1  0
 54 55  1  0
 55 56  1  0
 56 57  1  0
 57 58  1  0
 58 59  1  0
 59 60  1  0
 60 61  1  0
 61 62  1  0
 62 63  1  0
 63 64  1  0
 64 65  1  0
 65 66  1  0
 66 67  1  0
 67 68  1  0
 68 69  1  0
 69 70  1  0
 70 71  1  0
 71 72  1  0
 72 73  1  0
 73 74  1  0
 74 75  1  0
 75 76  1  0
 76 77  1  0
 77 78  1  0
 78 79  1  0
 79 80  1  0
 80 81  1  0
 81 82  1  0
 82 83  1  0
 83 84  1  0
 84 85  1  0
 85 86  1  0
 86 87  1  0
 87 88  1  0
 88 89  1  0
 89 90  1  0
 90 91  1  0
 91 92  1  0
 92 93  1  0
 93 94  1  0
 94 95  1  0
 95 96  1  0
 96 97  1  0
 97 98  1  0
 98 99  1  0
 99100  1  0
100101  2  0
101102  1  0
102103  2  0
103104  1  0
104105  2  0
105  2  1  0
105 99  1  0
M  END
>  <Title>  (450) 
idAAPJgen13

$$$$

     RDKit          2D

 16 18  0  0  0  0  0  0  0  0999 V2000
   -1.0981   -9.2194    0.0000 C   0  0  0  0  0  0  0  0  0  0  0  0
    0.2010   -8.4694    0.0000 C   0  0  0  0  0  0  0  0  0  0  0  0
    0.2010   -6.9694    0.0000 C   0  0  0  0  0  0  0  0  0  0  0  0
    1.5000   -6.2194    0.0000 C   0  0  0  0  0  0  0  0  0  0  0  0
    2.7990   -6.9694    0.0000 O   0  0  0  0  0  0  0  0  0  0  0  0
    1.5000   -4.7194    0.0000 N   0  0  0  0  0  0  0  0  0  0  0  0
    0.4393   -3.6587    0.0000 C   0  0  0  0  0  0  0  0  0  0  0  0
    1.5000   -2.5981    0.0000 C   0  0  0  0  0  0  0  0  0  0  0  0
    0.7500   -1.2990    0.0000 C   0  0  0  0  0  0  0  0  0  0  0  0
    1.5000    0.0000    0.0000 C   0  0  0  0  0  0  0  0  0  0  0  0
    0.7500    1.2990    0.0000 C   0  0  0  0  0  0  0  0  0  0  0  0
   -0.7500    1.2990    0.0000 C   0  0  0  0  0  0  0  0  0  0  0  0
   -1.5000    0.0000    0.0000 C   0  0  0  0  0  0  0  0  0  0  0  0
   -0.7500   -1.2990    0.0000 C   0  0  0  0  0  0  0  0  0  0  0  0
    2.9489   -2.2098    0.0000 C   0  0  0  0  0  0  0  0  0  0  0  0
    2.5607   -3.6587    0.0000 C   0  0  0  0  0  0  0  0  0  0  0  0
  1  2  1  0
  2  3  1  0
  3  4  1  0
  4  5  2  0
  4  6  1  0
  6  7  1  0
  7  8  1  0
  8  9  1  0
  9 10  2  0
 10 11  1  0
 11 12  2  0
 12 13  1  0
 13 14  1  0
  8 15  1  0
 15 16  1  0
 16  6  1  0
 16  8  1  0
 14  9  1  0
M  END
>  <Title>  (451) 
idAAPKgen13

$$$$

     RDKit          2D

  8  8  0  0  0  0  0  0  0  0999 V2000
    4.5000    0.0000    0.0000 C   0  0  0  0  0  0  0  0  0  0  0  0
    3.0000    0.0000    0.0000 C   0  0  0  0  0  0  0  0  0  0  0  0
    1.5000    0.0000    0.0000 C   0  0  0  0  0  0  0  0  0  0  0  0
    0.7500   -1.2990    0.0000 C   0  0  0  0  0  0  0  0  0  0  0  0
   -0.7500   -1.2990    0.0000 C   0  0  0  0  0  0  0  0  0  0  0  0
   -1.5000    0.0000    0.0000 C   0  0  0  0  0  0  0  0  0  0  0  0
   -0.7500    1.2990    0.0000 C   0  0  0  0  0  0  0  0  0  0  0  0
    0.7500    1.2990    0.0000 C   0  0  0  0  0  0  0  0  0  0  0  0
  1  2  3  0
  2  3  1  0
  3  4  1  0
  4  5  1  0
  5  6  2  0
  6  7  1  0
  7  8  1  0
  8  3  1  0
M  END
>  <Title>  (452) 
idAAPLgen13

$$$$

     RDKit          2D

 10 10  0  0  0  0  0  0  0  0999 V2000
    4.5000    2.5981    0.0000 C   0  0  0  0  0  0  0  0  0  0  0  0
    3.7500    1.2990    0.0000 C   0  0  0  0  0  0  0  0  0  0  0  0
    3.0000    0.0000    0.0000 C   0  0  0  0  0  0  0  0  0  0  0  0
    3.7500   -1.2990    0.0000 C   0  0  0  0  0  0  0  0  0  0  0  0
    1.5000    0.0000    0.0000 C   0  0  0  0  0  0  0  0  0  0  0  0
    0.7500   -1.2990    0.0000 C   0  0  0  0  0  0  0  0  0  0  0  0
   -0.7500   -1.2990    0.0000 C   0  0  0  0  0  0  0  0  0  0  0  0
   -1.5000    0.0000    0.0000 C   0  0  0  0  0  0  0  0  0  0  0  0
   -0.7500    1.2990    0.0000 C   0  0  0  0  0  0  0  0  0  0  0  0
    0.7500    1.2990    0.0000 C   0  0  0  0  0  0  0  0  0  0  0  0
  1  2  3  0
  2  3  1  0
  3  4  1  0
  3  5  1  0
  5  6  1  0
  6  7  1  0
  7  8  1  0
  8  9  1  0
  9 10  1  0
 10  5  1  0
M  END
>  <Title>  (453) 
idAAPMgen13

$$$$

     RDKit          2D

 33 37  0  0  0  0  0  0  0  0999 V2000
   -2.6401   -3.1891    0.0000 C   0  0  0  0  0  0  0  0  0  0  0  0
   -1.2135   -2.7256    0.0000 C   0  0  0  0  0  0  0  0  0  0  0  0
   -0.0000   -3.6073    0.0000 C   0  0  0  0  0  0  0  0  0  0  0  0
    1.2135   -2.7256    0.0000 C   0  0  0  0  0  0  0  0  0  0  0  0
    2.6401   -3.1891    0.0000 C   0  0  0  0  0  0  0  0  0  0  0  0
    3.7548   -2.1855    0.0000 O   0  0  0  0  0  0  0  0  0  0  0  0
    2.9520   -4.6564    0.0000 N   0  0  0  0  0  0  0  0  0  0  0  0
    4.3786   -5.1199    0.0000 C   0  0  0  0  0  0  0  0  0  0  0  0
    5.5921   -4.2382    0.0000 N   0  0  0  0  0  0  0  0  0  0  0  0
    6.8056   -5.1199    0.0000 N   0  0  0  0  0  0  0  0  0  0  0  0
    6.3421   -6.5465    0.0000 N   0  0  0  0  0  0  0  0  0  0  0  0
    4.8421   -6.5465    0.0000 N   0  0  0  0  0  0  0  0  0  0  0  0
    3.9604   -7.7600    0.0000 N   0  0  0  0  0  0  0  0  0  0  0  0
    4.4239   -9.1866    0.0000 C   0  0  0  0  0  0  0  0  0  0  0  0
    3.2104  -10.0683    0.0000 C   0  0  0  0  0  0  0  0  0  0  0  0
    1.9969   -9.1866    0.0000 N   0  0  0  0  0  0  0  0  0  0  0  0
    0.5703   -9.6501    0.0000 C   0  0  0  0  0  0  0  0  0  0  0  0
    0.2584  -11.1173    0.0000 O   0  0  0  0  0  0  0  0  0  0  0  0
   -0.5444   -8.6464    0.0000 N   0  0  0  0  0  0  0  0  0  0  0  0
   -1.9710   -9.1099    0.0000 C   0  0  0  0  0  0  0  0  0  0  0  0
   -3.0857   -8.1062    0.0000 N   0  0  0  0  0  0  0  0  0  0  0  0
   -4.5123   -8.5698    0.0000 N   0  0  0  0  0  0  0  0  0  0  0  0
   -4.8242  -10.0370    0.0000 N   0  0  0  0  0  0  0  0  0  0  0  0
   -3.7095  -11.0407    0.0000 N   0  0  0  0  0  0  0  0  0  0  0  0
   -2.2829  -10.5772    0.0000 N   0  0  0  0  0  0  0  0  0  0  0  0
    2.4604   -7.7600    0.0000 C   0  0  0  0  0  0  0  0  0  0  0  0
    1.5787   -6.5465    0.0000 O   0  0  0  0  0  0  0  0  0  0  0  0
    0.7500   -1.2990    0.0000 C   0  0  0  0  0  0  0  0  0  0  0  0
    1.5000    0.0000    0.0000 C   0  0  0  0  0  0  0  0  0  0  0  0
    0.7500    1.2990    0.0000 C   0  0  0  0  0  0  0  0  0  0  0  0
   -0.7500    1.2990    0.0000 C   0  0  0  0  0  0  0  0  0  0  0  0
   -1.5000    0.0000    0.0000 C   0  0  0  0  0  0  0  0  0  0  0  0
   -0.7500   -1.2990    0.0000 C   0  0  0  0  0  0  0  0  0  0  0  0
  1  2  1  0
  2  3  2  0
  3  4  1  0
  4  5  1  0
  5  6  2  0
  5  7  1  0
  7  8  1  0
  8  9  2  0
  9 10  1  0
 10 11  2  0
 11 12  1  0
 12 13  1  0
 13 14  1  0
 14 15  1  0
 15 16  1  0
 16 17  1  0
 17 18  2  0
 17 19  1  0
 19 20  1  0
 20 21  2  0
 21 22  1  0
 22 23  2  0
 23 24  1  0
 24 25  2  0
 16 26  1  0
 26 27  2  0
  4 28  1  0
 28 29  2  0
 29 30  1  0
 30 31  2  0
 31 32  1  0
 32 33  2  0
 33  2  1  0
 12  8  1  0
 26 13  1  0
 33 28  1  0
 25 20  1  0
M  END
>  <Title>  (454) 
idAAPNgen13

$$$$

     RDKit          2D

 81 83  0  0  0  0  0  0  0  0999 V2000
   -2.4376    0.0595    0.0000 C   0  0  0  0  0  0  0  0  0  0  0  0
   -2.2444   -1.4280    0.0000 C   0  0  0  0  0  0  0  0  0  0  0  0
   -3.7223   -1.6849    0.0000 C   0  0  0  0  0  0  0  0  0  0  0  0
   -5.1725   -2.0680    0.0000 C   0  0  0  0  0  0  0  0  0  0  0  0
   -6.5845   -2.5742    0.0000 C   0  0  0  0  0  0  0  0  0  0  0  0
   -7.9478   -3.2000    0.0000 C   0  0  0  0  0  0  0  0  0  0  0  0
   -9.2521   -3.9407    0.0000 C   0  0  0  0  0  0  0  0  0  0  0  0
  -10.4880   -4.7907    0.0000 C   0  0  0  0  0  0  0  0  0  0  0  0
  -11.6463   -5.7439    0.0000 C   0  0  0  0  0  0  0  0  0  0  0  0
  -12.7183   -6.7931    0.0000 C   0  0  0  0  0  0  0  0  0  0  0  0
  -13.6961   -7.9305    0.0000 C   0  0  0  0  0  0  0  0  0  0  0  0
  -14.5726   -9.1478    0.0000 C   0  0  0  0  0  0  0  0  0  0  0  0
  -15.3411  -10.4360    0.0000 C   0  0  0  0  0  0  0  0  0  0  0  0
  -15.9961  -11.7854    0.0000 C   0  0  0  0  0  0  0  0  0  0  0  0
  -16.5326  -13.1862    0.0000 C   0  0  0  0  0  0  0  0  0  0  0  0
  -16.9468  -14.6279    0.0000 C   0  0  0  0  0  0  0  0  0  0  0  0
  -17.2355  -16.0999    0.0000 C   0  0  0  0  0  0  0  0  0  0  0  0
  -17.3965  -17.5912    0.0000 C   0  0  0  0  0  0  0  0  0  0  0  0
  -17.4288  -19.0908    0.0000 C   0  0  0  0  0  0  0  0  0  0  0  0
  -17.3320  -20.5877    0.0000 C   0  0  0  0  0  0  0  0  0  0  0  0
  -17.1070  -22.0707    0.0000 C   0  0  0  0  0  0  0  0  0  0  0  0
  -16.7552  -23.5289    0.0000 C   0  0  0  0  0  0  0  0  0  0  0  0
  -16.2794  -24.9514    0.0000 C   0  0  0  0  0  0  0  0  0  0  0  0
  -15.6831  -26.3278    0.0000 C   0  0  0  0  0  0  0  0  0  0  0  0
  -14.9707  -27.6478    0.0000 C   0  0  0  0  0  0  0  0  0  0  0  0
  -14.1474  -28.9017    0.0000 C   0  0  0  0  0  0  0  0  0  0  0  0
  -13.2194  -30.0802    0.0000 C   0  0  0  0  0  0  0  0  0  0  0  0
  -12.1935  -31.1745    0.0000 C   0  0  0  0  0  0  0  0  0  0  0  0
  -11.0774  -32.1766    0.0000 C   0  0  0  0  0  0  0  0  0  0  0  0
   -9.8792  -33.0791    0.0000 C   0  0  0  0  0  0  0  0  0  0  0  0
   -8.6079  -33.8752    0.0000 C   0  0  0  0  0  0  0  0  0  0  0  0
   -7.2729  -34.5590    0.0000 C   0  0  0  0  0  0  0  0  0  0  0  0
   -5.8840  -35.1256    0.0000 C   0  0  0  0  0  0  0  0  0  0  0  0
   -4.4515  -35.5707    0.0000 C   0  0  0  0  0  0  0  0  0  0  0  0
   -2.9861  -35.8909    0.0000 C   0  0  0  0  0  0  0  0  0  0  0  0
   -1.4986  -36.0841    0.0000 C   0  0  0  0  0  0  0  0  0  0  0  0
   -0.0000  -36.1486    0.0000 C   0  0  0  0  0  0  0  0  0  0  0  0
    1.4986  -36.0841    0.0000 C   0  0  0  0  0  0  0  0  0  0  0  0
    2.9861  -35.8909    0.0000 C   0  0  0  0  0  0  0  0  0  0  0  0
    4.4515  -35.5707    0.0000 C   0  0  0  0  0  0  0  0  0  0  0  0
    5.8840  -35.1256    0.0000 C   0  0  0  0  0  0  0  0  0  0  0  0
    7.2729  -34.5590    0.0000 C   0  0  0  0  0  0  0  0  0  0  0  0
    8.6079  -33.8752    0.0000 C   0  0  0  0  0  0  0  0  0  0  0  0
    9.8792  -33.0791    0.0000 C   0  0  0  0  0  0  0  0  0  0  0  0
   11.0774  -32.1766    0.0000 C   0  0  0  0  0  0  0  0  0  0  0  0
   12.1935  -31.1745    0.0000 C   0  0  0  0  0  0  0  0  0  0  0  0
   13.2194  -30.0802    0.0000 C   0  0  0  0  0  0  0  0  0  0  0  0
   14.1474  -28.9017    0.0000 C   0  0  0  0  0  0  0  0  0  0  0  0
   14.9707  -27.6478    0.0000 C   0  0  0  0  0  0  0  0  0  0  0  0
   15.6831  -26.3278    0.0000 C   0  0  0  0  0  0  0  0  0  0  0  0
   16.2794  -24.9514    0.0000 C   0  0  0  0  0  0  0  0  0  0  0  0
   16.7552  -23.5289    0.0000 C   0  0  0  0  0  0  0  0  0  0  0  0
   17.1070  -22.0707    0.0000 C   0  0  0  0  0  0  0  0  0  0  0  0
   17.3320  -20.5877    0.0000 C   0  0  0  0  0  0  0  0  0  0  0  0
   17.4288  -19.0908    0.0000 C   0  0  0  0  0  0  0  0  0  0  0  0
   17.3965  -17.5912    0.0000 C   0  0  0  0  0  0  0  0  0  0  0  0
   17.2355  -16.0999    0.0000 C   0  0  0  0  0  0  0  0  0  0  0  0
   16.9468  -14.6279    0.0000 C   0  0  0  0  0  0  0  0  0  0  0  0
   16.5326  -13.1862    0.0000 C   0  0  0  0  0  0  0  0  0  0  0  0
   15.9961  -11.7854    0.0000 C   0  0  0  0  0  0  0  0  0  0  0  0
   15.3411  -10.4360    0.0000 C   0  0  0  0  0  0  0  0  0  0  0  0
   14.5726   -9.1478    0.0000 C   0  0  0  0  0  0  0  0  0  0  0  0
   13.6961   -7.9305    0.0000 C   0  0  0  0  0  0  0  0  0  0  0  0
   12.7183   -6.7931    0.0000 C   0  0  0  0  0  0  0  0  0  0  0  0
   11.6463   -5.7439    0.0000 C   0  0  0  0  0  0  0  0  0  0  0  0
   10.4880   -4.7907    0.0000 C   0  0  0  0  0  0  0  0  0  0  0  0
    9.2521   -3.9407    0.0000 C   0  0  0  0  0  0  0  0  0  0  0  0
    7.9478   -3.2000    0.0000 C   0  0  0  0  0  0  0  0  0  0  0  0
    6.5845   -2.5742    0.0000 C   0  0  0  0  0  0  0  0  0  0  0  0
    5.1725   -2.0680    0.0000 C   0  0  0  0  0  0  0  0  0  0  0  0
    3.7223   -1.6849    0.0000 C   0  0  0  0  0  0  0  0  0  0  0  0
    3.9346   -3.1698    0.0000 C   0  0  0  0  0  0  0  0  0  0  0  0
    2.5880   -3.8306    0.0000 C   0  0  0  0  0  0  0  0  0  0  0  0
    1.5434   -2.7541    0.0000 C   0  0  0  0  0  0  0  0  0  0  0  0
    2.2444   -1.4280    0.0000 C   0  0  0  0  0  0  0  0  0  0  0  0
    0.7500   -1.2990    0.0000 C   0  0  0  0  0  0  0  0  0  0  0  0
    1.5000    0.0000    0.0000 C   0  0  0  0  0  0  0  0  0  0  0  0
    0.7500    1.2990    0.0000 C   0  0  0  0  0  0  0  0  0  0  0  0
   -0.7500    1.2990    0.0000 C   0  0  0  0  0  0  0  0  0  0  0  0
   -1.5000    0.0000    0.0000 C   0  0  0  0  0  0  0  0  0  0  0  0
   -0.7500   -1.2990    0.0000 C   0  0  0  0  0  0  0  0  0  0  0  0
  1  2  1  0
  2  3  1  0
  3  4  1  0
  4  5  1  0
  5  6  1  0
  6  7  1  0
  7  8  1  0
  8  9  1  0
  9 10  1  0
 10 11  1  0
 11 12  1  0
 12 13  1  0
 13 14  1  0
 14 15  1  0
 15 16  1  0
 16 17  1  0
 17 18  1  0
 18 19  1  0
 19 20  1  0
 20 21  1  0
 21 22  1  0
 22 23  1  0
 23 24  1  0
 24 25  1  0
 25 26  1  0
 26 27  1  0
 27 28  1  0
 28 29  1  0
 29 30  1  0
 30 31  1  0
 31 32  1  0
 32 33  1  0
 33 34  1  0
 34 35  1  0
 35 36  1  0
 36 37  1  0
 37 38  1  0
 38 39  1  0
 39 40  1  0
 40 41  1  0
 41 42  1  0
 42 43  1  0
 43 44  1  0
 44 45  1  0
 45 46  1  0
 46 47  1  0
 47 48  1  0
 48 49  1  0
 49 50  1  0
 50 51  1  0
 51 52  1  0
 52 53  1  0
 53 54  1  0
 54 55  1  0
 55 56  1  0
 56 57  1  0
 57 58  1  0
 58 59  1  0
 59 60  1  0
 60 61  2  0
 61 62  1  0
 62 63  2  0
 63 64  1  0
 64 65  2  0
 65 66  1  0
 66 67  2  0
 67 68  1  0
 68 69  2  0
 69 70  1  0
 70 71  2  0
 71 72  1  0
 72 73  2  0
 73 74  1  0
 74 75  2  0
 75 76  1  0
 76 77  2  0
 77 78  1  0
 78 79  2  0
 79 80  1  0
 80 81  2  0
 81  2  1  0
 75 71  1  0
 81 76  1  0
M  END
>  <Title>  (455) 
idAAPOgen13

$$$$

     RDKit          2D

 44 44  0  0  0  0  0  0  0  0999 V2000
   58.5000    0.0000    0.0000 C   0  0  0  0  0  0  0  0  0  0  0  0
   57.0000    0.0000    0.0000 C   0  0  0  0  0  0  0  0  0  0  0  0
   55.5000    0.0000    0.0000 C   0  0  0  0  0  0  0  0  0  0  0  0
   54.0000    0.0000    0.0000 C   0  0  0  0  0  0  0  0  0  0  0  0
   52.5000    0.0000    0.0000 C   0  0  0  0  0  0  0  0  0  0  0  0
   51.0000    0.0000    0.0000 C   0  0  0  0  0  0  0  0  0  0  0  0
   49.5000    0.0000    0.0000 C   0  0  0  0  0  0  0  0  0  0  0  0
   48.0000    0.0000    0.0000 C   0  0  0  0  0  0  0  0  0  0  0  0
   46.5000    0.0000    0.0000 C   0  0  0  0  0  0  0  0  0  0  0  0
   45.0000    0.0000    0.0000 C   0  0  0  0  0  0  0  0  0  0  0  0
   43.5000    0.0000    0.0000 C   0  0  0  0  0  0  0  0  0  0  0  0
   42.0000    0.0000    0.0000 C   0  0  0  0  0  0  0  0  0  0  0  0
   40.5000    0.0000    0.0000 C   0  0  0  0  0  0  0  0  0  0  0  0
   39.0000    0.0000    0.0000 C   0  0  0  0  0  0  0  0  0  0  0  0
   37.5000    0.0000    0.0000 C   0  0  0  0  0  0  0  0  0  0  0  0
   36.0000    0.0000    0.0000 C   0  0  0  0  0  0  0  0  0  0  0  0
   34.5000    0.0000    0.0000 C   0  0  0  0  0  0  0  0  0  0  0  0
   33.0000    0.0000    0.0000 C   0  0  0  0  0  0  0  0  0  0  0  0
   31.5000    0.0000    0.0000 C   0  0  0  0  0  0  0  0  0  0  0  0
   30.0000    0.0000    0.0000 C   0  0  0  0  0  0  0  0  0  0  0  0
   28.5000    0.0000    0.0000 C   0  0  0  0  0  0  0  0  0  0  0  0
   27.0000    0.0000    0.0000 C   0  0  0  0  0  0  0  0  0  0  0  0
   25.5000    0.0000    0.0000 C   0  0  0  0  0  0  0  0  0  0  0  0
   24.0000    0.0000    0.0000 C   0  0  0  0  0  0  0  0  0  0  0  0
   22.5000    0.0000    0.0000 C   0  0  0  0  0  0  0  0  0  0  0  0
   21.0000    0.0000    0.0000 C   0  0  0  0  0  0  0  0  0  0  0  0
   19.5000    0.0000    0.0000 C   0  0  0  0  0  0  0  0  0  0  0  0
   18.0000    0.0000    0.0000 C   0  0  0  0  0  0  0  0  0  0  0  0
   16.5000    0.0000    0.0000 C   0  0  0  0  0  0  0  0  0  0  0  0
   15.0000    0.0000    0.0000 C   0  0  0  0  0  0  0  0  0  0  0  0
   13.5000    0.0000    0.0000 C   0  0  0  0  0  0  0  0  0  0  0  0
   12.0000    0.0000    0.0000 C   0  0  0  0  0  0  0  0  0  0  0  0
   10.5000    0.0000    0.0000 C   0  0  0  0  0  0  0  0  0  0  0  0
    9.0000    0.0000    0.0000 C   0  0  0  0  0  0  0  0  0  0  0  0
    7.5000    0.0000    0.0000 C   0  0  0  0  0  0  0  0  0  0  0  0
    6.0000    0.0000    0.0000 C   0  0  0  0  0  0  0  0  0  0  0  0
    4.5000    0.0000    0.0000 C   0  0  0  0  0  0  0  0  0  0  0  0
    3.0000    0.0000    0.0000 C   0  0  0  0  0  0  0  0  0  0  0  0
    1.5000    0.0000    0.0000 C   0  0  0  0  0  0  0  0  0  0  0  0
    0.7500   -1.2990    0.0000 C   0  0  0  0  0  0  0  0  0  0  0  0
   -0.7500   -1.2990    0.0000 C   0  0  0  0  0  0  0  0  0  0  0  0
   -1.5000    0.0000    0.0000 C   0  0  0  0  0  0  0  0  0  0  0  0
   -0.7500    1.2990    0.0000 C   0  0  0  0  0  0  0  0  0  0  0  0
    0.7500    1.2990    0.0000 C   0  0  0  0  0  0  0  0  0  0  0  0
  1  2  3  0
  2  3  1  0
  3  4  3  0
  4  5  1  0
  5  6  3  0
  6  7  1  0
  7  8  3  0
  8  9  1  0
  9 10  3  0
 10 11  1  0
 11 12  3  0
 12 13  1  0
 13 14  3  0
 14 15  1  0
 15 16  3  0
 16 17  1  0
 17 18  3  0
 18 19  1  0
 19 20  3  0
 20 21  1  0
 21 22  3  0
 22 23  1  0
 23 24  3  0
 24 25  1  0
 25 26  3  0
 26 27  1  0
 27 28  3  0
 28 29  1  0
 29 30  3  0
 30 31  1  0
 31 32  3  0
 32 33  1  0
 33 34  3  0
 34 35  1  0
 35 36  3  0
 36 37  1  0
 37 38  3  0
 38 39  1  0
 39 40  2  0
 40 41  1  0
 41 42  2  0
 42 43  1  0
 43 44  2  0
 44 39  1  0
M  END
>  <Title>  (456) 
idAAPPgen13

$$$$

     RDKit          2D

 18 17  0  0  0  0  0  0  0  0999 V2000
    0.0000    0.0000    0.0000 C   0  0  0  0  0  0  0  0  0  0  0  0
    1.2990    0.7500    0.0000 C   0  0  0  0  0  0  0  0  0  0  0  0
    2.5981   -0.0000    0.0000 C   0  0  0  0  0  0  0  0  0  0  0  0
    3.8971    0.7500    0.0000 C   0  0  0  0  0  0  0  0  0  0  0  0
    5.1962   -0.0000    0.0000 C   0  0  0  0  0  0  0  0  0  0  0  0
    5.1962   -1.5000    0.0000 O   0  0  0  0  0  0  0  0  0  0  0  0
    6.4952    0.7500    0.0000 N   0  0  0  0  0  0  0  0  0  0  0  0
    7.7942   -0.0000    0.0000 C   0  0  0  0  0  0  0  0  0  0  0  0
    7.7942   -1.5000    0.0000 O   0  0  0  0  0  0  0  0  0  0  0  0
    9.0933    0.7500    0.0000 C   0  0  0  0  0  0  0  0  0  0  0  0
   10.3923   -0.0000    0.0000 C   0  0  0  0  0  0  0  0  0  0  0  0
   11.6913    0.7500    0.0000 C   0  0  0  0  0  0  0  0  0  0  0  0
   10.3923   -1.5000    0.0000 N   0  0  0  0  0  0  0  0  0  0  0  0
   11.6913   -2.2500    0.0000 C   0  0  0  0  0  0  0  0  0  0  0  0
   12.9904   -1.5000    0.0000 O   0  0  0  0  0  0  0  0  0  0  0  0
   11.6913   -3.7500    0.0000 C   0  0  0  0  0  0  0  0  0  0  0  0
   12.9904   -4.5000    0.0000 C   0  0  0  0  0  0  0  0  0  0  0  0
   12.9904   -6.0000    0.0000 C   0  0  0  0  0  0  0  0  0  0  0  0
  1  2  2  0
  2  3  1  0
  3  4  1  0
  4  5  1  0
  5  6  2  0
  5  7  1  0
  7  8  1  0
  8  9  2  0
  8 10  1  0
 10 11  1  0
 11 12  1  0
 11 13  1  0
 13 14  1  0
 14 15  2  0
 14 16  1  0
 16 17  1  0
 17 18  1  0
M  END
>  <Title>  (457) 
idAAPQgen13

$$$$

     RDKit          2D

 30 33  0  0  0  0  0  0  0  0999 V2000
    6.4023    0.5865    0.0000 C   0  0  0  0  0  0  0  0  0  0  0  0
    7.1523   -0.7126    0.0000 C   0  0  0  0  0  0  0  0  0  0  0  0
    6.5422   -2.0829    0.0000 C   0  0  0  0  0  0  0  0  0  0  0  0
    7.6569   -3.0866    0.0000 C   0  0  0  0  0  0  0  0  0  0  0  0
    7.5001   -4.5784    0.0000 C   0  0  0  0  0  0  0  0  0  0  0  0
    8.7136   -5.4601    0.0000 O   0  0  0  0  0  0  0  0  0  0  0  0
    6.1298   -5.1885    0.0000 N   0  0  0  0  0  0  0  0  0  0  0  0
    5.9730   -6.6803    0.0000 C   0  0  0  0  0  0  0  0  0  0  0  0
    7.0877   -7.6840    0.0000 N   0  0  0  0  0  0  0  0  0  0  0  0
    6.4776   -9.0543    0.0000 N   0  0  0  0  0  0  0  0  0  0  0  0
    4.9858   -8.8975    0.0000 N   0  0  0  0  0  0  0  0  0  0  0  0
    4.6740   -7.4303    0.0000 N   0  0  0  0  0  0  0  0  0  0  0  0
    3.3037   -6.8202    0.0000 N   0  0  0  0  0  0  0  0  0  0  0  0
    2.0046   -7.5702    0.0000 C   0  0  0  0  0  0  0  0  0  0  0  0
    0.8899   -6.5665    0.0000 C   0  0  0  0  0  0  0  0  0  0  0  0
    1.5000   -5.1962    0.0000 N   0  0  0  0  0  0  0  0  0  0  0  0
    0.7500   -3.8971    0.0000 C   0  0  0  0  0  0  0  0  0  0  0  0
   -0.7500   -3.8971    0.0000 O   0  0  0  0  0  0  0  0  0  0  0  0
    1.5000   -2.5981    0.0000 N   0  0  0  0  0  0  0  0  0  0  0  0
    0.7500   -1.2990    0.0000 C   0  0  0  0  0  0  0  0  0  0  0  0
    1.5000    0.0000    0.0000 N   0  0  0  0  0  0  0  0  0  0  0  0
    0.7500    1.2990    0.0000 N   0  0  0  0  0  0  0  0  0  0  0  0
   -0.7500    1.2990    0.0000 N   0  0  0  0  0  0  0  0  0  0  0  0
   -1.5000    0.0000    0.0000 N   0  0  0  0  0  0  0  0  0  0  0  0
   -0.7500   -1.2990    0.0000 N   0  0  0  0  0  0  0  0  0  0  0  0
    2.9918   -5.3529    0.0000 C   0  0  0  0  0  0  0  0  0  0  0  0
    3.9955   -4.2382    0.0000 O   0  0  0  0  0  0  0  0  0  0  0  0
    8.9559   -2.3366    0.0000 C   0  0  0  0  0  0  0  0  0  0  0  0
   10.3263   -2.9467    0.0000 O   0  0  0  0  0  0  0  0  0  0  0  0
    8.6441   -0.8694    0.0000 O   0  0  0  0  0  0  0  0  0  0  0  0
  1  2  1  0
  2  3  2  0
  3  4  1  0
  4  5  1  0
  5  6  2  0
  5  7  1  0
  7  8  1  0
  8  9  2  0
  9 10  1  0
 10 11  2  0
 11 12  1  0
 12 13  1  0
 13 14  1  0
 14 15  1  0
 15 16  1  0
 16 17  1  0
 17 18  2  0
 17 19  1  0
 19 20  1  0
 20 21  2  0
 21 22  1  0
 22 23  2  0
 23 24  1  0
 24 25  2  0
 16 26  1  0
 26 27  2  0
  4 28  1  0
 28 29  2  0
 28 30  1  0
 30  2  1  0
 12  8  1  0
 26 13  1  0
 25 20  1  0
M  END
>  <Title>  (458) 
idAAPRgen13

$$$$

     RDKit          2D

 92 93  0  0  0  0  0  0  0  0999 V2000
   -2.1799   -1.0785    0.0000 C   0  0  0  0  0  0  0  0  0  0  0  0
   -2.4883    0.3894    0.0000 C   0  0  0  0  0  0  0  0  0  0  0  0
   -3.9663    0.1336    0.0000 C   0  0  0  0  0  0  0  0  0  0  0  0
   -5.4588   -0.0160    0.0000 C   0  0  0  0  0  0  0  0  0  0  0  0
   -6.9582   -0.0589    0.0000 C   0  0  0  0  0  0  0  0  0  0  0  0
   -8.4569    0.0054    0.0000 C   0  0  0  0  0  0  0  0  0  0  0  0
   -9.9471    0.1763    0.0000 C   0  0  0  0  0  0  0  0  0  0  0  0
  -11.4213    0.4532    0.0000 C   0  0  0  0  0  0  0  0  0  0  0  0
  -12.8720    0.8345    0.0000 C   0  0  0  0  0  0  0  0  0  0  0  0
  -14.2918    1.3184    0.0000 C   0  0  0  0  0  0  0  0  0  0  0  0
  -15.6735    1.9023    0.0000 C   0  0  0  0  0  0  0  0  0  0  0  0
  -17.0100    2.5833    0.0000 C   0  0  0  0  0  0  0  0  0  0  0  0
  -18.2946    3.3579    0.0000 C   0  0  0  0  0  0  0  0  0  0  0  0
  -19.5206    4.2221    0.0000 C   0  0  0  0  0  0  0  0  0  0  0  0
  -20.6818    5.1717    0.0000 C   0  0  0  0  0  0  0  0  0  0  0  0
  -21.7723    6.2016    0.0000 C   0  0  0  0  0  0  0  0  0  0  0  0
  -22.7866    7.3067    0.0000 C   0  0  0  0  0  0  0  0  0  0  0  0
  -23.7194    8.4814    0.0000 C   0  0  0  0  0  0  0  0  0  0  0  0
  -24.5661    9.7196    0.0000 C   0  0  0  0  0  0  0  0  0  0  0  0
  -25.3222   11.0150    0.0000 C   0  0  0  0  0  0  0  0  0  0  0  0
  -25.9841   12.3611    0.0000 C   0  0  0  0  0  0  0  0  0  0  0  0
  -26.5482   13.7510    0.0000 C   0  0  0  0  0  0  0  0  0  0  0  0
  -27.0117   15.1776    0.0000 C   0  0  0  0  0  0  0  0  0  0  0  0
  -27.3723   16.6336    0.0000 C   0  0  0  0  0  0  0  0  0  0  0  0
  -27.6281   18.1116    0.0000 C   0  0  0  0  0  0  0  0  0  0  0  0
  -27.7778   19.6041    0.0000 C   0  0  0  0  0  0  0  0  0  0  0  0
  -27.8206   21.1035    0.0000 C   0  0  0  0  0  0  0  0  0  0  0  0
  -27.7563   22.6022    0.0000 C   0  0  0  0  0  0  0  0  0  0  0  0
  -27.5854   24.0924    0.0000 C   0  0  0  0  0  0  0  0  0  0  0  0
  -27.3085   25.5666    0.0000 C   0  0  0  0  0  0  0  0  0  0  0  0
  -26.9272   27.0173    0.0000 C   0  0  0  0  0  0  0  0  0  0  0  0
  -26.4433   28.4371    0.0000 C   0  0  0  0  0  0  0  0  0  0  0  0
  -25.8594   29.8188    0.0000 C   0  0  0  0  0  0  0  0  0  0  0  0
  -25.1784   31.1553    0.0000 C   0  0  0  0  0  0  0  0  0  0  0  0
  -24.4038   32.4399    0.0000 C   0  0  0  0  0  0  0  0  0  0  0  0
  -23.5396   33.6659    0.0000 C   0  0  0  0  0  0  0  0  0  0  0  0
  -22.5901   34.8271    0.0000 C   0  0  0  0  0  0  0  0  0  0  0  0
  -21.5601   35.9176    0.0000 C   0  0  0  0  0  0  0  0  0  0  0  0
  -20.4550   36.9318    0.0000 C   0  0  0  0  0  0  0  0  0  0  0  0
  -19.2803   37.8647    0.0000 C   0  0  0  0  0  0  0  0  0  0  0  0
  -18.0421   38.7114    0.0000 C   0  0  0  0  0  0  0  0  0  0  0  0
  -16.7467   39.4675    0.0000 C   0  0  0  0  0  0  0  0  0  0  0  0
  -15.4006   40.1294    0.0000 C   0  0  0  0  0  0  0  0  0  0  0  0
  -14.0107   40.6935    0.0000 C   0  0  0  0  0  0  0  0  0  0  0  0
  -12.5841   41.1570    0.0000 C   0  0  0  0  0  0  0  0  0  0  0  0
  -11.1281   41.5176    0.0000 C   0  0  0  0  0  0  0  0  0  0  0  0
   -9.6501   41.7734    0.0000 C   0  0  0  0  0  0  0  0  0  0  0  0
   -8.1576   41.9230    0.0000 C   0  0  0  0  0  0  0  0  0  0  0  0
   -6.6582   41.9659    0.0000 C   0  0  0  0  0  0  0  0  0  0  0  0
   -5.1596   41.9016    0.0000 C   0  0  0  0  0  0  0  0  0  0  0  0
   -3.6693   41.7307    0.0000 C   0  0  0  0  0  0  0  0  0  0  0  0
   -2.1951   41.4538    0.0000 C   0  0  0  0  0  0  0  0  0  0  0  0
   -0.7444   41.0725    0.0000 C   0  0  0  0  0  0  0  0  0  0  0  0
    0.6754   40.5886    0.0000 C   0  0  0  0  0  0  0  0  0  0  0  0
    2.0571   40.0047    0.0000 C   0  0  0  0  0  0  0  0  0  0  0  0
    3.3936   39.3237    0.0000 C   0  0  0  0  0  0  0  0  0  0  0  0
    4.6782   38.5491    0.0000 C   0  0  0  0  0  0  0  0  0  0  0  0
    5.9042   37.6849    0.0000 C   0  0  0  0  0  0  0  0  0  0  0  0
    7.0654   36.7353    0.0000 C   0  0  0  0  0  0  0  0  0  0  0  0
    8.1559   35.7054    0.0000 C   0  0  0  0  0  0  0  0  0  0  0  0
    9.1701   34.6003    0.0000 C   0  0  0  0  0  0  0  0  0  0  0  0
   10.1030   33.4256    0.0000 C   0  0  0  0  0  0  0  0  0  0  0  0
   10.9496   32.1874    0.0000 C   0  0  0  0  0  0  0  0  0  0  0  0
   11.7058   30.8920    0.0000 C   0  0  0  0  0  0  0  0  0  0  0  0
   12.3677   29.5459    0.0000 C   0  0  0  0  0  0  0  0  0  0  0  0
   12.9318   28.1560    0.0000 C   0  0  0  0  0  0  0  0  0  0  0  0
   13.3953   26.7294    0.0000 C   0  0  0  0  0  0  0  0  0  0  0  0
   13.7559   25.2734    0.0000 C   0  0  0  0  0  0  0  0  0  0  0  0
   14.0117   23.7954    0.0000 C   0  0  0  0  0  0  0  0  0  0  0  0
   14.1613   22.3029    0.0000 C   0  0  0  0  0  0  0  0  0  0  0  0
   14.2042   20.8035    0.0000 C   0  0  0  0  0  0  0  0  0  0  0  0
   14.1399   19.3048    0.0000 C   0  0  0  0  0  0  0  0  0  0  0  0
   13.9689   17.8146    0.0000 C   0  0  0  0  0  0  0  0  0  0  0  0
   13.6921   16.3404    0.0000 C   0  0  0  0  0  0  0  0  0  0  0  0
   13.3108   14.8897    0.0000 C   0  0  0  0  0  0  0  0  0  0  0  0
   12.8269   13.4699    0.0000 C   0  0  0  0  0  0  0  0  0  0  0  0
   12.2430   12.0882    0.0000 C   0  0  0  0  0  0  0  0  0  0  0  0
   11.5620   10.7517    0.0000 C   0  0  0  0  0  0  0  0  0  0  0  0
   10.7874    9.4671    0.0000 C   0  0  0  0  0  0  0  0  0  0  0  0
    9.9232    8.2411    0.0000 C   0  0  0  0  0  0  0  0  0  0  0  0
    8.9736    7.0799    0.0000 C   0  0  0  0  0  0  0  0  0  0  0  0
    7.9437    5.9894    0.0000 C   0  0  0  0  0  0  0  0  0  0  0  0
    6.8386    4.9752    0.0000 C   0  0  0  0  0  0  0  0  0  0  0  0
    5.6639    4.0423    0.0000 C   0  0  0  0  0  0  0  0  0  0  0  0
    4.4257    3.1956    0.0000 C   0  0  0  0  0  0  0  0  0  0  0  0
    3.1303    2.4395    0.0000 C   0  0  0  0  0  0  0  0  0  0  0  0
    1.7842    1.7776    0.0000 C   0  0  0  0  0  0  0  0  0  0  0  0
    0.3943    1.2135    0.0000 C   0  0  0  0  0  0  0  0  0  0  0  0
    1.2760    0.0000    0.0000 C   0  0  0  0  0  0  0  0  0  0  0  0
    0.3943   -1.2135    0.0000 C   0  0  0  0  0  0  0  0  0  0  0  0
   -1.0323   -0.7500    0.0000 C   0  0  0  0  0  0  0  0  0  0  0  0
   -1.0323    0.7500    0.0000 C   0  0  0  0  0  0  0  0  0  0  0  0
  1  2  1  0
  2  3  1  0
  3  4  1  0
  4  5  1  0
  5  6  2  0
  6  7  1  0
  7  8  1  0
  8  9  1  0
  9 10  1  0
 10 11  1  0
 11 12  1  0
 12 13  1  0
 13 14  1  0
 14 15  1  0
 15 16  1  0
 16 17  1  0
 17 18  1  0
 18 19  1  0
 19 20  1  0
 20 21  1  0
 21 22  1  0
 22 23  1  0
 23 24  1  0
 24 25  1  0
 25 26  1  0
 26 27  1  0
 27 28  1  0
 28 29  1  0
 29 30  1  0
 30 31  1  0
 31 32  1  0
 32 33  1  0
 33 34  1  0
 34 35  1  0
 35 36  1  0
 36 37  1  0
 37 38  1  0
 38 39  1  0
 39 40  1  0
 40 41  1  0
 41 42  1  0
 42 43  1  0
 43 44  1  0
 44 45  1  0
 45 46  1  0
 46 47  1  0
 47 48  1  0
 48 49  1  0
 49 50  1  0
 50 51  1  0
 51 52  1  0
 52 53  1  0
 53 54  1  0
 54 55  1  0
 55 56  1  0
 56 57  1  0
 57 58  1  0
 58 59  1  0
 59 60  1  0
 60 61  1  0
 61 62  1  0
 62 63  1  0
 63 64  1  0
 64 65  1  0
 65 66  1  0
 66 67  1  0
 67 68  2  0
 68 69  1  0
 69 70  2  0
 70 71  1  0
 71 72  2  0
 72 73  1  0
 73 74  2  0
 74 75  1  0
 75 76  2  0
 76 77  1  0
 77 78  2  0
 78 79  1  0
 79 80  2  0
 80 81  1  0
 81 82  2  0
 82 83  1  0
 83 84  2  0
 84 85  1  0
 85 86  2  0
 86 87  1  0
 87 88  2  0
 88 89  1  0
 89 90  2  0
 90 91  1  0
 91 92  2  0
 92  2  1  0
 92 88  1  0
M  END
>  <Title>  (459) 
idAAPSgen13

$$$$

     RDKit          2D

 13 12  0  0  0  0  0  0  0  0999 V2000
    0.0000    0.0000    0.0000 C   0  0  0  0  0  0  0  0  0  0  0  0
    1.2990    0.7500    0.0000 C   0  0  0  0  0  0  0  0  0  0  0  0
    2.5981   -0.0000    0.0000 C   0  0  0  0  0  0  0  0  0  0  0  0
    3.8971    0.7500    0.0000 C   0  0  0  0  0  0  0  0  0  0  0  0
    5.1962   -0.0000    0.0000 C   0  0  0  0  0  0  0  0  0  0  0  0
    5.1962   -1.5000    0.0000 O   0  0  0  0  0  0  0  0  0  0  0  0
    6.4952    0.7500    0.0000 N   0  0  0  0  0  0  0  0  0  0  0  0
    7.7942   -0.0000    0.0000 C   0  0  0  0  0  0  0  0  0  0  0  0
    7.7942   -1.5000    0.0000 O   0  0  0  0  0  0  0  0  0  0  0  0
    9.0933    0.7500    0.0000 C   0  0  0  0  0  0  0  0  0  0  0  0
   10.3923   -0.0000    0.0000 C   0  0  0  0  0  0  0  0  0  0  0  0
   11.6913    0.7500    0.0000 C   0  0  0  0  0  0  0  0  0  0  0  0
   12.9904   -0.0000    0.0000 C   0  0  0  0  0  0  0  0  0  0  0  0
  1  2  2  0
  2  3  1  0
  3  4  1  0
  4  5  1  0
  5  6  2  0
  5  7  1  0
  7  8  1  0
  8  9  2  0
  8 10  1  0
 10 11  1  0
 11 12  1  0
 12 13  1  0
M  END
>  <Title>  (460) 
idAAPTgen13

$$$$

     RDKit          2D

  7  6  0  0  0  0  0  0  0  0999 V2000
    0.0000    0.0000    0.0000 C   0  0  0  0  0  0  0  0  0  0  0  0
    1.2990    0.7500    0.0000 C   0  0  0  0  0  0  0  0  0  0  0  0
    2.5981   -0.0000    0.0000 C   0  0  0  0  0  0  0  0  0  0  0  0
    3.8971    0.7500    0.0000 C   0  0  0  0  0  0  0  0  0  0  0  0
    5.1962   -0.0000    0.0000 C   0  0  0  0  0  0  0  0  0  0  0  0
    6.4952    0.7500    0.0000 C   0  0  0  0  0  0  0  0  0  0  0  0
    5.1962   -1.5000    0.0000 C   0  0  0  0  0  0  0  0  0  0  0  0
  1  2  1  0
  2  3  1  0
  3  4  1  0
  4  5  1  0
  5  6  1  0
  5  7  1  0
M  END
>  <Title>  (461) 
idAAPUgen13

$$$$

     RDKit          2D

 10 10  0  0  0  0  0  0  0  0999 V2000
    6.0000   -2.5981    0.0000 C   0  0  0  0  0  0  0  0  0  0  0  0
    5.2500   -1.2990    0.0000 C   0  0  0  0  0  0  0  0  0  0  0  0
    3.7500   -1.2990    0.0000 C   0  0  0  0  0  0  0  0  0  0  0  0
    3.0000    0.0000    0.0000 C   0  0  0  0  0  0  0  0  0  0  0  0
    1.5000    0.0000    0.0000 C   0  0  0  0  0  0  0  0  0  0  0  0
    0.7500   -1.2990    0.0000 C   0  0  0  0  0  0  0  0  0  0  0  0
   -0.7500   -1.2990    0.0000 C   0  0  0  0  0  0  0  0  0  0  0  0
   -1.5000    0.0000    0.0000 C   0  0  0  0  0  0  0  0  0  0  0  0
   -0.7500    1.2990    0.0000 C   0  0  0  0  0  0  0  0  0  0  0  0
    0.7500    1.2990    0.0000 C   0  0  0  0  0  0  0  0  0  0  0  0
  1  2  2  0
  2  3  1  0
  3  4  1  0
  4  5  1  0
  5  6  2  0
  6  7  1  0
  7  8  2  0
  8  9  1  0
  9 10  2  0
 10  5  1  0
M  END
>  <Title>  (462) 
idAAPVgen13

$$$$

     RDKit          2D

 15 14  0  0  0  0  0  0  0  0999 V2000
    0.0000    0.0000    0.0000 C   0  0  0  0  0  0  0  0  0  0  0  0
   -0.0000   -1.5000    0.0000 C   0  0  0  0  0  0  0  0  0  0  0  0
   -0.0000   -3.0000    0.0000 C   0  0  0  0  0  0  0  0  0  0  0  0
   -0.0000   -4.5000    0.0000 C   0  0  0  0  0  0  0  0  0  0  0  0
   -0.0000   -6.0000    0.0000 C   0  0  0  0  0  0  0  0  0  0  0  0
   -0.0000   -7.5000    0.0000 C   0  0  0  0  0  0  0  0  0  0  0  0
   -0.0000   -9.0000    0.0000 C   0  0  0  0  0  0  0  0  0  0  0  0
   -0.0000  -10.5000    0.0000 C   0  0  0  0  0  0  0  0  0  0  0  0
   -0.0000  -12.0000    0.0000 C   0  0  0  0  0  0  0  0  0  0  0  0
   -0.0000  -13.5000    0.0000 C   0  0  0  0  0  0  0  0  0  0  0  0
   -0.0000  -15.0000    0.0000 C   0  0  0  0  0  0  0  0  0  0  0  0
   -0.0000  -16.5000    0.0000 C   0  0  0  0  0  0  0  0  0  0  0  0
   -0.0000  -18.0000    0.0000 C   0  0  0  0  0  0  0  0  0  0  0  0
   -0.0000  -19.5000    0.0000 C   0  0  0  0  0  0  0  0  0  0  0  0
   -0.0000  -21.0000    0.0000 C   0  0  0  0  0  0  0  0  0  0  0  0
  1  2  3  0
  2  3  1  0
  3  4  3  0
  4  5  1  0
  5  6  3  0
  6  7  1  0
  7  8  3  0
  8  9  1  0
  9 10  3  0
 10 11  1  0
 11 12  3  0
 12 13  1  0
 13 14  3  0
 14 15  1  0
M  END
>  <Title>  (463) 
idAAPWgen13

$$$$

     RDKit          2D

 23 24  0  0  0  0  0  0  0  0999 V2000
  -12.1141   -3.7162    0.0000 C   0  0  0  0  0  0  0  0  0  0  0  0
  -10.9240   -2.8030    0.0000 C   0  0  0  0  0  0  0  0  0  0  0  0
   -9.5382   -3.3770    0.0000 C   0  0  0  0  0  0  0  0  0  0  0  0
   -8.3482   -2.4639    0.0000 C   0  0  0  0  0  0  0  0  0  0  0  0
   -6.9624   -3.0379    0.0000 N   0  0  0  0  0  0  0  0  0  0  0  0
   -5.7723   -2.1248    0.0000 C   0  0  0  0  0  0  0  0  0  0  0  0
   -5.9681   -0.6376    0.0000 O   0  0  0  0  0  0  0  0  0  0  0  0
   -4.3865   -2.6988    0.0000 N   0  0  0  0  0  0  0  0  0  0  0  0
   -3.1965   -1.7857    0.0000 C   0  0  0  0  0  0  0  0  0  0  0  0
   -1.8107   -2.3597    0.0000 C   0  0  0  0  0  0  0  0  0  0  0  0
   -1.8107   -3.8597    0.0000 C   0  0  0  0  0  0  0  0  0  0  0  0
   -0.7500   -4.9204    0.0000 C   0  0  0  0  0  0  0  0  0  0  0  0
    0.7500   -4.9204    0.0000 C   0  0  0  0  0  0  0  0  0  0  0  0
    1.3240   -6.3062    0.0000 C   0  0  0  0  0  0  0  0  0  0  0  0
    1.8107   -3.8597    0.0000 C   0  0  0  0  0  0  0  0  0  0  0  0
    3.1965   -4.4337    0.0000 C   0  0  0  0  0  0  0  0  0  0  0  0
    1.8107   -2.3597    0.0000 C   0  0  0  0  0  0  0  0  0  0  0  0
    0.7500   -1.2990    0.0000 C   0  0  0  0  0  0  0  0  0  0  0  0
    1.5000    0.0000    0.0000 C   0  0  0  0  0  0  0  0  0  0  0  0
    0.7500    1.2990    0.0000 C   0  0  0  0  0  0  0  0  0  0  0  0
   -0.7500    1.2990    0.0000 C   0  0  0  0  0  0  0  0  0  0  0  0
   -1.5000    0.0000    0.0000 C   0  0  0  0  0  0  0  0  0  0  0  0
   -0.7500   -1.2990    0.0000 C   0  0  0  0  0  0  0  0  0  0  0  0
  1  2  2  0
  2  3  1  0
  3  4  1  0
  4  5  1  0
  5  6  1  0
  6  7  2  0
  6  8  1  0
  8  9  1  0
  9 10  1  0
 10 11  1  0
 11 12  1  0
 12 13  1  0
 13 14  1  0
 13 15  1  0
 15 16  2  0
 15 17  1  0
 17 18  1  0
 18 19  2  0
 19 20  1  0
 20 21  2  0
 21 22  1  0
 22 23  2  0
 23 10  1  0
 23 18  1  0
M  END
>  <Title>  (464) 
idAAPXgen13

$$$$

     RDKit          2D

 86 87  0  0  0  0  0  0  0  0999 V2000
    3.4764    4.0827    0.0000 C   0  0  0  0  0  0  0  0  0  0  0  0
    4.2462    4.2896    0.0000 C   0  0  0  0  0  0  0  0  0  0  0  0
    3.9285    5.7556    0.0000 C   0  0  0  0  0  0  0  0  0  0  0  0
    3.7560    7.2456    0.0000 C   0  0  0  0  0  0  0  0  0  0  0  0
    3.7304    8.7454    0.0000 C   0  0  0  0  0  0  0  0  0  0  0  0
    3.8519   10.2405    0.0000 C   0  0  0  0  0  0  0  0  0  0  0  0
    4.1194   11.7164    0.0000 C   0  0  0  0  0  0  0  0  0  0  0  0
    4.5303   13.1591    0.0000 C   0  0  0  0  0  0  0  0  0  0  0  0
    5.0806   14.5545    0.0000 C   0  0  0  0  0  0  0  0  0  0  0  0
    5.7650   15.8893    0.0000 C   0  0  0  0  0  0  0  0  0  0  0  0
    6.5769   17.1505    0.0000 C   0  0  0  0  0  0  0  0  0  0  0  0
    7.5086   18.3261    0.0000 C   0  0  0  0  0  0  0  0  0  0  0  0
    8.5510   19.4047    0.0000 C   0  0  0  0  0  0  0  0  0  0  0  0
    9.6941   20.3760    0.0000 C   0  0  0  0  0  0  0  0  0  0  0  0
   10.9268   21.2305    0.0000 C   0  0  0  0  0  0  0  0  0  0  0  0
   12.2375   21.9601    0.0000 C   0  0  0  0  0  0  0  0  0  0  0  0
   13.6133   22.5577    0.0000 C   0  0  0  0  0  0  0  0  0  0  0  0
   15.0410   23.0175    0.0000 C   0  0  0  0  0  0  0  0  0  0  0  0
   16.5070   23.3352    0.0000 C   0  0  0  0  0  0  0  0  0  0  0  0
   17.9971   23.5077    0.0000 C   0  0  0  0  0  0  0  0  0  0  0  0
   19.4968   23.5333    0.0000 C   0  0  0  0  0  0  0  0  0  0  0  0
   20.9919   23.4118    0.0000 C   0  0  0  0  0  0  0  0  0  0  0  0
   22.4679   23.1444    0.0000 C   0  0  0  0  0  0  0  0  0  0  0  0
   23.9105   22.7335    0.0000 C   0  0  0  0  0  0  0  0  0  0  0  0
   25.3059   22.1832    0.0000 C   0  0  0  0  0  0  0  0  0  0  0  0
   26.6407   21.4988    0.0000 C   0  0  0  0  0  0  0  0  0  0  0  0
   27.9019   20.6869    0.0000 C   0  0  0  0  0  0  0  0  0  0  0  0
   29.0775   19.7552    0.0000 C   0  0  0  0  0  0  0  0  0  0  0  0
   30.1561   18.7128    0.0000 C   0  0  0  0  0  0  0  0  0  0  0  0
   31.1274   17.5697    0.0000 C   0  0  0  0  0  0  0  0  0  0  0  0
   31.9819   16.3369    0.0000 C   0  0  0  0  0  0  0  0  0  0  0  0
   32.7115   15.0263    0.0000 C   0  0  0  0  0  0  0  0  0  0  0  0
   33.3091   13.6505    0.0000 C   0  0  0  0  0  0  0  0  0  0  0  0
   33.7690   12.2227    0.0000 C   0  0  0  0  0  0  0  0  0  0  0  0
   34.0867   10.7568    0.0000 C   0  0  0  0  0  0  0  0  0  0  0  0
   34.2592    9.2667    0.0000 C   0  0  0  0  0  0  0  0  0  0  0  0
   34.2848    7.7669    0.0000 C   0  0  0  0  0  0  0  0  0  0  0  0
   34.1633    6.2719    0.0000 C   0  0  0  0  0  0  0  0  0  0  0  0
   33.8958    4.7959    0.0000 C   0  0  0  0  0  0  0  0  0  0  0  0
   33.4849    3.3533    0.0000 C   0  0  0  0  0  0  0  0  0  0  0  0
   32.9347    1.9578    0.0000 C   0  0  0  0  0  0  0  0  0  0  0  0
   32.2502    0.6231    0.0000 C   0  0  0  0  0  0  0  0  0  0  0  0
   31.4383   -0.6382    0.0000 C   0  0  0  0  0  0  0  0  0  0  0  0
   30.5067   -1.8138    0.0000 C   0  0  0  0  0  0  0  0  0  0  0  0
   29.4643   -2.8924    0.0000 C   0  0  0  0  0  0  0  0  0  0  0  0
   28.3212   -3.8636    0.0000 C   0  0  0  0  0  0  0  0  0  0  0  0
   27.0884   -4.7182    0.0000 C   0  0  0  0  0  0  0  0  0  0  0  0
   25.7777   -5.4477    0.0000 C   0  0  0  0  0  0  0  0  0  0  0  0
   24.4019   -6.0453    0.0000 C   0  0  0  0  0  0  0  0  0  0  0  0
   22.9742   -6.5052    0.0000 C   0  0  0  0  0  0  0  0  0  0  0  0
   21.5082   -6.8229    0.0000 C   0  0  0  0  0  0  0  0  0  0  0  0
   20.0181   -6.9954    0.0000 C   0  0  0  0  0  0  0  0  0  0  0  0
   18.5184   -7.0210    0.0000 C   0  0  0  0  0  0  0  0  0  0  0  0
   17.0233   -6.8995    0.0000 C   0  0  0  0  0  0  0  0  0  0  0  0
   15.5473   -6.6320    0.0000 C   0  0  0  0  0  0  0  0  0  0  0  0
   14.1047   -6.2212    0.0000 C   0  0  0  0  0  0  0  0  0  0  0  0
   12.7093   -5.6709    0.0000 C   0  0  0  0  0  0  0  0  0  0  0  0
   11.3745   -4.9865    0.0000 C   0  0  0  0  0  0  0  0  0  0  0  0
   10.1133   -4.1745    0.0000 C   0  0  0  0  0  0  0  0  0  0  0  0
    8.9377   -3.2429    0.0000 C   0  0  0  0  0  0  0  0  0  0  0  0
    7.8591   -2.2005    0.0000 C   0  0  0  0  0  0  0  0  0  0  0  0
    6.8878   -1.0574    0.0000 C   0  0  0  0  0  0  0  0  0  0  0  0
    6.0333    0.1754    0.0000 C   0  0  0  0  0  0  0  0  0  0  0  0
    5.3037    1.4860    0.0000 C   0  0  0  0  0  0  0  0  0  0  0  0
    4.8080   -0.0000    0.0000 C   0  0  0  0  0  0  0  0  0  0  0  0
    4.6297   -1.2972    0.0000 C   0  0  0  0  0  0  0  0  0  0  0  0
    4.1080   -2.4981    0.0000 C   0  0  0  0  0  0  0  0  0  0  0  0
    3.2817   -3.5138    0.0000 C   0  0  0  0  0  0  0  0  0  0  0  0
    2.2120   -4.2689    0.0000 C   0  0  0  0  0  0  0  0  0  0  0  0
    0.9782   -4.7074    0.0000 C   0  0  0  0  0  0  0  0  0  0  0  0
   -0.3281   -4.7967    0.0000 C   0  0  0  0  0  0  0  0  0  0  0  0
   -1.6101   -4.5303    0.0000 C   0  0  0  0  0  0  0  0  0  0  0  0
   -2.7727   -3.9280    0.0000 C   0  0  0  0  0  0  0  0  0  0  0  0
   -3.7296   -3.0342    0.0000 C   0  0  0  0  0  0  0  0  0  0  0  0
   -4.4099   -1.9155    0.0000 C   0  0  0  0  0  0  0  0  0  0  0  0
   -4.7632   -0.6547    0.0000 C   0  0  0  0  0  0  0  0  0  0  0  0
   -4.7632    0.6547    0.0000 C   0  0  0  0  0  0  0  0  0  0  0  0
   -4.4099    1.9155    0.0000 C   0  0  0  0  0  0  0  0  0  0  0  0
   -3.7296    3.0342    0.0000 C   0  0  0  0  0  0  0  0  0  0  0  0
   -2.7727    3.9280    0.0000 C   0  0  0  0  0  0  0  0  0  0  0  0
   -1.6101    4.5303    0.0000 C   0  0  0  0  0  0  0  0  0  0  0  0
   -0.3281    4.7967    0.0000 C   0  0  0  0  0  0  0  0  0  0  0  0
    0.9782    4.7074    0.0000 C   0  0  0  0  0  0  0  0  0  0  0  0
    2.2120    4.2689    0.0000 C   0  0  0  0  0  0  0  0  0  0  0  0
    3.2817    3.5138    0.0000 C   0  0  0  0  0  0  0  0  0  0  0  0
    4.7061    2.8618    0.0000 C   0  0  0  0  0  0  0  0  0  0  0  0
  1  2  1  0
  2  3  1  0
  3  4  1  0
  4  5  1  0
  5  6  1  0
  6  7  1  0
  7  8  1  0
  8  9  1  0
  9 10  1  0
 10 11  1  0
 11 12  1  0
 12 13  1  0
 13 14  1  0
 14 15  1  0
 15 16  1  0
 16 17  1  0
 17 18  1  0
 18 19  1  0
 19 20  1  0
 20 21  1  0
 21 22  1  0
 22 23  1  0
 23 24  1  0
 24 25  1  0
 25 26  1  0
 26 27  1  0
 27 28  1  0
 28 29  1  0
 29 30  1  0
 30 31  1  0
 31 32  1  0
 32 33  1  0
 33 34  1  0
 34 35  1  0
 35 36  1  0
 36 37  1  0
 37 38  1  0
 38 39  1  0
 39 40  1  0
 40 41  1  0
 41 42  1  0
 42 43  1  0
 43 44  1  0
 44 45  1  0
 45 46  1  0
 46 47  1  0
 47 48  1  0
 48 49  1  0
 49 50  1  0
 50 51  1  0
 51 52  1  0
 52 53  1  0
 53 54  1  0
 54 55  1  0
 55 56  1  0
 56 57  1  0
 57 58  1  0
 58 59  1  0
 59 60  2  0
 60 61  1  0
 61 62  2  0
 62 63  1  0
 63 64  2  0
 64 65  1  0
 65 66  1  0
 66 67  1  0
 67 68  2  0
 68 69  1  0
 69 70  2  0
 70 71  1  0
 71 72  2  0
 72 73  1  0
 73 74  2  0
 74 75  1  0
 75 76  2  0
 76 77  1  0
 77 78  2  0
 78 79  1  0
 79 80  2  0
 80 81  1  0
 81 82  2  0
 82 83  1  0
 83 84  2  0
 84 85  1  0
 85 86  2  0
 86  2  1  0
 86 64  1  0
M  END
>  <Title>  (465) 
idAAPYgen13

$$$$

     RDKit          2D

 43 49  0  0  0  0  0  0  0  0999 V2000
    1.2135   -7.3421    0.0000 C   0  0  0  0  0  0  0  0  0  0  0  0
    0.7500   -5.9156    0.0000 C   0  0  0  0  0  0  0  0  0  0  0  0
    1.9635   -5.0339    0.0000 C   0  0  0  0  0  0  0  0  0  0  0  0
    2.4271   -3.6073    0.0000 C   0  0  0  0  0  0  0  0  0  0  0  0
    1.9635   -2.1807    0.0000 C   0  0  0  0  0  0  0  0  0  0  0  0
    3.1771   -1.2990    0.0000 N   0  0  0  0  0  0  0  0  0  0  0  0
    3.1771    0.2010    0.0000 C   0  0  0  0  0  0  0  0  0  0  0  0
    4.6036    0.6645    0.0000 C   0  0  0  0  0  0  0  0  0  0  0  0
    5.4853   -0.5490    0.0000 N   0  0  0  0  0  0  0  0  0  0  0  0
    4.6036   -1.7626    0.0000 N   0  0  0  0  0  0  0  0  0  0  0  0
    5.0672   -3.1891    0.0000 N   0  0  0  0  0  0  0  0  0  0  0  0
    6.4937   -3.6527    0.0000 C   0  0  0  0  0  0  0  0  0  0  0  0
    6.4937   -5.1527    0.0000 C   0  0  0  0  0  0  0  0  0  0  0  0
    5.0672   -5.6162    0.0000 N   0  0  0  0  0  0  0  0  0  0  0  0
    4.6036   -7.0428    0.0000 C   0  0  0  0  0  0  0  0  0  0  0  0
    3.1364   -7.3547    0.0000 O   0  0  0  0  0  0  0  0  0  0  0  0
    5.6073   -8.1575    0.0000 N   0  0  0  0  0  0  0  0  0  0  0  0
    5.1438   -9.5841    0.0000 C   0  0  0  0  0  0  0  0  0  0  0  0
    3.6766   -9.8960    0.0000 N   0  0  0  0  0  0  0  0  0  0  0  0
    3.2131  -11.3225    0.0000 N   0  0  0  0  0  0  0  0  0  0  0  0
    4.2168  -12.4373    0.0000 N   0  0  0  0  0  0  0  0  0  0  0  0
    5.6840  -12.1254    0.0000 N   0  0  0  0  0  0  0  0  0  0  0  0
    6.1475  -10.6988    0.0000 N   0  0  0  0  0  0  0  0  0  0  0  0
    4.1855   -4.4027    0.0000 C   0  0  0  0  0  0  0  0  0  0  0  0
    2.6855   -4.4027    0.0000 O   0  0  0  0  0  0  0  0  0  0  0  0
    0.7500   -1.2990    0.0000 C   0  0  0  0  0  0  0  0  0  0  0  0
    1.5000    0.0000    0.0000 C   0  0  0  0  0  0  0  0  0  0  0  0
    0.7500    1.2990    0.0000 C   0  0  0  0  0  0  0  0  0  0  0  0
   -0.7500    1.2990    0.0000 C   0  0  0  0  0  0  0  0  0  0  0  0
   -1.5000    0.0000    0.0000 C   0  0  0  0  0  0  0  0  0  0  0  0
   -0.7500   -1.2990    0.0000 C   0  0  0  0  0  0  0  0  0  0  0  0
   -1.9635   -2.1807    0.0000 C   0  0  0  0  0  0  0  0  0  0  0  0
   -2.9672   -1.0660    0.0000 C   0  0  0  0  0  0  0  0  0  0  0  0
   -4.4344   -1.3779    0.0000 C   0  0  0  0  0  0  0  0  0  0  0  0
   -4.8980   -2.8045    0.0000 C   0  0  0  0  0  0  0  0  0  0  0  0
   -3.8943   -3.9192    0.0000 C   0  0  0  0  0  0  0  0  0  0  0  0
   -2.4271   -3.6073    0.0000 C   0  0  0  0  0  0  0  0  0  0  0  0
   -1.9635   -5.0339    0.0000 C   0  0  0  0  0  0  0  0  0  0  0  0
   -3.3338   -5.6440    0.0000 C   0  0  0  0  0  0  0  0  0  0  0  0
   -3.4906   -7.1358    0.0000 C   0  0  0  0  0  0  0  0  0  0  0  0
   -2.2771   -8.0175    0.0000 C   0  0  0  0  0  0  0  0  0  0  0  0
   -0.9068   -7.4073    0.0000 C   0  0  0  0  0  0  0  0  0  0  0  0
   -0.7500   -5.9156    0.0000 C   0  0  0  0  0  0  0  0  0  0  0  0
  1  2  1  0
  2  3  2  0
  3  4  1  0
  4  5  2  0
  5  6  1  0
  6  7  1  0
  7  8  1  0
  8  9  2  0
  9 10  1  0
 10 11  1  0
 11 12  1  0
 12 13  1  0
 13 14  1  0
 14 15  1  0
 15 16  2  0
 15 17  1  0
 17 18  1  0
 18 19  2  0
 19 20  1  0
 20 21  2  0
 21 22  1  0
 22 23  2  0
 14 24  1  0
 24 25  2  0
  5 26  1  0
 26 27  2  0
 27 28  1  0
 28 29  2  0
 29 30  1  0
 30 31  2  0
 31 32  1  0
 32 33  2  0
 33 34  1  0
 34 35  2  0
 35 36  1  0
 36 37  2  0
 37 38  1  0
 38 39  2  0
 39 40  1  0
 40 41  2  0
 41 42  1  0
 42 43  2  0
 43  2  1  0
 10  6  1  0
 24 11  1  0
 31 26  1  0
 37 32  1  0
 43 38  1  0
 23 18  1  0
M  END
>  <Title>  (466) 
idAAPZgen13

$$$$

     RDKit          2D

 11 12  0  0  0  0  0  0  0  0999 V2000
    3.3107   -5.7342    0.0000 C   0  0  0  0  0  0  0  0  0  0  0  0
    2.5607   -4.4352    0.0000 C   0  0  0  0  0  0  0  0  0  0  0  0
    1.1118   -4.0470    0.0000 C   0  0  0  0  0  0  0  0  0  0  0  0
    1.5000   -2.5981    0.0000 C   0  0  0  0  0  0  0  0  0  0  0  0
    0.7500   -1.2990    0.0000 N   0  0  0  0  0  0  0  0  0  0  0  0
    1.5000    0.0000    0.0000 C   0  0  0  0  0  0  0  0  0  0  0  0
    0.7500    1.2990    0.0000 C   0  0  0  0  0  0  0  0  0  0  0  0
   -0.7500    1.2990    0.0000 N   0  0  0  0  0  0  0  0  0  0  0  0
   -1.5000    0.0000    0.0000 N   0  0  0  0  0  0  0  0  0  0  0  0
   -0.7500   -1.2990    0.0000 N   0  0  0  0  0  0  0  0  0  0  0  0
    2.9489   -2.9863    0.0000 C   0  0  0  0  0  0  0  0  0  0  0  0
  1  2  1  0
  2  3  2  0
  3  4  1  0
  4  5  1  0
  5  6  1  0
  6  7  1  0
  7  8  2  0
  8  9  1  0
  9 10  2  0
  4 11  1  0
 11  2  1  0
 10  5  1  0
M  END
>  <Title>  (467) 
idAAQAgen13

$$$$

     RDKit          2D

 13 14  0  0  0  0  0  0  0  0999 V2000
    3.0000    0.0000    0.0000 C   0  0  0  0  0  0  0  0  0  0  0  0
    1.5000    0.0000    0.0000 C   0  0  0  0  0  0  0  0  0  0  0  0
    0.7500   -1.2990    0.0000 C   0  0  0  0  0  0  0  0  0  0  0  0
   -0.7500   -1.2990    0.0000 C   0  0  0  0  0  0  0  0  0  0  0  0
   -1.5000    0.0000    0.0000 C   0  0  0  0  0  0  0  0  0  0  0  0
   -0.7500    1.2990    0.0000 C   0  0  0  0  0  0  0  0  0  0  0  0
   -1.5000    2.5981    0.0000 N   0  0  0  0  0  0  0  0  0  0  0  0
   -0.7500    3.8971    0.0000 C   0  0  0  0  0  0  0  0  0  0  0  0
   -1.5000    5.1962    0.0000 C   0  0  0  0  0  0  0  0  0  0  0  0
   -3.0000    5.1962    0.0000 N   0  0  0  0  0  0  0  0  0  0  0  0
   -3.7500    3.8971    0.0000 N   0  0  0  0  0  0  0  0  0  0  0  0
   -3.0000    2.5981    0.0000 N   0  0  0  0  0  0  0  0  0  0  0  0
    0.7500    1.2990    0.0000 C   0  0  0  0  0  0  0  0  0  0  0  0
  1  2  1  0
  2  3  2  0
  3  4  1  0
  4  5  1  0
  5  6  2  0
  6  7  1  0
  7  8  1  0
  8  9  1  0
  9 10  2  0
 10 11  1  0
 11 12  2  0
  6 13  1  0
 13  2  1  0
 12  7  1  0
M  END
>  <Title>  (468) 
idAAQBgen13

$$$$

     RDKit          2D

 45 50  0  0  0  0  0  0  0  0999 V2000
   -5.5022    6.2394    0.0000 C   0  0  0  0  0  0  0  0  0  0  0  0
   -4.4985    5.1246    0.0000 C   0  0  0  0  0  0  0  0  0  0  0  0
   -4.9620    3.6981    0.0000 C   0  0  0  0  0  0  0  0  0  0  0  0
   -3.9583    2.5833    0.0000 C   0  0  0  0  0  0  0  0  0  0  0  0
   -4.4218    1.1568    0.0000 C   0  0  0  0  0  0  0  0  0  0  0  0
   -5.8891    0.8449    0.0000 O   0  0  0  0  0  0  0  0  0  0  0  0
   -3.4182    0.0420    0.0000 N   0  0  0  0  0  0  0  0  0  0  0  0
   -3.8817   -1.3846    0.0000 C   0  0  0  0  0  0  0  0  0  0  0  0
   -5.3083   -1.8481    0.0000 N   0  0  0  0  0  0  0  0  0  0  0  0
   -5.3083   -3.3481    0.0000 N   0  0  0  0  0  0  0  0  0  0  0  0
   -3.8817   -3.8116    0.0000 N   0  0  0  0  0  0  0  0  0  0  0  0
   -3.0000   -2.5981    0.0000 N   0  0  0  0  0  0  0  0  0  0  0  0
   -1.5000   -2.5981    0.0000 C   0  0  0  0  0  0  0  0  0  0  0  0
   -0.7500   -3.8971    0.0000 C   0  0  0  0  0  0  0  0  0  0  0  0
    0.7500   -3.8971    0.0000 C   0  0  0  0  0  0  0  0  0  0  0  0
    1.5000   -2.5981    0.0000 C   0  0  0  0  0  0  0  0  0  0  0  0
    3.0000   -2.5981    0.0000 C   0  0  0  0  0  0  0  0  0  0  0  0
    3.7500   -1.2990    0.0000 O   0  0  0  0  0  0  0  0  0  0  0  0
    3.7500   -3.8971    0.0000 N   0  0  0  0  0  0  0  0  0  0  0  0
    5.2500   -3.8971    0.0000 C   0  0  0  0  0  0  0  0  0  0  0  0
    6.1317   -2.6836    0.0000 N   0  0  0  0  0  0  0  0  0  0  0  0
    7.5583   -3.1471    0.0000 N   0  0  0  0  0  0  0  0  0  0  0  0
    7.5583   -4.6471    0.0000 N   0  0  0  0  0  0  0  0  0  0  0  0
    6.1317   -5.1106    0.0000 N   0  0  0  0  0  0  0  0  0  0  0  0
    5.6682   -6.5372    0.0000 N   0  0  0  0  0  0  0  0  0  0  0  0
    6.5498   -7.7508    0.0000 C   0  0  0  0  0  0  0  0  0  0  0  0
    5.6682   -8.9643    0.0000 C   0  0  0  0  0  0  0  0  0  0  0  0
    4.2416   -8.5008    0.0000 C   0  0  0  0  0  0  0  0  0  0  0  0
    3.0280   -9.3824    0.0000 C   0  0  0  0  0  0  0  0  0  0  0  0
    3.1848  -10.8742    0.0000 O   0  0  0  0  0  0  0  0  0  0  0  0
    1.6577   -8.7723    0.0000 N   0  0  0  0  0  0  0  0  0  0  0  0
    0.4442   -9.6540    0.0000 C   0  0  0  0  0  0  0  0  0  0  0  0
   -0.9261   -9.0439    0.0000 N   0  0  0  0  0  0  0  0  0  0  0  0
   -2.1396   -9.9256    0.0000 N   0  0  0  0  0  0  0  0  0  0  0  0
   -1.9829  -11.4174    0.0000 N   0  0  0  0  0  0  0  0  0  0  0  0
   -0.6125  -12.0275    0.0000 N   0  0  0  0  0  0  0  0  0  0  0  0
    0.6010  -11.1458    0.0000 N   0  0  0  0  0  0  0  0  0  0  0  0
    4.2416   -7.0008    0.0000 C   0  0  0  0  0  0  0  0  0  0  0  0
    3.0280   -6.1191    0.0000 O   0  0  0  0  0  0  0  0  0  0  0  0
    0.7500   -1.2990    0.0000 C   0  0  0  0  0  0  0  0  0  0  0  0
    1.5000    0.0000    0.0000 C   0  0  0  0  0  0  0  0  0  0  0  0
    0.7500    1.2990    0.0000 C   0  0  0  0  0  0  0  0  0  0  0  0
   -0.7500    1.2990    0.0000 C   0  0  0  0  0  0  0  0  0  0  0  0
   -1.5000    0.0000    0.0000 C   0  0  0  0  0  0  0  0  0  0  0  0
   -0.7500   -1.2990    0.0000 C   0  0  0  0  0  0  0  0  0  0  0  0
  1  2  2  0
  2  3  1  0
  3  4  1  0
  4  5  1  0
  5  6  2  0
  5  7  1  0
  7  8  1  0
  8  9  2  0
  9 10  1  0
 10 11  2  0
 11 12  1  0
 12 13  1  0
 13 14  2  0
 14 15  1  0
 15 16  2  0
 16 17  1  0
 17 18  2  0
 17 19  1  0
 19 20  1  0
 20 21  2  0
 21 22  1  0
 22 23  2  0
 23 24  1  0
 24 25  1  0
 25 26  1  0
 26 27  1  0
 27 28  1  0
 28 29  1  0
 29 30  2  0
 29 31  1  0
 31 32  1  0
 32 33  2  0
 33 34  1  0
 34 35  2  0
 35 36  1  0
 36 37  2  0
 28 38  1  0
 38 39  2  0
 16 40  1  0
 40 41  2  0
 41 42  1  0
 42 43  2  0
 43 44  1  0
 44 45  2  0
 12  8  1  0
 45 13  1  0
 24 20  1  0
 38 25  1  0
 45 40  1  0
 37 32  1  0
M  END
>  <Title>  (469) 
idAAQCgen13

$$$$

     RDKit          2D

 70 71  0  0  0  0  0  0  0  0999 V2000
   -1.6502   -2.5342    0.0000 C   0  0  0  0  0  0  0  0  0  0  0  0
   -0.3664   -3.3100    0.0000 C   0  0  0  0  0  0  0  0  0  0  0  0
   -1.3740   -4.4213    0.0000 C   0  0  0  0  0  0  0  0  0  0  0  0
   -2.2619   -5.6303    0.0000 C   0  0  0  0  0  0  0  0  0  0  0  0
   -3.0208   -6.9241    0.0000 C   0  0  0  0  0  0  0  0  0  0  0  0
   -3.6426   -8.2892    0.0000 C   0  0  0  0  0  0  0  0  0  0  0  0
   -4.1208   -9.7109    0.0000 C   0  0  0  0  0  0  0  0  0  0  0  0
   -4.4503  -11.1743    0.0000 C   0  0  0  0  0  0  0  0  0  0  0  0
   -4.6276  -12.6638    0.0000 C   0  0  0  0  0  0  0  0  0  0  0  0
   -4.6507  -14.1636    0.0000 C   0  0  0  0  0  0  0  0  0  0  0  0
   -4.5196  -15.6578    0.0000 C   0  0  0  0  0  0  0  0  0  0  0  0
   -4.2355  -17.1307    0.0000 C   0  0  0  0  0  0  0  0  0  0  0  0
   -3.8014  -18.5665    0.0000 C   0  0  0  0  0  0  0  0  0  0  0  0
   -3.2220  -19.9501    0.0000 C   0  0  0  0  0  0  0  0  0  0  0  0
   -2.5035  -21.2668    0.0000 C   0  0  0  0  0  0  0  0  0  0  0  0
   -1.6533  -22.5026    0.0000 C   0  0  0  0  0  0  0  0  0  0  0  0
   -0.6806  -23.6445    0.0000 C   0  0  0  0  0  0  0  0  0  0  0  0
    0.4043  -24.6803    0.0000 C   0  0  0  0  0  0  0  0  0  0  0  0
    1.5900  -25.5990    0.0000 C   0  0  0  0  0  0  0  0  0  0  0  0
    2.8639  -26.3910    0.0000 C   0  0  0  0  0  0  0  0  0  0  0  0
    4.2125  -27.0478    0.0000 C   0  0  0  0  0  0  0  0  0  0  0  0
    5.6214  -27.5624    0.0000 C   0  0  0  0  0  0  0  0  0  0  0  0
    7.0758  -27.9295    0.0000 C   0  0  0  0  0  0  0  0  0  0  0  0
    8.5603  -28.1450    0.0000 C   0  0  0  0  0  0  0  0  0  0  0  0
   10.0590  -28.2068    0.0000 C   0  0  0  0  0  0  0  0  0  0  0  0
   11.5561  -28.1142    0.0000 C   0  0  0  0  0  0  0  0  0  0  0  0
   13.0358  -27.8681    0.0000 C   0  0  0  0  0  0  0  0  0  0  0  0
   14.4823  -27.4711    0.0000 C   0  0  0  0  0  0  0  0  0  0  0  0
   15.8804  -26.9276    0.0000 C   0  0  0  0  0  0  0  0  0  0  0  0
   17.2151  -26.2432    0.0000 C   0  0  0  0  0  0  0  0  0  0  0  0
   18.4724  -25.4251    0.0000 C   0  0  0  0  0  0  0  0  0  0  0  0
   19.6390  -24.4821    0.0000 C   0  0  0  0  0  0  0  0  0  0  0  0
   20.7023  -23.4242    0.0000 C   0  0  0  0  0  0  0  0  0  0  0  0
   21.6513  -22.2626    0.0000 C   0  0  0  0  0  0  0  0  0  0  0  0
   22.4758  -21.0095    0.0000 C   0  0  0  0  0  0  0  0  0  0  0  0
   23.1671  -19.6783    0.0000 C   0  0  0  0  0  0  0  0  0  0  0  0
   23.7179  -18.2830    0.0000 C   0  0  0  0  0  0  0  0  0  0  0  0
   24.1222  -16.8386    0.0000 C   0  0  0  0  0  0  0  0  0  0  0  0
   24.3759  -15.3602    0.0000 C   0  0  0  0  0  0  0  0  0  0  0  0
   24.4763  -13.8635    0.0000 C   0  0  0  0  0  0  0  0  0  0  0  0
   24.4222  -12.3645    0.0000 C   0  0  0  0  0  0  0  0  0  0  0  0
   24.2143  -10.8790    0.0000 C   0  0  0  0  0  0  0  0  0  0  0  0
   23.8548   -9.4227    0.0000 C   0  0  0  0  0  0  0  0  0  0  0  0
   23.3474   -8.0111    0.0000 C   0  0  0  0  0  0  0  0  0  0  0  0
   22.6976   -6.6592    0.0000 C   0  0  0  0  0  0  0  0  0  0  0  0
   21.9122   -5.3813    0.0000 C   0  0  0  0  0  0  0  0  0  0  0  0
   20.9995   -4.1908    0.0000 C   0  0  0  0  0  0  0  0  0  0  0  0
   19.9693   -3.1006    0.0000 C   0  0  0  0  0  0  0  0  0  0  0  0
   18.8325   -2.1220    0.0000 C   0  0  0  0  0  0  0  0  0  0  0  0
   17.6011   -1.2655    0.0000 C   0  0  0  0  0  0  0  0  0  0  0  0
   16.2881   -0.5402    0.0000 C   0  0  0  0  0  0  0  0  0  0  0  0
   14.9075    0.0463    0.0000 C   0  0  0  0  0  0  0  0  0  0  0  0
   13.4739    0.4878    0.0000 C   0  0  0  0  0  0  0  0  0  0  0  0
   12.0026    0.7794    0.0000 C   0  0  0  0  0  0  0  0  0  0  0  0
   10.5090    0.9183    0.0000 C   0  0  0  0  0  0  0  0  0  0  0  0
    9.0091    0.9028    0.0000 C   0  0  0  0  0  0  0  0  0  0  0  0
    7.5187    0.7333    0.0000 C   0  0  0  0  0  0  0  0  0  0  0  0
    6.0537    0.4113    0.0000 C   0  0  0  0  0  0  0  0  0  0  0  0
    4.6295   -0.0595    0.0000 C   0  0  0  0  0  0  0  0  0  0  0  0
    3.2613   -0.6744    0.0000 C   0  0  0  0  0  0  0  0  0  0  0  0
    1.9635   -1.4266    0.0000 C   0  0  0  0  0  0  0  0  0  0  0  0
    2.4271    0.0000    0.0000 C   0  0  0  0  0  0  0  0  0  0  0  0
    1.9635    1.4266    0.0000 C   0  0  0  0  0  0  0  0  0  0  0  0
    0.7500    2.3083    0.0000 C   0  0  0  0  0  0  0  0  0  0  0  0
   -0.7500    2.3083    0.0000 C   0  0  0  0  0  0  0  0  0  0  0  0
   -1.9635    1.4266    0.0000 C   0  0  0  0  0  0  0  0  0  0  0  0
   -2.4271    0.0000    0.0000 C   0  0  0  0  0  0  0  0  0  0  0  0
   -1.9635   -1.4266    0.0000 C   0  0  0  0  0  0  0  0  0  0  0  0
   -0.7500   -2.3083    0.0000 C   0  0  0  0  0  0  0  0  0  0  0  0
    0.7500   -2.3083    0.0000 C   0  0  0  0  0  0  0  0  0  0  0  0
  1  2  1  0
  2  3  1  0
  3  4  1  0
  4  5  1  0
  5  6  1  0
  6  7  1  0
  7  8  1  0
  8  9  1  0
  9 10  1  0
 10 11  1  0
 11 12  1  0
 12 13  1  0
 13 14  1  0
 14 15  1  0
 15 16  1  0
 16 17  1  0
 17 18  1  0
 18 19  1  0
 19 20  1  0
 20 21  1  0
 21 22  1  0
 22 23  1  0
 23 24  1  0
 24 25  1  0
 25 26  1  0
 26 27  1  0
 27 28  1  0
 28 29  1  0
 29 30  1  0
 30 31  1  0
 31 32  1  0
 32 33  1  0
 33 34  1  0
 34 35  1  0
 35 36  1  0
 36 37  1  0
 37 38  1  0
 38 39  1  0
 39 40  1  0
 40 41  1  0
 41 42  1  0
 42 43  1  0
 43 44  1  0
 44 45  1  0
 45 46  1  0
 46 47  1  0
 47 48  1  0
 48 49  1  0
 49 50  1  0
 50 51  1  0
 51 52  1  0
 52 53  1  0
 53 54  1  0
 54 55  1  0
 55 56  1  0
 56 57  1  0
 57 58  1  0
 58 59  1  0
 59 60  1  0
 60 61  1  0
 61 62  1  0
 62 63  1  0
 63 64  1  0
 64 65  1  0
 65 66  2  0
 66 67  1  0
 67 68  2  0
 68 69  1  0
 69 70  2  0
 70  2  1  0
 70 61  1  0
M  END
>  <Title>  (470) 
idAAQDgen13

$$$$

     RDKit          2D

  5  4  0  0  0  0  0  0  0  0999 V2000
    0.0000    0.0000    0.0000 C   0  0  0  0  0  0  0  0  0  0  0  0
    1.2990    0.7500    0.0000 O   0  0  0  0  0  0  0  0  0  0  0  0
    2.5981   -0.0000    0.0000 C   0  0  0  0  0  0  0  0  0  0  0  0
    3.8971    0.7500    0.0000 C   0  0  0  0  0  0  0  0  0  0  0  0
    2.5981   -1.5000    0.0000 C   0  0  0  0  0  0  0  0  0  0  0  0
  1  2  1  0
  2  3  1  0
  3  4  1  0
  3  5  1  0
M  END
>  <Title>  (471) 
idAAQEgen13

$$$$

     RDKit          2D

  5  4  0  0  0  0  0  0  0  0999 V2000
    0.0000    0.0000    0.0000 C   0  0  0  0  0  0  0  0  0  0  0  0
    1.2990    0.7500    0.0000 C   0  0  0  0  0  0  0  0  0  0  0  0
    2.5981   -0.0000    0.0000 N   0  0  0  0  0  0  0  0  0  0  0  0
    3.8971    0.7500    0.0000 C   0  0  0  0  0  0  0  0  0  0  0  0
    2.5981   -1.5000    0.0000 C   0  0  0  0  0  0  0  0  0  0  0  0
  1  2  1  0
  2  3  1  0
  3  4  1  0
  3  5  1  0
M  END
>  <Title>  (472) 
idAAQFgen13

$$$$

     RDKit          2D

 33 36  0  0  0  0  0  0  0  0999 V2000
    3.4598   -0.0000    0.0000 C   0  0  0  0  0  0  0  0  0  0  0  0
    1.9598    0.0000    0.0000 C   0  0  0  0  0  0  0  0  0  0  0  0
    1.3858   -1.3858    0.0000 C   0  0  0  0  0  0  0  0  0  0  0  0
   -0.0000   -1.9598    0.0000 C   0  0  0  0  0  0  0  0  0  0  0  0
   -1.3858   -1.3858    0.0000 C   0  0  0  0  0  0  0  0  0  0  0  0
   -1.9598    0.0000    0.0000 C   0  0  0  0  0  0  0  0  0  0  0  0
   -1.3858    1.3858    0.0000 C   0  0  0  0  0  0  0  0  0  0  0  0
   -2.4465    2.4465    0.0000 C   0  0  0  0  0  0  0  0  0  0  0  0
   -3.8954    2.0583    0.0000 O   0  0  0  0  0  0  0  0  0  0  0  0
   -2.0583    3.8954    0.0000 N   0  0  0  0  0  0  0  0  0  0  0  0
   -3.1189    4.9560    0.0000 C   0  0  0  0  0  0  0  0  0  0  0  0
   -4.6004    4.7214    0.0000 N   0  0  0  0  0  0  0  0  0  0  0  0
   -5.2814    6.0579    0.0000 N   0  0  0  0  0  0  0  0  0  0  0  0
   -4.2208    7.1185    0.0000 N   0  0  0  0  0  0  0  0  0  0  0  0
   -2.8843    6.4376    0.0000 N   0  0  0  0  0  0  0  0  0  0  0  0
   -1.5477    7.1185    0.0000 N   0  0  0  0  0  0  0  0  0  0  0  0
   -1.3131    8.6001    0.0000 C   0  0  0  0  0  0  0  0  0  0  0  0
    0.1684    8.8347    0.0000 C   0  0  0  0  0  0  0  0  0  0  0  0
    0.8494    7.4982    0.0000 N   0  0  0  0  0  0  0  0  0  0  0  0
    2.3310    7.2636    0.0000 C   0  0  0  0  0  0  0  0  0  0  0  0
    3.2749    8.4293    0.0000 O   0  0  0  0  0  0  0  0  0  0  0  0
    2.8685    5.8632    0.0000 N   0  0  0  0  0  0  0  0  0  0  0  0
    4.3500    5.6285    0.0000 C   0  0  0  0  0  0  0  0  0  0  0  0
    4.8876    4.2282    0.0000 N   0  0  0  0  0  0  0  0  0  0  0  0
    6.3691    3.9935    0.0000 N   0  0  0  0  0  0  0  0  0  0  0  0
    7.3131    5.1592    0.0000 N   0  0  0  0  0  0  0  0  0  0  0  0
    6.7756    6.5596    0.0000 N   0  0  0  0  0  0  0  0  0  0  0  0
    5.2940    6.7943    0.0000 N   0  0  0  0  0  0  0  0  0  0  0  0
   -0.2112    6.4376    0.0000 C   0  0  0  0  0  0  0  0  0  0  0  0
    0.0234    4.9560    0.0000 O   0  0  0  0  0  0  0  0  0  0  0  0
    0.0000    1.9598    0.0000 C   0  0  0  0  0  0  0  0  0  0  0  0
    0.0000    3.4598    0.0000 O   0  0  0  0  0  0  0  0  0  0  0  0
    1.3858    1.3858    0.0000 O   0  0  0  0  0  0  0  0  0  0  0  0
  1  2  1  0
  2  3  1  0
  3  4  2  0
  4  5  1  0
  5  6  1  0
  6  7  1  0
  7  8  1  0
  8  9  2  0
  8 10  1  0
 10 11  1  0
 11 12  2  0
 12 13  1  0
 13 14  2  0
 14 15  1  0
 15 16  1  0
 16 17  1  0
 17 18  1  0
 18 19  1  0
 19 20  1  0
 20 21  2  0
 20 22  1  0
 22 23  1  0
 23 24  2  0
 24 25  1  0
 25 26  2  0
 26 27  1  0
 27 28  2  0
 19 29  1  0
 29 30  2  0
  7 31  1  0
 31 32  2  0
 31 33  1  0
 33  2  1  0
 15 11  1  0
 29 16  1  0
 28 23  1  0
M  END
>  <Title>  (473) 
idAAQGgen13

$$$$

     RDKit          2D

 17 19  0  0  0  0  0  0  0  0999 V2000
   -3.0000   -2.5981    0.0000 C   0  0  0  0  0  0  0  0  0  0  0  0
   -1.5000   -2.5981    0.0000 C   0  0  0  0  0  0  0  0  0  0  0  0
   -0.7500   -3.8971    0.0000 C   0  0  0  0  0  0  0  0  0  0  0  0
    0.7500   -3.8971    0.0000 C   0  0  0  0  0  0  0  0  0  0  0  0
    1.5000   -2.5981    0.0000 C   0  0  0  0  0  0  0  0  0  0  0  0
    3.0000   -2.5981    0.0000 N   0  0  0  0  0  0  0  0  0  0  0  0
    3.7500   -3.8971    0.0000 C   0  0  0  0  0  0  0  0  0  0  0  0
    5.2500   -3.8971    0.0000 C   0  0  0  0  0  0  0  0  0  0  0  0
    6.0000   -2.5981    0.0000 N   0  0  0  0  0  0  0  0  0  0  0  0
    5.2500   -1.2990    0.0000 N   0  0  0  0  0  0  0  0  0  0  0  0
    3.7500   -1.2990    0.0000 N   0  0  0  0  0  0  0  0  0  0  0  0
    0.7500   -1.2990    0.0000 C   0  0  0  0  0  0  0  0  0  0  0  0
    1.5000    0.0000    0.0000 C   0  0  0  0  0  0  0  0  0  0  0  0
    0.7500    1.2990    0.0000 C   0  0  0  0  0  0  0  0  0  0  0  0
   -0.7500    1.2990    0.0000 C   0  0  0  0  0  0  0  0  0  0  0  0
   -1.5000    0.0000    0.0000 C   0  0  0  0  0  0  0  0  0  0  0  0
   -0.7500   -1.2990    0.0000 C   0  0  0  0  0  0  0  0  0  0  0  0
  1  2  1  0
  2  3  2  0
  3  4  1  0
  4  5  2  0
  5  6  1  0
  6  7  1  0
  7  8  1  0
  8  9  2  0
  9 10  1  0
 10 11  2  0
  5 12  1  0
 12 13  2  0
 13 14  1  0
 14 15  2  0
 15 16  1  0
 16 17  2  0
 17  2  1  0
 11  6  1  0
 17 12  1  0
M  END
>  <Title>  (474) 
idAAQHgen13

$$$$

     RDKit          2D

 91 94  0  0  0  0  0  0  0  0999 V2000
   -0.4874    9.8506    0.0000 C   0  0  0  0  0  0  0  0  0  0  0  0
    1.0115    9.9086    0.0000 C   0  0  0  0  0  0  0  0  0  0  0  0
    1.0239   11.4085    0.0000 C   0  0  0  0  0  0  0  0  0  0  0  0
    1.1767   12.9007    0.0000 C   0  0  0  0  0  0  0  0  0  0  0  0
    1.4686   14.3720    0.0000 C   0  0  0  0  0  0  0  0  0  0  0  0
    1.8970   15.8096    0.0000 C   0  0  0  0  0  0  0  0  0  0  0  0
    2.4581   17.2007    0.0000 C   0  0  0  0  0  0  0  0  0  0  0  0
    3.1470   18.5331    0.0000 C   0  0  0  0  0  0  0  0  0  0  0  0
    3.9576   19.7952    0.0000 C   0  0  0  0  0  0  0  0  0  0  0  0
    4.8829   20.9758    0.0000 C   0  0  0  0  0  0  0  0  0  0  0  0
    5.9146   22.0646    0.0000 C   0  0  0  0  0  0  0  0  0  0  0  0
    7.0438   23.0520    0.0000 C   0  0  0  0  0  0  0  0  0  0  0  0
    8.2605   23.9293    0.0000 C   0  0  0  0  0  0  0  0  0  0  0  0
    9.5540   24.6889    0.0000 C   0  0  0  0  0  0  0  0  0  0  0  0
   10.9129   25.3239    0.0000 C   0  0  0  0  0  0  0  0  0  0  0  0
   12.3253   25.8290    0.0000 C   0  0  0  0  0  0  0  0  0  0  0  0
   13.7788   26.1995    0.0000 C   0  0  0  0  0  0  0  0  0  0  0  0
   15.2607   26.4323    0.0000 C   0  0  0  0  0  0  0  0  0  0  0  0
   16.7578   26.5254    0.0000 C   0  0  0  0  0  0  0  0  0  0  0  0
   18.2570   26.4778    0.0000 C   0  0  0  0  0  0  0  0  0  0  0  0
   19.7452   26.2900    0.0000 C   0  0  0  0  0  0  0  0  0  0  0  0
   21.2093   25.9638    0.0000 C   0  0  0  0  0  0  0  0  0  0  0  0
   22.6364   25.5018    0.0000 C   0  0  0  0  0  0  0  0  0  0  0  0
   24.0140   24.9082    0.0000 C   0  0  0  0  0  0  0  0  0  0  0  0
   25.3299   24.1883    0.0000 C   0  0  0  0  0  0  0  0  0  0  0  0
   26.5726   23.3483    0.0000 C   0  0  0  0  0  0  0  0  0  0  0  0
   27.7313   22.3956    0.0000 C   0  0  0  0  0  0  0  0  0  0  0  0
   28.7956   21.3386    0.0000 C   0  0  0  0  0  0  0  0  0  0  0  0
   29.7562   20.1866    0.0000 C   0  0  0  0  0  0  0  0  0  0  0  0
   30.6048   18.9497    0.0000 C   0  0  0  0  0  0  0  0  0  0  0  0
   31.3338   17.6387    0.0000 C   0  0  0  0  0  0  0  0  0  0  0  0
   31.9368   16.2653    0.0000 C   0  0  0  0  0  0  0  0  0  0  0  0
   32.4086   14.8414    0.0000 C   0  0  0  0  0  0  0  0  0  0  0  0
   32.7450   13.3796    0.0000 C   0  0  0  0  0  0  0  0  0  0  0  0
   32.9430   11.8928    0.0000 C   0  0  0  0  0  0  0  0  0  0  0  0
   33.0009   10.3939    0.0000 C   0  0  0  0  0  0  0  0  0  0  0  0
   32.9182    8.8962    0.0000 C   0  0  0  0  0  0  0  0  0  0  0  0
   32.6956    7.4128    0.0000 C   0  0  0  0  0  0  0  0  0  0  0  0
   32.3351    5.9567    0.0000 C   0  0  0  0  0  0  0  0  0  0  0  0
   31.8398    4.5409    0.0000 C   0  0  0  0  0  0  0  0  0  0  0  0
   31.2141    3.1776    0.0000 C   0  0  0  0  0  0  0  0  0  0  0  0
   30.4635    1.8789    0.0000 C   0  0  0  0  0  0  0  0  0  0  0  0
   29.5946    0.6562    0.0000 C   0  0  0  0  0  0  0  0  0  0  0  0
   28.6150   -0.4798    0.0000 C   0  0  0  0  0  0  0  0  0  0  0  0
   27.5334   -1.5190    0.0000 C   0  0  0  0  0  0  0  0  0  0  0  0
   26.3591   -2.4524    0.0000 C   0  0  0  0  0  0  0  0  0  0  0  0
   25.1027   -3.2717    0.0000 C   0  0  0  0  0  0  0  0  0  0  0  0
   23.7750   -3.9698    0.0000 C   0  0  0  0  0  0  0  0  0  0  0  0
   22.3878   -4.5405    0.0000 C   0  0  0  0  0  0  0  0  0  0  0  0
   20.9533   -4.9787    0.0000 C   0  0  0  0  0  0  0  0  0  0  0  0
   19.4840   -5.2808    0.0000 C   0  0  0  0  0  0  0  0  0  0  0  0
   17.9929   -5.4439    0.0000 C   0  0  0  0  0  0  0  0  0  0  0  0
   16.4931   -5.4666    0.0000 C   0  0  0  0  0  0  0  0  0  0  0  0
   14.9977   -5.3488    0.0000 C   0  0  0  0  0  0  0  0  0  0  0  0
   13.5199   -5.0915    0.0000 C   0  0  0  0  0  0  0  0  0  0  0  0
   12.0727   -4.6970    0.0000 C   0  0  0  0  0  0  0  0  0  0  0  0
   10.6689   -4.1686    0.0000 C   0  0  0  0  0  0  0  0  0  0  0  0
    9.3206   -3.5112    0.0000 C   0  0  0  0  0  0  0  0  0  0  0  0
    8.0399   -2.7303    0.0000 C   0  0  0  0  0  0  0  0  0  0  0  0
    6.8379   -1.8330    0.0000 C   0  0  0  0  0  0  0  0  0  0  0  0
    5.7252   -0.8270    0.0000 C   0  0  0  0  0  0  0  0  0  0  0  0
    4.7116    0.2787    0.0000 C   0  0  0  0  0  0  0  0  0  0  0  0
    3.8060    1.4745    0.0000 C   0  0  0  0  0  0  0  0  0  0  0  0
    3.3816   -0.0000    0.0000 C   0  0  0  0  0  0  0  0  0  0  0  0
    3.1533   -1.2216    0.0000 C   0  0  0  0  0  0  0  0  0  0  0  0
    2.4991   -2.2782    0.0000 C   0  0  0  0  0  0  0  0  0  0  0  0
    1.5073   -3.0271    0.0000 C   0  0  0  0  0  0  0  0  0  0  0  0
    0.3120   -3.3672    0.0000 C   0  0  0  0  0  0  0  0  0  0  0  0
   -0.9254   -3.2526    0.0000 C   0  0  0  0  0  0  0  0  0  0  0  0
   -2.0379   -2.6986    0.0000 C   0  0  0  0  0  0  0  0  0  0  0  0
   -2.8751   -1.7802    0.0000 C   0  0  0  0  0  0  0  0  0  0  0  0
   -3.3241   -0.6214    0.0000 C   0  0  0  0  0  0  0  0  0  0  0  0
   -3.3241    0.6214    0.0000 C   0  0  0  0  0  0  0  0  0  0  0  0
   -2.8751    1.7802    0.0000 C   0  0  0  0  0  0  0  0  0  0  0  0
   -2.0379    2.6986    0.0000 C   0  0  0  0  0  0  0  0  0  0  0  0
   -0.9254    3.2526    0.0000 C   0  0  0  0  0  0  0  0  0  0  0  0
    0.3120    3.3672    0.0000 C   0  0  0  0  0  0  0  0  0  0  0  0
    1.5073    3.0271    0.0000 C   0  0  0  0  0  0  0  0  0  0  0  0
    3.0164    2.7498    0.0000 C   0  0  0  0  0  0  0  0  0  0  0  0
    2.3496    4.0935    0.0000 C   0  0  0  0  0  0  0  0  0  0  0  0
    3.8312    3.8593    0.0000 C   0  0  0  0  0  0  0  0  0  0  0  0
    4.7748    5.0253    0.0000 C   0  0  0  0  0  0  0  0  0  0  0  0
    4.2368    6.4255    0.0000 C   0  0  0  0  0  0  0  0  0  0  0  0
    2.7552    6.6597    0.0000 C   0  0  0  0  0  0  0  0  0  0  0  0
    1.8116    5.4936    0.0000 C   0  0  0  0  0  0  0  0  0  0  0  0
    1.4071    6.9381    0.0000 C   0  0  0  0  0  0  0  0  0  0  0  0
    0.2626    5.9684    0.0000 C   0  0  0  0  0  0  0  0  0  0  0  0
   -1.1493    6.4748    0.0000 C   0  0  0  0  0  0  0  0  0  0  0  0
   -1.4168    7.9507    0.0000 C   0  0  0  0  0  0  0  0  0  0  0  0
   -0.2724    8.9204    0.0000 C   0  0  0  0  0  0  0  0  0  0  0  0
    1.1396    8.4140    0.0000 C   0  0  0  0  0  0  0  0  0  0  0  0
  1  2  1  0
  2  3  1  0
  3  4  1  0
  4  5  1  0
  5  6  1  0
  6  7  1  0
  7  8  1  0
  8  9  1  0
  9 10  1  0
 10 11  1  0
 11 12  1  0
 12 13  1  0
 13 14  1  0
 14 15  1  0
 15 16  1  0
 16 17  1  0
 17 18  1  0
 18 19  1  0
 19 20  1  0
 20 21  1  0
 21 22  1  0
 22 23  1  0
 23 24  1  0
 24 25  1  0
 25 26  1  0
 26 27  1  0
 27 28  1  0
 28 29  1  0
 29 30  1  0
 30 31  1  0
 31 32  1  0
 32 33  1  0
 33 34  1  0
 34 35  1  0
 35 36  1  0
 36 37  1  0
 37 38  1  0
 38 39  1  0
 39 40  1  0
 40 41  1  0
 41 42  1  0
 42 43  1  0
 43 44  1  0
 44 45  1  0
 45 46  1  0
 46 47  1  0
 47 48  1  0
 48 49  1  0
 49 50  1  0
 50 51  1  0
 51 52  1  0
 52 53  1  0
 53 54  1  0
 54 55  1  0
 55 56  1  0
 56 57  1  0
 57 58  1  0
 58 59  1  0
 59 60  1  0
 60 61  1  0
 61 62  1  0
 62 63  1  0
 63 64  1  0
 64 65  1  0
 65 66  1  0
 66 67  2  0
 67 68  1  0
 68 69  2  0
 69 70  1  0
 70 71  2  0
 71 72  1  0
 72 73  2  0
 73 74  1  0
 74 75  2  0
 75 76  1  0
 76 77  2  0
 77 78  1  0
 78 79  2  0
 79 80  1  0
 80 81  2  0
 81 82  1  0
 82 83  2  0
 83 84  1  0
 84 85  2  0
 85 86  1  0
 86 87  2  0
 87 88  1  0
 88 89  2  0
 89 90  1  0
 90 91  2  0
 91  2  1  0
 79 63  1  0
 85 80  1  0
 91 86  1  0
M  END
>  <Title>  (475) 
idAAQIgen13

$$$$

     RDKit          2D

  5  4  0  0  0  0  0  0  0  0999 V2000
    0.0000    0.0000    0.0000 C   0  0  0  0  0  0  0  0  0  0  0  0
    1.2990    0.7500    0.0000 C   0  0  0  0  0  0  0  0  0  0  0  0
    2.5981   -0.0000    0.0000 C   0  0  0  0  0  0  0  0  0  0  0  0
    3.8971    0.7500    0.0000 C   0  0  0  0  0  0  0  0  0  0  0  0
    2.5981   -1.5000    0.0000 O   0  0  0  0  0  0  0  0  0  0  0  0
  1  2  2  0
  2  3  1  0
  3  4  1  0
  3  5  2  0
M  END
>  <Title>  (476) 
idAAQJgen13

$$$$

     RDKit          2D

 12 11  0  0  0  0  0  0  0  0999 V2000
    0.0000    0.0000    0.0000 C   0  0  0  0  0  0  0  0  0  0  0  0
    1.2990    0.7500    0.0000 C   0  0  0  0  0  0  0  0  0  0  0  0
    2.5981   -0.0000    0.0000 C   0  0  0  0  0  0  0  0  0  0  0  0
    3.8971    0.7500    0.0000 C   0  0  0  0  0  0  0  0  0  0  0  0
    5.1962   -0.0000    0.0000 C   0  0  0  0  0  0  0  0  0  0  0  0
    5.1962   -1.5000    0.0000 O   0  0  0  0  0  0  0  0  0  0  0  0
    6.4952    0.7500    0.0000 N   0  0  0  0  0  0  0  0  0  0  0  0
    7.7942   -0.0000    0.0000 C   0  0  0  0  0  0  0  0  0  0  0  0
    7.7942   -1.5000    0.0000 O   0  0  0  0  0  0  0  0  0  0  0  0
    9.0933    0.7500    0.0000 C   0  0  0  0  0  0  0  0  0  0  0  0
   10.3923   -0.0000    0.0000 C   0  0  0  0  0  0  0  0  0  0  0  0
   11.6913    0.7500    0.0000 C   0  0  0  0  0  0  0  0  0  0  0  0
  1  2  2  0
  2  3  1  0
  3  4  1  0
  4  5  1  0
  5  6  2  0
  5  7  1  0
  7  8  1  0
  8  9  2  0
  8 10  1  0
 10 11  1  0
 11 12  1  0
M  END
>  <Title>  (477) 
idAAQKgen13

$$$$

     RDKit          2D

 10  9  0  0  0  0  0  0  0  0999 V2000
    0.0000    0.0000    0.0000 C   0  0  0  0  0  0  0  0  0  0  0  0
   -0.0000   -1.5000    0.0000 C   0  0  0  0  0  0  0  0  0  0  0  0
   -0.0000   -3.0000    0.0000 C   0  0  0  0  0  0  0  0  0  0  0  0
    1.2990   -3.7500    0.0000 C   0  0  0  0  0  0  0  0  0  0  0  0
    1.2990   -5.2500    0.0000 N   0  0  0  0  0  0  0  0  0  0  0  0
    2.5981   -6.0000    0.0000 C   0  0  0  0  0  0  0  0  0  0  0  0
    3.8971   -5.2500    0.0000 O   0  0  0  0  0  0  0  0  0  0  0  0
    2.5981   -7.5000    0.0000 C   0  0  0  0  0  0  0  0  0  0  0  0
    3.8971   -8.2500    0.0000 C   0  0  0  0  0  0  0  0  0  0  0  0
    3.8971   -9.7500    0.0000 C   0  0  0  0  0  0  0  0  0  0  0  0
  1  2  3  0
  2  3  1  0
  3  4  1  0
  4  5  1  0
  5  6  1  0
  6  7  2  0
  6  8  1  0
  8  9  1  0
  9 10  1  0
M  END
>  <Title>  (478) 
idAAQLgen13

$$$$

     RDKit          2D

 75 76  0  0  0  0  0  0  0  0999 V2000
   -2.2236   -1.0610    0.0000 C   0  0  0  0  0  0  0  0  0  0  0  0
   -2.4943    0.4144    0.0000 C   0  0  0  0  0  0  0  0  0  0  0  0
   -3.9802    0.2093    0.0000 C   0  0  0  0  0  0  0  0  0  0  0  0
   -5.4784    0.1363    0.0000 C   0  0  0  0  0  0  0  0  0  0  0  0
   -6.9772    0.1960    0.0000 C   0  0  0  0  0  0  0  0  0  0  0  0
   -8.4649    0.3880    0.0000 C   0  0  0  0  0  0  0  0  0  0  0  0
   -9.9297    0.7106    0.0000 C   0  0  0  0  0  0  0  0  0  0  0  0
  -11.3604    1.1615    0.0000 C   0  0  0  0  0  0  0  0  0  0  0  0
  -12.7456    1.7371    0.0000 C   0  0  0  0  0  0  0  0  0  0  0  0
  -14.0745    2.4328    0.0000 C   0  0  0  0  0  0  0  0  0  0  0  0
  -15.3367    3.2433    0.0000 C   0  0  0  0  0  0  0  0  0  0  0  0
  -16.5223    4.1621    0.0000 C   0  0  0  0  0  0  0  0  0  0  0  0
  -17.6221    5.1821    0.0000 C   0  0  0  0  0  0  0  0  0  0  0  0
  -18.6274    6.2954    0.0000 C   0  0  0  0  0  0  0  0  0  0  0  0
  -19.5305    7.4931    0.0000 C   0  0  0  0  0  0  0  0  0  0  0  0
  -20.3241    8.7659    0.0000 C   0  0  0  0  0  0  0  0  0  0  0  0
  -21.0021   10.1039    0.0000 C   0  0  0  0  0  0  0  0  0  0  0  0
  -21.5592   11.4967    0.0000 C   0  0  0  0  0  0  0  0  0  0  0  0
  -21.9911   12.9331    0.0000 C   0  0  0  0  0  0  0  0  0  0  0  0
  -22.2943   14.4022    0.0000 C   0  0  0  0  0  0  0  0  0  0  0  0
  -22.4665   15.8923    0.0000 C   0  0  0  0  0  0  0  0  0  0  0  0
  -22.5063   17.3917    0.0000 C   0  0  0  0  0  0  0  0  0  0  0  0
  -22.4134   18.8889    0.0000 C   0  0  0  0  0  0  0  0  0  0  0  0
  -22.1886   20.3719    0.0000 C   0  0  0  0  0  0  0  0  0  0  0  0
  -21.8336   21.8293    0.0000 C   0  0  0  0  0  0  0  0  0  0  0  0
  -21.3512   23.2496    0.0000 C   0  0  0  0  0  0  0  0  0  0  0  0
  -20.7451   24.6217    0.0000 C   0  0  0  0  0  0  0  0  0  0  0  0
  -20.0202   25.9349    0.0000 C   0  0  0  0  0  0  0  0  0  0  0  0
  -19.1820   27.1789    0.0000 C   0  0  0  0  0  0  0  0  0  0  0  0
  -18.2372   28.3439    0.0000 C   0  0  0  0  0  0  0  0  0  0  0  0
  -17.1930   29.4208    0.0000 C   0  0  0  0  0  0  0  0  0  0  0  0
  -16.0578   30.4013    0.0000 C   0  0  0  0  0  0  0  0  0  0  0  0
  -14.8404   31.2776    0.0000 C   0  0  0  0  0  0  0  0  0  0  0  0
  -13.5503   32.0429    0.0000 C   0  0  0  0  0  0  0  0  0  0  0  0
  -12.1976   32.6911    0.0000 C   0  0  0  0  0  0  0  0  0  0  0  0
  -10.7930   33.2173    0.0000 C   0  0  0  0  0  0  0  0  0  0  0  0
   -9.3473   33.6173    0.0000 C   0  0  0  0  0  0  0  0  0  0  0  0
   -7.8719   33.8879    0.0000 C   0  0  0  0  0  0  0  0  0  0  0  0
   -6.3784   34.0271    0.0000 C   0  0  0  0  0  0  0  0  0  0  0  0
   -4.8784   34.0337    0.0000 C   0  0  0  0  0  0  0  0  0  0  0  0
   -3.3837   33.9078    0.0000 C   0  0  0  0  0  0  0  0  0  0  0  0
   -1.9059   33.6502    0.0000 C   0  0  0  0  0  0  0  0  0  0  0  0
   -0.4568   33.2631    0.0000 C   0  0  0  0  0  0  0  0  0  0  0  0
    0.9525   32.7493    0.0000 C   0  0  0  0  0  0  0  0  0  0  0  0
    2.3109   32.1131    0.0000 C   0  0  0  0  0  0  0  0  0  0  0  0
    3.6077   31.3592    0.0000 C   0  0  0  0  0  0  0  0  0  0  0  0
    4.8328   30.4937    0.0000 C   0  0  0  0  0  0  0  0  0  0  0  0
    5.9767   29.5234    0.0000 C   0  0  0  0  0  0  0  0  0  0  0  0
    7.0303   28.4557    0.0000 C   0  0  0  0  0  0  0  0  0  0  0  0
    7.9854   27.2991    0.0000 C   0  0  0  0  0  0  0  0  0  0  0  0
    8.8345   26.0626    0.0000 C   0  0  0  0  0  0  0  0  0  0  0  0
    9.5711   24.7559    0.0000 C   0  0  0  0  0  0  0  0  0  0  0  0
   10.1892   23.3892    0.0000 C   0  0  0  0  0  0  0  0  0  0  0  0
   10.6842   21.9732    0.0000 C   0  0  0  0  0  0  0  0  0  0  0  0
   11.0521   20.5190    0.0000 C   0  0  0  0  0  0  0  0  0  0  0  0
   11.2900   19.0380    0.0000 C   0  0  0  0  0  0  0  0  0  0  0  0
   11.3961   17.5417    0.0000 C   0  0  0  0  0  0  0  0  0  0  0  0
   11.3696   16.0420    0.0000 C   0  0  0  0  0  0  0  0  0  0  0  0
   11.2106   14.5504    0.0000 C   0  0  0  0  0  0  0  0  0  0  0  0
   10.9204   13.0788    0.0000 C   0  0  0  0  0  0  0  0  0  0  0  0
   10.5013   11.6385    0.0000 C   0  0  0  0  0  0  0  0  0  0  0  0
    9.9565   10.2409    0.0000 C   0  0  0  0  0  0  0  0  0  0  0  0
    9.2904    8.8970    0.0000 C   0  0  0  0  0  0  0  0  0  0  0  0
    8.5080    7.6171    0.0000 C   0  0  0  0  0  0  0  0  0  0  0  0
    7.6156    6.4115    0.0000 C   0  0  0  0  0  0  0  0  0  0  0  0
    6.6202    5.2894    0.0000 C   0  0  0  0  0  0  0  0  0  0  0  0
    5.5295    4.2597    0.0000 C   0  0  0  0  0  0  0  0  0  0  0  0
    4.3520    3.3304    0.0000 C   0  0  0  0  0  0  0  0  0  0  0  0
    3.0970    2.5088    0.0000 C   0  0  0  0  0  0  0  0  0  0  0  0
    1.7743    1.8013    0.0000 C   0  0  0  0  0  0  0  0  0  0  0  0
    0.3943    1.2135    0.0000 C   0  0  0  0  0  0  0  0  0  0  0  0
    1.2760    0.0000    0.0000 C   0  0  0  0  0  0  0  0  0  0  0  0
    0.3943   -1.2135    0.0000 C   0  0  0  0  0  0  0  0  0  0  0  0
   -1.0323   -0.7500    0.0000 C   0  0  0  0  0  0  0  0  0  0  0  0
   -1.0323    0.7500    0.0000 C   0  0  0  0  0  0  0  0  0  0  0  0
  1  2  1  0
  2  3  1  0
  3  4  1  0
  4  5  1  0
  5  6  1  0
  6  7  1  0
  7  8  1  0
  8  9  1  0
  9 10  1  0
 10 11  1  0
 11 12  1  0
 12 13  1  0
 13 14  1  0
 14 15  1  0
 15 16  1  0
 16 17  1  0
 17 18  1  0
 18 19  1  0
 19 20  1  0
 20 21  1  0
 21 22  1  0
 22 23  1  0
 23 24  1  0
 24 25  1  0
 25 26  1  0
 26 27  1  0
 27 28  1  0
 28 29  1  0
 29 30  1  0
 30 31  1  0
 31 32  1  0
 32 33  1  0
 33 34  1  0
 34 35  1  0
 35 36  1  0
 36 37  2  0
 37 38  1  0
 38 39  2  0
 39 40  1  0
 40 41  2  0
 41 42  1  0
 42 43  2  0
 43 44  1  0
 44 45  2  0
 45 46  1  0
 46 47  2  0
 47 48  1  0
 48 49  2  0
 49 50  1  0
 50 51  2  0
 51 52  1  0
 52 53  2  0
 53 54  1  0
 54 55  2  0
 55 56  1  0
 56 57  2  0
 57 58  1  0
 58 59  2  0
 59 60  1  0
 60 61  2  0
 61 62  1  0
 62 63  2  0
 63 64  1  0
 64 65  2  0
 65 66  1  0
 66 67  2  0
 67 68  1  0
 68 69  2  0
 69 70  1  0
 70 71  2  0
 71 72  1  0
 72 73  2  0
 73 74  1  0
 74 75  2  0
 75  2  1  0
 75 71  1  0
M  END
>  <Title>  (479) 
idAAQMgen13

$$$$

     RDKit          2D

  6  5  0  0  0  0  0  0  0  0999 V2000
    0.0000    0.0000    0.0000 C   0  0  0  0  0  0  0  0  0  0  0  0
    1.2990    0.7500    0.0000 C   0  0  0  0  0  0  0  0  0  0  0  0
    2.5981   -0.0000    0.0000 C   0  0  0  0  0  0  0  0  0  0  0  0
    3.8971    0.7500    0.0000 C   0  0  0  0  0  0  0  0  0  0  0  0
    5.1962   -0.0000    0.0000 C   0  0  0  0  0  0  0  0  0  0  0  0
    6.4952    0.7500    0.0000 C   0  0  0  0  0  0  0  0  0  0  0  0
  1  2  2  0
  2  3  1  0
  3  4  1  0
  4  5  1  0
  5  6  1  0
M  END
>  <Title>  (480) 
idAAQNgen13

$$$$

     RDKit          2D

 36 36  0  0  0  0  0  0  0  0999 V2000
   46.5000    0.0000    0.0000 C   0  0  0  0  0  0  0  0  0  0  0  0
   45.0000    0.0000    0.0000 C   0  0  0  0  0  0  0  0  0  0  0  0
   43.5000    0.0000    0.0000 C   0  0  0  0  0  0  0  0  0  0  0  0
   42.0000    0.0000    0.0000 C   0  0  0  0  0  0  0  0  0  0  0  0
   40.5000    0.0000    0.0000 C   0  0  0  0  0  0  0  0  0  0  0  0
   39.0000    0.0000    0.0000 C   0  0  0  0  0  0  0  0  0  0  0  0
   37.5000    0.0000    0.0000 C   0  0  0  0  0  0  0  0  0  0  0  0
   36.0000    0.0000    0.0000 C   0  0  0  0  0  0  0  0  0  0  0  0
   34.5000    0.0000    0.0000 C   0  0  0  0  0  0  0  0  0  0  0  0
   33.0000    0.0000    0.0000 C   0  0  0  0  0  0  0  0  0  0  0  0
   31.5000    0.0000    0.0000 C   0  0  0  0  0  0  0  0  0  0  0  0
   30.0000    0.0000    0.0000 C   0  0  0  0  0  0  0  0  0  0  0  0
   28.5000    0.0000    0.0000 C   0  0  0  0  0  0  0  0  0  0  0  0
   27.0000    0.0000    0.0000 C   0  0  0  0  0  0  0  0  0  0  0  0
   25.5000    0.0000    0.0000 C   0  0  0  0  0  0  0  0  0  0  0  0
   24.0000    0.0000    0.0000 C   0  0  0  0  0  0  0  0  0  0  0  0
   22.5000    0.0000    0.0000 C   0  0  0  0  0  0  0  0  0  0  0  0
   21.0000    0.0000    0.0000 C   0  0  0  0  0  0  0  0  0  0  0  0
   19.5000    0.0000    0.0000 C   0  0  0  0  0  0  0  0  0  0  0  0
   18.0000    0.0000    0.0000 C   0  0  0  0  0  0  0  0  0  0  0  0
   16.5000    0.0000    0.0000 C   0  0  0  0  0  0  0  0  0  0  0  0
   15.0000    0.0000    0.0000 C   0  0  0  0  0  0  0  0  0  0  0  0
   13.5000    0.0000    0.0000 C   0  0  0  0  0  0  0  0  0  0  0  0
   12.0000    0.0000    0.0000 C   0  0  0  0  0  0  0  0  0  0  0  0
   10.5000    0.0000    0.0000 C   0  0  0  0  0  0  0  0  0  0  0  0
    9.0000    0.0000    0.0000 C   0  0  0  0  0  0  0  0  0  0  0  0
    7.5000    0.0000    0.0000 C   0  0  0  0  0  0  0  0  0  0  0  0
    6.0000    0.0000    0.0000 C   0  0  0  0  0  0  0  0  0  0  0  0
    4.5000    0.0000    0.0000 C   0  0  0  0  0  0  0  0  0  0  0  0
    3.0000    0.0000    0.0000 C   0  0  0  0  0  0  0  0  0  0  0  0
    1.5000    0.0000    0.0000 C   0  0  0  0  0  0  0  0  0  0  0  0
    0.7500   -1.2990    0.0000 C   0  0  0  0  0  0  0  0  0  0  0  0
   -0.7500   -1.2990    0.0000 C   0  0  0  0  0  0  0  0  0  0  0  0
   -1.5000    0.0000    0.0000 C   0  0  0  0  0  0  0  0  0  0  0  0
   -0.7500    1.2990    0.0000 C   0  0  0  0  0  0  0  0  0  0  0  0
    0.7500    1.2990    0.0000 C   0  0  0  0  0  0  0  0  0  0  0  0
  1  2  3  0
  2  3  1  0
  3  4  3  0
  4  5  1  0
  5  6  3  0
  6  7  1  0
  7  8  3  0
  8  9  1  0
  9 10  3  0
 10 11  1  0
 11 12  3  0
 12 13  1  0
 13 14  3  0
 14 15  1  0
 15 16  3  0
 16 17  1  0
 17 18  3  0
 18 19  1  0
 19 20  3  0
 20 21  1  0
 21 22  3  0
 22 23  1  0
 23 24  3  0
 24 25  1  0
 25 26  3  0
 26 27  1  0
 27 28  3  0
 28 29  1  0
 29 30  3  0
 30 31  1  0
 31 32  2  0
 32 33  1  0
 33 34  2  0
 34 35  1  0
 35 36  2  0
 36 31  1  0
M  END
>  <Title>  (481) 
idAAQOgen13

$$$$

     RDKit          2D

 50 50  0  0  0  0  0  0  0  0999 V2000
   67.5000    0.0000    0.0000 C   0  0  0  0  0  0  0  0  0  0  0  0
   66.0000    0.0000    0.0000 C   0  0  0  0  0  0  0  0  0  0  0  0
   64.5000    0.0000    0.0000 C   0  0  0  0  0  0  0  0  0  0  0  0
   63.0000    0.0000    0.0000 C   0  0  0  0  0  0  0  0  0  0  0  0
   61.5000    0.0000    0.0000 C   0  0  0  0  0  0  0  0  0  0  0  0
   60.0000    0.0000    0.0000 C   0  0  0  0  0  0  0  0  0  0  0  0
   58.5000    0.0000    0.0000 C   0  0  0  0  0  0  0  0  0  0  0  0
   57.0000    0.0000    0.0000 C   0  0  0  0  0  0  0  0  0  0  0  0
   55.5000    0.0000    0.0000 C   0  0  0  0  0  0  0  0  0  0  0  0
   54.0000    0.0000    0.0000 C   0  0  0  0  0  0  0  0  0  0  0  0
   52.5000    0.0000    0.0000 C   0  0  0  0  0  0  0  0  0  0  0  0
   51.0000    0.0000    0.0000 C   0  0  0  0  0  0  0  0  0  0  0  0
   49.5000    0.0000    0.0000 C   0  0  0  0  0  0  0  0  0  0  0  0
   48.0000    0.0000    0.0000 C   0  0  0  0  0  0  0  0  0  0  0  0
   46.5000    0.0000    0.0000 C   0  0  0  0  0  0  0  0  0  0  0  0
   45.0000    0.0000    0.0000 C   0  0  0  0  0  0  0  0  0  0  0  0
   43.5000    0.0000    0.0000 C   0  0  0  0  0  0  0  0  0  0  0  0
   42.0000    0.0000    0.0000 C   0  0  0  0  0  0  0  0  0  0  0  0
   40.5000    0.0000    0.0000 C   0  0  0  0  0  0  0  0  0  0  0  0
   39.0000    0.0000    0.0000 C   0  0  0  0  0  0  0  0  0  0  0  0
   37.5000    0.0000    0.0000 C   0  0  0  0  0  0  0  0  0  0  0  0
   36.0000    0.0000    0.0000 C   0  0  0  0  0  0  0  0  0  0  0  0
   34.5000    0.0000    0.0000 C   0  0  0  0  0  0  0  0  0  0  0  0
   33.0000    0.0000    0.0000 C   0  0  0  0  0  0  0  0  0  0  0  0
   31.5000    0.0000    0.0000 C   0  0  0  0  0  0  0  0  0  0  0  0
   30.0000    0.0000    0.0000 C   0  0  0  0  0  0  0  0  0  0  0  0
   28.5000    0.0000    0.0000 C   0  0  0  0  0  0  0  0  0  0  0  0
   27.0000    0.0000    0.0000 C   0  0  0  0  0  0  0  0  0  0  0  0
   25.5000    0.0000    0.0000 C   0  0  0  0  0  0  0  0  0  0  0  0
   24.0000    0.0000    0.0000 C   0  0  0  0  0  0  0  0  0  0  0  0
   22.5000    0.0000    0.0000 C   0  0  0  0  0  0  0  0  0  0  0  0
   21.0000    0.0000    0.0000 C   0  0  0  0  0  0  0  0  0  0  0  0
   19.5000    0.0000    0.0000 C   0  0  0  0  0  0  0  0  0  0  0  0
   18.0000    0.0000    0.0000 C   0  0  0  0  0  0  0  0  0  0  0  0
   16.5000    0.0000    0.0000 C   0  0  0  0  0  0  0  0  0  0  0  0
   15.0000    0.0000    0.0000 C   0  0  0  0  0  0  0  0  0  0  0  0
   13.5000    0.0000    0.0000 C   0  0  0  0  0  0  0  0  0  0  0  0
   12.0000    0.0000    0.0000 C   0  0  0  0  0  0  0  0  0  0  0  0
   10.5000    0.0000    0.0000 C   0  0  0  0  0  0  0  0  0  0  0  0
    9.0000    0.0000    0.0000 C   0  0  0  0  0  0  0  0  0  0  0  0
    7.5000    0.0000    0.0000 C   0  0  0  0  0  0  0  0  0  0  0  0
    6.0000    0.0000    0.0000 C   0  0  0  0  0  0  0  0  0  0  0  0
    4.5000    0.0000    0.0000 C   0  0  0  0  0  0  0  0  0  0  0  0
    3.0000    0.0000    0.0000 C   0  0  0  0  0  0  0  0  0  0  0  0
    1.5000    0.0000    0.0000 C   0  0  0  0  0  0  0  0  0  0  0  0
    0.7500   -1.2990    0.0000 C   0  0  0  0  0  0  0  0  0  0  0  0
   -0.7500   -1.2990    0.0000 C   0  0  0  0  0  0  0  0  0  0  0  0
   -1.5000    0.0000    0.0000 C   0  0  0  0  0  0  0  0  0  0  0  0
   -0.7500    1.2990    0.0000 C   0  0  0  0  0  0  0  0  0  0  0  0
    0.7500    1.2990    0.0000 C   0  0  0  0  0  0  0  0  0  0  0  0
  1  2  3  0
  2  3  1  0
  3  4  3  0
  4  5  1  0
  5  6  3  0
  6  7  1  0
  7  8  3  0
  8  9  1  0
  9 10  3  0
 10 11  1  0
 11 12  3  0
 12 13  1  0
 13 14  3  0
 14 15  1  0
 15 16  3  0
 16 17  1  0
 17 18  3  0
 18 19  1  0
 19 20  3  0
 20 21  1  0
 21 22  3  0
 22 23  1  0
 23 24  3  0
 24 25  1  0
 25 26  3  0
 26 27  1  0
 27 28  3  0
 28 29  1  0
 29 30  3  0
 30 31  1  0
 31 32  3  0
 32 33  1  0
 33 34  3  0
 34 35  1  0
 35 36  3  0
 36 37  1  0
 37 38  3  0
 38 39  1  0
 39 40  3  0
 40 41  1  0
 41 42  3  0
 42 43  1  0
 43 44  3  0
 44 45  1  0
 45 46  2  0
 46 47  1  0
 47 48  2  0
 48 49  1  0
 49 50  2  0
 50 45  1  0
M  END
>  <Title>  (482) 
idAAQPgen13

$$$$

     RDKit          2D

 80 84  0  0  0  0  0  0  0  0999 V2000
   -7.1054   10.0809    0.0000 C   0  0  0  0  0  0  0  0  0  0  0  0
   -5.6565   10.4691    0.0000 C   0  0  0  0  0  0  0  0  0  0  0  0
   -5.9683   11.9363    0.0000 C   0  0  0  0  0  0  0  0  0  0  0  0
   -6.1251   13.4281    0.0000 C   0  0  0  0  0  0  0  0  0  0  0  0
   -6.1251   14.9281    0.0000 C   0  0  0  0  0  0  0  0  0  0  0  0
   -5.9683   16.4199    0.0000 C   0  0  0  0  0  0  0  0  0  0  0  0
   -5.6565   17.8871    0.0000 C   0  0  0  0  0  0  0  0  0  0  0  0
   -5.1929   19.3137    0.0000 C   0  0  0  0  0  0  0  0  0  0  0  0
   -4.5828   20.6840    0.0000 C   0  0  0  0  0  0  0  0  0  0  0  0
   -3.8328   21.9830    0.0000 C   0  0  0  0  0  0  0  0  0  0  0  0
   -2.9512   23.1966    0.0000 C   0  0  0  0  0  0  0  0  0  0  0  0
   -1.9475   24.3113    0.0000 C   0  0  0  0  0  0  0  0  0  0  0  0
   -0.8327   25.3150    0.0000 C   0  0  0  0  0  0  0  0  0  0  0  0
    0.3808   26.1967    0.0000 C   0  0  0  0  0  0  0  0  0  0  0  0
    1.6798   26.9467    0.0000 C   0  0  0  0  0  0  0  0  0  0  0  0
    3.0501   27.5568    0.0000 C   0  0  0  0  0  0  0  0  0  0  0  0
    4.4767   28.0203    0.0000 C   0  0  0  0  0  0  0  0  0  0  0  0
    5.9439   28.3322    0.0000 C   0  0  0  0  0  0  0  0  0  0  0  0
    7.4357   28.4890    0.0000 C   0  0  0  0  0  0  0  0  0  0  0  0
    8.9357   28.4890    0.0000 C   0  0  0  0  0  0  0  0  0  0  0  0
   10.4275   28.3322    0.0000 C   0  0  0  0  0  0  0  0  0  0  0  0
   11.8947   28.0203    0.0000 C   0  0  0  0  0  0  0  0  0  0  0  0
   13.3213   27.5568    0.0000 C   0  0  0  0  0  0  0  0  0  0  0  0
   14.6916   26.9467    0.0000 C   0  0  0  0  0  0  0  0  0  0  0  0
   15.9907   26.1967    0.0000 C   0  0  0  0  0  0  0  0  0  0  0  0
   17.2042   25.3150    0.0000 C   0  0  0  0  0  0  0  0  0  0  0  0
   18.3189   24.3113    0.0000 C   0  0  0  0  0  0  0  0  0  0  0  0
   19.3226   23.1966    0.0000 C   0  0  0  0  0  0  0  0  0  0  0  0
   20.2043   21.9830    0.0000 C   0  0  0  0  0  0  0  0  0  0  0  0
   20.9543   20.6840    0.0000 C   0  0  0  0  0  0  0  0  0  0  0  0
   21.5644   19.3137    0.0000 C   0  0  0  0  0  0  0  0  0  0  0  0
   22.0279   17.8871    0.0000 C   0  0  0  0  0  0  0  0  0  0  0  0
   22.3398   16.4199    0.0000 C   0  0  0  0  0  0  0  0  0  0  0  0
   22.4966   14.9281    0.0000 C   0  0  0  0  0  0  0  0  0  0  0  0
   22.4966   13.4281    0.0000 C   0  0  0  0  0  0  0  0  0  0  0  0
   22.3398   11.9363    0.0000 C   0  0  0  0  0  0  0  0  0  0  0  0
   22.0279   10.4691    0.0000 C   0  0  0  0  0  0  0  0  0  0  0  0
   21.5644    9.0425    0.0000 C   0  0  0  0  0  0  0  0  0  0  0  0
   20.9543    7.6722    0.0000 C   0  0  0  0  0  0  0  0  0  0  0  0
   20.2043    6.3732    0.0000 C   0  0  0  0  0  0  0  0  0  0  0  0
   19.3226    5.1596    0.0000 C   0  0  0  0  0  0  0  0  0  0  0  0
   18.3189    4.0449    0.0000 C   0  0  0  0  0  0  0  0  0  0  0  0
   17.2042    3.0412    0.0000 C   0  0  0  0  0  0  0  0  0  0  0  0
   15.9907    2.1595    0.0000 C   0  0  0  0  0  0  0  0  0  0  0  0
   14.6916    1.4095    0.0000 C   0  0  0  0  0  0  0  0  0  0  0  0
   13.3213    0.7994    0.0000 C   0  0  0  0  0  0  0  0  0  0  0  0
   11.8947    0.3359    0.0000 C   0  0  0  0  0  0  0  0  0  0  0  0
   10.4275    0.0240    0.0000 C   0  0  0  0  0  0  0  0  0  0  0  0
    8.9357   -0.1328    0.0000 C   0  0  0  0  0  0  0  0  0  0  0  0
    7.4357   -0.1328    0.0000 C   0  0  0  0  0  0  0  0  0  0  0  0
    5.9439    0.0240    0.0000 C   0  0  0  0  0  0  0  0  0  0  0  0
    4.4767    0.3359    0.0000 C   0  0  0  0  0  0  0  0  0  0  0  0
    3.0501    0.7994    0.0000 C   0  0  0  0  0  0  0  0  0  0  0  0
    1.6798    1.4095    0.0000 C   0  0  0  0  0  0  0  0  0  0  0  0
    2.1929    0.0000    0.0000 C   0  0  0  0  0  0  0  0  0  0  0  0
    1.6798   -1.4095    0.0000 C   0  0  0  0  0  0  0  0  0  0  0  0
    0.3808   -2.1595    0.0000 C   0  0  0  0  0  0  0  0  0  0  0  0
   -1.0964   -1.8991    0.0000 C   0  0  0  0  0  0  0  0  0  0  0  0
   -2.0606   -0.7500    0.0000 C   0  0  0  0  0  0  0  0  0  0  0  0
   -2.0606    0.7500    0.0000 C   0  0  0  0  0  0  0  0  0  0  0  0
   -1.0964    1.8991    0.0000 C   0  0  0  0  0  0  0  0  0  0  0  0
    0.3808    2.1595    0.0000 C   0  0  0  0  0  0  0  0  0  0  0  0
   -0.8327    3.0412    0.0000 C   0  0  0  0  0  0  0  0  0  0  0  0
    0.5938    3.5047    0.0000 C   0  0  0  0  0  0  0  0  0  0  0  0
    0.9057    4.9720    0.0000 C   0  0  0  0  0  0  0  0  0  0  0  0
   -0.2090    5.9757    0.0000 C   0  0  0  0  0  0  0  0  0  0  0  0
   -1.6356    5.5121    0.0000 C   0  0  0  0  0  0  0  0  0  0  0  0
   -1.9475    4.0449    0.0000 C   0  0  0  0  0  0  0  0  0  0  0  0
   -2.9512    5.1596    0.0000 C   0  0  0  0  0  0  0  0  0  0  0  0
   -3.5613    3.7893    0.0000 C   0  0  0  0  0  0  0  0  0  0  0  0
   -5.0530    3.6325    0.0000 C   0  0  0  0  0  0  0  0  0  0  0  0
   -5.9347    4.8460    0.0000 C   0  0  0  0  0  0  0  0  0  0  0  0
   -5.3246    6.2164    0.0000 C   0  0  0  0  0  0  0  0  0  0  0  0
   -3.8328    6.3732    0.0000 C   0  0  0  0  0  0  0  0  0  0  0  0
   -4.5828    7.6722    0.0000 C   0  0  0  0  0  0  0  0  0  0  0  0
   -3.0910    7.5154    0.0000 C   0  0  0  0  0  0  0  0  0  0  0  0
   -2.2094    8.7289    0.0000 C   0  0  0  0  0  0  0  0  0  0  0  0
   -2.8195   10.0992    0.0000 C   0  0  0  0  0  0  0  0  0  0  0  0
   -4.3113   10.2560    0.0000 C   0  0  0  0  0  0  0  0  0  0  0  0
   -5.1929    9.0425    0.0000 C   0  0  0  0  0  0  0  0  0  0  0  0
  1  2  1  0
  2  3  1  0
  3  4  1  0
  4  5  1  0
  5  6  1  0
  6  7  1  0
  7  8  1  0
  8  9  1  0
  9 10  1  0
 10 11  1  0
 11 12  1  0
 12 13  1  0
 13 14  1  0
 14 15  1  0
 15 16  1  0
 16 17  1  0
 17 18  1  0
 18 19  1  0
 19 20  1  0
 20 21  1  0
 21 22  1  0
 22 23  1  0
 23 24  1  0
 24 25  1  0
 25 26  1  0
 26 27  1  0
 27 28  1  0
 28 29  1  0
 29 30  1  0
 30 31  1  0
 31 32  1  0
 32 33  1  0
 33 34  1  0
 34 35  1  0
 35 36  1  0
 36 37  1  0
 37 38  1  0
 38 39  1  0
 39 40  1  0
 40 41  1  0
 41 42  1  0
 42 43  1  0
 43 44  1  0
 44 45  1  0
 45 46  1  0
 46 47  1  0
 47 48  1  0
 48 49  1  0
 49 50  1  0
 50 51  1  0
 51 52  1  0
 52 53  1  0
 53 54  1  0
 54 55  1  0
 55 56  1  0
 56 57  1  0
 57 58  2  0
 58 59  1  0
 59 60  2  0
 60 61  1  0
 61 62  2  0
 62 63  1  0
 63 64  2  0
 64 65  1  0
 65 66  2  0
 66 67  1  0
 67 68  2  0
 68 69  1  0
 69 70  2  0
 70 71  1  0
 71 72  2  0
 72 73  1  0
 73 74  2  0
 74 75  1  0
 75 76  2  0
 76 77  1  0
 77 78  2  0
 78 79  1  0
 79 80  2  0
 80  2  1  0
 62 54  1  0
 68 63  1  0
 74 69  1  0
 80 75  1  0
M  END
>  <Title>  (483) 
idAAQQgen13

$$$$

     RDKit          2D

100102  0  0  0  0  0  0  0  0999 V2000
   -2.3999    0.0907    0.0000 C   0  0  0  0  0  0  0  0  0  0  0  0
   -2.2465   -1.4014    0.0000 C   0  0  0  0  0  0  0  0  0  0  0  0
   -3.7325   -1.6057    0.0000 C   0  0  0  0  0  0  0  0  0  0  0  0
   -5.2012   -1.9108    0.0000 C   0  0  0  0  0  0  0  0  0  0  0  0
   -6.6455   -2.3155    0.0000 C   0  0  0  0  0  0  0  0  0  0  0  0
   -8.0589   -2.8179    0.0000 C   0  0  0  0  0  0  0  0  0  0  0  0
   -9.4347   -3.4155    0.0000 C   0  0  0  0  0  0  0  0  0  0  0  0
  -10.7666   -4.1055    0.0000 C   0  0  0  0  0  0  0  0  0  0  0  0
  -12.0482   -4.8849    0.0000 C   0  0  0  0  0  0  0  0  0  0  0  0
  -13.2737   -5.7499    0.0000 C   0  0  0  0  0  0  0  0  0  0  0  0
  -14.4372   -6.6966    0.0000 C   0  0  0  0  0  0  0  0  0  0  0  0
  -15.5335   -7.7204    0.0000 C   0  0  0  0  0  0  0  0  0  0  0  0
  -16.5573   -8.8167    0.0000 C   0  0  0  0  0  0  0  0  0  0  0  0
  -17.5039   -9.9802    0.0000 C   0  0  0  0  0  0  0  0  0  0  0  0
  -18.3690  -11.2057    0.0000 C   0  0  0  0  0  0  0  0  0  0  0  0
  -19.1483  -12.4873    0.0000 C   0  0  0  0  0  0  0  0  0  0  0  0
  -19.8384  -13.8191    0.0000 C   0  0  0  0  0  0  0  0  0  0  0  0
  -20.4360  -15.1950    0.0000 C   0  0  0  0  0  0  0  0  0  0  0  0
  -20.9384  -16.6083    0.0000 C   0  0  0  0  0  0  0  0  0  0  0  0
  -21.3430  -18.0527    0.0000 C   0  0  0  0  0  0  0  0  0  0  0  0
  -21.6482  -19.5214    0.0000 C   0  0  0  0  0  0  0  0  0  0  0  0
  -21.8525  -21.0074    0.0000 C   0  0  0  0  0  0  0  0  0  0  0  0
  -21.9548  -22.5039    0.0000 C   0  0  0  0  0  0  0  0  0  0  0  0
  -21.9548  -24.0039    0.0000 C   0  0  0  0  0  0  0  0  0  0  0  0
  -21.8525  -25.5004    0.0000 C   0  0  0  0  0  0  0  0  0  0  0  0
  -21.6482  -26.9864    0.0000 C   0  0  0  0  0  0  0  0  0  0  0  0
  -21.3430  -28.4550    0.0000 C   0  0  0  0  0  0  0  0  0  0  0  0
  -20.9384  -29.8994    0.0000 C   0  0  0  0  0  0  0  0  0  0  0  0
  -20.4360  -31.3128    0.0000 C   0  0  0  0  0  0  0  0  0  0  0  0
  -19.8384  -32.6886    0.0000 C   0  0  0  0  0  0  0  0  0  0  0  0
  -19.1483  -34.0205    0.0000 C   0  0  0  0  0  0  0  0  0  0  0  0
  -18.3690  -35.3021    0.0000 C   0  0  0  0  0  0  0  0  0  0  0  0
  -17.5039  -36.5275    0.0000 C   0  0  0  0  0  0  0  0  0  0  0  0
  -16.5573  -37.6911    0.0000 C   0  0  0  0  0  0  0  0  0  0  0  0
  -15.5335  -38.7874    0.0000 C   0  0  0  0  0  0  0  0  0  0  0  0
  -14.4372  -39.8112    0.0000 C   0  0  0  0  0  0  0  0  0  0  0  0
  -13.2737  -40.7578    0.0000 C   0  0  0  0  0  0  0  0  0  0  0  0
  -12.0482  -41.6228    0.0000 C   0  0  0  0  0  0  0  0  0  0  0  0
  -10.7666  -42.4022    0.0000 C   0  0  0  0  0  0  0  0  0  0  0  0
   -9.4347  -43.0923    0.0000 C   0  0  0  0  0  0  0  0  0  0  0  0
   -8.0589  -43.6899    0.0000 C   0  0  0  0  0  0  0  0  0  0  0  0
   -6.6455  -44.1922    0.0000 C   0  0  0  0  0  0  0  0  0  0  0  0
   -5.2012  -44.5969    0.0000 C   0  0  0  0  0  0  0  0  0  0  0  0
   -3.7325  -44.9021    0.0000 C   0  0  0  0  0  0  0  0  0  0  0  0
   -2.2465  -45.1064    0.0000 C   0  0  0  0  0  0  0  0  0  0  0  0
   -0.7500  -45.2087    0.0000 C   0  0  0  0  0  0  0  0  0  0  0  0
    0.7500  -45.2087    0.0000 C   0  0  0  0  0  0  0  0  0  0  0  0
    2.2465  -45.1064    0.0000 C   0  0  0  0  0  0  0  0  0  0  0  0
    3.7325  -44.9021    0.0000 C   0  0  0  0  0  0  0  0  0  0  0  0
    5.2012  -44.5969    0.0000 C   0  0  0  0  0  0  0  0  0  0  0  0
    6.6455  -44.1922    0.0000 C   0  0  0  0  0  0  0  0  0  0  0  0
    8.0589  -43.6899    0.0000 C   0  0  0  0  0  0  0  0  0  0  0  0
    9.4347  -43.0923    0.0000 C   0  0  0  0  0  0  0  0  0  0  0  0
   10.7666  -42.4022    0.0000 C   0  0  0  0  0  0  0  0  0  0  0  0
   12.0482  -41.6228    0.0000 C   0  0  0  0  0  0  0  0  0  0  0  0
   13.2737  -40.7578    0.0000 C   0  0  0  0  0  0  0  0  0  0  0  0
   14.4372  -39.8112    0.0000 C   0  0  0  0  0  0  0  0  0  0  0  0
   15.5335  -38.7874    0.0000 C   0  0  0  0  0  0  0  0  0  0  0  0
   16.5573  -37.6911    0.0000 C   0  0  0  0  0  0  0  0  0  0  0  0
   17.5039  -36.5275    0.0000 C   0  0  0  0  0  0  0  0  0  0  0  0
   18.3690  -35.3021    0.0000 C   0  0  0  0  0  0  0  0  0  0  0  0
   19.1483  -34.0205    0.0000 C   0  0  0  0  0  0  0  0  0  0  0  0
   19.8384  -32.6886    0.0000 C   0  0  0  0  0  0  0  0  0  0  0  0
   20.4360  -31.3128    0.0000 C   0  0  0  0  0  0  0  0  0  0  0  0
   20.9384  -29.8994    0.0000 C   0  0  0  0  0  0  0  0  0  0  0  0
   21.3430  -28.4550    0.0000 C   0  0  0  0  0  0  0  0  0  0  0  0
   21.6482  -26.9864    0.0000 C   0  0  0  0  0  0  0  0  0  0  0  0
   21.8525  -25.5004    0.0000 C   0  0  0  0  0  0  0  0  0  0  0  0
   21.9548  -24.0039    0.0000 C   0  0  0  0  0  0  0  0  0  0  0  0
   21.9548  -22.5039    0.0000 C   0  0  0  0  0  0  0  0  0  0  0  0
   21.8525  -21.0074    0.0000 C   0  0  0  0  0  0  0  0  0  0  0  0
   21.6482  -19.5214    0.0000 C   0  0  0  0  0  0  0  0  0  0  0  0
   21.3430  -18.0527    0.0000 C   0  0  0  0  0  0  0  0  0  0  0  0
   20.9384  -16.6083    0.0000 C   0  0  0  0  0  0  0  0  0  0  0  0
   20.4360  -15.1950    0.0000 C   0  0  0  0  0  0  0  0  0  0  0  0
   19.8384  -13.8191    0.0000 C   0  0  0  0  0  0  0  0  0  0  0  0
   19.1483  -12.4873    0.0000 C   0  0  0  0  0  0  0  0  0  0  0  0
   18.3690  -11.2057    0.0000 C   0  0  0  0  0  0  0  0  0  0  0  0
   17.5039   -9.9802    0.0000 C   0  0  0  0  0  0  0  0  0  0  0  0
   16.5573   -8.8167    0.0000 C   0  0  0  0  0  0  0  0  0  0  0  0
   15.5335   -7.7204    0.0000 C   0  0  0  0  0  0  0  0  0  0  0  0
   14.4372   -6.6966    0.0000 C   0  0  0  0  0  0  0  0  0  0  0  0
   13.2737   -5.7499    0.0000 C   0  0  0  0  0  0  0  0  0  0  0  0
   12.0482   -4.8849    0.0000 C   0  0  0  0  0  0  0  0  0  0  0  0
   10.7666   -4.1055    0.0000 C   0  0  0  0  0  0  0  0  0  0  0  0
    9.4347   -3.4155    0.0000 C   0  0  0  0  0  0  0  0  0  0  0  0
    8.0589   -2.8179    0.0000 C   0  0  0  0  0  0  0  0  0  0  0  0
    6.6455   -2.3155    0.0000 C   0  0  0  0  0  0  0  0  0  0  0  0
    5.2012   -1.9108    0.0000 C   0  0  0  0  0  0  0  0  0  0  0  0
    3.7325   -1.6057    0.0000 C   0  0  0  0  0  0  0  0  0  0  0  0
    3.9975   -3.0821    0.0000 C   0  0  0  0  0  0  0  0  0  0  0  0
    2.6752   -3.7903    0.0000 C   0  0  0  0  0  0  0  0  0  0  0  0
    1.5930   -2.7516    0.0000 C   0  0  0  0  0  0  0  0  0  0  0  0
    2.2465   -1.4014    0.0000 C   0  0  0  0  0  0  0  0  0  0  0  0
    0.7500   -1.2990    0.0000 C   0  0  0  0  0  0  0  0  0  0  0  0
    1.5000    0.0000    0.0000 C   0  0  0  0  0  0  0  0  0  0  0  0
    0.7500    1.2990    0.0000 C   0  0  0  0  0  0  0  0  0  0  0  0
   -0.7500    1.2990    0.0000 C   0  0  0  0  0  0  0  0  0  0  0  0
   -1.5000    0.0000    0.0000 C   0  0  0  0  0  0  0  0  0  0  0  0
   -0.7500   -1.2990    0.0000 C   0  0  0  0  0  0  0  0  0  0  0  0
  1  2  1  0
  2  3  1  0
  3  4  1  0
  4  5  1  0
  5  6  1  0
  6  7  1  0
  7  8  1  0
  8  9  1  0
  9 10  1  0
 10 11  1  0
 11 12  1  0
 12 13  1  0
 13 14  1  0
 14 15  1  0
 15 16  1  0
 16 17  1  0
 17 18  1  0
 18 19  1  0
 19 20  1  0
 20 21  1  0
 21 22  1  0
 22 23  1  0
 23 24  1  0
 24 25  1  0
 25 26  1  0
 26 27  1  0
 27 28  1  0
 28 29  1  0
 29 30  1  0
 30 31  1  0
 31 32  1  0
 32 33  1  0
 33 34  1  0
 34 35  1  0
 35 36  1  0
 36 37  1  0
 37 38  1  0
 38 39  1  0
 39 40  1  0
 40 41  1  0
 41 42  1  0
 42 43  1  0
 43 44  1  0
 44 45  1  0
 45 46  1  0
 46 47  1  0
 47 48  1  0
 48 49  1  0
 49 50  1  0
 50 51  1  0
 51 52  1  0
 52 53  1  0
 53 54  1  0
 54 55  1  0
 55 56  1  0
 56 57  1  0
 57 58  1  0
 58 59  1  0
 59 60  1  0
 60 61  1  0
 61 62  1  0
 62 63  1  0
 63 64  1  0
 64 65  1  0
 65 66  1  0
 66 67  1  0
 67 68  1  0
 68 69  1  0
 69 70  1  0
 70 71  1  0
 71 72  1  0
 72 73  1  0
 73 74  1  0
 74 75  1  0
 75 76  1  0
 76 77  1  0
 77 78  1  0
 78 79  1  0
 79 80  1  0
 80 81  1  0
 81 82  1  0
 82 83  1  0
 83 84  1  0
 84 85  1  0
 85 86  2  0
 86 87  1  0
 87 88  2  0
 88 89  1  0
 89 90  2  0
 90 91  1  0
 91 92  2  0
 92 93  1  0
 93 94  2  0
 94 95  1  0
 95 96  2  0
 96 97  1  0
 97 98  2  0
 98 99  1  0
 99100  2  0
100  2  1  0
 94 90  1  0
100 95  1  0
M  END
>  <Title>  (484) 
idAAQRgen13

$$$$

     RDKit          2D

 29 32  0  0  0  0  0  0  0  0999 V2000
   -3.0000   -2.5981    0.0000 C   0  0  0  0  0  0  0  0  0  0  0  0
   -1.5000   -2.5981    0.0000 C   0  0  0  0  0  0  0  0  0  0  0  0
   -0.7500   -3.8971    0.0000 C   0  0  0  0  0  0  0  0  0  0  0  0
    0.7500   -3.8971    0.0000 C   0  0  0  0  0  0  0  0  0  0  0  0
    1.5000   -2.5981    0.0000 C   0  0  0  0  0  0  0  0  0  0  0  0
    3.0000   -2.5981    0.0000 O   0  0  0  0  0  0  0  0  0  0  0  0
    3.7500   -3.8971    0.0000 C   0  0  0  0  0  0  0  0  0  0  0  0
    3.0000   -5.1962    0.0000 O   0  0  0  0  0  0  0  0  0  0  0  0
    5.2500   -3.8971    0.0000 N   0  0  0  0  0  0  0  0  0  0  0  0
    6.1317   -2.6836    0.0000 C   0  0  0  0  0  0  0  0  0  0  0  0
    7.5583   -3.1471    0.0000 C   0  0  0  0  0  0  0  0  0  0  0  0
    7.5583   -4.6471    0.0000 C   0  0  0  0  0  0  0  0  0  0  0  0
    8.7718   -5.5288    0.0000 C   0  0  0  0  0  0  0  0  0  0  0  0
   10.1421   -4.9187    0.0000 O   0  0  0  0  0  0  0  0  0  0  0  0
    8.6150   -7.0206    0.0000 N   0  0  0  0  0  0  0  0  0  0  0  0
    9.8285   -7.9023    0.0000 C   0  0  0  0  0  0  0  0  0  0  0  0
    9.6717   -9.3940    0.0000 N   0  0  0  0  0  0  0  0  0  0  0  0
   10.8853  -10.2757    0.0000 N   0  0  0  0  0  0  0  0  0  0  0  0
   12.2556   -9.6656    0.0000 N   0  0  0  0  0  0  0  0  0  0  0  0
   12.4124   -8.1738    0.0000 N   0  0  0  0  0  0  0  0  0  0  0  0
   11.1988   -7.2921    0.0000 N   0  0  0  0  0  0  0  0  0  0  0  0
    6.1317   -5.1106    0.0000 C   0  0  0  0  0  0  0  0  0  0  0  0
    5.6682   -6.5372    0.0000 O   0  0  0  0  0  0  0  0  0  0  0  0
    0.7500   -1.2990    0.0000 C   0  0  0  0  0  0  0  0  0  0  0  0
    1.5000    0.0000    0.0000 C   0  0  0  0  0  0  0  0  0  0  0  0
    0.7500    1.2990    0.0000 C   0  0  0  0  0  0  0  0  0  0  0  0
   -0.7500    1.2990    0.0000 C   0  0  0  0  0  0  0  0  0  0  0  0
   -1.5000    0.0000    0.0000 C   0  0  0  0  0  0  0  0  0  0  0  0
   -0.7500   -1.2990    0.0000 C   0  0  0  0  0  0  0  0  0  0  0  0
  1  2  1  0
  2  3  1  0
  3  4  2  0
  4  5  1  0
  5  6  1  0
  6  7  1  0
  7  8  2  0
  7  9  1  0
  9 10  1  0
 10 11  1  0
 11 12  1  0
 12 13  1  0
 13 14  2  0
 13 15  1  0
 15 16  1  0
 16 17  2  0
 17 18  1  0
 18 19  2  0
 19 20  1  0
 20 21  2  0
 12 22  1  0
 22 23  2  0
  5 24  1  0
 24 25  2  0
 25 26  1  0
 26 27  2  0
 27 28  1  0
 28 29  2  0
 29  2  1  0
 22  9  1  0
 29 24  1  0
 21 16  1  0
M  END
>  <Title>  (485) 
idAAQSgen13

$$$$

     RDKit          2D

  8  7  0  0  0  0  0  0  0  0999 V2000
    0.0000    0.0000    0.0000 C   0  0  0  0  0  0  0  0  0  0  0  0
    1.2990    0.7500    0.0000 C   0  0  0  0  0  0  0  0  0  0  0  0
    2.5981   -0.0000    0.0000 C   0  0  0  0  0  0  0  0  0  0  0  0
    3.8971    0.7500    0.0000 C   0  0  0  0  0  0  0  0  0  0  0  0
    3.8971    2.2500    0.0000 O   0  0  0  0  0  0  0  0  0  0  0  0
    5.1962   -0.0000    0.0000 N   0  0  0  0  0  0  0  0  0  0  0  0
    6.4952    0.7500    0.0000 C   0  0  0  0  0  0  0  0  0  0  0  0
    7.7942   -0.0000    0.0000 C   0  0  0  0  0  0  0  0  0  0  0  0
  1  2  1  0
  2  3  1  0
  3  4  1  0
  4  5  2  0
  4  6  1  0
  6  7  1  0
  7  8  1  0
M  END
>  <Title>  (486) 
idAAQTgen13

$$$$

     RDKit          2D

 13 14  0  0  0  0  0  0  0  0999 V2000
    5.0260   -1.2990    0.0000 C   0  0  0  0  0  0  0  0  0  0  0  0
    3.5260   -1.2990    0.0000 C   0  0  0  0  0  0  0  0  0  0  0  0
    2.7760    0.0000    0.0000 C   0  0  0  0  0  0  0  0  0  0  0  0
    1.2760    0.0000    0.0000 C   0  0  0  0  0  0  0  0  0  0  0  0
    0.3943    1.2135    0.0000 N   0  0  0  0  0  0  0  0  0  0  0  0
   -1.0323    0.7500    0.0000 N   0  0  0  0  0  0  0  0  0  0  0  0
   -1.0323   -0.7500    0.0000 N   0  0  0  0  0  0  0  0  0  0  0  0
    0.3943   -1.2135    0.0000 N   0  0  0  0  0  0  0  0  0  0  0  0
    0.8578   -2.6401    0.0000 C   0  0  0  0  0  0  0  0  0  0  0  0
    2.2844   -3.1036    0.0000 C   0  0  0  0  0  0  0  0  0  0  0  0
    2.2844   -4.6036    0.0000 C   0  0  0  0  0  0  0  0  0  0  0  0
    0.8578   -5.0672    0.0000 C   0  0  0  0  0  0  0  0  0  0  0  0
   -0.0239   -3.8536    0.0000 C   0  0  0  0  0  0  0  0  0  0  0  0
  1  2  2  0
  2  3  1  0
  3  4  1  0
  4  5  2  0
  5  6  1  0
  6  7  2  0
  7  8  1  0
  8  9  1  0
  9 10  2  0
 10 11  1  0
 11 12  1  0
 12 13  2  0
  8  4  1  0
 13  9  1  0
M  END
>  <Title>  (487) 
idAAQUgen13

$$$$

     RDKit          2D

 99101  0  0  0  0  0  0  0  0999 V2000
   -1.0384    6.1543    0.0000 C   0  0  0  0  0  0  0  0  0  0  0  0
    0.3671    6.6783    0.0000 C   0  0  0  0  0  0  0  0  0  0  0  0
   -0.1019    8.1031    0.0000 C   0  0  0  0  0  0  0  0  0  0  0  0
   -0.4592    9.5599    0.0000 C   0  0  0  0  0  0  0  0  0  0  0  0
   -0.7024   11.0400    0.0000 C   0  0  0  0  0  0  0  0  0  0  0  0
   -0.8303   12.5346    0.0000 C   0  0  0  0  0  0  0  0  0  0  0  0
   -0.8419   14.0345    0.0000 C   0  0  0  0  0  0  0  0  0  0  0  0
   -0.7373   15.5309    0.0000 C   0  0  0  0  0  0  0  0  0  0  0  0
   -0.5170   17.0146    0.0000 C   0  0  0  0  0  0  0  0  0  0  0  0
   -0.1824   18.4768    0.0000 C   0  0  0  0  0  0  0  0  0  0  0  0
    0.2645   19.9087    0.0000 C   0  0  0  0  0  0  0  0  0  0  0  0
    0.8210   21.3017    0.0000 C   0  0  0  0  0  0  0  0  0  0  0  0
    1.4838   22.6473    0.0000 C   0  0  0  0  0  0  0  0  0  0  0  0
    2.2489   23.9375    0.0000 C   0  0  0  0  0  0  0  0  0  0  0  0
    3.1116   25.1646    0.0000 C   0  0  0  0  0  0  0  0  0  0  0  0
    4.0668   26.3211    0.0000 C   0  0  0  0  0  0  0  0  0  0  0  0
    5.1088   27.4001    0.0000 C   0  0  0  0  0  0  0  0  0  0  0  0
    6.2313   28.3951    0.0000 C   0  0  0  0  0  0  0  0  0  0  0  0
    7.4275   29.3001    0.0000 C   0  0  0  0  0  0  0  0  0  0  0  0
    8.6902   30.1098    0.0000 C   0  0  0  0  0  0  0  0  0  0  0  0
   10.0119   30.8191    0.0000 C   0  0  0  0  0  0  0  0  0  0  0  0
   11.3846   31.4239    0.0000 C   0  0  0  0  0  0  0  0  0  0  0  0
   12.8000   31.9205    0.0000 C   0  0  0  0  0  0  0  0  0  0  0  0
   14.2496   32.3059    0.0000 C   0  0  0  0  0  0  0  0  0  0  0  0
   15.7248   32.5778    0.0000 C   0  0  0  0  0  0  0  0  0  0  0  0
   17.2166   32.7346    0.0000 C   0  0  0  0  0  0  0  0  0  0  0  0
   18.7160   32.7753    0.0000 C   0  0  0  0  0  0  0  0  0  0  0  0
   20.2141   32.6997    0.0000 C   0  0  0  0  0  0  0  0  0  0  0  0
   21.7018   32.5083    0.0000 C   0  0  0  0  0  0  0  0  0  0  0  0
   23.1703   32.2021    0.0000 C   0  0  0  0  0  0  0  0  0  0  0  0
   24.6105   31.7831    0.0000 C   0  0  0  0  0  0  0  0  0  0  0  0
   26.0140   31.2537    0.0000 C   0  0  0  0  0  0  0  0  0  0  0  0
   27.3723   30.6171    0.0000 C   0  0  0  0  0  0  0  0  0  0  0  0
   28.6771   29.8772    0.0000 C   0  0  0  0  0  0  0  0  0  0  0  0
   29.9206   29.0384    0.0000 C   0  0  0  0  0  0  0  0  0  0  0  0
   31.0954   28.1058    0.0000 C   0  0  0  0  0  0  0  0  0  0  0  0
   32.1945   27.0849    0.0000 C   0  0  0  0  0  0  0  0  0  0  0  0
   33.2111   25.9819    0.0000 C   0  0  0  0  0  0  0  0  0  0  0  0
   34.1391   24.8035    0.0000 C   0  0  0  0  0  0  0  0  0  0  0  0
   34.9731   23.5567    0.0000 C   0  0  0  0  0  0  0  0  0  0  0  0
   35.7079   22.2490    0.0000 C   0  0  0  0  0  0  0  0  0  0  0  0
   36.3392   20.8884    0.0000 C   0  0  0  0  0  0  0  0  0  0  0  0
   36.8632   19.4828    0.0000 C   0  0  0  0  0  0  0  0  0  0  0  0
   37.2766   18.0409    0.0000 C   0  0  0  0  0  0  0  0  0  0  0  0
   37.5771   16.5714    0.0000 C   0  0  0  0  0  0  0  0  0  0  0  0
   37.7628   15.0829    0.0000 C   0  0  0  0  0  0  0  0  0  0  0  0
   37.8326   13.5845    0.0000 C   0  0  0  0  0  0  0  0  0  0  0  0
   37.7860   12.0852    0.0000 C   0  0  0  0  0  0  0  0  0  0  0  0
   37.6235   10.5941    0.0000 C   0  0  0  0  0  0  0  0  0  0  0  0
   37.3458    9.1200    0.0000 C   0  0  0  0  0  0  0  0  0  0  0  0
   36.9548    7.6719    0.0000 C   0  0  0  0  0  0  0  0  0  0  0  0
   36.4527    6.2584    0.0000 C   0  0  0  0  0  0  0  0  0  0  0  0
   35.8426    4.8881    0.0000 C   0  0  0  0  0  0  0  0  0  0  0  0
   35.1281    3.5691    0.0000 C   0  0  0  0  0  0  0  0  0  0  0  0
   34.3136    2.3096    0.0000 C   0  0  0  0  0  0  0  0  0  0  0  0
   33.4039    1.1169    0.0000 C   0  0  0  0  0  0  0  0  0  0  0  0
   32.4046   -0.0017    0.0000 C   0  0  0  0  0  0  0  0  0  0  0  0
   31.3215   -1.0395    0.0000 C   0  0  0  0  0  0  0  0  0  0  0  0
   30.1613   -1.9903    0.0000 C   0  0  0  0  0  0  0  0  0  0  0  0
   28.9309   -2.8482    0.0000 C   0  0  0  0  0  0  0  0  0  0  0  0
   27.6377   -3.6083    0.0000 C   0  0  0  0  0  0  0  0  0  0  0  0
   26.2896   -4.2659    0.0000 C   0  0  0  0  0  0  0  0  0  0  0  0
   24.8945   -4.8170    0.0000 C   0  0  0  0  0  0  0  0  0  0  0  0
   23.4609   -5.2583    0.0000 C   0  0  0  0  0  0  0  0  0  0  0  0
   21.9974   -5.5872    0.0000 C   0  0  0  0  0  0  0  0  0  0  0  0
   20.5128   -5.8017    0.0000 C   0  0  0  0  0  0  0  0  0  0  0  0
   19.0160   -5.9006    0.0000 C   0  0  0  0  0  0  0  0  0  0  0  0
   17.5161   -5.8831    0.0000 C   0  0  0  0  0  0  0  0  0  0  0  0
   16.0221   -5.7495    0.0000 C   0  0  0  0  0  0  0  0  0  0  0  0
   14.5429   -5.5005    0.0000 C   0  0  0  0  0  0  0  0  0  0  0  0
   13.0875   -5.1376    0.0000 C   0  0  0  0  0  0  0  0  0  0  0  0
   11.6645   -4.6630    0.0000 C   0  0  0  0  0  0  0  0  0  0  0  0
   10.2826   -4.0796    0.0000 C   0  0  0  0  0  0  0  0  0  0  0  0
    8.9501   -3.3908    0.0000 C   0  0  0  0  0  0  0  0  0  0  0  0
    7.6750   -2.6009    0.0000 C   0  0  0  0  0  0  0  0  0  0  0  0
    6.4649   -1.7145    0.0000 C   0  0  0  0  0  0  0  0  0  0  0  0
    5.3271   -0.7370    0.0000 C   0  0  0  0  0  0  0  0  0  0  0  0
    4.2685    0.3257    0.0000 C   0  0  0  0  0  0  0  0  0  0  0  0
    3.2954    1.4672    0.0000 C   0  0  0  0  0  0  0  0  0  0  0  0
    3.6073    0.0000    0.0000 C   0  0  0  0  0  0  0  0  0  0  0  0
    3.2954   -1.4672    0.0000 C   0  0  0  0  0  0  0  0  0  0  0  0
    2.4138   -2.6807    0.0000 C   0  0  0  0  0  0  0  0  0  0  0  0
    1.1147   -3.4307    0.0000 C   0  0  0  0  0  0  0  0  0  0  0  0
   -0.3771   -3.5875    0.0000 C   0  0  0  0  0  0  0  0  0  0  0  0
   -1.8037   -3.1240    0.0000 C   0  0  0  0  0  0  0  0  0  0  0  0
   -2.9184   -2.1203    0.0000 C   0  0  0  0  0  0  0  0  0  0  0  0
   -3.5285   -0.7500    0.0000 C   0  0  0  0  0  0  0  0  0  0  0  0
   -3.5285    0.7500    0.0000 C   0  0  0  0  0  0  0  0  0  0  0  0
   -2.9184    2.1203    0.0000 C   0  0  0  0  0  0  0  0  0  0  0  0
   -1.8037    3.1240    0.0000 C   0  0  0  0  0  0  0  0  0  0  0  0
   -0.3771    3.5875    0.0000 C   0  0  0  0  0  0  0  0  0  0  0  0
    1.1147    3.4307    0.0000 C   0  0  0  0  0  0  0  0  0  0  0  0
    2.4138    2.6807    0.0000 C   0  0  0  0  0  0  0  0  0  0  0  0
    1.6288    3.9589    0.0000 C   0  0  0  0  0  0  0  0  0  0  0  0
    3.1269    3.8833    0.0000 C   0  0  0  0  0  0  0  0  0  0  0  0
    3.9414    5.1429    0.0000 C   0  0  0  0  0  0  0  0  0  0  0  0
    3.2578    6.4781    0.0000 C   0  0  0  0  0  0  0  0  0  0  0  0
    1.7597    6.5537    0.0000 C   0  0  0  0  0  0  0  0  0  0  0  0
    0.9452    5.2941    0.0000 C   0  0  0  0  0  0  0  0  0  0  0  0
  1  2  1  0
  2  3  1  0
  3  4  1  0
  4  5  1  0
  5  6  1  0
  6  7  1  0
  7  8  1  0
  8  9  1  0
  9 10  1  0
 10 11  1  0
 11 12  1  0
 12 13  1  0
 13 14  1  0
 14 15  1  0
 15 16  1  0
 16 17  1  0
 17 18  1  0
 18 19  1  0
 19 20  1  0
 20 21  1  0
 21 22  1  0
 22 23  1  0
 23 24  1  0
 24 25  1  0
 25 26  1  0
 26 27  1  0
 27 28  1  0
 28 29  1  0
 29 30  1  0
 30 31  1  0
 31 32  1  0
 32 33  1  0
 33 34  1  0
 34 35  1  0
 35 36  1  0
 36 37  1  0
 37 38  1  0
 38 39  1  0
 39 40  1  0
 40 41  1  0
 41 42  1  0
 42 43  1  0
 43 44  1  0
 44 45  1  0
 45 46  1  0
 46 47  1  0
 47 48  1  0
 48 49  1  0
 49 50  1  0
 50 51  1  0
 51 52  1  0
 52 53  1  0
 53 54  1  0
 54 55  1  0
 55 56  1  0
 56 57  1  0
 57 58  1  0
 58 59  1  0
 59 60  1  0
 60 61  1  0
 61 62  1  0
 62 63  1  0
 63 64  1  0
 64 65  1  0
 65 66  1  0
 66 67  1  0
 67 68  1  0
 68 69  1  0
 69 70  1  0
 70 71  1  0
 71 72  1  0
 72 73  1  0
 73 74  1  0
 74 75  1  0
 75 76  1  0
 76 77  1  0
 77 78  1  0
 78 79  1  0
 79 80  1  0
 80 81  1  0
 81 82  1  0
 82 83  2  0
 83 84  1  0
 84 85  2  0
 85 86  1  0
 86 87  2  0
 87 88  1  0
 88 89  2  0
 89 90  1  0
 90 91  2  0
 91 92  1  0
 92 93  2  0
 93 94  1  0
 94 95  2  0
 95 96  1  0
 96 97  2  0
 97 98  1  0
 98 99  2  0
 99  2  1  0
 93 79  1  0
 99 94  1  0
M  END
>  <Title>  (488) 
idAAQVgen13

$$$$

     RDKit          2D

 32 31  0  0  0  0  0  0  0  0999 V2000
    0.0000    0.0000    0.0000 C   0  0  0  0  0  0  0  0  0  0  0  0
   -0.0000   -1.5000    0.0000 C   0  0  0  0  0  0  0  0  0  0  0  0
   -0.0000   -3.0000    0.0000 C   0  0  0  0  0  0  0  0  0  0  0  0
   -0.0000   -4.5000    0.0000 C   0  0  0  0  0  0  0  0  0  0  0  0
   -0.0000   -6.0000    0.0000 C   0  0  0  0  0  0  0  0  0  0  0  0
   -0.0000   -7.5000    0.0000 C   0  0  0  0  0  0  0  0  0  0  0  0
   -0.0000   -9.0000    0.0000 C   0  0  0  0  0  0  0  0  0  0  0  0
   -0.0000  -10.5000    0.0000 C   0  0  0  0  0  0  0  0  0  0  0  0
   -0.0000  -12.0000    0.0000 C   0  0  0  0  0  0  0  0  0  0  0  0
   -0.0000  -13.5000    0.0000 C   0  0  0  0  0  0  0  0  0  0  0  0
   -0.0000  -15.0000    0.0000 C   0  0  0  0  0  0  0  0  0  0  0  0
   -0.0000  -16.5000    0.0000 C   0  0  0  0  0  0  0  0  0  0  0  0
   -0.0000  -18.0000    0.0000 C   0  0  0  0  0  0  0  0  0  0  0  0
   -0.0000  -19.5000    0.0000 C   0  0  0  0  0  0  0  0  0  0  0  0
   -0.0000  -21.0000    0.0000 C   0  0  0  0  0  0  0  0  0  0  0  0
   -0.0000  -22.5000    0.0000 C   0  0  0  0  0  0  0  0  0  0  0  0
   -0.0000  -24.0000    0.0000 C   0  0  0  0  0  0  0  0  0  0  0  0
   -0.0000  -25.5000    0.0000 C   0  0  0  0  0  0  0  0  0  0  0  0
   -0.0000  -27.0000    0.0000 C   0  0  0  0  0  0  0  0  0  0  0  0
   -0.0000  -28.5000    0.0000 C   0  0  0  0  0  0  0  0  0  0  0  0
   -0.0000  -30.0000    0.0000 C   0  0  0  0  0  0  0  0  0  0  0  0
   -0.0000  -31.5000    0.0000 C   0  0  0  0  0  0  0  0  0  0  0  0
   -0.0000  -33.0000    0.0000 C   0  0  0  0  0  0  0  0  0  0  0  0
   -0.0000  -34.5000    0.0000 C   0  0  0  0  0  0  0  0  0  0  0  0
   -0.0000  -36.0000    0.0000 C   0  0  0  0  0  0  0  0  0  0  0  0
   -0.0000  -37.5000    0.0000 C   0  0  0  0  0  0  0  0  0  0  0  0
   -0.0000  -39.0000    0.0000 C   0  0  0  0  0  0  0  0  0  0  0  0
   -0.0000  -40.5000    0.0000 C   0  0  0  0  0  0  0  0  0  0  0  0
   -0.0000  -42.0000    0.0000 C   0  0  0  0  0  0  0  0  0  0  0  0
   -0.0000  -43.5000    0.0000 C   0  0  0  0  0  0  0  0  0  0  0  0
   -0.0000  -45.0000    0.0000 C   0  0  0  0  0  0  0  0  0  0  0  0
   -0.0000  -46.5000    0.0000 C   0  0  0  0  0  0  0  0  0  0  0  0
  1  2  3  0
  2  3  1  0
  3  4  3  0
  4  5  1  0
  5  6  3  0
  6  7  1  0
  7  8  3  0
  8  9  1  0
  9 10  3  0
 10 11  1  0
 11 12  3  0
 12 13  1  0
 13 14  3  0
 14 15  1  0
 15 16  3  0
 16 17  1  0
 17 18  3  0
 18 19  1  0
 19 20  3  0
 20 21  1  0
 21 22  3  0
 22 23  1  0
 23 24  3  0
 24 25  1  0
 25 26  3  0
 26 27  1  0
 27 28  3  0
 28 29  1  0
 29 30  3  0
 30 31  1  0
 31 32  3  0
M  END
>  <Title>  (489) 
idAAQWgen13

$$$$

     RDKit          2D

 12 13  0  0  0  0  0  0  0  0999 V2000
    1.8478   -6.4639    0.0000 C   0  0  0  0  0  0  0  0  0  0  0  0
    2.0046   -4.9721    0.0000 C   0  0  0  0  0  0  0  0  0  0  0  0
    3.3037   -4.2221    0.0000 C   0  0  0  0  0  0  0  0  0  0  0  0
    2.9918   -2.7549    0.0000 C   0  0  0  0  0  0  0  0  0  0  0  0
    1.5000   -2.5981    0.0000 C   0  0  0  0  0  0  0  0  0  0  0  0
    0.7500   -1.2990    0.0000 C   0  0  0  0  0  0  0  0  0  0  0  0
    1.5000    0.0000    0.0000 C   0  0  0  0  0  0  0  0  0  0  0  0
    0.7500    1.2990    0.0000 C   0  0  0  0  0  0  0  0  0  0  0  0
   -0.7500    1.2990    0.0000 N   0  0  0  0  0  0  0  0  0  0  0  0
   -1.5000    0.0000    0.0000 N   0  0  0  0  0  0  0  0  0  0  0  0
   -0.7500   -1.2990    0.0000 N   0  0  0  0  0  0  0  0  0  0  0  0
    0.8899   -3.9684    0.0000 C   0  0  0  0  0  0  0  0  0  0  0  0
  1  2  1  0
  2  3  2  0
  3  4  1  0
  4  5  2  0
  5  6  1  0
  6  7  2  0
  7  8  1  0
  8  9  2  0
  9 10  1  0
 10 11  2  0
  5 12  1  0
 12  2  1  0
 11  6  1  0
M  END
>  <Title>  (490) 
idAAQXgen13

$$$$

     RDKit          2D

 47 53  0  0  0  0  0  0  0  0999 V2000
   -1.1382   -8.3460    0.0000 C   0  0  0  0  0  0  0  0  0  0  0  0
   -0.7500   -6.8971    0.0000 C   0  0  0  0  0  0  0  0  0  0  0  0
    0.7500   -6.8971    0.0000 C   0  0  0  0  0  0  0  0  0  0  0  0
    2.0490   -6.1471    0.0000 C   0  0  0  0  0  0  0  0  0  0  0  0
    2.7990   -4.8481    0.0000 C   0  0  0  0  0  0  0  0  0  0  0  0
    2.7990   -3.3481    0.0000 C   0  0  0  0  0  0  0  0  0  0  0  0
    2.0490   -2.0490    0.0000 C   0  0  0  0  0  0  0  0  0  0  0  0
    3.1097   -0.9884    0.0000 C   0  0  0  0  0  0  0  0  0  0  0  0
    2.7215    0.4605    0.0000 O   0  0  0  0  0  0  0  0  0  0  0  0
    4.5586   -1.3766    0.0000 N   0  0  0  0  0  0  0  0  0  0  0  0
    5.6192   -0.3159    0.0000 C   0  0  0  0  0  0  0  0  0  0  0  0
    5.3846    1.1656    0.0000 N   0  0  0  0  0  0  0  0  0  0  0  0
    6.7211    1.8466    0.0000 N   0  0  0  0  0  0  0  0  0  0  0  0
    7.7818    0.7859    0.0000 N   0  0  0  0  0  0  0  0  0  0  0  0
    7.1008   -0.5506    0.0000 N   0  0  0  0  0  0  0  0  0  0  0  0
    7.7818   -1.8871    0.0000 N   0  0  0  0  0  0  0  0  0  0  0  0
    7.3182   -3.3137    0.0000 C   0  0  0  0  0  0  0  0  0  0  0  0
    8.7448   -3.7772    0.0000 C   0  0  0  0  0  0  0  0  0  0  0  0
    9.4258   -5.1137    0.0000 C   0  0  0  0  0  0  0  0  0  0  0  0
   10.9238   -5.1922    0.0000 O   0  0  0  0  0  0  0  0  0  0  0  0
    8.6089   -6.3717    0.0000 N   0  0  0  0  0  0  0  0  0  0  0  0
    9.2898   -7.7082    0.0000 C   0  0  0  0  0  0  0  0  0  0  0  0
    8.4729   -8.9662    0.0000 N   0  0  0  0  0  0  0  0  0  0  0  0
    9.1539  -10.3028    0.0000 N   0  0  0  0  0  0  0  0  0  0  0  0
   10.6518  -10.3813    0.0000 N   0  0  0  0  0  0  0  0  0  0  0  0
   11.4688   -9.1233    0.0000 N   0  0  0  0  0  0  0  0  0  0  0  0
   10.7878   -7.7867    0.0000 N   0  0  0  0  0  0  0  0  0  0  0  0
    9.2084   -2.3506    0.0000 C   0  0  0  0  0  0  0  0  0  0  0  0
   10.5449   -1.6696    0.0000 O   0  0  0  0  0  0  0  0  0  0  0  0
    0.7500   -1.2990    0.0000 C   0  0  0  0  0  0  0  0  0  0  0  0
    1.5000    0.0000    0.0000 C   0  0  0  0  0  0  0  0  0  0  0  0
    0.7500    1.2990    0.0000 C   0  0  0  0  0  0  0  0  0  0  0  0
   -0.7500    1.2990    0.0000 C   0  0  0  0  0  0  0  0  0  0  0  0
   -1.5000    0.0000    0.0000 C   0  0  0  0  0  0  0  0  0  0  0  0
   -0.7500   -1.2990    0.0000 C   0  0  0  0  0  0  0  0  0  0  0  0
   -2.0490   -2.0490    0.0000 C   0  0  0  0  0  0  0  0  0  0  0  0
   -2.7990   -0.7500    0.0000 C   0  0  0  0  0  0  0  0  0  0  0  0
   -4.2990   -0.7500    0.0000 C   0  0  0  0  0  0  0  0  0  0  0  0
   -5.0490   -2.0490    0.0000 C   0  0  0  0  0  0  0  0  0  0  0  0
   -4.2990   -3.3481    0.0000 C   0  0  0  0  0  0  0  0  0  0  0  0
   -2.7990   -3.3481    0.0000 C   0  0  0  0  0  0  0  0  0  0  0  0
   -2.7990   -4.8481    0.0000 C   0  0  0  0  0  0  0  0  0  0  0  0
   -4.2990   -4.8481    0.0000 C   0  0  0  0  0  0  0  0  0  0  0  0
   -5.0490   -6.1471    0.0000 C   0  0  0  0  0  0  0  0  0  0  0  0
   -4.2990   -7.4462    0.0000 C   0  0  0  0  0  0  0  0  0  0  0  0
   -2.7990   -7.4462    0.0000 C   0  0  0  0  0  0  0  0  0  0  0  0
   -2.0490   -6.1471    0.0000 C   0  0  0  0  0  0  0  0  0  0  0  0
  1  2  1  0
  2  3  1  0
  3  4  2  0
  4  5  1  0
  5  6  1  0
  6  7  1  0
  7  8  1  0
  8  9  2  0
  8 10  1  0
 10 11  1  0
 11 12  2  0
 12 13  1  0
 13 14  2  0
 14 15  1  0
 15 16  1  0
 16 17  1  0
 17 18  2  0
 18 19  1  0
 19 20  2  0
 19 21  1  0
 21 22  1  0
 22 23  2  0
 23 24  1  0
 24 25  2  0
 25 26  1  0
 26 27  2  0
 18 28  1  0
 28 29  2  0
  7 30  1  0
 30 31  2  0
 31 32  1  0
 32 33  2  0
 33 34  1  0
 34 35  2  0
 35 36  1  0
 36 37  2  0
 37 38  1  0
 38 39  2  0
 39 40  1  0
 40 41  2  0
 41 42  1  0
 42 43  2  0
 43 44  1  0
 44 45  2  0
 45 46  1  0
 46 47  2  0
 47  2  1  0
 15 11  1  0
 28 16  1  0
 35 30  1  0
 41 36  1  0
 47 42  1  0
 27 22  1  0
M  END
>  <Title>  (491) 
idAAQYgen13

$$$$

     RDKit          2D

 37 42  0  0  0  0  0  0  0  0999 V2000
   -1.3240   -6.3062    0.0000 C   0  0  0  0  0  0  0  0  0  0  0  0
   -0.7500   -4.9204    0.0000 C   0  0  0  0  0  0  0  0  0  0  0  0
    0.7500   -4.9204    0.0000 C   0  0  0  0  0  0  0  0  0  0  0  0
    1.8107   -3.8597    0.0000 C   0  0  0  0  0  0  0  0  0  0  0  0
    1.8107   -2.3597    0.0000 C   0  0  0  0  0  0  0  0  0  0  0  0
    3.1965   -1.7857    0.0000 C   0  0  0  0  0  0  0  0  0  0  0  0
    3.3923   -0.2985    0.0000 O   0  0  0  0  0  0  0  0  0  0  0  0
    4.3865   -2.6988    0.0000 N   0  0  0  0  0  0  0  0  0  0  0  0
    5.7723   -2.1248    0.0000 C   0  0  0  0  0  0  0  0  0  0  0  0
    6.1225   -0.6662    0.0000 N   0  0  0  0  0  0  0  0  0  0  0  0
    7.6179   -0.5485    0.0000 N   0  0  0  0  0  0  0  0  0  0  0  0
    8.1919   -1.9344    0.0000 N   0  0  0  0  0  0  0  0  0  0  0  0
    7.0513   -2.9085    0.0000 N   0  0  0  0  0  0  0  0  0  0  0  0
    7.1690   -4.4039    0.0000 N   0  0  0  0  0  0  0  0  0  0  0  0
    8.4479   -5.1877    0.0000 C   0  0  0  0  0  0  0  0  0  0  0  0
    8.0978   -6.6462    0.0000 C   0  0  0  0  0  0  0  0  0  0  0  0
    6.6024   -6.7639    0.0000 N   0  0  0  0  0  0  0  0  0  0  0  0
    5.8186   -8.0429    0.0000 C   0  0  0  0  0  0  0  0  0  0  0  0
    4.3192   -8.0036    0.0000 C   0  0  0  0  0  0  0  0  0  0  0  0
    3.5354   -9.2826    0.0000 C   0  0  0  0  0  0  0  0  0  0  0  0
    4.2512  -10.6008    0.0000 C   0  0  0  0  0  0  0  0  0  0  0  0
    5.7506  -10.6401    0.0000 C   0  0  0  0  0  0  0  0  0  0  0  0
    6.5344   -9.3611    0.0000 C   0  0  0  0  0  0  0  0  0  0  0  0
    6.0284   -5.3781    0.0000 C   0  0  0  0  0  0  0  0  0  0  0  0
    4.5698   -5.0279    0.0000 O   0  0  0  0  0  0  0  0  0  0  0  0
    0.7500   -1.2990    0.0000 C   0  0  0  0  0  0  0  0  0  0  0  0
    1.5000    0.0000    0.0000 C   0  0  0  0  0  0  0  0  0  0  0  0
    0.7500    1.2990    0.0000 C   0  0  0  0  0  0  0  0  0  0  0  0
   -0.7500    1.2990    0.0000 C   0  0  0  0  0  0  0  0  0  0  0  0
   -1.5000    0.0000    0.0000 C   0  0  0  0  0  0  0  0  0  0  0  0
   -0.7500   -1.2990    0.0000 C   0  0  0  0  0  0  0  0  0  0  0  0
   -1.8107   -2.3597    0.0000 C   0  0  0  0  0  0  0  0  0  0  0  0
   -3.1097   -1.6097    0.0000 C   0  0  0  0  0  0  0  0  0  0  0  0
   -4.4087   -2.3597    0.0000 C   0  0  0  0  0  0  0  0  0  0  0  0
   -4.4087   -3.8597    0.0000 C   0  0  0  0  0  0  0  0  0  0  0  0
   -3.1097   -4.6097    0.0000 C   0  0  0  0  0  0  0  0  0  0  0  0
   -1.8107   -3.8597    0.0000 C   0  0  0  0  0  0  0  0  0  0  0  0
  1  2  2  0
  2  3  1  0
  3  4  1  0
  4  5  2  0
  5  6  1  0
  6  7  2  0
  6  8  1  0
  8  9  1  0
  9 10  2  0
 10 11  1  0
 11 12  2  0
 12 13  1  0
 13 14  1  0
 14 15  1  0
 15 16  1  0
 16 17  1  0
 17 18  1  0
 18 19  2  0
 19 20  1  0
 20 21  2  0
 21 22  1  0
 22 23  2  0
 17 24  1  0
 24 25  2  0
  5 26  1  0
 26 27  2  0
 27 28  1  0
 28 29  2  0
 29 30  1  0
 30 31  2  0
 31 32  1  0
 32 33  2  0
 33 34  1  0
 34 35  2  0
 35 36  1  0
 36 37  2  0
 37  2  1  0
 13  9  1  0
 24 14  1  0
 31 26  1  0
 37 32  1  0
 23 18  1  0
M  END
>  <Title>  (492) 
idAAQZgen13

$$$$

     RDKit          2D

 10 10  0  0  0  0  0  0  0  0999 V2000
    7.5000    0.0000    0.0000 C   0  0  0  0  0  0  0  0  0  0  0  0
    6.0000    0.0000    0.0000 C   0  0  0  0  0  0  0  0  0  0  0  0
    4.5000    0.0000    0.0000 C   0  0  0  0  0  0  0  0  0  0  0  0
    3.0000    0.0000    0.0000 C   0  0  0  0  0  0  0  0  0  0  0  0
    1.5000    0.0000    0.0000 C   0  0  0  0  0  0  0  0  0  0  0  0
    0.7500   -1.2990    0.0000 C   0  0  0  0  0  0  0  0  0  0  0  0
   -0.7500   -1.2990    0.0000 C   0  0  0  0  0  0  0  0  0  0  0  0
   -1.5000    0.0000    0.0000 C   0  0  0  0  0  0  0  0  0  0  0  0
   -0.7500    1.2990    0.0000 C   0  0  0  0  0  0  0  0  0  0  0  0
    0.7500    1.2990    0.0000 C   0  0  0  0  0  0  0  0  0  0  0  0
  1  2  3  0
  2  3  1  0
  3  4  3  0
  4  5  1  0
  5  6  2  0
  6  7  1  0
  7  8  2  0
  8  9  1  0
  9 10  2  0
 10  5  1  0
M  END
>  <Title>  (493) 
idAARAgen13

$$$$

     RDKit          2D

 20 22  0  0  0  0  0  0  0  0999 V2000
    4.2098   -1.2990    0.0000 C   0  0  0  0  0  0  0  0  0  0  0  0
    3.4598   -0.0000    0.0000 C   0  0  0  0  0  0  0  0  0  0  0  0
    4.2098    1.2990    0.0000 O   0  0  0  0  0  0  0  0  0  0  0  0
    1.9598    0.0000    0.0000 N   0  0  0  0  0  0  0  0  0  0  0  0
    1.3858   -1.3858    0.0000 C   0  0  0  0  0  0  0  0  0  0  0  0
   -0.0000   -1.9598    0.0000 C   0  0  0  0  0  0  0  0  0  0  0  0
   -1.3858   -1.3858    0.0000 C   0  0  0  0  0  0  0  0  0  0  0  0
   -1.9598    0.0000    0.0000 C   0  0  0  0  0  0  0  0  0  0  0  0
   -1.3858    1.3858    0.0000 C   0  0  0  0  0  0  0  0  0  0  0  0
    0.0000    1.9598    0.0000 C   0  0  0  0  0  0  0  0  0  0  0  0
    1.3858    1.3858    0.0000 C   0  0  0  0  0  0  0  0  0  0  0  0
    1.2990    2.7098    0.0000 N   0  0  0  0  0  0  0  0  0  0  0  0
    1.2990    4.2098    0.0000 N   0  0  0  0  0  0  0  0  0  0  0  0
    2.4138    5.2135    0.0000 N   0  0  0  0  0  0  0  0  0  0  0  0
    1.8037    6.5839    0.0000 N   0  0  0  0  0  0  0  0  0  0  0  0
    0.3119    6.4271    0.0000 N   0  0  0  0  0  0  0  0  0  0  0  0
   -0.0000    4.9598    0.0000 C   0  0  0  0  0  0  0  0  0  0  0  0
   -1.2990    4.2098    0.0000 N   0  0  0  0  0  0  0  0  0  0  0  0
   -1.2990    2.7098    0.0000 C   0  0  0  0  0  0  0  0  0  0  0  0
   -2.5981    1.9598    0.0000 O   0  0  0  0  0  0  0  0  0  0  0  0
  1  2  1  0
  2  3  2  0
  2  4  1  0
  4  5  1  0
  5  6  2  0
  6  7  1  0
  7  8  2  0
  8  9  1  0
  9 10  1  0
 10 11  1  0
 10 12  1  0
 12 13  1  0
 13 14  1  0
 14 15  2  0
 15 16  1  0
 16 17  2  0
 17 18  1  0
 18 19  1  0
 19 20  2  0
 11  4  1  0
 17 13  1  0
 19 10  1  0
M  END
>  <Title>  (494) 
idAARBgen13

$$$$

     RDKit          2D

 37 41  0  0  0  0  0  0  0  0999 V2000
   -3.1965   -1.7857    0.0000 C   0  0  0  0  0  0  0  0  0  0  0  0
   -1.8107   -2.3597    0.0000 C   0  0  0  0  0  0  0  0  0  0  0  0
   -1.8107   -3.8597    0.0000 C   0  0  0  0  0  0  0  0  0  0  0  0
   -0.7500   -4.9204    0.0000 C   0  0  0  0  0  0  0  0  0  0  0  0
    0.7500   -4.9204    0.0000 C   0  0  0  0  0  0  0  0  0  0  0  0
    1.3240   -6.3062    0.0000 C   0  0  0  0  0  0  0  0  0  0  0  0
    2.8112   -6.5020    0.0000 O   0  0  0  0  0  0  0  0  0  0  0  0
    0.4109   -7.4962    0.0000 N   0  0  0  0  0  0  0  0  0  0  0  0
    0.9849   -8.8820    0.0000 C   0  0  0  0  0  0  0  0  0  0  0  0
    2.4435   -9.2322    0.0000 N   0  0  0  0  0  0  0  0  0  0  0  0
    2.5612  -10.7276    0.0000 N   0  0  0  0  0  0  0  0  0  0  0  0
    1.1753  -11.3016    0.0000 N   0  0  0  0  0  0  0  0  0  0  0  0
    0.2012  -10.1610    0.0000 N   0  0  0  0  0  0  0  0  0  0  0  0
   -1.2942  -10.2787    0.0000 N   0  0  0  0  0  0  0  0  0  0  0  0
   -2.0780  -11.5576    0.0000 C   0  0  0  0  0  0  0  0  0  0  0  0
   -3.5365  -11.2075    0.0000 C   0  0  0  0  0  0  0  0  0  0  0  0
   -3.6542   -9.7121    0.0000 C   0  0  0  0  0  0  0  0  0  0  0  0
   -4.9332   -8.9283    0.0000 C   0  0  0  0  0  0  0  0  0  0  0  0
   -6.2514   -9.6441    0.0000 O   0  0  0  0  0  0  0  0  0  0  0  0
   -4.8939   -7.4289    0.0000 N   0  0  0  0  0  0  0  0  0  0  0  0
   -6.1729   -6.6451    0.0000 C   0  0  0  0  0  0  0  0  0  0  0  0
   -6.1336   -5.1456    0.0000 N   0  0  0  0  0  0  0  0  0  0  0  0
   -7.4126   -4.3619    0.0000 N   0  0  0  0  0  0  0  0  0  0  0  0
   -8.7308   -5.0776    0.0000 N   0  0  0  0  0  0  0  0  0  0  0  0
   -8.7700   -6.5771    0.0000 N   0  0  0  0  0  0  0  0  0  0  0  0
   -7.4911   -7.3608    0.0000 N   0  0  0  0  0  0  0  0  0  0  0  0
   -2.2684   -9.1381    0.0000 C   0  0  0  0  0  0  0  0  0  0  0  0
   -1.9182   -7.6795    0.0000 O   0  0  0  0  0  0  0  0  0  0  0  0
    1.8107   -3.8597    0.0000 C   0  0  0  0  0  0  0  0  0  0  0  0
    3.1965   -4.4337    0.0000 O   0  0  0  0  0  0  0  0  0  0  0  0
    1.8107   -2.3597    0.0000 O   0  0  0  0  0  0  0  0  0  0  0  0
    0.7500   -1.2990    0.0000 C   0  0  0  0  0  0  0  0  0  0  0  0
    1.5000    0.0000    0.0000 C   0  0  0  0  0  0  0  0  0  0  0  0
    0.7500    1.2990    0.0000 C   0  0  0  0  0  0  0  0  0  0  0  0
   -0.7500    1.2990    0.0000 C   0  0  0  0  0  0  0  0  0  0  0  0
   -1.5000    0.0000    0.0000 C   0  0  0  0  0  0  0  0  0  0  0  0
   -0.7500   -1.2990    0.0000 C   0  0  0  0  0  0  0  0  0  0  0  0
  1  2  1  0
  2  3  1  0
  3  4  2  0
  4  5  1  0
  5  6  1  0
  6  7  2  0
  6  8  1  0
  8  9  1  0
  9 10  2  0
 10 11  1  0
 11 12  2  0
 12 13  1  0
 13 14  1  0
 14 15  1  0
 15 16  1  0
 16 17  1  0
 17 18  1  0
 18 19  2  0
 18 20  1  0
 20 21  1  0
 21 22  2  0
 22 23  1  0
 23 24  2  0
 24 25  1  0
 25 26  2  0
 17 27  1  0
 27 28  2  0
  5 29  1  0
 29 30  2  0
 29 31  1  0
 31 32  1  0
 32 33  2  0
 33 34  1  0
 34 35  2  0
 35 36  1  0
 36 37  2  0
 37  2  1  0
 13  9  1  0
 27 14  1  0
 37 32  1  0
 26 21  1  0
M  END
>  <Title>  (495) 
idAARCgen13

$$$$

     RDKit          2D

 43 49  0  0  0  0  0  0  0  0999 V2000
    3.1097   -7.2078    0.0000 C   0  0  0  0  0  0  0  0  0  0  0  0
    2.0490   -6.1471    0.0000 C   0  0  0  0  0  0  0  0  0  0  0  0
    2.7990   -4.8481    0.0000 C   0  0  0  0  0  0  0  0  0  0  0  0
    2.7990   -3.3481    0.0000 C   0  0  0  0  0  0  0  0  0  0  0  0
    2.0490   -2.0490    0.0000 C   0  0  0  0  0  0  0  0  0  0  0  0
    3.1097   -0.9884    0.0000 C   0  0  0  0  0  0  0  0  0  0  0  0
    2.7215    0.4605    0.0000 O   0  0  0  0  0  0  0  0  0  0  0  0
    4.5586   -1.3766    0.0000 N   0  0  0  0  0  0  0  0  0  0  0  0
    5.6192   -0.3159    0.0000 C   0  0  0  0  0  0  0  0  0  0  0  0
    5.3846    1.1656    0.0000 N   0  0  0  0  0  0  0  0  0  0  0  0
    6.7211    1.8466    0.0000 N   0  0  0  0  0  0  0  0  0  0  0  0
    7.7818    0.7859    0.0000 N   0  0  0  0  0  0  0  0  0  0  0  0
    7.1008   -0.5506    0.0000 N   0  0  0  0  0  0  0  0  0  0  0  0
    7.7818   -1.8871    0.0000 N   0  0  0  0  0  0  0  0  0  0  0  0
    6.9648   -3.1451    0.0000 C   0  0  0  0  0  0  0  0  0  0  0  0
    7.6458   -4.4816    0.0000 C   0  0  0  0  0  0  0  0  0  0  0  0
    9.1437   -4.5601    0.0000 N   0  0  0  0  0  0  0  0  0  0  0  0
    9.9607   -3.3021    0.0000 C   0  0  0  0  0  0  0  0  0  0  0  0
    9.2797   -1.9656    0.0000 N   0  0  0  0  0  0  0  0  0  0  0  0
    0.7500   -1.2990    0.0000 C   0  0  0  0  0  0  0  0  0  0  0  0
    1.5000    0.0000    0.0000 C   0  0  0  0  0  0  0  0  0  0  0  0
    0.7500    1.2990    0.0000 C   0  0  0  0  0  0  0  0  0  0  0  0
   -0.7500    1.2990    0.0000 C   0  0  0  0  0  0  0  0  0  0  0  0
   -1.5000    0.0000    0.0000 C   0  0  0  0  0  0  0  0  0  0  0  0
   -0.7500   -1.2990    0.0000 C   0  0  0  0  0  0  0  0  0  0  0  0
   -2.0490   -2.0490    0.0000 C   0  0  0  0  0  0  0  0  0  0  0  0
   -2.7990   -0.7500    0.0000 C   0  0  0  0  0  0  0  0  0  0  0  0
   -4.2990   -0.7500    0.0000 C   0  0  0  0  0  0  0  0  0  0  0  0
   -5.0490   -2.0490    0.0000 C   0  0  0  0  0  0  0  0  0  0  0  0
   -4.2990   -3.3481    0.0000 C   0  0  0  0  0  0  0  0  0  0  0  0
   -2.7990   -3.3481    0.0000 C   0  0  0  0  0  0  0  0  0  0  0  0
   -2.7990   -4.8481    0.0000 C   0  0  0  0  0  0  0  0  0  0  0  0
   -4.2990   -4.8481    0.0000 C   0  0  0  0  0  0  0  0  0  0  0  0
   -5.0490   -6.1471    0.0000 C   0  0  0  0  0  0  0  0  0  0  0  0
   -4.2990   -7.4462    0.0000 C   0  0  0  0  0  0  0  0  0  0  0  0
   -2.7990   -7.4462    0.0000 C   0  0  0  0  0  0  0  0  0  0  0  0
   -2.0490   -6.1471    0.0000 C   0  0  0  0  0  0  0  0  0  0  0  0
   -0.7500   -6.8971    0.0000 C   0  0  0  0  0  0  0  0  0  0  0  0
   -1.5000   -8.1962    0.0000 C   0  0  0  0  0  0  0  0  0  0  0  0
   -0.7500   -9.4952    0.0000 C   0  0  0  0  0  0  0  0  0  0  0  0
    0.7500   -9.4952    0.0000 C   0  0  0  0  0  0  0  0  0  0  0  0
    1.5000   -8.1962    0.0000 C   0  0  0  0  0  0  0  0  0  0  0  0
    0.7500   -6.8971    0.0000 C   0  0  0  0  0  0  0  0  0  0  0  0
  1  2  1  0
  2  3  1  0
  3  4  2  0
  4  5  1  0
  5  6  1  0
  6  7  2  0
  6  8  1  0
  8  9  1  0
  9 10  2  0
 10 11  1  0
 11 12  2  0
 12 13  1  0
 13 14  1  0
 14 15  1  0
 15 16  2  0
 16 17  1  0
 17 18  1  0
 18 19  1  0
  5 20  1  0
 20 21  2  0
 21 22  1  0
 22 23  2  0
 23 24  1  0
 24 25  2  0
 25 26  1  0
 26 27  2  0
 27 28  1  0
 28 29  2  0
 29 30  1  0
 30 31  2  0
 31 32  1  0
 32 33  2  0
 33 34  1  0
 34 35  2  0
 35 36  1  0
 36 37  2  0
 37 38  1  0
 38 39  2  0
 39 40  1  0
 40 41  2  0
 41 42  1  0
 42 43  2  0
 43  2  1  0
 13  9  1  0
 19 14  1  0
 25 20  1  0
 31 26  1  0
 37 32  1  0
 43 38  1  0
M  END
>  <Title>  (496) 
idAARDgen13

$$$$

     RDKit          2D

 35 39  0  0  0  0  0  0  0  0999 V2000
   -3.1476   -2.1380    0.0000 C   0  0  0  0  0  0  0  0  0  0  0  0
   -1.6852   -2.4718    0.0000 C   0  0  0  0  0  0  0  0  0  0  0  0
   -1.3515   -3.9342    0.0000 C   0  0  0  0  0  0  0  0  0  0  0  0
   -0.0000   -4.5850    0.0000 C   0  0  0  0  0  0  0  0  0  0  0  0
    1.3515   -3.9342    0.0000 C   0  0  0  0  0  0  0  0  0  0  0  0
    1.6852   -2.4718    0.0000 C   0  0  0  0  0  0  0  0  0  0  0  0
    3.1476   -2.1380    0.0000 C   0  0  0  0  0  0  0  0  0  0  0  0
    3.5898   -0.7046    0.0000 O   0  0  0  0  0  0  0  0  0  0  0  0
    4.1679   -3.2376    0.0000 N   0  0  0  0  0  0  0  0  0  0  0  0
    5.6303   -2.9038    0.0000 C   0  0  0  0  0  0  0  0  0  0  0  0
    6.2198   -1.5245    0.0000 N   0  0  0  0  0  0  0  0  0  0  0  0
    7.7138   -1.6590    0.0000 N   0  0  0  0  0  0  0  0  0  0  0  0
    8.0476   -3.1214    0.0000 N   0  0  0  0  0  0  0  0  0  0  0  0
    6.7599   -3.8907    0.0000 N   0  0  0  0  0  0  0  0  0  0  0  0
    6.6254   -5.3847    0.0000 C   0  0  0  0  0  0  0  0  0  0  0  0
    7.7550   -6.3716    0.0000 C   0  0  0  0  0  0  0  0  0  0  0  0
    7.1655   -7.7509    0.0000 C   0  0  0  0  0  0  0  0  0  0  0  0
    5.6715   -7.6164    0.0000 C   0  0  0  0  0  0  0  0  0  0  0  0
    4.6846   -8.7460    0.0000 C   0  0  0  0  0  0  0  0  0  0  0  0
    5.1694  -10.1655    0.0000 O   0  0  0  0  0  0  0  0  0  0  0  0
    3.2129   -8.4561    0.0000 N   0  0  0  0  0  0  0  0  0  0  0  0
    2.2260   -9.5857    0.0000 C   0  0  0  0  0  0  0  0  0  0  0  0
    0.7543   -9.2959    0.0000 N   0  0  0  0  0  0  0  0  0  0  0  0
   -0.2326  -10.4255    0.0000 N   0  0  0  0  0  0  0  0  0  0  0  0
    0.2522  -11.8450    0.0000 N   0  0  0  0  0  0  0  0  0  0  0  0
    1.7239  -12.1348    0.0000 N   0  0  0  0  0  0  0  0  0  0  0  0
    2.7108  -11.0052    0.0000 N   0  0  0  0  0  0  0  0  0  0  0  0
    5.3378   -6.1540    0.0000 C   0  0  0  0  0  0  0  0  0  0  0  0
    3.9585   -5.5645    0.0000 O   0  0  0  0  0  0  0  0  0  0  0  0
    0.7500   -1.2990    0.0000 C   0  0  0  0  0  0  0  0  0  0  0  0
    1.5000    0.0000    0.0000 C   0  0  0  0  0  0  0  0  0  0  0  0
    0.7500    1.2990    0.0000 C   0  0  0  0  0  0  0  0  0  0  0  0
   -0.7500    1.2990    0.0000 C   0  0  0  0  0  0  0  0  0  0  0  0
   -1.5000    0.0000    0.0000 C   0  0  0  0  0  0  0  0  0  0  0  0
   -0.7500   -1.2990    0.0000 C   0  0  0  0  0  0  0  0  0  0  0  0
  1  2  1  0
  2  3  1  0
  3  4  2  0
  4  5  1  0
  5  6  2  0
  6  7  1  0
  7  8  2  0
  7  9  1  0
  9 10  1  0
 10 11  2  0
 11 12  1  0
 12 13  2  0
 13 14  1  0
 14 15  1  0
 15 16  2  0
 16 17  1  0
 17 18  2  0
 18 19  1  0
 19 20  2  0
 19 21  1  0
 21 22  1  0
 22 23  2  0
 23 24  1  0
 24 25  2  0
 25 26  1  0
 26 27  2  0
 18 28  1  0
 28 29  2  0
  6 30  1  0
 30 31  2  0
 31 32  1  0
 32 33  2  0
 33 34  1  0
 34 35  2  0
 35  2  1  0
 14 10  1  0
 28 15  1  0
 35 30  1  0
 27 22  1  0
M  END
>  <Title>  (497) 
idAAREgen13

$$$$

     RDKit          2D

 34 38  0  0  0  0  0  0  0  0999 V2000
   -6.0000   -5.1962    0.0000 C   0  0  0  0  0  0  0  0  0  0  0  0
   -5.2500   -3.8971    0.0000 C   0  0  0  0  0  0  0  0  0  0  0  0
   -3.7500   -3.8971    0.0000 C   0  0  0  0  0  0  0  0  0  0  0  0
   -3.0000   -2.5981    0.0000 C   0  0  0  0  0  0  0  0  0  0  0  0
   -1.5000   -2.5981    0.0000 N   0  0  0  0  0  0  0  0  0  0  0  0
   -0.7500   -3.8971    0.0000 C   0  0  0  0  0  0  0  0  0  0  0  0
    0.7500   -3.8971    0.0000 C   0  0  0  0  0  0  0  0  0  0  0  0
    1.5000   -2.5981    0.0000 C   0  0  0  0  0  0  0  0  0  0  0  0
    3.0000   -2.5981    0.0000 C   0  0  0  0  0  0  0  0  0  0  0  0
    3.7500   -1.2990    0.0000 O   0  0  0  0  0  0  0  0  0  0  0  0
    3.7500   -3.8971    0.0000 N   0  0  0  0  0  0  0  0  0  0  0  0
    5.2500   -3.8971    0.0000 C   0  0  0  0  0  0  0  0  0  0  0  0
    6.1317   -2.6836    0.0000 N   0  0  0  0  0  0  0  0  0  0  0  0
    7.5583   -3.1471    0.0000 N   0  0  0  0  0  0  0  0  0  0  0  0
    7.5583   -4.6471    0.0000 N   0  0  0  0  0  0  0  0  0  0  0  0
    6.1317   -5.1106    0.0000 N   0  0  0  0  0  0  0  0  0  0  0  0
    5.6682   -6.5372    0.0000 N   0  0  0  0  0  0  0  0  0  0  0  0
    6.5498   -7.7508    0.0000 C   0  0  0  0  0  0  0  0  0  0  0  0
    5.6682   -8.9643    0.0000 C   0  0  0  0  0  0  0  0  0  0  0  0
    4.2416   -8.5008    0.0000 N   0  0  0  0  0  0  0  0  0  0  0  0
    3.0280   -9.3824    0.0000 C   0  0  0  0  0  0  0  0  0  0  0  0
    1.6577   -8.7723    0.0000 C   0  0  0  0  0  0  0  0  0  0  0  0
    0.4442   -9.6540    0.0000 C   0  0  0  0  0  0  0  0  0  0  0  0
    0.6010  -11.1458    0.0000 C   0  0  0  0  0  0  0  0  0  0  0  0
    1.9713  -11.7559    0.0000 C   0  0  0  0  0  0  0  0  0  0  0  0
    3.1848  -10.8742    0.0000 C   0  0  0  0  0  0  0  0  0  0  0  0
    4.2416   -7.0008    0.0000 C   0  0  0  0  0  0  0  0  0  0  0  0
    3.0280   -6.1191    0.0000 O   0  0  0  0  0  0  0  0  0  0  0  0
    0.7500   -1.2990    0.0000 C   0  0  0  0  0  0  0  0  0  0  0  0
    1.5000    0.0000    0.0000 C   0  0  0  0  0  0  0  0  0  0  0  0
    0.7500    1.2990    0.0000 C   0  0  0  0  0  0  0  0  0  0  0  0
   -0.7500    1.2990    0.0000 C   0  0  0  0  0  0  0  0  0  0  0  0
   -1.5000    0.0000    0.0000 C   0  0  0  0  0  0  0  0  0  0  0  0
   -0.7500   -1.2990    0.0000 C   0  0  0  0  0  0  0  0  0  0  0  0
  1  2  2  0
  2  3  1  0
  3  4  1  0
  4  5  1  0
  5  6  1  0
  6  7  1  0
  7  8  2  0
  8  9  1  0
  9 10  2  0
  9 11  1  0
 11 12  1  0
 12 13  2  0
 13 14  1  0
 14 15  2  0
 15 16  1  0
 16 17  1  0
 17 18  1  0
 18 19  1  0
 19 20  1  0
 20 21  1  0
 21 22  2  0
 22 23  1  0
 23 24  2  0
 24 25  1  0
 25 26  2  0
 20 27  1  0
 27 28  2  0
  8 29  1  0
 29 30  2  0
 30 31  1  0
 31 32  2  0
 32 33  1  0
 33 34  2  0
 34  5  1  0
 16 12  1  0
 27 17  1  0
 34 29  1  0
 26 21  1  0
M  END
>  <Title>  (498) 
idAARFgen13

$$$$

     RDKit          2D

 40 40  0  0  0  0  0  0  0  0999 V2000
   52.5000    0.0000    0.0000 C   0  0  0  0  0  0  0  0  0  0  0  0
   51.0000    0.0000    0.0000 C   0  0  0  0  0  0  0  0  0  0  0  0
   49.5000    0.0000    0.0000 C   0  0  0  0  0  0  0  0  0  0  0  0
   48.0000    0.0000    0.0000 C   0  0  0  0  0  0  0  0  0  0  0  0
   46.5000    0.0000    0.0000 C   0  0  0  0  0  0  0  0  0  0  0  0
   45.0000    0.0000    0.0000 C   0  0  0  0  0  0  0  0  0  0  0  0
   43.5000    0.0000    0.0000 C   0  0  0  0  0  0  0  0  0  0  0  0
   42.0000    0.0000    0.0000 C   0  0  0  0  0  0  0  0  0  0  0  0
   40.5000    0.0000    0.0000 C   0  0  0  0  0  0  0  0  0  0  0  0
   39.0000    0.0000    0.0000 C   0  0  0  0  0  0  0  0  0  0  0  0
   37.5000    0.0000    0.0000 C   0  0  0  0  0  0  0  0  0  0  0  0
   36.0000    0.0000    0.0000 C   0  0  0  0  0  0  0  0  0  0  0  0
   34.5000    0.0000    0.0000 C   0  0  0  0  0  0  0  0  0  0  0  0
   33.0000    0.0000    0.0000 C   0  0  0  0  0  0  0  0  0  0  0  0
   31.5000    0.0000    0.0000 C   0  0  0  0  0  0  0  0  0  0  0  0
   30.0000    0.0000    0.0000 C   0  0  0  0  0  0  0  0  0  0  0  0
   28.5000    0.0000    0.0000 C   0  0  0  0  0  0  0  0  0  0  0  0
   27.0000    0.0000    0.0000 C   0  0  0  0  0  0  0  0  0  0  0  0
   25.5000    0.0000    0.0000 C   0  0  0  0  0  0  0  0  0  0  0  0
   24.0000    0.0000    0.0000 C   0  0  0  0  0  0  0  0  0  0  0  0
   22.5000    0.0000    0.0000 C   0  0  0  0  0  0  0  0  0  0  0  0
   21.0000    0.0000    0.0000 C   0  0  0  0  0  0  0  0  0  0  0  0
   19.5000    0.0000    0.0000 C   0  0  0  0  0  0  0  0  0  0  0  0
   18.0000    0.0000    0.0000 C   0  0  0  0  0  0  0  0  0  0  0  0
   16.5000    0.0000    0.0000 C   0  0  0  0  0  0  0  0  0  0  0  0
   15.0000    0.0000    0.0000 C   0  0  0  0  0  0  0  0  0  0  0  0
   13.5000    0.0000    0.0000 C   0  0  0  0  0  0  0  0  0  0  0  0
   12.0000    0.0000    0.0000 C   0  0  0  0  0  0  0  0  0  0  0  0
   10.5000    0.0000    0.0000 C   0  0  0  0  0  0  0  0  0  0  0  0
    9.0000    0.0000    0.0000 C   0  0  0  0  0  0  0  0  0  0  0  0
    7.5000    0.0000    0.0000 C   0  0  0  0  0  0  0  0  0  0  0  0
    6.0000    0.0000    0.0000 C   0  0  0  0  0  0  0  0  0  0  0  0
    4.5000    0.0000    0.0000 C   0  0  0  0  0  0  0  0  0  0  0  0
    3.0000    0.0000    0.0000 C   0  0  0  0  0  0  0  0  0  0  0  0
    1.5000    0.0000    0.0000 C   0  0  0  0  0  0  0  0  0  0  0  0
    0.7500   -1.2990    0.0000 C   0  0  0  0  0  0  0  0  0  0  0  0
   -0.7500   -1.2990    0.0000 C   0  0  0  0  0  0  0  0  0  0  0  0
   -1.5000    0.0000    0.0000 C   0  0  0  0  0  0  0  0  0  0  0  0
   -0.7500    1.2990    0.0000 C   0  0  0  0  0  0  0  0  0  0  0  0
    0.7500    1.2990    0.0000 C   0  0  0  0  0  0  0  0  0  0  0  0
  1  2  3  0
  2  3  1  0
  3  4  3  0
  4  5  1  0
  5  6  3  0
  6  7  1  0
  7  8  3  0
  8  9  1  0
  9 10  3  0
 10 11  1  0
 11 12  3  0
 12 13  1  0
 13 14  3  0
 14 15  1  0
 15 16  3  0
 16 17  1  0
 17 18  3  0
 18 19  1  0
 19 20  3  0
 20 21  1  0
 21 22  3  0
 22 23  1  0
 23 24  3  0
 24 25  1  0
 25 26  3  0
 26 27  1  0
 27 28  3  0
 28 29  1  0
 29 30  3  0
 30 31  1  0
 31 32  3  0
 32 33  1  0
 33 34  3  0
 34 35  1  0
 35 36  2  0
 36 37  1  0
 37 38  2  0
 38 39  1  0
 39 40  2  0
 40 35  1  0
M  END
>  <Title>  (499) 
idAARGgen13

$$$$

     RDKit          2D

 12 11  0  0  0  0  0  0  0  0999 V2000
    0.0000    0.0000    0.0000 C   0  0  0  0  0  0  0  0  0  0  0  0
    1.2990    0.7500    0.0000 C   0  0  0  0  0  0  0  0  0  0  0  0
    2.5981   -0.0000    0.0000 C   0  0  0  0  0  0  0  0  0  0  0  0
    3.8971    0.7500    0.0000 N   0  0  0  0  0  0  0  0  0  0  0  0
    5.1962   -0.0000    0.0000 C   0  0  0  0  0  0  0  0  0  0  0  0
    5.1962   -1.5000    0.0000 O   0  0  0  0  0  0  0  0  0  0  0  0
    6.4952    0.7500    0.0000 N   0  0  0  0  0  0  0  0  0  0  0  0
    7.7942   -0.0000    0.0000 C   0  0  0  0  0  0  0  0  0  0  0  0
    7.7942   -1.5000    0.0000 O   0  0  0  0  0  0  0  0  0  0  0  0
    9.0933    0.7500    0.0000 C   0  0  0  0  0  0  0  0  0  0  0  0
   10.3923   -0.0000    0.0000 C   0  0  0  0  0  0  0  0  0  0  0  0
   11.6913    0.7500    0.0000 C   0  0  0  0  0  0  0  0  0  0  0  0
  1  2  1  0
  2  3  2  3
  3  4  1  0
  4  5  1  0
  5  6  2  0
  5  7  1  0
  7  8  1  0
  8  9  2  0
  8 10  1  0
 10 11  1  0
 11 12  1  0
M  END
>  <Title>  (500) 
idAARHgen13

$$$$

     RDKit          2D

 82 87  0  0  0  0  0  0  0  0999 V2000
  -11.3312   10.0190    0.0000 C   0  0  0  0  0  0  0  0  0  0  0  0
   -9.9230   10.5355    0.0000 C   0  0  0  0  0  0  0  0  0  0  0  0
  -10.3651   11.9689    0.0000 C   0  0  0  0  0  0  0  0  0  0  0  0
  -10.6550   13.4406    0.0000 C   0  0  0  0  0  0  0  0  0  0  0  0
  -10.7895   14.9346    0.0000 C   0  0  0  0  0  0  0  0  0  0  0  0
  -10.7670   16.4344    0.0000 C   0  0  0  0  0  0  0  0  0  0  0  0
  -10.5879   17.9237    0.0000 C   0  0  0  0  0  0  0  0  0  0  0  0
  -10.2541   19.3861    0.0000 C   0  0  0  0  0  0  0  0  0  0  0  0
   -9.7693   20.8055    0.0000 C   0  0  0  0  0  0  0  0  0  0  0  0
   -9.1388   22.1666    0.0000 C   0  0  0  0  0  0  0  0  0  0  0  0
   -8.3694   23.4543    0.0000 C   0  0  0  0  0  0  0  0  0  0  0  0
   -7.4697   24.6545    0.0000 C   0  0  0  0  0  0  0  0  0  0  0  0
   -6.4495   25.7540    0.0000 C   0  0  0  0  0  0  0  0  0  0  0  0
   -5.3198   26.7409    0.0000 C   0  0  0  0  0  0  0  0  0  0  0  0
   -4.0933   27.6044    0.0000 C   0  0  0  0  0  0  0  0  0  0  0  0
   -2.7832   28.3349    0.0000 C   0  0  0  0  0  0  0  0  0  0  0  0
   -1.4039   28.9244    0.0000 C   0  0  0  0  0  0  0  0  0  0  0  0
    0.0295   29.3665    0.0000 C   0  0  0  0  0  0  0  0  0  0  0  0
    1.5012   29.6564    0.0000 C   0  0  0  0  0  0  0  0  0  0  0  0
    2.9952   29.7909    0.0000 C   0  0  0  0  0  0  0  0  0  0  0  0
    4.4950   29.7684    0.0000 C   0  0  0  0  0  0  0  0  0  0  0  0
    5.9843   29.5893    0.0000 C   0  0  0  0  0  0  0  0  0  0  0  0
    7.4467   29.2556    0.0000 C   0  0  0  0  0  0  0  0  0  0  0  0
    8.8662   28.7707    0.0000 C   0  0  0  0  0  0  0  0  0  0  0  0
   10.2272   28.1402    0.0000 C   0  0  0  0  0  0  0  0  0  0  0  0
   11.5149   27.3709    0.0000 C   0  0  0  0  0  0  0  0  0  0  0  0
   12.7151   26.4711    0.0000 C   0  0  0  0  0  0  0  0  0  0  0  0
   13.8147   25.4509    0.0000 C   0  0  0  0  0  0  0  0  0  0  0  0
   14.8016   24.3213    0.0000 C   0  0  0  0  0  0  0  0  0  0  0  0
   15.6650   23.0947    0.0000 C   0  0  0  0  0  0  0  0  0  0  0  0
   16.3955   21.7846    0.0000 C   0  0  0  0  0  0  0  0  0  0  0  0
   16.9850   20.4053    0.0000 C   0  0  0  0  0  0  0  0  0  0  0  0
   17.4271   18.9719    0.0000 C   0  0  0  0  0  0  0  0  0  0  0  0
   17.7170   17.5002    0.0000 C   0  0  0  0  0  0  0  0  0  0  0  0
   17.8515   16.0062    0.0000 C   0  0  0  0  0  0  0  0  0  0  0  0
   17.8290   14.5064    0.0000 C   0  0  0  0  0  0  0  0  0  0  0  0
   17.6500   13.0171    0.0000 C   0  0  0  0  0  0  0  0  0  0  0  0
   17.3162   11.5547    0.0000 C   0  0  0  0  0  0  0  0  0  0  0  0
   16.8314   10.1352    0.0000 C   0  0  0  0  0  0  0  0  0  0  0  0
   16.2008    8.7742    0.0000 C   0  0  0  0  0  0  0  0  0  0  0  0
   15.4315    7.4865    0.0000 C   0  0  0  0  0  0  0  0  0  0  0  0
   14.5317    6.2863    0.0000 C   0  0  0  0  0  0  0  0  0  0  0  0
   13.5115    5.1868    0.0000 C   0  0  0  0  0  0  0  0  0  0  0  0
   12.3819    4.1998    0.0000 C   0  0  0  0  0  0  0  0  0  0  0  0
   11.1553    3.3364    0.0000 C   0  0  0  0  0  0  0  0  0  0  0  0
    9.8452    2.6059    0.0000 C   0  0  0  0  0  0  0  0  0  0  0  0
    8.4659    2.0164    0.0000 C   0  0  0  0  0  0  0  0  0  0  0  0
    7.0325    1.5743    0.0000 C   0  0  0  0  0  0  0  0  0  0  0  0
    5.5608    1.2844    0.0000 C   0  0  0  0  0  0  0  0  0  0  0  0
    4.0669    1.1499    0.0000 C   0  0  0  0  0  0  0  0  0  0  0  0
    2.5670    1.1724    0.0000 C   0  0  0  0  0  0  0  0  0  0  0  0
    1.0777    1.3515    0.0000 C   0  0  0  0  0  0  0  0  0  0  0  0
    1.7286    0.0000    0.0000 C   0  0  0  0  0  0  0  0  0  0  0  0
    1.0777   -1.3515    0.0000 C   0  0  0  0  0  0  0  0  0  0  0  0
   -0.3846   -1.6852    0.0000 C   0  0  0  0  0  0  0  0  0  0  0  0
   -1.5574   -0.7500    0.0000 C   0  0  0  0  0  0  0  0  0  0  0  0
   -1.5574    0.7500    0.0000 C   0  0  0  0  0  0  0  0  0  0  0  0
   -0.3846    1.6852    0.0000 C   0  0  0  0  0  0  0  0  0  0  0  0
   -1.8041    2.1700    0.0000 C   0  0  0  0  0  0  0  0  0  0  0  0
   -0.5776    3.0335    0.0000 C   0  0  0  0  0  0  0  0  0  0  0  0
   -0.7120    4.5274    0.0000 C   0  0  0  0  0  0  0  0  0  0  0  0
   -2.0731    5.1580    0.0000 C   0  0  0  0  0  0  0  0  0  0  0  0
   -3.2996    4.2945    0.0000 C   0  0  0  0  0  0  0  0  0  0  0  0
   -3.1652    2.8006    0.0000 C   0  0  0  0  0  0  0  0  0  0  0  0
   -4.4528    3.5699    0.0000 C   0  0  0  0  0  0  0  0  0  0  0  0
   -4.6319    2.0807    0.0000 C   0  0  0  0  0  0  0  0  0  0  0  0
   -6.0112    1.4911    0.0000 C   0  0  0  0  0  0  0  0  0  0  0  0
   -7.2114    2.3909    0.0000 C   0  0  0  0  0  0  0  0  0  0  0  0
   -7.0323    3.8801    0.0000 C   0  0  0  0  0  0  0  0  0  0  0  0
   -5.6530    4.4697    0.0000 C   0  0  0  0  0  0  0  0  0  0  0  0
   -6.7526    5.4899    0.0000 C   0  0  0  0  0  0  0  0  0  0  0  0
   -5.2809    5.7798    0.0000 C   0  0  0  0  0  0  0  0  0  0  0  0
   -4.7961    7.1993    0.0000 C   0  0  0  0  0  0  0  0  0  0  0  0
   -5.7830    8.3289    0.0000 C   0  0  0  0  0  0  0  0  0  0  0  0
   -7.2547    8.0390    0.0000 C   0  0  0  0  0  0  0  0  0  0  0  0
   -7.7395    6.6195    0.0000 C   0  0  0  0  0  0  0  0  0  0  0  0
   -8.6030    7.8461    0.0000 C   0  0  0  0  0  0  0  0  0  0  0  0
   -9.3723    6.5584    0.0000 C   0  0  0  0  0  0  0  0  0  0  0  0
  -10.8721    6.5809    0.0000 C   0  0  0  0  0  0  0  0  0  0  0  0
  -11.6026    7.8910    0.0000 C   0  0  0  0  0  0  0  0  0  0  0  0
  -10.8333    9.1787    0.0000 C   0  0  0  0  0  0  0  0  0  0  0  0
   -9.3334    9.1562    0.0000 C   0  0  0  0  0  0  0  0  0  0  0  0
  1  2  1  0
  2  3  1  0
  3  4  1  0
  4  5  1  0
  5  6  1  0
  6  7  1  0
  7  8  1  0
  8  9  1  0
  9 10  1  0
 10 11  1  0
 11 12  1  0
 12 13  1  0
 13 14  1  0
 14 15  1  0
 15 16  1  0
 16 17  1  0
 17 18  1  0
 18 19  1  0
 19 20  1  0
 20 21  1  0
 21 22  1  0
 22 23  1  0
 23 24  1  0
 24 25  1  0
 25 26  1  0
 26 27  1  0
 27 28  1  0
 28 29  1  0
 29 30  1  0
 30 31  1  0
 31 32  1  0
 32 33  1  0
 33 34  1  0
 34 35  1  0
 35 36  1  0
 36 37  1  0
 37 38  1  0
 38 39  1  0
 39 40  1  0
 40 41  1  0
 41 42  1  0
 42 43  1  0
 43 44  1  0
 44 45  1  0
 45 46  1  0
 46 47  1  0
 47 48  1  0
 48 49  1  0
 49 50  1  0
 50 51  1  0
 51 52  1  0
 52 53  1  0
 53 54  2  0
 54 55  1  0
 55 56  2  0
 56 57  1  0
 57 58  2  0
 58 59  1  0
 59 60  2  0
 60 61  1  0
 61 62  2  0
 62 63  1  0
 63 64  2  0
 64 65  1  0
 65 66  2  0
 66 67  1  0
 67 68  2  0
 68 69  1  0
 69 70  2  0
 70 71  1  0
 71 72  2  0
 72 73  1  0
 73 74  2  0
 74 75  1  0
 75 76  2  0
 76 77  1  0
 77 78  2  0
 78 79  1  0
 79 80  2  0
 80 81  1  0
 81 82  2  0
 82  2  1  0
 58 52  1  0
 64 59  1  0
 70 65  1  0
 76 71  1  0
 82 77  1  0
M  END
>  <Title>  (501) 
idAARIgen13

$$$$

     RDKit          2D

 37 41  0  0  0  0  0  0  0  0999 V2000
   -5.1881   -4.3372    0.0000 C   0  0  0  0  0  0  0  0  0  0  0  0
   -4.1679   -3.2376    0.0000 C   0  0  0  0  0  0  0  0  0  0  0  0
   -3.1476   -2.1380    0.0000 C   0  0  0  0  0  0  0  0  0  0  0  0
   -1.6852   -2.4718    0.0000 C   0  0  0  0  0  0  0  0  0  0  0  0
   -1.3515   -3.9342    0.0000 C   0  0  0  0  0  0  0  0  0  0  0  0
   -0.0000   -4.5850    0.0000 C   0  0  0  0  0  0  0  0  0  0  0  0
    1.3515   -3.9342    0.0000 C   0  0  0  0  0  0  0  0  0  0  0  0
    1.6852   -2.4718    0.0000 C   0  0  0  0  0  0  0  0  0  0  0  0
    3.1476   -2.1380    0.0000 C   0  0  0  0  0  0  0  0  0  0  0  0
    3.5898   -0.7046    0.0000 O   0  0  0  0  0  0  0  0  0  0  0  0
    4.1679   -3.2376    0.0000 N   0  0  0  0  0  0  0  0  0  0  0  0
    5.6303   -2.9038    0.0000 C   0  0  0  0  0  0  0  0  0  0  0  0
    6.2198   -1.5245    0.0000 N   0  0  0  0  0  0  0  0  0  0  0  0
    7.7138   -1.6590    0.0000 N   0  0  0  0  0  0  0  0  0  0  0  0
    8.0476   -3.1214    0.0000 N   0  0  0  0  0  0  0  0  0  0  0  0
    6.7599   -3.8907    0.0000 N   0  0  0  0  0  0  0  0  0  0  0  0
    6.6254   -5.3847    0.0000 N   0  0  0  0  0  0  0  0  0  0  0  0
    7.7550   -6.3716    0.0000 C   0  0  0  0  0  0  0  0  0  0  0  0
    7.1655   -7.7509    0.0000 C   0  0  0  0  0  0  0  0  0  0  0  0
    5.6715   -7.6164    0.0000 N   0  0  0  0  0  0  0  0  0  0  0  0
    4.6846   -8.7460    0.0000 C   0  0  0  0  0  0  0  0  0  0  0  0
    5.1694  -10.1655    0.0000 O   0  0  0  0  0  0  0  0  0  0  0  0
    3.2129   -8.4561    0.0000 N   0  0  0  0  0  0  0  0  0  0  0  0
    2.2260   -9.5857    0.0000 C   0  0  0  0  0  0  0  0  0  0  0  0
    0.7543   -9.2959    0.0000 N   0  0  0  0  0  0  0  0  0  0  0  0
   -0.2326  -10.4255    0.0000 N   0  0  0  0  0  0  0  0  0  0  0  0
    0.2522  -11.8450    0.0000 N   0  0  0  0  0  0  0  0  0  0  0  0
    1.7239  -12.1348    0.0000 N   0  0  0  0  0  0  0  0  0  0  0  0
    2.7108  -11.0052    0.0000 N   0  0  0  0  0  0  0  0  0  0  0  0
    5.3378   -6.1540    0.0000 C   0  0  0  0  0  0  0  0  0  0  0  0
    3.9585   -5.5645    0.0000 O   0  0  0  0  0  0  0  0  0  0  0  0
    0.7500   -1.2990    0.0000 C   0  0  0  0  0  0  0  0  0  0  0  0
    1.5000    0.0000    0.0000 C   0  0  0  0  0  0  0  0  0  0  0  0
    0.7500    1.2990    0.0000 C   0  0  0  0  0  0  0  0  0  0  0  0
   -0.7500    1.2990    0.0000 C   0  0  0  0  0  0  0  0  0  0  0  0
   -1.5000    0.0000    0.0000 C   0  0  0  0  0  0  0  0  0  0  0  0
   -0.7500   -1.2990    0.0000 C   0  0  0  0  0  0  0  0  0  0  0  0
  1  2  3  0
  2  3  1  0
  3  4  1  0
  4  5  2  0
  5  6  1  0
  6  7  2  0
  7  8  1  0
  8  9  1  0
  9 10  2  0
  9 11  1  0
 11 12  1  0
 12 13  2  0
 13 14  1  0
 14 15  2  0
 15 16  1  0
 16 17  1  0
 17 18  1  0
 18 19  1  0
 19 20  1  0
 20 21  1  0
 21 22  2  0
 21 23  1  0
 23 24  1  0
 24 25  2  0
 25 26  1  0
 26 27  2  0
 27 28  1  0
 28 29  2  0
 20 30  1  0
 30 31  2  0
  8 32  1  0
 32 33  2  0
 33 34  1  0
 34 35  2  0
 35 36  1  0
 36 37  2  0
 37  4  1  0
 16 12  1  0
 30 17  1  0
 37 32  1  0
 29 24  1  0
M  END
>  <Title>  (502) 
idAARJgen13

$$$$

     RDKit          2D

 20 21  0  0  0  0  0  0  0  0999 V2000
   16.2760   -0.0000    0.0000 C   0  0  0  0  0  0  0  0  0  0  0  0
   14.7760   -0.0000    0.0000 C   0  0  0  0  0  0  0  0  0  0  0  0
   13.2760   -0.0000    0.0000 C   0  0  0  0  0  0  0  0  0  0  0  0
   11.7760   -0.0000    0.0000 C   0  0  0  0  0  0  0  0  0  0  0  0
   10.2760   -0.0000    0.0000 C   0  0  0  0  0  0  0  0  0  0  0  0
    8.7760   -0.0000    0.0000 C   0  0  0  0  0  0  0  0  0  0  0  0
    7.2760   -0.0000    0.0000 C   0  0  0  0  0  0  0  0  0  0  0  0
    5.7760   -0.0000    0.0000 C   0  0  0  0  0  0  0  0  0  0  0  0
    4.2760   -0.0000    0.0000 C   0  0  0  0  0  0  0  0  0  0  0  0
    2.7760    0.0000    0.0000 C   0  0  0  0  0  0  0  0  0  0  0  0
    1.2760    0.0000    0.0000 C   0  0  0  0  0  0  0  0  0  0  0  0
    0.3943    1.2135    0.0000 N   0  0  0  0  0  0  0  0  0  0  0  0
   -1.0323    0.7500    0.0000 N   0  0  0  0  0  0  0  0  0  0  0  0
   -1.0323   -0.7500    0.0000 N   0  0  0  0  0  0  0  0  0  0  0  0
    0.3943   -1.2135    0.0000 N   0  0  0  0  0  0  0  0  0  0  0  0
    0.8578   -2.6401    0.0000 C   0  0  0  0  0  0  0  0  0  0  0  0
    2.2844   -3.1036    0.0000 C   0  0  0  0  0  0  0  0  0  0  0  0
    2.2844   -4.6036    0.0000 C   0  0  0  0  0  0  0  0  0  0  0  0
    0.8578   -5.0672    0.0000 C   0  0  0  0  0  0  0  0  0  0  0  0
   -0.0239   -3.8536    0.0000 C   0  0  0  0  0  0  0  0  0  0  0  0
  1  2  3  0
  2  3  1  0
  3  4  3  0
  4  5  1  0
  5  6  3  0
  6  7  1  0
  7  8  3  0
  8  9  1  0
  9 10  3  0
 10 11  1  0
 11 12  2  0
 12 13  1  0
 13 14  2  0
 14 15  1  0
 15 16  1  0
 16 17  2  0
 17 18  1  0
 18 19  1  0
 19 20  2  0
 15 11  1  0
 20 16  1  0
M  END
>  <Title>  (503) 
idAARKgen13

$$$$

     RDKit          2D

 12 13  0  0  0  0  0  0  0  0999 V2000
    1.8478   -6.4639    0.0000 C   0  0  0  0  0  0  0  0  0  0  0  0
    2.0046   -4.9721    0.0000 N   0  0  0  0  0  0  0  0  0  0  0  0
    3.3037   -4.2221    0.0000 C   0  0  0  0  0  0  0  0  0  0  0  0
    2.9918   -2.7549    0.0000 C   0  0  0  0  0  0  0  0  0  0  0  0
    1.5000   -2.5981    0.0000 C   0  0  0  0  0  0  0  0  0  0  0  0
    0.7500   -1.2990    0.0000 N   0  0  0  0  0  0  0  0  0  0  0  0
    1.5000    0.0000    0.0000 C   0  0  0  0  0  0  0  0  0  0  0  0
    0.7500    1.2990    0.0000 C   0  0  0  0  0  0  0  0  0  0  0  0
   -0.7500    1.2990    0.0000 N   0  0  0  0  0  0  0  0  0  0  0  0
   -1.5000    0.0000    0.0000 N   0  0  0  0  0  0  0  0  0  0  0  0
   -0.7500   -1.2990    0.0000 N   0  0  0  0  0  0  0  0  0  0  0  0
    0.8899   -3.9684    0.0000 C   0  0  0  0  0  0  0  0  0  0  0  0
  1  2  1  0
  2  3  1  0
  3  4  2  0
  4  5  2  0
  5  6  1  0
  6  7  1  0
  7  8  1  0
  8  9  2  0
  9 10  1  0
 10 11  2  0
  5 12  1  0
 12  2  1  0
 11  6  1  0
M  END
>  <Title>  (504) 
idAARLgen13

$$$$

     RDKit          2D

 34 38  0  0  0  0  0  0  0  0999 V2000
   -3.0000   -2.5981    0.0000 C   0  0  0  0  0  0  0  0  0  0  0  0
   -1.5000   -2.5981    0.0000 C   0  0  0  0  0  0  0  0  0  0  0  0
   -0.7500   -3.8971    0.0000 C   0  0  0  0  0  0  0  0  0  0  0  0
    0.7500   -3.8971    0.0000 C   0  0  0  0  0  0  0  0  0  0  0  0
    1.5000   -2.5981    0.0000 C   0  0  0  0  0  0  0  0  0  0  0  0
    3.0000   -2.5981    0.0000 C   0  0  0  0  0  0  0  0  0  0  0  0
    3.7500   -1.2990    0.0000 O   0  0  0  0  0  0  0  0  0  0  0  0
    3.7500   -3.8971    0.0000 N   0  0  0  0  0  0  0  0  0  0  0  0
    5.2500   -3.8971    0.0000 C   0  0  0  0  0  0  0  0  0  0  0  0
    6.1317   -2.6836    0.0000 N   0  0  0  0  0  0  0  0  0  0  0  0
    7.5583   -3.1471    0.0000 N   0  0  0  0  0  0  0  0  0  0  0  0
    7.5583   -4.6471    0.0000 N   0  0  0  0  0  0  0  0  0  0  0  0
    6.1317   -5.1106    0.0000 N   0  0  0  0  0  0  0  0  0  0  0  0
    5.6682   -6.5372    0.0000 N   0  0  0  0  0  0  0  0  0  0  0  0
    6.5498   -7.7508    0.0000 C   0  0  0  0  0  0  0  0  0  0  0  0
    5.6682   -8.9643    0.0000 C   0  0  0  0  0  0  0  0  0  0  0  0
    4.2416   -8.5008    0.0000 N   0  0  0  0  0  0  0  0  0  0  0  0
    3.0280   -9.3824    0.0000 C   0  0  0  0  0  0  0  0  0  0  0  0
    3.1848  -10.8742    0.0000 O   0  0  0  0  0  0  0  0  0  0  0  0
    1.6577   -8.7723    0.0000 N   0  0  0  0  0  0  0  0  0  0  0  0
    0.4442   -9.6540    0.0000 C   0  0  0  0  0  0  0  0  0  0  0  0
   -0.9261   -9.0439    0.0000 N   0  0  0  0  0  0  0  0  0  0  0  0
   -2.1396   -9.9256    0.0000 N   0  0  0  0  0  0  0  0  0  0  0  0
   -1.9829  -11.4174    0.0000 N   0  0  0  0  0  0  0  0  0  0  0  0
   -0.6125  -12.0275    0.0000 N   0  0  0  0  0  0  0  0  0  0  0  0
    0.6010  -11.1458    0.0000 N   0  0  0  0  0  0  0  0  0  0  0  0
    4.2416   -7.0008    0.0000 C   0  0  0  0  0  0  0  0  0  0  0  0
    3.0280   -6.1191    0.0000 O   0  0  0  0  0  0  0  0  0  0  0  0
    0.7500   -1.2990    0.0000 C   0  0  0  0  0  0  0  0  0  0  0  0
    1.5000    0.0000    0.0000 C   0  0  0  0  0  0  0  0  0  0  0  0
    0.7500    1.2990    0.0000 C   0  0  0  0  0  0  0  0  0  0  0  0
   -0.7500    1.2990    0.0000 C   0  0  0  0  0  0  0  0  0  0  0  0
   -1.5000    0.0000    0.0000 C   0  0  0  0  0  0  0  0  0  0  0  0
   -0.7500   -1.2990    0.0000 C   0  0  0  0  0  0  0  0  0  0  0  0
  1  2  1  0
  2  3  2  0
  3  4  1  0
  4  5  1  0
  5  6  1  0
  6  7  2  0
  6  8  1  0
  8  9  1  0
  9 10  2  0
 10 11  1  0
 11 12  2  0
 12 13  1  0
 13 14  1  0
 14 15  1  0
 15 16  1  0
 16 17  1  0
 17 18  1  0
 18 19  2  0
 18 20  1  0
 20 21  1  0
 21 22  2  0
 22 23  1  0
 23 24  2  0
 24 25  1  0
 25 26  2  0
 17 27  1  0
 27 28  2  0
  5 29  1  0
 29 30  2  0
 30 31  1  0
 31 32  2  0
 32 33  1  0
 33 34  2  0
 34  2  1  0
 13  9  1  0
 27 14  1  0
 34 29  1  0
 26 21  1  0
M  END
>  <Title>  (505) 
idAARMgen13

$$$$

     RDKit          2D

 46 52  0  0  0  0  0  0  0  0999 V2000
    1.2135   -7.3421    0.0000 C   0  0  0  0  0  0  0  0  0  0  0  0
    0.7500   -5.9156    0.0000 C   0  0  0  0  0  0  0  0  0  0  0  0
    1.9635   -5.0339    0.0000 C   0  0  0  0  0  0  0  0  0  0  0  0
    2.4271   -3.6073    0.0000 C   0  0  0  0  0  0  0  0  0  0  0  0
    1.9635   -2.1807    0.0000 C   0  0  0  0  0  0  0  0  0  0  0  0
    3.1771   -1.2990    0.0000 C   0  0  0  0  0  0  0  0  0  0  0  0
    3.0203    0.1927    0.0000 O   0  0  0  0  0  0  0  0  0  0  0  0
    4.5474   -1.9091    0.0000 N   0  0  0  0  0  0  0  0  0  0  0  0
    5.7609   -1.0275    0.0000 C   0  0  0  0  0  0  0  0  0  0  0  0
    5.7609    0.4725    0.0000 N   0  0  0  0  0  0  0  0  0  0  0  0
    7.1875    0.9361    0.0000 N   0  0  0  0  0  0  0  0  0  0  0  0
    8.0692   -0.2775    0.0000 N   0  0  0  0  0  0  0  0  0  0  0  0
    7.1875   -1.4910    0.0000 N   0  0  0  0  0  0  0  0  0  0  0  0
    7.6510   -2.9176    0.0000 N   0  0  0  0  0  0  0  0  0  0  0  0
    9.0776   -3.3811    0.0000 C   0  0  0  0  0  0  0  0  0  0  0  0
    9.0776   -4.8811    0.0000 C   0  0  0  0  0  0  0  0  0  0  0  0
    7.6510   -5.3446    0.0000 C   0  0  0  0  0  0  0  0  0  0  0  0
    7.1875   -6.7712    0.0000 C   0  0  0  0  0  0  0  0  0  0  0  0
    8.1912   -7.8859    0.0000 O   0  0  0  0  0  0  0  0  0  0  0  0
    5.7203   -7.0831    0.0000 N   0  0  0  0  0  0  0  0  0  0  0  0
    5.2567   -8.5097    0.0000 C   0  0  0  0  0  0  0  0  0  0  0  0
    3.7895   -8.8215    0.0000 N   0  0  0  0  0  0  0  0  0  0  0  0
    3.3260  -10.2481    0.0000 N   0  0  0  0  0  0  0  0  0  0  0  0
    4.3297  -11.3628    0.0000 N   0  0  0  0  0  0  0  0  0  0  0  0
    5.7969  -11.0510    0.0000 N   0  0  0  0  0  0  0  0  0  0  0  0
    6.2604   -9.6244    0.0000 N   0  0  0  0  0  0  0  0  0  0  0  0
    6.7693   -4.1311    0.0000 C   0  0  0  0  0  0  0  0  0  0  0  0
    5.2693   -4.1311    0.0000 O   0  0  0  0  0  0  0  0  0  0  0  0
    0.7500   -1.2990    0.0000 C   0  0  0  0  0  0  0  0  0  0  0  0
    1.5000    0.0000    0.0000 C   0  0  0  0  0  0  0  0  0  0  0  0
    0.7500    1.2990    0.0000 C   0  0  0  0  0  0  0  0  0  0  0  0
   -0.7500    1.2990    0.0000 C   0  0  0  0  0  0  0  0  0  0  0  0
   -1.5000    0.0000    0.0000 C   0  0  0  0  0  0  0  0  0  0  0  0
   -0.7500   -1.2990    0.0000 C   0  0  0  0  0  0  0  0  0  0  0  0
   -1.9635   -2.1807    0.0000 C   0  0  0  0  0  0  0  0  0  0  0  0
   -2.9672   -1.0660    0.0000 C   0  0  0  0  0  0  0  0  0  0  0  0
   -4.4344   -1.3779    0.0000 C   0  0  0  0  0  0  0  0  0  0  0  0
   -4.8980   -2.8045    0.0000 C   0  0  0  0  0  0  0  0  0  0  0  0
   -3.8943   -3.9192    0.0000 C   0  0  0  0  0  0  0  0  0  0  0  0
   -2.4271   -3.6073    0.0000 C   0  0  0  0  0  0  0  0  0  0  0  0
   -1.9635   -5.0339    0.0000 C   0  0  0  0  0  0  0  0  0  0  0  0
   -3.3338   -5.6440    0.0000 C   0  0  0  0  0  0  0  0  0  0  0  0
   -3.4906   -7.1358    0.0000 C   0  0  0  0  0  0  0  0  0  0  0  0
   -2.2771   -8.0175    0.0000 C   0  0  0  0  0  0  0  0  0  0  0  0
   -0.9068   -7.4073    0.0000 C   0  0  0  0  0  0  0  0  0  0  0  0
   -0.7500   -5.9156    0.0000 C   0  0  0  0  0  0  0  0  0  0  0  0
  1  2  1  0
  2  3  1  0
  3  4  2  0
  4  5  1  0
  5  6  1  0
  6  7  2  0
  6  8  1  0
  8  9  1  0
  9 10  2  0
 10 11  1  0
 11 12  2  0
 12 13  1  0
 13 14  1  0
 14 15  1  0
 15 16  1  0
 16 17  1  0
 17 18  1  0
 18 19  2  0
 18 20  1  0
 20 21  1  0
 21 22  2  0
 22 23  1  0
 23 24  2  0
 24 25  1  0
 25 26  2  0
 17 27  1  0
 27 28  2  0
  5 29  1  0
 29 30  2  0
 30 31  1  0
 31 32  2  0
 32 33  1  0
 33 34  2  0
 34 35  1  0
 35 36  2  0
 36 37  1  0
 37 38  2  0
 38 39  1  0
 39 40  2  0
 40 41  1  0
 41 42  2  0
 42 43  1  0
 43 44  2  0
 44 45  1  0
 45 46  2  0
 46  2  1  0
 13  9  1  0
 27 14  1  0
 34 29  1  0
 40 35  1  0
 46 41  1  0
 26 21  1  0
M  END
>  <Title>  (506) 
idAARNgen13

$$$$

     RDKit          2D

  9  9  0  0  0  0  0  0  0  0999 V2000
    5.2500   -1.2990    0.0000 C   0  0  0  0  0  0  0  0  0  0  0  0
    3.7500   -1.2990    0.0000 C   0  0  0  0  0  0  0  0  0  0  0  0
    3.0000    0.0000    0.0000 C   0  0  0  0  0  0  0  0  0  0  0  0
    1.5000    0.0000    0.0000 C   0  0  0  0  0  0  0  0  0  0  0  0
    0.7500   -1.2990    0.0000 C   0  0  0  0  0  0  0  0  0  0  0  0
   -0.7500   -1.2990    0.0000 C   0  0  0  0  0  0  0  0  0  0  0  0
   -1.5000    0.0000    0.0000 C   0  0  0  0  0  0  0  0  0  0  0  0
   -0.7500    1.2990    0.0000 C   0  0  0  0  0  0  0  0  0  0  0  0
    0.7500    1.2990    0.0000 C   0  0  0  0  0  0  0  0  0  0  0  0
  1  2  1  0
  2  3  2  3
  3  4  1  0
  4  5  2  0
  5  6  1  0
  6  7  2  0
  7  8  1  0
  8  9  2  0
  9  4  1  0
M  END
>  <Title>  (507) 
idAAROgen13

$$$$

     RDKit          2D

  6  6  0  0  0  0  0  0  0  0999 V2000
    2.7760    0.0000    0.0000 C   0  0  0  0  0  0  0  0  0  0  0  0
    1.2760    0.0000    0.0000 N   0  0  0  0  0  0  0  0  0  0  0  0
    0.3943    1.2135    0.0000 C   0  0  0  0  0  0  0  0  0  0  0  0
   -1.0323    0.7500    0.0000 C   0  0  0  0  0  0  0  0  0  0  0  0
   -1.0323   -0.7500    0.0000 C   0  0  0  0  0  0  0  0  0  0  0  0
    0.3943   -1.2135    0.0000 C   0  0  0  0  0  0  0  0  0  0  0  0
  1  2  1  0
  2  3  1  0
  3  4  1  0
  4  5  2  0
  5  6  1  0
  6  2  1  0
M  END
>  <Title>  (508) 
idAARPgen13

$$$$

     RDKit          2D

 36 40  0  0  0  0  0  0  0  0999 V2000
   -5.2500   -3.8971    0.0000 C   0  0  0  0  0  0  0  0  0  0  0  0
   -3.7500   -3.8971    0.0000 C   0  0  0  0  0  0  0  0  0  0  0  0
   -3.0000   -2.5981    0.0000 C   0  0  0  0  0  0  0  0  0  0  0  0
   -1.5000   -2.5981    0.0000 C   0  0  0  0  0  0  0  0  0  0  0  0
   -0.7500   -3.8971    0.0000 C   0  0  0  0  0  0  0  0  0  0  0  0
    0.7500   -3.8971    0.0000 C   0  0  0  0  0  0  0  0  0  0  0  0
    1.5000   -2.5981    0.0000 C   0  0  0  0  0  0  0  0  0  0  0  0
    3.0000   -2.5981    0.0000 C   0  0  0  0  0  0  0  0  0  0  0  0
    3.7500   -1.2990    0.0000 O   0  0  0  0  0  0  0  0  0  0  0  0
    3.7500   -3.8971    0.0000 N   0  0  0  0  0  0  0  0  0  0  0  0
    5.2500   -3.8971    0.0000 C   0  0  0  0  0  0  0  0  0  0  0  0
    6.1317   -2.6836    0.0000 N   0  0  0  0  0  0  0  0  0  0  0  0
    7.5583   -3.1471    0.0000 N   0  0  0  0  0  0  0  0  0  0  0  0
    7.5583   -4.6471    0.0000 N   0  0  0  0  0  0  0  0  0  0  0  0
    6.1317   -5.1106    0.0000 N   0  0  0  0  0  0  0  0  0  0  0  0
    5.6682   -6.5372    0.0000 C   0  0  0  0  0  0  0  0  0  0  0  0
    6.5498   -7.7508    0.0000 C   0  0  0  0  0  0  0  0  0  0  0  0
    5.6682   -8.9643    0.0000 C   0  0  0  0  0  0  0  0  0  0  0  0
    4.2416   -8.5008    0.0000 C   0  0  0  0  0  0  0  0  0  0  0  0
    3.0280   -9.3824    0.0000 C   0  0  0  0  0  0  0  0  0  0  0  0
    3.1848  -10.8742    0.0000 O   0  0  0  0  0  0  0  0  0  0  0  0
    1.6577   -8.7723    0.0000 N   0  0  0  0  0  0  0  0  0  0  0  0
    0.4442   -9.6540    0.0000 C   0  0  0  0  0  0  0  0  0  0  0  0
   -0.9261   -9.0439    0.0000 N   0  0  0  0  0  0  0  0  0  0  0  0
   -2.1396   -9.9256    0.0000 N   0  0  0  0  0  0  0  0  0  0  0  0
   -1.9829  -11.4174    0.0000 N   0  0  0  0  0  0  0  0  0  0  0  0
   -0.6125  -12.0275    0.0000 N   0  0  0  0  0  0  0  0  0  0  0  0
    0.6010  -11.1458    0.0000 N   0  0  0  0  0  0  0  0  0  0  0  0
    4.2416   -7.0008    0.0000 C   0  0  0  0  0  0  0  0  0  0  0  0
    3.0280   -6.1191    0.0000 O   0  0  0  0  0  0  0  0  0  0  0  0
    0.7500   -1.2990    0.0000 C   0  0  0  0  0  0  0  0  0  0  0  0
    1.5000    0.0000    0.0000 C   0  0  0  0  0  0  0  0  0  0  0  0
    0.7500    1.2990    0.0000 C   0  0  0  0  0  0  0  0  0  0  0  0
   -0.7500    1.2990    0.0000 C   0  0  0  0  0  0  0  0  0  0  0  0
   -1.5000    0.0000    0.0000 C   0  0  0  0  0  0  0  0  0  0  0  0
   -0.7500   -1.2990    0.0000 C   0  0  0  0  0  0  0  0  0  0  0  0
  1  2  2  0
  2  3  1  0
  3  4  1  0
  4  5  2  0
  5  6  1  0
  6  7  2  0
  7  8  1  0
  8  9  2  0
  8 10  1  0
 10 11  1  0
 11 12  2  0
 12 13  1  0
 13 14  2  0
 14 15  1  0
 15 16  1  0
 16 17  2  0
 17 18  1  0
 18 19  2  0
 19 20  1  0
 20 21  2  0
 20 22  1  0
 22 23  1  0
 23 24  2  0
 24 25  1  0
 25 26  2  0
 26 27  1  0
 27 28  2  0
 19 29  1  0
 29 30  2  0
  7 31  1  0
 31 32  2  0
 32 33  1  0
 33 34  2  0
 34 35  1  0
 35 36  2  0
 36  4  1  0
 15 11  1  0
 29 16  1  0
 36 31  1  0
 28 23  1  0
M  END
>  <Title>  (509) 
idAARQgen13

$$$$

     RDKit          2D

  9 10  0  0  0  0  0  0  0  0999 V2000
   -1.8107   -3.8597    0.0000 C   0  0  0  0  0  0  0  0  0  0  0  0
   -0.7500   -2.7990    0.0000 C   0  0  0  0  0  0  0  0  0  0  0  0
    0.7500   -2.7990    0.0000 C   0  0  0  0  0  0  0  0  0  0  0  0
    0.7500   -1.2990    0.0000 C   0  0  0  0  0  0  0  0  0  0  0  0
    1.5000    0.0000    0.0000 C   0  0  0  0  0  0  0  0  0  0  0  0
    0.7500    1.2990    0.0000 C   0  0  0  0  0  0  0  0  0  0  0  0
   -0.7500    1.2990    0.0000 C   0  0  0  0  0  0  0  0  0  0  0  0
   -1.5000    0.0000    0.0000 C   0  0  0  0  0  0  0  0  0  0  0  0
   -0.7500   -1.2990    0.0000 C   0  0  0  0  0  0  0  0  0  0  0  0
  1  2  1  0
  2  3  2  0
  3  4  1  0
  4  5  2  0
  5  6  1  0
  6  7  2  0
  7  8  1  0
  8  9  2  0
  9  2  1  0
  9  4  1  0
M  END
>  <Title>  (510) 
idAARRgen13

$$$$

     RDKit          2D

 40 45  0  0  0  0  0  0  0  0999 V2000
   -1.3240   -6.3062    0.0000 C   0  0  0  0  0  0  0  0  0  0  0  0
   -0.7500   -4.9204    0.0000 C   0  0  0  0  0  0  0  0  0  0  0  0
    0.7500   -4.9204    0.0000 C   0  0  0  0  0  0  0  0  0  0  0  0
    1.8107   -3.8597    0.0000 C   0  0  0  0  0  0  0  0  0  0  0  0
    1.8107   -2.3597    0.0000 C   0  0  0  0  0  0  0  0  0  0  0  0
    3.1965   -1.7857    0.0000 C   0  0  0  0  0  0  0  0  0  0  0  0
    3.3923   -0.2985    0.0000 O   0  0  0  0  0  0  0  0  0  0  0  0
    4.3865   -2.6988    0.0000 N   0  0  0  0  0  0  0  0  0  0  0  0
    5.7723   -2.1248    0.0000 C   0  0  0  0  0  0  0  0  0  0  0  0
    6.1225   -0.6662    0.0000 N   0  0  0  0  0  0  0  0  0  0  0  0
    7.6179   -0.5485    0.0000 N   0  0  0  0  0  0  0  0  0  0  0  0
    8.1919   -1.9344    0.0000 N   0  0  0  0  0  0  0  0  0  0  0  0
    7.0513   -2.9085    0.0000 N   0  0  0  0  0  0  0  0  0  0  0  0
    7.1690   -4.4039    0.0000 N   0  0  0  0  0  0  0  0  0  0  0  0
    8.4479   -5.1877    0.0000 C   0  0  0  0  0  0  0  0  0  0  0  0
    8.0978   -6.6462    0.0000 C   0  0  0  0  0  0  0  0  0  0  0  0
    6.6024   -6.7639    0.0000 C   0  0  0  0  0  0  0  0  0  0  0  0
    5.8186   -8.0429    0.0000 C   0  0  0  0  0  0  0  0  0  0  0  0
    6.5344   -9.3611    0.0000 O   0  0  0  0  0  0  0  0  0  0  0  0
    4.3192   -8.0036    0.0000 N   0  0  0  0  0  0  0  0  0  0  0  0
    3.5354   -9.2826    0.0000 C   0  0  0  0  0  0  0  0  0  0  0  0
    2.0359   -9.2433    0.0000 N   0  0  0  0  0  0  0  0  0  0  0  0
    1.2522  -10.5223    0.0000 N   0  0  0  0  0  0  0  0  0  0  0  0
    1.9679  -11.8405    0.0000 N   0  0  0  0  0  0  0  0  0  0  0  0
    3.4674  -11.8797    0.0000 N   0  0  0  0  0  0  0  0  0  0  0  0
    4.2512  -10.6008    0.0000 N   0  0  0  0  0  0  0  0  0  0  0  0
    6.0284   -5.3781    0.0000 C   0  0  0  0  0  0  0  0  0  0  0  0
    4.5698   -5.0279    0.0000 O   0  0  0  0  0  0  0  0  0  0  0  0
    0.7500   -1.2990    0.0000 C   0  0  0  0  0  0  0  0  0  0  0  0
    1.5000    0.0000    0.0000 C   0  0  0  0  0  0  0  0  0  0  0  0
    0.7500    1.2990    0.0000 C   0  0  0  0  0  0  0  0  0  0  0  0
   -0.7500    1.2990    0.0000 C   0  0  0  0  0  0  0  0  0  0  0  0
   -1.5000    0.0000    0.0000 C   0  0  0  0  0  0  0  0  0  0  0  0
   -0.7500   -1.2990    0.0000 C   0  0  0  0  0  0  0  0  0  0  0  0
   -1.8107   -2.3597    0.0000 C   0  0  0  0  0  0  0  0  0  0  0  0
   -3.1097   -1.6097    0.0000 C   0  0  0  0  0  0  0  0  0  0  0  0
   -4.4087   -2.3597    0.0000 C   0  0  0  0  0  0  0  0  0  0  0  0
   -4.4087   -3.8597    0.0000 C   0  0  0  0  0  0  0  0  0  0  0  0
   -3.1097   -4.6097    0.0000 C   0  0  0  0  0  0  0  0  0  0  0  0
   -1.8107   -3.8597    0.0000 C   0  0  0  0  0  0  0  0  0  0  0  0
  1  2  1  0
  2  3  1  0
  3  4  2  0
  4  5  1  0
  5  6  1  0
  6  7  2  0
  6  8  1  0
  8  9  1  0
  9 10  2  0
 10 11  1  0
 11 12  2  0
 12 13  1  0
 13 14  1  0
 14 15  1  0
 15 16  1  0
 16 17  2  0
 17 18  1  0
 18 19  2  0
 18 20  1  0
 20 21  1  0
 21 22  2  0
 22 23  1  0
 23 24  2  0
 24 25  1  0
 25 26  2  0
 17 27  1  0
 27 28  2  0
  5 29  1  0
 29 30  2  0
 30 31  1  0
 31 32  2  0
 32 33  1  0
 33 34  2  0
 34 35  1  0
 35 36  2  0
 36 37  1  0
 37 38  2  0
 38 39  1  0
 39 40  2  0
 40  2  1  0
 13  9  1  0
 27 14  1  0
 34 29  1  0
 40 35  1  0
 26 21  1  0
M  END
>  <Title>  (511) 
idAARSgen13

$$$$

     RDKit          2D

 94 95  0  0  0  0  0  0  0  0999 V2000
    9.4127    4.4416    0.0000 C   0  0  0  0  0  0  0  0  0  0  0  0
   10.2097    4.4583    0.0000 C   0  0  0  0  0  0  0  0  0  0  0  0
   10.2725    5.9570    0.0000 C   0  0  0  0  0  0  0  0  0  0  0  0
   10.5226    7.4360    0.0000 C   0  0  0  0  0  0  0  0  0  0  0  0
   10.9562    8.8720    0.0000 C   0  0  0  0  0  0  0  0  0  0  0  0
   11.5663   10.2423    0.0000 C   0  0  0  0  0  0  0  0  0  0  0  0
   12.3433   11.5253    0.0000 C   0  0  0  0  0  0  0  0  0  0  0  0
   13.2751   12.7009    0.0000 C   0  0  0  0  0  0  0  0  0  0  0  0
   14.3468   13.7504    0.0000 C   0  0  0  0  0  0  0  0  0  0  0  0
   15.5416   14.6573    0.0000 C   0  0  0  0  0  0  0  0  0  0  0  0
   16.8406   15.4073    0.0000 C   0  0  0  0  0  0  0  0  0  0  0  0
   18.2234   15.9885    0.0000 C   0  0  0  0  0  0  0  0  0  0  0  0
   19.6681   16.3919    0.0000 C   0  0  0  0  0  0  0  0  0  0  0  0
   21.1520   16.6110    0.0000 C   0  0  0  0  0  0  0  0  0  0  0  0
   22.6517   16.6425    0.0000 C   0  0  0  0  0  0  0  0  0  0  0  0
   24.1435   16.4857    0.0000 C   0  0  0  0  0  0  0  0  0  0  0  0
   25.6039   16.1431    0.0000 C   0  0  0  0  0  0  0  0  0  0  0  0
   27.0098   15.6203    0.0000 C   0  0  0  0  0  0  0  0  0  0  0  0
   28.3391   14.9253    0.0000 C   0  0  0  0  0  0  0  0  0  0  0  0
   29.5708   14.0693    0.0000 C   0  0  0  0  0  0  0  0  0  0  0  0
   30.6855   13.0656    0.0000 C   0  0  0  0  0  0  0  0  0  0  0  0
   31.6657   11.9301    0.0000 C   0  0  0  0  0  0  0  0  0  0  0  0
   32.4958   10.6807    0.0000 C   0  0  0  0  0  0  0  0  0  0  0  0
   33.1627    9.3371    0.0000 C   0  0  0  0  0  0  0  0  0  0  0  0
   33.6560    7.9206    0.0000 C   0  0  0  0  0  0  0  0  0  0  0  0
   33.9679    6.4533    0.0000 C   0  0  0  0  0  0  0  0  0  0  0  0
   34.0934    4.9586    0.0000 C   0  0  0  0  0  0  0  0  0  0  0  0
   34.0306    3.4599    0.0000 C   0  0  0  0  0  0  0  0  0  0  0  0
   33.7804    1.9809    0.0000 C   0  0  0  0  0  0  0  0  0  0  0  0
   33.3469    0.5449    0.0000 C   0  0  0  0  0  0  0  0  0  0  0  0
   32.7368   -0.8254    0.0000 C   0  0  0  0  0  0  0  0  0  0  0  0
   31.9597   -2.1084    0.0000 C   0  0  0  0  0  0  0  0  0  0  0  0
   31.0280   -3.2840    0.0000 C   0  0  0  0  0  0  0  0  0  0  0  0
   29.9563   -4.3335    0.0000 C   0  0  0  0  0  0  0  0  0  0  0  0
   28.7615   -5.2404    0.0000 C   0  0  0  0  0  0  0  0  0  0  0  0
   27.4625   -5.9904    0.0000 C   0  0  0  0  0  0  0  0  0  0  0  0
   26.0797   -6.5716    0.0000 C   0  0  0  0  0  0  0  0  0  0  0  0
   24.6349   -6.9750    0.0000 C   0  0  0  0  0  0  0  0  0  0  0  0
   23.1510   -7.1941    0.0000 C   0  0  0  0  0  0  0  0  0  0  0  0
   21.6513   -7.2255    0.0000 C   0  0  0  0  0  0  0  0  0  0  0  0
   20.1596   -7.0688    0.0000 C   0  0  0  0  0  0  0  0  0  0  0  0
   18.6992   -6.7262    0.0000 C   0  0  0  0  0  0  0  0  0  0  0  0
   17.2933   -6.2034    0.0000 C   0  0  0  0  0  0  0  0  0  0  0  0
   15.9640   -5.5084    0.0000 C   0  0  0  0  0  0  0  0  0  0  0  0
   14.7322   -4.6524    0.0000 C   0  0  0  0  0  0  0  0  0  0  0  0
   13.6175   -3.6487    0.0000 C   0  0  0  0  0  0  0  0  0  0  0  0
   12.6374   -2.5132    0.0000 C   0  0  0  0  0  0  0  0  0  0  0  0
   11.8073   -1.2638    0.0000 C   0  0  0  0  0  0  0  0  0  0  0  0
   11.1404    0.0798    0.0000 C   0  0  0  0  0  0  0  0  0  0  0  0
   10.6471    1.4963    0.0000 C   0  0  0  0  0  0  0  0  0  0  0  0
   10.0517   -0.0000    0.0000 C   0  0  0  0  0  0  0  0  0  0  0  0
    9.9539   -1.3989    0.0000 C   0  0  0  0  0  0  0  0  0  0  0  0
    9.6623   -2.7706    0.0000 C   0  0  0  0  0  0  0  0  0  0  0  0
    9.1827   -4.0884    0.0000 C   0  0  0  0  0  0  0  0  0  0  0  0
    8.5243   -5.3266    0.0000 C   0  0  0  0  0  0  0  0  0  0  0  0
    7.7000   -6.4611    0.0000 C   0  0  0  0  0  0  0  0  0  0  0  0
    6.7259   -7.4699    0.0000 C   0  0  0  0  0  0  0  0  0  0  0  0
    5.6208   -8.3332    0.0000 C   0  0  0  0  0  0  0  0  0  0  0  0
    4.4064   -9.0344    0.0000 C   0  0  0  0  0  0  0  0  0  0  0  0
    3.1061   -9.5597    0.0000 C   0  0  0  0  0  0  0  0  0  0  0  0
    1.7455   -9.8990    0.0000 C   0  0  0  0  0  0  0  0  0  0  0  0
    0.3508  -10.0456    0.0000 C   0  0  0  0  0  0  0  0  0  0  0  0
   -1.0507   -9.9966    0.0000 C   0  0  0  0  0  0  0  0  0  0  0  0
   -2.4317   -9.7531    0.0000 C   0  0  0  0  0  0  0  0  0  0  0  0
   -3.7654   -9.3198    0.0000 C   0  0  0  0  0  0  0  0  0  0  0  0
   -5.0258   -8.7050    0.0000 C   0  0  0  0  0  0  0  0  0  0  0  0
   -6.1884   -7.9208    0.0000 C   0  0  0  0  0  0  0  0  0  0  0  0
   -7.2306   -6.9825    0.0000 C   0  0  0  0  0  0  0  0  0  0  0  0
   -8.1320   -5.9082    0.0000 C   0  0  0  0  0  0  0  0  0  0  0  0
   -8.8751   -4.7190    0.0000 C   0  0  0  0  0  0  0  0  0  0  0  0
   -9.4455   -3.4379    0.0000 C   0  0  0  0  0  0  0  0  0  0  0  0
   -9.8320   -2.0899    0.0000 C   0  0  0  0  0  0  0  0  0  0  0  0
  -10.0272   -0.7012    0.0000 C   0  0  0  0  0  0  0  0  0  0  0  0
  -10.0272    0.7012    0.0000 C   0  0  0  0  0  0  0  0  0  0  0  0
   -9.8320    2.0899    0.0000 C   0  0  0  0  0  0  0  0  0  0  0  0
   -9.4455    3.4379    0.0000 C   0  0  0  0  0  0  0  0  0  0  0  0
   -8.8751    4.7190    0.0000 C   0  0  0  0  0  0  0  0  0  0  0  0
   -8.1320    5.9082    0.0000 C   0  0  0  0  0  0  0  0  0  0  0  0
   -7.2306    6.9825    0.0000 C   0  0  0  0  0  0  0  0  0  0  0  0
   -6.1884    7.9208    0.0000 C   0  0  0  0  0  0  0  0  0  0  0  0
   -5.0258    8.7050    0.0000 C   0  0  0  0  0  0  0  0  0  0  0  0
   -3.7654    9.3198    0.0000 C   0  0  0  0  0  0  0  0  0  0  0  0
   -2.4317    9.7531    0.0000 C   0  0  0  0  0  0  0  0  0  0  0  0
   -1.0507    9.9966    0.0000 C   0  0  0  0  0  0  0  0  0  0  0  0
    0.3508   10.0456    0.0000 C   0  0  0  0  0  0  0  0  0  0  0  0
    1.7455    9.8990    0.0000 C   0  0  0  0  0  0  0  0  0  0  0  0
    3.1061    9.5597    0.0000 C   0  0  0  0  0  0  0  0  0  0  0  0
    4.4064    9.0344    0.0000 C   0  0  0  0  0  0  0  0  0  0  0  0
    5.6208    8.3332    0.0000 C   0  0  0  0  0  0  0  0  0  0  0  0
    6.7259    7.4699    0.0000 C   0  0  0  0  0  0  0  0  0  0  0  0
    7.7000    6.4611    0.0000 C   0  0  0  0  0  0  0  0  0  0  0  0
    8.5243    5.3266    0.0000 C   0  0  0  0  0  0  0  0  0  0  0  0
    9.1827    4.0884    0.0000 C   0  0  0  0  0  0  0  0  0  0  0  0
   10.3352    2.9636    0.0000 C   0  0  0  0  0  0  0  0  0  0  0  0
  1  2  1  0
  2  3  1  0
  3  4  1  0
  4  5  1  0
  5  6  1  0
  6  7  1  0
  7  8  1  0
  8  9  1  0
  9 10  1  0
 10 11  1  0
 11 12  1  0
 12 13  1  0
 13 14  1  0
 14 15  1  0
 15 16  1  0
 16 17  1  0
 17 18  1  0
 18 19  1  0
 19 20  1  0
 20 21  1  0
 21 22  1  0
 22 23  1  0
 23 24  1  0
 24 25  1  0
 25 26  1  0
 26 27  1  0
 27 28  1  0
 28 29  1  0
 29 30  1  0
 30 31  1  0
 31 32  1  0
 32 33  1  0
 33 34  1  0
 34 35  1  0
 35 36  1  0
 36 37  1  0
 37 38  1  0
 38 39  1  0
 39 40  1  0
 40 41  1  0
 41 42  1  0
 42 43  1  0
 43 44  1  0
 44 45  1  0
 45 46  1  0
 46 47  1  0
 47 48  1  0
 48 49  1  0
 49 50  1  0
 50 51  1  0
 51 52  1  0
 52 53  1  0
 53 54  2  0
 54 55  1  0
 55 56  2  0
 56 57  1  0
 57 58  2  0
 58 59  1  0
 59 60  2  0
 60 61  1  0
 61 62  2  0
 62 63  1  0
 63 64  2  0
 64 65  1  0
 65 66  2  0
 66 67  1  0
 67 68  2  0
 68 69  1  0
 69 70  2  0
 70 71  1  0
 71 72  2  0
 72 73  1  0
 73 74  2  0
 74 75  1  0
 75 76  2  0
 76 77  1  0
 77 78  2  0
 78 79  1  0
 79 80  2  0
 80 81  1  0
 81 82  2  0
 82 83  1  0
 83 84  2  0
 84 85  1  0
 85 86  2  0
 86 87  1  0
 87 88  2  0
 88 89  1  0
 89 90  2  0
 90 91  1  0
 91 92  2  0
 92 93  1  0
 93 94  2  0
 94  2  1  0
 94 50  1  0
M  END
>  <Title>  (512) 
idAARTgen13

$$$$

     RDKit          2D

 37 41  0  0  0  0  0  0  0  0999 V2000
   -3.1965   -1.7857    0.0000 C   0  0  0  0  0  0  0  0  0  0  0  0
   -1.8107   -2.3597    0.0000 C   0  0  0  0  0  0  0  0  0  0  0  0
   -1.8107   -3.8597    0.0000 C   0  0  0  0  0  0  0  0  0  0  0  0
   -0.7500   -4.9204    0.0000 C   0  0  0  0  0  0  0  0  0  0  0  0
    0.7500   -4.9204    0.0000 C   0  0  0  0  0  0  0  0  0  0  0  0
    1.8107   -3.8597    0.0000 C   0  0  0  0  0  0  0  0  0  0  0  0
    1.8107   -2.3597    0.0000 C   0  0  0  0  0  0  0  0  0  0  0  0
    3.1965   -1.7857    0.0000 C   0  0  0  0  0  0  0  0  0  0  0  0
    3.3923   -0.2985    0.0000 O   0  0  0  0  0  0  0  0  0  0  0  0
    4.3865   -2.6988    0.0000 N   0  0  0  0  0  0  0  0  0  0  0  0
    5.7723   -2.1248    0.0000 C   0  0  0  0  0  0  0  0  0  0  0  0
    6.1225   -0.6662    0.0000 N   0  0  0  0  0  0  0  0  0  0  0  0
    7.6179   -0.5485    0.0000 N   0  0  0  0  0  0  0  0  0  0  0  0
    8.1919   -1.9344    0.0000 N   0  0  0  0  0  0  0  0  0  0  0  0
    7.0513   -2.9085    0.0000 N   0  0  0  0  0  0  0  0  0  0  0  0
    7.1690   -4.4039    0.0000 C   0  0  0  0  0  0  0  0  0  0  0  0
    8.4479   -5.1877    0.0000 C   0  0  0  0  0  0  0  0  0  0  0  0
    8.0978   -6.6462    0.0000 C   0  0  0  0  0  0  0  0  0  0  0  0
    6.6024   -6.7639    0.0000 C   0  0  0  0  0  0  0  0  0  0  0  0
    5.8186   -8.0429    0.0000 O   0  0  0  0  0  0  0  0  0  0  0  0
    4.3192   -8.0036    0.0000 C   0  0  0  0  0  0  0  0  0  0  0  0
    3.6034   -6.6854    0.0000 O   0  0  0  0  0  0  0  0  0  0  0  0
    3.5354   -9.2826    0.0000 N   0  0  0  0  0  0  0  0  0  0  0  0
    2.0359   -9.2433    0.0000 C   0  0  0  0  0  0  0  0  0  0  0  0
    1.3202   -7.9251    0.0000 N   0  0  0  0  0  0  0  0  0  0  0  0
   -0.1793   -7.8858    0.0000 N   0  0  0  0  0  0  0  0  0  0  0  0
   -0.9630   -9.1648    0.0000 N   0  0  0  0  0  0  0  0  0  0  0  0
   -0.2473  -10.4830    0.0000 N   0  0  0  0  0  0  0  0  0  0  0  0
    1.2522  -10.5223    0.0000 N   0  0  0  0  0  0  0  0  0  0  0  0
    6.0284   -5.3781    0.0000 C   0  0  0  0  0  0  0  0  0  0  0  0
    4.5698   -5.0279    0.0000 O   0  0  0  0  0  0  0  0  0  0  0  0
    0.7500   -1.2990    0.0000 C   0  0  0  0  0  0  0  0  0  0  0  0
    1.5000    0.0000    0.0000 C   0  0  0  0  0  0  0  0  0  0  0  0
    0.7500    1.2990    0.0000 C   0  0  0  0  0  0  0  0  0  0  0  0
   -0.7500    1.2990    0.0000 C   0  0  0  0  0  0  0  0  0  0  0  0
   -1.5000    0.0000    0.0000 C   0  0  0  0  0  0  0  0  0  0  0  0
   -0.7500   -1.2990    0.0000 C   0  0  0  0  0  0  0  0  0  0  0  0
  1  2  1  0
  2  3  1  0
  3  4  2  0
  4  5  1  0
  5  6  1  0
  6  7  1  0
  7  8  1  0
  8  9  2  0
  8 10  1  0
 10 11  1  0
 11 12  2  0
 12 13  1  0
 13 14  2  0
 14 15  1  0
 15 16  1  0
 16 17  2  0
 17 18  1  0
 18 19  2  0
 19 20  1  0
 20 21  1  0
 21 22  2  0
 21 23  1  0
 23 24  1  0
 24 25  2  0
 25 26  1  0
 26 27  2  0
 27 28  1  0
 28 29  2  0
 19 30  1  0
 30 31  2  0
  7 32  1  0
 32 33  2  0
 33 34  1  0
 34 35  2  0
 35 36  1  0
 36 37  2  0
 37  2  1  0
 15 11  1  0
 30 16  1  0
 37 32  1  0
 29 24  1  0
M  END
>  <Title>  (513) 
idAARUgen13

$$$$

     RDKit          2D

  6  6  0  0  0  0  0  0  0  0999 V2000
    1.5000    0.0000    0.0000 C   0  0  0  0  0  0  0  0  0  0  0  0
    0.7500   -1.2990    0.0000 C   0  0  0  0  0  0  0  0  0  0  0  0
   -0.7500   -1.2990    0.0000 C   0  0  0  0  0  0  0  0  0  0  0  0
   -1.5000    0.0000    0.0000 C   0  0  0  0  0  0  0  0  0  0  0  0
   -0.7500    1.2990    0.0000 C   0  0  0  0  0  0  0  0  0  0  0  0
    0.7500    1.2990    0.0000 C   0  0  0  0  0  0  0  0  0  0  0  0
  1  2  1  0
  2  3  1  0
  3  4  1  0
  4  5  1  0
  5  6  1  0
  6  1  1  0
M  END
>  <Title>  (514) 
idAARVgen13

$$$$

     RDKit          2D

102103  0  0  0  0  0  0  0  0999 V2000
   -2.2976    0.6913    0.0000 C   0  0  0  0  0  0  0  0  0  0  0  0
   -1.8221    2.1139    0.0000 C   0  0  0  0  0  0  0  0  0  0  0  0
   -3.2284    2.6358    0.0000 C   0  0  0  0  0  0  0  0  0  0  0  0
   -4.5976    3.2484    0.0000 C   0  0  0  0  0  0  0  0  0  0  0  0
   -5.9237    3.9493    0.0000 C   0  0  0  0  0  0  0  0  0  0  0  0
   -7.2012    4.7355    0.0000 C   0  0  0  0  0  0  0  0  0  0  0  0
   -8.4246    5.6035    0.0000 C   0  0  0  0  0  0  0  0  0  0  0  0
   -9.5885    6.5496    0.0000 C   0  0  0  0  0  0  0  0  0  0  0  0
  -10.6881    7.5699    0.0000 C   0  0  0  0  0  0  0  0  0  0  0  0
  -11.7186    8.6599    0.0000 C   0  0  0  0  0  0  0  0  0  0  0  0
  -12.6756    9.8149    0.0000 C   0  0  0  0  0  0  0  0  0  0  0  0
  -13.5550   11.0301    0.0000 C   0  0  0  0  0  0  0  0  0  0  0  0
  -14.3530   12.3002    0.0000 C   0  0  0  0  0  0  0  0  0  0  0  0
  -15.0663   13.6198    0.0000 C   0  0  0  0  0  0  0  0  0  0  0  0
  -15.6918   14.9831    0.0000 C   0  0  0  0  0  0  0  0  0  0  0  0
  -16.2267   16.3845    0.0000 C   0  0  0  0  0  0  0  0  0  0  0  0
  -16.6688   17.8179    0.0000 C   0  0  0  0  0  0  0  0  0  0  0  0
  -17.0163   19.2771    0.0000 C   0  0  0  0  0  0  0  0  0  0  0  0
  -17.2675   20.7559    0.0000 C   0  0  0  0  0  0  0  0  0  0  0  0
  -17.4215   22.2480    0.0000 C   0  0  0  0  0  0  0  0  0  0  0  0
  -17.4776   23.7469    0.0000 C   0  0  0  0  0  0  0  0  0  0  0  0
  -17.4355   25.2463    0.0000 C   0  0  0  0  0  0  0  0  0  0  0  0
  -17.2955   26.7398    0.0000 C   0  0  0  0  0  0  0  0  0  0  0  0
  -17.0581   28.2209    0.0000 C   0  0  0  0  0  0  0  0  0  0  0  0
  -16.7243   29.6832    0.0000 C   0  0  0  0  0  0  0  0  0  0  0  0
  -16.2956   31.1207    0.0000 C   0  0  0  0  0  0  0  0  0  0  0  0
  -15.7738   32.5270    0.0000 C   0  0  0  0  0  0  0  0  0  0  0  0
  -15.1611   33.8962    0.0000 C   0  0  0  0  0  0  0  0  0  0  0  0
  -14.4602   35.2223    0.0000 C   0  0  0  0  0  0  0  0  0  0  0  0
  -13.6741   36.4998    0.0000 C   0  0  0  0  0  0  0  0  0  0  0  0
  -12.8061   37.7232    0.0000 C   0  0  0  0  0  0  0  0  0  0  0  0
  -11.8599   38.8871    0.0000 C   0  0  0  0  0  0  0  0  0  0  0  0
  -10.8396   39.9867    0.0000 C   0  0  0  0  0  0  0  0  0  0  0  0
   -9.7497   41.0172    0.0000 C   0  0  0  0  0  0  0  0  0  0  0  0
   -8.5946   41.9742    0.0000 C   0  0  0  0  0  0  0  0  0  0  0  0
   -7.3794   42.8536    0.0000 C   0  0  0  0  0  0  0  0  0  0  0  0
   -6.1093   43.6517    0.0000 C   0  0  0  0  0  0  0  0  0  0  0  0
   -4.7898   44.3649    0.0000 C   0  0  0  0  0  0  0  0  0  0  0  0
   -3.4264   44.9904    0.0000 C   0  0  0  0  0  0  0  0  0  0  0  0
   -2.0250   45.5253    0.0000 C   0  0  0  0  0  0  0  0  0  0  0  0
   -0.5917   45.9674    0.0000 C   0  0  0  0  0  0  0  0  0  0  0  0
    0.8675   46.3149    0.0000 C   0  0  0  0  0  0  0  0  0  0  0  0
    2.3463   46.5661    0.0000 C   0  0  0  0  0  0  0  0  0  0  0  0
    3.8384   46.7201    0.0000 C   0  0  0  0  0  0  0  0  0  0  0  0
    5.3374   46.7762    0.0000 C   0  0  0  0  0  0  0  0  0  0  0  0
    6.8368   46.7342    0.0000 C   0  0  0  0  0  0  0  0  0  0  0  0
    8.3302   46.5941    0.0000 C   0  0  0  0  0  0  0  0  0  0  0  0
    9.8113   46.3567    0.0000 C   0  0  0  0  0  0  0  0  0  0  0  0
   11.2737   46.0229    0.0000 C   0  0  0  0  0  0  0  0  0  0  0  0
   12.7111   45.5942    0.0000 C   0  0  0  0  0  0  0  0  0  0  0  0
   14.1175   45.0724    0.0000 C   0  0  0  0  0  0  0  0  0  0  0  0
   15.4866   44.4597    0.0000 C   0  0  0  0  0  0  0  0  0  0  0  0
   16.8128   43.7588    0.0000 C   0  0  0  0  0  0  0  0  0  0  0  0
   18.0903   42.9727    0.0000 C   0  0  0  0  0  0  0  0  0  0  0  0
   19.3136   42.1047    0.0000 C   0  0  0  0  0  0  0  0  0  0  0  0
   20.4776   41.1585    0.0000 C   0  0  0  0  0  0  0  0  0  0  0  0
   21.5772   40.1383    0.0000 C   0  0  0  0  0  0  0  0  0  0  0  0
   22.6077   39.0483    0.0000 C   0  0  0  0  0  0  0  0  0  0  0  0
   23.5647   37.8932    0.0000 C   0  0  0  0  0  0  0  0  0  0  0  0
   24.4441   36.6780    0.0000 C   0  0  0  0  0  0  0  0  0  0  0  0
   25.2421   35.4080    0.0000 C   0  0  0  0  0  0  0  0  0  0  0  0
   25.9554   34.0884    0.0000 C   0  0  0  0  0  0  0  0  0  0  0  0
   26.5808   32.7250    0.0000 C   0  0  0  0  0  0  0  0  0  0  0  0
   27.1158   31.3236    0.0000 C   0  0  0  0  0  0  0  0  0  0  0  0
   27.5579   29.8903    0.0000 C   0  0  0  0  0  0  0  0  0  0  0  0
   27.9053   28.4311    0.0000 C   0  0  0  0  0  0  0  0  0  0  0  0
   28.1566   26.9523    0.0000 C   0  0  0  0  0  0  0  0  0  0  0  0
   28.3106   25.4602    0.0000 C   0  0  0  0  0  0  0  0  0  0  0  0
   28.3667   23.9612    0.0000 C   0  0  0  0  0  0  0  0  0  0  0  0
   28.3246   22.4618    0.0000 C   0  0  0  0  0  0  0  0  0  0  0  0
   28.1846   20.9684    0.0000 C   0  0  0  0  0  0  0  0  0  0  0  0
   27.9472   19.4873    0.0000 C   0  0  0  0  0  0  0  0  0  0  0  0
   27.6134   18.0249    0.0000 C   0  0  0  0  0  0  0  0  0  0  0  0
   27.1847   16.5875    0.0000 C   0  0  0  0  0  0  0  0  0  0  0  0
   26.6629   15.1811    0.0000 C   0  0  0  0  0  0  0  0  0  0  0  0
   26.0502   13.8120    0.0000 C   0  0  0  0  0  0  0  0  0  0  0  0
   25.3493   12.4858    0.0000 C   0  0  0  0  0  0  0  0  0  0  0  0
   24.5631   11.2083    0.0000 C   0  0  0  0  0  0  0  0  0  0  0  0
   23.6951    9.9850    0.0000 C   0  0  0  0  0  0  0  0  0  0  0  0
   22.7490    8.8210    0.0000 C   0  0  0  0  0  0  0  0  0  0  0  0
   21.7287    7.7214    0.0000 C   0  0  0  0  0  0  0  0  0  0  0  0
   20.6387    6.6909    0.0000 C   0  0  0  0  0  0  0  0  0  0  0  0
   19.4837    5.7339    0.0000 C   0  0  0  0  0  0  0  0  0  0  0  0
   18.2685    4.8545    0.0000 C   0  0  0  0  0  0  0  0  0  0  0  0
   16.9984    4.0565    0.0000 C   0  0  0  0  0  0  0  0  0  0  0  0
   15.6789    3.3432    0.0000 C   0  0  0  0  0  0  0  0  0  0  0  0
   14.3155    2.7178    0.0000 C   0  0  0  0  0  0  0  0  0  0  0  0
   12.9141    2.1828    0.0000 C   0  0  0  0  0  0  0  0  0  0  0  0
   11.4807    1.7407    0.0000 C   0  0  0  0  0  0  0  0  0  0  0  0
   10.0215    1.3933    0.0000 C   0  0  0  0  0  0  0  0  0  0  0  0
    8.5427    1.1420    0.0000 C   0  0  0  0  0  0  0  0  0  0  0  0
    7.0506    0.9880    0.0000 C   0  0  0  0  0  0  0  0  0  0  0  0
    5.5517    0.9319    0.0000 C   0  0  0  0  0  0  0  0  0  0  0  0
    4.0523    0.9740    0.0000 C   0  0  0  0  0  0  0  0  0  0  0  0
    2.5588    1.1140    0.0000 C   0  0  0  0  0  0  0  0  0  0  0  0
    1.0777    1.3515    0.0000 C   0  0  0  0  0  0  0  0  0  0  0  0
    1.7286    0.0000    0.0000 C   0  0  0  0  0  0  0  0  0  0  0  0
    1.0777   -1.3515    0.0000 C   0  0  0  0  0  0  0  0  0  0  0  0
   -0.3846   -1.6852    0.0000 C   0  0  0  0  0  0  0  0  0  0  0  0
   -1.5574   -0.7500    0.0000 C   0  0  0  0  0  0  0  0  0  0  0  0
   -1.5574    0.7500    0.0000 C   0  0  0  0  0  0  0  0  0  0  0  0
   -0.3846    1.6852    0.0000 C   0  0  0  0  0  0  0  0  0  0  0  0
  1  2  1  0
  2  3  1  0
  3  4  1  0
  4  5  1  0
  5  6  1  0
  6  7  1  0
  7  8  1  0
  8  9  1  0
  9 10  1  0
 10 11  1  0
 11 12  1  0
 12 13  1  0
 13 14  1  0
 14 15  1  0
 15 16  1  0
 16 17  1  0
 17 18  1  0
 18 19  1  0
 19 20  1  0
 20 21  1  0
 21 22  1  0
 22 23  1  0
 23 24  1  0
 24 25  1  0
 25 26  1  0
 26 27  1  0
 27 28  1  0
 28 29  1  0
 29 30  1  0
 30 31  1  0
 31 32  1  0
 32 33  1  0
 33 34  1  0
 34 35  1  0
 35 36  1  0
 36 37  1  0
 37 38  1  0
 38 39  1  0
 39 40  1  0
 40 41  1  0
 41 42  1  0
 42 43  1  0
 43 44  1  0
 44 45  1  0
 45 46  1  0
 46 47  1  0
 47 48  1  0
 48 49  1  0
 49 50  1  0
 50 51  1  0
 51 52  1  0
 52 53  1  0
 53 54  1  0
 54 55  1  0
 55 56  1  0
 56 57  1  0
 57 58  1  0
 58 59  1  0
 59 60  1  0
 60 61  1  0
 61 62  1  0
 62 63  1  0
 63 64  1  0
 64 65  1  0
 65 66  1  0
 66 67  1  0
 67 68  1  0
 68 69  1  0
 69 70  1  0
 70 71  1  0
 71 72  1  0
 72 73  1  0
 73 74  1  0
 74 75  1  0
 75 76  1  0
 76 77  1  0
 77 78  1  0
 78 79  1  0
 79 80  1  0
 80 81  1  0
 81 82  1  0
 82 83  1  0
 83 84  1  0
 84 85  1  0
 85 86  1  0
 86 87  1  0
 87 88  1  0
 88 89  1  0
 89 90  1  0
 90 91  1  0
 91 92  2  0
 92 93  1  0
 93 94  2  0
 94 95  1  0
 95 96  2  0
 96 97  1  0
 97 98  2  0
 98 99  1  0
 99100  2  0
100101  1  0
101102  2  0
102  2  1  0
102 96  1  0
M  END
>  <Title>  (515) 
idAARWgen13

$$$$

     RDKit          2D

  7  8  0  0  0  0  0  0  0  0999 V2000
    1.2760    0.0000    0.0000 C   0  0  0  0  0  0  0  0  0  0  0  0
    0.3943    1.2135    0.0000 C   0  0  0  0  0  0  0  0  0  0  0  0
   -1.0323    0.7500    0.0000 C   0  0  0  0  0  0  0  0  0  0  0  0
   -2.5323    0.7500    0.0000 C   0  0  0  0  0  0  0  0  0  0  0  0
   -2.5323   -0.7500    0.0000 C   0  0  0  0  0  0  0  0  0  0  0  0
   -1.0323   -0.7500    0.0000 C   0  0  0  0  0  0  0  0  0  0  0  0
    0.3943   -1.2135    0.0000 C   0  0  0  0  0  0  0  0  0  0  0  0
  1  2  1  0
  2  3  1  0
  3  4  1  0
  4  5  1  0
  5  6  1  0
  6  7  1  0
  7  1  1  0
  6  3  1  0
M  END
>  <Title>  (516) 
idAARXgen13

$$$$

     RDKit          2D

 35 39  0  0  0  0  0  0  0  0999 V2000
   -3.1476   -2.1380    0.0000 C   0  0  0  0  0  0  0  0  0  0  0  0
   -1.6852   -2.4718    0.0000 C   0  0  0  0  0  0  0  0  0  0  0  0
   -1.3515   -3.9342    0.0000 C   0  0  0  0  0  0  0  0  0  0  0  0
   -0.0000   -4.5850    0.0000 C   0  0  0  0  0  0  0  0  0  0  0  0
    1.3515   -3.9342    0.0000 C   0  0  0  0  0  0  0  0  0  0  0  0
    1.6852   -2.4718    0.0000 C   0  0  0  0  0  0  0  0  0  0  0  0
    3.1476   -2.1380    0.0000 C   0  0  0  0  0  0  0  0  0  0  0  0
    3.5898   -0.7046    0.0000 O   0  0  0  0  0  0  0  0  0  0  0  0
    4.1679   -3.2376    0.0000 N   0  0  0  0  0  0  0  0  0  0  0  0
    5.6303   -2.9038    0.0000 C   0  0  0  0  0  0  0  0  0  0  0  0
    6.2198   -1.5245    0.0000 N   0  0  0  0  0  0  0  0  0  0  0  0
    7.7138   -1.6590    0.0000 N   0  0  0  0  0  0  0  0  0  0  0  0
    8.0476   -3.1214    0.0000 N   0  0  0  0  0  0  0  0  0  0  0  0
    6.7599   -3.8907    0.0000 N   0  0  0  0  0  0  0  0  0  0  0  0
    6.6254   -5.3847    0.0000 C   0  0  0  0  0  0  0  0  0  0  0  0
    7.7550   -6.3716    0.0000 C   0  0  0  0  0  0  0  0  0  0  0  0
    7.1655   -7.7509    0.0000 C   0  0  0  0  0  0  0  0  0  0  0  0
    5.6715   -7.6164    0.0000 C   0  0  0  0  0  0  0  0  0  0  0  0
    4.6846   -8.7460    0.0000 C   0  0  0  0  0  0  0  0  0  0  0  0
    5.1694  -10.1655    0.0000 O   0  0  0  0  0  0  0  0  0  0  0  0
    3.2129   -8.4561    0.0000 N   0  0  0  0  0  0  0  0  0  0  0  0
    2.2260   -9.5857    0.0000 C   0  0  0  0  0  0  0  0  0  0  0  0
    0.7543   -9.2959    0.0000 N   0  0  0  0  0  0  0  0  0  0  0  0
   -0.2326  -10.4255    0.0000 N   0  0  0  0  0  0  0  0  0  0  0  0
    0.2522  -11.8450    0.0000 N   0  0  0  0  0  0  0  0  0  0  0  0
    1.7239  -12.1348    0.0000 N   0  0  0  0  0  0  0  0  0  0  0  0
    2.7108  -11.0052    0.0000 N   0  0  0  0  0  0  0  0  0  0  0  0
    5.3378   -6.1540    0.0000 C   0  0  0  0  0  0  0  0  0  0  0  0
    3.9585   -5.5645    0.0000 O   0  0  0  0  0  0  0  0  0  0  0  0
    0.7500   -1.2990    0.0000 C   0  0  0  0  0  0  0  0  0  0  0  0
    1.5000    0.0000    0.0000 C   0  0  0  0  0  0  0  0  0  0  0  0
    0.7500    1.2990    0.0000 C   0  0  0  0  0  0  0  0  0  0  0  0
   -0.7500    1.2990    0.0000 C   0  0  0  0  0  0  0  0  0  0  0  0
   -1.5000    0.0000    0.0000 C   0  0  0  0  0  0  0  0  0  0  0  0
   -0.7500   -1.2990    0.0000 C   0  0  0  0  0  0  0  0  0  0  0  0
  1  2  1  0
  2  3  2  0
  3  4  1  0
  4  5  1  0
  5  6  1  0
  6  7  1  0
  7  8  2  0
  7  9  1  0
  9 10  1  0
 10 11  2  0
 11 12  1  0
 12 13  2  0
 13 14  1  0
 14 15  1  0
 15 16  2  0
 16 17  1  0
 17 18  2  0
 18 19  1  0
 19 20  2  0
 19 21  1  0
 21 22  1  0
 22 23  2  0
 23 24  1  0
 24 25  2  0
 25 26  1  0
 26 27  2  0
 18 28  1  0
 28 29  2  0
  6 30  1  0
 30 31  2  0
 31 32  1  0
 32 33  2  0
 33 34  1  0
 34 35  2  0
 35  2  1  0
 14 10  1  0
 28 15  1  0
 35 30  1  0
 27 22  1  0
M  END
>  <Title>  (517) 
idAARYgen13

$$$$

     RDKit          2D

  7  6  0  0  0  0  0  0  0  0999 V2000
    0.0000    0.0000    0.0000 C   0  0  0  0  0  0  0  0  0  0  0  0
    1.2990    0.7500    0.0000 C   0  0  0  0  0  0  0  0  0  0  0  0
    2.5981   -0.0000    0.0000 C   0  0  0  0  0  0  0  0  0  0  0  0
    3.8971    0.7500    0.0000 C   0  0  0  0  0  0  0  0  0  0  0  0
    5.1962   -0.0000    0.0000 N   0  0  0  0  0  0  0  0  0  0  0  0
    6.4952    0.7500    0.0000 C   0  0  0  0  0  0  0  0  0  0  0  0
    5.1962   -1.5000    0.0000 C   0  0  0  0  0  0  0  0  0  0  0  0
  1  2  2  0
  2  3  1  0
  3  4  1  0
  4  5  1  0
  5  6  1  0
  5  7  1  0
M  END
>  <Title>  (518) 
idAARZgen13

$$$$

     RDKit          2D

 86 86  0  0  0  0  0  0  0  0999 V2000
  121.5000    0.0000    0.0000 C   0  0  0  0  0  0  0  0  0  0  0  0
  120.0000    0.0000    0.0000 C   0  0  0  0  0  0  0  0  0  0  0  0
  118.5000    0.0000    0.0000 C   0  0  0  0  0  0  0  0  0  0  0  0
  117.0000    0.0000    0.0000 C   0  0  0  0  0  0  0  0  0  0  0  0
  115.5000    0.0000    0.0000 C   0  0  0  0  0  0  0  0  0  0  0  0
  114.0000    0.0000    0.0000 C   0  0  0  0  0  0  0  0  0  0  0  0
  112.5000    0.0000    0.0000 C   0  0  0  0  0  0  0  0  0  0  0  0
  111.0000    0.0000    0.0000 C   0  0  0  0  0  0  0  0  0  0  0  0
  109.5000    0.0000    0.0000 C   0  0  0  0  0  0  0  0  0  0  0  0
  108.0000    0.0000    0.0000 C   0  0  0  0  0  0  0  0  0  0  0  0
  106.5000    0.0000    0.0000 C   0  0  0  0  0  0  0  0  0  0  0  0
  105.0000    0.0000    0.0000 C   0  0  0  0  0  0  0  0  0  0  0  0
  103.5000    0.0000    0.0000 C   0  0  0  0  0  0  0  0  0  0  0  0
  102.0000    0.0000    0.0000 C   0  0  0  0  0  0  0  0  0  0  0  0
  100.5000    0.0000    0.0000 C   0  0  0  0  0  0  0  0  0  0  0  0
   99.0000    0.0000    0.0000 C   0  0  0  0  0  0  0  0  0  0  0  0
   97.5000    0.0000    0.0000 C   0  0  0  0  0  0  0  0  0  0  0  0
   96.0000    0.0000    0.0000 C   0  0  0  0  0  0  0  0  0  0  0  0
   94.5000    0.0000    0.0000 C   0  0  0  0  0  0  0  0  0  0  0  0
   93.0000    0.0000    0.0000 C   0  0  0  0  0  0  0  0  0  0  0  0
   91.5000    0.0000    0.0000 C   0  0  0  0  0  0  0  0  0  0  0  0
   90.0000    0.0000    0.0000 C   0  0  0  0  0  0  0  0  0  0  0  0
   88.5000    0.0000    0.0000 C   0  0  0  0  0  0  0  0  0  0  0  0
   87.0000    0.0000    0.0000 C   0  0  0  0  0  0  0  0  0  0  0  0
   85.5000    0.0000    0.0000 C   0  0  0  0  0  0  0  0  0  0  0  0
   84.0000    0.0000    0.0000 C   0  0  0  0  0  0  0  0  0  0  0  0
   82.5000    0.0000    0.0000 C   0  0  0  0  0  0  0  0  0  0  0  0
   81.0000    0.0000    0.0000 C   0  0  0  0  0  0  0  0  0  0  0  0
   79.5000    0.0000    0.0000 C   0  0  0  0  0  0  0  0  0  0  0  0
   78.0000    0.0000    0.0000 C   0  0  0  0  0  0  0  0  0  0  0  0
   76.5000    0.0000    0.0000 C   0  0  0  0  0  0  0  0  0  0  0  0
   75.0000    0.0000    0.0000 C   0  0  0  0  0  0  0  0  0  0  0  0
   73.5000    0.0000    0.0000 C   0  0  0  0  0  0  0  0  0  0  0  0
   72.0000    0.0000    0.0000 C   0  0  0  0  0  0  0  0  0  0  0  0
   70.5000    0.0000    0.0000 C   0  0  0  0  0  0  0  0  0  0  0  0
   69.0000    0.0000    0.0000 C   0  0  0  0  0  0  0  0  0  0  0  0
   67.5000    0.0000    0.0000 C   0  0  0  0  0  0  0  0  0  0  0  0
   66.0000    0.0000    0.0000 C   0  0  0  0  0  0  0  0  0  0  0  0
   64.5000    0.0000    0.0000 C   0  0  0  0  0  0  0  0  0  0  0  0
   63.0000    0.0000    0.0000 C   0  0  0  0  0  0  0  0  0  0  0  0
   61.5000    0.0000    0.0000 C   0  0  0  0  0  0  0  0  0  0  0  0
   60.0000    0.0000    0.0000 C   0  0  0  0  0  0  0  0  0  0  0  0
   58.5000    0.0000    0.0000 C   0  0  0  0  0  0  0  0  0  0  0  0
   57.0000    0.0000    0.0000 C   0  0  0  0  0  0  0  0  0  0  0  0
   55.5000    0.0000    0.0000 C   0  0  0  0  0  0  0  0  0  0  0  0
   54.0000    0.0000    0.0000 C   0  0  0  0  0  0  0  0  0  0  0  0
   52.5000    0.0000    0.0000 C   0  0  0  0  0  0  0  0  0  0  0  0
   51.0000    0.0000    0.0000 C   0  0  0  0  0  0  0  0  0  0  0  0
   49.5000    0.0000    0.0000 C   0  0  0  0  0  0  0  0  0  0  0  0
   48.0000    0.0000    0.0000 C   0  0  0  0  0  0  0  0  0  0  0  0
   46.5000    0.0000    0.0000 C   0  0  0  0  0  0  0  0  0  0  0  0
   45.0000    0.0000    0.0000 C   0  0  0  0  0  0  0  0  0  0  0  0
   43.5000    0.0000    0.0000 C   0  0  0  0  0  0  0  0  0  0  0  0
   42.0000    0.0000    0.0000 C   0  0  0  0  0  0  0  0  0  0  0  0
   40.5000    0.0000    0.0000 C   0  0  0  0  0  0  0  0  0  0  0  0
   39.0000    0.0000    0.0000 C   0  0  0  0  0  0  0  0  0  0  0  0
   37.5000    0.0000    0.0000 C   0  0  0  0  0  0  0  0  0  0  0  0
   36.0000    0.0000    0.0000 C   0  0  0  0  0  0  0  0  0  0  0  0
   34.5000    0.0000    0.0000 C   0  0  0  0  0  0  0  0  0  0  0  0
   33.0000    0.0000    0.0000 C   0  0  0  0  0  0  0  0  0  0  0  0
   31.5000    0.0000    0.0000 C   0  0  0  0  0  0  0  0  0  0  0  0
   30.0000    0.0000    0.0000 C   0  0  0  0  0  0  0  0  0  0  0  0
   28.5000    0.0000    0.0000 C   0  0  0  0  0  0  0  0  0  0  0  0
   27.0000    0.0000    0.0000 C   0  0  0  0  0  0  0  0  0  0  0  0
   25.5000    0.0000    0.0000 C   0  0  0  0  0  0  0  0  0  0  0  0
   24.0000    0.0000    0.0000 C   0  0  0  0  0  0  0  0  0  0  0  0
   22.5000    0.0000    0.0000 C   0  0  0  0  0  0  0  0  0  0  0  0
   21.0000    0.0000    0.0000 C   0  0  0  0  0  0  0  0  0  0  0  0
   19.5000    0.0000    0.0000 C   0  0  0  0  0  0  0  0  0  0  0  0
   18.0000    0.0000    0.0000 C   0  0  0  0  0  0  0  0  0  0  0  0
   16.5000    0.0000    0.0000 C   0  0  0  0  0  0  0  0  0  0  0  0
   15.0000    0.0000    0.0000 C   0  0  0  0  0  0  0  0  0  0  0  0
   13.5000    0.0000    0.0000 C   0  0  0  0  0  0  0  0  0  0  0  0
   12.0000    0.0000    0.0000 C   0  0  0  0  0  0  0  0  0  0  0  0
   10.5000    0.0000    0.0000 C   0  0  0  0  0  0  0  0  0  0  0  0
    9.0000    0.0000    0.0000 C   0  0  0  0  0  0  0  0  0  0  0  0
    7.5000    0.0000    0.0000 C   0  0  0  0  0  0  0  0  0  0  0  0
    6.0000    0.0000    0.0000 C   0  0  0  0  0  0  0  0  0  0  0  0
    4.5000    0.0000    0.0000 C   0  0  0  0  0  0  0  0  0  0  0  0
    3.0000    0.0000    0.0000 C   0  0  0  0  0  0  0  0  0  0  0  0
    1.5000    0.0000    0.0000 C   0  0  0  0  0  0  0  0  0  0  0  0
    0.7500   -1.2990    0.0000 C   0  0  0  0  0  0  0  0  0  0  0  0
   -0.7500   -1.2990    0.0000 C   0  0  0  0  0  0  0  0  0  0  0  0
   -1.5000    0.0000    0.0000 C   0  0  0  0  0  0  0  0  0  0  0  0
   -0.7500    1.2990    0.0000 C   0  0  0  0  0  0  0  0  0  0  0  0
    0.7500    1.2990    0.0000 C   0  0  0  0  0  0  0  0  0  0  0  0
  1  2  3  0
  2  3  1  0
  3  4  3  0
  4  5  1  0
  5  6  3  0
  6  7  1  0
  7  8  3  0
  8  9  1  0
  9 10  3  0
 10 11  1  0
 11 12  3  0
 12 13  1  0
 13 14  3  0
 14 15  1  0
 15 16  3  0
 16 17  1  0
 17 18  3  0
 18 19  1  0
 19 20  3  0
 20 21  1  0
 21 22  3  0
 22 23  1  0
 23 24  3  0
 24 25  1  0
 25 26  3  0
 26 27  1  0
 27 28  3  0
 28 29  1  0
 29 30  3  0
 30 31  1  0
 31 32  3  0
 32 33  1  0
 33 34  3  0
 34 35  1  0
 35 36  3  0
 36 37  1  0
 37 38  3  0
 38 39  1  0
 39 40  3  0
 40 41  1  0
 41 42  3  0
 42 43  1  0
 43 44  3  0
 44 45  1  0
 45 46  3  0
 46 47  1  0
 47 48  3  0
 48 49  1  0
 49 50  3  0
 50 51  1  0
 51 52  3  0
 52 53  1  0
 53 54  3  0
 54 55  1  0
 55 56  3  0
 56 57  1  0
 57 58  3  0
 58 59  1  0
 59 60  3  0
 60 61  1  0
 61 62  3  0
 62 63  1  0
 63 64  3  0
 64 65  1  0
 65 66  3  0
 66 67  1  0
 67 68  3  0
 68 69  1  0
 69 70  3  0
 70 71  1  0
 71 72  3  0
 72 73  1  0
 73 74  3  0
 74 75  1  0
 75 76  3  0
 76 77  1  0
 77 78  3  0
 78 79  1  0
 79 80  3  0
 80 81  1  0
 81 82  2  0
 82 83  1  0
 83 84  2  0
 84 85  1  0
 85 86  2  0
 86 81  1  0
M  END
>  <Title>  (519) 
idAASAgen13

$$$$

     RDKit          2D

 14 15  0  0  0  0  0  0  0  0999 V2000
    5.7760   -2.5981    0.0000 C   0  0  0  0  0  0  0  0  0  0  0  0
    5.0260   -1.2990    0.0000 C   0  0  0  0  0  0  0  0  0  0  0  0
    3.5260   -1.2990    0.0000 C   0  0  0  0  0  0  0  0  0  0  0  0
    2.7760    0.0000    0.0000 N   0  0  0  0  0  0  0  0  0  0  0  0
    1.2760    0.0000    0.0000 C   0  0  0  0  0  0  0  0  0  0  0  0
    0.3943    1.2135    0.0000 N   0  0  0  0  0  0  0  0  0  0  0  0
   -1.0323    0.7500    0.0000 N   0  0  0  0  0  0  0  0  0  0  0  0
   -1.0323   -0.7500    0.0000 N   0  0  0  0  0  0  0  0  0  0  0  0
    0.3943   -1.2135    0.0000 N   0  0  0  0  0  0  0  0  0  0  0  0
    0.8578   -2.6401    0.0000 C   0  0  0  0  0  0  0  0  0  0  0  0
    2.2844   -3.1036    0.0000 C   0  0  0  0  0  0  0  0  0  0  0  0
    2.2844   -4.6036    0.0000 C   0  0  0  0  0  0  0  0  0  0  0  0
    0.8578   -5.0672    0.0000 C   0  0  0  0  0  0  0  0  0  0  0  0
   -0.0239   -3.8536    0.0000 C   0  0  0  0  0  0  0  0  0  0  0  0
  1  2  1  0
  2  3  2  3
  3  4  1  0
  4  5  1  0
  5  6  2  0
  6  7  1  0
  7  8  2  0
  8  9  1  0
  9 10  1  0
 10 11  2  0
 11 12  1  0
 12 13  2  0
 13 14  1  0
  9  5  1  0
 14 10  1  0
M  END
>  <Title>  (520) 
idAASBgen13

$$$$

     RDKit          2D

 14 13  0  0  0  0  0  0  0  0999 V2000
    0.0000    0.0000    0.0000 C   0  0  0  0  0  0  0  0  0  0  0  0
    1.2990    0.7500    0.0000 C   0  0  0  0  0  0  0  0  0  0  0  0
    2.5981   -0.0000    0.0000 C   0  0  0  0  0  0  0  0  0  0  0  0
    3.8971    0.7500    0.0000 C   0  0  0  0  0  0  0  0  0  0  0  0
    5.1962   -0.0000    0.0000 C   0  0  0  0  0  0  0  0  0  0  0  0
    6.4952    0.7500    0.0000 C   0  0  0  0  0  0  0  0  0  0  0  0
    5.1962   -1.5000    0.0000 N   0  0  0  0  0  0  0  0  0  0  0  0
    6.4952   -2.2500    0.0000 C   0  0  0  0  0  0  0  0  0  0  0  0
    7.7942   -1.5000    0.0000 O   0  0  0  0  0  0  0  0  0  0  0  0
    6.4952   -3.7500    0.0000 N   0  0  0  0  0  0  0  0  0  0  0  0
    7.7942   -4.5000    0.0000 C   0  0  0  0  0  0  0  0  0  0  0  0
    7.7942   -6.0000    0.0000 C   0  0  0  0  0  0  0  0  0  0  0  0
    9.0933   -6.7500    0.0000 C   0  0  0  0  0  0  0  0  0  0  0  0
    9.0933   -8.2500    0.0000 C   0  0  0  0  0  0  0  0  0  0  0  0
  1  2  2  0
  2  3  1  0
  3  4  1  0
  4  5  1  0
  5  6  1  0
  5  7  1  0
  7  8  1  0
  8  9  2  0
  8 10  1  0
 10 11  1  0
 11 12  1  0
 12 13  2  3
 13 14  1  0
M  END
>  <Title>  (521) 
idAASCgen13

$$$$

     RDKit          2D

  7  6  0  0  0  0  0  0  0  0999 V2000
    0.0000    0.0000    0.0000 C   0  0  0  0  0  0  0  0  0  0  0  0
   -0.0000   -1.5000    0.0000 C   0  0  0  0  0  0  0  0  0  0  0  0
   -0.0000   -3.0000    0.0000 C   0  0  0  0  0  0  0  0  0  0  0  0
    1.2990   -3.7500    0.0000 C   0  0  0  0  0  0  0  0  0  0  0  0
    1.2990   -5.2500    0.0000 C   0  0  0  0  0  0  0  0  0  0  0  0
    2.5981   -6.0000    0.0000 C   0  0  0  0  0  0  0  0  0  0  0  0
   -0.0000   -6.0000    0.0000 C   0  0  0  0  0  0  0  0  0  0  0  0
  1  2  3  0
  2  3  1  0
  3  4  1  0
  4  5  1  0
  5  6  1  0
  5  7  1  0
M  END
>  <Title>  (522) 
idAASDgen13

$$$$

     RDKit          2D

  6  5  0  0  0  0  0  0  0  0999 V2000
    0.0000    0.0000    0.0000 C   0  0  0  0  0  0  0  0  0  0  0  0
   -0.0000   -1.5000    0.0000 C   0  0  0  0  0  0  0  0  0  0  0  0
   -0.0000   -3.0000    0.0000 C   0  0  0  0  0  0  0  0  0  0  0  0
    1.2990   -3.7500    0.0000 C   0  0  0  0  0  0  0  0  0  0  0  0
    1.2990   -5.2500    0.0000 C   0  0  0  0  0  0  0  0  0  0  0  0
    2.5981   -6.0000    0.0000 C   0  0  0  0  0  0  0  0  0  0  0  0
  1  2  3  0
  2  3  1  0
  3  4  1  0
  4  5  1  0
  5  6  1  0
M  END
>  <Title>  (523) 
idAASEgen13

$$$$

     RDKit          2D

 40 45  0  0  0  0  0  0  0  0999 V2000
   -3.1771   -5.9156    0.0000 C   0  0  0  0  0  0  0  0  0  0  0  0
   -1.9635   -5.0339    0.0000 C   0  0  0  0  0  0  0  0  0  0  0  0
   -0.7500   -5.9156    0.0000 C   0  0  0  0  0  0  0  0  0  0  0  0
    0.7500   -5.9156    0.0000 C   0  0  0  0  0  0  0  0  0  0  0  0
    1.9635   -5.0339    0.0000 C   0  0  0  0  0  0  0  0  0  0  0  0
    2.4271   -3.6073    0.0000 C   0  0  0  0  0  0  0  0  0  0  0  0
    1.9635   -2.1807    0.0000 C   0  0  0  0  0  0  0  0  0  0  0  0
    3.1771   -1.2990    0.0000 C   0  0  0  0  0  0  0  0  0  0  0  0
    3.0203    0.1927    0.0000 O   0  0  0  0  0  0  0  0  0  0  0  0
    4.5474   -1.9091    0.0000 N   0  0  0  0  0  0  0  0  0  0  0  0
    5.7609   -1.0275    0.0000 C   0  0  0  0  0  0  0  0  0  0  0  0
    5.7609    0.4725    0.0000 N   0  0  0  0  0  0  0  0  0  0  0  0
    7.1875    0.9361    0.0000 N   0  0  0  0  0  0  0  0  0  0  0  0
    8.0692   -0.2775    0.0000 N   0  0  0  0  0  0  0  0  0  0  0  0
    7.1875   -1.4910    0.0000 N   0  0  0  0  0  0  0  0  0  0  0  0
    7.6510   -2.9176    0.0000 C   0  0  0  0  0  0  0  0  0  0  0  0
    9.0776   -3.3811    0.0000 C   0  0  0  0  0  0  0  0  0  0  0  0
    9.0776   -4.8811    0.0000 C   0  0  0  0  0  0  0  0  0  0  0  0
    7.6510   -5.3446    0.0000 C   0  0  0  0  0  0  0  0  0  0  0  0
    7.1875   -6.7712    0.0000 O   0  0  0  0  0  0  0  0  0  0  0  0
    5.7203   -7.0831    0.0000 C   0  0  0  0  0  0  0  0  0  0  0  0
    4.7166   -5.9684    0.0000 N   0  0  0  0  0  0  0  0  0  0  0  0
    3.2493   -6.2802    0.0000 N   0  0  0  0  0  0  0  0  0  0  0  0
    2.7858   -7.7068    0.0000 N   0  0  0  0  0  0  0  0  0  0  0  0
    3.7895   -8.8215    0.0000 N   0  0  0  0  0  0  0  0  0  0  0  0
    5.2567   -8.5097    0.0000 N   0  0  0  0  0  0  0  0  0  0  0  0
    6.7693   -4.1311    0.0000 C   0  0  0  0  0  0  0  0  0  0  0  0
    5.2693   -4.1311    0.0000 O   0  0  0  0  0  0  0  0  0  0  0  0
    0.7500   -1.2990    0.0000 C   0  0  0  0  0  0  0  0  0  0  0  0
    1.5000    0.0000    0.0000 C   0  0  0  0  0  0  0  0  0  0  0  0
    0.7500    1.2990    0.0000 C   0  0  0  0  0  0  0  0  0  0  0  0
   -0.7500    1.2990    0.0000 C   0  0  0  0  0  0  0  0  0  0  0  0
   -1.5000    0.0000    0.0000 C   0  0  0  0  0  0  0  0  0  0  0  0
   -0.7500   -1.2990    0.0000 C   0  0  0  0  0  0  0  0  0  0  0  0
   -1.9635   -2.1807    0.0000 C   0  0  0  0  0  0  0  0  0  0  0  0
   -2.9672   -1.0660    0.0000 C   0  0  0  0  0  0  0  0  0  0  0  0
   -4.4344   -1.3779    0.0000 C   0  0  0  0  0  0  0  0  0  0  0  0
   -4.8980   -2.8045    0.0000 C   0  0  0  0  0  0  0  0  0  0  0  0
   -3.8943   -3.9192    0.0000 C   0  0  0  0  0  0  0  0  0  0  0  0
   -2.4271   -3.6073    0.0000 C   0  0  0  0  0  0  0  0  0  0  0  0
  1  2  1  0
  2  3  1  0
  3  4  1  0
  4  5  1  0
  5  6  1  0
  6  7  1  0
  7  8  1  0
  8  9  2  0
  8 10  1  0
 10 11  1  0
 11 12  2  0
 12 13  1  0
 13 14  2  0
 14 15  1  0
 15 16  1  0
 16 17  2  0
 17 18  1  0
 18 19  2  0
 19 20  1  0
 20 21  1  0
 21 22  2  0
 22 23  1  0
 23 24  2  0
 24 25  1  0
 25 26  2  0
 19 27  1  0
 27 28  2  0
  7 29  1  0
 29 30  2  0
 30 31  1  0
 31 32  2  0
 32 33  1  0
 33 34  2  0
 34 35  1  0
 35 36  2  0
 36 37  1  0
 37 38  2  0
 38 39  1  0
 39 40  2  0
 40  2  1  0
 15 11  1  0
 27 16  1  0
 34 29  1  0
 40 35  1  0
 26 21  1  0
M  END
>  <Title>  (524) 
idAASFgen13

$$$$

     RDKit          2D

 31 35  0  0  0  0  0  0  0  0999 V2000
   -3.0000   -2.5981    0.0000 C   0  0  0  0  0  0  0  0  0  0  0  0
   -1.5000   -2.5981    0.0000 C   0  0  0  0  0  0  0  0  0  0  0  0
   -0.7500   -3.8971    0.0000 C   0  0  0  0  0  0  0  0  0  0  0  0
    0.7500   -3.8971    0.0000 C   0  0  0  0  0  0  0  0  0  0  0  0
    1.5000   -2.5981    0.0000 C   0  0  0  0  0  0  0  0  0  0  0  0
    3.0000   -2.5981    0.0000 C   0  0  0  0  0  0  0  0  0  0  0  0
    3.7500   -1.2990    0.0000 O   0  0  0  0  0  0  0  0  0  0  0  0
    3.7500   -3.8971    0.0000 N   0  0  0  0  0  0  0  0  0  0  0  0
    5.2500   -3.8971    0.0000 C   0  0  0  0  0  0  0  0  0  0  0  0
    6.1317   -2.6836    0.0000 N   0  0  0  0  0  0  0  0  0  0  0  0
    7.5583   -3.1471    0.0000 N   0  0  0  0  0  0  0  0  0  0  0  0
    7.5583   -4.6471    0.0000 N   0  0  0  0  0  0  0  0  0  0  0  0
    6.1317   -5.1106    0.0000 N   0  0  0  0  0  0  0  0  0  0  0  0
    5.6682   -6.5372    0.0000 N   0  0  0  0  0  0  0  0  0  0  0  0
    6.5498   -7.7508    0.0000 C   0  0  0  0  0  0  0  0  0  0  0  0
    5.6682   -8.9643    0.0000 C   0  0  0  0  0  0  0  0  0  0  0  0
    4.2416   -8.5008    0.0000 C   0  0  0  0  0  0  0  0  0  0  0  0
    3.0280   -9.3824    0.0000 C   0  0  0  0  0  0  0  0  0  0  0  0
    1.6577   -8.7723    0.0000 C   0  0  0  0  0  0  0  0  0  0  0  0
    0.4442   -9.6540    0.0000 C   0  0  0  0  0  0  0  0  0  0  0  0
    0.6010  -11.1458    0.0000 C   0  0  0  0  0  0  0  0  0  0  0  0
    1.9713  -11.7559    0.0000 C   0  0  0  0  0  0  0  0  0  0  0  0
    3.1848  -10.8742    0.0000 C   0  0  0  0  0  0  0  0  0  0  0  0
    4.2416   -7.0008    0.0000 C   0  0  0  0  0  0  0  0  0  0  0  0
    3.0280   -6.1191    0.0000 O   0  0  0  0  0  0  0  0  0  0  0  0
    0.7500   -1.2990    0.0000 C   0  0  0  0  0  0  0  0  0  0  0  0
    1.5000    0.0000    0.0000 C   0  0  0  0  0  0  0  0  0  0  0  0
    0.7500    1.2990    0.0000 C   0  0  0  0  0  0  0  0  0  0  0  0
   -0.7500    1.2990    0.0000 C   0  0  0  0  0  0  0  0  0  0  0  0
   -1.5000    0.0000    0.0000 C   0  0  0  0  0  0  0  0  0  0  0  0
   -0.7500   -1.2990    0.0000 C   0  0  0  0  0  0  0  0  0  0  0  0
  1  2  1  0
  2  3  2  0
  3  4  1  0
  4  5  2  0
  5  6  1  0
  6  7  2  0
  6  8  1  0
  8  9  1  0
  9 10  2  0
 10 11  1  0
 11 12  2  0
 12 13  1  0
 13 14  1  0
 14 15  1  0
 15 16  1  0
 16 17  1  0
 17 18  1  0
 18 19  2  0
 19 20  1  0
 20 21  2  0
 21 22  1  0
 22 23  2  0
 17 24  1  0
 24 25  2  0
  5 26  1  0
 26 27  2  0
 27 28  1  0
 28 29  2  0
 29 30  1  0
 30 31  2  0
 31  2  1  0
 13  9  1  0
 24 14  1  0
 31 26  1  0
 23 18  1  0
M  END
>  <Title>  (525) 
idAASGgen13

$$$$

     RDKit          2D

 34 38  0  0  0  0  0  0  0  0999 V2000
   -3.0000   -2.5981    0.0000 C   0  0  0  0  0  0  0  0  0  0  0  0
   -1.5000   -2.5981    0.0000 C   0  0  0  0  0  0  0  0  0  0  0  0
   -0.7500   -3.8971    0.0000 C   0  0  0  0  0  0  0  0  0  0  0  0
    0.7500   -3.8971    0.0000 C   0  0  0  0  0  0  0  0  0  0  0  0
    1.5000   -2.5981    0.0000 C   0  0  0  0  0  0  0  0  0  0  0  0
    3.0000   -2.5981    0.0000 C   0  0  0  0  0  0  0  0  0  0  0  0
    3.7500   -1.2990    0.0000 O   0  0  0  0  0  0  0  0  0  0  0  0
    3.7500   -3.8971    0.0000 N   0  0  0  0  0  0  0  0  0  0  0  0
    5.2500   -3.8971    0.0000 C   0  0  0  0  0  0  0  0  0  0  0  0
    6.1317   -2.6836    0.0000 N   0  0  0  0  0  0  0  0  0  0  0  0
    7.5583   -3.1471    0.0000 N   0  0  0  0  0  0  0  0  0  0  0  0
    7.5583   -4.6471    0.0000 N   0  0  0  0  0  0  0  0  0  0  0  0
    6.1317   -5.1106    0.0000 N   0  0  0  0  0  0  0  0  0  0  0  0
    5.6682   -6.5372    0.0000 N   0  0  0  0  0  0  0  0  0  0  0  0
    6.5498   -7.7508    0.0000 C   0  0  0  0  0  0  0  0  0  0  0  0
    5.6682   -8.9643    0.0000 C   0  0  0  0  0  0  0  0  0  0  0  0
    4.2416   -8.5008    0.0000 N   0  0  0  0  0  0  0  0  0  0  0  0
    3.0280   -9.3824    0.0000 C   0  0  0  0  0  0  0  0  0  0  0  0
    3.1848  -10.8742    0.0000 O   0  0  0  0  0  0  0  0  0  0  0  0
    1.6577   -8.7723    0.0000 N   0  0  0  0  0  0  0  0  0  0  0  0
    0.4442   -9.6540    0.0000 C   0  0  0  0  0  0  0  0  0  0  0  0
   -0.9261   -9.0439    0.0000 N   0  0  0  0  0  0  0  0  0  0  0  0
   -2.1396   -9.9256    0.0000 N   0  0  0  0  0  0  0  0  0  0  0  0
   -1.9829  -11.4174    0.0000 N   0  0  0  0  0  0  0  0  0  0  0  0
   -0.6125  -12.0275    0.0000 N   0  0  0  0  0  0  0  0  0  0  0  0
    0.6010  -11.1458    0.0000 N   0  0  0  0  0  0  0  0  0  0  0  0
    4.2416   -7.0008    0.0000 C   0  0  0  0  0  0  0  0  0  0  0  0
    3.0280   -6.1191    0.0000 O   0  0  0  0  0  0  0  0  0  0  0  0
    0.7500   -1.2990    0.0000 C   0  0  0  0  0  0  0  0  0  0  0  0
    1.5000    0.0000    0.0000 C   0  0  0  0  0  0  0  0  0  0  0  0
    0.7500    1.2990    0.0000 C   0  0  0  0  0  0  0  0  0  0  0  0
   -0.7500    1.2990    0.0000 C   0  0  0  0  0  0  0  0  0  0  0  0
   -1.5000    0.0000    0.0000 C   0  0  0  0  0  0  0  0  0  0  0  0
   -0.7500   -1.2990    0.0000 C   0  0  0  0  0  0  0  0  0  0  0  0
  1  2  1  0
  2  3  1  0
  3  4  1  0
  4  5  1  0
  5  6  1  0
  6  7  2  0
  6  8  1  0
  8  9  1  0
  9 10  2  0
 10 11  1  0
 11 12  2  0
 12 13  1  0
 13 14  1  0
 14 15  1  0
 15 16  1  0
 16 17  1  0
 17 18  1  0
 18 19  2  0
 18 20  1  0
 20 21  1  0
 21 22  2  0
 22 23  1  0
 23 24  2  0
 24 25  1  0
 25 26  2  0
 17 27  1  0
 27 28  2  0
  5 29  1  0
 29 30  2  0
 30 31  1  0
 31 32  2  0
 32 33  1  0
 33 34  2  0
 34  2  1  0
 13  9  1  0
 27 14  1  0
 34 29  1  0
 26 21  1  0
M  END
>  <Title>  (526) 
idAASHgen13

$$$$

     RDKit          2D

 15 14  0  0  0  0  0  0  0  0999 V2000
    0.0000    0.0000    0.0000 C   0  0  0  0  0  0  0  0  0  0  0  0
    1.2990    0.7500    0.0000 C   0  0  0  0  0  0  0  0  0  0  0  0
    2.5981   -0.0000    0.0000 C   0  0  0  0  0  0  0  0  0  0  0  0
    3.8971    0.7500    0.0000 C   0  0  0  0  0  0  0  0  0  0  0  0
    5.1962   -0.0000    0.0000 N   0  0  0  0  0  0  0  0  0  0  0  0
    6.4952    0.7500    0.0000 C   0  0  0  0  0  0  0  0  0  0  0  0
    6.4952    2.2500    0.0000 O   0  0  0  0  0  0  0  0  0  0  0  0
    7.7942   -0.0000    0.0000 N   0  0  0  0  0  0  0  0  0  0  0  0
    9.0933    0.7500    0.0000 C   0  0  0  0  0  0  0  0  0  0  0  0
   10.3923   -0.0000    0.0000 C   0  0  0  0  0  0  0  0  0  0  0  0
    9.0933    2.2500    0.0000 C   0  0  0  0  0  0  0  0  0  0  0  0
   10.3923    3.0000    0.0000 C   0  0  0  0  0  0  0  0  0  0  0  0
   10.3923    4.5000    0.0000 C   0  0  0  0  0  0  0  0  0  0  0  0
   11.6913    5.2500    0.0000 C   0  0  0  0  0  0  0  0  0  0  0  0
    9.0933    5.2500    0.0000 C   0  0  0  0  0  0  0  0  0  0  0  0
  1  2  2  0
  2  3  1  0
  3  4  1  0
  4  5  1  0
  5  6  1  0
  6  7  2  0
  6  8  1  0
  8  9  1  0
  9 10  1  0
  9 11  1  0
 11 12  1  0
 12 13  1  0
 13 14  1  0
 13 15  1  0
M  END
>  <Title>  (527) 
idAASIgen13

$$$$

     RDKit          2D

 16 17  0  0  0  0  0  0  0  0999 V2000
   10.2760   -0.0000    0.0000 C   0  0  0  0  0  0  0  0  0  0  0  0
    8.7760   -0.0000    0.0000 C   0  0  0  0  0  0  0  0  0  0  0  0
    7.2760   -0.0000    0.0000 C   0  0  0  0  0  0  0  0  0  0  0  0
    5.7760   -0.0000    0.0000 C   0  0  0  0  0  0  0  0  0  0  0  0
    4.2760   -0.0000    0.0000 C   0  0  0  0  0  0  0  0  0  0  0  0
    2.7760    0.0000    0.0000 C   0  0  0  0  0  0  0  0  0  0  0  0
    1.2760    0.0000    0.0000 C   0  0  0  0  0  0  0  0  0  0  0  0
    0.3943    1.2135    0.0000 N   0  0  0  0  0  0  0  0  0  0  0  0
   -1.0323    0.7500    0.0000 N   0  0  0  0  0  0  0  0  0  0  0  0
   -1.0323   -0.7500    0.0000 N   0  0  0  0  0  0  0  0  0  0  0  0
    0.3943   -1.2135    0.0000 N   0  0  0  0  0  0  0  0  0  0  0  0
    0.8578   -2.6401    0.0000 C   0  0  0  0  0  0  0  0  0  0  0  0
    2.2844   -3.1036    0.0000 C   0  0  0  0  0  0  0  0  0  0  0  0
    2.2844   -4.6036    0.0000 C   0  0  0  0  0  0  0  0  0  0  0  0
    0.8578   -5.0672    0.0000 C   0  0  0  0  0  0  0  0  0  0  0  0
   -0.0239   -3.8536    0.0000 C   0  0  0  0  0  0  0  0  0  0  0  0
  1  2  3  0
  2  3  1  0
  3  4  3  0
  4  5  1  0
  5  6  3  0
  6  7  1  0
  7  8  2  0
  8  9  1  0
  9 10  2  0
 10 11  1  0
 11 12  1  0
 12 13  2  0
 13 14  1  0
 14 15  1  0
 15 16  1  0
 11  7  1  0
 16 12  1  0
M  END
>  <Title>  (528) 
idAASJgen13

$$$$

     RDKit          2D

 43 47  0  0  0  0  0  0  0  0999 V2000
   -3.8230    3.5974    0.0000 C   0  0  0  0  0  0  0  0  0  0  0  0
   -2.4186    3.0703    0.0000 C   0  0  0  0  0  0  0  0  0  0  0  0
   -1.3344    4.1069    0.0000 C   0  0  0  0  0  0  0  0  0  0  0  0
    0.1520    3.9056    0.0000 C   0  0  0  0  0  0  0  0  0  0  0  0
    0.9214    2.6179    0.0000 C   0  0  0  0  0  0  0  0  0  0  0  0
    0.3943    1.2135    0.0000 C   0  0  0  0  0  0  0  0  0  0  0  0
    1.2760    0.0000    0.0000 N   0  0  0  0  0  0  0  0  0  0  0  0
    0.3943   -1.2135    0.0000 N   0  0  0  0  0  0  0  0  0  0  0  0
   -1.0323   -0.7500    0.0000 N   0  0  0  0  0  0  0  0  0  0  0  0
   -1.0323    0.7500    0.0000 N   0  0  0  0  0  0  0  0  0  0  0  0
   -2.2841    1.5763    0.0000 N   0  0  0  0  0  0  0  0  0  0  0  0
   -3.5718    0.8070    0.0000 C   0  0  0  0  0  0  0  0  0  0  0  0
   -3.5494   -0.6928    0.0000 O   0  0  0  0  0  0  0  0  0  0  0  0
   -4.8819    1.5375    0.0000 N   0  0  0  0  0  0  0  0  0  0  0  0
   -6.1696    0.7681    0.0000 C   0  0  0  0  0  0  0  0  0  0  0  0
   -6.1472   -0.7317    0.0000 O   0  0  0  0  0  0  0  0  0  0  0  0
   -7.4797    1.4986    0.0000 C   0  0  0  0  0  0  0  0  0  0  0  0
   -8.7674    0.7293    0.0000 C   0  0  0  0  0  0  0  0  0  0  0  0
   -8.7450   -0.7706    0.0000 O   0  0  0  0  0  0  0  0  0  0  0  0
  -10.0775    1.4597    0.0000 N   0  0  0  0  0  0  0  0  0  0  0  0
  -11.3652    0.6904    0.0000 C   0  0  0  0  0  0  0  0  0  0  0  0
  -11.4996   -0.8036    0.0000 C   0  0  0  0  0  0  0  0  0  0  0  0
  -12.9620   -1.1373    0.0000 C   0  0  0  0  0  0  0  0  0  0  0  0
  -13.7314    0.1503    0.0000 C   0  0  0  0  0  0  0  0  0  0  0  0
  -15.2253    0.2848    0.0000 O   0  0  0  0  0  0  0  0  0  0  0  0
  -16.0888   -0.9418    0.0000 C   0  0  0  0  0  0  0  0  0  0  0  0
  -17.5886   -0.9642    0.0000 C   0  0  0  0  0  0  0  0  0  0  0  0
  -18.0307   -2.3976    0.0000 C   0  0  0  0  0  0  0  0  0  0  0  0
  -16.8041   -3.2610    0.0000 C   0  0  0  0  0  0  0  0  0  0  0  0
  -16.7817   -4.7608    0.0000 O   0  0  0  0  0  0  0  0  0  0  0  0
  -15.4716   -5.4913    0.0000 C   0  0  0  0  0  0  0  0  0  0  0  0
  -14.1839   -4.7220    0.0000 O   0  0  0  0  0  0  0  0  0  0  0  0
  -15.4492   -6.9912    0.0000 N   0  0  0  0  0  0  0  0  0  0  0  0
  -14.1390   -7.7216    0.0000 C   0  0  0  0  0  0  0  0  0  0  0  0
  -12.8514   -6.9523    0.0000 N   0  0  0  0  0  0  0  0  0  0  0  0
  -11.5413   -7.6828    0.0000 N   0  0  0  0  0  0  0  0  0  0  0  0
  -11.5188   -9.1826    0.0000 N   0  0  0  0  0  0  0  0  0  0  0  0
  -12.8065   -9.9520    0.0000 N   0  0  0  0  0  0  0  0  0  0  0  0
  -14.1166   -9.2215    0.0000 N   0  0  0  0  0  0  0  0  0  0  0  0
  -15.6039   -2.3613    0.0000 C   0  0  0  0  0  0  0  0  0  0  0  0
  -14.1706   -2.8034    0.0000 O   0  0  0  0  0  0  0  0  0  0  0  0
  -12.7445    1.2799    0.0000 C   0  0  0  0  0  0  0  0  0  0  0  0
  -13.0782    2.7423    0.0000 O   0  0  0  0  0  0  0  0  0  0  0  0
  1  2  1  0
  2  3  1  0
  3  4  1  0
  4  5  1  0
  5  6  1  0
  6  7  2  0
  7  8  1  0
  8  9  2  0
  9 10  1  0
 10 11  1  0
 11 12  1  0
 12 13  2  0
 12 14  1  0
 14 15  1  0
 15 16  2  0
 15 17  1  0
 17 18  1  0
 18 19  2  0
 18 20  1  0
 20 21  1  0
 21 22  2  0
 22 23  1  0
 23 24  2  0
 24 25  1  0
 25 26  1  0
 26 27  2  0
 27 28  1  0
 28 29  2  0
 29 30  1  0
 30 31  1  0
 31 32  2  0
 31 33  1  0
 33 34  1  0
 34 35  2  0
 35 36  1  0
 36 37  2  0
 37 38  1  0
 38 39  2  0
 29 40  1  0
 40 41  2  0
 24 42  1  0
 42 43  2  0
 11  2  1  0
 42 21  1  0
 10  6  1  0
 40 26  1  0
 39 34  1  0
M  END
>  <Title>  (529) 
idAASKgen13

$$$$

     RDKit          2D

 14 15  0  0  0  0  0  0  0  0999 V2000
    7.2760   -0.0000    0.0000 C   0  0  0  0  0  0  0  0  0  0  0  0
    5.7760   -0.0000    0.0000 C   0  0  0  0  0  0  0  0  0  0  0  0
    4.2760   -0.0000    0.0000 C   0  0  0  0  0  0  0  0  0  0  0  0
    2.7760    0.0000    0.0000 C   0  0  0  0  0  0  0  0  0  0  0  0
    1.2760    0.0000    0.0000 C   0  0  0  0  0  0  0  0  0  0  0  0
    0.3943    1.2135    0.0000 N   0  0  0  0  0  0  0  0  0  0  0  0
   -1.0323    0.7500    0.0000 N   0  0  0  0  0  0  0  0  0  0  0  0
   -1.0323   -0.7500    0.0000 N   0  0  0  0  0  0  0  0  0  0  0  0
    0.3943   -1.2135    0.0000 N   0  0  0  0  0  0  0  0  0  0  0  0
    0.8578   -2.6401    0.0000 C   0  0  0  0  0  0  0  0  0  0  0  0
    2.2844   -3.1036    0.0000 C   0  0  0  0  0  0  0  0  0  0  0  0
    2.2844   -4.6036    0.0000 C   0  0  0  0  0  0  0  0  0  0  0  0
    0.8578   -5.0672    0.0000 C   0  0  0  0  0  0  0  0  0  0  0  0
   -0.0239   -3.8536    0.0000 C   0  0  0  0  0  0  0  0  0  0  0  0
  1  2  3  0
  2  3  1  0
  3  4  3  0
  4  5  1  0
  5  6  2  0
  6  7  1  0
  7  8  2  0
  8  9  1  0
  9 10  1  0
 10 11  2  0
 11 12  1  0
 12 13  1  0
 13 14  2  0
  9  5  1  0
 14 10  1  0
M  END
>  <Title>  (530) 
idAASLgen13

$$$$

     RDKit          2D

  6  6  0  0  0  0  0  0  0  0999 V2000
    2.7760    0.0000    0.0000 C   0  0  0  0  0  0  0  0  0  0  0  0
    1.2760    0.0000    0.0000 C   0  0  0  0  0  0  0  0  0  0  0  0
    0.3943    1.2135    0.0000 C   0  0  0  0  0  0  0  0  0  0  0  0
   -1.0323    0.7500    0.0000 C   0  0  0  0  0  0  0  0  0  0  0  0
   -1.0323   -0.7500    0.0000 C   0  0  0  0  0  0  0  0  0  0  0  0
    0.3943   -1.2135    0.0000 N   0  0  0  0  0  0  0  0  0  0  0  0
  1  2  1  0
  2  3  2  0
  3  4  1  0
  4  5  2  0
  5  6  1  0
  6  2  1  0
M  END
>  <Title>  (531) 
idAASMgen13

$$$$

     RDKit          2D

 14 15  0  0  0  0  0  0  0  0999 V2000
    6.5260   -1.2990    0.0000 C   0  0  0  0  0  0  0  0  0  0  0  0
    5.0260   -1.2990    0.0000 C   0  0  0  0  0  0  0  0  0  0  0  0
    3.5260   -1.2990    0.0000 C   0  0  0  0  0  0  0  0  0  0  0  0
    2.7760    0.0000    0.0000 C   0  0  0  0  0  0  0  0  0  0  0  0
    1.2760    0.0000    0.0000 C   0  0  0  0  0  0  0  0  0  0  0  0
    0.3943    1.2135    0.0000 N   0  0  0  0  0  0  0  0  0  0  0  0
   -1.0323    0.7500    0.0000 N   0  0  0  0  0  0  0  0  0  0  0  0
   -1.0323   -0.7500    0.0000 N   0  0  0  0  0  0  0  0  0  0  0  0
    0.3943   -1.2135    0.0000 N   0  0  0  0  0  0  0  0  0  0  0  0
    0.8578   -2.6401    0.0000 C   0  0  0  0  0  0  0  0  0  0  0  0
    2.2844   -3.1036    0.0000 C   0  0  0  0  0  0  0  0  0  0  0  0
    2.2844   -4.6036    0.0000 C   0  0  0  0  0  0  0  0  0  0  0  0
    0.8578   -5.0672    0.0000 C   0  0  0  0  0  0  0  0  0  0  0  0
   -0.0239   -3.8536    0.0000 C   0  0  0  0  0  0  0  0  0  0  0  0
  1  2  3  0
  2  3  1  0
  3  4  1  0
  4  5  1  0
  5  6  2  0
  6  7  1  0
  7  8  2  0
  8  9  1  0
  9 10  1  0
 10 11  2  0
 11 12  1  0
 12 13  1  0
 13 14  1  0
  9  5  1  0
 14 10  1  0
M  END
>  <Title>  (532) 
idAASNgen13

$$$$

     RDKit          2D

 32 36  0  0  0  0  0  0  0  0999 V2000
   -3.1476   -2.1380    0.0000 C   0  0  0  0  0  0  0  0  0  0  0  0
   -1.6852   -2.4718    0.0000 C   0  0  0  0  0  0  0  0  0  0  0  0
   -1.3515   -3.9342    0.0000 C   0  0  0  0  0  0  0  0  0  0  0  0
   -0.0000   -4.5850    0.0000 C   0  0  0  0  0  0  0  0  0  0  0  0
    1.3515   -3.9342    0.0000 C   0  0  0  0  0  0  0  0  0  0  0  0
    1.6852   -2.4718    0.0000 C   0  0  0  0  0  0  0  0  0  0  0  0
    3.1476   -2.1380    0.0000 C   0  0  0  0  0  0  0  0  0  0  0  0
    3.5898   -0.7046    0.0000 O   0  0  0  0  0  0  0  0  0  0  0  0
    4.1679   -3.2376    0.0000 N   0  0  0  0  0  0  0  0  0  0  0  0
    5.6303   -2.9038    0.0000 C   0  0  0  0  0  0  0  0  0  0  0  0
    6.2198   -1.5245    0.0000 N   0  0  0  0  0  0  0  0  0  0  0  0
    7.7138   -1.6590    0.0000 N   0  0  0  0  0  0  0  0  0  0  0  0
    8.0476   -3.1214    0.0000 N   0  0  0  0  0  0  0  0  0  0  0  0
    6.7599   -3.8907    0.0000 N   0  0  0  0  0  0  0  0  0  0  0  0
    6.6254   -5.3847    0.0000 N   0  0  0  0  0  0  0  0  0  0  0  0
    7.7550   -6.3716    0.0000 C   0  0  0  0  0  0  0  0  0  0  0  0
    7.1655   -7.7509    0.0000 C   0  0  0  0  0  0  0  0  0  0  0  0
    5.6715   -7.6164    0.0000 N   0  0  0  0  0  0  0  0  0  0  0  0
    4.6846   -8.7460    0.0000 C   0  0  0  0  0  0  0  0  0  0  0  0
    3.2129   -8.4561    0.0000 C   0  0  0  0  0  0  0  0  0  0  0  0
    2.2260   -9.5857    0.0000 C   0  0  0  0  0  0  0  0  0  0  0  0
    2.7108  -11.0052    0.0000 C   0  0  0  0  0  0  0  0  0  0  0  0
    4.1825  -11.2951    0.0000 C   0  0  0  0  0  0  0  0  0  0  0  0
    5.1694  -10.1655    0.0000 C   0  0  0  0  0  0  0  0  0  0  0  0
    5.3378   -6.1540    0.0000 C   0  0  0  0  0  0  0  0  0  0  0  0
    3.9585   -5.5645    0.0000 O   0  0  0  0  0  0  0  0  0  0  0  0
    0.7500   -1.2990    0.0000 C   0  0  0  0  0  0  0  0  0  0  0  0
    1.5000    0.0000    0.0000 C   0  0  0  0  0  0  0  0  0  0  0  0
    0.7500    1.2990    0.0000 C   0  0  0  0  0  0  0  0  0  0  0  0
   -0.7500    1.2990    0.0000 C   0  0  0  0  0  0  0  0  0  0  0  0
   -1.5000    0.0000    0.0000 C   0  0  0  0  0  0  0  0  0  0  0  0
   -0.7500   -1.2990    0.0000 C   0  0  0  0  0  0  0  0  0  0  0  0
  1  2  1  0
  2  3  1  0
  3  4  2  0
  4  5  1  0
  5  6  1  0
  6  7  1  0
  7  8  2  0
  7  9  1  0
  9 10  1  0
 10 11  2  0
 11 12  1  0
 12 13  2  0
 13 14  1  0
 14 15  1  0
 15 16  1  0
 16 17  1  0
 17 18  1  0
 18 19  1  0
 19 20  2  0
 20 21  1  0
 21 22  2  0
 22 23  1  0
 23 24  2  0
 18 25  1  0
 25 26  2  0
  6 27  1  0
 27 28  2  0
 28 29  1  0
 29 30  2  0
 30 31  1  0
 31 32  2  0
 32  2  1  0
 14 10  1  0
 25 15  1  0
 32 27  1  0
 24 19  1  0
M  END
>  <Title>  (533) 
idAASOgen13

$$$$

     RDKit          2D

  8  8  0  0  0  0  0  0  0  0999 V2000
    3.7500   -1.2990    0.0000 C   0  0  0  0  0  0  0  0  0  0  0  0
    3.0000    0.0000    0.0000 C   0  0  0  0  0  0  0  0  0  0  0  0
    1.5000    0.0000    0.0000 C   0  0  0  0  0  0  0  0  0  0  0  0
    0.7500   -1.2990    0.0000 C   0  0  0  0  0  0  0  0  0  0  0  0
   -0.7500   -1.2990    0.0000 C   0  0  0  0  0  0  0  0  0  0  0  0
   -1.5000    0.0000    0.0000 C   0  0  0  0  0  0  0  0  0  0  0  0
   -0.7500    1.2990    0.0000 C   0  0  0  0  0  0  0  0  0  0  0  0
    0.7500    1.2990    0.0000 C   0  0  0  0  0  0  0  0  0  0  0  0
  1  2  2  0
  2  3  1  0
  3  4  2  0
  4  5  1  0
  5  6  2  0
  6  7  1  0
  7  8  2  0
  8  3  1  0
M  END
>  <Title>  (534) 
idAASPgen13

$$$$

     RDKit          2D

 58 57  0  0  0  0  0  0  0  0999 V2000
    0.0000    0.0000    0.0000 C   0  0  0  0  0  0  0  0  0  0  0  0
   -0.0000   -1.5000    0.0000 C   0  0  0  0  0  0  0  0  0  0  0  0
   -0.0000   -3.0000    0.0000 C   0  0  0  0  0  0  0  0  0  0  0  0
   -0.0000   -4.5000    0.0000 C   0  0  0  0  0  0  0  0  0  0  0  0
   -0.0000   -6.0000    0.0000 C   0  0  0  0  0  0  0  0  0  0  0  0
   -0.0000   -7.5000    0.0000 C   0  0  0  0  0  0  0  0  0  0  0  0
   -0.0000   -9.0000    0.0000 C   0  0  0  0  0  0  0  0  0  0  0  0
   -0.0000  -10.5000    0.0000 C   0  0  0  0  0  0  0  0  0  0  0  0
   -0.0000  -12.0000    0.0000 C   0  0  0  0  0  0  0  0  0  0  0  0
   -0.0000  -13.5000    0.0000 C   0  0  0  0  0  0  0  0  0  0  0  0
   -0.0000  -15.0000    0.0000 C   0  0  0  0  0  0  0  0  0  0  0  0
   -0.0000  -16.5000    0.0000 C   0  0  0  0  0  0  0  0  0  0  0  0
   -0.0000  -18.0000    0.0000 C   0  0  0  0  0  0  0  0  0  0  0  0
   -0.0000  -19.5000    0.0000 C   0  0  0  0  0  0  0  0  0  0  0  0
   -0.0000  -21.0000    0.0000 C   0  0  0  0  0  0  0  0  0  0  0  0
   -0.0000  -22.5000    0.0000 C   0  0  0  0  0  0  0  0  0  0  0  0
   -0.0000  -24.0000    0.0000 C   0  0  0  0  0  0  0  0  0  0  0  0
   -0.0000  -25.5000    0.0000 C   0  0  0  0  0  0  0  0  0  0  0  0
   -0.0000  -27.0000    0.0000 C   0  0  0  0  0  0  0  0  0  0  0  0
   -0.0000  -28.5000    0.0000 C   0  0  0  0  0  0  0  0  0  0  0  0
   -0.0000  -30.0000    0.0000 C   0  0  0  0  0  0  0  0  0  0  0  0
   -0.0000  -31.5000    0.0000 C   0  0  0  0  0  0  0  0  0  0  0  0
   -0.0000  -33.0000    0.0000 C   0  0  0  0  0  0  0  0  0  0  0  0
   -0.0000  -34.5000    0.0000 C   0  0  0  0  0  0  0  0  0  0  0  0
   -0.0000  -36.0000    0.0000 C   0  0  0  0  0  0  0  0  0  0  0  0
   -0.0000  -37.5000    0.0000 C   0  0  0  0  0  0  0  0  0  0  0  0
   -0.0000  -39.0000    0.0000 C   0  0  0  0  0  0  0  0  0  0  0  0
   -0.0000  -40.5000    0.0000 C   0  0  0  0  0  0  0  0  0  0  0  0
   -0.0000  -42.0000    0.0000 C   0  0  0  0  0  0  0  0  0  0  0  0
   -0.0000  -43.5000    0.0000 C   0  0  0  0  0  0  0  0  0  0  0  0
   -0.0000  -45.0000    0.0000 C   0  0  0  0  0  0  0  0  0  0  0  0
   -0.0000  -46.5000    0.0000 C   0  0  0  0  0  0  0  0  0  0  0  0
   -0.0000  -48.0000    0.0000 C   0  0  0  0  0  0  0  0  0  0  0  0
   -0.0000  -49.5000    0.0000 C   0  0  0  0  0  0  0  0  0  0  0  0
   -0.0000  -51.0000    0.0000 C   0  0  0  0  0  0  0  0  0  0  0  0
   -0.0000  -52.5000    0.0000 C   0  0  0  0  0  0  0  0  0  0  0  0
   -0.0000  -54.0000    0.0000 C   0  0  0  0  0  0  0  0  0  0  0  0
   -0.0000  -55.5000    0.0000 C   0  0  0  0  0  0  0  0  0  0  0  0
   -0.0000  -57.0000    0.0000 C   0  0  0  0  0  0  0  0  0  0  0  0
   -0.0000  -58.5000    0.0000 C   0  0  0  0  0  0  0  0  0  0  0  0
   -0.0000  -60.0000    0.0000 C   0  0  0  0  0  0  0  0  0  0  0  0
   -0.0000  -61.5000    0.0000 C   0  0  0  0  0  0  0  0  0  0  0  0
   -0.0000  -63.0000    0.0000 C   0  0  0  0  0  0  0  0  0  0  0  0
   -0.0000  -64.5000    0.0000 C   0  0  0  0  0  0  0  0  0  0  0  0
   -0.0000  -66.0000    0.0000 C   0  0  0  0  0  0  0  0  0  0  0  0
   -0.0000  -67.5000    0.0000 C   0  0  0  0  0  0  0  0  0  0  0  0
   -0.0000  -69.0000    0.0000 C   0  0  0  0  0  0  0  0  0  0  0  0
   -0.0000  -70.5000    0.0000 C   0  0  0  0  0  0  0  0  0  0  0  0
   -0.0000  -72.0000    0.0000 C   0  0  0  0  0  0  0  0  0  0  0  0
   -0.0000  -73.5000    0.0000 C   0  0  0  0  0  0  0  0  0  0  0  0
   -0.0000  -75.0000    0.0000 C   0  0  0  0  0  0  0  0  0  0  0  0
   -0.0000  -76.5000    0.0000 C   0  0  0  0  0  0  0  0  0  0  0  0
   -0.0000  -78.0000    0.0000 C   0  0  0  0  0  0  0  0  0  0  0  0
   -0.0000  -79.5000    0.0000 C   0  0  0  0  0  0  0  0  0  0  0  0
   -0.0000  -81.0000    0.0000 C   0  0  0  0  0  0  0  0  0  0  0  0
   -0.0000  -82.5000    0.0000 C   0  0  0  0  0  0  0  0  0  0  0  0
   -0.0000  -84.0000    0.0000 C   0  0  0  0  0  0  0  0  0  0  0  0
   -0.0000  -85.5000    0.0000 C   0  0  0  0  0  0  0  0  0  0  0  0
  1  2  3  0
  2  3  1  0
  3  4  3  0
  4  5  1  0
  5  6  3  0
  6  7  1  0
  7  8  3  0
  8  9  1  0
  9 10  3  0
 10 11  1  0
 11 12  3  0
 12 13  1  0
 13 14  3  0
 14 15  1  0
 15 16  3  0
 16 17  1  0
 17 18  3  0
 18 19  1  0
 19 20  3  0
 20 21  1  0
 21 22  3  0
 22 23  1  0
 23 24  3  0
 24 25  1  0
 25 26  3  0
 26 27  1  0
 27 28  3  0
 28 29  1  0
 29 30  3  0
 30 31  1  0
 31 32  3  0
 32 33  1  0
 33 34  3  0
 34 35  1  0
 35 36  3  0
 36 37  1  0
 37 38  3  0
 38 39  1  0
 39 40  3  0
 40 41  1  0
 41 42  3  0
 42 43  1  0
 43 44  3  0
 44 45  1  0
 45 46  3  0
 46 47  1  0
 47 48  3  0
 48 49  1  0
 49 50  3  0
 50 51  1  0
 51 52  3  0
 52 53  1  0
 53 54  3  0
 54 55  1  0
 55 56  3  0
 56 57  1  0
 57 58  3  0
M  END
>  <Title>  (535) 
idAASQgen13

$$$$

     RDKit          2D

 11 12  0  0  0  0  0  0  0  0999 V2000
   -0.4921    5.7184    0.0000 C   0  0  0  0  0  0  0  0  0  0  0  0
   -1.4958    4.6036    0.0000 C   0  0  0  0  0  0  0  0  0  0  0  0
   -2.9630    4.9155    0.0000 O   0  0  0  0  0  0  0  0  0  0  0  0
   -1.0323    3.1771    0.0000 N   0  0  0  0  0  0  0  0  0  0  0  0
    0.3943    2.7135    0.0000 C   0  0  0  0  0  0  0  0  0  0  0  0
    0.3943    1.2135    0.0000 C   0  0  0  0  0  0  0  0  0  0  0  0
    1.2760    0.0000    0.0000 C   0  0  0  0  0  0  0  0  0  0  0  0
    0.3943   -1.2135    0.0000 C   0  0  0  0  0  0  0  0  0  0  0  0
   -1.0323   -0.7500    0.0000 C   0  0  0  0  0  0  0  0  0  0  0  0
   -1.0323    0.7500    0.0000 C   0  0  0  0  0  0  0  0  0  0  0  0
   -1.9140    1.9635    0.0000 C   0  0  0  0  0  0  0  0  0  0  0  0
  1  2  1  0
  2  3  2  0
  2  4  1  0
  4  5  1  0
  5  6  1  0
  6  7  1  0
  7  8  1  0
  8  9  1  0
  9 10  1  0
 10 11  1  0
 11  4  1  0
 10  6  1  0
M  END
>  <Title>  (536) 
idAASRgen13

$$$$

     RDKit          2D

 17 19  0  0  0  0  0  0  0  0999 V2000
   -4.3202   -4.5321    0.0000 C   0  0  0  0  0  0  0  0  0  0  0  0
   -3.2595   -3.4715    0.0000 C   0  0  0  0  0  0  0  0  0  0  0  0
   -1.8107   -3.8597    0.0000 C   0  0  0  0  0  0  0  0  0  0  0  0
   -0.7500   -2.7990    0.0000 N   0  0  0  0  0  0  0  0  0  0  0  0
    0.7500   -2.7990    0.0000 C   0  0  0  0  0  0  0  0  0  0  0  0
    0.7500   -1.2990    0.0000 C   0  0  0  0  0  0  0  0  0  0  0  0
    1.5000    0.0000    0.0000 C   0  0  0  0  0  0  0  0  0  0  0  0
    0.7500    1.2990    0.0000 C   0  0  0  0  0  0  0  0  0  0  0  0
   -0.7500    1.2990    0.0000 C   0  0  0  0  0  0  0  0  0  0  0  0
   -1.5000    2.5981    0.0000 C   0  0  0  0  0  0  0  0  0  0  0  0
   -0.7500    3.8971    0.0000 C   0  0  0  0  0  0  0  0  0  0  0  0
   -1.5000    5.1962    0.0000 C   0  0  0  0  0  0  0  0  0  0  0  0
   -3.0000    5.1962    0.0000 C   0  0  0  0  0  0  0  0  0  0  0  0
   -3.7500    3.8971    0.0000 C   0  0  0  0  0  0  0  0  0  0  0  0
   -3.0000    2.5981    0.0000 C   0  0  0  0  0  0  0  0  0  0  0  0
   -1.5000    0.0000    0.0000 C   0  0  0  0  0  0  0  0  0  0  0  0
   -0.7500   -1.2990    0.0000 C   0  0  0  0  0  0  0  0  0  0  0  0
  1  2  1  0
  2  3  2  3
  3  4  1  0
  4  5  1  0
  5  6  1  0
  6  7  2  0
  7  8  1  0
  8  9  2  0
  9 10  1  0
 10 11  2  0
 11 12  1  0
 12 13  2  0
 13 14  1  0
 14 15  2  0
  9 16  1  0
 16 17  2  0
 17  4  1  0
 17  6  1  0
 15 10  1  0
M  END
>  <Title>  (537) 
idAASSgen13

$$$$

     RDKit          2D

 49 55  0  0  0  0  0  0  0  0999 V2000
   -6.4469   -8.2890    0.0000 C   0  0  0  0  0  0  0  0  0  0  0  0
   -5.0425   -8.8161    0.0000 C   0  0  0  0  0  0  0  0  0  0  0  0
   -4.9081  -10.3100    0.0000 C   0  0  0  0  0  0  0  0  0  0  0  0
   -3.6562  -11.1364    0.0000 C   0  0  0  0  0  0  0  0  0  0  0  0
   -2.2296  -10.6729    0.0000 C   0  0  0  0  0  0  0  0  0  0  0  0
   -1.7025   -9.2685    0.0000 C   0  0  0  0  0  0  0  0  0  0  0  0
   -2.4719   -7.9808    0.0000 C   0  0  0  0  0  0  0  0  0  0  0  0
   -3.9583   -7.7795    0.0000 C   0  0  0  0  0  0  0  0  0  0  0  0
   -4.4218   -6.3529    0.0000 C   0  0  0  0  0  0  0  0  0  0  0  0
   -5.8891   -6.0410    0.0000 O   0  0  0  0  0  0  0  0  0  0  0  0
   -3.4182   -5.2382    0.0000 N   0  0  0  0  0  0  0  0  0  0  0  0
   -3.8817   -3.8116    0.0000 C   0  0  0  0  0  0  0  0  0  0  0  0
   -5.3083   -3.3481    0.0000 N   0  0  0  0  0  0  0  0  0  0  0  0
   -5.3083   -1.8481    0.0000 N   0  0  0  0  0  0  0  0  0  0  0  0
   -3.8817   -1.3846    0.0000 N   0  0  0  0  0  0  0  0  0  0  0  0
   -3.0000   -2.5981    0.0000 N   0  0  0  0  0  0  0  0  0  0  0  0
   -1.5000   -2.5981    0.0000 C   0  0  0  0  0  0  0  0  0  0  0  0
   -0.7500   -3.8971    0.0000 C   0  0  0  0  0  0  0  0  0  0  0  0
    0.7500   -3.8971    0.0000 C   0  0  0  0  0  0  0  0  0  0  0  0
    1.5000   -2.5981    0.0000 C   0  0  0  0  0  0  0  0  0  0  0  0
    3.0000   -2.5981    0.0000 C   0  0  0  0  0  0  0  0  0  0  0  0
    3.7500   -1.2990    0.0000 O   0  0  0  0  0  0  0  0  0  0  0  0
    3.7500   -3.8971    0.0000 N   0  0  0  0  0  0  0  0  0  0  0  0
    5.2500   -3.8971    0.0000 C   0  0  0  0  0  0  0  0  0  0  0  0
    6.1317   -2.6836    0.0000 N   0  0  0  0  0  0  0  0  0  0  0  0
    7.5583   -3.1471    0.0000 N   0  0  0  0  0  0  0  0  0  0  0  0
    7.5583   -4.6471    0.0000 N   0  0  0  0  0  0  0  0  0  0  0  0
    6.1317   -5.1106    0.0000 N   0  0  0  0  0  0  0  0  0  0  0  0
    5.6682   -6.5372    0.0000 N   0  0  0  0  0  0  0  0  0  0  0  0
    6.5498   -7.7508    0.0000 C   0  0  0  0  0  0  0  0  0  0  0  0
    5.6682   -8.9643    0.0000 C   0  0  0  0  0  0  0  0  0  0  0  0
    4.2416   -8.5008    0.0000 C   0  0  0  0  0  0  0  0  0  0  0  0
    3.0280   -9.3824    0.0000 C   0  0  0  0  0  0  0  0  0  0  0  0
    1.6577   -8.7723    0.0000 O   0  0  0  0  0  0  0  0  0  0  0  0
    3.1848  -10.8742    0.0000 N   0  0  0  0  0  0  0  0  0  0  0  0
    4.5552  -11.4843    0.0000 C   0  0  0  0  0  0  0  0  0  0  0  0
    5.7687  -10.6026    0.0000 N   0  0  0  0  0  0  0  0  0  0  0  0
    7.1390  -11.2127    0.0000 N   0  0  0  0  0  0  0  0  0  0  0  0
    7.2958  -12.7045    0.0000 N   0  0  0  0  0  0  0  0  0  0  0  0
    6.0823  -13.5862    0.0000 N   0  0  0  0  0  0  0  0  0  0  0  0
    4.7119  -12.9761    0.0000 N   0  0  0  0  0  0  0  0  0  0  0  0
    4.2416   -7.0008    0.0000 C   0  0  0  0  0  0  0  0  0  0  0  0
    3.0280   -6.1191    0.0000 O   0  0  0  0  0  0  0  0  0  0  0  0
    0.7500   -1.2990    0.0000 C   0  0  0  0  0  0  0  0  0  0  0  0
    1.5000    0.0000    0.0000 C   0  0  0  0  0  0  0  0  0  0  0  0
    0.7500    1.2990    0.0000 C   0  0  0  0  0  0  0  0  0  0  0  0
   -0.7500    1.2990    0.0000 C   0  0  0  0  0  0  0  0  0  0  0  0
   -1.5000    0.0000    0.0000 C   0  0  0  0  0  0  0  0  0  0  0  0
   -0.7500   -1.2990    0.0000 C   0  0  0  0  0  0  0  0  0  0  0  0
  1  2  1  0
  2  3  1  0
  3  4  1  0
  4  5  1  0
  5  6  1  0
  6  7  1  0
  7  8  1  0
  8  9  1  0
  9 10  2  0
  9 11  1  0
 11 12  1  0
 12 13  2  0
 13 14  1  0
 14 15  2  0
 15 16  1  0
 16 17  1  0
 17 18  2  0
 18 19  1  0
 19 20  2  0
 20 21  1  0
 21 22  2  0
 21 23  1  0
 23 24  1  0
 24 25  2  0
 25 26  1  0
 26 27  2  0
 27 28  1  0
 28 29  1  0
 29 30  1  0
 30 31  1  0
 31 32  2  0
 32 33  1  0
 33 34  2  0
 33 35  1  0
 35 36  1  0
 36 37  2  0
 37 38  1  0
 38 39  2  0
 39 40  1  0
 40 41  2  0
 32 42  1  0
 42 43  2  0
 20 44  1  0
 44 45  2  0
 45 46  1  0
 46 47  2  0
 47 48  1  0
 48 49  2  0
  8  2  1  0
 16 12  1  0
 49 17  1  0
 28 24  1  0
 42 29  1  0
 49 44  1  0
 41 36  1  0
M  END
>  <Title>  (538) 
idAASTgen13

$$$$

     RDKit          2D

  9  8  0  0  0  0  0  0  0  0999 V2000
    0.0000    0.0000    0.0000 C   0  0  0  0  0  0  0  0  0  0  0  0
    1.2990    0.7500    0.0000 C   0  0  0  0  0  0  0  0  0  0  0  0
    2.5981   -0.0000    0.0000 C   0  0  0  0  0  0  0  0  0  0  0  0
    3.8971    0.7500    0.0000 N   0  0  0  0  0  0  0  0  0  0  0  0
    5.1962   -0.0000    0.0000 C   0  0  0  0  0  0  0  0  0  0  0  0
    5.1962   -1.5000    0.0000 O   0  0  0  0  0  0  0  0  0  0  0  0
    6.4952    0.7500    0.0000 C   0  0  0  0  0  0  0  0  0  0  0  0
    7.7942   -0.0000    0.0000 C   0  0  0  0  0  0  0  0  0  0  0  0
    9.0933    0.7500    0.0000 C   0  0  0  0  0  0  0  0  0  0  0  0
  1  2  1  0
  2  3  1  0
  3  4  1  0
  4  5  1  0
  5  6  2  0
  5  7  1  0
  7  8  1  0
  8  9  1  0
M  END
>  <Title>  (539) 
idAASUgen13

$$$$

     RDKit          2D

  9  8  0  0  0  0  0  0  0  0999 V2000
    0.0000    0.0000    0.0000 C   0  0  0  0  0  0  0  0  0  0  0  0
    1.2990    0.7500    0.0000 C   0  0  0  0  0  0  0  0  0  0  0  0
    2.5981   -0.0000    0.0000 C   0  0  0  0  0  0  0  0  0  0  0  0
    3.8971    0.7500    0.0000 N   0  0  0  0  0  0  0  0  0  0  0  0
    5.1962   -0.0000    0.0000 C   0  0  0  0  0  0  0  0  0  0  0  0
    5.1962   -1.5000    0.0000 O   0  0  0  0  0  0  0  0  0  0  0  0
    6.4952    0.7500    0.0000 C   0  0  0  0  0  0  0  0  0  0  0  0
    7.7942   -0.0000    0.0000 C   0  0  0  0  0  0  0  0  0  0  0  0
    9.0933    0.7500    0.0000 C   0  0  0  0  0  0  0  0  0  0  0  0
  1  2  1  0
  2  3  2  3
  3  4  1  0
  4  5  1  0
  5  6  2  0
  5  7  1  0
  7  8  1  0
  8  9  1  0
M  END
>  <Title>  (540) 
idAASVgen13

$$$$

     RDKit          2D

 37 41  0  0  0  0  0  0  0  0999 V2000
   -3.1981   -1.5132    0.0000 C   0  0  0  0  0  0  0  0  0  0  0  0
   -1.8991   -2.2632    0.0000 C   0  0  0  0  0  0  0  0  0  0  0  0
   -2.1595   -3.7404    0.0000 C   0  0  0  0  0  0  0  0  0  0  0  0
   -1.4095   -5.0395    0.0000 C   0  0  0  0  0  0  0  0  0  0  0  0
   -0.0000   -5.5525    0.0000 C   0  0  0  0  0  0  0  0  0  0  0  0
    1.4095   -5.0395    0.0000 C   0  0  0  0  0  0  0  0  0  0  0  0
    2.1595   -3.7404    0.0000 C   0  0  0  0  0  0  0  0  0  0  0  0
    1.8991   -2.2632    0.0000 C   0  0  0  0  0  0  0  0  0  0  0  0
    3.1981   -1.5132    0.0000 C   0  0  0  0  0  0  0  0  0  0  0  0
    3.1981   -0.0132    0.0000 O   0  0  0  0  0  0  0  0  0  0  0  0
    4.4971   -2.2632    0.0000 N   0  0  0  0  0  0  0  0  0  0  0  0
    5.7962   -1.5132    0.0000 C   0  0  0  0  0  0  0  0  0  0  0  0
    5.9530   -0.0214    0.0000 N   0  0  0  0  0  0  0  0  0  0  0  0
    7.4202    0.2904    0.0000 N   0  0  0  0  0  0  0  0  0  0  0  0
    8.1702   -1.0086    0.0000 N   0  0  0  0  0  0  0  0  0  0  0  0
    7.1665   -2.1233    0.0000 N   0  0  0  0  0  0  0  0  0  0  0  0
    7.4784   -3.5905    0.0000 N   0  0  0  0  0  0  0  0  0  0  0  0
    8.8487   -4.2007    0.0000 C   0  0  0  0  0  0  0  0  0  0  0  0
    8.6919   -5.6924    0.0000 C   0  0  0  0  0  0  0  0  0  0  0  0
    7.2247   -6.0043    0.0000 N   0  0  0  0  0  0  0  0  0  0  0  0
    6.6146   -7.3746    0.0000 C   0  0  0  0  0  0  0  0  0  0  0  0
    7.4962   -8.5881    0.0000 O   0  0  0  0  0  0  0  0  0  0  0  0
    5.1228   -7.5314    0.0000 N   0  0  0  0  0  0  0  0  0  0  0  0
    4.5127   -8.9017    0.0000 C   0  0  0  0  0  0  0  0  0  0  0  0
    3.0209   -9.0585    0.0000 N   0  0  0  0  0  0  0  0  0  0  0  0
    2.4108  -10.4288    0.0000 N   0  0  0  0  0  0  0  0  0  0  0  0
    3.2925  -11.6424    0.0000 N   0  0  0  0  0  0  0  0  0  0  0  0
    4.7843  -11.4856    0.0000 N   0  0  0  0  0  0  0  0  0  0  0  0
    5.3944  -10.1153    0.0000 N   0  0  0  0  0  0  0  0  0  0  0  0
    6.4747   -4.7053    0.0000 C   0  0  0  0  0  0  0  0  0  0  0  0
    4.9829   -4.5485    0.0000 O   0  0  0  0  0  0  0  0  0  0  0  0
    0.7500   -1.2990    0.0000 C   0  0  0  0  0  0  0  0  0  0  0  0
    1.5000    0.0000    0.0000 C   0  0  0  0  0  0  0  0  0  0  0  0
    0.7500    1.2990    0.0000 C   0  0  0  0  0  0  0  0  0  0  0  0
   -0.7500    1.2990    0.0000 C   0  0  0  0  0  0  0  0  0  0  0  0
   -1.5000    0.0000    0.0000 C   0  0  0  0  0  0  0  0  0  0  0  0
   -0.7500   -1.2990    0.0000 C   0  0  0  0  0  0  0  0  0  0  0  0
  1  2  1  0
  2  3  1  0
  3  4  1  0
  4  5  1  0
  5  6  1  0
  6  7  1  0
  7  8  1  0
  8  9  1  0
  9 10  2  0
  9 11  1  0
 11 12  1  0
 12 13  2  0
 13 14  1  0
 14 15  2  0
 15 16  1  0
 16 17  1  0
 17 18  1  0
 18 19  1  0
 19 20  1  0
 20 21  1  0
 21 22  2  0
 21 23  1  0
 23 24  1  0
 24 25  2  0
 25 26  1  0
 26 27  2  0
 27 28  1  0
 28 29  2  0
 20 30  1  0
 30 31  2  0
  8 32  1  0
 32 33  2  0
 33 34  1  0
 34 35  2  0
 35 36  1  0
 36 37  2  0
 37  2  1  0
 16 12  1  0
 30 17  1  0
 37 32  1  0
 29 24  1  0
M  END
>  <Title>  (541) 
idAASWgen13

$$$$

     RDKit          2D

 36 40  0  0  0  0  0  0  0  0999 V2000
   -3.1476   -2.1380    0.0000 C   0  0  0  0  0  0  0  0  0  0  0  0
   -1.6852   -2.4718    0.0000 C   0  0  0  0  0  0  0  0  0  0  0  0
   -1.3515   -3.9342    0.0000 C   0  0  0  0  0  0  0  0  0  0  0  0
   -0.0000   -4.5850    0.0000 C   0  0  0  0  0  0  0  0  0  0  0  0
   -0.0000   -6.0850    0.0000 C   0  0  0  0  0  0  0  0  0  0  0  0
    1.2990   -6.8350    0.0000 O   0  0  0  0  0  0  0  0  0  0  0  0
   -1.2990   -6.8350    0.0000 N   0  0  0  0  0  0  0  0  0  0  0  0
   -1.2990   -8.3350    0.0000 C   0  0  0  0  0  0  0  0  0  0  0  0
   -0.0855   -9.2167    0.0000 N   0  0  0  0  0  0  0  0  0  0  0  0
   -0.5490  -10.6433    0.0000 N   0  0  0  0  0  0  0  0  0  0  0  0
   -2.0490  -10.6433    0.0000 N   0  0  0  0  0  0  0  0  0  0  0  0
   -2.5126   -9.2167    0.0000 N   0  0  0  0  0  0  0  0  0  0  0  0
   -3.9391   -8.7532    0.0000 N   0  0  0  0  0  0  0  0  0  0  0  0
   -5.1527   -9.6348    0.0000 C   0  0  0  0  0  0  0  0  0  0  0  0
   -6.3662   -8.7532    0.0000 C   0  0  0  0  0  0  0  0  0  0  0  0
   -5.9027   -7.3266    0.0000 N   0  0  0  0  0  0  0  0  0  0  0  0
   -6.7844   -6.1130    0.0000 C   0  0  0  0  0  0  0  0  0  0  0  0
   -8.2761   -6.2698    0.0000 O   0  0  0  0  0  0  0  0  0  0  0  0
   -6.1742   -4.7427    0.0000 N   0  0  0  0  0  0  0  0  0  0  0  0
   -7.0559   -3.5292    0.0000 C   0  0  0  0  0  0  0  0  0  0  0  0
   -6.4458   -2.1589    0.0000 N   0  0  0  0  0  0  0  0  0  0  0  0
   -7.3275   -0.9454    0.0000 N   0  0  0  0  0  0  0  0  0  0  0  0
   -8.8193   -1.1022    0.0000 N   0  0  0  0  0  0  0  0  0  0  0  0
   -9.4294   -2.4725    0.0000 N   0  0  0  0  0  0  0  0  0  0  0  0
   -8.5477   -3.6860    0.0000 N   0  0  0  0  0  0  0  0  0  0  0  0
   -4.4027   -7.3266    0.0000 C   0  0  0  0  0  0  0  0  0  0  0  0
   -3.5210   -6.1130    0.0000 O   0  0  0  0  0  0  0  0  0  0  0  0
    1.3515   -3.9342    0.0000 C   0  0  0  0  0  0  0  0  0  0  0  0
    2.5242   -4.8694    0.0000 O   0  0  0  0  0  0  0  0  0  0  0  0
    1.6852   -2.4718    0.0000 N   0  0  0  0  0  0  0  0  0  0  0  0
    0.7500   -1.2990    0.0000 C   0  0  0  0  0  0  0  0  0  0  0  0
    1.5000    0.0000    0.0000 C   0  0  0  0  0  0  0  0  0  0  0  0
    0.7500    1.2990    0.0000 C   0  0  0  0  0  0  0  0  0  0  0  0
   -0.7500    1.2990    0.0000 C   0  0  0  0  0  0  0  0  0  0  0  0
   -1.5000    0.0000    0.0000 C   0  0  0  0  0  0  0  0  0  0  0  0
   -0.7500   -1.2990    0.0000 C   0  0  0  0  0  0  0  0  0  0  0  0
  1  2  1  0
  2  3  1  0
  3  4  2  0
  4  5  1  0
  5  6  2  0
  5  7  1  0
  7  8  1  0
  8  9  2  0
  9 10  1  0
 10 11  2  0
 11 12  1  0
 12 13  1  0
 13 14  1  0
 14 15  1  0
 15 16  1  0
 16 17  1  0
 17 18  2  0
 17 19  1  0
 19 20  1  0
 20 21  2  0
 21 22  1  0
 22 23  2  0
 23 24  1  0
 24 25  2  0
 16 26  1  0
 26 27  2  0
  4 28  1  0
 28 29  2  0
 28 30  1  0
 30 31  1  0
 31 32  2  0
 32 33  1  0
 33 34  2  0
 34 35  1  0
 35 36  2  0
 36  2  1  0
 12  8  1  0
 26 13  1  0
 36 31  1  0
 25 20  1  0
M  END
>  <Title>  (542) 
idAASXgen13

$$$$

     RDKit          2D

 10  9  0  0  0  0  0  0  0  0999 V2000
    0.0000    0.0000    0.0000 C   0  0  0  0  0  0  0  0  0  0  0  0
    1.2990    0.7500    0.0000 C   0  0  0  0  0  0  0  0  0  0  0  0
    2.5981   -0.0000    0.0000 C   0  0  0  0  0  0  0  0  0  0  0  0
    3.8971    0.7500    0.0000 C   0  0  0  0  0  0  0  0  0  0  0  0
    5.1962   -0.0000    0.0000 N   0  0  0  0  0  0  0  0  0  0  0  0
    6.4952    0.7500    0.0000 C   0  0  0  0  0  0  0  0  0  0  0  0
    6.4952    2.2500    0.0000 O   0  0  0  0  0  0  0  0  0  0  0  0
    7.7942   -0.0000    0.0000 C   0  0  0  0  0  0  0  0  0  0  0  0
    9.0933    0.7500    0.0000 C   0  0  0  0  0  0  0  0  0  0  0  0
   10.3923   -0.0000    0.0000 C   0  0  0  0  0  0  0  0  0  0  0  0
  1  2  2  0
  2  3  1  0
  3  4  1  0
  4  5  1  0
  5  6  1  0
  6  7  2  0
  6  8  1  0
  8  9  1  0
  9 10  1  0
M  END
>  <Title>  (543) 
idAASYgen13

$$$$

     RDKit          2D

 15 16  0  0  0  0  0  0  0  0999 V2000
    5.7760    2.5981    0.0000 C   0  0  0  0  0  0  0  0  0  0  0  0
    5.0260    1.2990    0.0000 O   0  0  0  0  0  0  0  0  0  0  0  0
    3.5260    1.2990    0.0000 C   0  0  0  0  0  0  0  0  0  0  0  0
    2.7760    2.5981    0.0000 O   0  0  0  0  0  0  0  0  0  0  0  0
    2.7760    0.0000    0.0000 N   0  0  0  0  0  0  0  0  0  0  0  0
    1.2760    0.0000    0.0000 C   0  0  0  0  0  0  0  0  0  0  0  0
    0.3943    1.2135    0.0000 N   0  0  0  0  0  0  0  0  0  0  0  0
   -1.0323    0.7500    0.0000 N   0  0  0  0  0  0  0  0  0  0  0  0
   -1.0323   -0.7500    0.0000 N   0  0  0  0  0  0  0  0  0  0  0  0
    0.3943   -1.2135    0.0000 N   0  0  0  0  0  0  0  0  0  0  0  0
    0.8578   -2.6401    0.0000 C   0  0  0  0  0  0  0  0  0  0  0  0
   -0.0239   -3.8536    0.0000 C   0  0  0  0  0  0  0  0  0  0  0  0
    0.8578   -5.0672    0.0000 C   0  0  0  0  0  0  0  0  0  0  0  0
    2.2844   -4.6036    0.0000 C   0  0  0  0  0  0  0  0  0  0  0  0
    2.2844   -3.1036    0.0000 C   0  0  0  0  0  0  0  0  0  0  0  0
  1  2  1  0
  2  3  1  0
  3  4  2  0
  3  5  1  0
  5  6  1  0
  6  7  2  0
  7  8  1  0
  8  9  2  0
  9 10  1  0
 10 11  1  0
 11 12  2  0
 12 13  1  0
 13 14  2  0
 14 15  1  0
 10  6  1  0
 15 11  1  0
M  END
>  <Title>  (544) 
idAASZgen13

$$$$

     RDKit          2D

 35 39  0  0  0  0  0  0  0  0999 V2000
   -3.1476   -2.1380    0.0000 C   0  0  0  0  0  0  0  0  0  0  0  0
   -1.6852   -2.4718    0.0000 C   0  0  0  0  0  0  0  0  0  0  0  0
   -1.3515   -3.9342    0.0000 C   0  0  0  0  0  0  0  0  0  0  0  0
   -0.0000   -4.5850    0.0000 C   0  0  0  0  0  0  0  0  0  0  0  0
    1.3515   -3.9342    0.0000 C   0  0  0  0  0  0  0  0  0  0  0  0
    1.6852   -2.4718    0.0000 C   0  0  0  0  0  0  0  0  0  0  0  0
    3.1476   -2.1380    0.0000 C   0  0  0  0  0  0  0  0  0  0  0  0
    3.5898   -0.7046    0.0000 O   0  0  0  0  0  0  0  0  0  0  0  0
    4.1679   -3.2376    0.0000 N   0  0  0  0  0  0  0  0  0  0  0  0
    5.6303   -2.9038    0.0000 C   0  0  0  0  0  0  0  0  0  0  0  0
    6.2198   -1.5245    0.0000 N   0  0  0  0  0  0  0  0  0  0  0  0
    7.7138   -1.6590    0.0000 N   0  0  0  0  0  0  0  0  0  0  0  0
    8.0476   -3.1214    0.0000 N   0  0  0  0  0  0  0  0  0  0  0  0
    6.7599   -3.8907    0.0000 N   0  0  0  0  0  0  0  0  0  0  0  0
    6.6254   -5.3847    0.0000 N   0  0  0  0  0  0  0  0  0  0  0  0
    7.7550   -6.3716    0.0000 C   0  0  0  0  0  0  0  0  0  0  0  0
    7.1655   -7.7509    0.0000 C   0  0  0  0  0  0  0  0  0  0  0  0
    5.6715   -7.6164    0.0000 N   0  0  0  0  0  0  0  0  0  0  0  0
    4.6846   -8.7460    0.0000 C   0  0  0  0  0  0  0  0  0  0  0  0
    5.1694  -10.1655    0.0000 O   0  0  0  0  0  0  0  0  0  0  0  0
    3.2129   -8.4561    0.0000 N   0  0  0  0  0  0  0  0  0  0  0  0
    2.2260   -9.5857    0.0000 C   0  0  0  0  0  0  0  0  0  0  0  0
    0.7543   -9.2959    0.0000 N   0  0  0  0  0  0  0  0  0  0  0  0
   -0.2326  -10.4255    0.0000 N   0  0  0  0  0  0  0  0  0  0  0  0
    0.2522  -11.8450    0.0000 N   0  0  0  0  0  0  0  0  0  0  0  0
    1.7239  -12.1348    0.0000 N   0  0  0  0  0  0  0  0  0  0  0  0
    2.7108  -11.0052    0.0000 N   0  0  0  0  0  0  0  0  0  0  0  0
    5.3378   -6.1540    0.0000 C   0  0  0  0  0  0  0  0  0  0  0  0
    3.9585   -5.5645    0.0000 O   0  0  0  0  0  0  0  0  0  0  0  0
    0.7500   -1.2990    0.0000 C   0  0  0  0  0  0  0  0  0  0  0  0
    1.5000    0.0000    0.0000 C   0  0  0  0  0  0  0  0  0  0  0  0
    0.7500    1.2990    0.0000 C   0  0  0  0  0  0  0  0  0  0  0  0
   -0.7500    1.2990    0.0000 C   0  0  0  0  0  0  0  0  0  0  0  0
   -1.5000    0.0000    0.0000 C   0  0  0  0  0  0  0  0  0  0  0  0
   -0.7500   -1.2990    0.0000 C   0  0  0  0  0  0  0  0  0  0  0  0
  1  2  1  0
  2  3  2  0
  3  4  1  0
  4  5  1  0
  5  6  2  0
  6  7  1  0
  7  8  2  0
  7  9  1  0
  9 10  1  0
 10 11  2  0
 11 12  1  0
 12 13  2  0
 13 14  1  0
 14 15  1  0
 15 16  1  0
 16 17  1  0
 17 18  1  0
 18 19  1  0
 19 20  2  0
 19 21  1  0
 21 22  1  0
 22 23  2  0
 23 24  1  0
 24 25  2  0
 25 26  1  0
 26 27  2  0
 18 28  1  0
 28 29  2  0
  6 30  1  0
 30 31  2  0
 31 32  1  0
 32 33  2  0
 33 34  1  0
 34 35  2  0
 35  2  1  0
 14 10  1  0
 28 15  1  0
 35 30  1  0
 27 22  1  0
M  END
>  <Title>  (545) 
idAATAgen13

$$$$

     RDKit          2D

 14 15  0  0  0  0  0  0  0  0999 V2000
    5.7760   -2.5981    0.0000 C   0  0  0  0  0  0  0  0  0  0  0  0
    5.0260   -1.2990    0.0000 C   0  0  0  0  0  0  0  0  0  0  0  0
    3.5260   -1.2990    0.0000 C   0  0  0  0  0  0  0  0  0  0  0  0
    2.7760    0.0000    0.0000 N   0  0  0  0  0  0  0  0  0  0  0  0
    1.2760    0.0000    0.0000 C   0  0  0  0  0  0  0  0  0  0  0  0
    0.3943    1.2135    0.0000 N   0  0  0  0  0  0  0  0  0  0  0  0
   -1.0323    0.7500    0.0000 N   0  0  0  0  0  0  0  0  0  0  0  0
   -1.0323   -0.7500    0.0000 N   0  0  0  0  0  0  0  0  0  0  0  0
    0.3943   -1.2135    0.0000 N   0  0  0  0  0  0  0  0  0  0  0  0
    0.8578   -2.6401    0.0000 C   0  0  0  0  0  0  0  0  0  0  0  0
    2.2844   -3.1036    0.0000 C   0  0  0  0  0  0  0  0  0  0  0  0
    2.2844   -4.6036    0.0000 C   0  0  0  0  0  0  0  0  0  0  0  0
    0.8578   -5.0672    0.0000 C   0  0  0  0  0  0  0  0  0  0  0  0
   -0.0239   -3.8536    0.0000 C   0  0  0  0  0  0  0  0  0  0  0  0
  1  2  1  0
  2  3  1  0
  3  4  1  0
  4  5  1  0
  5  6  2  0
  6  7  1  0
  7  8  2  0
  8  9  1  0
  9 10  1  0
 10 11  2  0
 11 12  1  0
 12 13  2  0
 13 14  1  0
  9  5  1  0
 14 10  1  0
M  END
>  <Title>  (546) 
idAATBgen13

$$$$

     RDKit          2D

 39 43  0  0  0  0  0  0  0  0999 V2000
   -3.7860   -5.5823    0.0000 C   0  0  0  0  0  0  0  0  0  0  0  0
   -2.4215   -4.9592    0.0000 C   0  0  0  0  0  0  0  0  0  0  0  0
   -1.4392   -6.0928    0.0000 C   0  0  0  0  0  0  0  0  0  0  0  0
   -0.0000   -6.5154    0.0000 C   0  0  0  0  0  0  0  0  0  0  0  0
    1.4392   -6.0928    0.0000 C   0  0  0  0  0  0  0  0  0  0  0  0
    2.4215   -4.9592    0.0000 C   0  0  0  0  0  0  0  0  0  0  0  0
    2.6350   -3.4744    0.0000 C   0  0  0  0  0  0  0  0  0  0  0  0
    2.0119   -2.1100    0.0000 C   0  0  0  0  0  0  0  0  0  0  0  0
    3.1455   -1.1277    0.0000 C   0  0  0  0  0  0  0  0  0  0  0  0
    4.5630   -1.6183    0.0000 N   0  0  0  0  0  0  0  0  0  0  0  0
    5.6966   -0.6360    0.0000 C   0  0  0  0  0  0  0  0  0  0  0  0
    5.4128    0.8369    0.0000 O   0  0  0  0  0  0  0  0  0  0  0  0
    7.1141   -1.1266    0.0000 N   0  0  0  0  0  0  0  0  0  0  0  0
    8.3442   -0.2682    0.0000 C   0  0  0  0  0  0  0  0  0  0  0  0
    9.5407   -1.1728    0.0000 C   0  0  0  0  0  0  0  0  0  0  0  0
    9.0501   -2.5903    0.0000 C   0  0  0  0  0  0  0  0  0  0  0  0
    9.9086   -3.8204    0.0000 C   0  0  0  0  0  0  0  0  0  0  0  0
   11.4031   -3.6921    0.0000 O   0  0  0  0  0  0  0  0  0  0  0  0
    9.2725   -5.1789    0.0000 N   0  0  0  0  0  0  0  0  0  0  0  0
   10.1309   -6.4090    0.0000 C   0  0  0  0  0  0  0  0  0  0  0  0
    9.4948   -7.7674    0.0000 N   0  0  0  0  0  0  0  0  0  0  0  0
   10.3532   -8.9975    0.0000 N   0  0  0  0  0  0  0  0  0  0  0  0
   11.8477   -8.8692    0.0000 N   0  0  0  0  0  0  0  0  0  0  0  0
   12.4838   -7.5107    0.0000 N   0  0  0  0  0  0  0  0  0  0  0  0
   11.6254   -6.2806    0.0000 N   0  0  0  0  0  0  0  0  0  0  0  0
    7.5504   -2.5618    0.0000 C   0  0  0  0  0  0  0  0  0  0  0  0
    6.6458   -3.7583    0.0000 O   0  0  0  0  0  0  0  0  0  0  0  0
    0.7500   -1.2990    0.0000 C   0  0  0  0  0  0  0  0  0  0  0  0
    1.5000    0.0000    0.0000 C   0  0  0  0  0  0  0  0  0  0  0  0
    0.7500    1.2990    0.0000 C   0  0  0  0  0  0  0  0  0  0  0  0
   -0.7500    1.2990    0.0000 C   0  0  0  0  0  0  0  0  0  0  0  0
   -1.5000    0.0000    0.0000 C   0  0  0  0  0  0  0  0  0  0  0  0
   -0.7500   -1.2990    0.0000 C   0  0  0  0  0  0  0  0  0  0  0  0
   -2.0119   -2.1100    0.0000 C   0  0  0  0  0  0  0  0  0  0  0  0
   -2.8820   -0.8881    0.0000 C   0  0  0  0  0  0  0  0  0  0  0  0
   -4.3752   -1.0307    0.0000 C   0  0  0  0  0  0  0  0  0  0  0  0
   -4.9983   -2.3952    0.0000 C   0  0  0  0  0  0  0  0  0  0  0  0
   -4.1282   -3.6170    0.0000 C   0  0  0  0  0  0  0  0  0  0  0  0
   -2.6350   -3.4744    0.0000 C   0  0  0  0  0  0  0  0  0  0  0  0
  1  2  1  0
  2  3  1  0
  3  4  2  0
  4  5  1  0
  5  6  1  0
  6  7  1  0
  7  8  1  0
  8  9  1  0
  9 10  1  0
 10 11  1  0
 11 12  2  0
 11 13  1  0
 13 14  1  0
 14 15  1  0
 15 16  1  0
 16 17  1  0
 17 18  2  0
 17 19  1  0
 19 20  1  0
 20 21  2  0
 21 22  1  0
 22 23  2  0
 23 24  1  0
 24 25  2  0
 16 26  1  0
 26 27  2  0
  8 28  1  0
 28 29  2  0
 29 30  1  0
 30 31  2  0
 31 32  1  0
 32 33  2  0
 33 34  1  0
 34 35  2  0
 35 36  1  0
 36 37  2  0
 37 38  1  0
 38 39  2  0
 39  2  1  0
 26 13  1  0
 33 28  1  0
 39 34  1  0
 25 20  1  0
M  END
>  <Title>  (547) 
idAATCgen13

$$$$

     RDKit          2D

  9  8  0  0  0  0  0  0  0  0999 V2000
    0.0000    0.0000    0.0000 C   0  0  0  0  0  0  0  0  0  0  0  0
    1.2990    0.7500    0.0000 C   0  0  0  0  0  0  0  0  0  0  0  0
    2.5981   -0.0000    0.0000 C   0  0  0  0  0  0  0  0  0  0  0  0
    3.8971    0.7500    0.0000 N   0  0  0  0  0  0  0  0  0  0  0  0
    5.1962   -0.0000    0.0000 C   0  0  0  0  0  0  0  0  0  0  0  0
    5.1962   -1.5000    0.0000 O   0  0  0  0  0  0  0  0  0  0  0  0
    6.4952    0.7500    0.0000 C   0  0  0  0  0  0  0  0  0  0  0  0
    7.7942   -0.0000    0.0000 C   0  0  0  0  0  0  0  0  0  0  0  0
    6.4952    2.2500    0.0000 C   0  0  0  0  0  0  0  0  0  0  0  0
  1  2  1  0
  2  3  2  3
  3  4  1  0
  4  5  1  0
  5  6  2  0
  5  7  1  0
  7  8  1  0
  7  9  1  0
M  END
>  <Title>  (548) 
idAATDgen13

$$$$

     RDKit          2D

  4  3  0  0  0  0  0  0  0  0999 V2000
    0.0000    0.0000    0.0000 C   0  0  0  0  0  0  0  0  0  0  0  0
    1.2990    0.7500    0.0000 C   0  0  0  0  0  0  0  0  0  0  0  0
    2.5981   -0.0000    0.0000 C   0  0  0  0  0  0  0  0  0  0  0  0
    3.8971    0.7500    0.0000 C   0  0  0  0  0  0  0  0  0  0  0  0
  1  2  1  0
  2  3  1  0
  3  4  1  0
M  END
>  <Title>  (549) 
idAATEgen13

$$$$

     RDKit          2D

 10 10  0  0  0  0  0  0  0  0999 V2000
    7.0607   -2.5981    0.0000 C   0  0  0  0  0  0  0  0  0  0  0  0
    5.5607   -2.5981    0.0000 C   0  0  0  0  0  0  0  0  0  0  0  0
    4.8107   -1.2990    0.0000 C   0  0  0  0  0  0  0  0  0  0  0  0
    3.3107   -1.2990    0.0000 C   0  0  0  0  0  0  0  0  0  0  0  0
    2.5607    0.0000    0.0000 C   0  0  0  0  0  0  0  0  0  0  0  0
    3.3107    1.2990    0.0000 O   0  0  0  0  0  0  0  0  0  0  0  0
    1.0607    0.0000    0.0000 N   0  0  0  0  0  0  0  0  0  0  0  0
   -0.0000   -1.0607    0.0000 C   0  0  0  0  0  0  0  0  0  0  0  0
   -1.0607    0.0000    0.0000 C   0  0  0  0  0  0  0  0  0  0  0  0
    0.0000    1.0607    0.0000 C   0  0  0  0  0  0  0  0  0  0  0  0
  1  2  2  0
  2  3  1  0
  3  4  1  0
  4  5  1  0
  5  6  2  0
  5  7  1  0
  7  8  1  0
  8  9  2  0
  9 10  1  0
 10  7  1  0
M  END
>  <Title>  (550) 
idAATFgen13

$$$$

     RDKit          2D

 80 79  0  0  0  0  0  0  0  0999 V2000
    0.0000    0.0000    0.0000 C   0  0  0  0  0  0  0  0  0  0  0  0
   -0.0000   -1.5000    0.0000 C   0  0  0  0  0  0  0  0  0  0  0  0
   -0.0000   -3.0000    0.0000 C   0  0  0  0  0  0  0  0  0  0  0  0
   -0.0000   -4.5000    0.0000 C   0  0  0  0  0  0  0  0  0  0  0  0
   -0.0000   -6.0000    0.0000 C   0  0  0  0  0  0  0  0  0  0  0  0
   -0.0000   -7.5000    0.0000 C   0  0  0  0  0  0  0  0  0  0  0  0
   -0.0000   -9.0000    0.0000 C   0  0  0  0  0  0  0  0  0  0  0  0
   -0.0000  -10.5000    0.0000 C   0  0  0  0  0  0  0  0  0  0  0  0
   -0.0000  -12.0000    0.0000 C   0  0  0  0  0  0  0  0  0  0  0  0
   -0.0000  -13.5000    0.0000 C   0  0  0  0  0  0  0  0  0  0  0  0
   -0.0000  -15.0000    0.0000 C   0  0  0  0  0  0  0  0  0  0  0  0
   -0.0000  -16.5000    0.0000 C   0  0  0  0  0  0  0  0  0  0  0  0
   -0.0000  -18.0000    0.0000 C   0  0  0  0  0  0  0  0  0  0  0  0
   -0.0000  -19.5000    0.0000 C   0  0  0  0  0  0  0  0  0  0  0  0
   -0.0000  -21.0000    0.0000 C   0  0  0  0  0  0  0  0  0  0  0  0
   -0.0000  -22.5000    0.0000 C   0  0  0  0  0  0  0  0  0  0  0  0
   -0.0000  -24.0000    0.0000 C   0  0  0  0  0  0  0  0  0  0  0  0
   -0.0000  -25.5000    0.0000 C   0  0  0  0  0  0  0  0  0  0  0  0
   -0.0000  -27.0000    0.0000 C   0  0  0  0  0  0  0  0  0  0  0  0
   -0.0000  -28.5000    0.0000 C   0  0  0  0  0  0  0  0  0  0  0  0
   -0.0000  -30.0000    0.0000 C   0  0  0  0  0  0  0  0  0  0  0  0
   -0.0000  -31.5000    0.0000 C   0  0  0  0  0  0  0  0  0  0  0  0
   -0.0000  -33.0000    0.0000 C   0  0  0  0  0  0  0  0  0  0  0  0
   -0.0000  -34.5000    0.0000 C   0  0  0  0  0  0  0  0  0  0  0  0
   -0.0000  -36.0000    0.0000 C   0  0  0  0  0  0  0  0  0  0  0  0
   -0.0000  -37.5000    0.0000 C   0  0  0  0  0  0  0  0  0  0  0  0
   -0.0000  -39.0000    0.0000 C   0  0  0  0  0  0  0  0  0  0  0  0
   -0.0000  -40.5000    0.0000 C   0  0  0  0  0  0  0  0  0  0  0  0
   -0.0000  -42.0000    0.0000 C   0  0  0  0  0  0  0  0  0  0  0  0
   -0.0000  -43.5000    0.0000 C   0  0  0  0  0  0  0  0  0  0  0  0
   -0.0000  -45.0000    0.0000 C   0  0  0  0  0  0  0  0  0  0  0  0
   -0.0000  -46.5000    0.0000 C   0  0  0  0  0  0  0  0  0  0  0  0
   -0.0000  -48.0000    0.0000 C   0  0  0  0  0  0  0  0  0  0  0  0
   -0.0000  -49.5000    0.0000 C   0  0  0  0  0  0  0  0  0  0  0  0
   -0.0000  -51.0000    0.0000 C   0  0  0  0  0  0  0  0  0  0  0  0
   -0.0000  -52.5000    0.0000 C   0  0  0  0  0  0  0  0  0  0  0  0
   -0.0000  -54.0000    0.0000 C   0  0  0  0  0  0  0  0  0  0  0  0
   -0.0000  -55.5000    0.0000 C   0  0  0  0  0  0  0  0  0  0  0  0
   -0.0000  -57.0000    0.0000 C   0  0  0  0  0  0  0  0  0  0  0  0
   -0.0000  -58.5000    0.0000 C   0  0  0  0  0  0  0  0  0  0  0  0
   -0.0000  -60.0000    0.0000 C   0  0  0  0  0  0  0  0  0  0  0  0
   -0.0000  -61.5000    0.0000 C   0  0  0  0  0  0  0  0  0  0  0  0
   -0.0000  -63.0000    0.0000 C   0  0  0  0  0  0  0  0  0  0  0  0
   -0.0000  -64.5000    0.0000 C   0  0  0  0  0  0  0  0  0  0  0  0
   -0.0000  -66.0000    0.0000 C   0  0  0  0  0  0  0  0  0  0  0  0
   -0.0000  -67.5000    0.0000 C   0  0  0  0  0  0  0  0  0  0  0  0
   -0.0000  -69.0000    0.0000 C   0  0  0  0  0  0  0  0  0  0  0  0
   -0.0000  -70.5000    0.0000 C   0  0  0  0  0  0  0  0  0  0  0  0
   -0.0000  -72.0000    0.0000 C   0  0  0  0  0  0  0  0  0  0  0  0
   -0.0000  -73.5000    0.0000 C   0  0  0  0  0  0  0  0  0  0  0  0
   -0.0000  -75.0000    0.0000 C   0  0  0  0  0  0  0  0  0  0  0  0
   -0.0000  -76.5000    0.0000 C   0  0  0  0  0  0  0  0  0  0  0  0
   -0.0000  -78.0000    0.0000 C   0  0  0  0  0  0  0  0  0  0  0  0
   -0.0000  -79.5000    0.0000 C   0  0  0  0  0  0  0  0  0  0  0  0
   -0.0000  -81.0000    0.0000 C   0  0  0  0  0  0  0  0  0  0  0  0
   -0.0000  -82.5000    0.0000 C   0  0  0  0  0  0  0  0  0  0  0  0
   -0.0000  -84.0000    0.0000 C   0  0  0  0  0  0  0  0  0  0  0  0
   -0.0000  -85.5000    0.0000 C   0  0  0  0  0  0  0  0  0  0  0  0
   -0.0000  -87.0000    0.0000 C   0  0  0  0  0  0  0  0  0  0  0  0
   -0.0000  -88.5000    0.0000 C   0  0  0  0  0  0  0  0  0  0  0  0
   -0.0000  -90.0000    0.0000 C   0  0  0  0  0  0  0  0  0  0  0  0
   -0.0000  -91.5000    0.0000 C   0  0  0  0  0  0  0  0  0  0  0  0
   -0.0000  -93.0000    0.0000 C   0  0  0  0  0  0  0  0  0  0  0  0
   -0.0000  -94.5000    0.0000 C   0  0  0  0  0  0  0  0  0  0  0  0
   -0.0000  -96.0000    0.0000 C   0  0  0  0  0  0  0  0  0  0  0  0
   -0.0000  -97.5000    0.0000 C   0  0  0  0  0  0  0  0  0  0  0  0
   -0.0000  -99.0000    0.0000 C   0  0  0  0  0  0  0  0  0  0  0  0
   -0.0000 -100.5000    0.0000 C   0  0  0  0  0  0  0  0  0  0  0  0
   -0.0000 -102.0000    0.0000 C   0  0  0  0  0  0  0  0  0  0  0  0
   -0.0000 -103.5000    0.0000 C   0  0  0  0  0  0  0  0  0  0  0  0
   -0.0000 -105.0000    0.0000 C   0  0  0  0  0  0  0  0  0  0  0  0
   -0.0000 -106.5000    0.0000 C   0  0  0  0  0  0  0  0  0  0  0  0
   -0.0000 -108.0000    0.0000 C   0  0  0  0  0  0  0  0  0  0  0  0
   -0.0000 -109.5000    0.0000 C   0  0  0  0  0  0  0  0  0  0  0  0
   -0.0000 -111.0000    0.0000 C   0  0  0  0  0  0  0  0  0  0  0  0
   -0.0000 -112.5000    0.0000 C   0  0  0  0  0  0  0  0  0  0  0  0
   -0.0000 -114.0000    0.0000 C   0  0  0  0  0  0  0  0  0  0  0  0
   -0.0000 -115.5000    0.0000 C   0  0  0  0  0  0  0  0  0  0  0  0
   -0.0000 -117.0000    0.0000 C   0  0  0  0  0  0  0  0  0  0  0  0
   -0.0000 -118.5000    0.0000 C   0  0  0  0  0  0  0  0  0  0  0  0
  1  2  3  0
  2  3  1  0
  3  4  3  0
  4  5  1  0
  5  6  3  0
  6  7  1  0
  7  8  3  0
  8  9  1  0
  9 10  3  0
 10 11  1  0
 11 12  3  0
 12 13  1  0
 13 14  3  0
 14 15  1  0
 15 16  3  0
 16 17  1  0
 17 18  3  0
 18 19  1  0
 19 20  3  0
 20 21  1  0
 21 22  3  0
 22 23  1  0
 23 24  3  0
 24 25  1  0
 25 26  3  0
 26 27  1  0
 27 28  3  0
 28 29  1  0
 29 30  3  0
 30 31  1  0
 31 32  3  0
 32 33  1  0
 33 34  3  0
 34 35  1  0
 35 36  3  0
 36 37  1  0
 37 38  3  0
 38 39  1  0
 39 40  3  0
 40 41  1  0
 41 42  3  0
 42 43  1  0
 43 44  3  0
 44 45  1  0
 45 46  3  0
 46 47  1  0
 47 48  3  0
 48 49  1  0
 49 50  3  0
 50 51  1  0
 51 52  3  0
 52 53  1  0
 53 54  3  0
 54 55  1  0
 55 56  3  0
 56 57  1  0
 57 58  3  0
 58 59  1  0
 59 60  3  0
 60 61  1  0
 61 62  3  0
 62 63  1  0
 63 64  3  0
 64 65  1  0
 65 66  3  0
 66 67  1  0
 67 68  3  0
 68 69  1  0
 69 70  3  0
 70 71  1  0
 71 72  3  0
 72 73  1  0
 73 74  3  0
 74 75  1  0
 75 76  3  0
 76 77  1  0
 77 78  3  0
 78 79  1  0
 79 80  3  0
M  END
>  <Title>  (551) 
idAATGgen13

$$$$

     RDKit          2D

 24 23  0  0  0  0  0  0  0  0999 V2000
    0.0000    0.0000    0.0000 C   0  0  0  0  0  0  0  0  0  0  0  0
   -0.0000   -1.5000    0.0000 C   0  0  0  0  0  0  0  0  0  0  0  0
   -0.0000   -3.0000    0.0000 C   0  0  0  0  0  0  0  0  0  0  0  0
   -0.0000   -4.5000    0.0000 C   0  0  0  0  0  0  0  0  0  0  0  0
   -0.0000   -6.0000    0.0000 C   0  0  0  0  0  0  0  0  0  0  0  0
   -0.0000   -7.5000    0.0000 C   0  0  0  0  0  0  0  0  0  0  0  0
   -0.0000   -9.0000    0.0000 C   0  0  0  0  0  0  0  0  0  0  0  0
   -0.0000  -10.5000    0.0000 C   0  0  0  0  0  0  0  0  0  0  0  0
   -0.0000  -12.0000    0.0000 C   0  0  0  0  0  0  0  0  0  0  0  0
   -0.0000  -13.5000    0.0000 C   0  0  0  0  0  0  0  0  0  0  0  0
   -0.0000  -15.0000    0.0000 C   0  0  0  0  0  0  0  0  0  0  0  0
   -0.0000  -16.5000    0.0000 C   0  0  0  0  0  0  0  0  0  0  0  0
   -0.0000  -18.0000    0.0000 C   0  0  0  0  0  0  0  0  0  0  0  0
   -0.0000  -19.5000    0.0000 C   0  0  0  0  0  0  0  0  0  0  0  0
   -0.0000  -21.0000    0.0000 C   0  0  0  0  0  0  0  0  0  0  0  0
   -0.0000  -22.5000    0.0000 C   0  0  0  0  0  0  0  0  0  0  0  0
   -0.0000  -24.0000    0.0000 C   0  0  0  0  0  0  0  0  0  0  0  0
   -0.0000  -25.5000    0.0000 C   0  0  0  0  0  0  0  0  0  0  0  0
   -0.0000  -27.0000    0.0000 C   0  0  0  0  0  0  0  0  0  0  0  0
   -0.0000  -28.5000    0.0000 C   0  0  0  0  0  0  0  0  0  0  0  0
   -0.0000  -30.0000    0.0000 C   0  0  0  0  0  0  0  0  0  0  0  0
   -0.0000  -31.5000    0.0000 C   0  0  0  0  0  0  0  0  0  0  0  0
   -0.0000  -33.0000    0.0000 C   0  0  0  0  0  0  0  0  0  0  0  0
   -0.0000  -34.5000    0.0000 C   0  0  0  0  0  0  0  0  0  0  0  0
  1  2  3  0
  2  3  1  0
  3  4  3  0
  4  5  1  0
  5  6  3  0
  6  7  1  0
  7  8  3  0
  8  9  1  0
  9 10  3  0
 10 11  1  0
 11 12  3  0
 12 13  1  0
 13 14  3  0
 14 15  1  0
 15 16  3  0
 16 17  1  0
 17 18  3  0
 18 19  1  0
 19 20  3  0
 20 21  1  0
 21 22  3  0
 22 23  1  0
 23 24  3  0
M  END
>  <Title>  (552) 
idAATHgen13

$$$$

     RDKit          2D

 98 99  0  0  0  0  0  0  0  0999 V2000
    6.7867    4.3210    0.0000 C   0  0  0  0  0  0  0  0  0  0  0  0
    7.5779    4.4180    0.0000 C   0  0  0  0  0  0  0  0  0  0  0  0
    7.4686    5.9140    0.0000 C   0  0  0  0  0  0  0  0  0  0  0  0
    7.5065    7.4135    0.0000 C   0  0  0  0  0  0  0  0  0  0  0  0
    7.6912    8.9021    0.0000 C   0  0  0  0  0  0  0  0  0  0  0  0
    8.0208   10.3654    0.0000 C   0  0  0  0  0  0  0  0  0  0  0  0
    8.4924   11.7894    0.0000 C   0  0  0  0  0  0  0  0  0  0  0  0
    9.1012   13.1603    0.0000 C   0  0  0  0  0  0  0  0  0  0  0  0
    9.8415   14.4649    0.0000 C   0  0  0  0  0  0  0  0  0  0  0  0
   10.7060   15.6907    0.0000 C   0  0  0  0  0  0  0  0  0  0  0  0
   11.6866   16.8258    0.0000 C   0  0  0  0  0  0  0  0  0  0  0  0
   12.7737   17.8594    0.0000 C   0  0  0  0  0  0  0  0  0  0  0  0
   13.9568   18.7814    0.0000 C   0  0  0  0  0  0  0  0  0  0  0  0
   15.2247   19.5830    0.0000 C   0  0  0  0  0  0  0  0  0  0  0  0
   16.5650   20.2565    0.0000 C   0  0  0  0  0  0  0  0  0  0  0  0
   17.9649   20.7953    0.0000 C   0  0  0  0  0  0  0  0  0  0  0  0
   19.4108   21.1944    0.0000 C   0  0  0  0  0  0  0  0  0  0  0  0
   20.8889   21.4498    0.0000 C   0  0  0  0  0  0  0  0  0  0  0  0
   22.3849   21.5591    0.0000 C   0  0  0  0  0  0  0  0  0  0  0  0
   23.8844   21.5212    0.0000 C   0  0  0  0  0  0  0  0  0  0  0  0
   25.3730   21.3366    0.0000 C   0  0  0  0  0  0  0  0  0  0  0  0
   26.8364   21.0069    0.0000 C   0  0  0  0  0  0  0  0  0  0  0  0
   28.2603   20.5354    0.0000 C   0  0  0  0  0  0  0  0  0  0  0  0
   29.6312   19.9265    0.0000 C   0  0  0  0  0  0  0  0  0  0  0  0
   30.9358   19.1863    0.0000 C   0  0  0  0  0  0  0  0  0  0  0  0
   32.1616   18.3217    0.0000 C   0  0  0  0  0  0  0  0  0  0  0  0
   33.2967   17.3411    0.0000 C   0  0  0  0  0  0  0  0  0  0  0  0
   34.3303   16.2540    0.0000 C   0  0  0  0  0  0  0  0  0  0  0  0
   35.2523   15.0709    0.0000 C   0  0  0  0  0  0  0  0  0  0  0  0
   36.0539   13.8030    0.0000 C   0  0  0  0  0  0  0  0  0  0  0  0
   36.7274   12.4627    0.0000 C   0  0  0  0  0  0  0  0  0  0  0  0
   37.2662   11.0629    0.0000 C   0  0  0  0  0  0  0  0  0  0  0  0
   37.6653    9.6169    0.0000 C   0  0  0  0  0  0  0  0  0  0  0  0
   37.9207    8.1388    0.0000 C   0  0  0  0  0  0  0  0  0  0  0  0
   38.0300    6.6428    0.0000 C   0  0  0  0  0  0  0  0  0  0  0  0
   37.9921    5.1433    0.0000 C   0  0  0  0  0  0  0  0  0  0  0  0
   37.8075    3.6547    0.0000 C   0  0  0  0  0  0  0  0  0  0  0  0
   37.4778    2.1914    0.0000 C   0  0  0  0  0  0  0  0  0  0  0  0
   37.0063    0.7674    0.0000 C   0  0  0  0  0  0  0  0  0  0  0  0
   36.3974   -0.6035    0.0000 C   0  0  0  0  0  0  0  0  0  0  0  0
   35.6572   -1.9081    0.0000 C   0  0  0  0  0  0  0  0  0  0  0  0
   34.7926   -3.1339    0.0000 C   0  0  0  0  0  0  0  0  0  0  0  0
   33.8120   -4.2690    0.0000 C   0  0  0  0  0  0  0  0  0  0  0  0
   32.7250   -5.3025    0.0000 C   0  0  0  0  0  0  0  0  0  0  0  0
   31.5418   -6.2246    0.0000 C   0  0  0  0  0  0  0  0  0  0  0  0
   30.2739   -7.0262    0.0000 C   0  0  0  0  0  0  0  0  0  0  0  0
   28.9336   -7.6996    0.0000 C   0  0  0  0  0  0  0  0  0  0  0  0
   27.5338   -8.2385    0.0000 C   0  0  0  0  0  0  0  0  0  0  0  0
   26.0878   -8.6376    0.0000 C   0  0  0  0  0  0  0  0  0  0  0  0
   24.6097   -8.8930    0.0000 C   0  0  0  0  0  0  0  0  0  0  0  0
   23.1137   -9.0023    0.0000 C   0  0  0  0  0  0  0  0  0  0  0  0
   21.6142   -8.9644    0.0000 C   0  0  0  0  0  0  0  0  0  0  0  0
   20.1256   -8.7797    0.0000 C   0  0  0  0  0  0  0  0  0  0  0  0
   18.6623   -8.4501    0.0000 C   0  0  0  0  0  0  0  0  0  0  0  0
   17.2383   -7.9785    0.0000 C   0  0  0  0  0  0  0  0  0  0  0  0
   15.8674   -7.3697    0.0000 C   0  0  0  0  0  0  0  0  0  0  0  0
   14.5628   -6.6294    0.0000 C   0  0  0  0  0  0  0  0  0  0  0  0
   13.3370   -5.7649    0.0000 C   0  0  0  0  0  0  0  0  0  0  0  0
   12.2019   -4.7843    0.0000 C   0  0  0  0  0  0  0  0  0  0  0  0
   11.1684   -3.6972    0.0000 C   0  0  0  0  0  0  0  0  0  0  0  0
   10.2464   -2.5141    0.0000 C   0  0  0  0  0  0  0  0  0  0  0  0
    9.4447   -1.2462    0.0000 C   0  0  0  0  0  0  0  0  0  0  0  0
    8.7713    0.0941    0.0000 C   0  0  0  0  0  0  0  0  0  0  0  0
    8.2324    1.4940    0.0000 C   0  0  0  0  0  0  0  0  0  0  0  0
    7.6669   -0.0000    0.0000 C   0  0  0  0  0  0  0  0  0  0  0  0
    7.5437   -1.3690    0.0000 C   0  0  0  0  0  0  0  0  0  0  0  0
    7.1780   -2.6939    0.0000 C   0  0  0  0  0  0  0  0  0  0  0  0
    6.5816   -3.9323    0.0000 C   0  0  0  0  0  0  0  0  0  0  0  0
    5.7737   -5.0443    0.0000 C   0  0  0  0  0  0  0  0  0  0  0  0
    4.7802   -5.9942    0.0000 C   0  0  0  0  0  0  0  0  0  0  0  0
    3.6331   -6.7514    0.0000 C   0  0  0  0  0  0  0  0  0  0  0  0
    2.3692   -7.2916    0.0000 C   0  0  0  0  0  0  0  0  0  0  0  0
    1.0291   -7.5975    0.0000 C   0  0  0  0  0  0  0  0  0  0  0  0
   -0.3440   -7.6591    0.0000 C   0  0  0  0  0  0  0  0  0  0  0  0
   -1.7060   -7.4746    0.0000 C   0  0  0  0  0  0  0  0  0  0  0  0
   -3.0133   -7.0499    0.0000 C   0  0  0  0  0  0  0  0  0  0  0  0
   -4.2237   -6.3986    0.0000 C   0  0  0  0  0  0  0  0  0  0  0  0
   -5.2983   -5.5416    0.0000 C   0  0  0  0  0  0  0  0  0  0  0  0
   -6.2026   -4.5065    0.0000 C   0  0  0  0  0  0  0  0  0  0  0  0
   -6.9076   -3.3265    0.0000 C   0  0  0  0  0  0  0  0  0  0  0  0
   -7.3906   -2.0397    0.0000 C   0  0  0  0  0  0  0  0  0  0  0  0
   -7.6360   -0.6873    0.0000 C   0  0  0  0  0  0  0  0  0  0  0  0
   -7.6360    0.6873    0.0000 C   0  0  0  0  0  0  0  0  0  0  0  0
   -7.3906    2.0397    0.0000 C   0  0  0  0  0  0  0  0  0  0  0  0
   -6.9076    3.3265    0.0000 C   0  0  0  0  0  0  0  0  0  0  0  0
   -6.2026    4.5065    0.0000 C   0  0  0  0  0  0  0  0  0  0  0  0
   -5.2983    5.5416    0.0000 C   0  0  0  0  0  0  0  0  0  0  0  0
   -4.2237    6.3986    0.0000 C   0  0  0  0  0  0  0  0  0  0  0  0
   -3.0133    7.0499    0.0000 C   0  0  0  0  0  0  0  0  0  0  0  0
   -1.7060    7.4746    0.0000 C   0  0  0  0  0  0  0  0  0  0  0  0
   -0.3440    7.6591    0.0000 C   0  0  0  0  0  0  0  0  0  0  0  0
    1.0291    7.5975    0.0000 C   0  0  0  0  0  0  0  0  0  0  0  0
    2.3692    7.2916    0.0000 C   0  0  0  0  0  0  0  0  0  0  0  0
    3.6331    6.7514    0.0000 C   0  0  0  0  0  0  0  0  0  0  0  0
    4.7802    5.9942    0.0000 C   0  0  0  0  0  0  0  0  0  0  0  0
    5.7737    5.0443    0.0000 C   0  0  0  0  0  0  0  0  0  0  0  0
    6.5816    3.9323    0.0000 C   0  0  0  0  0  0  0  0  0  0  0  0
    7.8334    2.9399    0.0000 C   0  0  0  0  0  0  0  0  0  0  0  0
  1  2  1  0
  2  3  1  0
  3  4  1  0
  4  5  1  0
  5  6  1  0
  6  7  1  0
  7  8  1  0
  8  9  1  0
  9 10  1  0
 10 11  1  0
 11 12  1  0
 12 13  1  0
 13 14  1  0
 14 15  1  0
 15 16  1  0
 16 17  1  0
 17 18  1  0
 18 19  1  0
 19 20  1  0
 20 21  1  0
 21 22  1  0
 22 23  1  0
 23 24  1  0
 24 25  1  0
 25 26  1  0
 26 27  1  0
 27 28  1  0
 28 29  1  0
 29 30  1  0
 30 31  1  0
 31 32  1  0
 32 33  1  0
 33 34  1  0
 34 35  1  0
 35 36  1  0
 36 37  1  0
 37 38  1  0
 38 39  1  0
 39 40  1  0
 40 41  1  0
 41 42  1  0
 42 43  1  0
 43 44  1  0
 44 45  1  0
 45 46  1  0
 46 47  1  0
 47 48  1  0
 48 49  1  0
 49 50  1  0
 50 51  1  0
 51 52  1  0
 52 53  1  0
 53 54  1  0
 54 55  1  0
 55 56  1  0
 56 57  1  0
 57 58  1  0
 58 59  1  0
 59 60  1  0
 60 61  1  0
 61 62  1  0
 62 63  1  0
 63 64  1  0
 64 65  1  0
 65 66  2  0
 66 67  1  0
 67 68  2  0
 68 69  1  0
 69 70  2  0
 70 71  1  0
 71 72  2  0
 72 73  1  0
 73 74  2  0
 74 75  1  0
 75 76  2  0
 76 77  1  0
 77 78  2  0
 78 79  1  0
 79 80  2  0
 80 81  1  0
 81 82  2  0
 82 83  1  0
 83 84  2  0
 84 85  1  0
 85 86  2  0
 86 87  1  0
 87 88  2  0
 88 89  1  0
 89 90  2  0
 90 91  1  0
 91 92  2  0
 92 93  1  0
 93 94  2  0
 94 95  1  0
 95 96  2  0
 96 97  1  0
 97 98  2  0
 98  2  1  0
 98 64  1  0
M  END
>  <Title>  (553) 
idAATIgen13

$$$$

     RDKit          2D

 12 11  0  0  0  0  0  0  0  0999 V2000
    0.0000    0.0000    0.0000 C   0  0  0  0  0  0  0  0  0  0  0  0
    1.2990    0.7500    0.0000 C   0  0  0  0  0  0  0  0  0  0  0  0
    2.5981   -0.0000    0.0000 C   0  0  0  0  0  0  0  0  0  0  0  0
    3.8971    0.7500    0.0000 C   0  0  0  0  0  0  0  0  0  0  0  0
    5.1962   -0.0000    0.0000 C   0  0  0  0  0  0  0  0  0  0  0  0
    5.1962   -1.5000    0.0000 O   0  0  0  0  0  0  0  0  0  0  0  0
    6.4952    0.7500    0.0000 N   0  0  0  0  0  0  0  0  0  0  0  0
    7.7942   -0.0000    0.0000 C   0  0  0  0  0  0  0  0  0  0  0  0
    9.0933    0.7500    0.0000 C   0  0  0  0  0  0  0  0  0  0  0  0
    7.7942   -1.5000    0.0000 C   0  0  0  0  0  0  0  0  0  0  0  0
    9.0933   -2.2500    0.0000 C   0  0  0  0  0  0  0  0  0  0  0  0
    6.4952   -2.2500    0.0000 O   0  0  0  0  0  0  0  0  0  0  0  0
  1  2  2  0
  2  3  1  0
  3  4  1  0
  4  5  1  0
  5  6  2  0
  5  7  1  0
  7  8  1  0
  8  9  1  0
  8 10  1  0
 10 11  1  0
 10 12  2  0
M  END
>  <Title>  (554) 
idAATJgen13

$$$$

     RDKit          2D

 93 95  0  0  0  0  0  0  0  0999 V2000
   10.1148   -7.8930    0.0000 C   0  0  0  0  0  0  0  0  0  0  0  0
   11.5352   -7.4109    0.0000 C   0  0  0  0  0  0  0  0  0  0  0  0
   12.1221   -8.7912    0.0000 C   0  0  0  0  0  0  0  0  0  0  0  0
   12.9083  -10.0687    0.0000 C   0  0  0  0  0  0  0  0  0  0  0  0
   13.8760  -11.2148    0.0000 C   0  0  0  0  0  0  0  0  0  0  0  0
   15.0038  -12.2038    0.0000 C   0  0  0  0  0  0  0  0  0  0  0  0
   16.2664  -13.0137    0.0000 C   0  0  0  0  0  0  0  0  0  0  0  0
   17.6355  -13.6264    0.0000 C   0  0  0  0  0  0  0  0  0  0  0  0
   19.0807  -14.0281    0.0000 C   0  0  0  0  0  0  0  0  0  0  0  0
   20.5697  -14.2100    0.0000 C   0  0  0  0  0  0  0  0  0  0  0  0
   22.0691  -14.1679    0.0000 C   0  0  0  0  0  0  0  0  0  0  0  0
   23.5455  -13.9029    0.0000 C   0  0  0  0  0  0  0  0  0  0  0  0
   24.9659  -13.4207    0.0000 C   0  0  0  0  0  0  0  0  0  0  0  0
   26.2985  -12.7322    0.0000 C   0  0  0  0  0  0  0  0  0  0  0  0
   27.5137  -11.8528    0.0000 C   0  0  0  0  0  0  0  0  0  0  0  0
   28.5842  -10.8021    0.0000 C   0  0  0  0  0  0  0  0  0  0  0  0
   29.4862   -9.6036    0.0000 C   0  0  0  0  0  0  0  0  0  0  0  0
   30.1995   -8.2840    0.0000 C   0  0  0  0  0  0  0  0  0  0  0  0
   30.7081   -6.8729    0.0000 C   0  0  0  0  0  0  0  0  0  0  0  0
   31.0007   -5.4017    0.0000 C   0  0  0  0  0  0  0  0  0  0  0  0
   31.0708   -3.9034    0.0000 C   0  0  0  0  0  0  0  0  0  0  0  0
   30.9168   -2.4113    0.0000 C   0  0  0  0  0  0  0  0  0  0  0  0
   30.5422   -0.9588    0.0000 C   0  0  0  0  0  0  0  0  0  0  0  0
   29.9552    0.4215    0.0000 C   0  0  0  0  0  0  0  0  0  0  0  0
   29.1691    1.6990    0.0000 C   0  0  0  0  0  0  0  0  0  0  0  0
   28.2013    2.8451    0.0000 C   0  0  0  0  0  0  0  0  0  0  0  0
   27.0736    3.8341    0.0000 C   0  0  0  0  0  0  0  0  0  0  0  0
   25.8110    4.6440    0.0000 C   0  0  0  0  0  0  0  0  0  0  0  0
   24.4418    5.2567    0.0000 C   0  0  0  0  0  0  0  0  0  0  0  0
   22.9966    5.6584    0.0000 C   0  0  0  0  0  0  0  0  0  0  0  0
   21.5077    5.8403    0.0000 C   0  0  0  0  0  0  0  0  0  0  0  0
   20.0083    5.7982    0.0000 C   0  0  0  0  0  0  0  0  0  0  0  0
   18.5319    5.5332    0.0000 C   0  0  0  0  0  0  0  0  0  0  0  0
   17.1115    5.0510    0.0000 C   0  0  0  0  0  0  0  0  0  0  0  0
   15.7788    4.3625    0.0000 C   0  0  0  0  0  0  0  0  0  0  0  0
   14.5636    3.4831    0.0000 C   0  0  0  0  0  0  0  0  0  0  0  0
   13.4931    2.4324    0.0000 C   0  0  0  0  0  0  0  0  0  0  0  0
   12.5911    1.2339    0.0000 C   0  0  0  0  0  0  0  0  0  0  0  0
   11.8779   -0.0857    0.0000 C   0  0  0  0  0  0  0  0  0  0  0  0
   11.3692   -1.4968    0.0000 C   0  0  0  0  0  0  0  0  0  0  0  0
   10.7673   -0.0000    0.0000 C   0  0  0  0  0  0  0  0  0  0  0  0
   10.6752    1.4054    0.0000 C   0  0  0  0  0  0  0  0  0  0  0  0
   10.4005    2.7868    0.0000 C   0  0  0  0  0  0  0  0  0  0  0  0
    9.9477    4.1205    0.0000 C   0  0  0  0  0  0  0  0  0  0  0  0
    9.3248    5.3837    0.0000 C   0  0  0  0  0  0  0  0  0  0  0  0
    8.5423    6.5547    0.0000 C   0  0  0  0  0  0  0  0  0  0  0  0
    7.6137    7.6137    0.0000 C   0  0  0  0  0  0  0  0  0  0  0  0
    6.5547    8.5423    0.0000 C   0  0  0  0  0  0  0  0  0  0  0  0
    5.3837    9.3248    0.0000 C   0  0  0  0  0  0  0  0  0  0  0  0
    4.1205    9.9477    0.0000 C   0  0  0  0  0  0  0  0  0  0  0  0
    2.7868   10.4005    0.0000 C   0  0  0  0  0  0  0  0  0  0  0  0
    1.4054   10.6752    0.0000 C   0  0  0  0  0  0  0  0  0  0  0  0
    0.0000   10.7673    0.0000 C   0  0  0  0  0  0  0  0  0  0  0  0
   -1.4054   10.6752    0.0000 C   0  0  0  0  0  0  0  0  0  0  0  0
   -2.7868   10.4005    0.0000 C   0  0  0  0  0  0  0  0  0  0  0  0
   -4.1205    9.9477    0.0000 C   0  0  0  0  0  0  0  0  0  0  0  0
   -5.3837    9.3248    0.0000 C   0  0  0  0  0  0  0  0  0  0  0  0
   -6.5547    8.5423    0.0000 C   0  0  0  0  0  0  0  0  0  0  0  0
   -7.6137    7.6137    0.0000 C   0  0  0  0  0  0  0  0  0  0  0  0
   -8.5423    6.5547    0.0000 C   0  0  0  0  0  0  0  0  0  0  0  0
   -9.3248    5.3837    0.0000 C   0  0  0  0  0  0  0  0  0  0  0  0
   -9.9477    4.1205    0.0000 C   0  0  0  0  0  0  0  0  0  0  0  0
  -10.4005    2.7868    0.0000 C   0  0  0  0  0  0  0  0  0  0  0  0
  -10.6752    1.4054    0.0000 C   0  0  0  0  0  0  0  0  0  0  0  0
  -10.7673    0.0000    0.0000 C   0  0  0  0  0  0  0  0  0  0  0  0
  -10.6752   -1.4054    0.0000 C   0  0  0  0  0  0  0  0  0  0  0  0
  -10.4005   -2.7868    0.0000 C   0  0  0  0  0  0  0  0  0  0  0  0
   -9.9477   -4.1205    0.0000 C   0  0  0  0  0  0  0  0  0  0  0  0
   -9.3248   -5.3837    0.0000 C   0  0  0  0  0  0  0  0  0  0  0  0
   -8.5423   -6.5547    0.0000 C   0  0  0  0  0  0  0  0  0  0  0  0
   -7.6137   -7.6137    0.0000 C   0  0  0  0  0  0  0  0  0  0  0  0
   -6.5547   -8.5423    0.0000 C   0  0  0  0  0  0  0  0  0  0  0  0
   -5.3837   -9.3248    0.0000 C   0  0  0  0  0  0  0  0  0  0  0  0
   -4.1205   -9.9477    0.0000 C   0  0  0  0  0  0  0  0  0  0  0  0
   -2.7868  -10.4005    0.0000 C   0  0  0  0  0  0  0  0  0  0  0  0
   -1.4054  -10.6752    0.0000 C   0  0  0  0  0  0  0  0  0  0  0  0
   -0.0000  -10.7673    0.0000 C   0  0  0  0  0  0  0  0  0  0  0  0
    1.4054  -10.6752    0.0000 C   0  0  0  0  0  0  0  0  0  0  0  0
    2.7868  -10.4005    0.0000 C   0  0  0  0  0  0  0  0  0  0  0  0
    4.1205   -9.9477    0.0000 C   0  0  0  0  0  0  0  0  0  0  0  0
    5.3837   -9.3248    0.0000 C   0  0  0  0  0  0  0  0  0  0  0  0
    6.5547   -8.5423    0.0000 C   0  0  0  0  0  0  0  0  0  0  0  0
    7.6137   -7.6137    0.0000 C   0  0  0  0  0  0  0  0  0  0  0  0
    8.5423   -6.5547    0.0000 C   0  0  0  0  0  0  0  0  0  0  0  0
    9.3248   -5.3837    0.0000 C   0  0  0  0  0  0  0  0  0  0  0  0
    9.9477   -4.1205    0.0000 C   0  0  0  0  0  0  0  0  0  0  0  0
   11.0766   -2.9680    0.0000 C   0  0  0  0  0  0  0  0  0  0  0  0
   11.0065   -4.4663    0.0000 C   0  0  0  0  0  0  0  0  0  0  0  0
   12.2217   -3.5869    0.0000 C   0  0  0  0  0  0  0  0  0  0  0  0
   13.5908   -4.1996    0.0000 C   0  0  0  0  0  0  0  0  0  0  0  0
   13.7449   -5.6917    0.0000 C   0  0  0  0  0  0  0  0  0  0  0  0
   12.5297   -6.5711    0.0000 C   0  0  0  0  0  0  0  0  0  0  0  0
   11.1605   -5.9584    0.0000 C   0  0  0  0  0  0  0  0  0  0  0  0
  1  2  1  0
  2  3  1  0
  3  4  1  0
  4  5  1  0
  5  6  1  0
  6  7  1  0
  7  8  1  0
  8  9  1  0
  9 10  1  0
 10 11  1  0
 11 12  1  0
 12 13  1  0
 13 14  1  0
 14 15  1  0
 15 16  1  0
 16 17  1  0
 17 18  1  0
 18 19  1  0
 19 20  1  0
 20 21  1  0
 21 22  1  0
 22 23  1  0
 23 24  1  0
 24 25  1  0
 25 26  1  0
 26 27  1  0
 27 28  1  0
 28 29  1  0
 29 30  1  0
 30 31  1  0
 31 32  1  0
 32 33  1  0
 33 34  1  0
 34 35  1  0
 35 36  1  0
 36 37  1  0
 37 38  1  0
 38 39  1  0
 39 40  1  0
 40 41  1  0
 41 42  1  0
 42 43  1  0
 43 44  1  0
 44 45  1  0
 45 46  1  0
 46 47  1  0
 47 48  1  0
 48 49  1  0
 49 50  1  0
 50 51  1  0
 51 52  1  0
 52 53  1  0
 53 54  1  0
 54 55  2  0
 55 56  1  0
 56 57  2  0
 57 58  1  0
 58 59  2  0
 59 60  1  0
 60 61  2  0
 61 62  1  0
 62 63  2  0
 63 64  1  0
 64 65  2  0
 65 66  1  0
 66 67  2  0
 67 68  1  0
 68 69  2  0
 69 70  1  0
 70 71  2  0
 71 72  1  0
 72 73  2  0
 73 74  1  0
 74 75  2  0
 75 76  1  0
 76 77  2  0
 77 78  1  0
 78 79  2  0
 79 80  1  0
 80 81  2  0
 81 82  1  0
 82 83  2  0
 83 84  1  0
 84 85  2  0
 85 86  1  0
 86 87  2  0
 87 88  1  0
 88 89  2  0
 89 90  1  0
 90 91  2  0
 91 92  1  0
 92 93  2  0
 93  2  1  0
 87 40  1  0
 93 88  1  0
M  END
>  <Title>  (555) 
idAATKgen13

$$$$

     RDKit          2D

  6  6  0  0  0  0  0  0  0  0999 V2000
    2.7760    0.0000    0.0000 C   0  0  0  0  0  0  0  0  0  0  0  0
    1.2760    0.0000    0.0000 C   0  0  0  0  0  0  0  0  0  0  0  0
    0.3943    1.2135    0.0000 C   0  0  0  0  0  0  0  0  0  0  0  0
   -1.0323    0.7500    0.0000 C   0  0  0  0  0  0  0  0  0  0  0  0
   -1.0323   -0.7500    0.0000 C   0  0  0  0  0  0  0  0  0  0  0  0
    0.3943   -1.2135    0.0000 C   0  0  0  0  0  0  0  0  0  0  0  0
  1  2  1  0
  2  3  2  0
  3  4  1  0
  4  5  2  0
  5  6  1  0
  6  2  1  0
M  END
>  <Title>  (556) 
idAATLgen13

$$$$

     RDKit          2D

 11 11  0  0  0  0  0  0  0  0999 V2000
   10.2760   -0.0000    0.0000 C   0  0  0  0  0  0  0  0  0  0  0  0
    8.7760   -0.0000    0.0000 C   0  0  0  0  0  0  0  0  0  0  0  0
    7.2760   -0.0000    0.0000 C   0  0  0  0  0  0  0  0  0  0  0  0
    5.7760   -0.0000    0.0000 C   0  0  0  0  0  0  0  0  0  0  0  0
    4.2760   -0.0000    0.0000 C   0  0  0  0  0  0  0  0  0  0  0  0
    2.7760    0.0000    0.0000 C   0  0  0  0  0  0  0  0  0  0  0  0
    1.2760    0.0000    0.0000 C   0  0  0  0  0  0  0  0  0  0  0  0
    0.3943    1.2135    0.0000 C   0  0  0  0  0  0  0  0  0  0  0  0
   -1.0323    0.7500    0.0000 C   0  0  0  0  0  0  0  0  0  0  0  0
   -1.0323   -0.7500    0.0000 C   0  0  0  0  0  0  0  0  0  0  0  0
    0.3943   -1.2135    0.0000 C   0  0  0  0  0  0  0  0  0  0  0  0
  1  2  3  0
  2  3  1  0
  3  4  3  0
  4  5  1  0
  5  6  3  0
  6  7  1  0
  7  8  1  0
  8  9  2  0
  9 10  1  0
 10 11  1  0
 11  7  1  0
M  END
>  <Title>  (557) 
idAATMgen13

$$$$

     RDKit          2D

111112  0  0  0  0  0  0  0  0999 V2000
   -2.1474   -1.0908    0.0000 C   0  0  0  0  0  0  0  0  0  0  0  0
   -2.4836    0.3710    0.0000 C   0  0  0  0  0  0  0  0  0  0  0  0
   -3.9547    0.0778    0.0000 C   0  0  0  0  0  0  0  0  0  0  0  0
   -5.4404   -0.1285    0.0000 C   0  0  0  0  0  0  0  0  0  0  0  0
   -6.9357   -0.2473    0.0000 C   0  0  0  0  0  0  0  0  0  0  0  0
   -8.4354   -0.2781    0.0000 C   0  0  0  0  0  0  0  0  0  0  0  0
   -9.9343   -0.2209    0.0000 C   0  0  0  0  0  0  0  0  0  0  0  0
  -11.4273   -0.0758    0.0000 C   0  0  0  0  0  0  0  0  0  0  0  0
  -12.9091    0.1567    0.0000 C   0  0  0  0  0  0  0  0  0  0  0  0
  -14.3748    0.4757    0.0000 C   0  0  0  0  0  0  0  0  0  0  0  0
  -15.8193    0.8802    0.0000 C   0  0  0  0  0  0  0  0  0  0  0  0
  -17.2375    1.3688    0.0000 C   0  0  0  0  0  0  0  0  0  0  0  0
  -18.6245    1.9398    0.0000 C   0  0  0  0  0  0  0  0  0  0  0  0
  -19.9757    2.5912    0.0000 C   0  0  0  0  0  0  0  0  0  0  0  0
  -21.2863    3.3208    0.0000 C   0  0  0  0  0  0  0  0  0  0  0  0
  -22.5519    4.1260    0.0000 C   0  0  0  0  0  0  0  0  0  0  0  0
  -23.7680    5.0041    0.0000 C   0  0  0  0  0  0  0  0  0  0  0  0
  -24.9305    5.9521    0.0000 C   0  0  0  0  0  0  0  0  0  0  0  0
  -26.0353    6.9666    0.0000 C   0  0  0  0  0  0  0  0  0  0  0  0
  -27.0787    8.0443    0.0000 C   0  0  0  0  0  0  0  0  0  0  0  0
  -28.0571    9.1813    0.0000 C   0  0  0  0  0  0  0  0  0  0  0  0
  -28.9670   10.3738    0.0000 C   0  0  0  0  0  0  0  0  0  0  0  0
  -29.8054   11.6176    0.0000 C   0  0  0  0  0  0  0  0  0  0  0  0
  -30.5693   12.9085    0.0000 C   0  0  0  0  0  0  0  0  0  0  0  0
  -31.2562   14.2420    0.0000 C   0  0  0  0  0  0  0  0  0  0  0  0
  -31.8636   15.6135    0.0000 C   0  0  0  0  0  0  0  0  0  0  0  0
  -32.3895   17.0183    0.0000 C   0  0  0  0  0  0  0  0  0  0  0  0
  -32.8320   18.4515    0.0000 C   0  0  0  0  0  0  0  0  0  0  0  0
  -33.1897   19.9083    0.0000 C   0  0  0  0  0  0  0  0  0  0  0  0
  -33.4612   21.3835    0.0000 C   0  0  0  0  0  0  0  0  0  0  0  0
  -33.6457   22.8721    0.0000 C   0  0  0  0  0  0  0  0  0  0  0  0
  -33.7426   24.3690    0.0000 C   0  0  0  0  0  0  0  0  0  0  0  0
  -33.7514   25.8690    0.0000 C   0  0  0  0  0  0  0  0  0  0  0  0
  -33.6721   27.3669    0.0000 C   0  0  0  0  0  0  0  0  0  0  0  0
  -33.5051   28.8575    0.0000 C   0  0  0  0  0  0  0  0  0  0  0  0
  -33.2509   30.3358    0.0000 C   0  0  0  0  0  0  0  0  0  0  0  0
  -32.9104   31.7967    0.0000 C   0  0  0  0  0  0  0  0  0  0  0  0
  -32.4847   33.2350    0.0000 C   0  0  0  0  0  0  0  0  0  0  0  0
  -31.9754   34.6459    0.0000 C   0  0  0  0  0  0  0  0  0  0  0  0
  -31.3841   36.0244    0.0000 C   0  0  0  0  0  0  0  0  0  0  0  0
  -30.7129   37.3659    0.0000 C   0  0  0  0  0  0  0  0  0  0  0  0
  -29.9642   38.6657    0.0000 C   0  0  0  0  0  0  0  0  0  0  0  0
  -29.1405   39.9193    0.0000 C   0  0  0  0  0  0  0  0  0  0  0  0
  -28.2446   41.1223    0.0000 C   0  0  0  0  0  0  0  0  0  0  0  0
  -27.2797   42.2708    0.0000 C   0  0  0  0  0  0  0  0  0  0  0  0
  -26.2490   43.3606    0.0000 C   0  0  0  0  0  0  0  0  0  0  0  0
  -25.1562   44.3881    0.0000 C   0  0  0  0  0  0  0  0  0  0  0  0
  -24.0049   45.3496    0.0000 C   0  0  0  0  0  0  0  0  0  0  0  0
  -22.7992   46.2420    0.0000 C   0  0  0  0  0  0  0  0  0  0  0  0
  -21.5432   47.0620    0.0000 C   0  0  0  0  0  0  0  0  0  0  0  0
  -20.2412   47.8069    0.0000 C   0  0  0  0  0  0  0  0  0  0  0  0
  -18.8978   48.4741    0.0000 C   0  0  0  0  0  0  0  0  0  0  0  0
  -17.5175   49.0613    0.0000 C   0  0  0  0  0  0  0  0  0  0  0  0
  -16.1051   49.5665    0.0000 C   0  0  0  0  0  0  0  0  0  0  0  0
  -14.6656   49.9880    0.0000 C   0  0  0  0  0  0  0  0  0  0  0  0
  -13.2037   50.3242    0.0000 C   0  0  0  0  0  0  0  0  0  0  0  0
  -11.7247   50.5741    0.0000 C   0  0  0  0  0  0  0  0  0  0  0  0
  -10.2335   50.7367    0.0000 C   0  0  0  0  0  0  0  0  0  0  0  0
   -8.7354   50.8116    0.0000 C   0  0  0  0  0  0  0  0  0  0  0  0
   -7.2355   50.7984    0.0000 C   0  0  0  0  0  0  0  0  0  0  0  0
   -5.7389   50.6971    0.0000 C   0  0  0  0  0  0  0  0  0  0  0  0
   -4.2508   50.5083    0.0000 C   0  0  0  0  0  0  0  0  0  0  0  0
   -2.7764   50.2324    0.0000 C   0  0  0  0  0  0  0  0  0  0  0  0
   -1.3207   49.8704    0.0000 C   0  0  0  0  0  0  0  0  0  0  0  0
    0.1112   49.4237    0.0000 C   0  0  0  0  0  0  0  0  0  0  0  0
    1.5144   48.8937    0.0000 C   0  0  0  0  0  0  0  0  0  0  0  0
    2.8842   48.2823    0.0000 C   0  0  0  0  0  0  0  0  0  0  0  0
    4.2156   47.5915    0.0000 C   0  0  0  0  0  0  0  0  0  0  0  0
    5.5043   46.8238    0.0000 C   0  0  0  0  0  0  0  0  0  0  0  0
    6.7456   45.9817    0.0000 C   0  0  0  0  0  0  0  0  0  0  0  0
    7.9354   45.0683    0.0000 C   0  0  0  0  0  0  0  0  0  0  0  0
    9.0696   44.0866    0.0000 C   0  0  0  0  0  0  0  0  0  0  0  0
   10.1442   43.0400    0.0000 C   0  0  0  0  0  0  0  0  0  0  0  0
   11.1555   41.9322    0.0000 C   0  0  0  0  0  0  0  0  0  0  0  0
   12.1000   40.7670    0.0000 C   0  0  0  0  0  0  0  0  0  0  0  0
   12.9746   39.5483    0.0000 C   0  0  0  0  0  0  0  0  0  0  0  0
   13.7761   38.2804    0.0000 C   0  0  0  0  0  0  0  0  0  0  0  0
   14.5018   36.9676    0.0000 C   0  0  0  0  0  0  0  0  0  0  0  0
   15.1492   35.6145    0.0000 C   0  0  0  0  0  0  0  0  0  0  0  0
   15.7161   34.2258    0.0000 C   0  0  0  0  0  0  0  0  0  0  0  0
   16.2005   32.8062    0.0000 C   0  0  0  0  0  0  0  0  0  0  0  0
   16.6008   31.3606    0.0000 C   0  0  0  0  0  0  0  0  0  0  0  0
   16.9155   29.8939    0.0000 C   0  0  0  0  0  0  0  0  0  0  0  0
   17.1437   28.4114    0.0000 C   0  0  0  0  0  0  0  0  0  0  0  0
   17.2844   26.9180    0.0000 C   0  0  0  0  0  0  0  0  0  0  0  0
   17.3372   25.4189    0.0000 C   0  0  0  0  0  0  0  0  0  0  0  0
   17.3020   23.9194    0.0000 C   0  0  0  0  0  0  0  0  0  0  0  0
   17.1788   22.4244    0.0000 C   0  0  0  0  0  0  0  0  0  0  0  0
   16.9681   20.9393    0.0000 C   0  0  0  0  0  0  0  0  0  0  0  0
   16.6706   19.4691    0.0000 C   0  0  0  0  0  0  0  0  0  0  0  0
   16.2874   18.0189    0.0000 C   0  0  0  0  0  0  0  0  0  0  0  0
   15.8197   16.5937    0.0000 C   0  0  0  0  0  0  0  0  0  0  0  0
   15.2691   15.1983    0.0000 C   0  0  0  0  0  0  0  0  0  0  0  0
   14.6376   13.8378    0.0000 C   0  0  0  0  0  0  0  0  0  0  0  0
   13.9274   12.5166    0.0000 C   0  0  0  0  0  0  0  0  0  0  0  0
   13.1408   11.2393    0.0000 C   0  0  0  0  0  0  0  0  0  0  0  0
   12.2806   10.0105    0.0000 C   0  0  0  0  0  0  0  0  0  0  0  0
   11.3498    8.8342    0.0000 C   0  0  0  0  0  0  0  0  0  0  0  0
   10.3516    7.7146    0.0000 C   0  0  0  0  0  0  0  0  0  0  0  0
    9.2894    6.6555    0.0000 C   0  0  0  0  0  0  0  0  0  0  0  0
    8.1669    5.6605    0.0000 C   0  0  0  0  0  0  0  0  0  0  0  0
    6.9879    4.7332    0.0000 C   0  0  0  0  0  0  0  0  0  0  0  0
    5.7565    3.8766    0.0000 C   0  0  0  0  0  0  0  0  0  0  0  0
    4.4769    3.0938    0.0000 C   0  0  0  0  0  0  0  0  0  0  0  0
    3.1537    2.3875    0.0000 C   0  0  0  0  0  0  0  0  0  0  0  0
    1.7912    1.7600    0.0000 C   0  0  0  0  0  0  0  0  0  0  0  0
    0.3943    1.2135    0.0000 C   0  0  0  0  0  0  0  0  0  0  0  0
    1.2760    0.0000    0.0000 C   0  0  0  0  0  0  0  0  0  0  0  0
    0.3943   -1.2135    0.0000 C   0  0  0  0  0  0  0  0  0  0  0  0
   -1.0323   -0.7500    0.0000 C   0  0  0  0  0  0  0  0  0  0  0  0
   -1.0323    0.7500    0.0000 C   0  0  0  0  0  0  0  0  0  0  0  0
  1  2  1  0
  2  3  1  0
  3  4  1  0
  4  5  1  0
  5  6  1  0
  6  7  1  0
  7  8  1  0
  8  9  1  0
  9 10  1  0
 10 11  1  0
 11 12  1  0
 12 13  1  0
 13 14  1  0
 14 15  1  0
 15 16  1  0
 16 17  1  0
 17 18  1  0
 18 19  1  0
 19 20  1  0
 20 21  1  0
 21 22  1  0
 22 23  1  0
 23 24  1  0
 24 25  1  0
 25 26  1  0
 26 27  1  0
 27 28  1  0
 28 29  1  0
 29 30  1  0
 30 31  1  0
 31 32  1  0
 32 33  1  0
 33 34  1  0
 34 35  1  0
 35 36  1  0
 36 37  1  0
 37 38  1  0
 38 39  1  0
 39 40  1  0
 40 41  1  0
 41 42  1  0
 42 43  1  0
 43 44  1  0
 44 45  1  0
 45 46  1  0
 46 47  1  0
 47 48  1  0
 48 49  1  0
 49 50  1  0
 50 51  1  0
 51 52  1  0
 52 53  1  0
 53 54  1  0
 54 55  1  0
 55 56  1  0
 56 57  1  0
 57 58  1  0
 58 59  1  0
 59 60  1  0
 60 61  1  0
 61 62  1  0
 62 63  1  0
 63 64  1  0
 64 65  1  0
 65 66  1  0
 66 67  1  0
 67 68  1  0
 68 69  1  0
 69 70  1  0
 70 71  1  0
 71 72  1  0
 72 73  1  0
 73 74  1  0
 74 75  1  0
 75 76  1  0
 76 77  1  0
 77 78  1  0
 78 79  1  0
 79 80  1  0
 80 81  1  0
 81 82  1  0
 82 83  1  0
 83 84  1  0
 84 85  1  0
 85 86  1  0
 86 87  1  0
 87 88  1  0
 88 89  1  0
 89 90  1  0
 90 91  1  0
 91 92  1  0
 92 93  1  0
 93 94  1  0
 94 95  1  0
 95 96  1  0
 96 97  1  0
 97 98  1  0
 98 99  1  0
 99100  1  0
100101  2  0
101102  1  0
102103  2  0
103104  1  0
104105  2  0
105106  1  0
106107  2  0
107108  1  0
108109  2  0
109110  1  0
110111  2  0
111  2  1  0
111107  1  0
M  END
>  <Title>  (558) 
idAATNgen13

$$$$

     RDKit          2D

 37 40  0  0  0  0  0  0  0  0999 V2000
  -15.0000   -5.1962    0.0000 C   0  0  0  0  0  0  0  0  0  0  0  0
  -13.5000   -5.1962    0.0000 C   0  0  0  0  0  0  0  0  0  0  0  0
  -12.0000   -5.1962    0.0000 C   0  0  0  0  0  0  0  0  0  0  0  0
  -10.5000   -5.1962    0.0000 C   0  0  0  0  0  0  0  0  0  0  0  0
   -9.0000   -5.1962    0.0000 C   0  0  0  0  0  0  0  0  0  0  0  0
   -7.5000   -5.1962    0.0000 C   0  0  0  0  0  0  0  0  0  0  0  0
   -6.0000   -5.1962    0.0000 C   0  0  0  0  0  0  0  0  0  0  0  0
   -5.2500   -3.8971    0.0000 C   0  0  0  0  0  0  0  0  0  0  0  0
   -3.7500   -3.8971    0.0000 C   0  0  0  0  0  0  0  0  0  0  0  0
   -3.0000   -2.5981    0.0000 C   0  0  0  0  0  0  0  0  0  0  0  0
   -1.5000   -2.5981    0.0000 C   0  0  0  0  0  0  0  0  0  0  0  0
   -0.7500   -3.8971    0.0000 C   0  0  0  0  0  0  0  0  0  0  0  0
   -1.5000   -5.1962    0.0000 O   0  0  0  0  0  0  0  0  0  0  0  0
    0.7500   -3.8971    0.0000 N   0  0  0  0  0  0  0  0  0  0  0  0
    1.5000   -2.5981    0.0000 C   0  0  0  0  0  0  0  0  0  0  0  0
    3.0000   -2.5981    0.0000 C   0  0  0  0  0  0  0  0  0  0  0  0
    3.7500   -3.8971    0.0000 N   0  0  0  0  0  0  0  0  0  0  0  0
    5.2418   -4.0539    0.0000 C   0  0  0  0  0  0  0  0  0  0  0  0
    5.5537   -5.5211    0.0000 C   0  0  0  0  0  0  0  0  0  0  0  0
    4.2546   -6.2711    0.0000 C   0  0  0  0  0  0  0  0  0  0  0  0
    4.0978   -7.7629    0.0000 C   0  0  0  0  0  0  0  0  0  0  0  0
    5.3113   -8.6446    0.0000 O   0  0  0  0  0  0  0  0  0  0  0  0
    2.7275   -8.3730    0.0000 N   0  0  0  0  0  0  0  0  0  0  0  0
    2.5707   -9.8648    0.0000 C   0  0  0  0  0  0  0  0  0  0  0  0
    1.2004  -10.4749    0.0000 N   0  0  0  0  0  0  0  0  0  0  0  0
    1.0436  -11.9667    0.0000 N   0  0  0  0  0  0  0  0  0  0  0  0
    2.2571  -12.8484    0.0000 N   0  0  0  0  0  0  0  0  0  0  0  0
    3.6274  -12.2383    0.0000 N   0  0  0  0  0  0  0  0  0  0  0  0
    3.7842  -10.7465    0.0000 N   0  0  0  0  0  0  0  0  0  0  0  0
    3.1399   -5.2674    0.0000 C   0  0  0  0  0  0  0  0  0  0  0  0
    1.6727   -5.5793    0.0000 O   0  0  0  0  0  0  0  0  0  0  0  0
    0.7500   -1.2990    0.0000 C   0  0  0  0  0  0  0  0  0  0  0  0
    1.5000    0.0000    0.0000 C   0  0  0  0  0  0  0  0  0  0  0  0
    0.7500    1.2990    0.0000 C   0  0  0  0  0  0  0  0  0  0  0  0
   -0.7500    1.2990    0.0000 C   0  0  0  0  0  0  0  0  0  0  0  0
   -1.5000    0.0000    0.0000 C   0  0  0  0  0  0  0  0  0  0  0  0
   -0.7500   -1.2990    0.0000 C   0  0  0  0  0  0  0  0  0  0  0  0
  1  2  3  0
  2  3  1  0
  3  4  3  0
  4  5  1  0
  5  6  3  0
  6  7  1  0
  7  8  1  0
  8  9  1  0
  9 10  1  0
 10 11  1  0
 11 12  1  0
 12 13  2  0
 12 14  1  0
 14 15  1  0
 15 16  1  0
 16 17  1  0
 17 18  1  0
 18 19  1  0
 19 20  1  0
 20 21  1  0
 21 22  2  0
 21 23  1  0
 23 24  1  0
 24 25  2  0
 25 26  1  0
 26 27  2  0
 27 28  1  0
 28 29  2  0
 20 30  1  0
 30 31  2  0
 15 32  1  0
 32 33  2  0
 33 34  1  0
 34 35  2  0
 35 36  1  0
 36 37  2  0
 37 11  1  0
 30 17  1  0
 37 32  1  0
 29 24  1  0
M  END
>  <Title>  (559) 
idAATOgen13

$$$$

     RDKit          2D

 40 45  0  0  0  0  0  0  0  0999 V2000
   -1.3240   -6.3062    0.0000 C   0  0  0  0  0  0  0  0  0  0  0  0
   -0.7500   -4.9204    0.0000 C   0  0  0  0  0  0  0  0  0  0  0  0
    0.7500   -4.9204    0.0000 C   0  0  0  0  0  0  0  0  0  0  0  0
    1.8107   -3.8597    0.0000 C   0  0  0  0  0  0  0  0  0  0  0  0
    1.8107   -2.3597    0.0000 C   0  0  0  0  0  0  0  0  0  0  0  0
    3.1965   -1.7857    0.0000 C   0  0  0  0  0  0  0  0  0  0  0  0
    3.3923   -0.2985    0.0000 O   0  0  0  0  0  0  0  0  0  0  0  0
    4.3865   -2.6988    0.0000 N   0  0  0  0  0  0  0  0  0  0  0  0
    5.7723   -2.1248    0.0000 C   0  0  0  0  0  0  0  0  0  0  0  0
    6.1225   -0.6662    0.0000 N   0  0  0  0  0  0  0  0  0  0  0  0
    7.6179   -0.5485    0.0000 N   0  0  0  0  0  0  0  0  0  0  0  0
    8.1919   -1.9344    0.0000 N   0  0  0  0  0  0  0  0  0  0  0  0
    7.0513   -2.9085    0.0000 N   0  0  0  0  0  0  0  0  0  0  0  0
    7.1690   -4.4039    0.0000 N   0  0  0  0  0  0  0  0  0  0  0  0
    8.4479   -5.1877    0.0000 C   0  0  0  0  0  0  0  0  0  0  0  0
    8.0978   -6.6462    0.0000 C   0  0  0  0  0  0  0  0  0  0  0  0
    6.6024   -6.7639    0.0000 N   0  0  0  0  0  0  0  0  0  0  0  0
    5.8186   -8.0429    0.0000 C   0  0  0  0  0  0  0  0  0  0  0  0
    6.5344   -9.3611    0.0000 O   0  0  0  0  0  0  0  0  0  0  0  0
    4.3192   -8.0036    0.0000 N   0  0  0  0  0  0  0  0  0  0  0  0
    3.5354   -9.2826    0.0000 C   0  0  0  0  0  0  0  0  0  0  0  0
    2.0359   -9.2433    0.0000 N   0  0  0  0  0  0  0  0  0  0  0  0
    1.2522  -10.5223    0.0000 N   0  0  0  0  0  0  0  0  0  0  0  0
    1.9679  -11.8405    0.0000 N   0  0  0  0  0  0  0  0  0  0  0  0
    3.4674  -11.8797    0.0000 N   0  0  0  0  0  0  0  0  0  0  0  0
    4.2512  -10.6008    0.0000 N   0  0  0  0  0  0  0  0  0  0  0  0
    6.0284   -5.3781    0.0000 C   0  0  0  0  0  0  0  0  0  0  0  0
    4.5698   -5.0279    0.0000 O   0  0  0  0  0  0  0  0  0  0  0  0
    0.7500   -1.2990    0.0000 C   0  0  0  0  0  0  0  0  0  0  0  0
    1.5000    0.0000    0.0000 C   0  0  0  0  0  0  0  0  0  0  0  0
    0.7500    1.2990    0.0000 C   0  0  0  0  0  0  0  0  0  0  0  0
   -0.7500    1.2990    0.0000 C   0  0  0  0  0  0  0  0  0  0  0  0
   -1.5000    0.0000    0.0000 C   0  0  0  0  0  0  0  0  0  0  0  0
   -0.7500   -1.2990    0.0000 C   0  0  0  0  0  0  0  0  0  0  0  0
   -1.8107   -2.3597    0.0000 C   0  0  0  0  0  0  0  0  0  0  0  0
   -3.1097   -1.6097    0.0000 C   0  0  0  0  0  0  0  0  0  0  0  0
   -4.4087   -2.3597    0.0000 C   0  0  0  0  0  0  0  0  0  0  0  0
   -4.4087   -3.8597    0.0000 C   0  0  0  0  0  0  0  0  0  0  0  0
   -3.1097   -4.6097    0.0000 C   0  0  0  0  0  0  0  0  0  0  0  0
   -1.8107   -3.8597    0.0000 C   0  0  0  0  0  0  0  0  0  0  0  0
  1  2  1  0
  2  3  1  0
  3  4  1  0
  4  5  2  0
  5  6  1  0
  6  7  2  0
  6  8  1  0
  8  9  1  0
  9 10  2  0
 10 11  1  0
 11 12  2  0
 12 13  1  0
 13 14  1  0
 14 15  1  0
 15 16  1  0
 16 17  1  0
 17 18  1  0
 18 19  2  0
 18 20  1  0
 20 21  1  0
 21 22  2  0
 22 23  1  0
 23 24  2  0
 24 25  1  0
 25 26  2  0
 17 27  1  0
 27 28  2  0
  5 29  1  0
 29 30  2  0
 30 31  1  0
 31 32  2  0
 32 33  1  0
 33 34  2  0
 34 35  1  0
 35 36  2  0
 36 37  1  0
 37 38  2  0
 38 39  1  0
 39 40  2  0
 40  2  1  0
 13  9  1  0
 27 14  1  0
 34 29  1  0
 40 35  1  0
 26 21  1  0
M  END
>  <Title>  (560) 
idAATPgen13

$$$$

     RDKit          2D

 52 59  0  0  0  0  0  0  0  0999 V2000
    3.1097   -7.2078    0.0000 C   0  0  0  0  0  0  0  0  0  0  0  0
    2.0490   -6.1471    0.0000 C   0  0  0  0  0  0  0  0  0  0  0  0
    2.7990   -4.8481    0.0000 C   0  0  0  0  0  0  0  0  0  0  0  0
    2.7990   -3.3481    0.0000 C   0  0  0  0  0  0  0  0  0  0  0  0
    2.0490   -2.0490    0.0000 C   0  0  0  0  0  0  0  0  0  0  0  0
    3.1097   -0.9884    0.0000 C   0  0  0  0  0  0  0  0  0  0  0  0
    2.7215    0.4605    0.0000 O   0  0  0  0  0  0  0  0  0  0  0  0
    4.5586   -1.3766    0.0000 N   0  0  0  0  0  0  0  0  0  0  0  0
    5.6192   -0.3159    0.0000 C   0  0  0  0  0  0  0  0  0  0  0  0
    5.3846    1.1656    0.0000 N   0  0  0  0  0  0  0  0  0  0  0  0
    6.7211    1.8466    0.0000 N   0  0  0  0  0  0  0  0  0  0  0  0
    7.7818    0.7859    0.0000 N   0  0  0  0  0  0  0  0  0  0  0  0
    7.1008   -0.5506    0.0000 N   0  0  0  0  0  0  0  0  0  0  0  0
    7.7818   -1.8871    0.0000 N   0  0  0  0  0  0  0  0  0  0  0  0
    9.2633   -2.1218    0.0000 C   0  0  0  0  0  0  0  0  0  0  0  0
    9.4979   -3.6033    0.0000 C   0  0  0  0  0  0  0  0  0  0  0  0
    8.1614   -4.2843    0.0000 N   0  0  0  0  0  0  0  0  0  0  0  0
    7.9268   -5.7658    0.0000 C   0  0  0  0  0  0  0  0  0  0  0  0
    9.0925   -6.7098    0.0000 O   0  0  0  0  0  0  0  0  0  0  0  0
    6.5264   -6.3034    0.0000 N   0  0  0  0  0  0  0  0  0  0  0  0
    6.2918   -7.7849    0.0000 C   0  0  0  0  0  0  0  0  0  0  0  0
    4.8914   -8.3224    0.0000 N   0  0  0  0  0  0  0  0  0  0  0  0
    4.6567   -9.8040    0.0000 N   0  0  0  0  0  0  0  0  0  0  0  0
    5.8225  -10.7480    0.0000 N   0  0  0  0  0  0  0  0  0  0  0  0
    7.2228  -10.2104    0.0000 N   0  0  0  0  0  0  0  0  0  0  0  0
    7.4575   -8.7289    0.0000 N   0  0  0  0  0  0  0  0  0  0  0  0
    7.1008   -3.2236    0.0000 C   0  0  0  0  0  0  0  0  0  0  0  0
    5.6192   -3.4583    0.0000 O   0  0  0  0  0  0  0  0  0  0  0  0
    0.7500   -1.2990    0.0000 C   0  0  0  0  0  0  0  0  0  0  0  0
    1.5000    0.0000    0.0000 C   0  0  0  0  0  0  0  0  0  0  0  0
    0.7500    1.2990    0.0000 C   0  0  0  0  0  0  0  0  0  0  0  0
   -0.7500    1.2990    0.0000 C   0  0  0  0  0  0  0  0  0  0  0  0
   -1.5000    0.0000    0.0000 C   0  0  0  0  0  0  0  0  0  0  0  0
   -0.7500   -1.2990    0.0000 C   0  0  0  0  0  0  0  0  0  0  0  0
   -2.0490   -2.0490    0.0000 C   0  0  0  0  0  0  0  0  0  0  0  0
   -2.7990   -0.7500    0.0000 C   0  0  0  0  0  0  0  0  0  0  0  0
   -4.2990   -0.7500    0.0000 C   0  0  0  0  0  0  0  0  0  0  0  0
   -5.0490   -2.0490    0.0000 C   0  0  0  0  0  0  0  0  0  0  0  0
   -4.2990   -3.3481    0.0000 C   0  0  0  0  0  0  0  0  0  0  0  0
   -2.7990   -3.3481    0.0000 C   0  0  0  0  0  0  0  0  0  0  0  0
   -2.7990   -4.8481    0.0000 C   0  0  0  0  0  0  0  0  0  0  0  0
   -4.2990   -4.8481    0.0000 C   0  0  0  0  0  0  0  0  0  0  0  0
   -5.0490   -6.1471    0.0000 C   0  0  0  0  0  0  0  0  0  0  0  0
   -4.2990   -7.4462    0.0000 C   0  0  0  0  0  0  0  0  0  0  0  0
   -2.7990   -7.4462    0.0000 C   0  0  0  0  0  0  0  0  0  0  0  0
   -2.0490   -6.1471    0.0000 C   0  0  0  0  0  0  0  0  0  0  0  0
   -0.7500   -6.8971    0.0000 C   0  0  0  0  0  0  0  0  0  0  0  0
   -1.5000   -8.1962    0.0000 C   0  0  0  0  0  0  0  0  0  0  0  0
   -0.7500   -9.4952    0.0000 C   0  0  0  0  0  0  0  0  0  0  0  0
    0.7500   -9.4952    0.0000 C   0  0  0  0  0  0  0  0  0  0  0  0
    1.5000   -8.1962    0.0000 C   0  0  0  0  0  0  0  0  0  0  0  0
    0.7500   -6.8971    0.0000 C   0  0  0  0  0  0  0  0  0  0  0  0
  1  2  1  0
  2  3  1  0
  3  4  2  0
  4  5  1  0
  5  6  1  0
  6  7  2  0
  6  8  1  0
  8  9  1  0
  9 10  2  0
 10 11  1  0
 11 12  2  0
 12 13  1  0
 13 14  1  0
 14 15  1  0
 15 16  1  0
 16 17  1  0
 17 18  1  0
 18 19  2  0
 18 20  1  0
 20 21  1  0
 21 22  2  0
 22 23  1  0
 23 24  2  0
 24 25  1  0
 25 26  2  0
 17 27  1  0
 27 28  2  0
  5 29  1  0
 29 30  2  0
 30 31  1  0
 31 32  2  0
 32 33  1  0
 33 34  2  0
 34 35  1  0
 35 36  2  0
 36 37  1  0
 37 38  2  0
 38 39  1  0
 39 40  2  0
 40 41  1  0
 41 42  2  0
 42 43  1  0
 43 44  2  0
 44 45  1  0
 45 46  2  0
 46 47  1  0
 47 48  2  0
 48 49  1  0
 49 50  2  0
 50 51  1  0
 51 52  2  0
 52  2  1  0
 13  9  1  0
 27 14  1  0
 34 29  1  0
 40 35  1  0
 46 41  1  0
 52 47  1  0
 26 21  1  0
M  END
>  <Title>  (561) 
idAATQgen13

$$$$

     RDKit          2D

  7  7  0  0  0  0  0  0  0  0999 V2000
    4.2760   -0.0000    0.0000 C   0  0  0  0  0  0  0  0  0  0  0  0
    2.7760    0.0000    0.0000 C   0  0  0  0  0  0  0  0  0  0  0  0
    1.2760    0.0000    0.0000 C   0  0  0  0  0  0  0  0  0  0  0  0
    0.3943    1.2135    0.0000 C   0  0  0  0  0  0  0  0  0  0  0  0
   -1.0323    0.7500    0.0000 C   0  0  0  0  0  0  0  0  0  0  0  0
   -1.0323   -0.7500    0.0000 C   0  0  0  0  0  0  0  0  0  0  0  0
    0.3943   -1.2135    0.0000 C   0  0  0  0  0  0  0  0  0  0  0  0
  1  2  3  0
  2  3  1  0
  3  4  1  0
  4  5  2  0
  5  6  1  0
  6  7  1  0
  7  3  1  0
M  END
>  <Title>  (562) 
idAATRgen13

$$$$

     RDKit          2D

  7  6  0  0  0  0  0  0  0  0999 V2000
    0.0000    0.0000    0.0000 C   0  0  0  0  0  0  0  0  0  0  0  0
    1.2990    0.7500    0.0000 C   0  0  0  0  0  0  0  0  0  0  0  0
    2.5981    1.5000    0.0000 C   0  0  0  0  0  0  0  0  0  0  0  0
    3.8971    2.2500    0.0000 C   0  0  0  0  0  0  0  0  0  0  0  0
    5.1962    1.5000    0.0000 C   0  0  0  0  0  0  0  0  0  0  0  0
    6.4952    2.2500    0.0000 C   0  0  0  0  0  0  0  0  0  0  0  0
    5.1962   -0.0000    0.0000 C   0  0  0  0  0  0  0  0  0  0  0  0
  1  2  1  0
  2  3  3  0
  3  4  1  0
  4  5  1  0
  5  6  1  0
  5  7  1  0
M  END
>  <Title>  (563) 
idAATSgen13

$$$$

     RDKit          2D

 27 30  0  0  0  0  0  0  0  0999 V2000
   -5.2500   -3.8971    0.0000 C   0  0  0  0  0  0  0  0  0  0  0  0
   -3.7500   -3.8971    0.0000 C   0  0  0  0  0  0  0  0  0  0  0  0
   -3.0000   -2.5981    0.0000 C   0  0  0  0  0  0  0  0  0  0  0  0
   -1.5000   -2.5981    0.0000 C   0  0  0  0  0  0  0  0  0  0  0  0
   -0.7500   -3.8971    0.0000 C   0  0  0  0  0  0  0  0  0  0  0  0
    0.7500   -3.8971    0.0000 C   0  0  0  0  0  0  0  0  0  0  0  0
    1.5000   -2.5981    0.0000 C   0  0  0  0  0  0  0  0  0  0  0  0
    3.0000   -2.5981    0.0000 C   0  0  0  0  0  0  0  0  0  0  0  0
    3.7500   -1.2990    0.0000 O   0  0  0  0  0  0  0  0  0  0  0  0
    3.7500   -3.8971    0.0000 N   0  0  0  0  0  0  0  0  0  0  0  0
    5.2500   -3.8971    0.0000 C   0  0  0  0  0  0  0  0  0  0  0  0
    6.1317   -2.6836    0.0000 N   0  0  0  0  0  0  0  0  0  0  0  0
    7.5583   -3.1471    0.0000 N   0  0  0  0  0  0  0  0  0  0  0  0
    7.5583   -4.6471    0.0000 N   0  0  0  0  0  0  0  0  0  0  0  0
    6.1317   -5.1106    0.0000 N   0  0  0  0  0  0  0  0  0  0  0  0
    5.6682   -6.5372    0.0000 N   0  0  0  0  0  0  0  0  0  0  0  0
    4.2009   -6.8491    0.0000 C   0  0  0  0  0  0  0  0  0  0  0  0
    3.7374   -8.2757    0.0000 C   0  0  0  0  0  0  0  0  0  0  0  0
    4.7411   -9.3904    0.0000 N   0  0  0  0  0  0  0  0  0  0  0  0
    6.2083   -9.0785    0.0000 N   0  0  0  0  0  0  0  0  0  0  0  0
    6.6718   -7.6519    0.0000 N   0  0  0  0  0  0  0  0  0  0  0  0
    0.7500   -1.2990    0.0000 C   0  0  0  0  0  0  0  0  0  0  0  0
    1.5000    0.0000    0.0000 C   0  0  0  0  0  0  0  0  0  0  0  0
    0.7500    1.2990    0.0000 C   0  0  0  0  0  0  0  0  0  0  0  0
   -0.7500    1.2990    0.0000 C   0  0  0  0  0  0  0  0  0  0  0  0
   -1.5000    0.0000    0.0000 C   0  0  0  0  0  0  0  0  0  0  0  0
   -0.7500   -1.2990    0.0000 C   0  0  0  0  0  0  0  0  0  0  0  0
  1  2  1  0
  2  3  1  0
  3  4  1  0
  4  5  2  0
  5  6  1  0
  6  7  2  0
  7  8  1  0
  8  9  2  0
  8 10  1  0
 10 11  1  0
 11 12  2  0
 12 13  1  0
 13 14  2  0
 14 15  1  0
 15 16  1  0
 16 17  1  0
 17 18  1  0
 18 19  2  0
 19 20  1  0
 20 21  2  0
  7 22  1  0
 22 23  2  0
 23 24  1  0
 24 25  2  0
 25 26  1  0
 26 27  2  0
 27  4  1  0
 15 11  1  0
 21 16  1  0
 27 22  1  0
M  END
>  <Title>  (564) 
idAATTgen13

$$$$

     RDKit          2D

 36 40  0  0  0  0  0  0  0  0999 V2000
   12.2373   -5.6941    0.0000 C   0  0  0  0  0  0  0  0  0  0  0  0
   10.7373   -5.6941    0.0000 C   0  0  0  0  0  0  0  0  0  0  0  0
    9.9873   -4.3950    0.0000 C   0  0  0  0  0  0  0  0  0  0  0  0
    8.4873   -4.3950    0.0000 C   0  0  0  0  0  0  0  0  0  0  0  0
    7.7373   -3.0960    0.0000 C   0  0  0  0  0  0  0  0  0  0  0  0
    8.4873   -1.7969    0.0000 O   0  0  0  0  0  0  0  0  0  0  0  0
    6.2373   -3.0960    0.0000 N   0  0  0  0  0  0  0  0  0  0  0  0
    5.4873   -1.7969    0.0000 C   0  0  0  0  0  0  0  0  0  0  0  0
    6.0974   -0.4266    0.0000 C   0  0  0  0  0  0  0  0  0  0  0  0
    4.9826    0.5771    0.0000 C   0  0  0  0  0  0  0  0  0  0  0  0
    3.6836   -0.1729    0.0000 N   0  0  0  0  0  0  0  0  0  0  0  0
    3.9955   -1.6402    0.0000 N   0  0  0  0  0  0  0  0  0  0  0  0
    2.9918   -2.7549    0.0000 C   0  0  0  0  0  0  0  0  0  0  0  0
    3.3037   -4.2221    0.0000 C   0  0  0  0  0  0  0  0  0  0  0  0
    2.0046   -4.9721    0.0000 C   0  0  0  0  0  0  0  0  0  0  0  0
    0.8899   -3.9684    0.0000 C   0  0  0  0  0  0  0  0  0  0  0  0
    1.5000   -2.5981    0.0000 C   0  0  0  0  0  0  0  0  0  0  0  0
    0.7500   -1.2990    0.0000 C   0  0  0  0  0  0  0  0  0  0  0  0
    1.5000    0.0000    0.0000 C   0  0  0  0  0  0  0  0  0  0  0  0
    0.7500    1.2990    0.0000 C   0  0  0  0  0  0  0  0  0  0  0  0
   -0.7500    1.2990    0.0000 C   0  0  0  0  0  0  0  0  0  0  0  0
   -1.5000    0.0000    0.0000 C   0  0  0  0  0  0  0  0  0  0  0  0
   -0.7500   -1.2990    0.0000 C   0  0  0  0  0  0  0  0  0  0  0  0
   -1.5000   -2.5981    0.0000 C   0  0  0  0  0  0  0  0  0  0  0  0
   -0.7500   -3.8971    0.0000 O   0  0  0  0  0  0  0  0  0  0  0  0
   -3.0000   -2.5981    0.0000 N   0  0  0  0  0  0  0  0  0  0  0  0
   -3.7500   -3.8971    0.0000 C   0  0  0  0  0  0  0  0  0  0  0  0
   -3.1399   -5.2674    0.0000 N   0  0  0  0  0  0  0  0  0  0  0  0
   -4.2546   -6.2711    0.0000 N   0  0  0  0  0  0  0  0  0  0  0  0
   -5.5537   -5.5211    0.0000 N   0  0  0  0  0  0  0  0  0  0  0  0
   -5.2418   -4.0539    0.0000 N   0  0  0  0  0  0  0  0  0  0  0  0
   -6.2455   -2.9392    0.0000 C   0  0  0  0  0  0  0  0  0  0  0  0
   -7.7373   -3.0960    0.0000 C   0  0  0  0  0  0  0  0  0  0  0  0
   -8.3474   -1.7257    0.0000 C   0  0  0  0  0  0  0  0  0  0  0  0
   -7.2326   -0.7220    0.0000 C   0  0  0  0  0  0  0  0  0  0  0  0
   -5.9336   -1.4720    0.0000 C   0  0  0  0  0  0  0  0  0  0  0  0
  1  2  2  0
  2  3  1  0
  3  4  1  0
  4  5  1  0
  5  6  2  0
  5  7  1  0
  7  8  1  0
  8  9  2  0
  9 10  1  0
 10 11  1  0
 11 12  1  0
 12 13  1  0
 13 14  2  0
 14 15  1  0
 15 16  1  0
 16 17  2  0
 17 18  1  0
 18 19  2  0
 19 20  1  0
 20 21  2  0
 21 22  1  0
 22 23  2  0
 23 24  1  0
 24 25  2  0
 24 26  1  0
 26 27  1  0
 27 28  2  0
 28 29  1  0
 29 30  2  0
 30 31  1  0
 31 32  1  0
 32 33  2  0
 33 34  1  0
 34 35  2  0
 35 36  1  0
 12  8  1  0
 17 13  1  0
 23 18  1  0
 31 27  1  0
 36 32  1  0
M  END
>  <Title>  (565) 
idAATUgen13

$$$$

     RDKit          2D

 38 40  0  0  0  0  0  0  0  0999 V2000
  -26.2058  -28.2549    0.0000 C   0  0  0  0  0  0  0  0  0  0  0  0
  -25.1452  -27.1942    0.0000 C   0  0  0  0  0  0  0  0  0  0  0  0
  -24.0845  -26.1336    0.0000 C   0  0  0  0  0  0  0  0  0  0  0  0
  -23.0239  -25.0729    0.0000 C   0  0  0  0  0  0  0  0  0  0  0  0
  -21.9632  -24.0122    0.0000 C   0  0  0  0  0  0  0  0  0  0  0  0
  -20.9025  -22.9516    0.0000 C   0  0  0  0  0  0  0  0  0  0  0  0
  -19.8419  -21.8909    0.0000 C   0  0  0  0  0  0  0  0  0  0  0  0
  -18.7812  -20.8303    0.0000 C   0  0  0  0  0  0  0  0  0  0  0  0
  -17.7206  -19.7696    0.0000 C   0  0  0  0  0  0  0  0  0  0  0  0
  -16.6599  -18.7089    0.0000 C   0  0  0  0  0  0  0  0  0  0  0  0
  -15.5992  -17.6483    0.0000 C   0  0  0  0  0  0  0  0  0  0  0  0
  -14.5386  -16.5876    0.0000 C   0  0  0  0  0  0  0  0  0  0  0  0
  -13.4779  -15.5270    0.0000 C   0  0  0  0  0  0  0  0  0  0  0  0
  -12.4173  -14.4663    0.0000 C   0  0  0  0  0  0  0  0  0  0  0  0
  -11.3566  -13.4056    0.0000 C   0  0  0  0  0  0  0  0  0  0  0  0
  -10.2959  -12.3450    0.0000 C   0  0  0  0  0  0  0  0  0  0  0  0
   -9.2353  -11.2843    0.0000 C   0  0  0  0  0  0  0  0  0  0  0  0
   -8.1746  -10.2237    0.0000 C   0  0  0  0  0  0  0  0  0  0  0  0
   -7.1140   -9.1630    0.0000 C   0  0  0  0  0  0  0  0  0  0  0  0
   -6.0533   -8.1023    0.0000 C   0  0  0  0  0  0  0  0  0  0  0  0
   -4.9926   -7.0417    0.0000 C   0  0  0  0  0  0  0  0  0  0  0  0
   -3.9320   -5.9810    0.0000 C   0  0  0  0  0  0  0  0  0  0  0  0
   -2.8713   -4.9204    0.0000 C   0  0  0  0  0  0  0  0  0  0  0  0
   -1.8107   -3.8597    0.0000 C   0  0  0  0  0  0  0  0  0  0  0  0
   -0.7500   -2.7990    0.0000 N   0  0  0  0  0  0  0  0  0  0  0  0
    0.7500   -2.7990    0.0000 C   0  0  0  0  0  0  0  0  0  0  0  0
    0.7500   -1.2990    0.0000 C   0  0  0  0  0  0  0  0  0  0  0  0
    1.5000    0.0000    0.0000 C   0  0  0  0  0  0  0  0  0  0  0  0
    0.7500    1.2990    0.0000 C   0  0  0  0  0  0  0  0  0  0  0  0
   -0.7500    1.2990    0.0000 C   0  0  0  0  0  0  0  0  0  0  0  0
   -1.5000    2.5981    0.0000 C   0  0  0  0  0  0  0  0  0  0  0  0
   -0.7500    3.8971    0.0000 C   0  0  0  0  0  0  0  0  0  0  0  0
   -1.5000    5.1962    0.0000 C   0  0  0  0  0  0  0  0  0  0  0  0
   -3.0000    5.1962    0.0000 C   0  0  0  0  0  0  0  0  0  0  0  0
   -3.7500    3.8971    0.0000 C   0  0  0  0  0  0  0  0  0  0  0  0
   -3.0000    2.5981    0.0000 C   0  0  0  0  0  0  0  0  0  0  0  0
   -1.5000    0.0000    0.0000 C   0  0  0  0  0  0  0  0  0  0  0  0
   -0.7500   -1.2990    0.0000 C   0  0  0  0  0  0  0  0  0  0  0  0
  1  2  3  0
  2  3  1  0
  3  4  3  0
  4  5  1  0
  5  6  3  0
  6  7  1  0
  7  8  3  0
  8  9  1  0
  9 10  3  0
 10 11  1  0
 11 12  3  0
 12 13  1  0
 13 14  3  0
 14 15  1  0
 15 16  3  0
 16 17  1  0
 17 18  3  0
 18 19  1  0
 19 20  3  0
 20 21  1  0
 21 22  3  0
 22 23  1  0
 23 24  3  0
 24 25  1  0
 25 26  1  0
 26 27  1  0
 27 28  2  0
 28 29  1  0
 29 30  2  0
 30 31  1  0
 31 32  2  0
 32 33  1  0
 33 34  2  0
 34 35  1  0
 35 36  2  0
 30 37  1  0
 37 38  1  0
 38 25  1  0
 38 27  1  0
 36 31  1  0
M  END
>  <Title>  (566) 
idAATVgen13

$$$$

     RDKit          2D

 36 40  0  0  0  0  0  0  0  0999 V2000
   -3.1965   -1.7857    0.0000 C   0  0  0  0  0  0  0  0  0  0  0  0
   -1.8107   -2.3597    0.0000 C   0  0  0  0  0  0  0  0  0  0  0  0
   -1.8107   -3.8597    0.0000 C   0  0  0  0  0  0  0  0  0  0  0  0
   -0.7500   -4.9204    0.0000 C   0  0  0  0  0  0  0  0  0  0  0  0
    0.7500   -4.9204    0.0000 C   0  0  0  0  0  0  0  0  0  0  0  0
    1.8107   -3.8597    0.0000 C   0  0  0  0  0  0  0  0  0  0  0  0
    1.8107   -2.3597    0.0000 C   0  0  0  0  0  0  0  0  0  0  0  0
    3.1965   -1.7857    0.0000 C   0  0  0  0  0  0  0  0  0  0  0  0
    3.3923   -0.2985    0.0000 O   0  0  0  0  0  0  0  0  0  0  0  0
    4.3865   -2.6988    0.0000 N   0  0  0  0  0  0  0  0  0  0  0  0
    5.7723   -2.1248    0.0000 C   0  0  0  0  0  0  0  0  0  0  0  0
    6.1225   -0.6662    0.0000 N   0  0  0  0  0  0  0  0  0  0  0  0
    7.6179   -0.5485    0.0000 N   0  0  0  0  0  0  0  0  0  0  0  0
    8.1919   -1.9344    0.0000 N   0  0  0  0  0  0  0  0  0  0  0  0
    7.0513   -2.9085    0.0000 N   0  0  0  0  0  0  0  0  0  0  0  0
    7.1690   -4.4039    0.0000 N   0  0  0  0  0  0  0  0  0  0  0  0
    8.4479   -5.1877    0.0000 C   0  0  0  0  0  0  0  0  0  0  0  0
    8.0978   -6.6462    0.0000 C   0  0  0  0  0  0  0  0  0  0  0  0
    6.6024   -6.7639    0.0000 N   0  0  0  0  0  0  0  0  0  0  0  0
    5.8186   -8.0429    0.0000 C   0  0  0  0  0  0  0  0  0  0  0  0
    6.5344   -9.3611    0.0000 O   0  0  0  0  0  0  0  0  0  0  0  0
    4.3192   -8.0036    0.0000 N   0  0  0  0  0  0  0  0  0  0  0  0
    3.5354   -9.2826    0.0000 C   0  0  0  0  0  0  0  0  0  0  0  0
    2.0359   -9.2433    0.0000 N   0  0  0  0  0  0  0  0  0  0  0  0
    1.2522  -10.5223    0.0000 N   0  0  0  0  0  0  0  0  0  0  0  0
    1.9679  -11.8405    0.0000 N   0  0  0  0  0  0  0  0  0  0  0  0
    3.4674  -11.8797    0.0000 N   0  0  0  0  0  0  0  0  0  0  0  0
    4.2512  -10.6008    0.0000 N   0  0  0  0  0  0  0  0  0  0  0  0
    6.0284   -5.3781    0.0000 C   0  0  0  0  0  0  0  0  0  0  0  0
    4.5698   -5.0279    0.0000 O   0  0  0  0  0  0  0  0  0  0  0  0
    0.7500   -1.2990    0.0000 C   0  0  0  0  0  0  0  0  0  0  0  0
    1.5000    0.0000    0.0000 C   0  0  0  0  0  0  0  0  0  0  0  0
    0.7500    1.2990    0.0000 C   0  0  0  0  0  0  0  0  0  0  0  0
   -0.7500    1.2990    0.0000 C   0  0  0  0  0  0  0  0  0  0  0  0
   -1.5000    0.0000    0.0000 C   0  0  0  0  0  0  0  0  0  0  0  0
   -0.7500   -1.2990    0.0000 C   0  0  0  0  0  0  0  0  0  0  0  0
  1  2  1  0
  2  3  1  0
  3  4  1  0
  4  5  1  0
  5  6  1  0
  6  7  1  0
  7  8  1  0
  8  9  2  0
  8 10  1  0
 10 11  1  0
 11 12  2  0
 12 13  1  0
 13 14  2  0
 14 15  1  0
 15 16  1  0
 16 17  1  0
 17 18  1  0
 18 19  1  0
 19 20  1  0
 20 21  2  0
 20 22  1  0
 22 23  1  0
 23 24  2  0
 24 25  1  0
 25 26  2  0
 26 27  1  0
 27 28  2  0
 19 29  1  0
 29 30  2  0
  7 31  1  0
 31 32  2  0
 32 33  1  0
 33 34  2  0
 34 35  1  0
 35 36  2  0
 36  2  1  0
 15 11  1  0
 29 16  1  0
 36 31  1  0
 28 23  1  0
M  END
>  <Title>  (567) 
idAATWgen13

$$$$

     RDKit          2D

 11 10  0  0  0  0  0  0  0  0999 V2000
    0.0000    0.0000    0.0000 C   0  0  0  0  0  0  0  0  0  0  0  0
   -0.0000   -1.5000    0.0000 C   0  0  0  0  0  0  0  0  0  0  0  0
   -0.0000   -3.0000    0.0000 C   0  0  0  0  0  0  0  0  0  0  0  0
    1.2990   -3.7500    0.0000 C   0  0  0  0  0  0  0  0  0  0  0  0
    1.2990   -5.2500    0.0000 C   0  0  0  0  0  0  0  0  0  0  0  0
   -0.0000   -6.0000    0.0000 O   0  0  0  0  0  0  0  0  0  0  0  0
    2.5981   -6.0000    0.0000 N   0  0  0  0  0  0  0  0  0  0  0  0
    2.5981   -7.5000    0.0000 C   0  0  0  0  0  0  0  0  0  0  0  0
    3.8971   -8.2500    0.0000 C   0  0  0  0  0  0  0  0  0  0  0  0
    1.2990   -8.2500    0.0000 N   0  0  0  0  0  0  0  0  0  0  0  0
    1.2990   -9.7500    0.0000 C   0  0  0  0  0  0  0  0  0  0  0  0
  1  2  3  0
  2  3  1  0
  3  4  1  0
  4  5  1  0
  5  6  2  0
  5  7  1  0
  7  8  1  0
  8  9  1  0
  8 10  1  0
 10 11  1  0
M  END
>  <Title>  (568) 
idAATXgen13

$$$$

     RDKit          2D

  8  8  0  0  0  0  0  0  0  0999 V2000
    4.5000    0.0000    0.0000 C   0  0  0  0  0  0  0  0  0  0  0  0
    3.0000    0.0000    0.0000 C   0  0  0  0  0  0  0  0  0  0  0  0
    1.5000    0.0000    0.0000 C   0  0  0  0  0  0  0  0  0  0  0  0
    0.7500   -1.2990    0.0000 C   0  0  0  0  0  0  0  0  0  0  0  0
   -0.7500   -1.2990    0.0000 C   0  0  0  0  0  0  0  0  0  0  0  0
   -1.5000    0.0000    0.0000 C   0  0  0  0  0  0  0  0  0  0  0  0
   -0.7500    1.2990    0.0000 C   0  0  0  0  0  0  0  0  0  0  0  0
    0.7500    1.2990    0.0000 C   0  0  0  0  0  0  0  0  0  0  0  0
  1  2  3  0
  2  3  1  0
  3  4  2  0
  4  5  1  0
  5  6  2  0
  6  7  1  0
  7  8  2  0
  8  3  1  0
M  END
>  <Title>  (569) 
idAATYgen13

$$$$

     RDKit          2D

 78 81  0  0  0  0  0  0  0  0999 V2000
   -5.6459   -0.7306    0.0000 C   0  0  0  0  0  0  0  0  0  0  0  0
   -5.1553   -2.1481    0.0000 C   0  0  0  0  0  0  0  0  0  0  0  0
   -6.5479   -2.7056    0.0000 C   0  0  0  0  0  0  0  0  0  0  0  0
   -7.8811   -3.3929    0.0000 C   0  0  0  0  0  0  0  0  0  0  0  0
   -9.1430   -4.2039    0.0000 C   0  0  0  0  0  0  0  0  0  0  0  0
  -10.3221   -5.1311    0.0000 C   0  0  0  0  0  0  0  0  0  0  0  0
  -11.4077   -6.1662    0.0000 C   0  0  0  0  0  0  0  0  0  0  0  0
  -12.3900   -7.2999    0.0000 C   0  0  0  0  0  0  0  0  0  0  0  0
  -13.2601   -8.5217    0.0000 C   0  0  0  0  0  0  0  0  0  0  0  0
  -14.0101   -9.8208    0.0000 C   0  0  0  0  0  0  0  0  0  0  0  0
  -14.6332  -11.1852    0.0000 C   0  0  0  0  0  0  0  0  0  0  0  0
  -15.1238  -12.6027    0.0000 C   0  0  0  0  0  0  0  0  0  0  0  0
  -15.4774  -14.0604    0.0000 C   0  0  0  0  0  0  0  0  0  0  0  0
  -15.6909  -15.5452    0.0000 C   0  0  0  0  0  0  0  0  0  0  0  0
  -15.7623  -17.0435    0.0000 C   0  0  0  0  0  0  0  0  0  0  0  0
  -15.6909  -18.5418    0.0000 C   0  0  0  0  0  0  0  0  0  0  0  0
  -15.4774  -20.0265    0.0000 C   0  0  0  0  0  0  0  0  0  0  0  0
  -15.1238  -21.4842    0.0000 C   0  0  0  0  0  0  0  0  0  0  0  0
  -14.6332  -22.9017    0.0000 C   0  0  0  0  0  0  0  0  0  0  0  0
  -14.0101  -24.2662    0.0000 C   0  0  0  0  0  0  0  0  0  0  0  0
  -13.2601  -25.5652    0.0000 C   0  0  0  0  0  0  0  0  0  0  0  0
  -12.3900  -26.7871    0.0000 C   0  0  0  0  0  0  0  0  0  0  0  0
  -11.4077  -27.9207    0.0000 C   0  0  0  0  0  0  0  0  0  0  0  0
  -10.3221  -28.9558    0.0000 C   0  0  0  0  0  0  0  0  0  0  0  0
   -9.1430  -29.8831    0.0000 C   0  0  0  0  0  0  0  0  0  0  0  0
   -7.8811  -30.6940    0.0000 C   0  0  0  0  0  0  0  0  0  0  0  0
   -6.5479  -31.3814    0.0000 C   0  0  0  0  0  0  0  0  0  0  0  0
   -5.1553  -31.9389    0.0000 C   0  0  0  0  0  0  0  0  0  0  0  0
   -3.7161  -32.3615    0.0000 C   0  0  0  0  0  0  0  0  0  0  0  0
   -2.2432  -32.6453    0.0000 C   0  0  0  0  0  0  0  0  0  0  0  0
   -0.7500  -32.7879    0.0000 C   0  0  0  0  0  0  0  0  0  0  0  0
    0.7500  -32.7879    0.0000 C   0  0  0  0  0  0  0  0  0  0  0  0
    2.2432  -32.6453    0.0000 C   0  0  0  0  0  0  0  0  0  0  0  0
    3.7161  -32.3615    0.0000 C   0  0  0  0  0  0  0  0  0  0  0  0
    5.1553  -31.9389    0.0000 C   0  0  0  0  0  0  0  0  0  0  0  0
    6.5479  -31.3814    0.0000 C   0  0  0  0  0  0  0  0  0  0  0  0
    7.8811  -30.6940    0.0000 C   0  0  0  0  0  0  0  0  0  0  0  0
    9.1430  -29.8831    0.0000 C   0  0  0  0  0  0  0  0  0  0  0  0
   10.3221  -28.9558    0.0000 C   0  0  0  0  0  0  0  0  0  0  0  0
   11.4077  -27.9207    0.0000 C   0  0  0  0  0  0  0  0  0  0  0  0
   12.3900  -26.7871    0.0000 C   0  0  0  0  0  0  0  0  0  0  0  0
   13.2601  -25.5652    0.0000 C   0  0  0  0  0  0  0  0  0  0  0  0
   14.0101  -24.2662    0.0000 C   0  0  0  0  0  0  0  0  0  0  0  0
   14.6332  -22.9017    0.0000 C   0  0  0  0  0  0  0  0  0  0  0  0
   15.1238  -21.4842    0.0000 C   0  0  0  0  0  0  0  0  0  0  0  0
   15.4774  -20.0265    0.0000 C   0  0  0  0  0  0  0  0  0  0  0  0
   15.6909  -18.5418    0.0000 C   0  0  0  0  0  0  0  0  0  0  0  0
   15.7623  -17.0435    0.0000 C   0  0  0  0  0  0  0  0  0  0  0  0
   15.6909  -15.5452    0.0000 C   0  0  0  0  0  0  0  0  0  0  0  0
   15.4774  -14.0604    0.0000 C   0  0  0  0  0  0  0  0  0  0  0  0
   15.1238  -12.6027    0.0000 C   0  0  0  0  0  0  0  0  0  0  0  0
   14.6332  -11.1852    0.0000 C   0  0  0  0  0  0  0  0  0  0  0  0
   14.0101   -9.8208    0.0000 C   0  0  0  0  0  0  0  0  0  0  0  0
   13.2601   -8.5217    0.0000 C   0  0  0  0  0  0  0  0  0  0  0  0
   12.3900   -7.2999    0.0000 C   0  0  0  0  0  0  0  0  0  0  0  0
   11.4077   -6.1662    0.0000 C   0  0  0  0  0  0  0  0  0  0  0  0
   10.3221   -5.1311    0.0000 C   0  0  0  0  0  0  0  0  0  0  0  0
    9.1430   -4.2039    0.0000 C   0  0  0  0  0  0  0  0  0  0  0  0
    7.8811   -3.3929    0.0000 C   0  0  0  0  0  0  0  0  0  0  0  0
    6.5479   -2.7056    0.0000 C   0  0  0  0  0  0  0  0  0  0  0  0
    5.1553   -2.1481    0.0000 C   0  0  0  0  0  0  0  0  0  0  0  0
    3.7161   -1.7255    0.0000 C   0  0  0  0  0  0  0  0  0  0  0  0
    3.9013   -3.2140    0.0000 C   0  0  0  0  0  0  0  0  0  0  0  0
    2.5428   -3.8501    0.0000 C   0  0  0  0  0  0  0  0  0  0  0  0
    1.5181   -2.7547    0.0000 C   0  0  0  0  0  0  0  0  0  0  0  0
    2.2432   -1.4416    0.0000 C   0  0  0  0  0  0  0  0  0  0  0  0
    0.7500   -1.2990    0.0000 C   0  0  0  0  0  0  0  0  0  0  0  0
    1.5000    0.0000    0.0000 C   0  0  0  0  0  0  0  0  0  0  0  0
    0.7500    1.2990    0.0000 C   0  0  0  0  0  0  0  0  0  0  0  0
   -0.7500    1.2990    0.0000 C   0  0  0  0  0  0  0  0  0  0  0  0
   -1.5000    0.0000    0.0000 C   0  0  0  0  0  0  0  0  0  0  0  0
   -0.7500   -1.2990    0.0000 C   0  0  0  0  0  0  0  0  0  0  0  0
   -2.2432   -1.4416    0.0000 C   0  0  0  0  0  0  0  0  0  0  0  0
   -1.2609   -2.5752    0.0000 C   0  0  0  0  0  0  0  0  0  0  0  0
   -1.7515   -3.9927    0.0000 C   0  0  0  0  0  0  0  0  0  0  0  0
   -3.2244   -4.2766    0.0000 C   0  0  0  0  0  0  0  0  0  0  0  0
   -4.2067   -3.1430    0.0000 C   0  0  0  0  0  0  0  0  0  0  0  0
   -3.7161   -1.7255    0.0000 C   0  0  0  0  0  0  0  0  0  0  0  0
  1  2  1  0
  2  3  1  0
  3  4  1  0
  4  5  1  0
  5  6  1  0
  6  7  1  0
  7  8  1  0
  8  9  1  0
  9 10  1  0
 10 11  1  0
 11 12  1  0
 12 13  1  0
 13 14  1  0
 14 15  1  0
 15 16  1  0
 16 17  1  0
 17 18  1  0
 18 19  1  0
 19 20  1  0
 20 21  1  0
 21 22  1  0
 22 23  1  0
 23 24  1  0
 24 25  1  0
 25 26  1  0
 26 27  1  0
 27 28  1  0
 28 29  1  0
 29 30  1  0
 30 31  1  0
 31 32  1  0
 32 33  1  0
 33 34  1  0
 34 35  1  0
 35 36  1  0
 36 37  1  0
 37 38  1  0
 38 39  1  0
 39 40  1  0
 40 41  1  0
 41 42  1  0
 42 43  1  0
 43 44  1  0
 44 45  1  0
 45 46  1  0
 46 47  1  0
 47 48  1  0
 48 49  1  0
 49 50  1  0
 50 51  1  0
 51 52  1  0
 52 53  1  0
 53 54  1  0
 54 55  1  0
 55 56  1  0
 56 57  1  0
 57 58  2  0
 58 59  1  0
 59 60  2  0
 60 61  1  0
 61 62  2  0
 62 63  1  0
 63 64  2  0
 64 65  1  0
 65 66  2  0
 66 67  1  0
 67 68  2  0
 68 69  1  0
 69 70  2  0
 70 71  1  0
 71 72  2  0
 72 73  1  0
 73 74  2  0
 74 75  1  0
 75 76  2  0
 76 77  1  0
 77 78  2  0
 78  2  1  0
 66 62  1  0
 72 67  1  0
 78 73  1  0
M  END
>  <Title>  (570) 
idAATZgen13

$$$$

     RDKit          2D

 18 17  0  0  0  0  0  0  0  0999 V2000
    0.0000    0.0000    0.0000 C   0  0  0  0  0  0  0  0  0  0  0  0
   -0.0000   -1.5000    0.0000 C   0  0  0  0  0  0  0  0  0  0  0  0
   -0.0000   -3.0000    0.0000 C   0  0  0  0  0  0  0  0  0  0  0  0
   -0.0000   -4.5000    0.0000 C   0  0  0  0  0  0  0  0  0  0  0  0
   -0.0000   -6.0000    0.0000 C   0  0  0  0  0  0  0  0  0  0  0  0
   -0.0000   -7.5000    0.0000 C   0  0  0  0  0  0  0  0  0  0  0  0
   -0.0000   -9.0000    0.0000 C   0  0  0  0  0  0  0  0  0  0  0  0
   -0.0000  -10.5000    0.0000 C   0  0  0  0  0  0  0  0  0  0  0  0
   -0.0000  -12.0000    0.0000 C   0  0  0  0  0  0  0  0  0  0  0  0
   -0.0000  -13.5000    0.0000 C   0  0  0  0  0  0  0  0  0  0  0  0
   -0.0000  -15.0000    0.0000 C   0  0  0  0  0  0  0  0  0  0  0  0
   -0.0000  -16.5000    0.0000 C   0  0  0  0  0  0  0  0  0  0  0  0
   -0.0000  -18.0000    0.0000 C   0  0  0  0  0  0  0  0  0  0  0  0
   -0.0000  -19.5000    0.0000 C   0  0  0  0  0  0  0  0  0  0  0  0
   -0.0000  -21.0000    0.0000 C   0  0  0  0  0  0  0  0  0  0  0  0
    1.2990  -21.7500    0.0000 C   0  0  0  0  0  0  0  0  0  0  0  0
    1.2990  -23.2500    0.0000 C   0  0  0  0  0  0  0  0  0  0  0  0
    1.2990  -24.7500    0.0000 C   0  0  0  0  0  0  0  0  0  0  0  0
  1  2  3  0
  2  3  1  0
  3  4  3  0
  4  5  1  0
  5  6  3  0
  6  7  1  0
  7  8  3  0
  8  9  1  0
  9 10  3  0
 10 11  1  0
 11 12  3  0
 12 13  1  0
 13 14  3  0
 14 15  1  0
 15 16  2  3
 16 17  1  0
 17 18  3  0
M  END
>  <Title>  (571) 
idAAUAgen13

$$$$

     RDKit          2D

 48 54  0  0  0  0  0  0  0  0999 V2000
   -0.0000   -8.0154    0.0000 C   0  0  0  0  0  0  0  0  0  0  0  0
   -0.0000   -6.5154    0.0000 C   0  0  0  0  0  0  0  0  0  0  0  0
    1.4392   -6.0928    0.0000 C   0  0  0  0  0  0  0  0  0  0  0  0
    2.4215   -4.9592    0.0000 C   0  0  0  0  0  0  0  0  0  0  0  0
    2.6350   -3.4744    0.0000 C   0  0  0  0  0  0  0  0  0  0  0  0
    2.0119   -2.1100    0.0000 C   0  0  0  0  0  0  0  0  0  0  0  0
    3.1455   -1.1277    0.0000 C   0  0  0  0  0  0  0  0  0  0  0  0
    2.8616    0.3452    0.0000 O   0  0  0  0  0  0  0  0  0  0  0  0
    4.5630   -1.6183    0.0000 N   0  0  0  0  0  0  0  0  0  0  0  0
    5.6966   -0.6360    0.0000 C   0  0  0  0  0  0  0  0  0  0  0  0
    5.5683    0.8585    0.0000 N   0  0  0  0  0  0  0  0  0  0  0  0
    6.9500    1.4424    0.0000 N   0  0  0  0  0  0  0  0  0  0  0  0
    7.9322    0.3088    0.0000 N   0  0  0  0  0  0  0  0  0  0  0  0
    7.1576   -0.9758    0.0000 N   0  0  0  0  0  0  0  0  0  0  0  0
    7.7416   -2.3574    0.0000 C   0  0  0  0  0  0  0  0  0  0  0  0
    9.2026   -2.6972    0.0000 C   0  0  0  0  0  0  0  0  0  0  0  0
    9.3309   -4.1917    0.0000 C   0  0  0  0  0  0  0  0  0  0  0  0
    7.9492   -4.7756    0.0000 C   0  0  0  0  0  0  0  0  0  0  0  0
    7.6095   -6.2366    0.0000 O   0  0  0  0  0  0  0  0  0  0  0  0
    6.1744   -6.6729    0.0000 C   0  0  0  0  0  0  0  0  0  0  0  0
    5.0789   -5.6482    0.0000 O   0  0  0  0  0  0  0  0  0  0  0  0
    5.8346   -8.1339    0.0000 N   0  0  0  0  0  0  0  0  0  0  0  0
    4.3995   -8.5702    0.0000 C   0  0  0  0  0  0  0  0  0  0  0  0
    3.3040   -7.5455    0.0000 N   0  0  0  0  0  0  0  0  0  0  0  0
    1.8689   -7.9817    0.0000 N   0  0  0  0  0  0  0  0  0  0  0  0
    1.5292   -9.4428    0.0000 N   0  0  0  0  0  0  0  0  0  0  0  0
    2.6246  -10.4675    0.0000 N   0  0  0  0  0  0  0  0  0  0  0  0
    4.0597  -10.0312    0.0000 N   0  0  0  0  0  0  0  0  0  0  0  0
    6.9670   -3.6420    0.0000 C   0  0  0  0  0  0  0  0  0  0  0  0
    5.4725   -3.7703    0.0000 O   0  0  0  0  0  0  0  0  0  0  0  0
    0.7500   -1.2990    0.0000 C   0  0  0  0  0  0  0  0  0  0  0  0
    1.5000    0.0000    0.0000 C   0  0  0  0  0  0  0  0  0  0  0  0
    0.7500    1.2990    0.0000 C   0  0  0  0  0  0  0  0  0  0  0  0
   -0.7500    1.2990    0.0000 C   0  0  0  0  0  0  0  0  0  0  0  0
   -1.5000    0.0000    0.0000 C   0  0  0  0  0  0  0  0  0  0  0  0
   -0.7500   -1.2990    0.0000 C   0  0  0  0  0  0  0  0  0  0  0  0
   -2.0119   -2.1100    0.0000 C   0  0  0  0  0  0  0  0  0  0  0  0
   -2.8820   -0.8881    0.0000 C   0  0  0  0  0  0  0  0  0  0  0  0
   -4.3752   -1.0307    0.0000 C   0  0  0  0  0  0  0  0  0  0  0  0
   -4.9983   -2.3952    0.0000 C   0  0  0  0  0  0  0  0  0  0  0  0
   -4.1282   -3.6170    0.0000 C   0  0  0  0  0  0  0  0  0  0  0  0
   -2.6350   -3.4744    0.0000 C   0  0  0  0  0  0  0  0  0  0  0  0
   -2.4215   -4.9592    0.0000 C   0  0  0  0  0  0  0  0  0  0  0  0
   -3.8944   -5.2431    0.0000 C   0  0  0  0  0  0  0  0  0  0  0  0
   -4.3850   -6.6606    0.0000 C   0  0  0  0  0  0  0  0  0  0  0  0
   -3.4027   -7.7942    0.0000 C   0  0  0  0  0  0  0  0  0  0  0  0
   -1.9298   -7.5103    0.0000 C   0  0  0  0  0  0  0  0  0  0  0  0
   -1.4392   -6.0928    0.0000 C   0  0  0  0  0  0  0  0  0  0  0  0
  1  2  1  0
  2  3  1  0
  3  4  2  0
  4  5  1  0
  5  6  1  0
  6  7  1  0
  7  8  2  0
  7  9  1  0
  9 10  1  0
 10 11  2  0
 11 12  1  0
 12 13  2  0
 13 14  1  0
 14 15  1  0
 15 16  2  0
 16 17  1  0
 17 18  2  0
 18 19  1  0
 19 20  1  0
 20 21  2  0
 20 22  1  0
 22 23  1  0
 23 24  2  0
 24 25  1  0
 25 26  2  0
 26 27  1  0
 27 28  2  0
 18 29  1  0
 29 30  2  0
  6 31  1  0
 31 32  2  0
 32 33  1  0
 33 34  2  0
 34 35  1  0
 35 36  2  0
 36 37  1  0
 37 38  2  0
 38 39  1  0
 39 40  2  0
 40 41  1  0
 41 42  2  0
 42 43  1  0
 43 44  2  0
 44 45  1  0
 45 46  2  0
 46 47  1  0
 47 48  2  0
 48  2  1  0
 14 10  1  0
 29 15  1  0
 36 31  1  0
 42 37  1  0
 48 43  1  0
 28 23  1  0
M  END
>  <Title>  (572) 
idAAUBgen13

$$$$

     RDKit          2D

 32 36  0  0  0  0  0  0  0  0999 V2000
   -3.0000   -2.5981    0.0000 C   0  0  0  0  0  0  0  0  0  0  0  0
   -1.5000   -2.5981    0.0000 C   0  0  0  0  0  0  0  0  0  0  0  0
   -0.7500   -3.8971    0.0000 C   0  0  0  0  0  0  0  0  0  0  0  0
    0.7500   -3.8971    0.0000 C   0  0  0  0  0  0  0  0  0  0  0  0
    1.5000   -2.5981    0.0000 C   0  0  0  0  0  0  0  0  0  0  0  0
    3.0000   -2.5981    0.0000 C   0  0  0  0  0  0  0  0  0  0  0  0
    3.7500   -1.2990    0.0000 O   0  0  0  0  0  0  0  0  0  0  0  0
    3.7500   -3.8971    0.0000 N   0  0  0  0  0  0  0  0  0  0  0  0
    5.2500   -3.8971    0.0000 C   0  0  0  0  0  0  0  0  0  0  0  0
    6.1317   -2.6836    0.0000 N   0  0  0  0  0  0  0  0  0  0  0  0
    7.5583   -3.1471    0.0000 N   0  0  0  0  0  0  0  0  0  0  0  0
    7.5583   -4.6471    0.0000 N   0  0  0  0  0  0  0  0  0  0  0  0
    6.1317   -5.1106    0.0000 N   0  0  0  0  0  0  0  0  0  0  0  0
    5.6682   -6.5372    0.0000 N   0  0  0  0  0  0  0  0  0  0  0  0
    6.5498   -7.7508    0.0000 C   0  0  0  0  0  0  0  0  0  0  0  0
    5.6682   -8.9643    0.0000 C   0  0  0  0  0  0  0  0  0  0  0  0
    4.2416   -8.5008    0.0000 C   0  0  0  0  0  0  0  0  0  0  0  0
    3.0280   -9.3824    0.0000 C   0  0  0  0  0  0  0  0  0  0  0  0
    3.1848  -10.8742    0.0000 O   0  0  0  0  0  0  0  0  0  0  0  0
    1.6577   -8.7723    0.0000 N   0  0  0  0  0  0  0  0  0  0  0  0
    0.4442   -9.6540    0.0000 C   0  0  0  0  0  0  0  0  0  0  0  0
   -1.0373   -9.4193    0.0000 C   0  0  0  0  0  0  0  0  0  0  0  0
   -1.2720  -10.9009    0.0000 C   0  0  0  0  0  0  0  0  0  0  0  0
    0.2095  -11.1355    0.0000 C   0  0  0  0  0  0  0  0  0  0  0  0
    4.2416   -7.0008    0.0000 C   0  0  0  0  0  0  0  0  0  0  0  0
    3.0280   -6.1191    0.0000 O   0  0  0  0  0  0  0  0  0  0  0  0
    0.7500   -1.2990    0.0000 C   0  0  0  0  0  0  0  0  0  0  0  0
    1.5000    0.0000    0.0000 C   0  0  0  0  0  0  0  0  0  0  0  0
    0.7500    1.2990    0.0000 C   0  0  0  0  0  0  0  0  0  0  0  0
   -0.7500    1.2990    0.0000 C   0  0  0  0  0  0  0  0  0  0  0  0
   -1.5000    0.0000    0.0000 C   0  0  0  0  0  0  0  0  0  0  0  0
   -0.7500   -1.2990    0.0000 C   0  0  0  0  0  0  0  0  0  0  0  0
  1  2  1  0
  2  3  1  0
  3  4  2  0
  4  5  1  0
  5  6  1  0
  6  7  2  0
  6  8  1  0
  8  9  1  0
  9 10  2  0
 10 11  1  0
 11 12  2  0
 12 13  1  0
 13 14  1  0
 14 15  1  0
 15 16  1  0
 16 17  1  0
 17 18  1  0
 18 19  2  0
 18 20  1  0
 20 21  1  0
 21 22  1  0
 22 23  1  0
 23 24  1  0
 17 25  1  0
 25 26  2  0
  5 27  1  0
 27 28  2  0
 28 29  1  0
 29 30  2  0
 30 31  1  0
 31 32  2  0
 32  2  1  0
 13  9  1  0
 25 14  1  0
 32 27  1  0
 24 21  1  0
M  END
>  <Title>  (573) 
idAAUCgen13

$$$$

     RDKit          2D

 30 32  0  0  0  0  0  0  0  0999 V2000
    3.2286   -0.0000    0.0000 C   0  0  0  0  0  0  0  0  0  0  0  0
    1.7286    0.0000    0.0000 C   0  0  0  0  0  0  0  0  0  0  0  0
    1.0777    1.3515    0.0000 C   0  0  0  0  0  0  0  0  0  0  0  0
   -0.3846    1.6852    0.0000 C   0  0  0  0  0  0  0  0  0  0  0  0
   -1.5574    0.7500    0.0000 C   0  0  0  0  0  0  0  0  0  0  0  0
   -2.9088    1.4008    0.0000 C   0  0  0  0  0  0  0  0  0  0  0  0
   -3.0209    2.8966    0.0000 N   0  0  0  0  0  0  0  0  0  0  0  0
   -4.3724    3.5475    0.0000 C   0  0  0  0  0  0  0  0  0  0  0  0
   -5.6118    2.7025    0.0000 O   0  0  0  0  0  0  0  0  0  0  0  0
   -4.4845    5.0433    0.0000 C   0  0  0  0  0  0  0  0  0  0  0  0
   -5.7605    5.8318    0.0000 C   0  0  0  0  0  0  0  0  0  0  0  0
   -5.4049    7.2890    0.0000 C   0  0  0  0  0  0  0  0  0  0  0  0
   -3.9091    7.4011    0.0000 C   0  0  0  0  0  0  0  0  0  0  0  0
   -3.1206    8.6771    0.0000 O   0  0  0  0  0  0  0  0  0  0  0  0
   -1.6212    8.6323    0.0000 C   0  0  0  0  0  0  0  0  0  0  0  0
   -0.9104    7.3114    0.0000 O   0  0  0  0  0  0  0  0  0  0  0  0
   -0.8327    9.9083    0.0000 N   0  0  0  0  0  0  0  0  0  0  0  0
    0.6666    9.8634    0.0000 C   0  0  0  0  0  0  0  0  0  0  0  0
    1.3774    8.5425    0.0000 N   0  0  0  0  0  0  0  0  0  0  0  0
    2.8768    8.4976    0.0000 N   0  0  0  0  0  0  0  0  0  0  0  0
    3.6653    9.7737    0.0000 N   0  0  0  0  0  0  0  0  0  0  0  0
    2.9545   11.0946    0.0000 N   0  0  0  0  0  0  0  0  0  0  0  0
    1.4552   11.1394    0.0000 N   0  0  0  0  0  0  0  0  0  0  0  0
   -3.3402    6.0132    0.0000 C   0  0  0  0  0  0  0  0  0  0  0  0
   -1.8830    5.6575    0.0000 O   0  0  0  0  0  0  0  0  0  0  0  0
   -1.5574   -0.7500    0.0000 C   0  0  0  0  0  0  0  0  0  0  0  0
   -2.9088   -1.4008    0.0000 O   0  0  0  0  0  0  0  0  0  0  0  0
   -0.3846   -1.6852    0.0000 O   0  0  0  0  0  0  0  0  0  0  0  0
    1.0777   -1.3515    0.0000 C   0  0  0  0  0  0  0  0  0  0  0  0
    2.0130   -2.5242    0.0000 O   0  0  0  0  0  0  0  0  0  0  0  0
  1  2  1  0
  2  3  2  0
  3  4  1  0
  4  5  2  0
  5  6  1  0
  6  7  1  0
  7  8  1  0
  8  9  2  0
  8 10  1  0
 10 11  2  0
 11 12  1  0
 12 13  2  0
 13 14  1  0
 14 15  1  0
 15 16  2  0
 15 17  1  0
 17 18  1  0
 18 19  2  0
 19 20  1  0
 20 21  2  0
 21 22  1  0
 22 23  2  0
 13 24  1  0
 24 25  2  0
  5 26  1  0
 26 27  2  0
 26 28  1  0
 28 29  1  0
 29 30  2  0
 29  2  1  0
 24 10  1  0
 23 18  1  0
M  END
>  <Title>  (574) 
idAAUDgen13

$$$$

     RDKit          2D

 17 16  0  0  0  0  0  0  0  0999 V2000
    0.0000    0.0000    0.0000 C   0  0  0  0  0  0  0  0  0  0  0  0
   -0.0000   -1.5000    0.0000 C   0  0  0  0  0  0  0  0  0  0  0  0
   -0.0000   -3.0000    0.0000 C   0  0  0  0  0  0  0  0  0  0  0  0
    1.2990   -3.7500    0.0000 C   0  0  0  0  0  0  0  0  0  0  0  0
    1.2990   -5.2500    0.0000 C   0  0  0  0  0  0  0  0  0  0  0  0
   -0.0000   -6.0000    0.0000 O   0  0  0  0  0  0  0  0  0  0  0  0
    2.5981   -6.0000    0.0000 N   0  0  0  0  0  0  0  0  0  0  0  0
    2.5981   -7.5000    0.0000 C   0  0  0  0  0  0  0  0  0  0  0  0
    1.2990   -8.2500    0.0000 O   0  0  0  0  0  0  0  0  0  0  0  0
    3.8971   -8.2500    0.0000 N   0  0  0  0  0  0  0  0  0  0  0  0
    3.8971   -9.7500    0.0000 C   0  0  0  0  0  0  0  0  0  0  0  0
    5.1962  -10.5000    0.0000 C   0  0  0  0  0  0  0  0  0  0  0  0
    2.5981  -10.5000    0.0000 C   0  0  0  0  0  0  0  0  0  0  0  0
    2.5981  -12.0000    0.0000 C   0  0  0  0  0  0  0  0  0  0  0  0
    1.2990  -12.7500    0.0000 C   0  0  0  0  0  0  0  0  0  0  0  0
    1.2990  -14.2500    0.0000 C   0  0  0  0  0  0  0  0  0  0  0  0
   -0.0000  -12.0000    0.0000 C   0  0  0  0  0  0  0  0  0  0  0  0
  1  2  3  0
  2  3  1  0
  3  4  1  0
  4  5  1  0
  5  6  2  0
  5  7  1  0
  7  8  1  0
  8  9  2  0
  8 10  1  0
 10 11  1  0
 11 12  1  0
 11 13  1  0
 13 14  1  0
 14 15  1  0
 15 16  1  0
 15 17  1  0
M  END
>  <Title>  (575) 
idAAUEgen13

$$$$

     RDKit          2D

104105  0  0  0  0  0  0  0  0999 V2000
   14.7116   -4.5615    0.0000 C   0  0  0  0  0  0  0  0  0  0  0  0
   15.5049   -4.4828    0.0000 C   0  0  0  0  0  0  0  0  0  0  0  0
   15.7726   -5.9587    0.0000 C   0  0  0  0  0  0  0  0  0  0  0  0
   16.2736   -7.3726    0.0000 C   0  0  0  0  0  0  0  0  0  0  0  0
   16.9948   -8.6878    0.0000 C   0  0  0  0  0  0  0  0  0  0  0  0
   17.9178   -9.8702    0.0000 C   0  0  0  0  0  0  0  0  0  0  0  0
   19.0184  -10.8893    0.0000 C   0  0  0  0  0  0  0  0  0  0  0  0
   20.2683  -11.7187    0.0000 C   0  0  0  0  0  0  0  0  0  0  0  0
   21.6350  -12.3368    0.0000 C   0  0  0  0  0  0  0  0  0  0  0  0
   23.0832  -12.7277    0.0000 C   0  0  0  0  0  0  0  0  0  0  0  0
   24.5753  -12.8812    0.0000 C   0  0  0  0  0  0  0  0  0  0  0  0
   26.0727  -12.7934    0.0000 C   0  0  0  0  0  0  0  0  0  0  0  0
   27.5367  -12.4665    0.0000 C   0  0  0  0  0  0  0  0  0  0  0  0
   28.9292  -11.9090    0.0000 C   0  0  0  0  0  0  0  0  0  0  0  0
   30.2143  -11.1354    0.0000 C   0  0  0  0  0  0  0  0  0  0  0  0
   31.3586  -10.1656    0.0000 C   0  0  0  0  0  0  0  0  0  0  0  0
   32.3326   -9.0248    0.0000 C   0  0  0  0  0  0  0  0  0  0  0  0
   33.1110   -7.7425    0.0000 C   0  0  0  0  0  0  0  0  0  0  0  0
   33.6736   -6.3520    0.0000 C   0  0  0  0  0  0  0  0  0  0  0  0
   34.0058   -4.8893    0.0000 C   0  0  0  0  0  0  0  0  0  0  0  0
   34.0991   -3.3922    0.0000 C   0  0  0  0  0  0  0  0  0  0  0  0
   33.9511   -1.8995    0.0000 C   0  0  0  0  0  0  0  0  0  0  0  0
   33.5655   -0.4499    0.0000 C   0  0  0  0  0  0  0  0  0  0  0  0
   32.9524    0.9190    0.0000 C   0  0  0  0  0  0  0  0  0  0  0  0
   32.1276    2.1719    0.0000 C   0  0  0  0  0  0  0  0  0  0  0  0
   31.1125    3.2763    0.0000 C   0  0  0  0  0  0  0  0  0  0  0  0
   29.9335    4.2035    0.0000 C   0  0  0  0  0  0  0  0  0  0  0  0
   28.6209    4.9296    0.0000 C   0  0  0  0  0  0  0  0  0  0  0  0
   27.2089    5.4358    0.0000 C   0  0  0  0  0  0  0  0  0  0  0  0
   25.7339    5.7089    0.0000 C   0  0  0  0  0  0  0  0  0  0  0  0
   24.2343    5.7418    0.0000 C   0  0  0  0  0  0  0  0  0  0  0  0
   22.7488    5.5338    0.0000 C   0  0  0  0  0  0  0  0  0  0  0  0
   21.3159    5.0902    0.0000 C   0  0  0  0  0  0  0  0  0  0  0  0
   19.9727    4.4224    0.0000 C   0  0  0  0  0  0  0  0  0  0  0  0
   18.7541    3.5479    0.0000 C   0  0  0  0  0  0  0  0  0  0  0  0
   17.6915    2.4891    0.0000 C   0  0  0  0  0  0  0  0  0  0  0  0
   16.8124    1.2737    0.0000 C   0  0  0  0  0  0  0  0  0  0  0  0
   16.1398   -0.0670    0.0000 C   0  0  0  0  0  0  0  0  0  0  0  0
   15.6909   -1.4983    0.0000 C   0  0  0  0  0  0  0  0  0  0  0  0
   15.0623   -0.0000    0.0000 C   0  0  0  0  0  0  0  0  0  0  0  0
   14.9941    1.4318    0.0000 C   0  0  0  0  0  0  0  0  0  0  0  0
   14.7901    2.8506    0.0000 C   0  0  0  0  0  0  0  0  0  0  0  0
   14.4522    4.2435    0.0000 C   0  0  0  0  0  0  0  0  0  0  0  0
   13.9833    5.5981    0.0000 C   0  0  0  0  0  0  0  0  0  0  0  0
   13.3879    6.9019    0.0000 C   0  0  0  0  0  0  0  0  0  0  0  0
   12.6712    8.1433    0.0000 C   0  0  0  0  0  0  0  0  0  0  0  0
   11.8398    9.3109    0.0000 C   0  0  0  0  0  0  0  0  0  0  0  0
   10.9011   10.3942    0.0000 C   0  0  0  0  0  0  0  0  0  0  0  0
    9.8637   11.3833    0.0000 C   0  0  0  0  0  0  0  0  0  0  0  0
    8.7370   12.2694    0.0000 C   0  0  0  0  0  0  0  0  0  0  0  0
    7.5311   13.0443    0.0000 C   0  0  0  0  0  0  0  0  0  0  0  0
    6.2571   13.7011    0.0000 C   0  0  0  0  0  0  0  0  0  0  0  0
    4.9264   14.2339    0.0000 C   0  0  0  0  0  0  0  0  0  0  0  0
    3.5511   14.6377    0.0000 C   0  0  0  0  0  0  0  0  0  0  0  0
    2.1436   14.9090    0.0000 C   0  0  0  0  0  0  0  0  0  0  0  0
    0.7167   15.0452    0.0000 C   0  0  0  0  0  0  0  0  0  0  0  0
   -0.7167   15.0452    0.0000 C   0  0  0  0  0  0  0  0  0  0  0  0
   -2.1436   14.9090    0.0000 C   0  0  0  0  0  0  0  0  0  0  0  0
   -3.5511   14.6377    0.0000 C   0  0  0  0  0  0  0  0  0  0  0  0
   -4.9264   14.2339    0.0000 C   0  0  0  0  0  0  0  0  0  0  0  0
   -6.2571   13.7011    0.0000 C   0  0  0  0  0  0  0  0  0  0  0  0
   -7.5311   13.0443    0.0000 C   0  0  0  0  0  0  0  0  0  0  0  0
   -8.7370   12.2694    0.0000 C   0  0  0  0  0  0  0  0  0  0  0  0
   -9.8637   11.3833    0.0000 C   0  0  0  0  0  0  0  0  0  0  0  0
  -10.9011   10.3942    0.0000 C   0  0  0  0  0  0  0  0  0  0  0  0
  -11.8398    9.3109    0.0000 C   0  0  0  0  0  0  0  0  0  0  0  0
  -12.6712    8.1433    0.0000 C   0  0  0  0  0  0  0  0  0  0  0  0
  -13.3879    6.9019    0.0000 C   0  0  0  0  0  0  0  0  0  0  0  0
  -13.9833    5.5981    0.0000 C   0  0  0  0  0  0  0  0  0  0  0  0
  -14.4522    4.2435    0.0000 C   0  0  0  0  0  0  0  0  0  0  0  0
  -14.7901    2.8506    0.0000 C   0  0  0  0  0  0  0  0  0  0  0  0
  -14.9941    1.4318    0.0000 C   0  0  0  0  0  0  0  0  0  0  0  0
  -15.0623    0.0000    0.0000 C   0  0  0  0  0  0  0  0  0  0  0  0
  -14.9941   -1.4318    0.0000 C   0  0  0  0  0  0  0  0  0  0  0  0
  -14.7901   -2.8506    0.0000 C   0  0  0  0  0  0  0  0  0  0  0  0
  -14.4522   -4.2435    0.0000 C   0  0  0  0  0  0  0  0  0  0  0  0
  -13.9833   -5.5981    0.0000 C   0  0  0  0  0  0  0  0  0  0  0  0
  -13.3879   -6.9019    0.0000 C   0  0  0  0  0  0  0  0  0  0  0  0
  -12.6712   -8.1433    0.0000 C   0  0  0  0  0  0  0  0  0  0  0  0
  -11.8398   -9.3109    0.0000 C   0  0  0  0  0  0  0  0  0  0  0  0
  -10.9011  -10.3942    0.0000 C   0  0  0  0  0  0  0  0  0  0  0  0
   -9.8637  -11.3833    0.0000 C   0  0  0  0  0  0  0  0  0  0  0  0
   -8.7370  -12.2694    0.0000 C   0  0  0  0  0  0  0  0  0  0  0  0
   -7.5311  -13.0443    0.0000 C   0  0  0  0  0  0  0  0  0  0  0  0
   -6.2571  -13.7011    0.0000 C   0  0  0  0  0  0  0  0  0  0  0  0
   -4.9264  -14.2339    0.0000 C   0  0  0  0  0  0  0  0  0  0  0  0
   -3.5511  -14.6377    0.0000 C   0  0  0  0  0  0  0  0  0  0  0  0
   -2.1436  -14.9090    0.0000 C   0  0  0  0  0  0  0  0  0  0  0  0
   -0.7167  -15.0452    0.0000 C   0  0  0  0  0  0  0  0  0  0  0  0
    0.7167  -15.0452    0.0000 C   0  0  0  0  0  0  0  0  0  0  0  0
    2.1436  -14.9090    0.0000 C   0  0  0  0  0  0  0  0  0  0  0  0
    3.5511  -14.6377    0.0000 C   0  0  0  0  0  0  0  0  0  0  0  0
    4.9264  -14.2339    0.0000 C   0  0  0  0  0  0  0  0  0  0  0  0
    6.2571  -13.7011    0.0000 C   0  0  0  0  0  0  0  0  0  0  0  0
    7.5311  -13.0443    0.0000 C   0  0  0  0  0  0  0  0  0  0  0  0
    8.7370  -12.2694    0.0000 C   0  0  0  0  0  0  0  0  0  0  0  0
    9.8637  -11.3833    0.0000 C   0  0  0  0  0  0  0  0  0  0  0  0
   10.9011  -10.3942    0.0000 C   0  0  0  0  0  0  0  0  0  0  0  0
   11.8398   -9.3109    0.0000 C   0  0  0  0  0  0  0  0  0  0  0  0
   12.6712   -8.1433    0.0000 C   0  0  0  0  0  0  0  0  0  0  0  0
   13.3879   -6.9019    0.0000 C   0  0  0  0  0  0  0  0  0  0  0  0
   13.9833   -5.5981    0.0000 C   0  0  0  0  0  0  0  0  0  0  0  0
   14.4522   -4.2435    0.0000 C   0  0  0  0  0  0  0  0  0  0  0  0
   15.4774   -2.9830    0.0000 C   0  0  0  0  0  0  0  0  0  0  0  0
  1  2  1  0
  2  3  1  0
  3  4  1  0
  4  5  1  0
  5  6  1  0
  6  7  1  0
  7  8  1  0
  8  9  1  0
  9 10  1  0
 10 11  1  0
 11 12  1  0
 12 13  1  0
 13 14  1  0
 14 15  1  0
 15 16  1  0
 16 17  1  0
 17 18  1  0
 18 19  1  0
 19 20  1  0
 20 21  1  0
 21 22  1  0
 22 23  1  0
 23 24  1  0
 24 25  1  0
 25 26  1  0
 26 27  1  0
 27 28  1  0
 28 29  1  0
 29 30  1  0
 30 31  1  0
 31 32  1  0
 32 33  1  0
 33 34  1  0
 34 35  1  0
 35 36  1  0
 36 37  1  0
 37 38  1  0
 38 39  1  0
 39 40  1  0
 40 41  1  0
 41 42  1  0
 42 43  1  0
 43 44  1  0
 44 45  1  0
 45 46  1  0
 46 47  1  0
 47 48  1  0
 48 49  1  0
 49 50  1  0
 50 51  1  0
 51 52  1  0
 52 53  1  0
 53 54  1  0
 54 55  1  0
 55 56  1  0
 56 57  1  0
 57 58  1  0
 58 59  1  0
 59 60  1  0
 60 61  1  0
 61 62  1  0
 62 63  1  0
 63 64  1  0
 64 65  1  0
 65 66  1  0
 66 67  1  0
 67 68  1  0
 68 69  1  0
 69 70  1  0
 70 71  1  0
 71 72  1  0
 72 73  1  0
 73 74  1  0
 74 75  1  0
 75 76  1  0
 76 77  1  0
 77 78  1  0
 78 79  1  0
 79 80  2  0
 80 81  1  0
 81 82  2  0
 82 83  1  0
 83 84  2  0
 84 85  1  0
 85 86  2  0
 86 87  1  0
 87 88  2  0
 88 89  1  0
 89 90  2  0
 90 91  1  0
 91 92  2  0
 92 93  1  0
 93 94  2  0
 94 95  1  0
 95 96  2  0
 96 97  1  0
 97 98  2  0
 98 99  1  0
 99100  2  0
100101  1  0
101102  2  0
102103  1  0
103104  2  0
104  2  1  0
104 39  1  0
M  END
>  <Title>  (576) 
idAAUFgen13

$$$$

     RDKit          2D

 66 67  0  0  0  0  0  0  0  0999 V2000
   -2.2563   -1.0471    0.0000 C   0  0  0  0  0  0  0  0  0  0  0  0
   -2.4984    0.4332    0.0000 C   0  0  0  0  0  0  0  0  0  0  0  0
   -3.9891    0.2663    0.0000 C   0  0  0  0  0  0  0  0  0  0  0  0
   -5.4891    0.2511    0.0000 C   0  0  0  0  0  0  0  0  0  0  0  0
   -6.9828    0.3877    0.0000 C   0  0  0  0  0  0  0  0  0  0  0  0
   -8.4551    0.6748    0.0000 C   0  0  0  0  0  0  0  0  0  0  0  0
   -9.8908    1.1093    0.0000 C   0  0  0  0  0  0  0  0  0  0  0  0
  -11.2751    1.6868    0.0000 C   0  0  0  0  0  0  0  0  0  0  0  0
  -12.5940    2.4015    0.0000 C   0  0  0  0  0  0  0  0  0  0  0  0
  -13.8337    3.2458    0.0000 C   0  0  0  0  0  0  0  0  0  0  0  0
  -14.9817    4.2113    0.0000 C   0  0  0  0  0  0  0  0  0  0  0  0
  -16.0261    5.2880    0.0000 N   0  0  0  0  0  0  0  0  0  0  0  0
  -16.9563    6.4648    0.0000 C   0  0  0  0  0  0  0  0  0  0  0  0
  -17.7626    7.7296    0.0000 C   0  0  0  0  0  0  0  0  0  0  0  0
  -18.4368    9.0696    0.0000 C   0  0  0  0  0  0  0  0  0  0  0  0
  -18.9720   10.4708    0.0000 C   0  0  0  0  0  0  0  0  0  0  0  0
  -19.3626   11.9191    0.0000 C   0  0  0  0  0  0  0  0  0  0  0  0
  -19.6048   13.3994    0.0000 C   0  0  0  0  0  0  0  0  0  0  0  0
  -19.6960   14.8966    0.0000 C   0  0  0  0  0  0  0  0  0  0  0  0
  -19.6352   16.3954    0.0000 C   0  0  0  0  0  0  0  0  0  0  0  0
  -19.4231   17.8803    0.0000 C   0  0  0  0  0  0  0  0  0  0  0  0
  -19.0618   19.3362    0.0000 C   0  0  0  0  0  0  0  0  0  0  0  0
  -18.5551   20.7480    0.0000 C   0  0  0  0  0  0  0  0  0  0  0  0
  -17.9082   22.1013    0.0000 C   0  0  0  0  0  0  0  0  0  0  0  0
  -17.1277   23.3823    0.0000 C   0  0  0  0  0  0  0  0  0  0  0  0
  -16.2216   24.5777    0.0000 C   0  0  0  0  0  0  0  0  0  0  0  0
  -15.1993   25.6753    0.0000 C   0  0  0  0  0  0  0  0  0  0  0  0
  -14.0711   26.6638    0.0000 C   0  0  0  0  0  0  0  0  0  0  0  0
  -12.8487   27.5332    0.0000 C   0  0  0  0  0  0  0  0  0  0  0  0
  -11.5446   28.2744    0.0000 C   0  0  0  0  0  0  0  0  0  0  0  0
  -10.1722   28.8799    0.0000 C   0  0  0  0  0  0  0  0  0  0  0  0
   -8.7456   29.3434    0.0000 C   0  0  0  0  0  0  0  0  0  0  0  0
   -7.2795   29.6602    0.0000 C   0  0  0  0  0  0  0  0  0  0  0  0
   -5.7888   29.8271    0.0000 C   0  0  0  0  0  0  0  0  0  0  0  0
   -4.2889   29.8423    0.0000 C   0  0  0  0  0  0  0  0  0  0  0  0
   -2.7951   29.7056    0.0000 C   0  0  0  0  0  0  0  0  0  0  0  0
   -1.3228   29.4186    0.0000 C   0  0  0  0  0  0  0  0  0  0  0  0
    0.1129   28.9841    0.0000 C   0  0  0  0  0  0  0  0  0  0  0  0
    1.4972   28.4066    0.0000 C   0  0  0  0  0  0  0  0  0  0  0  0
    2.8160   27.6919    0.0000 C   0  0  0  0  0  0  0  0  0  0  0  0
    4.0558   26.8475    0.0000 C   0  0  0  0  0  0  0  0  0  0  0  0
    5.2038   25.8821    0.0000 C   0  0  0  0  0  0  0  0  0  0  0  0
    6.2482   24.8054    0.0000 C   0  0  0  0  0  0  0  0  0  0  0  0
    7.1783   23.6286    0.0000 C   0  0  0  0  0  0  0  0  0  0  0  0
    7.9846   22.3638    0.0000 C   0  0  0  0  0  0  0  0  0  0  0  0
    8.6589   21.0238    0.0000 C   0  0  0  0  0  0  0  0  0  0  0  0
    9.1940   19.6225    0.0000 C   0  0  0  0  0  0  0  0  0  0  0  0
    9.5847   18.1743    0.0000 C   0  0  0  0  0  0  0  0  0  0  0  0
    9.8269   16.6940    0.0000 C   0  0  0  0  0  0  0  0  0  0  0  0
    9.9180   15.1968    0.0000 C   0  0  0  0  0  0  0  0  0  0  0  0
    9.8572   13.6980    0.0000 C   0  0  0  0  0  0  0  0  0  0  0  0
    9.6451   12.2131    0.0000 C   0  0  0  0  0  0  0  0  0  0  0  0
    9.2839   10.7572    0.0000 C   0  0  0  0  0  0  0  0  0  0  0  0
    8.7772    9.3454    0.0000 C   0  0  0  0  0  0  0  0  0  0  0  0
    8.1303    7.9920    0.0000 C   0  0  0  0  0  0  0  0  0  0  0  0
    7.3498    6.7111    0.0000 C   0  0  0  0  0  0  0  0  0  0  0  0
    6.4437    5.5157    0.0000 C   0  0  0  0  0  0  0  0  0  0  0  0
    5.4213    4.4181    0.0000 C   0  0  0  0  0  0  0  0  0  0  0  0
    4.2931    3.4295    0.0000 C   0  0  0  0  0  0  0  0  0  0  0  0
    3.0707    2.5602    0.0000 C   0  0  0  0  0  0  0  0  0  0  0  0
    1.7667    1.8190    0.0000 C   0  0  0  0  0  0  0  0  0  0  0  0
    0.3943    1.2135    0.0000 C   0  0  0  0  0  0  0  0  0  0  0  0
    1.2760    0.0000    0.0000 C   0  0  0  0  0  0  0  0  0  0  0  0
    0.3943   -1.2135    0.0000 C   0  0  0  0  0  0  0  0  0  0  0  0
   -1.0323   -0.7500    0.0000 C   0  0  0  0  0  0  0  0  0  0  0  0
   -1.0323    0.7500    0.0000 C   0  0  0  0  0  0  0  0  0  0  0  0
  1  2  1  0
  2  3  1  0
  3  4  1  0
  4  5  1  0
  5  6  1  0
  6  7  2  0
  7  8  1  0
  8  9  1  0
  9 10  1  0
 10 11  1  0
 11 12  2  0
 12 13  1  0
 13 14  2  0
 14 15  1  0
 15 16  2  0
 16 17  1  0
 17 18  2  0
 18 19  1  0
 19 20  2  0
 20 21  1  0
 21 22  2  0
 22 23  1  0
 23 24  2  0
 24 25  1  0
 25 26  2  0
 26 27  1  0
 27 28  2  0
 28 29  1  0
 29 30  2  0
 30 31  1  0
 31 32  2  0
 32 33  1  0
 33 34  2  0
 34 35  1  0
 35 36  2  0
 36 37  1  0
 37 38  2  0
 38 39  1  0
 39 40  2  0
 40 41  1  0
 41 42  2  0
 42 43  1  0
 43 44  2  0
 44 45  1  0
 45 46  2  0
 46 47  1  0
 47 48  2  0
 48 49  1  0
 49 50  2  0
 50 51  1  0
 51 52  2  0
 52 53  1  0
 53 54  2  0
 54 55  1  0
 55 56  2  0
 56 57  1  0
 57 58  2  0
 58 59  1  0
 59 60  2  0
 60 61  1  0
 61 62  2  0
 62 63  1  0
 63 64  2  0
 64 65  1  0
 65 66  2  0
 66  2  1  0
 66 62  1  0
M  END
>  <Title>  (577) 
idAAUGgen13

$$$$

     RDKit          2D

 59 67  0  0  0  0  0  0  0  0999 V2000
    4.3881   -6.6982    0.0000 C   0  0  0  0  0  0  0  0  0  0  0  0
    3.0367   -6.0474    0.0000 C   0  0  0  0  0  0  0  0  0  0  0  0
    3.3705   -4.5850    0.0000 C   0  0  0  0  0  0  0  0  0  0  0  0
    3.0367   -3.1226    0.0000 C   0  0  0  0  0  0  0  0  0  0  0  0
    2.1015   -1.9499    0.0000 C   0  0  0  0  0  0  0  0  0  0  0  0
    3.0367   -0.7771    0.0000 O   0  0  0  0  0  0  0  0  0  0  0  0
    4.5199   -1.0007    0.0000 C   0  0  0  0  0  0  0  0  0  0  0  0
    5.0679   -2.3970    0.0000 O   0  0  0  0  0  0  0  0  0  0  0  0
    5.4552    0.1721    0.0000 N   0  0  0  0  0  0  0  0  0  0  0  0
    6.9384   -0.0515    0.0000 C   0  0  0  0  0  0  0  0  0  0  0  0
    7.6294   -1.3829    0.0000 N   0  0  0  0  0  0  0  0  0  0  0  0
    9.1091   -1.1371    0.0000 N   0  0  0  0  0  0  0  0  0  0  0  0
    9.3327    0.3461    0.0000 N   0  0  0  0  0  0  0  0  0  0  0  0
    7.9911    1.0171    0.0000 N   0  0  0  0  0  0  0  0  0  0  0  0
    7.7454    2.4968    0.0000 N   0  0  0  0  0  0  0  0  0  0  0  0
    6.4038    3.1678    0.0000 C   0  0  0  0  0  0  0  0  0  0  0  0
    6.6274    4.6510    0.0000 C   0  0  0  0  0  0  0  0  0  0  0  0
    8.1071    4.8967    0.0000 N   0  0  0  0  0  0  0  0  0  0  0  0
    8.7781    6.2383    0.0000 C   0  0  0  0  0  0  0  0  0  0  0  0
    7.9517    7.4902    0.0000 O   0  0  0  0  0  0  0  0  0  0  0  0
   10.2754    6.3280    0.0000 N   0  0  0  0  0  0  0  0  0  0  0  0
   10.9464    7.6696    0.0000 C   0  0  0  0  0  0  0  0  0  0  0  0
   10.1200    8.9214    0.0000 N   0  0  0  0  0  0  0  0  0  0  0  0
   10.7910   10.2630    0.0000 N   0  0  0  0  0  0  0  0  0  0  0  0
   12.2883   10.3527    0.0000 N   0  0  0  0  0  0  0  0  0  0  0  0
   13.1147    9.1009    0.0000 N   0  0  0  0  0  0  0  0  0  0  0  0
   12.4437    7.7593    0.0000 N   0  0  0  0  0  0  0  0  0  0  0  0
    8.7981    3.5654    0.0000 C   0  0  0  0  0  0  0  0  0  0  0  0
   10.2813    3.3418    0.0000 O   0  0  0  0  0  0  0  0  0  0  0  0
    0.7500   -1.2990    0.0000 C   0  0  0  0  0  0  0  0  0  0  0  0
    1.5000    0.0000    0.0000 C   0  0  0  0  0  0  0  0  0  0  0  0
    0.7500    1.2990    0.0000 C   0  0  0  0  0  0  0  0  0  0  0  0
   -0.7500    1.2990    0.0000 C   0  0  0  0  0  0  0  0  0  0  0  0
   -1.5000    0.0000    0.0000 C   0  0  0  0  0  0  0  0  0  0  0  0
   -0.7500   -1.2990    0.0000 C   0  0  0  0  0  0  0  0  0  0  0  0
   -2.1015   -1.9499    0.0000 C   0  0  0  0  0  0  0  0  0  0  0  0
   -2.6495   -0.5536    0.0000 C   0  0  0  0  0  0  0  0  0  0  0  0
   -4.1327   -0.3300    0.0000 C   0  0  0  0  0  0  0  0  0  0  0  0
   -5.0679   -1.5027    0.0000 C   0  0  0  0  0  0  0  0  0  0  0  0
   -4.5199   -2.8990    0.0000 C   0  0  0  0  0  0  0  0  0  0  0  0
   -3.0367   -3.1226    0.0000 C   0  0  0  0  0  0  0  0  0  0  0  0
   -3.3705   -4.5850    0.0000 C   0  0  0  0  0  0  0  0  0  0  0  0
   -4.8038   -4.1429    0.0000 C   0  0  0  0  0  0  0  0  0  0  0  0
   -5.9034   -5.1631    0.0000 C   0  0  0  0  0  0  0  0  0  0  0  0
   -5.5696   -6.6255    0.0000 C   0  0  0  0  0  0  0  0  0  0  0  0
   -4.1363   -7.0677    0.0000 C   0  0  0  0  0  0  0  0  0  0  0  0
   -3.0367   -6.0474    0.0000 C   0  0  0  0  0  0  0  0  0  0  0  0
   -2.1015   -7.2201    0.0000 C   0  0  0  0  0  0  0  0  0  0  0  0
   -3.3408   -8.0651    0.0000 C   0  0  0  0  0  0  0  0  0  0  0  0
   -3.2287   -9.5609    0.0000 C   0  0  0  0  0  0  0  0  0  0  0  0
   -1.8773  -10.2118    0.0000 C   0  0  0  0  0  0  0  0  0  0  0  0
   -0.6379   -9.3668    0.0000 C   0  0  0  0  0  0  0  0  0  0  0  0
   -0.7500   -7.8710    0.0000 C   0  0  0  0  0  0  0  0  0  0  0  0
    0.7500   -7.8710    0.0000 C   0  0  0  0  0  0  0  0  0  0  0  0
    0.6379   -9.3668    0.0000 C   0  0  0  0  0  0  0  0  0  0  0  0
    1.8773  -10.2118    0.0000 C   0  0  0  0  0  0  0  0  0  0  0  0
    3.2287   -9.5609    0.0000 C   0  0  0  0  0  0  0  0  0  0  0  0
    3.3408   -8.0651    0.0000 C   0  0  0  0  0  0  0  0  0  0  0  0
    2.1015   -7.2201    0.0000 C   0  0  0  0  0  0  0  0  0  0  0  0
  1  2  1  0
  2  3  1  0
  3  4  2  0
  4  5  1  0
  5  6  1  0
  6  7  1  0
  7  8  2  0
  7  9  1  0
  9 10  1  0
 10 11  2  0
 11 12  1  0
 12 13  2  0
 13 14  1  0
 14 15  1  0
 15 16  1  0
 16 17  1  0
 17 18  1  0
 18 19  1  0
 19 20  2  0
 19 21  1  0
 21 22  1  0
 22 23  2  0
 23 24  1  0
 24 25  2  0
 25 26  1  0
 26 27  2  0
 18 28  1  0
 28 29  2  0
  5 30  1  0
 30 31  2  0
 31 32  1  0
 32 33  2  0
 33 34  1  0
 34 35  2  0
 35 36  1  0
 36 37  2  0
 37 38  1  0
 38 39  2  0
 39 40  1  0
 40 41  2  0
 41 42  1  0
 42 43  2  0
 43 44  1  0
 44 45  2  0
 45 46  1  0
 46 47  2  0
 47 48  1  0
 48 49  2  0
 49 50  1  0
 50 51  2  0
 51 52  1  0
 52 53  2  0
 53 54  1  0
 54 55  2  0
 55 56  1  0
 56 57  2  0
 57 58  1  0
 58 59  2  0
 59  2  1  0
 14 10  1  0
 28 15  1  0
 35 30  1  0
 41 36  1  0
 47 42  1  0
 53 48  1  0
 59 54  1  0
 27 22  1  0
M  END
>  <Title>  (578) 
idAAUHgen13

$$$$

     RDKit          2D

 49 55  0  0  0  0  0  0  0  0999 V2000
   -1.1382   -8.3460    0.0000 C   0  0  0  0  0  0  0  0  0  0  0  0
   -0.7500   -6.8971    0.0000 C   0  0  0  0  0  0  0  0  0  0  0  0
    0.7500   -6.8971    0.0000 C   0  0  0  0  0  0  0  0  0  0  0  0
    2.0490   -6.1471    0.0000 C   0  0  0  0  0  0  0  0  0  0  0  0
    2.7990   -4.8481    0.0000 C   0  0  0  0  0  0  0  0  0  0  0  0
    4.2479   -5.2363    0.0000 C   0  0  0  0  0  0  0  0  0  0  0  0
    5.3086   -4.1756    0.0000 O   0  0  0  0  0  0  0  0  0  0  0  0
    4.6362   -6.6852    0.0000 N   0  0  0  0  0  0  0  0  0  0  0  0
    6.0850   -7.0734    0.0000 C   0  0  0  0  0  0  0  0  0  0  0  0
    7.2508   -6.1294    0.0000 N   0  0  0  0  0  0  0  0  0  0  0  0
    8.5088   -6.9464    0.0000 N   0  0  0  0  0  0  0  0  0  0  0  0
    8.1205   -8.3953    0.0000 N   0  0  0  0  0  0  0  0  0  0  0  0
    6.6226   -8.4738    0.0000 N   0  0  0  0  0  0  0  0  0  0  0  0
    5.8056   -9.7318    0.0000 N   0  0  0  0  0  0  0  0  0  0  0  0
    6.3432  -11.1322    0.0000 C   0  0  0  0  0  0  0  0  0  0  0  0
    5.1775  -12.0761    0.0000 C   0  0  0  0  0  0  0  0  0  0  0  0
    3.9195  -11.2592    0.0000 N   0  0  0  0  0  0  0  0  0  0  0  0
    2.5191  -11.7967    0.0000 C   0  0  0  0  0  0  0  0  0  0  0  0
    2.2844  -13.2783    0.0000 O   0  0  0  0  0  0  0  0  0  0  0  0
    1.3534  -10.8528    0.0000 N   0  0  0  0  0  0  0  0  0  0  0  0
   -0.0470  -11.3903    0.0000 C   0  0  0  0  0  0  0  0  0  0  0  0
   -1.2127  -10.4463    0.0000 N   0  0  0  0  0  0  0  0  0  0  0  0
   -2.6131  -10.9839    0.0000 N   0  0  0  0  0  0  0  0  0  0  0  0
   -2.8477  -12.4654    0.0000 N   0  0  0  0  0  0  0  0  0  0  0  0
   -1.6820  -13.4094    0.0000 N   0  0  0  0  0  0  0  0  0  0  0  0
   -0.2816  -12.8718    0.0000 N   0  0  0  0  0  0  0  0  0  0  0  0
    4.3077   -9.8103    0.0000 C   0  0  0  0  0  0  0  0  0  0  0  0
    3.3637   -8.6446    0.0000 O   0  0  0  0  0  0  0  0  0  0  0  0
    2.7990   -3.3481    0.0000 C   0  0  0  0  0  0  0  0  0  0  0  0
    4.2479   -2.9598    0.0000 O   0  0  0  0  0  0  0  0  0  0  0  0
    2.0490   -2.0490    0.0000 O   0  0  0  0  0  0  0  0  0  0  0  0
    0.7500   -1.2990    0.0000 C   0  0  0  0  0  0  0  0  0  0  0  0
    1.5000    0.0000    0.0000 C   0  0  0  0  0  0  0  0  0  0  0  0
    0.7500    1.2990    0.0000 C   0  0  0  0  0  0  0  0  0  0  0  0
   -0.7500    1.2990    0.0000 C   0  0  0  0  0  0  0  0  0  0  0  0
   -1.5000    0.0000    0.0000 C   0  0  0  0  0  0  0  0  0  0  0  0
   -0.7500   -1.2990    0.0000 C   0  0  0  0  0  0  0  0  0  0  0  0
   -2.0490   -2.0490    0.0000 C   0  0  0  0  0  0  0  0  0  0  0  0
   -2.7990   -0.7500    0.0000 C   0  0  0  0  0  0  0  0  0  0  0  0
   -4.2990   -0.7500    0.0000 C   0  0  0  0  0  0  0  0  0  0  0  0
   -5.0490   -2.0490    0.0000 C   0  0  0  0  0  0  0  0  0  0  0  0
   -4.2990   -3.3481    0.0000 C   0  0  0  0  0  0  0  0  0  0  0  0
   -2.7990   -3.3481    0.0000 C   0  0  0  0  0  0  0  0  0  0  0  0
   -2.7990   -4.8481    0.0000 C   0  0  0  0  0  0  0  0  0  0  0  0
   -4.2990   -4.8481    0.0000 C   0  0  0  0  0  0  0  0  0  0  0  0
   -5.0490   -6.1471    0.0000 C   0  0  0  0  0  0  0  0  0  0  0  0
   -4.2990   -7.4462    0.0000 C   0  0  0  0  0  0  0  0  0  0  0  0
   -2.7990   -7.4462    0.0000 C   0  0  0  0  0  0  0  0  0  0  0  0
   -2.0490   -6.1471    0.0000 C   0  0  0  0  0  0  0  0  0  0  0  0
  1  2  1  0
  2  3  1  0
  3  4  2  0
  4  5  1  0
  5  6  1  0
  6  7  2  0
  6  8  1  0
  8  9  1  0
  9 10  2  0
 10 11  1  0
 11 12  2  0
 12 13  1  0
 13 14  1  0
 14 15  1  0
 15 16  1  0
 16 17  1  0
 17 18  1  0
 18 19  2  0
 18 20  1  0
 20 21  1  0
 21 22  2  0
 22 23  1  0
 23 24  2  0
 24 25  1  0
 25 26  2  0
 17 27  1  0
 27 28  2  0
  5 29  1  0
 29 30  2  0
 29 31  1  0
 31 32  1  0
 32 33  2  0
 33 34  1  0
 34 35  2  0
 35 36  1  0
 36 37  2  0
 37 38  1  0
 38 39  2  0
 39 40  1  0
 40 41  2  0
 41 42  1  0
 42 43  2  0
 43 44  1  0
 44 45  2  0
 45 46  1  0
 46 47  2  0
 47 48  1  0
 48 49  2  0
 49  2  1  0
 13  9  1  0
 27 14  1  0
 37 32  1  0
 43 38  1  0
 49 44  1  0
 26 21  1  0
M  END
>  <Title>  (579) 
idAAUIgen13

$$$$

     RDKit          2D

 18 20  0  0  0  0  0  0  0  0999 V2000
   -5.7691   -4.1439    0.0000 C   0  0  0  0  0  0  0  0  0  0  0  0
   -4.3202   -4.5321    0.0000 C   0  0  0  0  0  0  0  0  0  0  0  0
   -3.2595   -3.4715    0.0000 C   0  0  0  0  0  0  0  0  0  0  0  0
   -1.8107   -3.8597    0.0000 C   0  0  0  0  0  0  0  0  0  0  0  0
   -1.4224   -5.3086    0.0000 O   0  0  0  0  0  0  0  0  0  0  0  0
   -0.7500   -2.7990    0.0000 N   0  0  0  0  0  0  0  0  0  0  0  0
    0.7500   -2.7990    0.0000 C   0  0  0  0  0  0  0  0  0  0  0  0
    0.7500   -1.2990    0.0000 C   0  0  0  0  0  0  0  0  0  0  0  0
    1.5000    0.0000    0.0000 C   0  0  0  0  0  0  0  0  0  0  0  0
    0.7500    1.2990    0.0000 C   0  0  0  0  0  0  0  0  0  0  0  0
   -0.7500    1.2990    0.0000 C   0  0  0  0  0  0  0  0  0  0  0  0
   -1.5000    2.5981    0.0000 N   0  0  0  0  0  0  0  0  0  0  0  0
   -2.9918    2.7549    0.0000 C   0  0  0  0  0  0  0  0  0  0  0  0
   -3.3037    4.2221    0.0000 C   0  0  0  0  0  0  0  0  0  0  0  0
   -2.0046    4.9721    0.0000 C   0  0  0  0  0  0  0  0  0  0  0  0
   -0.8899    3.9684    0.0000 C   0  0  0  0  0  0  0  0  0  0  0  0
   -1.5000    0.0000    0.0000 C   0  0  0  0  0  0  0  0  0  0  0  0
   -0.7500   -1.2990    0.0000 C   0  0  0  0  0  0  0  0  0  0  0  0
  1  2  1  0
  2  3  1  0
  3  4  1  0
  4  5  2  0
  4  6  1  0
  6  7  1  0
  7  8  1  0
  8  9  2  0
  9 10  1  0
 10 11  2  0
 11 12  1  0
 12 13  1  0
 13 14  1  0
 14 15  1  0
 15 16  1  0
 11 17  1  0
 17 18  1  0
 18  6  1  0
 18  8  1  0
 16 12  1  0
M  END
>  <Title>  (580) 
idAAUJgen13

$$$$

     RDKit          2D

 42 42  0  0  0  0  0  0  0  0999 V2000
   55.5000    0.0000    0.0000 C   0  0  0  0  0  0  0  0  0  0  0  0
   54.0000    0.0000    0.0000 C   0  0  0  0  0  0  0  0  0  0  0  0
   52.5000    0.0000    0.0000 C   0  0  0  0  0  0  0  0  0  0  0  0
   51.0000    0.0000    0.0000 C   0  0  0  0  0  0  0  0  0  0  0  0
   49.5000    0.0000    0.0000 C   0  0  0  0  0  0  0  0  0  0  0  0
   48.0000    0.0000    0.0000 C   0  0  0  0  0  0  0  0  0  0  0  0
   46.5000    0.0000    0.0000 C   0  0  0  0  0  0  0  0  0  0  0  0
   45.0000    0.0000    0.0000 C   0  0  0  0  0  0  0  0  0  0  0  0
   43.5000    0.0000    0.0000 C   0  0  0  0  0  0  0  0  0  0  0  0
   42.0000    0.0000    0.0000 C   0  0  0  0  0  0  0  0  0  0  0  0
   40.5000    0.0000    0.0000 C   0  0  0  0  0  0  0  0  0  0  0  0
   39.0000    0.0000    0.0000 C   0  0  0  0  0  0  0  0  0  0  0  0
   37.5000    0.0000    0.0000 C   0  0  0  0  0  0  0  0  0  0  0  0
   36.0000    0.0000    0.0000 C   0  0  0  0  0  0  0  0  0  0  0  0
   34.5000    0.0000    0.0000 C   0  0  0  0  0  0  0  0  0  0  0  0
   33.0000    0.0000    0.0000 C   0  0  0  0  0  0  0  0  0  0  0  0
   31.5000    0.0000    0.0000 C   0  0  0  0  0  0  0  0  0  0  0  0
   30.0000    0.0000    0.0000 C   0  0  0  0  0  0  0  0  0  0  0  0
   28.5000    0.0000    0.0000 C   0  0  0  0  0  0  0  0  0  0  0  0
   27.0000    0.0000    0.0000 C   0  0  0  0  0  0  0  0  0  0  0  0
   25.5000    0.0000    0.0000 C   0  0  0  0  0  0  0  0  0  0  0  0
   24.0000    0.0000    0.0000 C   0  0  0  0  0  0  0  0  0  0  0  0
   22.5000    0.0000    0.0000 C   0  0  0  0  0  0  0  0  0  0  0  0
   21.0000    0.0000    0.0000 C   0  0  0  0  0  0  0  0  0  0  0  0
   19.5000    0.0000    0.0000 C   0  0  0  0  0  0  0  0  0  0  0  0
   18.0000    0.0000    0.0000 C   0  0  0  0  0  0  0  0  0  0  0  0
   16.5000    0.0000    0.0000 C   0  0  0  0  0  0  0  0  0  0  0  0
   15.0000    0.0000    0.0000 C   0  0  0  0  0  0  0  0  0  0  0  0
   13.5000    0.0000    0.0000 C   0  0  0  0  0  0  0  0  0  0  0  0
   12.0000    0.0000    0.0000 C   0  0  0  0  0  0  0  0  0  0  0  0
   10.5000    0.0000    0.0000 C   0  0  0  0  0  0  0  0  0  0  0  0
    9.0000    0.0000    0.0000 C   0  0  0  0  0  0  0  0  0  0  0  0
    7.5000    0.0000    0.0000 C   0  0  0  0  0  0  0  0  0  0  0  0
    6.0000    0.0000    0.0000 C   0  0  0  0  0  0  0  0  0  0  0  0
    4.5000    0.0000    0.0000 C   0  0  0  0  0  0  0  0  0  0  0  0
    3.0000    0.0000    0.0000 C   0  0  0  0  0  0  0  0  0  0  0  0
    1.5000    0.0000    0.0000 C   0  0  0  0  0  0  0  0  0  0  0  0
    0.7500   -1.2990    0.0000 C   0  0  0  0  0  0  0  0  0  0  0  0
   -0.7500   -1.2990    0.0000 C   0  0  0  0  0  0  0  0  0  0  0  0
   -1.5000    0.0000    0.0000 C   0  0  0  0  0  0  0  0  0  0  0  0
   -0.7500    1.2990    0.0000 C   0  0  0  0  0  0  0  0  0  0  0  0
    0.7500    1.2990    0.0000 C   0  0  0  0  0  0  0  0  0  0  0  0
  1  2  3  0
  2  3  1  0
  3  4  3  0
  4  5  1  0
  5  6  3  0
  6  7  1  0
  7  8  3  0
  8  9  1  0
  9 10  3  0
 10 11  1  0
 11 12  3  0
 12 13  1  0
 13 14  3  0
 14 15  1  0
 15 16  3  0
 16 17  1  0
 17 18  3  0
 18 19  1  0
 19 20  3  0
 20 21  1  0
 21 22  3  0
 22 23  1  0
 23 24  3  0
 24 25  1  0
 25 26  3  0
 26 27  1  0
 27 28  3  0
 28 29  1  0
 29 30  3  0
 30 31  1  0
 31 32  3  0
 32 33  1  0
 33 34  3  0
 34 35  1  0
 35 36  3  0
 36 37  1  0
 37 38  2  0
 38 39  1  0
 39 40  2  0
 40 41  1  0
 41 42  2  0
 42 37  1  0
M  END
>  <Title>  (581) 
idAAUKgen13

$$$$

     RDKit          2D

 41 46  0  0  0  0  0  0  0  0999 V2000
   -1.3240   -6.3062    0.0000 C   0  0  0  0  0  0  0  0  0  0  0  0
   -0.7500   -4.9204    0.0000 C   0  0  0  0  0  0  0  0  0  0  0  0
    0.7500   -4.9204    0.0000 C   0  0  0  0  0  0  0  0  0  0  0  0
    1.8107   -3.8597    0.0000 C   0  0  0  0  0  0  0  0  0  0  0  0
    1.8107   -2.3597    0.0000 C   0  0  0  0  0  0  0  0  0  0  0  0
    3.1965   -1.7857    0.0000 C   0  0  0  0  0  0  0  0  0  0  0  0
    3.3923   -0.2985    0.0000 O   0  0  0  0  0  0  0  0  0  0  0  0
    4.3865   -2.6988    0.0000 N   0  0  0  0  0  0  0  0  0  0  0  0
    5.7723   -2.1248    0.0000 C   0  0  0  0  0  0  0  0  0  0  0  0
    6.1225   -0.6662    0.0000 N   0  0  0  0  0  0  0  0  0  0  0  0
    7.6179   -0.5485    0.0000 N   0  0  0  0  0  0  0  0  0  0  0  0
    8.1919   -1.9344    0.0000 N   0  0  0  0  0  0  0  0  0  0  0  0
    7.0513   -2.9085    0.0000 N   0  0  0  0  0  0  0  0  0  0  0  0
    7.1690   -4.4039    0.0000 C   0  0  0  0  0  0  0  0  0  0  0  0
    8.4479   -5.1877    0.0000 C   0  0  0  0  0  0  0  0  0  0  0  0
    8.0978   -6.6462    0.0000 C   0  0  0  0  0  0  0  0  0  0  0  0
    6.6024   -6.7639    0.0000 C   0  0  0  0  0  0  0  0  0  0  0  0
    5.8186   -8.0429    0.0000 O   0  0  0  0  0  0  0  0  0  0  0  0
    4.3192   -8.0036    0.0000 C   0  0  0  0  0  0  0  0  0  0  0  0
    3.6034   -6.6854    0.0000 O   0  0  0  0  0  0  0  0  0  0  0  0
    3.5354   -9.2826    0.0000 N   0  0  0  0  0  0  0  0  0  0  0  0
    2.0359   -9.2433    0.0000 C   0  0  0  0  0  0  0  0  0  0  0  0
    1.3202   -7.9251    0.0000 N   0  0  0  0  0  0  0  0  0  0  0  0
   -0.1793   -7.8858    0.0000 N   0  0  0  0  0  0  0  0  0  0  0  0
   -0.9630   -9.1648    0.0000 N   0  0  0  0  0  0  0  0  0  0  0  0
   -0.2473  -10.4830    0.0000 N   0  0  0  0  0  0  0  0  0  0  0  0
    1.2522  -10.5223    0.0000 N   0  0  0  0  0  0  0  0  0  0  0  0
    6.0284   -5.3781    0.0000 C   0  0  0  0  0  0  0  0  0  0  0  0
    4.5698   -5.0279    0.0000 O   0  0  0  0  0  0  0  0  0  0  0  0
    0.7500   -1.2990    0.0000 C   0  0  0  0  0  0  0  0  0  0  0  0
    1.5000    0.0000    0.0000 C   0  0  0  0  0  0  0  0  0  0  0  0
    0.7500    1.2990    0.0000 C   0  0  0  0  0  0  0  0  0  0  0  0
   -0.7500    1.2990    0.0000 C   0  0  0  0  0  0  0  0  0  0  0  0
   -1.5000    0.0000    0.0000 C   0  0  0  0  0  0  0  0  0  0  0  0
   -0.7500   -1.2990    0.0000 C   0  0  0  0  0  0  0  0  0  0  0  0
   -1.8107   -2.3597    0.0000 C   0  0  0  0  0  0  0  0  0  0  0  0
   -3.1097   -1.6097    0.0000 C   0  0  0  0  0  0  0  0  0  0  0  0
   -4.4087   -2.3597    0.0000 C   0  0  0  0  0  0  0  0  0  0  0  0
   -4.4087   -3.8597    0.0000 C   0  0  0  0  0  0  0  0  0  0  0  0
   -3.1097   -4.6097    0.0000 C   0  0  0  0  0  0  0  0  0  0  0  0
   -1.8107   -3.8597    0.0000 C   0  0  0  0  0  0  0  0  0  0  0  0
  1  2  1  0
  2  3  2  0
  3  4  1  0
  4  5  2  0
  5  6  1  0
  6  7  2  0
  6  8  1  0
  8  9  1  0
  9 10  2  0
 10 11  1  0
 11 12  2  0
 12 13  1  0
 13 14  1  0
 14 15  2  0
 15 16  1  0
 16 17  2  0
 17 18  1  0
 18 19  1  0
 19 20  2  0
 19 21  1  0
 21 22  1  0
 22 23  2  0
 23 24  1  0
 24 25  2  0
 25 26  1  0
 26 27  2  0
 17 28  1  0
 28 29  2  0
  5 30  1  0
 30 31  2  0
 31 32  1  0
 32 33  2  0
 33 34  1  0
 34 35  2  0
 35 36  1  0
 36 37  2  0
 37 38  1  0
 38 39  2  0
 39 40  1  0
 40 41  2  0
 41  2  1  0
 13  9  1  0
 28 14  1  0
 35 30  1  0
 41 36  1  0
 27 22  1  0
M  END
>  <Title>  (582) 
idAAULgen13

$$$$

     RDKit          2D

 12 11  0  0  0  0  0  0  0  0999 V2000
    0.0000    0.0000    0.0000 C   0  0  0  0  0  0  0  0  0  0  0  0
    1.2990    0.7500    0.0000 C   0  0  0  0  0  0  0  0  0  0  0  0
    2.5981   -0.0000    0.0000 C   0  0  0  0  0  0  0  0  0  0  0  0
    3.8971    0.7500    0.0000 N   0  0  0  0  0  0  0  0  0  0  0  0
    5.1962   -0.0000    0.0000 C   0  0  0  0  0  0  0  0  0  0  0  0
    5.1962   -1.5000    0.0000 O   0  0  0  0  0  0  0  0  0  0  0  0
    6.4952    0.7500    0.0000 N   0  0  0  0  0  0  0  0  0  0  0  0
    7.7942   -0.0000    0.0000 C   0  0  0  0  0  0  0  0  0  0  0  0
    9.0933    0.7500    0.0000 C   0  0  0  0  0  0  0  0  0  0  0  0
   10.3923   -0.0000    0.0000 C   0  0  0  0  0  0  0  0  0  0  0  0
   11.6913    0.7500    0.0000 C   0  0  0  0  0  0  0  0  0  0  0  0
   12.9904    1.5000    0.0000 N   0  0  0  0  0  0  0  0  0  0  0  0
  1  2  1  0
  2  3  1  0
  3  4  1  0
  4  5  1  0
  5  6  2  0
  5  7  1  0
  7  8  1  0
  8  9  1  0
  9 10  2  3
 10 11  1  0
 11 12  3  0
M  END
>  <Title>  (583) 
idAAUMgen13

$$$$

     RDKit          2D

 97 98  0  0  0  0  0  0  0  0999 V2000
   -2.1701   -1.0823    0.0000 C   0  0  0  0  0  0  0  0  0  0  0  0
   -2.4869    0.3838    0.0000 C   0  0  0  0  0  0  0  0  0  0  0  0
   -3.9629    0.1167    0.0000 C   0  0  0  0  0  0  0  0  0  0  0  0
   -5.4536   -0.0502    0.0000 C   0  0  0  0  0  0  0  0  0  0  0  0
   -6.9522   -0.1160    0.0000 C   0  0  0  0  0  0  0  0  0  0  0  0
   -8.4518   -0.0805    0.0000 C   0  0  0  0  0  0  0  0  0  0  0  0
   -9.9455    0.0561    0.0000 C   0  0  0  0  0  0  0  0  0  0  0  0
  -11.4267    0.2932    0.0000 C   0  0  0  0  0  0  0  0  0  0  0  0
  -12.8884    0.6298    0.0000 C   0  0  0  0  0  0  0  0  0  0  0  0
  -14.3241    1.0644    0.0000 C   0  0  0  0  0  0  0  0  0  0  0  0
  -15.7272    1.5948    0.0000 C   0  0  0  0  0  0  0  0  0  0  0  0
  -17.0912    2.2188    0.0000 C   0  0  0  0  0  0  0  0  0  0  0  0
  -18.4101    2.9334    0.0000 C   0  0  0  0  0  0  0  0  0  0  0  0
  -19.6776    3.7354    0.0000 C   0  0  0  0  0  0  0  0  0  0  0  0
  -20.8882    4.6212    0.0000 C   0  0  0  0  0  0  0  0  0  0  0  0
  -22.0362    5.5867    0.0000 C   0  0  0  0  0  0  0  0  0  0  0  0
  -23.1163    6.6274    0.0000 C   0  0  0  0  0  0  0  0  0  0  0  0
  -24.1238    7.7388    0.0000 C   0  0  0  0  0  0  0  0  0  0  0  0
  -25.0539    8.9156    0.0000 C   0  0  0  0  0  0  0  0  0  0  0  0
  -25.9025   10.1525    0.0000 C   0  0  0  0  0  0  0  0  0  0  0  0
  -26.6656   11.4438    0.0000 C   0  0  0  0  0  0  0  0  0  0  0  0
  -27.3398   12.7838    0.0000 C   0  0  0  0  0  0  0  0  0  0  0  0
  -27.9220   14.1662    0.0000 C   0  0  0  0  0  0  0  0  0  0  0  0
  -28.4096   15.5847    0.0000 C   0  0  0  0  0  0  0  0  0  0  0  0
  -28.8003   17.0330    0.0000 C   0  0  0  0  0  0  0  0  0  0  0  0
  -29.0923   18.5043    0.0000 C   0  0  0  0  0  0  0  0  0  0  0  0
  -29.2843   19.9919    0.0000 C   0  0  0  0  0  0  0  0  0  0  0  0
  -29.3754   21.4892    0.0000 C   0  0  0  0  0  0  0  0  0  0  0  0
  -29.3653   22.9891    0.0000 C   0  0  0  0  0  0  0  0  0  0  0  0
  -29.2539   24.4850    0.0000 C   0  0  0  0  0  0  0  0  0  0  0  0
  -29.0418   25.9699    0.0000 C   0  0  0  0  0  0  0  0  0  0  0  0
  -28.7300   27.4371    0.0000 C   0  0  0  0  0  0  0  0  0  0  0  0
  -28.3198   28.8799    0.0000 C   0  0  0  0  0  0  0  0  0  0  0  0
  -27.8131   30.2918    0.0000 C   0  0  0  0  0  0  0  0  0  0  0  0
  -27.2122   31.6662    0.0000 C   0  0  0  0  0  0  0  0  0  0  0  0
  -26.5200   32.9969    0.0000 C   0  0  0  0  0  0  0  0  0  0  0  0
  -25.7395   34.2778    0.0000 C   0  0  0  0  0  0  0  0  0  0  0  0
  -24.8743   35.5032    0.0000 C   0  0  0  0  0  0  0  0  0  0  0  0
  -23.9283   36.6673    0.0000 C   0  0  0  0  0  0  0  0  0  0  0  0
  -22.9060   37.7649    0.0000 C   0  0  0  0  0  0  0  0  0  0  0  0
  -21.8118   38.7910    0.0000 C   0  0  0  0  0  0  0  0  0  0  0  0
  -20.6509   39.7409    0.0000 C   0  0  0  0  0  0  0  0  0  0  0  0
  -19.4285   40.6102    0.0000 C   0  0  0  0  0  0  0  0  0  0  0  0
  -18.1502   41.3950    0.0000 C   0  0  0  0  0  0  0  0  0  0  0  0
  -16.8218   42.0918    0.0000 C   0  0  0  0  0  0  0  0  0  0  0  0
  -15.4495   42.6972    0.0000 C   0  0  0  0  0  0  0  0  0  0  0  0
  -14.0394   43.2087    0.0000 C   0  0  0  0  0  0  0  0  0  0  0  0
  -12.5979   43.6238    0.0000 C   0  0  0  0  0  0  0  0  0  0  0  0
  -11.1318   43.9406    0.0000 C   0  0  0  0  0  0  0  0  0  0  0  0
   -9.6476   44.1577    0.0000 C   0  0  0  0  0  0  0  0  0  0  0  0
   -8.1521   44.2741    0.0000 C   0  0  0  0  0  0  0  0  0  0  0  0
   -6.6522   44.2893    0.0000 C   0  0  0  0  0  0  0  0  0  0  0  0
   -5.1546   44.2032    0.0000 C   0  0  0  0  0  0  0  0  0  0  0  0
   -3.6663   44.0162    0.0000 C   0  0  0  0  0  0  0  0  0  0  0  0
   -2.1941   43.7292    0.0000 C   0  0  0  0  0  0  0  0  0  0  0  0
   -0.7445   43.3434    0.0000 C   0  0  0  0  0  0  0  0  0  0  0  0
    0.6757   42.8607    0.0000 C   0  0  0  0  0  0  0  0  0  0  0  0
    2.0600   42.2831    0.0000 C   0  0  0  0  0  0  0  0  0  0  0  0
    3.4022   41.6134    0.0000 C   0  0  0  0  0  0  0  0  0  0  0  0
    4.6962   40.8547    0.0000 C   0  0  0  0  0  0  0  0  0  0  0  0
    5.9360   40.0103    0.0000 C   0  0  0  0  0  0  0  0  0  0  0  0
    7.1159   39.0842    0.0000 C   0  0  0  0  0  0  0  0  0  0  0  0
    8.2306   38.0805    0.0000 C   0  0  0  0  0  0  0  0  0  0  0  0
    9.2750   37.0038    0.0000 C   0  0  0  0  0  0  0  0  0  0  0  0
   10.2444   35.8591    0.0000 C   0  0  0  0  0  0  0  0  0  0  0  0
   11.1342   34.6515    0.0000 C   0  0  0  0  0  0  0  0  0  0  0  0
   11.9405   33.3867    0.0000 C   0  0  0  0  0  0  0  0  0  0  0  0
   12.6596   32.0703    0.0000 C   0  0  0  0  0  0  0  0  0  0  0  0
   13.2882   30.7083    0.0000 C   0  0  0  0  0  0  0  0  0  0  0  0
   13.8234   29.3071    0.0000 C   0  0  0  0  0  0  0  0  0  0  0  0
   14.2627   27.8728    0.0000 C   0  0  0  0  0  0  0  0  0  0  0  0
   14.6043   26.4122    0.0000 C   0  0  0  0  0  0  0  0  0  0  0  0
   14.8464   24.9319    0.0000 C   0  0  0  0  0  0  0  0  0  0  0  0
   14.9881   23.4386    0.0000 C   0  0  0  0  0  0  0  0  0  0  0  0
   15.0286   21.9392    0.0000 C   0  0  0  0  0  0  0  0  0  0  0  0
   14.9678   20.4404    0.0000 C   0  0  0  0  0  0  0  0  0  0  0  0
   14.8060   18.9492    0.0000 C   0  0  0  0  0  0  0  0  0  0  0  0
   14.5439   17.4722    0.0000 C   0  0  0  0  0  0  0  0  0  0  0  0
   14.1826   16.0164    0.0000 C   0  0  0  0  0  0  0  0  0  0  0  0
   13.7239   14.5882    0.0000 C   0  0  0  0  0  0  0  0  0  0  0  0
   13.1698   13.1943    0.0000 C   0  0  0  0  0  0  0  0  0  0  0  0
   12.5229   11.8410    0.0000 C   0  0  0  0  0  0  0  0  0  0  0  0
   11.7861   10.5344    0.0000 C   0  0  0  0  0  0  0  0  0  0  0  0
   10.9628    9.2806    0.0000 C   0  0  0  0  0  0  0  0  0  0  0  0
   10.0567    8.0852    0.0000 C   0  0  0  0  0  0  0  0  0  0  0  0
    9.0720    6.9537    0.0000 C   0  0  0  0  0  0  0  0  0  0  0  0
    8.0131    5.8912    0.0000 C   0  0  0  0  0  0  0  0  0  0  0  0
    6.8850    4.9027    0.0000 C   0  0  0  0  0  0  0  0  0  0  0  0
    5.6926    3.9925    0.0000 C   0  0  0  0  0  0  0  0  0  0  0  0
    4.4416    3.1650    0.0000 C   0  0  0  0  0  0  0  0  0  0  0  0
    3.1375    2.4238    0.0000 C   0  0  0  0  0  0  0  0  0  0  0  0
    1.7863    1.7723    0.0000 C   0  0  0  0  0  0  0  0  0  0  0  0
    0.3943    1.2135    0.0000 C   0  0  0  0  0  0  0  0  0  0  0  0
    1.2760    0.0000    0.0000 C   0  0  0  0  0  0  0  0  0  0  0  0
    0.3943   -1.2135    0.0000 C   0  0  0  0  0  0  0  0  0  0  0  0
   -1.0323   -0.7500    0.0000 C   0  0  0  0  0  0  0  0  0  0  0  0
   -1.0323    0.7500    0.0000 C   0  0  0  0  0  0  0  0  0  0  0  0
  1  2  1  0
  2  3  1  0
  3  4  1  0
  4  5  1  0
  5  6  1  0
  6  7  1  0
  7  8  1  0
  8  9  1  0
  9 10  1  0
 10 11  1  0
 11 12  1  0
 12 13  1  0
 13 14  1  0
 14 15  1  0
 15 16  1  0
 16 17  1  0
 17 18  1  0
 18 19  1  0
 19 20  1  0
 20 21  1  0
 21 22  1  0
 22 23  1  0
 23 24  1  0
 24 25  1  0
 25 26  1  0
 26 27  1  0
 27 28  1  0
 28 29  1  0
 29 30  1  0
 30 31  1  0
 31 32  1  0
 32 33  1  0
 33 34  1  0
 34 35  1  0
 35 36  1  0
 36 37  1  0
 37 38  1  0
 38 39  1  0
 39 40  1  0
 40 41  1  0
 41 42  1  0
 42 43  1  0
 43 44  1  0
 44 45  1  0
 45 46  1  0
 46 47  1  0
 47 48  1  0
 48 49  1  0
 49 50  1  0
 50 51  1  0
 51 52  1  0
 52 53  1  0
 53 54  1  0
 54 55  2  0
 55 56  1  0
 56 57  2  0
 57 58  1  0
 58 59  2  0
 59 60  1  0
 60 61  2  0
 61 62  1  0
 62 63  2  0
 63 64  1  0
 64 65  2  0
 65 66  1  0
 66 67  2  0
 67 68  1  0
 68 69  2  0
 69 70  1  0
 70 71  2  0
 71 72  1  0
 72 73  2  0
 73 74  1  0
 74 75  2  0
 75 76  1  0
 76 77  2  0
 77 78  1  0
 78 79  2  0
 79 80  1  0
 80 81  2  0
 81 82  1  0
 82 83  2  0
 83 84  1  0
 84 85  2  0
 85 86  1  0
 86 87  2  0
 87 88  1  0
 88 89  2  0
 89 90  1  0
 90 91  2  0
 91 92  1  0
 92 93  2  0
 93 94  1  0
 94 95  2  0
 95 96  1  0
 96 97  2  0
 97  2  1  0
 97 93  1  0
M  END
>  <Title>  (584) 
idAAUNgen13

$$$$

     RDKit          2D

  7  6  0  0  0  0  0  0  0  0999 V2000
    0.0000    0.0000    0.0000 C   0  0  0  0  0  0  0  0  0  0  0  0
   -0.0000   -1.5000    0.0000 C   0  0  0  0  0  0  0  0  0  0  0  0
   -0.0000   -3.0000    0.0000 C   0  0  0  0  0  0  0  0  0  0  0  0
    1.2990   -3.7500    0.0000 C   0  0  0  0  0  0  0  0  0  0  0  0
    1.2990   -5.2500    0.0000 C   0  0  0  0  0  0  0  0  0  0  0  0
    2.5981   -6.0000    0.0000 C   0  0  0  0  0  0  0  0  0  0  0  0
   -0.0000   -6.0000    0.0000 O   0  0  0  0  0  0  0  0  0  0  0  0
  1  2  3  0
  2  3  1  0
  3  4  1  0
  4  5  1  0
  5  6  1  0
  5  7  2  0
M  END
>  <Title>  (585) 
idAAUOgen13

$$$$

     RDKit          2D

 37 41  0  0  0  0  0  0  0  0999 V2000
   -7.5000   -2.5981    0.0000 C   0  0  0  0  0  0  0  0  0  0  0  0
   -6.0000   -2.5981    0.0000 C   0  0  0  0  0  0  0  0  0  0  0  0
   -4.5000   -2.5981    0.0000 C   0  0  0  0  0  0  0  0  0  0  0  0
   -3.0000   -2.5981    0.0000 C   0  0  0  0  0  0  0  0  0  0  0  0
   -1.5000   -2.5981    0.0000 C   0  0  0  0  0  0  0  0  0  0  0  0
   -0.7500   -3.8971    0.0000 C   0  0  0  0  0  0  0  0  0  0  0  0
    0.7500   -3.8971    0.0000 C   0  0  0  0  0  0  0  0  0  0  0  0
    1.5000   -2.5981    0.0000 C   0  0  0  0  0  0  0  0  0  0  0  0
    3.0000   -2.5981    0.0000 C   0  0  0  0  0  0  0  0  0  0  0  0
    3.7500   -1.2990    0.0000 O   0  0  0  0  0  0  0  0  0  0  0  0
    3.7500   -3.8971    0.0000 N   0  0  0  0  0  0  0  0  0  0  0  0
    5.2500   -3.8971    0.0000 C   0  0  0  0  0  0  0  0  0  0  0  0
    6.1317   -2.6836    0.0000 N   0  0  0  0  0  0  0  0  0  0  0  0
    7.5583   -3.1471    0.0000 N   0  0  0  0  0  0  0  0  0  0  0  0
    7.5583   -4.6471    0.0000 N   0  0  0  0  0  0  0  0  0  0  0  0
    6.1317   -5.1106    0.0000 N   0  0  0  0  0  0  0  0  0  0  0  0
    5.6682   -6.5372    0.0000 C   0  0  0  0  0  0  0  0  0  0  0  0
    6.5498   -7.7508    0.0000 C   0  0  0  0  0  0  0  0  0  0  0  0
    5.6682   -8.9643    0.0000 C   0  0  0  0  0  0  0  0  0  0  0  0
    4.2416   -8.5008    0.0000 C   0  0  0  0  0  0  0  0  0  0  0  0
    3.0280   -9.3824    0.0000 C   0  0  0  0  0  0  0  0  0  0  0  0
    3.1848  -10.8742    0.0000 O   0  0  0  0  0  0  0  0  0  0  0  0
    1.6577   -8.7723    0.0000 N   0  0  0  0  0  0  0  0  0  0  0  0
    0.4442   -9.6540    0.0000 C   0  0  0  0  0  0  0  0  0  0  0  0
   -0.9261   -9.0439    0.0000 N   0  0  0  0  0  0  0  0  0  0  0  0
   -2.1396   -9.9256    0.0000 N   0  0  0  0  0  0  0  0  0  0  0  0
   -1.9829  -11.4174    0.0000 N   0  0  0  0  0  0  0  0  0  0  0  0
   -0.6125  -12.0275    0.0000 N   0  0  0  0  0  0  0  0  0  0  0  0
    0.6010  -11.1458    0.0000 N   0  0  0  0  0  0  0  0  0  0  0  0
    4.2416   -7.0008    0.0000 C   0  0  0  0  0  0  0  0  0  0  0  0
    3.0280   -6.1191    0.0000 O   0  0  0  0  0  0  0  0  0  0  0  0
    0.7500   -1.2990    0.0000 C   0  0  0  0  0  0  0  0  0  0  0  0
    1.5000    0.0000    0.0000 C   0  0  0  0  0  0  0  0  0  0  0  0
    0.7500    1.2990    0.0000 C   0  0  0  0  0  0  0  0  0  0  0  0
   -0.7500    1.2990    0.0000 C   0  0  0  0  0  0  0  0  0  0  0  0
   -1.5000    0.0000    0.0000 C   0  0  0  0  0  0  0  0  0  0  0  0
   -0.7500   -1.2990    0.0000 C   0  0  0  0  0  0  0  0  0  0  0  0
  1  2  3  0
  2  3  1  0
  3  4  3  0
  4  5  1  0
  5  6  2  0
  6  7  1  0
  7  8  2  0
  8  9  1  0
  9 10  2  0
  9 11  1  0
 11 12  1  0
 12 13  2  0
 13 14  1  0
 14 15  2  0
 15 16  1  0
 16 17  1  0
 17 18  2  0
 18 19  1  0
 19 20  2  0
 20 21  1  0
 21 22  2  0
 21 23  1  0
 23 24  1  0
 24 25  2  0
 25 26  1  0
 26 27  2  0
 27 28  1  0
 28 29  2  0
 20 30  1  0
 30 31  2  0
  8 32  1  0
 32 33  2  0
 33 34  1  0
 34 35  2  0
 35 36  1  0
 36 37  2  0
 37  5  1  0
 16 12  1  0
 30 17  1  0
 37 32  1  0
 29 24  1  0
M  END
>  <Title>  (586) 
idAAUPgen13

$$$$

     RDKit          2D

 30 29  0  0  0  0  0  0  0  0999 V2000
    0.0000    0.0000    0.0000 C   0  0  0  0  0  0  0  0  0  0  0  0
   -0.0000   -1.5000    0.0000 C   0  0  0  0  0  0  0  0  0  0  0  0
   -0.0000   -3.0000    0.0000 C   0  0  0  0  0  0  0  0  0  0  0  0
   -0.0000   -4.5000    0.0000 C   0  0  0  0  0  0  0  0  0  0  0  0
   -0.0000   -6.0000    0.0000 C   0  0  0  0  0  0  0  0  0  0  0  0
   -0.0000   -7.5000    0.0000 C   0  0  0  0  0  0  0  0  0  0  0  0
   -0.0000   -9.0000    0.0000 C   0  0  0  0  0  0  0  0  0  0  0  0
   -0.0000  -10.5000    0.0000 C   0  0  0  0  0  0  0  0  0  0  0  0
   -0.0000  -12.0000    0.0000 C   0  0  0  0  0  0  0  0  0  0  0  0
   -0.0000  -13.5000    0.0000 C   0  0  0  0  0  0  0  0  0  0  0  0
   -0.0000  -15.0000    0.0000 C   0  0  0  0  0  0  0  0  0  0  0  0
   -0.0000  -16.5000    0.0000 C   0  0  0  0  0  0  0  0  0  0  0  0
   -0.0000  -18.0000    0.0000 C   0  0  0  0  0  0  0  0  0  0  0  0
   -0.0000  -19.5000    0.0000 C   0  0  0  0  0  0  0  0  0  0  0  0
   -0.0000  -21.0000    0.0000 C   0  0  0  0  0  0  0  0  0  0  0  0
   -0.0000  -22.5000    0.0000 C   0  0  0  0  0  0  0  0  0  0  0  0
   -0.0000  -24.0000    0.0000 C   0  0  0  0  0  0  0  0  0  0  0  0
   -0.0000  -25.5000    0.0000 C   0  0  0  0  0  0  0  0  0  0  0  0
   -0.0000  -27.0000    0.0000 C   0  0  0  0  0  0  0  0  0  0  0  0
   -0.0000  -28.5000    0.0000 C   0  0  0  0  0  0  0  0  0  0  0  0
   -0.0000  -30.0000    0.0000 C   0  0  0  0  0  0  0  0  0  0  0  0
   -0.0000  -31.5000    0.0000 C   0  0  0  0  0  0  0  0  0  0  0  0
   -0.0000  -33.0000    0.0000 C   0  0  0  0  0  0  0  0  0  0  0  0
   -0.0000  -34.5000    0.0000 C   0  0  0  0  0  0  0  0  0  0  0  0
   -0.0000  -36.0000    0.0000 C   0  0  0  0  0  0  0  0  0  0  0  0
   -0.0000  -37.5000    0.0000 C   0  0  0  0  0  0  0  0  0  0  0  0
   -0.0000  -39.0000    0.0000 C   0  0  0  0  0  0  0  0  0  0  0  0
   -0.0000  -40.5000    0.0000 C   0  0  0  0  0  0  0  0  0  0  0  0
   -0.0000  -42.0000    0.0000 C   0  0  0  0  0  0  0  0  0  0  0  0
    1.2990  -42.7500    0.0000 C   0  0  0  0  0  0  0  0  0  0  0  0
  1  2  3  0
  2  3  1  0
  3  4  3  0
  4  5  1  0
  5  6  3  0
  6  7  1  0
  7  8  3  0
  8  9  1  0
  9 10  3  0
 10 11  1  0
 11 12  3  0
 12 13  1  0
 13 14  3  0
 14 15  1  0
 15 16  3  0
 16 17  1  0
 17 18  3  0
 18 19  1  0
 19 20  3  0
 20 21  1  0
 21 22  3  0
 22 23  1  0
 23 24  3  0
 24 25  1  0
 25 26  3  0
 26 27  1  0
 27 28  3  0
 28 29  1  0
 29 30  2  0
M  END
>  <Title>  (587) 
idAAUQgen13

$$$$

     RDKit          2D

 61 63  0  0  0  0  0  0  0  0999 V2000
   -2.5048   -0.0001    0.0000 C   0  0  0  0  0  0  0  0  0  0  0  0
   -2.2395   -1.4764    0.0000 C   0  0  0  0  0  0  0  0  0  0  0  0
   -3.6975   -1.8288    0.0000 C   0  0  0  0  0  0  0  0  0  0  0  0
   -5.1036   -2.3511    0.0000 C   0  0  0  0  0  0  0  0  0  0  0  0
   -6.4381   -3.0360    0.0000 C   0  0  0  0  0  0  0  0  0  0  0  0
   -7.6822   -3.8740    0.0000 C   0  0  0  0  0  0  0  0  0  0  0  0
   -8.8185   -4.8532    0.0000 C   0  0  0  0  0  0  0  0  0  0  0  0
   -9.8310   -5.9600    0.0000 C   0  0  0  0  0  0  0  0  0  0  0  0
  -10.7054   -7.1787    0.0000 C   0  0  0  0  0  0  0  0  0  0  0  0
  -11.4296   -8.4923    0.0000 C   0  0  0  0  0  0  0  0  0  0  0  0
  -11.9934   -9.8823    0.0000 C   0  0  0  0  0  0  0  0  0  0  0  0
  -12.3888  -11.3293    0.0000 C   0  0  0  0  0  0  0  0  0  0  0  0
  -12.6102  -12.8129    0.0000 C   0  0  0  0  0  0  0  0  0  0  0  0
  -12.6547  -14.3122    0.0000 C   0  0  0  0  0  0  0  0  0  0  0  0
  -12.5215  -15.8063    0.0000 C   0  0  0  0  0  0  0  0  0  0  0  0
  -12.2125  -17.2741    0.0000 C   0  0  0  0  0  0  0  0  0  0  0  0
  -11.7321  -18.6951    0.0000 C   0  0  0  0  0  0  0  0  0  0  0  0
  -11.0870  -20.0493    0.0000 C   0  0  0  0  0  0  0  0  0  0  0  0
  -10.2863  -21.3177    0.0000 C   0  0  0  0  0  0  0  0  0  0  0  0
   -9.3411  -22.4825    0.0000 C   0  0  0  0  0  0  0  0  0  0  0  0
   -8.2649  -23.5273    0.0000 C   0  0  0  0  0  0  0  0  0  0  0  0
   -7.0726  -24.4375    0.0000 C   0  0  0  0  0  0  0  0  0  0  0  0
   -5.7810  -25.2003    0.0000 C   0  0  0  0  0  0  0  0  0  0  0  0
   -4.4083  -25.8050    0.0000 C   0  0  0  0  0  0  0  0  0  0  0  0
   -2.9737  -26.2431    0.0000 C   0  0  0  0  0  0  0  0  0  0  0  0
   -1.4974  -26.5084    0.0000 C   0  0  0  0  0  0  0  0  0  0  0  0
   -0.0000  -26.5973    0.0000 C   0  0  0  0  0  0  0  0  0  0  0  0
    1.4974  -26.5084    0.0000 C   0  0  0  0  0  0  0  0  0  0  0  0
    2.9737  -26.2431    0.0000 C   0  0  0  0  0  0  0  0  0  0  0  0
    4.4083  -25.8050    0.0000 C   0  0  0  0  0  0  0  0  0  0  0  0
    5.7810  -25.2003    0.0000 C   0  0  0  0  0  0  0  0  0  0  0  0
    7.0726  -24.4375    0.0000 C   0  0  0  0  0  0  0  0  0  0  0  0
    8.2649  -23.5273    0.0000 C   0  0  0  0  0  0  0  0  0  0  0  0
    9.3411  -22.4825    0.0000 C   0  0  0  0  0  0  0  0  0  0  0  0
   10.2863  -21.3177    0.0000 C   0  0  0  0  0  0  0  0  0  0  0  0
   11.0870  -20.0493    0.0000 C   0  0  0  0  0  0  0  0  0  0  0  0
   11.7321  -18.6951    0.0000 C   0  0  0  0  0  0  0  0  0  0  0  0
   12.2125  -17.2741    0.0000 C   0  0  0  0  0  0  0  0  0  0  0  0
   12.5215  -15.8063    0.0000 C   0  0  0  0  0  0  0  0  0  0  0  0
   12.6547  -14.3122    0.0000 C   0  0  0  0  0  0  0  0  0  0  0  0
   12.6102  -12.8129    0.0000 C   0  0  0  0  0  0  0  0  0  0  0  0
   12.3888  -11.3293    0.0000 C   0  0  0  0  0  0  0  0  0  0  0  0
   11.9934   -9.8823    0.0000 C   0  0  0  0  0  0  0  0  0  0  0  0
   11.4296   -8.4923    0.0000 C   0  0  0  0  0  0  0  0  0  0  0  0
   10.7054   -7.1787    0.0000 C   0  0  0  0  0  0  0  0  0  0  0  0
    9.8310   -5.9600    0.0000 C   0  0  0  0  0  0  0  0  0  0  0  0
    8.8185   -4.8532    0.0000 C   0  0  0  0  0  0  0  0  0  0  0  0
    7.6822   -3.8740    0.0000 C   0  0  0  0  0  0  0  0  0  0  0  0
    6.4381   -3.0360    0.0000 C   0  0  0  0  0  0  0  0  0  0  0  0
    5.1036   -2.3511    0.0000 C   0  0  0  0  0  0  0  0  0  0  0  0
    3.6975   -1.8288    0.0000 C   0  0  0  0  0  0  0  0  0  0  0  0
    3.8130   -3.3243    0.0000 C   0  0  0  0  0  0  0  0  0  0  0  0
    2.4263   -3.8963    0.0000 C   0  0  0  0  0  0  0  0  0  0  0  0
    1.4538   -2.7542    0.0000 C   0  0  0  0  0  0  0  0  0  0  0  0
    2.2395   -1.4764    0.0000 C   0  0  0  0  0  0  0  0  0  0  0  0
    0.7500   -1.2990    0.0000 C   0  0  0  0  0  0  0  0  0  0  0  0
    1.5000    0.0000    0.0000 C   0  0  0  0  0  0  0  0  0  0  0  0
    0.7500    1.2990    0.0000 C   0  0  0  0  0  0  0  0  0  0  0  0
   -0.7500    1.2990    0.0000 C   0  0  0  0  0  0  0  0  0  0  0  0
   -1.5000    0.0000    0.0000 C   0  0  0  0  0  0  0  0  0  0  0  0
   -0.7500   -1.2990    0.0000 C   0  0  0  0  0  0  0  0  0  0  0  0
  1  2  1  0
  2  3  1  0
  3  4  2  0
  4  5  1  0
  5  6  1  0
  6  7  1  0
  7  8  1  0
  8  9  1  0
  9 10  1  0
 10 11  1  0
 11 12  1  0
 12 13  1  0
 13 14  1  0
 14 15  1  0
 15 16  1  0
 16 17  1  0
 17 18  1  0
 18 19  1  0
 19 20  1  0
 20 21  1  0
 21 22  1  0
 22 23  1  0
 23 24  1  0
 24 25  1  0
 25 26  1  0
 26 27  1  0
 27 28  1  0
 28 29  1  0
 29 30  1  0
 30 31  1  0
 31 32  1  0
 32 33  1  0
 33 34  1  0
 34 35  1  0
 35 36  1  0
 36 37  1  0
 37 38  1  0
 38 39  1  0
 39 40  1  0
 40 41  1  0
 41 42  1  0
 42 43  1  0
 43 44  1  0
 44 45  1  0
 45 46  1  0
 46 47  2  0
 47 48  1  0
 48 49  2  0
 49 50  1  0
 50 51  2  0
 51 52  1  0
 52 53  2  0
 53 54  1  0
 54 55  2  0
 55 56  1  0
 56 57  2  0
 57 58  1  0
 58 59  2  0
 59 60  1  0
 60 61  2  0
 61  2  1  0
 55 51  1  0
 61 56  1  0
M  END
>  <Title>  (588) 
idAAURgen13

$$$$

     RDKit          2D

 30 34  0  0  0  0  0  0  0  0999 V2000
   -3.0000   -2.5981    0.0000 C   0  0  0  0  0  0  0  0  0  0  0  0
   -1.5000   -2.5981    0.0000 C   0  0  0  0  0  0  0  0  0  0  0  0
   -0.7500   -3.8971    0.0000 C   0  0  0  0  0  0  0  0  0  0  0  0
    0.7500   -3.8971    0.0000 C   0  0  0  0  0  0  0  0  0  0  0  0
    1.5000   -2.5981    0.0000 C   0  0  0  0  0  0  0  0  0  0  0  0
    3.0000   -2.5981    0.0000 N   0  0  0  0  0  0  0  0  0  0  0  0
    3.8817   -1.3846    0.0000 C   0  0  0  0  0  0  0  0  0  0  0  0
    5.3083   -1.8481    0.0000 C   0  0  0  0  0  0  0  0  0  0  0  0
    5.3083   -3.3481    0.0000 N   0  0  0  0  0  0  0  0  0  0  0  0
    3.8817   -3.8116    0.0000 N   0  0  0  0  0  0  0  0  0  0  0  0
    3.4182   -5.2382    0.0000 C   0  0  0  0  0  0  0  0  0  0  0  0
    4.2998   -6.4517    0.0000 C   0  0  0  0  0  0  0  0  0  0  0  0
    3.4182   -7.6652    0.0000 C   0  0  0  0  0  0  0  0  0  0  0  0
    1.9916   -7.2017    0.0000 C   0  0  0  0  0  0  0  0  0  0  0  0
    0.7780   -8.0834    0.0000 N   0  0  0  0  0  0  0  0  0  0  0  0
   -0.5923   -7.4733    0.0000 N   0  0  0  0  0  0  0  0  0  0  0  0
   -1.7365   -8.4432    0.0000 C   0  0  0  0  0  0  0  0  0  0  0  0
   -3.2082   -8.1533    0.0000 N   0  0  0  0  0  0  0  0  0  0  0  0
   -3.8992   -6.8219    0.0000 N   0  0  0  0  0  0  0  0  0  0  0  0
   -3.2891   -5.4516    0.0000 N   0  0  0  0  0  0  0  0  0  0  0  0
   -1.8373   -5.0742    0.0000 N   0  0  0  0  0  0  0  0  0  0  0  0
   -0.6371   -5.9740    0.0000 N   0  0  0  0  0  0  0  0  0  0  0  0
    1.9916   -5.7017    0.0000 C   0  0  0  0  0  0  0  0  0  0  0  0
    0.7780   -4.8200    0.0000 O   0  0  0  0  0  0  0  0  0  0  0  0
    0.7500   -1.2990    0.0000 C   0  0  0  0  0  0  0  0  0  0  0  0
    1.5000    0.0000    0.0000 C   0  0  0  0  0  0  0  0  0  0  0  0
    0.7500    1.2990    0.0000 C   0  0  0  0  0  0  0  0  0  0  0  0
   -0.7500    1.2990    0.0000 C   0  0  0  0  0  0  0  0  0  0  0  0
   -1.5000    0.0000    0.0000 C   0  0  0  0  0  0  0  0  0  0  0  0
   -0.7500   -1.2990    0.0000 C   0  0  0  0  0  0  0  0  0  0  0  0
  1  2  1  0
  2  3  2  0
  3  4  1  0
  4  5  2  0
  5  6  1  0
  6  7  1  0
  7  8  1  0
  8  9  1  0
  9 10  1  0
 10 11  1  0
 11 12  2  0
 12 13  1  0
 13 14  2  0
 14 15  1  0
 15 16  1  0
 16 17  1  0
 17 18  2  0
 18 19  1  0
 19 20  2  0
 20 21  1  0
 21 22  2  0
 14 23  1  0
 23 24  2  0
  5 25  1  0
 25 26  2  0
 26 27  1  0
 27 28  2  0
 28 29  1  0
 29 30  2  0
 30  2  1  0
 10  6  1  0
 23 11  1  0
 30 25  1  0
 22 16  1  0
M  END
>  <Title>  (589) 
idAAUSgen13

$$$$

     RDKit          2D

 95 96  0  0  0  0  0  0  0  0999 V2000
    7.5870   -4.3663    0.0000 C   0  0  0  0  0  0  0  0  0  0  0  0
    8.3812   -4.4344    0.0000 C   0  0  0  0  0  0  0  0  0  0  0  0
    8.3342   -5.9336    0.0000 C   0  0  0  0  0  0  0  0  0  0  0  0
    8.4495   -7.4292    0.0000 C   0  0  0  0  0  0  0  0  0  0  0  0
    8.7259   -8.9035    0.0000 C   0  0  0  0  0  0  0  0  0  0  0  0
    9.1601  -10.3393    0.0000 C   0  0  0  0  0  0  0  0  0  0  0  0
    9.7469  -11.7197    0.0000 C   0  0  0  0  0  0  0  0  0  0  0  0
   10.4795  -13.0286    0.0000 C   0  0  0  0  0  0  0  0  0  0  0  0
   11.3494  -14.2507    0.0000 C   0  0  0  0  0  0  0  0  0  0  0  0
   12.3463  -15.3715    0.0000 C   0  0  0  0  0  0  0  0  0  0  0  0
   13.4585  -16.3779    0.0000 C   0  0  0  0  0  0  0  0  0  0  0  0
   14.6731  -17.2582    0.0000 C   0  0  0  0  0  0  0  0  0  0  0  0
   15.9757  -18.0020    0.0000 C   0  0  0  0  0  0  0  0  0  0  0  0
   17.3510  -18.6006    0.0000 C   0  0  0  0  0  0  0  0  0  0  0  0
   18.7831  -19.0471    0.0000 C   0  0  0  0  0  0  0  0  0  0  0  0
   20.2550  -19.3360    0.0000 C   0  0  0  0  0  0  0  0  0  0  0  0
   21.7495  -19.4642    0.0000 C   0  0  0  0  0  0  0  0  0  0  0  0
   23.2491  -19.4299    0.0000 C   0  0  0  0  0  0  0  0  0  0  0  0
   24.7362  -19.2338    0.0000 C   0  0  0  0  0  0  0  0  0  0  0  0
   26.1934  -18.8780    0.0000 C   0  0  0  0  0  0  0  0  0  0  0  0
   27.6036  -18.3668    0.0000 C   0  0  0  0  0  0  0  0  0  0  0  0
   28.9503  -17.7061    0.0000 C   0  0  0  0  0  0  0  0  0  0  0  0
   30.2176  -16.9036    0.0000 C   0  0  0  0  0  0  0  0  0  0  0  0
   31.3907  -15.9689    0.0000 C   0  0  0  0  0  0  0  0  0  0  0  0
   32.4559  -14.9128    0.0000 C   0  0  0  0  0  0  0  0  0  0  0  0
   33.4006  -13.7477    0.0000 C   0  0  0  0  0  0  0  0  0  0  0  0
   34.2139  -12.4873    0.0000 C   0  0  0  0  0  0  0  0  0  0  0  0
   34.8861  -11.1463    0.0000 C   0  0  0  0  0  0  0  0  0  0  0  0
   35.4094   -9.7405    0.0000 C   0  0  0  0  0  0  0  0  0  0  0  0
   35.7776   -8.2864    0.0000 C   0  0  0  0  0  0  0  0  0  0  0  0
   35.9865   -6.8011    0.0000 C   0  0  0  0  0  0  0  0  0  0  0  0
   36.0335   -5.3018    0.0000 C   0  0  0  0  0  0  0  0  0  0  0  0
   35.9181   -3.8062    0.0000 C   0  0  0  0  0  0  0  0  0  0  0  0
   35.6418   -2.3319    0.0000 C   0  0  0  0  0  0  0  0  0  0  0  0
   35.2076   -0.8961    0.0000 C   0  0  0  0  0  0  0  0  0  0  0  0
   34.6208    0.4843    0.0000 C   0  0  0  0  0  0  0  0  0  0  0  0
   33.8881    1.7932    0.0000 C   0  0  0  0  0  0  0  0  0  0  0  0
   33.0183    3.0152    0.0000 C   0  0  0  0  0  0  0  0  0  0  0  0
   32.0214    4.1360    0.0000 C   0  0  0  0  0  0  0  0  0  0  0  0
   30.9091    5.1425    0.0000 C   0  0  0  0  0  0  0  0  0  0  0  0
   29.6946    6.0228    0.0000 C   0  0  0  0  0  0  0  0  0  0  0  0
   28.3920    6.7666    0.0000 C   0  0  0  0  0  0  0  0  0  0  0  0
   27.0166    7.3652    0.0000 C   0  0  0  0  0  0  0  0  0  0  0  0
   25.5846    7.8116    0.0000 C   0  0  0  0  0  0  0  0  0  0  0  0
   24.1127    8.1006    0.0000 C   0  0  0  0  0  0  0  0  0  0  0  0
   22.6182    8.2287    0.0000 C   0  0  0  0  0  0  0  0  0  0  0  0
   21.1186    8.1945    0.0000 C   0  0  0  0  0  0  0  0  0  0  0  0
   19.6315    7.9984    0.0000 C   0  0  0  0  0  0  0  0  0  0  0  0
   18.1743    7.6426    0.0000 C   0  0  0  0  0  0  0  0  0  0  0  0
   16.7641    7.1314    0.0000 C   0  0  0  0  0  0  0  0  0  0  0  0
   15.4174    6.4706    0.0000 C   0  0  0  0  0  0  0  0  0  0  0  0
   14.1501    5.6682    0.0000 C   0  0  0  0  0  0  0  0  0  0  0  0
   12.9770    4.7334    0.0000 C   0  0  0  0  0  0  0  0  0  0  0  0
   11.9118    3.6773    0.0000 C   0  0  0  0  0  0  0  0  0  0  0  0
   10.9670    2.5122    0.0000 C   0  0  0  0  0  0  0  0  0  0  0  0
   10.1538    1.2518    0.0000 C   0  0  0  0  0  0  0  0  0  0  0  0
    9.4816   -0.0891    0.0000 C   0  0  0  0  0  0  0  0  0  0  0  0
    8.9583   -1.4949    0.0000 C   0  0  0  0  0  0  0  0  0  0  0  0
    8.3822   -0.0000    0.0000 C   0  0  0  0  0  0  0  0  0  0  0  0
    8.2679    1.3797    0.0000 C   0  0  0  0  0  0  0  0  0  0  0  0
    7.9280    2.7217    0.0000 C   0  0  0  0  0  0  0  0  0  0  0  0
    7.3719    3.9895    0.0000 C   0  0  0  0  0  0  0  0  0  0  0  0
    6.6147    5.1484    0.0000 C   0  0  0  0  0  0  0  0  0  0  0  0
    5.6771    6.1670    0.0000 C   0  0  0  0  0  0  0  0  0  0  0  0
    4.5846    7.0173    0.0000 C   0  0  0  0  0  0  0  0  0  0  0  0
    3.3671    7.6762    0.0000 C   0  0  0  0  0  0  0  0  0  0  0  0
    2.0577    8.1257    0.0000 C   0  0  0  0  0  0  0  0  0  0  0  0
    0.6922    8.3535    0.0000 C   0  0  0  0  0  0  0  0  0  0  0  0
   -0.6922    8.3535    0.0000 C   0  0  0  0  0  0  0  0  0  0  0  0
   -2.0577    8.1257    0.0000 C   0  0  0  0  0  0  0  0  0  0  0  0
   -3.3671    7.6762    0.0000 C   0  0  0  0  0  0  0  0  0  0  0  0
   -4.5846    7.0173    0.0000 C   0  0  0  0  0  0  0  0  0  0  0  0
   -5.6771    6.1670    0.0000 C   0  0  0  0  0  0  0  0  0  0  0  0
   -6.6147    5.1484    0.0000 C   0  0  0  0  0  0  0  0  0  0  0  0
   -7.3719    3.9895    0.0000 C   0  0  0  0  0  0  0  0  0  0  0  0
   -7.9280    2.7217    0.0000 C   0  0  0  0  0  0  0  0  0  0  0  0
   -8.2679    1.3797    0.0000 C   0  0  0  0  0  0  0  0  0  0  0  0
   -8.3822    0.0000    0.0000 C   0  0  0  0  0  0  0  0  0  0  0  0
   -8.2679   -1.3797    0.0000 C   0  0  0  0  0  0  0  0  0  0  0  0
   -7.9280   -2.7217    0.0000 C   0  0  0  0  0  0  0  0  0  0  0  0
   -7.3719   -3.9895    0.0000 C   0  0  0  0  0  0  0  0  0  0  0  0
   -6.6147   -5.1484    0.0000 C   0  0  0  0  0  0  0  0  0  0  0  0
   -5.6771   -6.1670    0.0000 C   0  0  0  0  0  0  0  0  0  0  0  0
   -4.5846   -7.0173    0.0000 C   0  0  0  0  0  0  0  0  0  0  0  0
   -3.3671   -7.6762    0.0000 C   0  0  0  0  0  0  0  0  0  0  0  0
   -2.0577   -8.1257    0.0000 C   0  0  0  0  0  0  0  0  0  0  0  0
   -0.6922   -8.3535    0.0000 C   0  0  0  0  0  0  0  0  0  0  0  0
    0.6922   -8.3535    0.0000 C   0  0  0  0  0  0  0  0  0  0  0  0
    2.0577   -8.1257    0.0000 C   0  0  0  0  0  0  0  0  0  0  0  0
    3.3671   -7.6762    0.0000 C   0  0  0  0  0  0  0  0  0  0  0  0
    4.5846   -7.0173    0.0000 C   0  0  0  0  0  0  0  0  0  0  0  0
    5.6771   -6.1670    0.0000 C   0  0  0  0  0  0  0  0  0  0  0  0
    6.6147   -5.1484    0.0000 C   0  0  0  0  0  0  0  0  0  0  0  0
    7.3719   -3.9895    0.0000 C   0  0  0  0  0  0  0  0  0  0  0  0
    8.5901   -2.9490    0.0000 C   0  0  0  0  0  0  0  0  0  0  0  0
  1  2  1  0
  2  3  1  0
  3  4  1  0
  4  5  1  0
  5  6  1  0
  6  7  1  0
  7  8  1  0
  8  9  1  0
  9 10  1  0
 10 11  1  0
 11 12  1  0
 12 13  1  0
 13 14  1  0
 14 15  1  0
 15 16  1  0
 16 17  1  0
 17 18  1  0
 18 19  1  0
 19 20  1  0
 20 21  1  0
 21 22  1  0
 22 23  1  0
 23 24  1  0
 24 25  1  0
 25 26  1  0
 26 27  1  0
 27 28  1  0
 28 29  1  0
 29 30  1  0
 30 31  1  0
 31 32  1  0
 32 33  1  0
 33 34  1  0
 34 35  1  0
 35 36  1  0
 36 37  1  0
 37 38  1  0
 38 39  1  0
 39 40  1  0
 40 41  1  0
 41 42  1  0
 42 43  1  0
 43 44  1  0
 44 45  1  0
 45 46  1  0
 46 47  1  0
 47 48  1  0
 48 49  1  0
 49 50  1  0
 50 51  1  0
 51 52  1  0
 52 53  1  0
 53 54  1  0
 54 55  1  0
 55 56  1  0
 56 57  1  0
 57 58  1  0
 58 59  1  0
 59 60  1  0
 60 61  1  0
 61 62  1  0
 62 63  1  0
 63 64  1  0
 64 65  2  0
 65 66  1  0
 66 67  2  0
 67 68  1  0
 68 69  2  0
 69 70  1  0
 70 71  2  0
 71 72  1  0
 72 73  2  0
 73 74  1  0
 74 75  2  0
 75 76  1  0
 76 77  2  0
 77 78  1  0
 78 79  2  0
 79 80  1  0
 80 81  2  0
 81 82  1  0
 82 83  2  0
 83 84  1  0
 84 85  2  0
 85 86  1  0
 86 87  2  0
 87 88  1  0
 88 89  2  0
 89 90  1  0
 90 91  2  0
 91 92  1  0
 92 93  2  0
 93 94  1  0
 94 95  2  0
 95  2  1  0
 95 58  1  0
M  END
>  <Title>  (590) 
idAAUTgen13

$$$$

     RDKit          2D

 17 16  0  0  0  0  0  0  0  0999 V2000
    0.0000    0.0000    0.0000 C   0  0  0  0  0  0  0  0  0  0  0  0
    1.2990    0.7500    0.0000 C   0  0  0  0  0  0  0  0  0  0  0  0
    2.5981   -0.0000    0.0000 C   0  0  0  0  0  0  0  0  0  0  0  0
    3.8971    0.7500    0.0000 C   0  0  0  0  0  0  0  0  0  0  0  0
    5.1962   -0.0000    0.0000 C   0  0  0  0  0  0  0  0  0  0  0  0
    5.1962   -1.5000    0.0000 O   0  0  0  0  0  0  0  0  0  0  0  0
    6.4952    0.7500    0.0000 N   0  0  0  0  0  0  0  0  0  0  0  0
    7.7942   -0.0000    0.0000 C   0  0  0  0  0  0  0  0  0  0  0  0
    9.0933    0.7500    0.0000 C   0  0  0  0  0  0  0  0  0  0  0  0
   10.3923   -0.0000    0.0000 C   0  0  0  0  0  0  0  0  0  0  0  0
   11.6913    0.7500    0.0000 N   0  0  0  0  0  0  0  0  0  0  0  0
   12.9904   -0.0000    0.0000 C   0  0  0  0  0  0  0  0  0  0  0  0
   12.9904   -1.5000    0.0000 O   0  0  0  0  0  0  0  0  0  0  0  0
   14.2894    0.7500    0.0000 C   0  0  0  0  0  0  0  0  0  0  0  0
   15.5885   -0.0000    0.0000 C   0  0  0  0  0  0  0  0  0  0  0  0
   16.8875    0.7500    0.0000 C   0  0  0  0  0  0  0  0  0  0  0  0
   15.5885   -1.5000    0.0000 C   0  0  0  0  0  0  0  0  0  0  0  0
  1  2  2  0
  2  3  1  0
  3  4  1  0
  4  5  1  0
  5  6  2  0
  5  7  1  0
  7  8  1  0
  8  9  1  0
  9 10  2  3
 10 11  1  0
 11 12  1  0
 12 13  2  0
 12 14  1  0
 14 15  1  0
 15 16  1  0
 15 17  1  0
M  END
>  <Title>  (591) 
idAAUUgen13

$$$$

     RDKit          2D

 10  9  0  0  0  0  0  0  0  0999 V2000
    0.0000    0.0000    0.0000 C   0  0  0  0  0  0  0  0  0  0  0  0
    1.2990    0.7500    0.0000 C   0  0  0  0  0  0  0  0  0  0  0  0
    1.2990    2.2500    0.0000 O   0  0  0  0  0  0  0  0  0  0  0  0
    2.5981   -0.0000    0.0000 N   0  0  0  0  0  0  0  0  0  0  0  0
    3.8971    0.7500    0.0000 C   0  0  0  0  0  0  0  0  0  0  0  0
    3.8971    2.2500    0.0000 O   0  0  0  0  0  0  0  0  0  0  0  0
    5.1962   -0.0000    0.0000 O   0  0  0  0  0  0  0  0  0  0  0  0
    6.4952    0.7500    0.0000 C   0  0  0  0  0  0  0  0  0  0  0  0
    7.7942   -0.0000    0.0000 C   0  0  0  0  0  0  0  0  0  0  0  0
    6.4952    2.2500    0.0000 C   0  0  0  0  0  0  0  0  0  0  0  0
  1  2  1  0
  2  3  2  0
  2  4  1  0
  4  5  1  0
  5  6  2  0
  5  7  1  0
  7  8  1  0
  8  9  1  0
  8 10  1  0
M  END
>  <Title>  (592) 
idAAUVgen13

$$$$

     RDKit          2D

 31 30  0  0  0  0  0  0  0  0999 V2000
    0.0000    0.0000    0.0000 C   0  0  0  0  0  0  0  0  0  0  0  0
   -0.0000   -1.5000    0.0000 C   0  0  0  0  0  0  0  0  0  0  0  0
   -0.0000   -3.0000    0.0000 C   0  0  0  0  0  0  0  0  0  0  0  0
   -0.0000   -4.5000    0.0000 C   0  0  0  0  0  0  0  0  0  0  0  0
   -0.0000   -6.0000    0.0000 C   0  0  0  0  0  0  0  0  0  0  0  0
   -0.0000   -7.5000    0.0000 C   0  0  0  0  0  0  0  0  0  0  0  0
   -0.0000   -9.0000    0.0000 C   0  0  0  0  0  0  0  0  0  0  0  0
   -0.0000  -10.5000    0.0000 C   0  0  0  0  0  0  0  0  0  0  0  0
   -0.0000  -12.0000    0.0000 C   0  0  0  0  0  0  0  0  0  0  0  0
   -0.0000  -13.5000    0.0000 C   0  0  0  0  0  0  0  0  0  0  0  0
   -0.0000  -15.0000    0.0000 C   0  0  0  0  0  0  0  0  0  0  0  0
   -0.0000  -16.5000    0.0000 C   0  0  0  0  0  0  0  0  0  0  0  0
   -0.0000  -18.0000    0.0000 C   0  0  0  0  0  0  0  0  0  0  0  0
   -0.0000  -19.5000    0.0000 C   0  0  0  0  0  0  0  0  0  0  0  0
   -0.0000  -21.0000    0.0000 C   0  0  0  0  0  0  0  0  0  0  0  0
   -0.0000  -22.5000    0.0000 C   0  0  0  0  0  0  0  0  0  0  0  0
   -0.0000  -24.0000    0.0000 C   0  0  0  0  0  0  0  0  0  0  0  0
   -0.0000  -25.5000    0.0000 C   0  0  0  0  0  0  0  0  0  0  0  0
   -0.0000  -27.0000    0.0000 C   0  0  0  0  0  0  0  0  0  0  0  0
   -0.0000  -28.5000    0.0000 C   0  0  0  0  0  0  0  0  0  0  0  0
   -0.0000  -30.0000    0.0000 C   0  0  0  0  0  0  0  0  0  0  0  0
   -0.0000  -31.5000    0.0000 C   0  0  0  0  0  0  0  0  0  0  0  0
   -0.0000  -33.0000    0.0000 C   0  0  0  0  0  0  0  0  0  0  0  0
   -0.0000  -34.5000    0.0000 C   0  0  0  0  0  0  0  0  0  0  0  0
   -0.0000  -36.0000    0.0000 C   0  0  0  0  0  0  0  0  0  0  0  0
   -0.0000  -37.5000    0.0000 C   0  0  0  0  0  0  0  0  0  0  0  0
   -0.0000  -39.0000    0.0000 C   0  0  0  0  0  0  0  0  0  0  0  0
   -0.0000  -40.5000    0.0000 C   0  0  0  0  0  0  0  0  0  0  0  0
   -0.0000  -42.0000    0.0000 C   0  0  0  0  0  0  0  0  0  0  0  0
    1.2990  -42.7500    0.0000 C   0  0  0  0  0  0  0  0  0  0  0  0
    1.2990  -44.2500    0.0000 C   0  0  0  0  0  0  0  0  0  0  0  0
  1  2  3  0
  2  3  1  0
  3  4  3  0
  4  5  1  0
  5  6  3  0
  6  7  1  0
  7  8  3  0
  8  9  1  0
  9 10  3  0
 10 11  1  0
 11 12  3  0
 12 13  1  0
 13 14  3  0
 14 15  1  0
 15 16  3  0
 16 17  1  0
 17 18  3  0
 18 19  1  0
 19 20  3  0
 20 21  1  0
 21 22  3  0
 22 23  1  0
 23 24  3  0
 24 25  1  0
 25 26  3  0
 26 27  1  0
 27 28  3  0
 28 29  1  0
 29 30  1  0
 30 31  2  0
M  END
>  <Title>  (593) 
idAAUWgen13

$$$$

     RDKit          2D

 14 15  0  0  0  0  0  0  0  0999 V2000
    5.0260   -1.2990    0.0000 C   0  0  0  0  0  0  0  0  0  0  0  0
    3.5260   -1.2990    0.0000 C   0  0  0  0  0  0  0  0  0  0  0  0
    2.7760    0.0000    0.0000 C   0  0  0  0  0  0  0  0  0  0  0  0
    1.2760    0.0000    0.0000 C   0  0  0  0  0  0  0  0  0  0  0  0
    0.3943    1.2135    0.0000 N   0  0  0  0  0  0  0  0  0  0  0  0
   -1.0323    0.7500    0.0000 N   0  0  0  0  0  0  0  0  0  0  0  0
   -1.0323   -0.7500    0.0000 N   0  0  0  0  0  0  0  0  0  0  0  0
    0.3943   -1.2135    0.0000 N   0  0  0  0  0  0  0  0  0  0  0  0
    0.8578   -2.6401    0.0000 C   0  0  0  0  0  0  0  0  0  0  0  0
    2.2844   -3.1036    0.0000 C   0  0  0  0  0  0  0  0  0  0  0  0
    2.2844   -4.6036    0.0000 C   0  0  0  0  0  0  0  0  0  0  0  0
    0.8578   -5.0672    0.0000 C   0  0  0  0  0  0  0  0  0  0  0  0
    0.3943   -6.4937    0.0000 C   0  0  0  0  0  0  0  0  0  0  0  0
   -0.0239   -3.8536    0.0000 C   0  0  0  0  0  0  0  0  0  0  0  0
  1  2  1  0
  2  3  2  3
  3  4  1  0
  4  5  2  0
  5  6  1  0
  6  7  2  0
  7  8  1  0
  8  9  1  0
  9 10  2  0
 10 11  1  0
 11 12  1  0
 12 13  1  0
 12 14  1  0
  8  4  1  0
 14  9  1  0
M  END
>  <Title>  (594) 
idAAUXgen13

$$$$

     RDKit          2D

 13 14  0  0  0  0  0  0  0  0999 V2000
   -4.3277    2.9753    0.0000 C   0  0  0  0  0  0  0  0  0  0  0  0
   -2.8323    2.8576    0.0000 C   0  0  0  0  0  0  0  0  0  0  0  0
   -2.1513    4.1941    0.0000 C   0  0  0  0  0  0  0  0  0  0  0  0
   -0.7248    4.6576    0.0000 C   0  0  0  0  0  0  0  0  0  0  0  0
    0.6118    3.9766    0.0000 C   0  0  0  0  0  0  0  0  0  0  0  0
    1.0753    2.5500    0.0000 C   0  0  0  0  0  0  0  0  0  0  0  0
    0.3943    1.2135    0.0000 C   0  0  0  0  0  0  0  0  0  0  0  0
    1.2760    0.0000    0.0000 N   0  0  0  0  0  0  0  0  0  0  0  0
    0.3943   -1.2135    0.0000 N   0  0  0  0  0  0  0  0  0  0  0  0
   -1.0323   -0.7500    0.0000 N   0  0  0  0  0  0  0  0  0  0  0  0
   -1.0323    0.7500    0.0000 N   0  0  0  0  0  0  0  0  0  0  0  0
   -2.3688    1.4310    0.0000 C   0  0  0  0  0  0  0  0  0  0  0  0
   -3.5094    0.4568    0.0000 O   0  0  0  0  0  0  0  0  0  0  0  0
  1  2  1  0
  2  3  1  0
  3  4  1  0
  4  5  1  0
  5  6  1  0
  6  7  1  0
  7  8  2  0
  8  9  1  0
  9 10  2  0
 10 11  1  0
 11 12  1  0
 12 13  2  0
 12  2  1  0
 11  7  1  0
M  END
>  <Title>  (595) 
idAAUYgen13

$$$$

     RDKit          2D

 45 51  0  0  0  0  0  0  0  0999 V2000
   -3.8325    8.2879    0.0000 C   0  0  0  0  0  0  0  0  0  0  0  0
   -3.0631    7.0003    0.0000 C   0  0  0  0  0  0  0  0  0  0  0  0
   -1.6365    7.4638    0.0000 C   0  0  0  0  0  0  0  0  0  0  0  0
   -0.1501    7.2625    0.0000 C   0  0  0  0  0  0  0  0  0  0  0  0
    1.1017    6.4361    0.0000 C   0  0  0  0  0  0  0  0  0  0  0  0
    1.8711    5.1484    0.0000 C   0  0  0  0  0  0  0  0  0  0  0  0
    3.2977    5.6120    0.0000 C   0  0  0  0  0  0  0  0  0  0  0  0
    3.6095    7.0792    0.0000 O   0  0  0  0  0  0  0  0  0  0  0  0
    4.4124    4.6083    0.0000 N   0  0  0  0  0  0  0  0  0  0  0  0
    4.4909    3.1103    0.0000 C   0  0  0  0  0  0  0  0  0  0  0  0
    5.9888    3.1888    0.0000 C   0  0  0  0  0  0  0  0  0  0  0  0
    7.3254    2.5078    0.0000 C   0  0  0  0  0  0  0  0  0  0  0  0
    8.5834    3.3248    0.0000 C   0  0  0  0  0  0  0  0  0  0  0  0
    8.5049    4.8227    0.0000 C   0  0  0  0  0  0  0  0  0  0  0  0
    9.7629    5.6397    0.0000 O   0  0  0  0  0  0  0  0  0  0  0  0
   11.0994    4.9587    0.0000 C   0  0  0  0  0  0  0  0  0  0  0  0
   11.1779    3.4608    0.0000 C   0  0  0  0  0  0  0  0  0  0  0  0
   12.5144    2.7798    0.0000 C   0  0  0  0  0  0  0  0  0  0  0  0
   13.7724    3.5967    0.0000 C   0  0  0  0  0  0  0  0  0  0  0  0
   13.6939    5.0947    0.0000 C   0  0  0  0  0  0  0  0  0  0  0  0
   12.3574    5.7757    0.0000 C   0  0  0  0  0  0  0  0  0  0  0  0
    7.1683    5.5037    0.0000 C   0  0  0  0  0  0  0  0  0  0  0  0
    5.9103    4.6868    0.0000 C   0  0  0  0  0  0  0  0  0  0  0  0
    2.0056    3.6545    0.0000 C   0  0  0  0  0  0  0  0  0  0  0  0
    3.4920    3.4531    0.0000 O   0  0  0  0  0  0  0  0  0  0  0  0
    1.4785    2.2501    0.0000 N   0  0  0  0  0  0  0  0  0  0  0  0
    0.3943    1.2135    0.0000 C   0  0  0  0  0  0  0  0  0  0  0  0
    1.2760    0.0000    0.0000 N   0  0  0  0  0  0  0  0  0  0  0  0
    0.3943   -1.2135    0.0000 N   0  0  0  0  0  0  0  0  0  0  0  0
   -1.0323   -0.7500    0.0000 N   0  0  0  0  0  0  0  0  0  0  0  0
   -1.0323    0.7500    0.0000 N   0  0  0  0  0  0  0  0  0  0  0  0
   -2.5187    0.9513    0.0000 N   0  0  0  0  0  0  0  0  0  0  0  0
   -3.7706    1.7777    0.0000 C   0  0  0  0  0  0  0  0  0  0  0  0
   -4.5399    3.0654    0.0000 C   0  0  0  0  0  0  0  0  0  0  0  0
   -4.6744    4.5593    0.0000 N   0  0  0  0  0  0  0  0  0  0  0  0
   -5.6638    3.2907    0.0000 C   0  0  0  0  0  0  0  0  0  0  0  0
   -6.8673    4.1860    0.0000 O   0  0  0  0  0  0  0  0  0  0  0  0
   -6.0303    1.8362    0.0000 N   0  0  0  0  0  0  0  0  0  0  0  0
   -5.2609    0.5485    0.0000 C   0  0  0  0  0  0  0  0  0  0  0  0
   -6.0590   -0.7216    0.0000 N   0  0  0  0  0  0  0  0  0  0  0  0
   -5.0977   -1.8730    0.0000 N   0  0  0  0  0  0  0  0  0  0  0  0
   -3.7055   -1.3146    0.0000 N   0  0  0  0  0  0  0  0  0  0  0  0
   -3.8064    0.1820    0.0000 N   0  0  0  0  0  0  0  0  0  0  0  0
   -4.1473    5.9637    0.0000 C   0  0  0  0  0  0  0  0  0  0  0  0
   -5.3992    6.7900    0.0000 O   0  0  0  0  0  0  0  0  0  0  0  0
  1  2  1  0
  2  3  1  0
  3  4  2  0
  4  5  1  0
  5  6  2  0
  6  7  1  0
  7  8  2  0
  7  9  1  0
  9 10  1  0
 10 11  1  0
 11 12  2  0
 12 13  1  0
 13 14  2  0
 14 15  1  0
 15 16  1  0
 16 17  2  0
 17 18  1  0
 18 19  2  0
 19 20  1  0
 20 21  2  0
 14 22  1  0
 22 23  1  0
  6 24  1  0
 24 25  2  0
 24 26  1  0
 26 27  1  0
 27 28  2  0
 28 29  1  0
 29 30  2  0
 30 31  1  0
 31 32  1  0
 32 33  1  0
 33 34  1  0
 34 35  1  0
 35 36  1  0
 36 37  2  0
 36 38  1  0
 38 39  1  0
 39 40  2  0
 40 41  1  0
 41 42  2  0
 42 43  1  0
 35 44  1  0
 44 45  2  0
 44  2  1  0
 23  9  1  0
 31 27  1  0
 43 32  1  0
 23 11  1  0
 43 39  1  0
 21 16  1  0
M  END
>  <Title>  (596) 
idAAUZgen13

$$$$

     RDKit          2D

 52 51  0  0  0  0  0  0  0  0999 V2000
    0.0000    0.0000    0.0000 C   0  0  0  0  0  0  0  0  0  0  0  0
   -0.0000   -1.5000    0.0000 C   0  0  0  0  0  0  0  0  0  0  0  0
   -0.0000   -3.0000    0.0000 C   0  0  0  0  0  0  0  0  0  0  0  0
   -0.0000   -4.5000    0.0000 C   0  0  0  0  0  0  0  0  0  0  0  0
   -0.0000   -6.0000    0.0000 C   0  0  0  0  0  0  0  0  0  0  0  0
   -0.0000   -7.5000    0.0000 C   0  0  0  0  0  0  0  0  0  0  0  0
   -0.0000   -9.0000    0.0000 C   0  0  0  0  0  0  0  0  0  0  0  0
   -0.0000  -10.5000    0.0000 C   0  0  0  0  0  0  0  0  0  0  0  0
   -0.0000  -12.0000    0.0000 C   0  0  0  0  0  0  0  0  0  0  0  0
   -0.0000  -13.5000    0.0000 C   0  0  0  0  0  0  0  0  0  0  0  0
   -0.0000  -15.0000    0.0000 C   0  0  0  0  0  0  0  0  0  0  0  0
   -0.0000  -16.5000    0.0000 C   0  0  0  0  0  0  0  0  0  0  0  0
   -0.0000  -18.0000    0.0000 C   0  0  0  0  0  0  0  0  0  0  0  0
   -0.0000  -19.5000    0.0000 C   0  0  0  0  0  0  0  0  0  0  0  0
   -0.0000  -21.0000    0.0000 C   0  0  0  0  0  0  0  0  0  0  0  0
   -0.0000  -22.5000    0.0000 C   0  0  0  0  0  0  0  0  0  0  0  0
   -0.0000  -24.0000    0.0000 C   0  0  0  0  0  0  0  0  0  0  0  0
   -0.0000  -25.5000    0.0000 C   0  0  0  0  0  0  0  0  0  0  0  0
   -0.0000  -27.0000    0.0000 C   0  0  0  0  0  0  0  0  0  0  0  0
   -0.0000  -28.5000    0.0000 C   0  0  0  0  0  0  0  0  0  0  0  0
   -0.0000  -30.0000    0.0000 C   0  0  0  0  0  0  0  0  0  0  0  0
   -0.0000  -31.5000    0.0000 C   0  0  0  0  0  0  0  0  0  0  0  0
   -0.0000  -33.0000    0.0000 C   0  0  0  0  0  0  0  0  0  0  0  0
   -0.0000  -34.5000    0.0000 C   0  0  0  0  0  0  0  0  0  0  0  0
   -0.0000  -36.0000    0.0000 C   0  0  0  0  0  0  0  0  0  0  0  0
   -0.0000  -37.5000    0.0000 C   0  0  0  0  0  0  0  0  0  0  0  0
   -0.0000  -39.0000    0.0000 C   0  0  0  0  0  0  0  0  0  0  0  0
   -0.0000  -40.5000    0.0000 C   0  0  0  0  0  0  0  0  0  0  0  0
   -0.0000  -42.0000    0.0000 C   0  0  0  0  0  0  0  0  0  0  0  0
   -0.0000  -43.5000    0.0000 C   0  0  0  0  0  0  0  0  0  0  0  0
   -0.0000  -45.0000    0.0000 C   0  0  0  0  0  0  0  0  0  0  0  0
   -0.0000  -46.5000    0.0000 C   0  0  0  0  0  0  0  0  0  0  0  0
   -0.0000  -48.0000    0.0000 C   0  0  0  0  0  0  0  0  0  0  0  0
   -0.0000  -49.5000    0.0000 C   0  0  0  0  0  0  0  0  0  0  0  0
   -0.0000  -51.0000    0.0000 C   0  0  0  0  0  0  0  0  0  0  0  0
   -0.0000  -52.5000    0.0000 C   0  0  0  0  0  0  0  0  0  0  0  0
   -0.0000  -54.0000    0.0000 C   0  0  0  0  0  0  0  0  0  0  0  0
   -0.0000  -55.5000    0.0000 C   0  0  0  0  0  0  0  0  0  0  0  0
   -0.0000  -57.0000    0.0000 C   0  0  0  0  0  0  0  0  0  0  0  0
   -0.0000  -58.5000    0.0000 C   0  0  0  0  0  0  0  0  0  0  0  0
   -0.0000  -60.0000    0.0000 C   0  0  0  0  0  0  0  0  0  0  0  0
   -0.0000  -61.5000    0.0000 C   0  0  0  0  0  0  0  0  0  0  0  0
   -0.0000  -63.0000    0.0000 C   0  0  0  0  0  0  0  0  0  0  0  0
   -0.0000  -64.5000    0.0000 C   0  0  0  0  0  0  0  0  0  0  0  0
   -0.0000  -66.0000    0.0000 C   0  0  0  0  0  0  0  0  0  0  0  0
   -0.0000  -67.5000    0.0000 C   0  0  0  0  0  0  0  0  0  0  0  0
   -0.0000  -69.0000    0.0000 C   0  0  0  0  0  0  0  0  0  0  0  0
   -0.0000  -70.5000    0.0000 C   0  0  0  0  0  0  0  0  0  0  0  0
   -0.0000  -72.0000    0.0000 C   0  0  0  0  0  0  0  0  0  0  0  0
   -0.0000  -73.5000    0.0000 C   0  0  0  0  0  0  0  0  0  0  0  0
   -0.0000  -75.0000    0.0000 C   0  0  0  0  0  0  0  0  0  0  0  0
   -0.0000  -76.5000    0.0000 C   0  0  0  0  0  0  0  0  0  0  0  0
  1  2  3  0
  2  3  1  0
  3  4  3  0
  4  5  1  0
  5  6  3  0
  6  7  1  0
  7  8  3  0
  8  9  1  0
  9 10  3  0
 10 11  1  0
 11 12  3  0
 12 13  1  0
 13 14  3  0
 14 15  1  0
 15 16  3  0
 16 17  1  0
 17 18  3  0
 18 19  1  0
 19 20  3  0
 20 21  1  0
 21 22  3  0
 22 23  1  0
 23 24  3  0
 24 25  1  0
 25 26  3  0
 26 27  1  0
 27 28  3  0
 28 29  1  0
 29 30  3  0
 30 31  1  0
 31 32  3  0
 32 33  1  0
 33 34  3  0
 34 35  1  0
 35 36  3  0
 36 37  1  0
 37 38  3  0
 38 39  1  0
 39 40  3  0
 40 41  1  0
 41 42  3  0
 42 43  1  0
 43 44  3  0
 44 45  1  0
 45 46  3  0
 46 47  1  0
 47 48  3  0
 48 49  1  0
 49 50  3  0
 50 51  1  0
 51 52  3  0
M  END
>  <Title>  (597) 
idAAVAgen13

$$$$

     RDKit          2D

 32 36  0  0  0  0  0  0  0  0999 V2000
   -3.1476   -2.1380    0.0000 C   0  0  0  0  0  0  0  0  0  0  0  0
   -1.6852   -2.4718    0.0000 C   0  0  0  0  0  0  0  0  0  0  0  0
   -1.3515   -3.9342    0.0000 C   0  0  0  0  0  0  0  0  0  0  0  0
   -0.0000   -4.5850    0.0000 C   0  0  0  0  0  0  0  0  0  0  0  0
    1.3515   -3.9342    0.0000 C   0  0  0  0  0  0  0  0  0  0  0  0
    1.6852   -2.4718    0.0000 C   0  0  0  0  0  0  0  0  0  0  0  0
    3.1476   -2.1380    0.0000 C   0  0  0  0  0  0  0  0  0  0  0  0
    3.5898   -0.7046    0.0000 O   0  0  0  0  0  0  0  0  0  0  0  0
    4.1679   -3.2376    0.0000 N   0  0  0  0  0  0  0  0  0  0  0  0
    5.6303   -2.9038    0.0000 C   0  0  0  0  0  0  0  0  0  0  0  0
    6.2198   -1.5245    0.0000 N   0  0  0  0  0  0  0  0  0  0  0  0
    7.7138   -1.6590    0.0000 N   0  0  0  0  0  0  0  0  0  0  0  0
    8.0476   -3.1214    0.0000 N   0  0  0  0  0  0  0  0  0  0  0  0
    6.7599   -3.8907    0.0000 N   0  0  0  0  0  0  0  0  0  0  0  0
    6.6254   -5.3847    0.0000 C   0  0  0  0  0  0  0  0  0  0  0  0
    7.7550   -6.3716    0.0000 C   0  0  0  0  0  0  0  0  0  0  0  0
    7.1655   -7.7509    0.0000 C   0  0  0  0  0  0  0  0  0  0  0  0
    5.6715   -7.6164    0.0000 C   0  0  0  0  0  0  0  0  0  0  0  0
    4.6846   -8.7460    0.0000 N   0  0  0  0  0  0  0  0  0  0  0  0
    3.2129   -8.4561    0.0000 C   0  0  0  0  0  0  0  0  0  0  0  0
    2.2260   -9.5857    0.0000 C   0  0  0  0  0  0  0  0  0  0  0  0
    2.7108  -11.0052    0.0000 N   0  0  0  0  0  0  0  0  0  0  0  0
    4.1825  -11.2951    0.0000 N   0  0  0  0  0  0  0  0  0  0  0  0
    5.1694  -10.1655    0.0000 N   0  0  0  0  0  0  0  0  0  0  0  0
    5.3378   -6.1540    0.0000 C   0  0  0  0  0  0  0  0  0  0  0  0
    3.9585   -5.5645    0.0000 O   0  0  0  0  0  0  0  0  0  0  0  0
    0.7500   -1.2990    0.0000 C   0  0  0  0  0  0  0  0  0  0  0  0
    1.5000    0.0000    0.0000 C   0  0  0  0  0  0  0  0  0  0  0  0
    0.7500    1.2990    0.0000 C   0  0  0  0  0  0  0  0  0  0  0  0
   -0.7500    1.2990    0.0000 C   0  0  0  0  0  0  0  0  0  0  0  0
   -1.5000    0.0000    0.0000 C   0  0  0  0  0  0  0  0  0  0  0  0
   -0.7500   -1.2990    0.0000 C   0  0  0  0  0  0  0  0  0  0  0  0
  1  2  1  0
  2  3  1  0
  3  4  1  0
  4  5  1  0
  5  6  2  0
  6  7  1  0
  7  8  2  0
  7  9  1  0
  9 10  1  0
 10 11  2  0
 11 12  1  0
 12 13  2  0
 13 14  1  0
 14 15  1  0
 15 16  2  0
 16 17  1  0
 17 18  2  0
 18 19  1  0
 19 20  1  0
 20 21  1  0
 21 22  2  0
 22 23  1  0
 23 24  2  0
 18 25  1  0
 25 26  2  0
  6 27  1  0
 27 28  2  0
 28 29  1  0
 29 30  2  0
 30 31  1  0
 31 32  2  0
 32  2  1  0
 14 10  1  0
 25 15  1  0
 32 27  1  0
 24 19  1  0
M  END
>  <Title>  (598) 
idAAVBgen13

$$$$

     RDKit          2D

 12 13  0  0  0  0  0  0  0  0999 V2000
   -0.5773   -4.2803    0.0000 C   0  0  0  0  0  0  0  0  0  0  0  0
    0.8899   -3.9684    0.0000 C   0  0  0  0  0  0  0  0  0  0  0  0
    2.0046   -4.9721    0.0000 C   0  0  0  0  0  0  0  0  0  0  0  0
    3.3037   -4.2221    0.0000 C   0  0  0  0  0  0  0  0  0  0  0  0
    2.9918   -2.7549    0.0000 N   0  0  0  0  0  0  0  0  0  0  0  0
    1.5000   -2.5981    0.0000 N   0  0  0  0  0  0  0  0  0  0  0  0
    0.7500   -1.2990    0.0000 C   0  0  0  0  0  0  0  0  0  0  0  0
    1.5000    0.0000    0.0000 C   0  0  0  0  0  0  0  0  0  0  0  0
    0.7500    1.2990    0.0000 C   0  0  0  0  0  0  0  0  0  0  0  0
   -0.7500    1.2990    0.0000 C   0  0  0  0  0  0  0  0  0  0  0  0
   -1.5000    0.0000    0.0000 C   0  0  0  0  0  0  0  0  0  0  0  0
   -0.7500   -1.2990    0.0000 C   0  0  0  0  0  0  0  0  0  0  0  0
  1  2  1  0
  2  3  2  0
  3  4  1  0
  4  5  2  0
  5  6  1  0
  6  7  1  0
  7  8  2  0
  8  9  1  0
  9 10  2  0
 10 11  1  0
 11 12  2  0
  6  2  1  0
 12  7  1  0
M  END
>  <Title>  (599) 
idAAVCgen13

$$$$

     RDKit          2D

 10 10  0  0  0  0  0  0  0  0999 V2000
    6.7500   -1.2990    0.0000 C   0  0  0  0  0  0  0  0  0  0  0  0
    5.2500   -1.2990    0.0000 C   0  0  0  0  0  0  0  0  0  0  0  0
    3.7500   -1.2990    0.0000 C   0  0  0  0  0  0  0  0  0  0  0  0
    3.0000    0.0000    0.0000 C   0  0  0  0  0  0  0  0  0  0  0  0
    1.5000    0.0000    0.0000 C   0  0  0  0  0  0  0  0  0  0  0  0
    0.7500   -1.2990    0.0000 C   0  0  0  0  0  0  0  0  0  0  0  0
   -0.7500   -1.2990    0.0000 C   0  0  0  0  0  0  0  0  0  0  0  0
   -1.5000    0.0000    0.0000 C   0  0  0  0  0  0  0  0  0  0  0  0
   -0.7500    1.2990    0.0000 C   0  0  0  0  0  0  0  0  0  0  0  0
    0.7500    1.2990    0.0000 C   0  0  0  0  0  0  0  0  0  0  0  0
  1  2  3  0
  2  3  1  0
  3  4  2  3
  4  5  1  0
  5  6  2  0
  6  7  1  0
  7  8  2  0
  8  9  1  0
  9 10  2  0
 10  5  1  0
M  END
>  <Title>  (600) 
idAAVDgen13

$$$$

     RDKit          2D

 26 25  0  0  0  0  0  0  0  0999 V2000
    0.0000    0.0000    0.0000 C   0  0  0  0  0  0  0  0  0  0  0  0
   -0.0000   -1.5000    0.0000 C   0  0  0  0  0  0  0  0  0  0  0  0
   -0.0000   -3.0000    0.0000 C   0  0  0  0  0  0  0  0  0  0  0  0
   -0.0000   -4.5000    0.0000 C   0  0  0  0  0  0  0  0  0  0  0  0
   -0.0000   -6.0000    0.0000 C   0  0  0  0  0  0  0  0  0  0  0  0
   -0.0000   -7.5000    0.0000 C   0  0  0  0  0  0  0  0  0  0  0  0
   -0.0000   -9.0000    0.0000 C   0  0  0  0  0  0  0  0  0  0  0  0
   -0.0000  -10.5000    0.0000 C   0  0  0  0  0  0  0  0  0  0  0  0
   -0.0000  -12.0000    0.0000 C   0  0  0  0  0  0  0  0  0  0  0  0
   -0.0000  -13.5000    0.0000 C   0  0  0  0  0  0  0  0  0  0  0  0
   -0.0000  -15.0000    0.0000 C   0  0  0  0  0  0  0  0  0  0  0  0
   -0.0000  -16.5000    0.0000 C   0  0  0  0  0  0  0  0  0  0  0  0
   -0.0000  -18.0000    0.0000 C   0  0  0  0  0  0  0  0  0  0  0  0
   -0.0000  -19.5000    0.0000 C   0  0  0  0  0  0  0  0  0  0  0  0
   -0.0000  -21.0000    0.0000 C   0  0  0  0  0  0  0  0  0  0  0  0
   -0.0000  -22.5000    0.0000 C   0  0  0  0  0  0  0  0  0  0  0  0
   -0.0000  -24.0000    0.0000 C   0  0  0  0  0  0  0  0  0  0  0  0
   -0.0000  -25.5000    0.0000 C   0  0  0  0  0  0  0  0  0  0  0  0
   -0.0000  -27.0000    0.0000 C   0  0  0  0  0  0  0  0  0  0  0  0
   -0.0000  -28.5000    0.0000 C   0  0  0  0  0  0  0  0  0  0  0  0
   -0.0000  -30.0000    0.0000 C   0  0  0  0  0  0  0  0  0  0  0  0
   -0.0000  -31.5000    0.0000 C   0  0  0  0  0  0  0  0  0  0  0  0
   -0.0000  -33.0000    0.0000 C   0  0  0  0  0  0  0  0  0  0  0  0
   -0.0000  -34.5000    0.0000 C   0  0  0  0  0  0  0  0  0  0  0  0
   -0.0000  -36.0000    0.0000 C   0  0  0  0  0  0  0  0  0  0  0  0
   -0.0000  -37.5000    0.0000 C   0  0  0  0  0  0  0  0  0  0  0  0
  1  2  3  0
  2  3  1  0
  3  4  3  0
  4  5  1  0
  5  6  3  0
  6  7  1  0
  7  8  3  0
  8  9  1  0
  9 10  3  0
 10 11  1  0
 11 12  3  0
 12 13  1  0
 13 14  3  0
 14 15  1  0
 15 16  3  0
 16 17  1  0
 17 18  3  0
 18 19  1  0
 19 20  3  0
 20 21  1  0
 21 22  3  0
 22 23  1  0
 23 24  3  0
 24 25  1  0
 25 26  3  0
M  END
>  <Title>  (601) 
idAAVEgen13

$$$$

     RDKit          2D

 69 70  0  0  0  0  0  0  0  0999 V2000
   -2.0299    2.1334    0.0000 C   0  0  0  0  0  0  0  0  0  0  0  0
   -0.8343    3.0391    0.0000 C   0  0  0  0  0  0  0  0  0  0  0  0
   -1.9524    4.0390    0.0000 C   0  0  0  0  0  0  0  0  0  0  0  0
   -2.9618    5.1485    0.0000 C   0  0  0  0  0  0  0  0  0  0  0  0
   -3.8518    6.3560    0.0000 C   0  0  0  0  0  0  0  0  0  0  0  0
   -4.6129    7.6485    0.0000 C   0  0  0  0  0  0  0  0  0  0  0  0
   -5.2371    9.0125    0.0000 C   0  0  0  0  0  0  0  0  0  0  0  0
   -5.7178   10.4334    0.0000 C   0  0  0  0  0  0  0  0  0  0  0  0
   -6.0498   11.8962    0.0000 C   0  0  0  0  0  0  0  0  0  0  0  0
   -6.2296   13.3854    0.0000 C   0  0  0  0  0  0  0  0  0  0  0  0
   -6.2553   14.8852    0.0000 C   0  0  0  0  0  0  0  0  0  0  0  0
   -6.1267   16.3796    0.0000 C   0  0  0  0  0  0  0  0  0  0  0  0
   -5.8452   17.8530    0.0000 C   0  0  0  0  0  0  0  0  0  0  0  0
   -5.4136   19.2895    0.0000 C   0  0  0  0  0  0  0  0  0  0  0  0
   -4.8366   20.6741    0.0000 C   0  0  0  0  0  0  0  0  0  0  0  0
   -4.1203   21.9920    0.0000 C   0  0  0  0  0  0  0  0  0  0  0  0
   -3.2723   23.2293    0.0000 C   0  0  0  0  0  0  0  0  0  0  0  0
   -2.3015   24.3729    0.0000 C   0  0  0  0  0  0  0  0  0  0  0  0
   -1.2183   25.4105    0.0000 C   0  0  0  0  0  0  0  0  0  0  0  0
   -0.0342   26.3313    0.0000 C   0  0  0  0  0  0  0  0  0  0  0  0
    1.2383   27.1255    0.0000 C   0  0  0  0  0  0  0  0  0  0  0  0
    2.5857   27.7845    0.0000 C   0  0  0  0  0  0  0  0  0  0  0  0
    3.9938   28.3016    0.0000 C   0  0  0  0  0  0  0  0  0  0  0  0
    5.4476   28.6712    0.0000 C   0  0  0  0  0  0  0  0  0  0  0  0
    6.9316   28.8893    0.0000 C   0  0  0  0  0  0  0  0  0  0  0  0
    8.4303   28.9536    0.0000 C   0  0  0  0  0  0  0  0  0  0  0  0
    9.9276   28.8635    0.0000 C   0  0  0  0  0  0  0  0  0  0  0  0
   11.4076   28.6200    0.0000 C   0  0  0  0  0  0  0  0  0  0  0  0
   12.8549   28.2255    0.0000 C   0  0  0  0  0  0  0  0  0  0  0  0
   14.2538   27.6844    0.0000 C   0  0  0  0  0  0  0  0  0  0  0  0
   15.5898   27.0023    0.0000 C   0  0  0  0  0  0  0  0  0  0  0  0
   16.8485   26.1864    0.0000 C   0  0  0  0  0  0  0  0  0  0  0  0
   18.0166   25.2454    0.0000 C   0  0  0  0  0  0  0  0  0  0  0  0
   19.0818   24.1893    0.0000 C   0  0  0  0  0  0  0  0  0  0  0  0
   20.0328   23.0293    0.0000 C   0  0  0  0  0  0  0  0  0  0  0  0
   20.8594   21.7776    0.0000 C   0  0  0  0  0  0  0  0  0  0  0  0
   21.5530   20.4476    0.0000 C   0  0  0  0  0  0  0  0  0  0  0  0
   22.1062   19.0533    0.0000 C   0  0  0  0  0  0  0  0  0  0  0  0
   22.5130   17.6095    0.0000 C   0  0  0  0  0  0  0  0  0  0  0  0
   22.7693   16.1316    0.0000 C   0  0  0  0  0  0  0  0  0  0  0  0
   22.8722   14.6351    0.0000 C   0  0  0  0  0  0  0  0  0  0  0  0
   22.8207   13.1360    0.0000 C   0  0  0  0  0  0  0  0  0  0  0  0
   22.6153   11.6501    0.0000 C   0  0  0  0  0  0  0  0  0  0  0  0
   22.2583   10.1933    0.0000 C   0  0  0  0  0  0  0  0  0  0  0  0
   21.7533    8.7808    0.0000 C   0  0  0  0  0  0  0  0  0  0  0  0
   21.1058    7.4278    0.0000 C   0  0  0  0  0  0  0  0  0  0  0  0
   20.3226    6.1485    0.0000 C   0  0  0  0  0  0  0  0  0  0  0  0
   19.4120    4.9565    0.0000 C   0  0  0  0  0  0  0  0  0  0  0  0
   18.3837    3.8644    0.0000 C   0  0  0  0  0  0  0  0  0  0  0  0
   17.2485    2.8839    0.0000 C   0  0  0  0  0  0  0  0  0  0  0  0
   16.0186    2.0253    0.0000 C   0  0  0  0  0  0  0  0  0  0  0  0
   14.7069    1.2977    0.0000 C   0  0  0  0  0  0  0  0  0  0  0  0
   13.3273    0.7089    0.0000 C   0  0  0  0  0  0  0  0  0  0  0  0
   11.8945    0.2650    0.0000 C   0  0  0  0  0  0  0  0  0  0  0  0
   10.4236   -0.0292    0.0000 C   0  0  0  0  0  0  0  0  0  0  0  0
    8.9303   -0.1707    0.0000 C   0  0  0  0  0  0  0  0  0  0  0  0
    7.4303   -0.1578    0.0000 C   0  0  0  0  0  0  0  0  0  0  0  0
    5.9397    0.0092    0.0000 C   0  0  0  0  0  0  0  0  0  0  0  0
    4.4741    0.3287    0.0000 C   0  0  0  0  0  0  0  0  0  0  0  0
    3.0491    0.7971    0.0000 C   0  0  0  0  0  0  0  0  0  0  0  0
    1.6798    1.4095    0.0000 C   0  0  0  0  0  0  0  0  0  0  0  0
    2.1929    0.0000    0.0000 C   0  0  0  0  0  0  0  0  0  0  0  0
    1.6798   -1.4095    0.0000 C   0  0  0  0  0  0  0  0  0  0  0  0
    0.3808   -2.1595    0.0000 C   0  0  0  0  0  0  0  0  0  0  0  0
   -1.0964   -1.8991    0.0000 C   0  0  0  0  0  0  0  0  0  0  0  0
   -2.0606   -0.7500    0.0000 C   0  0  0  0  0  0  0  0  0  0  0  0
   -2.0606    0.7500    0.0000 C   0  0  0  0  0  0  0  0  0  0  0  0
   -1.0964    1.8991    0.0000 C   0  0  0  0  0  0  0  0  0  0  0  0
    0.3808    2.1595    0.0000 C   0  0  0  0  0  0  0  0  0  0  0  0
  1  2  1  0
  2  3  1  0
  3  4  1  0
  4  5  1  0
  5  6  1  0
  6  7  1  0
  7  8  1  0
  8  9  1  0
  9 10  1  0
 10 11  1  0
 11 12  1  0
 12 13  1  0
 13 14  1  0
 14 15  1  0
 15 16  1  0
 16 17  1  0
 17 18  1  0
 18 19  1  0
 19 20  1  0
 20 21  1  0
 21 22  1  0
 22 23  1  0
 23 24  1  0
 24 25  1  0
 25 26  1  0
 26 27  1  0
 27 28  1  0
 28 29  1  0
 29 30  1  0
 30 31  1  0
 31 32  1  0
 32 33  1  0
 33 34  1  0
 34 35  1  0
 35 36  1  0
 36 37  1  0
 37 38  1  0
 38 39  1  0
 39 40  1  0
 40 41  1  0
 41 42  1  0
 42 43  1  0
 43 44  1  0
 44 45  1  0
 45 46  1  0
 46 47  1  0
 47 48  1  0
 48 49  1  0
 49 50  1  0
 50 51  1  0
 51 52  1  0
 52 53  1  0
 53 54  1  0
 54 55  1  0
 55 56  1  0
 56 57  1  0
 57 58  1  0
 58 59  1  0
 59 60  1  0
 60 61  1  0
 61 62  1  0
 62 63  2  0
 63 64  1  0
 64 65  2  0
 65 66  1  0
 66 67  2  0
 67 68  1  0
 68 69  2  0
 69  2  1  0
 69 61  1  0
M  END
>  <Title>  (602) 
idAAVFgen13

$$$$

     RDKit          2D

 16 16  0  0  0  0  0  0  0  0999 V2000
    8.2500   -3.8971    0.0000 C   0  0  0  0  0  0  0  0  0  0  0  0
    7.5000   -2.5981    0.0000 C   0  0  0  0  0  0  0  0  0  0  0  0
    6.0000   -2.5981    0.0000 C   0  0  0  0  0  0  0  0  0  0  0  0
    5.2500   -1.2990    0.0000 C   0  0  0  0  0  0  0  0  0  0  0  0
    3.7500   -1.2990    0.0000 C   0  0  0  0  0  0  0  0  0  0  0  0
    3.0000   -2.5981    0.0000 O   0  0  0  0  0  0  0  0  0  0  0  0
    3.0000    0.0000    0.0000 N   0  0  0  0  0  0  0  0  0  0  0  0
    1.5000    0.0000    0.0000 C   0  0  0  0  0  0  0  0  0  0  0  0
    0.7500   -1.2990    0.0000 C   0  0  0  0  0  0  0  0  0  0  0  0
   -0.7500   -1.2990    0.0000 C   0  0  0  0  0  0  0  0  0  0  0  0
   -1.5000    0.0000    0.0000 C   0  0  0  0  0  0  0  0  0  0  0  0
   -0.7500    1.2990    0.0000 C   0  0  0  0  0  0  0  0  0  0  0  0
   -1.5000    2.5981    0.0000 C   0  0  0  0  0  0  0  0  0  0  0  0
   -0.7500    3.8971    0.0000 C   0  0  0  0  0  0  0  0  0  0  0  0
   -3.0000    2.5981    0.0000 O   0  0  0  0  0  0  0  0  0  0  0  0
    0.7500    1.2990    0.0000 N   0  0  0  0  0  0  0  0  0  0  0  0
  1  2  2  0
  2  3  1  0
  3  4  1  0
  4  5  1  0
  5  6  2  0
  5  7  1  0
  7  8  1  0
  8  9  2  0
  9 10  1  0
 10 11  2  0
 11 12  1  0
 12 13  1  0
 13 14  1  0
 13 15  2  0
 12 16  1  0
 16  8  1  0
M  END
>  <Title>  (603) 
idAAVGgen13

$$$$

     RDKit          2D

 34 38  0  0  0  0  0  0  0  0999 V2000
   -3.0000   -2.5981    0.0000 C   0  0  0  0  0  0  0  0  0  0  0  0
   -1.5000   -2.5981    0.0000 N   0  0  0  0  0  0  0  0  0  0  0  0
   -0.7500   -3.8971    0.0000 C   0  0  0  0  0  0  0  0  0  0  0  0
    0.7500   -3.8971    0.0000 C   0  0  0  0  0  0  0  0  0  0  0  0
    1.5000   -2.5981    0.0000 C   0  0  0  0  0  0  0  0  0  0  0  0
    3.0000   -2.5981    0.0000 C   0  0  0  0  0  0  0  0  0  0  0  0
    3.7500   -1.2990    0.0000 O   0  0  0  0  0  0  0  0  0  0  0  0
    3.7500   -3.8971    0.0000 N   0  0  0  0  0  0  0  0  0  0  0  0
    5.2500   -3.8971    0.0000 C   0  0  0  0  0  0  0  0  0  0  0  0
    6.1317   -2.6836    0.0000 N   0  0  0  0  0  0  0  0  0  0  0  0
    7.5583   -3.1471    0.0000 N   0  0  0  0  0  0  0  0  0  0  0  0
    7.5583   -4.6471    0.0000 N   0  0  0  0  0  0  0  0  0  0  0  0
    6.1317   -5.1106    0.0000 N   0  0  0  0  0  0  0  0  0  0  0  0
    5.6682   -6.5372    0.0000 C   0  0  0  0  0  0  0  0  0  0  0  0
    6.5498   -7.7508    0.0000 C   0  0  0  0  0  0  0  0  0  0  0  0
    5.6682   -8.9643    0.0000 C   0  0  0  0  0  0  0  0  0  0  0  0
    4.2416   -8.5008    0.0000 C   0  0  0  0  0  0  0  0  0  0  0  0
    3.0280   -9.3824    0.0000 C   0  0  0  0  0  0  0  0  0  0  0  0
    3.1848  -10.8742    0.0000 O   0  0  0  0  0  0  0  0  0  0  0  0
    1.6577   -8.7723    0.0000 N   0  0  0  0  0  0  0  0  0  0  0  0
    0.4442   -9.6540    0.0000 C   0  0  0  0  0  0  0  0  0  0  0  0
   -0.9261   -9.0439    0.0000 N   0  0  0  0  0  0  0  0  0  0  0  0
   -2.1396   -9.9256    0.0000 N   0  0  0  0  0  0  0  0  0  0  0  0
   -1.9829  -11.4174    0.0000 N   0  0  0  0  0  0  0  0  0  0  0  0
   -0.6125  -12.0275    0.0000 N   0  0  0  0  0  0  0  0  0  0  0  0
    0.6010  -11.1458    0.0000 N   0  0  0  0  0  0  0  0  0  0  0  0
    4.2416   -7.0008    0.0000 C   0  0  0  0  0  0  0  0  0  0  0  0
    3.0280   -6.1191    0.0000 O   0  0  0  0  0  0  0  0  0  0  0  0
    0.7500   -1.2990    0.0000 C   0  0  0  0  0  0  0  0  0  0  0  0
    1.5000    0.0000    0.0000 C   0  0  0  0  0  0  0  0  0  0  0  0
    0.7500    1.2990    0.0000 C   0  0  0  0  0  0  0  0  0  0  0  0
   -0.7500    1.2990    0.0000 C   0  0  0  0  0  0  0  0  0  0  0  0
   -1.5000    0.0000    0.0000 C   0  0  0  0  0  0  0  0  0  0  0  0
   -0.7500   -1.2990    0.0000 C   0  0  0  0  0  0  0  0  0  0  0  0
  1  2  1  0
  2  3  1  0
  3  4  2  0
  4  5  1  0
  5  6  1  0
  6  7  2  0
  6  8  1  0
  8  9  1  0
  9 10  2  0
 10 11  1  0
 11 12  2  0
 12 13  1  0
 13 14  1  0
 14 15  2  0
 15 16  1  0
 16 17  2  0
 17 18  1  0
 18 19  2  0
 18 20  1  0
 20 21  1  0
 21 22  2  0
 22 23  1  0
 23 24  2  0
 24 25  1  0
 25 26  2  0
 17 27  1  0
 27 28  2  0
  5 29  1  0
 29 30  2  0
 30 31  1  0
 31 32  2  0
 32 33  1  0
 33 34  2  0
 34  2  1  0
 13  9  1  0
 27 14  1  0
 34 29  1  0
 26 21  1  0
M  END
>  <Title>  (604) 
idAAVHgen13

$$$$

     RDKit          2D

 13 14  0  0  0  0  0  0  0  0999 V2000
    3.0000    0.0000    0.0000 C   0  0  0  0  0  0  0  0  0  0  0  0
    1.5000    0.0000    0.0000 C   0  0  0  0  0  0  0  0  0  0  0  0
    0.7500   -1.2990    0.0000 C   0  0  0  0  0  0  0  0  0  0  0  0
   -0.7500   -1.2990    0.0000 C   0  0  0  0  0  0  0  0  0  0  0  0
   -1.5000    0.0000    0.0000 C   0  0  0  0  0  0  0  0  0  0  0  0
   -0.7500    1.2990    0.0000 C   0  0  0  0  0  0  0  0  0  0  0  0
   -1.5000    2.5981    0.0000 N   0  0  0  0  0  0  0  0  0  0  0  0
   -0.7500    3.8971    0.0000 C   0  0  0  0  0  0  0  0  0  0  0  0
   -1.5000    5.1962    0.0000 C   0  0  0  0  0  0  0  0  0  0  0  0
   -3.0000    5.1962    0.0000 N   0  0  0  0  0  0  0  0  0  0  0  0
   -3.7500    3.8971    0.0000 N   0  0  0  0  0  0  0  0  0  0  0  0
   -3.0000    2.5981    0.0000 N   0  0  0  0  0  0  0  0  0  0  0  0
    0.7500    1.2990    0.0000 C   0  0  0  0  0  0  0  0  0  0  0  0
  1  2  1  0
  2  3  1  0
  3  4  2  0
  4  5  1  0
  5  6  2  0
  6  7  1  0
  7  8  1  0
  8  9  1  0
  9 10  2  0
 10 11  1  0
 11 12  2  0
  6 13  1  0
 13  2  1  0
 12  7  1  0
M  END
>  <Title>  (605) 
idAAVIgen13

$$$$

     RDKit          2D

 27 31  0  0  0  0  0  0  0  0999 V2000
   -5.7998   -6.4517    0.0000 O   0  0  0  0  0  0  0  0  0  0  0  0
   -4.2998   -6.4517    0.0000 C   0  0  0  0  0  0  0  0  0  0  0  0
   -3.4182   -7.6652    0.0000 N   0  0  0  0  0  0  0  0  0  0  0  0
   -3.8817   -9.0918    0.0000 C   0  0  0  0  0  0  0  0  0  0  0  0
   -5.3489   -9.4037    0.0000 C   0  0  0  0  0  0  0  0  0  0  0  0
   -5.8124  -10.8303    0.0000 C   0  0  0  0  0  0  0  0  0  0  0  0
   -4.8087  -11.9450    0.0000 C   0  0  0  0  0  0  0  0  0  0  0  0
   -3.3415  -11.6331    0.0000 C   0  0  0  0  0  0  0  0  0  0  0  0
   -2.8780  -10.2065    0.0000 C   0  0  0  0  0  0  0  0  0  0  0  0
   -1.9916   -7.2017    0.0000 C   0  0  0  0  0  0  0  0  0  0  0  0
   -1.9916   -5.7017    0.0000 C   0  0  0  0  0  0  0  0  0  0  0  0
   -3.4182   -5.2382    0.0000 N   0  0  0  0  0  0  0  0  0  0  0  0
   -3.8817   -3.8116    0.0000 N   0  0  0  0  0  0  0  0  0  0  0  0
   -5.3083   -3.3481    0.0000 N   0  0  0  0  0  0  0  0  0  0  0  0
   -5.3083   -1.8481    0.0000 C   0  0  0  0  0  0  0  0  0  0  0  0
   -3.8817   -1.3846    0.0000 C   0  0  0  0  0  0  0  0  0  0  0  0
   -3.0000   -2.5981    0.0000 N   0  0  0  0  0  0  0  0  0  0  0  0
   -1.5000   -2.5981    0.0000 C   0  0  0  0  0  0  0  0  0  0  0  0
   -0.7500   -3.8971    0.0000 C   0  0  0  0  0  0  0  0  0  0  0  0
    0.7500   -3.8971    0.0000 C   0  0  0  0  0  0  0  0  0  0  0  0
    1.5000   -2.5981    0.0000 C   0  0  0  0  0  0  0  0  0  0  0  0
    0.7500   -1.2990    0.0000 C   0  0  0  0  0  0  0  0  0  0  0  0
    1.5000    0.0000    0.0000 C   0  0  0  0  0  0  0  0  0  0  0  0
    0.7500    1.2990    0.0000 C   0  0  0  0  0  0  0  0  0  0  0  0
   -0.7500    1.2990    0.0000 C   0  0  0  0  0  0  0  0  0  0  0  0
   -1.5000    0.0000    0.0000 C   0  0  0  0  0  0  0  0  0  0  0  0
   -0.7500   -1.2990    0.0000 C   0  0  0  0  0  0  0  0  0  0  0  0
  1  2  2  0
  2  3  1  0
  3  4  1  0
  4  5  2  0
  5  6  1  0
  6  7  2  0
  7  8  1  0
  8  9  2  0
  3 10  1  0
 10 11  1  0
 11 12  1  0
 12 13  1  0
 13 14  1  0
 14 15  2  0
 15 16  1  0
 16 17  1  0
 17 18  1  0
 18 19  1  0
 19 20  1  0
 20 21  2  0
 21 22  1  0
 22 23  2  0
 23 24  1  0
 24 25  2  0
 25 26  1  0
 26 27  2  0
 12  2  1  0
 17 13  1  0
 27 18  1  0
  9  4  1  0
 27 22  1  0
M  END
>  <Title>  (606) 
idAAVJgen13

$$$$

     RDKit          2D

 14 15  0  0  0  0  0  0  0  0999 V2000
   -8.2018   -1.6197    0.0000 C   0  0  0  0  0  0  0  0  0  0  0  0
   -6.8314   -1.0096    0.0000 C   0  0  0  0  0  0  0  0  0  0  0  0
   -5.6179   -1.8913    0.0000 C   0  0  0  0  0  0  0  0  0  0  0  0
   -4.2476   -1.2812    0.0000 C   0  0  0  0  0  0  0  0  0  0  0  0
   -3.0341   -2.1628    0.0000 C   0  0  0  0  0  0  0  0  0  0  0  0
   -3.1909   -3.6546    0.0000 O   0  0  0  0  0  0  0  0  0  0  0  0
   -1.6638   -1.5527    0.0000 N   0  0  0  0  0  0  0  0  0  0  0  0
   -0.3647   -2.3027    0.0000 C   0  0  0  0  0  0  0  0  0  0  0  0
    0.7500   -1.2990    0.0000 C   0  0  0  0  0  0  0  0  0  0  0  0
    1.5000    0.0000    0.0000 C   0  0  0  0  0  0  0  0  0  0  0  0
    0.7500    1.2990    0.0000 C   0  0  0  0  0  0  0  0  0  0  0  0
   -0.7500    1.2990    0.0000 C   0  0  0  0  0  0  0  0  0  0  0  0
   -1.5000    0.0000    0.0000 C   0  0  0  0  0  0  0  0  0  0  0  0
   -0.7500   -1.2990    0.0000 C   0  0  0  0  0  0  0  0  0  0  0  0
  1  2  2  0
  2  3  1  0
  3  4  1  0
  4  5  1  0
  5  6  2  0
  5  7  1  0
  7  8  1  0
  8  9  1  0
  9 10  2  0
 10 11  1  0
 11 12  2  0
 12 13  1  0
 13 14  1  0
 13  7  1  0
 14  9  1  0
M  END
>  <Title>  (607) 
idAAVKgen13

$$$$

     RDKit          2D

 33 35  0  0  0  0  0  0  0  0999 V2000
    9.1771   -3.8971    0.0000 C   0  0  0  0  0  0  0  0  0  0  0  0
    8.4271   -2.5981    0.0000 C   0  0  0  0  0  0  0  0  0  0  0  0
    6.9271   -2.5981    0.0000 C   0  0  0  0  0  0  0  0  0  0  0  0
    6.1771   -1.2990    0.0000 C   0  0  0  0  0  0  0  0  0  0  0  0
    4.6771   -1.2990    0.0000 C   0  0  0  0  0  0  0  0  0  0  0  0
    3.9271   -2.5981    0.0000 O   0  0  0  0  0  0  0  0  0  0  0  0
    3.9271    0.0000    0.0000 N   0  0  0  0  0  0  0  0  0  0  0  0
    2.4271    0.0000    0.0000 C   0  0  0  0  0  0  0  0  0  0  0  0
    1.9635   -1.4266    0.0000 C   0  0  0  0  0  0  0  0  0  0  0  0
    0.7500   -2.3083    0.0000 C   0  0  0  0  0  0  0  0  0  0  0  0
   -0.7500   -2.3083    0.0000 C   0  0  0  0  0  0  0  0  0  0  0  0
   -1.2135   -3.7348    0.0000 C   0  0  0  0  0  0  0  0  0  0  0  0
   -0.2098   -4.8496    0.0000 O   0  0  0  0  0  0  0  0  0  0  0  0
   -2.6807   -4.0467    0.0000 N   0  0  0  0  0  0  0  0  0  0  0  0
   -3.1443   -5.4733    0.0000 C   0  0  0  0  0  0  0  0  0  0  0  0
   -2.2626   -6.6868    0.0000 N   0  0  0  0  0  0  0  0  0  0  0  0
   -3.1443   -7.9004    0.0000 N   0  0  0  0  0  0  0  0  0  0  0  0
   -4.5709   -7.4368    0.0000 N   0  0  0  0  0  0  0  0  0  0  0  0
   -4.5709   -5.9368    0.0000 N   0  0  0  0  0  0  0  0  0  0  0  0
   -5.7844   -5.0551    0.0000 C   0  0  0  0  0  0  0  0  0  0  0  0
   -7.1053   -5.7660    0.0000 C   0  0  0  0  0  0  0  0  0  0  0  0
   -8.4846   -5.1764    0.0000 C   0  0  0  0  0  0  0  0  0  0  0  0
   -8.8836   -3.7305    0.0000 C   0  0  0  0  0  0  0  0  0  0  0  0
   -8.0019   -2.5169    0.0000 C   0  0  0  0  0  0  0  0  0  0  0  0
   -6.5035   -2.4496    0.0000 O   0  0  0  0  0  0  0  0  0  0  0  0
   -5.5165   -3.5793    0.0000 C   0  0  0  0  0  0  0  0  0  0  0  0
   -1.9635   -1.4266    0.0000 O   0  0  0  0  0  0  0  0  0  0  0  0
   -2.4271    0.0000    0.0000 C   0  0  0  0  0  0  0  0  0  0  0  0
   -3.9271    0.0000    0.0000 O   0  0  0  0  0  0  0  0  0  0  0  0
   -1.9635    1.4266    0.0000 C   0  0  0  0  0  0  0  0  0  0  0  0
   -0.7500    2.3083    0.0000 C   0  0  0  0  0  0  0  0  0  0  0  0
    0.7500    2.3083    0.0000 C   0  0  0  0  0  0  0  0  0  0  0  0
    1.9635    1.4266    0.0000 C   0  0  0  0  0  0  0  0  0  0  0  0
  1  2  2  0
  2  3  1  0
  3  4  1  0
  4  5  1  0
  5  6  2  0
  5  7  1  0
  7  8  1  0
  8  9  2  0
  9 10  1  0
 10 11  2  0
 11 12  1  0
 12 13  2  0
 12 14  1  0
 14 15  1  0
 15 16  2  0
 16 17  1  0
 17 18  2  0
 18 19  1  0
 19 20  1  0
 20 21  2  0
 21 22  1  0
 22 23  2  0
 23 24  1  0
 24 25  1  0
 25 26  1  0
 11 27  1  0
 27 28  1  0
 28 29  2  0
 28 30  1  0
 30 31  1  0
 31 32  1  0
 32 33  2  0
 33  8  1  0
 19 15  1  0
 26 20  1  0
M  END
>  <Title>  (608) 
idAAVLgen13

$$$$

     RDKit          2D

 66 66  0  0  0  0  0  0  0  0999 V2000
   91.5000    0.0000    0.0000 C   0  0  0  0  0  0  0  0  0  0  0  0
   90.0000    0.0000    0.0000 C   0  0  0  0  0  0  0  0  0  0  0  0
   88.5000    0.0000    0.0000 C   0  0  0  0  0  0  0  0  0  0  0  0
   87.0000    0.0000    0.0000 C   0  0  0  0  0  0  0  0  0  0  0  0
   85.5000    0.0000    0.0000 C   0  0  0  0  0  0  0  0  0  0  0  0
   84.0000    0.0000    0.0000 C   0  0  0  0  0  0  0  0  0  0  0  0
   82.5000    0.0000    0.0000 C   0  0  0  0  0  0  0  0  0  0  0  0
   81.0000    0.0000    0.0000 C   0  0  0  0  0  0  0  0  0  0  0  0
   79.5000    0.0000    0.0000 C   0  0  0  0  0  0  0  0  0  0  0  0
   78.0000    0.0000    0.0000 C   0  0  0  0  0  0  0  0  0  0  0  0
   76.5000    0.0000    0.0000 C   0  0  0  0  0  0  0  0  0  0  0  0
   75.0000    0.0000    0.0000 C   0  0  0  0  0  0  0  0  0  0  0  0
   73.5000    0.0000    0.0000 C   0  0  0  0  0  0  0  0  0  0  0  0
   72.0000    0.0000    0.0000 C   0  0  0  0  0  0  0  0  0  0  0  0
   70.5000    0.0000    0.0000 C   0  0  0  0  0  0  0  0  0  0  0  0
   69.0000    0.0000    0.0000 C   0  0  0  0  0  0  0  0  0  0  0  0
   67.5000    0.0000    0.0000 C   0  0  0  0  0  0  0  0  0  0  0  0
   66.0000    0.0000    0.0000 C   0  0  0  0  0  0  0  0  0  0  0  0
   64.5000    0.0000    0.0000 C   0  0  0  0  0  0  0  0  0  0  0  0
   63.0000    0.0000    0.0000 C   0  0  0  0  0  0  0  0  0  0  0  0
   61.5000    0.0000    0.0000 C   0  0  0  0  0  0  0  0  0  0  0  0
   60.0000    0.0000    0.0000 C   0  0  0  0  0  0  0  0  0  0  0  0
   58.5000    0.0000    0.0000 C   0  0  0  0  0  0  0  0  0  0  0  0
   57.0000    0.0000    0.0000 C   0  0  0  0  0  0  0  0  0  0  0  0
   55.5000    0.0000    0.0000 C   0  0  0  0  0  0  0  0  0  0  0  0
   54.0000    0.0000    0.0000 C   0  0  0  0  0  0  0  0  0  0  0  0
   52.5000    0.0000    0.0000 C   0  0  0  0  0  0  0  0  0  0  0  0
   51.0000    0.0000    0.0000 C   0  0  0  0  0  0  0  0  0  0  0  0
   49.5000    0.0000    0.0000 C   0  0  0  0  0  0  0  0  0  0  0  0
   48.0000    0.0000    0.0000 C   0  0  0  0  0  0  0  0  0  0  0  0
   46.5000    0.0000    0.0000 C   0  0  0  0  0  0  0  0  0  0  0  0
   45.0000    0.0000    0.0000 C   0  0  0  0  0  0  0  0  0  0  0  0
   43.5000    0.0000    0.0000 C   0  0  0  0  0  0  0  0  0  0  0  0
   42.0000    0.0000    0.0000 C   0  0  0  0  0  0  0  0  0  0  0  0
   40.5000    0.0000    0.0000 C   0  0  0  0  0  0  0  0  0  0  0  0
   39.0000    0.0000    0.0000 C   0  0  0  0  0  0  0  0  0  0  0  0
   37.5000    0.0000    0.0000 C   0  0  0  0  0  0  0  0  0  0  0  0
   36.0000    0.0000    0.0000 C   0  0  0  0  0  0  0  0  0  0  0  0
   34.5000    0.0000    0.0000 C   0  0  0  0  0  0  0  0  0  0  0  0
   33.0000    0.0000    0.0000 C   0  0  0  0  0  0  0  0  0  0  0  0
   31.5000    0.0000    0.0000 C   0  0  0  0  0  0  0  0  0  0  0  0
   30.0000    0.0000    0.0000 C   0  0  0  0  0  0  0  0  0  0  0  0
   28.5000    0.0000    0.0000 C   0  0  0  0  0  0  0  0  0  0  0  0
   27.0000    0.0000    0.0000 C   0  0  0  0  0  0  0  0  0  0  0  0
   25.5000    0.0000    0.0000 C   0  0  0  0  0  0  0  0  0  0  0  0
   24.0000    0.0000    0.0000 C   0  0  0  0  0  0  0  0  0  0  0  0
   22.5000    0.0000    0.0000 C   0  0  0  0  0  0  0  0  0  0  0  0
   21.0000    0.0000    0.0000 C   0  0  0  0  0  0  0  0  0  0  0  0
   19.5000    0.0000    0.0000 C   0  0  0  0  0  0  0  0  0  0  0  0
   18.0000    0.0000    0.0000 C   0  0  0  0  0  0  0  0  0  0  0  0
   16.5000    0.0000    0.0000 C   0  0  0  0  0  0  0  0  0  0  0  0
   15.0000    0.0000    0.0000 C   0  0  0  0  0  0  0  0  0  0  0  0
   13.5000    0.0000    0.0000 C   0  0  0  0  0  0  0  0  0  0  0  0
   12.0000    0.0000    0.0000 C   0  0  0  0  0  0  0  0  0  0  0  0
   10.5000    0.0000    0.0000 C   0  0  0  0  0  0  0  0  0  0  0  0
    9.0000    0.0000    0.0000 C   0  0  0  0  0  0  0  0  0  0  0  0
    7.5000    0.0000    0.0000 C   0  0  0  0  0  0  0  0  0  0  0  0
    6.0000    0.0000    0.0000 C   0  0  0  0  0  0  0  0  0  0  0  0
    4.5000    0.0000    0.0000 C   0  0  0  0  0  0  0  0  0  0  0  0
    3.0000    0.0000    0.0000 C   0  0  0  0  0  0  0  0  0  0  0  0
    1.5000    0.0000    0.0000 C   0  0  0  0  0  0  0  0  0  0  0  0
    0.7500   -1.2990    0.0000 C   0  0  0  0  0  0  0  0  0  0  0  0
   -0.7500   -1.2990    0.0000 C   0  0  0  0  0  0  0  0  0  0  0  0
   -1.5000    0.0000    0.0000 C   0  0  0  0  0  0  0  0  0  0  0  0
   -0.7500    1.2990    0.0000 C   0  0  0  0  0  0  0  0  0  0  0  0
    0.7500    1.2990    0.0000 C   0  0  0  0  0  0  0  0  0  0  0  0
  1  2  3  0
  2  3  1  0
  3  4  3  0
  4  5  1  0
  5  6  3  0
  6  7  1  0
  7  8  3  0
  8  9  1  0
  9 10  3  0
 10 11  1  0
 11 12  3  0
 12 13  1  0
 13 14  3  0
 14 15  1  0
 15 16  3  0
 16 17  1  0
 17 18  3  0
 18 19  1  0
 19 20  3  0
 20 21  1  0
 21 22  3  0
 22 23  1  0
 23 24  3  0
 24 25  1  0
 25 26  3  0
 26 27  1  0
 27 28  3  0
 28 29  1  0
 29 30  3  0
 30 31  1  0
 31 32  3  0
 32 33  1  0
 33 34  3  0
 34 35  1  0
 35 36  3  0
 36 37  1  0
 37 38  3  0
 38 39  1  0
 39 40  3  0
 40 41  1  0
 41 42  3  0
 42 43  1  0
 43 44  3  0
 44 45  1  0
 45 46  3  0
 46 47  1  0
 47 48  3  0
 48 49  1  0
 49 50  3  0
 50 51  1  0
 51 52  3  0
 52 53  1  0
 53 54  3  0
 54 55  1  0
 55 56  3  0
 56 57  1  0
 57 58  3  0
 58 59  1  0
 59 60  3  0
 60 61  1  0
 61 62  2  0
 62 63  1  0
 63 64  2  0
 64 65  1  0
 65 66  2  0
 66 61  1  0
M  END
>  <Title>  (609) 
idAAVMgen13

$$$$

     RDKit          2D

 68 68  0  0  0  0  0  0  0  0999 V2000
   93.7500   -1.2990    0.0000 C   0  0  0  0  0  0  0  0  0  0  0  0
   93.0000    0.0000    0.0000 C   0  0  0  0  0  0  0  0  0  0  0  0
   91.5000    0.0000    0.0000 C   0  0  0  0  0  0  0  0  0  0  0  0
   90.0000    0.0000    0.0000 C   0  0  0  0  0  0  0  0  0  0  0  0
   88.5000    0.0000    0.0000 C   0  0  0  0  0  0  0  0  0  0  0  0
   87.0000    0.0000    0.0000 C   0  0  0  0  0  0  0  0  0  0  0  0
   85.5000    0.0000    0.0000 C   0  0  0  0  0  0  0  0  0  0  0  0
   84.0000    0.0000    0.0000 C   0  0  0  0  0  0  0  0  0  0  0  0
   82.5000    0.0000    0.0000 C   0  0  0  0  0  0  0  0  0  0  0  0
   81.0000    0.0000    0.0000 C   0  0  0  0  0  0  0  0  0  0  0  0
   79.5000    0.0000    0.0000 C   0  0  0  0  0  0  0  0  0  0  0  0
   78.0000    0.0000    0.0000 C   0  0  0  0  0  0  0  0  0  0  0  0
   76.5000    0.0000    0.0000 C   0  0  0  0  0  0  0  0  0  0  0  0
   75.0000    0.0000    0.0000 C   0  0  0  0  0  0  0  0  0  0  0  0
   73.5000    0.0000    0.0000 C   0  0  0  0  0  0  0  0  0  0  0  0
   72.0000    0.0000    0.0000 C   0  0  0  0  0  0  0  0  0  0  0  0
   70.5000    0.0000    0.0000 C   0  0  0  0  0  0  0  0  0  0  0  0
   69.0000    0.0000    0.0000 C   0  0  0  0  0  0  0  0  0  0  0  0
   67.5000    0.0000    0.0000 C   0  0  0  0  0  0  0  0  0  0  0  0
   66.0000    0.0000    0.0000 C   0  0  0  0  0  0  0  0  0  0  0  0
   64.5000    0.0000    0.0000 C   0  0  0  0  0  0  0  0  0  0  0  0
   63.0000    0.0000    0.0000 C   0  0  0  0  0  0  0  0  0  0  0  0
   61.5000    0.0000    0.0000 C   0  0  0  0  0  0  0  0  0  0  0  0
   60.0000    0.0000    0.0000 C   0  0  0  0  0  0  0  0  0  0  0  0
   58.5000    0.0000    0.0000 C   0  0  0  0  0  0  0  0  0  0  0  0
   57.0000    0.0000    0.0000 C   0  0  0  0  0  0  0  0  0  0  0  0
   55.5000    0.0000    0.0000 C   0  0  0  0  0  0  0  0  0  0  0  0
   54.0000    0.0000    0.0000 C   0  0  0  0  0  0  0  0  0  0  0  0
   52.5000    0.0000    0.0000 C   0  0  0  0  0  0  0  0  0  0  0  0
   51.0000    0.0000    0.0000 C   0  0  0  0  0  0  0  0  0  0  0  0
   49.5000    0.0000    0.0000 C   0  0  0  0  0  0  0  0  0  0  0  0
   48.0000    0.0000    0.0000 C   0  0  0  0  0  0  0  0  0  0  0  0
   46.5000    0.0000    0.0000 C   0  0  0  0  0  0  0  0  0  0  0  0
   45.0000    0.0000    0.0000 C   0  0  0  0  0  0  0  0  0  0  0  0
   43.5000    0.0000    0.0000 C   0  0  0  0  0  0  0  0  0  0  0  0
   42.0000    0.0000    0.0000 C   0  0  0  0  0  0  0  0  0  0  0  0
   40.5000    0.0000    0.0000 C   0  0  0  0  0  0  0  0  0  0  0  0
   39.0000    0.0000    0.0000 C   0  0  0  0  0  0  0  0  0  0  0  0
   37.5000    0.0000    0.0000 C   0  0  0  0  0  0  0  0  0  0  0  0
   36.0000    0.0000    0.0000 C   0  0  0  0  0  0  0  0  0  0  0  0
   34.5000    0.0000    0.0000 C   0  0  0  0  0  0  0  0  0  0  0  0
   33.0000    0.0000    0.0000 C   0  0  0  0  0  0  0  0  0  0  0  0
   31.5000    0.0000    0.0000 C   0  0  0  0  0  0  0  0  0  0  0  0
   30.0000    0.0000    0.0000 C   0  0  0  0  0  0  0  0  0  0  0  0
   28.5000    0.0000    0.0000 C   0  0  0  0  0  0  0  0  0  0  0  0
   27.0000    0.0000    0.0000 C   0  0  0  0  0  0  0  0  0  0  0  0
   25.5000    0.0000    0.0000 C   0  0  0  0  0  0  0  0  0  0  0  0
   24.0000    0.0000    0.0000 C   0  0  0  0  0  0  0  0  0  0  0  0
   22.5000    0.0000    0.0000 C   0  0  0  0  0  0  0  0  0  0  0  0
   21.0000    0.0000    0.0000 C   0  0  0  0  0  0  0  0  0  0  0  0
   19.5000    0.0000    0.0000 C   0  0  0  0  0  0  0  0  0  0  0  0
   18.0000    0.0000    0.0000 C   0  0  0  0  0  0  0  0  0  0  0  0
   16.5000    0.0000    0.0000 C   0  0  0  0  0  0  0  0  0  0  0  0
   15.0000    0.0000    0.0000 C   0  0  0  0  0  0  0  0  0  0  0  0
   13.5000    0.0000    0.0000 C   0  0  0  0  0  0  0  0  0  0  0  0
   12.0000    0.0000    0.0000 C   0  0  0  0  0  0  0  0  0  0  0  0
   10.5000    0.0000    0.0000 C   0  0  0  0  0  0  0  0  0  0  0  0
    9.0000    0.0000    0.0000 C   0  0  0  0  0  0  0  0  0  0  0  0
    7.5000    0.0000    0.0000 C   0  0  0  0  0  0  0  0  0  0  0  0
    6.0000    0.0000    0.0000 C   0  0  0  0  0  0  0  0  0  0  0  0
    4.5000    0.0000    0.0000 C   0  0  0  0  0  0  0  0  0  0  0  0
    3.0000    0.0000    0.0000 C   0  0  0  0  0  0  0  0  0  0  0  0
    1.5000    0.0000    0.0000 C   0  0  0  0  0  0  0  0  0  0  0  0
    0.7500   -1.2990    0.0000 C   0  0  0  0  0  0  0  0  0  0  0  0
   -0.7500   -1.2990    0.0000 C   0  0  0  0  0  0  0  0  0  0  0  0
   -1.5000    0.0000    0.0000 C   0  0  0  0  0  0  0  0  0  0  0  0
   -0.7500    1.2990    0.0000 C   0  0  0  0  0  0  0  0  0  0  0  0
    0.7500    1.2990    0.0000 C   0  0  0  0  0  0  0  0  0  0  0  0
  1  2  2  0
  2  3  1  0
  3  4  3  0
  4  5  1  0
  5  6  3  0
  6  7  1  0
  7  8  3  0
  8  9  1  0
  9 10  3  0
 10 11  1  0
 11 12  3  0
 12 13  1  0
 13 14  3  0
 14 15  1  0
 15 16  3  0
 16 17  1  0
 17 18  3  0
 18 19  1  0
 19 20  3  0
 20 21  1  0
 21 22  3  0
 22 23  1  0
 23 24  3  0
 24 25  1  0
 25 26  3  0
 26 27  1  0
 27 28  3  0
 28 29  1  0
 29 30  3  0
 30 31  1  0
 31 32  3  0
 32 33  1  0
 33 34  3  0
 34 35  1  0
 35 36  3  0
 36 37  1  0
 37 38  3  0
 38 39  1  0
 39 40  3  0
 40 41  1  0
 41 42  3  0
 42 43  1  0
 43 44  3  0
 44 45  1  0
 45 46  3  0
 46 47  1  0
 47 48  3  0
 48 49  1  0
 49 50  3  0
 50 51  1  0
 51 52  3  0
 52 53  1  0
 53 54  3  0
 54 55  1  0
 55 56  3  0
 56 57  1  0
 57 58  3  0
 58 59  1  0
 59 60  3  0
 60 61  1  0
 61 62  3  0
 62 63  1  0
 63 64  2  0
 64 65  1  0
 65 66  2  0
 66 67  1  0
 67 68  2  0
 68 63  1  0
M  END
>  <Title>  (610) 
idAAVNgen13

$$$$

     RDKit          2D

 42 47  0  0  0  0  0  0  0  0999 V2000
   -2.0276    4.3218    0.0000 C   0  0  0  0  0  0  0  0  0  0  0  0
   -2.4911    2.8952    0.0000 C   0  0  0  0  0  0  0  0  0  0  0  0
   -2.9546    1.4686    0.0000 C   0  0  0  0  0  0  0  0  0  0  0  0
   -3.4182    0.0420    0.0000 C   0  0  0  0  0  0  0  0  0  0  0  0
   -3.8817   -1.3846    0.0000 C   0  0  0  0  0  0  0  0  0  0  0  0
   -5.3083   -1.8481    0.0000 N   0  0  0  0  0  0  0  0  0  0  0  0
   -5.3083   -3.3481    0.0000 N   0  0  0  0  0  0  0  0  0  0  0  0
   -3.8817   -3.8116    0.0000 N   0  0  0  0  0  0  0  0  0  0  0  0
   -3.0000   -2.5981    0.0000 N   0  0  0  0  0  0  0  0  0  0  0  0
   -1.5000   -2.5981    0.0000 C   0  0  0  0  0  0  0  0  0  0  0  0
   -0.7500   -3.8971    0.0000 C   0  0  0  0  0  0  0  0  0  0  0  0
    0.7500   -3.8971    0.0000 C   0  0  0  0  0  0  0  0  0  0  0  0
    1.5000   -2.5981    0.0000 C   0  0  0  0  0  0  0  0  0  0  0  0
    3.0000   -2.5981    0.0000 C   0  0  0  0  0  0  0  0  0  0  0  0
    3.7500   -1.2990    0.0000 O   0  0  0  0  0  0  0  0  0  0  0  0
    3.7500   -3.8971    0.0000 N   0  0  0  0  0  0  0  0  0  0  0  0
    5.2500   -3.8971    0.0000 C   0  0  0  0  0  0  0  0  0  0  0  0
    6.1317   -2.6836    0.0000 N   0  0  0  0  0  0  0  0  0  0  0  0
    7.5583   -3.1471    0.0000 N   0  0  0  0  0  0  0  0  0  0  0  0
    7.5583   -4.6471    0.0000 N   0  0  0  0  0  0  0  0  0  0  0  0
    6.1317   -5.1106    0.0000 N   0  0  0  0  0  0  0  0  0  0  0  0
    5.6682   -6.5372    0.0000 N   0  0  0  0  0  0  0  0  0  0  0  0
    6.5498   -7.7508    0.0000 C   0  0  0  0  0  0  0  0  0  0  0  0
    5.6682   -8.9643    0.0000 C   0  0  0  0  0  0  0  0  0  0  0  0
    4.2416   -8.5008    0.0000 N   0  0  0  0  0  0  0  0  0  0  0  0
    3.0280   -9.3824    0.0000 C   0  0  0  0  0  0  0  0  0  0  0  0
    3.1848  -10.8742    0.0000 O   0  0  0  0  0  0  0  0  0  0  0  0
    1.6577   -8.7723    0.0000 N   0  0  0  0  0  0  0  0  0  0  0  0
    0.4442   -9.6540    0.0000 C   0  0  0  0  0  0  0  0  0  0  0  0
   -0.9261   -9.0439    0.0000 N   0  0  0  0  0  0  0  0  0  0  0  0
   -2.1396   -9.9256    0.0000 N   0  0  0  0  0  0  0  0  0  0  0  0
   -1.9829  -11.4174    0.0000 N   0  0  0  0  0  0  0  0  0  0  0  0
   -0.6125  -12.0275    0.0000 N   0  0  0  0  0  0  0  0  0  0  0  0
    0.6010  -11.1458    0.0000 N   0  0  0  0  0  0  0  0  0  0  0  0
    4.2416   -7.0008    0.0000 C   0  0  0  0  0  0  0  0  0  0  0  0
    3.0280   -6.1191    0.0000 O   0  0  0  0  0  0  0  0  0  0  0  0
    0.7500   -1.2990    0.0000 C   0  0  0  0  0  0  0  0  0  0  0  0
    1.5000    0.0000    0.0000 C   0  0  0  0  0  0  0  0  0  0  0  0
    0.7500    1.2990    0.0000 C   0  0  0  0  0  0  0  0  0  0  0  0
   -0.7500    1.2990    0.0000 C   0  0  0  0  0  0  0  0  0  0  0  0
   -1.5000    0.0000    0.0000 C   0  0  0  0  0  0  0  0  0  0  0  0
   -0.7500   -1.2990    0.0000 C   0  0  0  0  0  0  0  0  0  0  0  0
  1  2  3  0
  2  3  1  0
  3  4  3  0
  4  5  1  0
  5  6  2  0
  6  7  1  0
  7  8  2  0
  8  9  1  0
  9 10  1  0
 10 11  2  0
 11 12  1  0
 12 13  2  0
 13 14  1  0
 14 15  2  0
 14 16  1  0
 16 17  1  0
 17 18  2  0
 18 19  1  0
 19 20  2  0
 20 21  1  0
 21 22  1  0
 22 23  1  0
 23 24  1  0
 24 25  1  0
 25 26  1  0
 26 27  2  0
 26 28  1  0
 28 29  1  0
 29 30  2  0
 30 31  1  0
 31 32  2  0
 32 33  1  0
 33 34  2  0
 25 35  1  0
 35 36  2  0
 13 37  1  0
 37 38  2  0
 38 39  1  0
 39 40  2  0
 40 41  1  0
 41 42  2  0
  9  5  1  0
 42 10  1  0
 21 17  1  0
 35 22  1  0
 42 37  1  0
 34 29  1  0
M  END
>  <Title>  (611) 
idAAVOgen13

$$$$

     RDKit          2D

 91 92  0  0  0  0  0  0  0  0999 V2000
   -2.1820   -1.0777    0.0000 C   0  0  0  0  0  0  0  0  0  0  0  0
   -2.4886    0.3906    0.0000 C   0  0  0  0  0  0  0  0  0  0  0  0
   -3.9670    0.1373    0.0000 C   0  0  0  0  0  0  0  0  0  0  0  0
   -5.4599   -0.0087    0.0000 C   0  0  0  0  0  0  0  0  0  0  0  0
   -6.9594   -0.0467    0.0000 C   0  0  0  0  0  0  0  0  0  0  0  0
   -8.4578    0.0237    0.0000 C   0  0  0  0  0  0  0  0  0  0  0  0
   -9.9472    0.2021    0.0000 C   0  0  0  0  0  0  0  0  0  0  0  0
  -11.4198    0.4874    0.0000 C   0  0  0  0  0  0  0  0  0  0  0  0
  -12.8680    0.8782    0.0000 C   0  0  0  0  0  0  0  0  0  0  0  0
  -14.2842    1.3725    0.0000 C   0  0  0  0  0  0  0  0  0  0  0  0
  -15.6610    1.9678    0.0000 C   0  0  0  0  0  0  0  0  0  0  0  0
  -16.9913    2.6608    0.0000 C   0  0  0  0  0  0  0  0  0  0  0  0
  -18.2681    3.4480    0.0000 C   0  0  0  0  0  0  0  0  0  0  0  0
  -19.4849    4.3253    0.0000 C   0  0  0  0  0  0  0  0  0  0  0  0
  -20.6351    5.2881    0.0000 C   0  0  0  0  0  0  0  0  0  0  0  0
  -21.7128    6.3314    0.0000 C   0  0  0  0  0  0  0  0  0  0  0  0
  -22.7125    7.4497    0.0000 C   0  0  0  0  0  0  0  0  0  0  0  0
  -23.6289    8.6373    0.0000 C   0  0  0  0  0  0  0  0  0  0  0  0
  -24.4571    9.8878    0.0000 C   0  0  0  0  0  0  0  0  0  0  0  0
  -25.1930   11.1949    0.0000 C   0  0  0  0  0  0  0  0  0  0  0  0
  -25.8327   12.5517    0.0000 C   0  0  0  0  0  0  0  0  0  0  0  0
  -26.3728   13.9511    0.0000 C   0  0  0  0  0  0  0  0  0  0  0  0
  -26.8104   15.3858    0.0000 C   0  0  0  0  0  0  0  0  0  0  0  0
  -27.1435   16.8484    0.0000 C   0  0  0  0  0  0  0  0  0  0  0  0
  -27.3701   18.3312    0.0000 C   0  0  0  0  0  0  0  0  0  0  0  0
  -27.4891   19.8264    0.0000 C   0  0  0  0  0  0  0  0  0  0  0  0
  -27.5000   21.3264    0.0000 C   0  0  0  0  0  0  0  0  0  0  0  0
  -27.4025   22.8232    0.0000 C   0  0  0  0  0  0  0  0  0  0  0  0
  -27.1974   24.3091    0.0000 C   0  0  0  0  0  0  0  0  0  0  0  0
  -26.8855   25.7764    0.0000 C   0  0  0  0  0  0  0  0  0  0  0  0
  -26.4686   27.2172    0.0000 C   0  0  0  0  0  0  0  0  0  0  0  0
  -25.9488   28.6243    0.0000 C   0  0  0  0  0  0  0  0  0  0  0  0
  -25.3288   29.9902    0.0000 C   0  0  0  0  0  0  0  0  0  0  0  0
  -24.6118   31.3078    0.0000 C   0  0  0  0  0  0  0  0  0  0  0  0
  -23.8017   32.5702    0.0000 C   0  0  0  0  0  0  0  0  0  0  0  0
  -22.9026   33.7708    0.0000 C   0  0  0  0  0  0  0  0  0  0  0  0
  -21.9192   34.9035    0.0000 C   0  0  0  0  0  0  0  0  0  0  0  0
  -20.8566   35.9622    0.0000 C   0  0  0  0  0  0  0  0  0  0  0  0
  -19.7204   36.9415    0.0000 C   0  0  0  0  0  0  0  0  0  0  0  0
  -18.5165   37.8363    0.0000 C   0  0  0  0  0  0  0  0  0  0  0  0
  -17.2512   38.6419    0.0000 C   0  0  0  0  0  0  0  0  0  0  0  0
  -15.9310   39.3540    0.0000 C   0  0  0  0  0  0  0  0  0  0  0  0
  -14.5629   39.9691    0.0000 C   0  0  0  0  0  0  0  0  0  0  0  0
  -13.1540   40.4838    0.0000 C   0  0  0  0  0  0  0  0  0  0  0  0
  -11.7116   40.8955    0.0000 C   0  0  0  0  0  0  0  0  0  0  0  0
  -10.2433   41.2021    0.0000 C   0  0  0  0  0  0  0  0  0  0  0  0
   -8.7566   41.4019    0.0000 C   0  0  0  0  0  0  0  0  0  0  0  0
   -7.2595   41.4940    0.0000 C   0  0  0  0  0  0  0  0  0  0  0  0
   -5.7595   41.4777    0.0000 C   0  0  0  0  0  0  0  0  0  0  0  0
   -4.2647   41.3533    0.0000 C   0  0  0  0  0  0  0  0  0  0  0  0
   -2.7828   41.1213    0.0000 C   0  0  0  0  0  0  0  0  0  0  0  0
   -1.3214   40.7830    0.0000 C   0  0  0  0  0  0  0  0  0  0  0  0
    0.1117   40.3401    0.0000 C   0  0  0  0  0  0  0  0  0  0  0  0
    1.5092   39.7950    0.0000 C   0  0  0  0  0  0  0  0  0  0  0  0
    2.8636   39.1504    0.0000 C   0  0  0  0  0  0  0  0  0  0  0  0
    4.1680   38.4098    0.0000 C   0  0  0  0  0  0  0  0  0  0  0  0
    5.4156   37.5770    0.0000 C   0  0  0  0  0  0  0  0  0  0  0  0
    6.5999   36.6564    0.0000 C   0  0  0  0  0  0  0  0  0  0  0  0
    7.7146   35.6527    0.0000 C   0  0  0  0  0  0  0  0  0  0  0  0
    8.7540   34.5712    0.0000 C   0  0  0  0  0  0  0  0  0  0  0  0
    9.7126   33.4175    0.0000 C   0  0  0  0  0  0  0  0  0  0  0  0
   10.5855   32.1976    0.0000 C   0  0  0  0  0  0  0  0  0  0  0  0
   11.3681   30.9180    0.0000 C   0  0  0  0  0  0  0  0  0  0  0  0
   12.0563   29.5852    0.0000 C   0  0  0  0  0  0  0  0  0  0  0  0
   12.6465   28.2062    0.0000 C   0  0  0  0  0  0  0  0  0  0  0  0
   13.1358   26.7882    0.0000 C   0  0  0  0  0  0  0  0  0  0  0  0
   13.5214   25.3386    0.0000 C   0  0  0  0  0  0  0  0  0  0  0  0
   13.8014   23.8650    0.0000 C   0  0  0  0  0  0  0  0  0  0  0  0
   13.9743   22.3750    0.0000 C   0  0  0  0  0  0  0  0  0  0  0  0
   14.0393   20.8764    0.0000 C   0  0  0  0  0  0  0  0  0  0  0  0
   13.9960   19.3770    0.0000 C   0  0  0  0  0  0  0  0  0  0  0  0
   13.8446   17.8847    0.0000 C   0  0  0  0  0  0  0  0  0  0  0  0
   13.5859   16.4071    0.0000 C   0  0  0  0  0  0  0  0  0  0  0  0
   13.2212   14.9521    0.0000 C   0  0  0  0  0  0  0  0  0  0  0  0
   12.7526   13.5272    0.0000 C   0  0  0  0  0  0  0  0  0  0  0  0
   12.1823   12.1399    0.0000 C   0  0  0  0  0  0  0  0  0  0  0  0
   11.5134   10.7973    0.0000 C   0  0  0  0  0  0  0  0  0  0  0  0
   10.7494    9.5064    0.0000 C   0  0  0  0  0  0  0  0  0  0  0  0
    9.8942    8.2741    0.0000 C   0  0  0  0  0  0  0  0  0  0  0  0
    8.9523    7.1067    0.0000 C   0  0  0  0  0  0  0  0  0  0  0  0
    7.9287    6.0103    0.0000 C   0  0  0  0  0  0  0  0  0  0  0  0
    6.8286    4.9906    0.0000 C   0  0  0  0  0  0  0  0  0  0  0  0
    5.6577    4.0529    0.0000 C   0  0  0  0  0  0  0  0  0  0  0  0
    4.4223    3.2022    0.0000 C   0  0  0  0  0  0  0  0  0  0  0  0
    3.1287    2.4428    0.0000 C   0  0  0  0  0  0  0  0  0  0  0  0
    1.7837    1.7788    0.0000 C   0  0  0  0  0  0  0  0  0  0  0  0
    0.3943    1.2135    0.0000 C   0  0  0  0  0  0  0  0  0  0  0  0
    1.2760    0.0000    0.0000 C   0  0  0  0  0  0  0  0  0  0  0  0
    0.3943   -1.2135    0.0000 C   0  0  0  0  0  0  0  0  0  0  0  0
   -1.0323   -0.7500    0.0000 C   0  0  0  0  0  0  0  0  0  0  0  0
   -1.0323    0.7500    0.0000 N   0  0  0  0  0  0  0  0  0  0  0  0
  1  2  1  0
  2  3  1  0
  3  4  1  0
  4  5  1  0
  5  6  1  0
  6  7  1  0
  7  8  1  0
  8  9  1  0
  9 10  1  0
 10 11  1  0
 11 12  1  0
 12 13  1  0
 13 14  1  0
 14 15  1  0
 15 16  1  0
 16 17  1  0
 17 18  1  0
 18 19  1  0
 19 20  1  0
 20 21  1  0
 21 22  1  0
 22 23  1  0
 23 24  1  0
 24 25  1  0
 25 26  1  0
 26 27  1  0
 27 28  1  0
 28 29  1  0
 29 30  1  0
 30 31  1  0
 31 32  1  0
 32 33  1  0
 33 34  1  0
 34 35  1  0
 35 36  1  0
 36 37  1  0
 37 38  1  0
 38 39  1  0
 39 40  1  0
 40 41  1  0
 41 42  1  0
 42 43  1  0
 43 44  1  0
 44 45  1  0
 45 46  1  0
 46 47  1  0
 47 48  1  0
 48 49  1  0
 49 50  1  0
 50 51  1  0
 51 52  1  0
 52 53  1  0
 53 54  1  0
 54 55  1  0
 55 56  1  0
 56 57  1  0
 57 58  1  0
 58 59  1  0
 59 60  1  0
 60 61  1  0
 61 62  1  0
 62 63  1  0
 63 64  1  0
 64 65  1  0
 65 66  1  0
 66 67  1  0
 67 68  1  0
 68 69  1  0
 69 70  1  0
 70 71  1  0
 71 72  1  0
 72 73  1  0
 73 74  1  0
 74 75  1  0
 75 76  1  0
 76 77  1  0
 77 78  1  0
 78 79  1  0
 79 80  1  0
 80 81  1  0
 81 82  1  0
 82 83  1  0
 83 84  1  0
 84 85  1  0
 85 86  1  0
 86 87  1  0
 87 88  1  0
 88 89  1  0
 89 90  1  0
 90 91  1  0
 91  2  1  0
 91 87  1  0
M  END
>  <Title>  (612) 
idAAVPgen13

$$$$

     RDKit          2D

 36 40  0  0  0  0  0  0  0  0999 V2000
   -3.1965   -1.7857    0.0000 C   0  0  0  0  0  0  0  0  0  0  0  0
   -1.8107   -2.3597    0.0000 C   0  0  0  0  0  0  0  0  0  0  0  0
   -1.8107   -3.8597    0.0000 C   0  0  0  0  0  0  0  0  0  0  0  0
   -0.7500   -4.9204    0.0000 C   0  0  0  0  0  0  0  0  0  0  0  0
    0.7500   -4.9204    0.0000 C   0  0  0  0  0  0  0  0  0  0  0  0
    1.8107   -3.8597    0.0000 C   0  0  0  0  0  0  0  0  0  0  0  0
    1.8107   -2.3597    0.0000 C   0  0  0  0  0  0  0  0  0  0  0  0
    3.1965   -1.7857    0.0000 C   0  0  0  0  0  0  0  0  0  0  0  0
    3.3923   -0.2985    0.0000 O   0  0  0  0  0  0  0  0  0  0  0  0
    4.3865   -2.6988    0.0000 N   0  0  0  0  0  0  0  0  0  0  0  0
    5.7723   -2.1248    0.0000 C   0  0  0  0  0  0  0  0  0  0  0  0
    6.1225   -0.6662    0.0000 N   0  0  0  0  0  0  0  0  0  0  0  0
    7.6179   -0.5485    0.0000 N   0  0  0  0  0  0  0  0  0  0  0  0
    8.1919   -1.9344    0.0000 N   0  0  0  0  0  0  0  0  0  0  0  0
    7.0513   -2.9085    0.0000 N   0  0  0  0  0  0  0  0  0  0  0  0
    7.1690   -4.4039    0.0000 N   0  0  0  0  0  0  0  0  0  0  0  0
    8.4479   -5.1877    0.0000 C   0  0  0  0  0  0  0  0  0  0  0  0
    8.0978   -6.6462    0.0000 C   0  0  0  0  0  0  0  0  0  0  0  0
    6.6024   -6.7639    0.0000 C   0  0  0  0  0  0  0  0  0  0  0  0
    5.8186   -8.0429    0.0000 C   0  0  0  0  0  0  0  0  0  0  0  0
    6.5344   -9.3611    0.0000 O   0  0  0  0  0  0  0  0  0  0  0  0
    4.3192   -8.0036    0.0000 N   0  0  0  0  0  0  0  0  0  0  0  0
    3.5354   -9.2826    0.0000 C   0  0  0  0  0  0  0  0  0  0  0  0
    2.0359   -9.2433    0.0000 N   0  0  0  0  0  0  0  0  0  0  0  0
    1.2522  -10.5223    0.0000 N   0  0  0  0  0  0  0  0  0  0  0  0
    1.9679  -11.8405    0.0000 N   0  0  0  0  0  0  0  0  0  0  0  0
    3.4674  -11.8797    0.0000 N   0  0  0  0  0  0  0  0  0  0  0  0
    4.2512  -10.6008    0.0000 N   0  0  0  0  0  0  0  0  0  0  0  0
    6.0284   -5.3781    0.0000 C   0  0  0  0  0  0  0  0  0  0  0  0
    4.5698   -5.0279    0.0000 O   0  0  0  0  0  0  0  0  0  0  0  0
    0.7500   -1.2990    0.0000 C   0  0  0  0  0  0  0  0  0  0  0  0
    1.5000    0.0000    0.0000 C   0  0  0  0  0  0  0  0  0  0  0  0
    0.7500    1.2990    0.0000 C   0  0  0  0  0  0  0  0  0  0  0  0
   -0.7500    1.2990    0.0000 C   0  0  0  0  0  0  0  0  0  0  0  0
   -1.5000    0.0000    0.0000 C   0  0  0  0  0  0  0  0  0  0  0  0
   -0.7500   -1.2990    0.0000 C   0  0  0  0  0  0  0  0  0  0  0  0
  1  2  1  0
  2  3  2  0
  3  4  1  0
  4  5  1  0
  5  6  1  0
  6  7  1  0
  7  8  1  0
  8  9  2  0
  8 10  1  0
 10 11  1  0
 11 12  2  0
 12 13  1  0
 13 14  2  0
 14 15  1  0
 15 16  1  0
 16 17  1  0
 17 18  1  0
 18 19  1  0
 19 20  1  0
 20 21  2  0
 20 22  1  0
 22 23  1  0
 23 24  2  0
 24 25  1  0
 25 26  2  0
 26 27  1  0
 27 28  2  0
 19 29  1  0
 29 30  2  0
  7 31  1  0
 31 32  2  0
 32 33  1  0
 33 34  2  0
 34 35  1  0
 35 36  2  0
 36  2  1  0
 15 11  1  0
 29 16  1  0
 36 31  1  0
 28 23  1  0
M  END
>  <Title>  (613) 
idAAVQgen13

$$$$

     RDKit          2D

 17 19  0  0  0  0  0  0  0  0999 V2000
   -3.2595   -3.4715    0.0000 C   0  0  0  0  0  0  0  0  0  0  0  0
   -1.8107   -3.8597    0.0000 C   0  0  0  0  0  0  0  0  0  0  0  0
   -1.4224   -5.3086    0.0000 O   0  0  0  0  0  0  0  0  0  0  0  0
   -0.7500   -2.7990    0.0000 N   0  0  0  0  0  0  0  0  0  0  0  0
    0.7500   -2.7990    0.0000 C   0  0  0  0  0  0  0  0  0  0  0  0
    0.7500   -1.2990    0.0000 C   0  0  0  0  0  0  0  0  0  0  0  0
    1.5000    0.0000    0.0000 C   0  0  0  0  0  0  0  0  0  0  0  0
    0.7500    1.2990    0.0000 C   0  0  0  0  0  0  0  0  0  0  0  0
   -0.7500    1.2990    0.0000 C   0  0  0  0  0  0  0  0  0  0  0  0
   -1.5000    2.5981    0.0000 C   0  0  0  0  0  0  0  0  0  0  0  0
   -0.7500    3.8971    0.0000 N   0  0  0  0  0  0  0  0  0  0  0  0
   -1.3601    5.2674    0.0000 C   0  0  0  0  0  0  0  0  0  0  0  0
   -0.2454    6.2711    0.0000 C   0  0  0  0  0  0  0  0  0  0  0  0
    1.0537    5.5211    0.0000 C   0  0  0  0  0  0  0  0  0  0  0  0
    0.7418    4.0539    0.0000 C   0  0  0  0  0  0  0  0  0  0  0  0
   -1.5000    0.0000    0.0000 C   0  0  0  0  0  0  0  0  0  0  0  0
   -0.7500   -1.2990    0.0000 C   0  0  0  0  0  0  0  0  0  0  0  0
  1  2  1  0
  2  3  2  0
  2  4  1  0
  4  5  1  0
  5  6  1  0
  6  7  1  0
  7  8  1  0
  8  9  1  0
  9 10  1  0
 10 11  1  0
 11 12  1  0
 12 13  1  0
 13 14  1  0
 14 15  1  0
  9 16  1  0
 16 17  1  0
 17  4  1  0
 17  6  1  0
 15 11  1  0
M  END
>  <Title>  (614) 
idAAVRgen13

$$$$

     RDKit          2D

 47 53  0  0  0  0  0  0  0  0999 V2000
   -0.0000   -8.0154    0.0000 C   0  0  0  0  0  0  0  0  0  0  0  0
   -0.0000   -6.5154    0.0000 C   0  0  0  0  0  0  0  0  0  0  0  0
    1.4392   -6.0928    0.0000 C   0  0  0  0  0  0  0  0  0  0  0  0
    2.4215   -4.9592    0.0000 C   0  0  0  0  0  0  0  0  0  0  0  0
    2.6350   -3.4744    0.0000 C   0  0  0  0  0  0  0  0  0  0  0  0
    2.0119   -2.1100    0.0000 C   0  0  0  0  0  0  0  0  0  0  0  0
    3.1455   -1.1277    0.0000 C   0  0  0  0  0  0  0  0  0  0  0  0
    2.8616    0.3452    0.0000 O   0  0  0  0  0  0  0  0  0  0  0  0
    4.5630   -1.6183    0.0000 N   0  0  0  0  0  0  0  0  0  0  0  0
    5.6966   -0.6360    0.0000 C   0  0  0  0  0  0  0  0  0  0  0  0
    5.5683    0.8585    0.0000 N   0  0  0  0  0  0  0  0  0  0  0  0
    6.9500    1.4424    0.0000 N   0  0  0  0  0  0  0  0  0  0  0  0
    7.9322    0.3088    0.0000 N   0  0  0  0  0  0  0  0  0  0  0  0
    7.1576   -0.9758    0.0000 N   0  0  0  0  0  0  0  0  0  0  0  0
    7.7416   -2.3574    0.0000 N   0  0  0  0  0  0  0  0  0  0  0  0
    9.2026   -2.6972    0.0000 C   0  0  0  0  0  0  0  0  0  0  0  0
    9.3309   -4.1917    0.0000 C   0  0  0  0  0  0  0  0  0  0  0  0
    7.9492   -4.7756    0.0000 N   0  0  0  0  0  0  0  0  0  0  0  0
    7.6095   -6.2366    0.0000 C   0  0  0  0  0  0  0  0  0  0  0  0
    8.7049   -7.2614    0.0000 O   0  0  0  0  0  0  0  0  0  0  0  0
    6.1744   -6.6729    0.0000 N   0  0  0  0  0  0  0  0  0  0  0  0
    5.8346   -8.1339    0.0000 C   0  0  0  0  0  0  0  0  0  0  0  0
    4.3995   -8.5702    0.0000 N   0  0  0  0  0  0  0  0  0  0  0  0
    4.0597  -10.0312    0.0000 N   0  0  0  0  0  0  0  0  0  0  0  0
    5.1551  -11.0560    0.0000 N   0  0  0  0  0  0  0  0  0  0  0  0
    6.5903  -10.6197    0.0000 N   0  0  0  0  0  0  0  0  0  0  0  0
    6.9300   -9.1587    0.0000 N   0  0  0  0  0  0  0  0  0  0  0  0
    6.9670   -3.6420    0.0000 C   0  0  0  0  0  0  0  0  0  0  0  0
    5.4725   -3.7703    0.0000 O   0  0  0  0  0  0  0  0  0  0  0  0
    0.7500   -1.2990    0.0000 C   0  0  0  0  0  0  0  0  0  0  0  0
    1.5000    0.0000    0.0000 C   0  0  0  0  0  0  0  0  0  0  0  0
    0.7500    1.2990    0.0000 C   0  0  0  0  0  0  0  0  0  0  0  0
   -0.7500    1.2990    0.0000 C   0  0  0  0  0  0  0  0  0  0  0  0
   -1.5000    0.0000    0.0000 C   0  0  0  0  0  0  0  0  0  0  0  0
   -0.7500   -1.2990    0.0000 C   0  0  0  0  0  0  0  0  0  0  0  0
   -2.0119   -2.1100    0.0000 C   0  0  0  0  0  0  0  0  0  0  0  0
   -2.8820   -0.8881    0.0000 C   0  0  0  0  0  0  0  0  0  0  0  0
   -4.3752   -1.0307    0.0000 C   0  0  0  0  0  0  0  0  0  0  0  0
   -4.9983   -2.3952    0.0000 C   0  0  0  0  0  0  0  0  0  0  0  0
   -4.1282   -3.6170    0.0000 C   0  0  0  0  0  0  0  0  0  0  0  0
   -2.6350   -3.4744    0.0000 C   0  0  0  0  0  0  0  0  0  0  0  0
   -2.4215   -4.9592    0.0000 C   0  0  0  0  0  0  0  0  0  0  0  0
   -3.8944   -5.2431    0.0000 C   0  0  0  0  0  0  0  0  0  0  0  0
   -4.3850   -6.6606    0.0000 C   0  0  0  0  0  0  0  0  0  0  0  0
   -3.4027   -7.7942    0.0000 C   0  0  0  0  0  0  0  0  0  0  0  0
   -1.9298   -7.5103    0.0000 C   0  0  0  0  0  0  0  0  0  0  0  0
   -1.4392   -6.0928    0.0000 C   0  0  0  0  0  0  0  0  0  0  0  0
  1  2  1  0
  2  3  1  0
  3  4  1  0
  4  5  1  0
  5  6  1  0
  6  7  1  0
  7  8  2  0
  7  9  1  0
  9 10  1  0
 10 11  2  0
 11 12  1  0
 12 13  2  0
 13 14  1  0
 14 15  1  0
 15 16  1  0
 16 17  1  0
 17 18  1  0
 18 19  1  0
 19 20  2  0
 19 21  1  0
 21 22  1  0
 22 23  2  0
 23 24  1  0
 24 25  2  0
 25 26  1  0
 26 27  2  0
 18 28  1  0
 28 29  2  0
  6 30  1  0
 30 31  2  0
 31 32  1  0
 32 33  2  0
 33 34  1  0
 34 35  2  0
 35 36  1  0
 36 37  2  0
 37 38  1  0
 38 39  2  0
 39 40  1  0
 40 41  2  0
 41 42  1  0
 42 43  2  0
 43 44  1  0
 44 45  2  0
 45 46  1  0
 46 47  2  0
 47  2  1  0
 14 10  1  0
 28 15  1  0
 35 30  1  0
 41 36  1  0
 47 42  1  0
 27 22  1  0
M  END
>  <Title>  (615) 
idAAVSgen13

$$$$

     RDKit          2D

  5  4  0  0  0  0  0  0  0  0999 V2000
    0.0000    0.0000    0.0000 C   0  0  0  0  0  0  0  0  0  0  0  0
   -0.0000   -1.5000    0.0000 C   0  0  0  0  0  0  0  0  0  0  0  0
   -0.0000   -3.0000    0.0000 C   0  0  0  0  0  0  0  0  0  0  0  0
    1.2990   -3.7500    0.0000 C   0  0  0  0  0  0  0  0  0  0  0  0
    1.2990   -5.2500    0.0000 C   0  0  0  0  0  0  0  0  0  0  0  0
  1  2  3  0
  2  3  1  0
  3  4  2  3
  4  5  1  0
M  END
>  <Title>  (616) 
idAAVTgen13

$$$$

     RDKit          2D

 12 13  0  0  0  0  0  0  0  0999 V2000
   -4.8819    1.5375    0.0000 C   0  0  0  0  0  0  0  0  0  0  0  0
   -3.5718    0.8070    0.0000 C   0  0  0  0  0  0  0  0  0  0  0  0
   -2.2841    1.5763    0.0000 C   0  0  0  0  0  0  0  0  0  0  0  0
   -2.4186    3.0703    0.0000 C   0  0  0  0  0  0  0  0  0  0  0  0
   -1.3344    4.1069    0.0000 C   0  0  0  0  0  0  0  0  0  0  0  0
    0.1520    3.9056    0.0000 C   0  0  0  0  0  0  0  0  0  0  0  0
    0.9214    2.6179    0.0000 C   0  0  0  0  0  0  0  0  0  0  0  0
    0.3943    1.2135    0.0000 C   0  0  0  0  0  0  0  0  0  0  0  0
    1.2760    0.0000    0.0000 N   0  0  0  0  0  0  0  0  0  0  0  0
    0.3943   -1.2135    0.0000 N   0  0  0  0  0  0  0  0  0  0  0  0
   -1.0323   -0.7500    0.0000 N   0  0  0  0  0  0  0  0  0  0  0  0
   -1.0323    0.7500    0.0000 N   0  0  0  0  0  0  0  0  0  0  0  0
  1  2  1  0
  2  3  2  3
  3  4  1  0
  4  5  1  0
  5  6  1  0
  6  7  1  0
  7  8  1  0
  8  9  2  0
  9 10  1  0
 10 11  2  0
 11 12  1  0
 12  3  1  0
 12  8  1  0
M  END
>  <Title>  (617) 
idAAVUgen13

$$$$

     RDKit          2D

 93 94  0  0  0  0  0  0  0  0999 V2000
   -2.1779   -1.0793    0.0000 C   0  0  0  0  0  0  0  0  0  0  0  0
   -2.4880    0.3883    0.0000 C   0  0  0  0  0  0  0  0  0  0  0  0
   -3.9656    0.1301    0.0000 C   0  0  0  0  0  0  0  0  0  0  0  0
   -5.4578   -0.0232    0.0000 C   0  0  0  0  0  0  0  0  0  0  0  0
   -6.9570   -0.0708    0.0000 C   0  0  0  0  0  0  0  0  0  0  0  0
   -8.4559   -0.0126    0.0000 C   0  0  0  0  0  0  0  0  0  0  0  0
   -9.9469    0.1512    0.0000 C   0  0  0  0  0  0  0  0  0  0  0  0
  -11.4227    0.4198    0.0000 C   0  0  0  0  0  0  0  0  0  0  0  0
  -12.8758    0.7918    0.0000 C   0  0  0  0  0  0  0  0  0  0  0  0
  -14.2991    1.2654    0.0000 C   0  0  0  0  0  0  0  0  0  0  0  0
  -15.6854    1.8382    0.0000 C   0  0  0  0  0  0  0  0  0  0  0  0
  -17.0279    2.5074    0.0000 C   0  0  0  0  0  0  0  0  0  0  0  0
  -18.3198    3.2696    0.0000 C   0  0  0  0  0  0  0  0  0  0  0  0
  -19.5547    4.1210    0.0000 C   0  0  0  0  0  0  0  0  0  0  0  0
  -20.7266    5.0574    0.0000 C   0  0  0  0  0  0  0  0  0  0  0  0
  -21.8294    6.0741    0.0000 C   0  0  0  0  0  0  0  0  0  0  0  0
  -22.8577    7.1661    0.0000 C   0  0  0  0  0  0  0  0  0  0  0  0
  -23.8065    8.3280    0.0000 C   0  0  0  0  0  0  0  0  0  0  0  0
  -24.6710    9.5538    0.0000 C   0  0  0  0  0  0  0  0  0  0  0  0
  -25.4468   10.8376    0.0000 C   0  0  0  0  0  0  0  0  0  0  0  0
  -26.1301   12.1729    0.0000 C   0  0  0  0  0  0  0  0  0  0  0  0
  -26.7176   13.5531    0.0000 C   0  0  0  0  0  0  0  0  0  0  0  0
  -27.2062   14.9713    0.0000 C   0  0  0  0  0  0  0  0  0  0  0  0
  -27.5936   16.4204    0.0000 C   0  0  0  0  0  0  0  0  0  0  0  0
  -27.8778   17.8932    0.0000 C   0  0  0  0  0  0  0  0  0  0  0  0
  -28.0574   19.3824    0.0000 C   0  0  0  0  0  0  0  0  0  0  0  0
  -28.1315   20.8806    0.0000 C   0  0  0  0  0  0  0  0  0  0  0  0
  -28.0997   22.3803    0.0000 C   0  0  0  0  0  0  0  0  0  0  0  0
  -27.9622   23.8739    0.0000 C   0  0  0  0  0  0  0  0  0  0  0  0
  -27.7198   25.3542    0.0000 C   0  0  0  0  0  0  0  0  0  0  0  0
  -27.3735   26.8137    0.0000 C   0  0  0  0  0  0  0  0  0  0  0  0
  -26.9251   28.2451    0.0000 C   0  0  0  0  0  0  0  0  0  0  0  0
  -26.3768   29.6413    0.0000 C   0  0  0  0  0  0  0  0  0  0  0  0
  -25.7314   30.9954    0.0000 C   0  0  0  0  0  0  0  0  0  0  0  0
  -24.9922   32.3006    0.0000 C   0  0  0  0  0  0  0  0  0  0  0  0
  -24.1627   33.5503    0.0000 C   0  0  0  0  0  0  0  0  0  0  0  0
  -23.2471   34.7385    0.0000 C   0  0  0  0  0  0  0  0  0  0  0  0
  -22.2500   35.8591    0.0000 C   0  0  0  0  0  0  0  0  0  0  0  0
  -21.1763   36.9066    0.0000 C   0  0  0  0  0  0  0  0  0  0  0  0
  -20.0314   37.8757    0.0000 C   0  0  0  0  0  0  0  0  0  0  0  0
  -18.8210   38.7616    0.0000 C   0  0  0  0  0  0  0  0  0  0  0  0
  -17.5511   39.5600    0.0000 C   0  0  0  0  0  0  0  0  0  0  0  0
  -16.2280   40.2668    0.0000 C   0  0  0  0  0  0  0  0  0  0  0  0
  -14.8585   40.8785    0.0000 C   0  0  0  0  0  0  0  0  0  0  0  0
  -13.4491   41.3921    0.0000 C   0  0  0  0  0  0  0  0  0  0  0  0
  -12.0071   41.8050    0.0000 C   0  0  0  0  0  0  0  0  0  0  0  0
  -10.5395   42.1151    0.0000 C   0  0  0  0  0  0  0  0  0  0  0  0
   -9.0537   42.3210    0.0000 C   0  0  0  0  0  0  0  0  0  0  0  0
   -7.5570   42.4215    0.0000 C   0  0  0  0  0  0  0  0  0  0  0  0
   -6.0570   42.4162    0.0000 C   0  0  0  0  0  0  0  0  0  0  0  0
   -4.5612   42.3051    0.0000 C   0  0  0  0  0  0  0  0  0  0  0  0
   -3.0768   42.0888    0.0000 C   0  0  0  0  0  0  0  0  0  0  0  0
   -1.6115   41.7683    0.0000 C   0  0  0  0  0  0  0  0  0  0  0  0
   -0.1724   41.3452    0.0000 C   0  0  0  0  0  0  0  0  0  0  0  0
    1.2333   40.8217    0.0000 C   0  0  0  0  0  0  0  0  0  0  0  0
    2.5985   40.2004    0.0000 C   0  0  0  0  0  0  0  0  0  0  0  0
    3.9166   39.4842    0.0000 C   0  0  0  0  0  0  0  0  0  0  0  0
    5.1808   38.6769    0.0000 C   0  0  0  0  0  0  0  0  0  0  0  0
    6.3849   37.7824    0.0000 C   0  0  0  0  0  0  0  0  0  0  0  0
    7.5229   36.8053    0.0000 C   0  0  0  0  0  0  0  0  0  0  0  0
    8.5892   35.7502    0.0000 C   0  0  0  0  0  0  0  0  0  0  0  0
    9.5784   34.6226    0.0000 C   0  0  0  0  0  0  0  0  0  0  0  0
   10.4855   33.4280    0.0000 C   0  0  0  0  0  0  0  0  0  0  0  0
   11.3062   32.1724    0.0000 C   0  0  0  0  0  0  0  0  0  0  0  0
   12.0362   30.8621    0.0000 C   0  0  0  0  0  0  0  0  0  0  0  0
   12.6720   29.5035    0.0000 C   0  0  0  0  0  0  0  0  0  0  0  0
   13.2104   28.1034    0.0000 C   0  0  0  0  0  0  0  0  0  0  0  0
   13.6487   26.6689    0.0000 C   0  0  0  0  0  0  0  0  0  0  0  0
   13.9847   25.2070    0.0000 C   0  0  0  0  0  0  0  0  0  0  0  0
   14.2167   23.7251    0.0000 C   0  0  0  0  0  0  0  0  0  0  0  0
   14.3436   22.2304    0.0000 C   0  0  0  0  0  0  0  0  0  0  0  0
   14.3648   20.7306    0.0000 C   0  0  0  0  0  0  0  0  0  0  0  0
   14.2802   19.2330    0.0000 C   0  0  0  0  0  0  0  0  0  0  0  0
   14.0901   17.7451    0.0000 C   0  0  0  0  0  0  0  0  0  0  0  0
   13.7955   16.2743    0.0000 C   0  0  0  0  0  0  0  0  0  0  0  0
   13.3979   14.8279    0.0000 C   0  0  0  0  0  0  0  0  0  0  0  0
   12.8992   13.4132    0.0000 C   0  0  0  0  0  0  0  0  0  0  0  0
   12.3021   12.0372    0.0000 C   0  0  0  0  0  0  0  0  0  0  0  0
   11.6093   10.7068    0.0000 C   0  0  0  0  0  0  0  0  0  0  0  0
   10.8244    9.4285    0.0000 C   0  0  0  0  0  0  0  0  0  0  0  0
    9.9513    8.2088    0.0000 C   0  0  0  0  0  0  0  0  0  0  0  0
    8.9944    7.0537    0.0000 C   0  0  0  0  0  0  0  0  0  0  0  0
    7.9583    5.9690    0.0000 C   0  0  0  0  0  0  0  0  0  0  0  0
    6.8484    4.9601    0.0000 C   0  0  0  0  0  0  0  0  0  0  0  0
    5.6700    4.0319    0.0000 C   0  0  0  0  0  0  0  0  0  0  0  0
    4.4291    3.1893    0.0000 C   0  0  0  0  0  0  0  0  0  0  0  0
    3.1318    2.4362    0.0000 C   0  0  0  0  0  0  0  0  0  0  0  0
    1.7846    1.7765    0.0000 C   0  0  0  0  0  0  0  0  0  0  0  0
    0.3943    1.2135    0.0000 C   0  0  0  0  0  0  0  0  0  0  0  0
    1.2760    0.0000    0.0000 C   0  0  0  0  0  0  0  0  0  0  0  0
    0.3943   -1.2135    0.0000 C   0  0  0  0  0  0  0  0  0  0  0  0
   -1.0323   -0.7500    0.0000 C   0  0  0  0  0  0  0  0  0  0  0  0
   -1.0323    0.7500    0.0000 C   0  0  0  0  0  0  0  0  0  0  0  0
  1  2  1  0
  2  3  1  0
  3  4  1  0
  4  5  1  0
  5  6  1  0
  6  7  1  0
  7  8  1  0
  8  9  1  0
  9 10  1  0
 10 11  1  0
 11 12  1  0
 12 13  1  0
 13 14  1  0
 14 15  1  0
 15 16  1  0
 16 17  1  0
 17 18  1  0
 18 19  1  0
 19 20  1  0
 20 21  1  0
 21 22  1  0
 22 23  1  0
 23 24  1  0
 24 25  1  0
 25 26  1  0
 26 27  1  0
 27 28  1  0
 28 29  1  0
 29 30  1  0
 30 31  1  0
 31 32  1  0
 32 33  1  0
 33 34  1  0
 34 35  1  0
 35 36  1  0
 36 37  1  0
 37 38  1  0
 38 39  1  0
 39 40  1  0
 40 41  1  0
 41 42  1  0
 42 43  1  0
 43 44  1  0
 44 45  1  0
 45 46  1  0
 46 47  1  0
 47 48  1  0
 48 49  1  0
 49 50  1  0
 50 51  1  0
 51 52  1  0
 52 53  1  0
 53 54  1  0
 54 55  1  0
 55 56  1  0
 56 57  1  0
 57 58  1  0
 58 59  1  0
 59 60  1  0
 60 61  1  0
 61 62  1  0
 62 63  1  0
 63 64  1  0
 64 65  1  0
 65 66  1  0
 66 67  1  0
 67 68  1  0
 68 69  1  0
 69 70  1  0
 70 71  1  0
 71 72  1  0
 72 73  1  0
 73 74  1  0
 74 75  1  0
 75 76  1  0
 76 77  1  0
 77 78  1  0
 78 79  2  0
 79 80  1  0
 80 81  2  0
 81 82  1  0
 82 83  2  0
 83 84  1  0
 84 85  2  0
 85 86  1  0
 86 87  2  0
 87 88  1  0
 88 89  2  0
 89 90  1  0
 90 91  2  0
 91 92  1  0
 92 93  2  0
 93  2  1  0
 93 89  1  0
M  END
>  <Title>  (618) 
idAAVVgen13

$$$$

     RDKit          2D

 80 82  0  0  0  0  0  0  0  0999 V2000
   -2.4401    0.0574    0.0000 C   0  0  0  0  0  0  0  0  0  0  0  0
   -2.2443   -1.4298    0.0000 C   0  0  0  0  0  0  0  0  0  0  0  0
   -3.7215   -1.6902    0.0000 C   0  0  0  0  0  0  0  0  0  0  0  0
   -5.1704   -2.0785    0.0000 C   0  0  0  0  0  0  0  0  0  0  0  0
   -6.5799   -2.5915    0.0000 C   0  0  0  0  0  0  0  0  0  0  0  0
   -7.9394   -3.2254    0.0000 C   0  0  0  0  0  0  0  0  0  0  0  0
   -9.2384   -3.9754    0.0000 C   0  0  0  0  0  0  0  0  0  0  0  0
  -10.4672   -4.8358    0.0000 C   0  0  0  0  0  0  0  0  0  0  0  0
  -11.6162   -5.8000    0.0000 C   0  0  0  0  0  0  0  0  0  0  0  0
  -12.6769   -6.8606    0.0000 C   0  0  0  0  0  0  0  0  0  0  0  0
  -13.6411   -8.0097    0.0000 C   0  0  0  0  0  0  0  0  0  0  0  0
  -14.5014   -9.2384    0.0000 C   0  0  0  0  0  0  0  0  0  0  0  0
  -15.2514  -10.5375    0.0000 C   0  0  0  0  0  0  0  0  0  0  0  0
  -15.8854  -11.8969    0.0000 C   0  0  0  0  0  0  0  0  0  0  0  0
  -16.3984  -13.3065    0.0000 C   0  0  0  0  0  0  0  0  0  0  0  0
  -16.7866  -14.7554    0.0000 C   0  0  0  0  0  0  0  0  0  0  0  0
  -17.0471  -16.2326    0.0000 C   0  0  0  0  0  0  0  0  0  0  0  0
  -17.1778  -17.7269    0.0000 C   0  0  0  0  0  0  0  0  0  0  0  0
  -17.1778  -19.2269    0.0000 C   0  0  0  0  0  0  0  0  0  0  0  0
  -17.0471  -20.7212    0.0000 C   0  0  0  0  0  0  0  0  0  0  0  0
  -16.7866  -22.1984    0.0000 C   0  0  0  0  0  0  0  0  0  0  0  0
  -16.3984  -23.6473    0.0000 C   0  0  0  0  0  0  0  0  0  0  0  0
  -15.8854  -25.0568    0.0000 C   0  0  0  0  0  0  0  0  0  0  0  0
  -15.2514  -26.4163    0.0000 C   0  0  0  0  0  0  0  0  0  0  0  0
  -14.5014  -27.7153    0.0000 C   0  0  0  0  0  0  0  0  0  0  0  0
  -13.6411  -28.9440    0.0000 C   0  0  0  0  0  0  0  0  0  0  0  0
  -12.6769  -30.0931    0.0000 C   0  0  0  0  0  0  0  0  0  0  0  0
  -11.6162  -31.1537    0.0000 C   0  0  0  0  0  0  0  0  0  0  0  0
  -10.4672  -32.1179    0.0000 C   0  0  0  0  0  0  0  0  0  0  0  0
   -9.2384  -32.9783    0.0000 C   0  0  0  0  0  0  0  0  0  0  0  0
   -7.9394  -33.7283    0.0000 C   0  0  0  0  0  0  0  0  0  0  0  0
   -6.5799  -34.3622    0.0000 C   0  0  0  0  0  0  0  0  0  0  0  0
   -5.1704  -34.8753    0.0000 C   0  0  0  0  0  0  0  0  0  0  0  0
   -3.7215  -35.2635    0.0000 C   0  0  0  0  0  0  0  0  0  0  0  0
   -2.2443  -35.5240    0.0000 C   0  0  0  0  0  0  0  0  0  0  0  0
   -0.7500  -35.6547    0.0000 C   0  0  0  0  0  0  0  0  0  0  0  0
    0.7500  -35.6547    0.0000 C   0  0  0  0  0  0  0  0  0  0  0  0
    2.2443  -35.5240    0.0000 C   0  0  0  0  0  0  0  0  0  0  0  0
    3.7215  -35.2635    0.0000 C   0  0  0  0  0  0  0  0  0  0  0  0
    5.1704  -34.8753    0.0000 C   0  0  0  0  0  0  0  0  0  0  0  0
    6.5799  -34.3622    0.0000 C   0  0  0  0  0  0  0  0  0  0  0  0
    7.9394  -33.7283    0.0000 C   0  0  0  0  0  0  0  0  0  0  0  0
    9.2384  -32.9783    0.0000 C   0  0  0  0  0  0  0  0  0  0  0  0
   10.4672  -32.1179    0.0000 C   0  0  0  0  0  0  0  0  0  0  0  0
   11.6162  -31.1537    0.0000 C   0  0  0  0  0  0  0  0  0  0  0  0
   12.6769  -30.0931    0.0000 C   0  0  0  0  0  0  0  0  0  0  0  0
   13.6411  -28.9440    0.0000 C   0  0  0  0  0  0  0  0  0  0  0  0
   14.5014  -27.7153    0.0000 C   0  0  0  0  0  0  0  0  0  0  0  0
   15.2514  -26.4163    0.0000 C   0  0  0  0  0  0  0  0  0  0  0  0
   15.8854  -25.0568    0.0000 C   0  0  0  0  0  0  0  0  0  0  0  0
   16.3984  -23.6473    0.0000 C   0  0  0  0  0  0  0  0  0  0  0  0
   16.7866  -22.1984    0.0000 C   0  0  0  0  0  0  0  0  0  0  0  0
   17.0471  -20.7212    0.0000 C   0  0  0  0  0  0  0  0  0  0  0  0
   17.1778  -19.2269    0.0000 C   0  0  0  0  0  0  0  0  0  0  0  0
   17.1778  -17.7269    0.0000 C   0  0  0  0  0  0  0  0  0  0  0  0
   17.0471  -16.2326    0.0000 C   0  0  0  0  0  0  0  0  0  0  0  0
   16.7866  -14.7554    0.0000 C   0  0  0  0  0  0  0  0  0  0  0  0
   16.3984  -13.3065    0.0000 C   0  0  0  0  0  0  0  0  0  0  0  0
   15.8854  -11.8969    0.0000 C   0  0  0  0  0  0  0  0  0  0  0  0
   15.2514  -10.5375    0.0000 C   0  0  0  0  0  0  0  0  0  0  0  0
   14.5014   -9.2384    0.0000 C   0  0  0  0  0  0  0  0  0  0  0  0
   13.6411   -8.0097    0.0000 C   0  0  0  0  0  0  0  0  0  0  0  0
   12.6769   -6.8606    0.0000 C   0  0  0  0  0  0  0  0  0  0  0  0
   11.6162   -5.8000    0.0000 C   0  0  0  0  0  0  0  0  0  0  0  0
   10.4672   -4.8358    0.0000 C   0  0  0  0  0  0  0  0  0  0  0  0
    9.2384   -3.9754    0.0000 C   0  0  0  0  0  0  0  0  0  0  0  0
    7.9394   -3.2254    0.0000 C   0  0  0  0  0  0  0  0  0  0  0  0
    6.5799   -2.5915    0.0000 C   0  0  0  0  0  0  0  0  0  0  0  0
    5.1704   -2.0785    0.0000 C   0  0  0  0  0  0  0  0  0  0  0  0
    3.7215   -1.6902    0.0000 C   0  0  0  0  0  0  0  0  0  0  0  0
    3.9303   -3.1756    0.0000 C   0  0  0  0  0  0  0  0  0  0  0  0
    2.5821   -3.8332    0.0000 C   0  0  0  0  0  0  0  0  0  0  0  0
    1.5401   -2.7542    0.0000 C   0  0  0  0  0  0  0  0  0  0  0  0
    2.2443   -1.4298    0.0000 C   0  0  0  0  0  0  0  0  0  0  0  0
    0.7500   -1.2990    0.0000 C   0  0  0  0  0  0  0  0  0  0  0  0
    1.5000    0.0000    0.0000 C   0  0  0  0  0  0  0  0  0  0  0  0
    0.7500    1.2990    0.0000 C   0  0  0  0  0  0  0  0  0  0  0  0
   -0.7500    1.2990    0.0000 C   0  0  0  0  0  0  0  0  0  0  0  0
   -1.5000    0.0000    0.0000 C   0  0  0  0  0  0  0  0  0  0  0  0
   -0.7500   -1.2990    0.0000 C   0  0  0  0  0  0  0  0  0  0  0  0
  1  2  1  0
  2  3  1  0
  3  4  1  0
  4  5  1  0
  5  6  1  0
  6  7  1  0
  7  8  1  0
  8  9  1  0
  9 10  1  0
 10 11  1  0
 11 12  1  0
 12 13  1  0
 13 14  1  0
 14 15  1  0
 15 16  1  0
 16 17  1  0
 17 18  1  0
 18 19  1  0
 19 20  1  0
 20 21  1  0
 21 22  1  0
 22 23  1  0
 23 24  1  0
 24 25  1  0
 25 26  1  0
 26 27  1  0
 27 28  1  0
 28 29  1  0
 29 30  1  0
 30 31  1  0
 31 32  1  0
 32 33  1  0
 33 34  1  0
 34 35  1  0
 35 36  1  0
 36 37  1  0
 37 38  1  0
 38 39  1  0
 39 40  2  0
 40 41  1  0
 41 42  2  0
 42 43  1  0
 43 44  2  0
 44 45  1  0
 45 46  2  0
 46 47  1  0
 47 48  2  0
 48 49  1  0
 49 50  2  0
 50 51  1  0
 51 52  2  0
 52 53  1  0
 53 54  2  0
 54 55  1  0
 55 56  2  0
 56 57  1  0
 57 58  2  0
 58 59  1  0
 59 60  2  0
 60 61  1  0
 61 62  2  0
 62 63  1  0
 63 64  2  0
 64 65  1  0
 65 66  2  0
 66 67  1  0
 67 68  2  0
 68 69  1  0
 69 70  2  0
 70 71  1  0
 71 72  2  0
 72 73  1  0
 73 74  2  0
 74 75  1  0
 75 76  2  0
 76 77  1  0
 77 78  2  0
 78 79  1  0
 79 80  2  0
 80  2  1  0
 74 70  1  0
 80 75  1  0
M  END
>  <Title>  (619) 
idAAVWgen13

$$$$

     RDKit          2D

105108  0  0  0  0  0  0  0  0999 V2000
   -8.0167    3.5728    0.0000 C   0  0  0  0  0  0  0  0  0  0  0  0
   -7.1646    4.8073    0.0000 C   0  0  0  0  0  0  0  0  0  0  0  0
   -8.3690    5.7015    0.0000 C   0  0  0  0  0  0  0  0  0  0  0  0
   -9.5087    6.6767    0.0000 C   0  0  0  0  0  0  0  0  0  0  0  0
  -10.5785    7.7281    0.0000 C   0  0  0  0  0  0  0  0  0  0  0  0
  -11.5732    8.8509    0.0000 C   0  0  0  0  0  0  0  0  0  0  0  0
  -12.4880   10.0396    0.0000 C   0  0  0  0  0  0  0  0  0  0  0  0
  -13.3187   11.2886    0.0000 C   0  0  0  0  0  0  0  0  0  0  0  0
  -14.0612   12.5919    0.0000 C   0  0  0  0  0  0  0  0  0  0  0  0
  -14.7120   13.9434    0.0000 C   0  0  0  0  0  0  0  0  0  0  0  0
  -15.2681   15.3365    0.0000 C   0  0  0  0  0  0  0  0  0  0  0  0
  -15.7267   16.7647    0.0000 C   0  0  0  0  0  0  0  0  0  0  0  0
  -16.0857   18.2211    0.0000 C   0  0  0  0  0  0  0  0  0  0  0  0
  -16.3433   19.6988    0.0000 C   0  0  0  0  0  0  0  0  0  0  0  0
  -16.4984   21.1908    0.0000 C   0  0  0  0  0  0  0  0  0  0  0  0
  -16.5501   22.6899    0.0000 C   0  0  0  0  0  0  0  0  0  0  0  0
  -16.4984   24.1890    0.0000 C   0  0  0  0  0  0  0  0  0  0  0  0
  -16.3433   25.6810    0.0000 C   0  0  0  0  0  0  0  0  0  0  0  0
  -16.0857   27.1587    0.0000 C   0  0  0  0  0  0  0  0  0  0  0  0
  -15.7267   28.6151    0.0000 C   0  0  0  0  0  0  0  0  0  0  0  0
  -15.2681   30.0433    0.0000 C   0  0  0  0  0  0  0  0  0  0  0  0
  -14.7120   31.4364    0.0000 C   0  0  0  0  0  0  0  0  0  0  0  0
  -14.0612   32.7879    0.0000 C   0  0  0  0  0  0  0  0  0  0  0  0
  -13.3187   34.0912    0.0000 C   0  0  0  0  0  0  0  0  0  0  0  0
  -12.4880   35.3402    0.0000 C   0  0  0  0  0  0  0  0  0  0  0  0
  -11.5732   36.5289    0.0000 C   0  0  0  0  0  0  0  0  0  0  0  0
  -10.5785   37.6517    0.0000 C   0  0  0  0  0  0  0  0  0  0  0  0
   -9.5087   38.7031    0.0000 C   0  0  0  0  0  0  0  0  0  0  0  0
   -8.3690   39.6783    0.0000 C   0  0  0  0  0  0  0  0  0  0  0  0
   -7.1646   40.5725    0.0000 C   0  0  0  0  0  0  0  0  0  0  0  0
   -5.9015   41.3815    0.0000 C   0  0  0  0  0  0  0  0  0  0  0  0
   -4.5855   42.1014    0.0000 C   0  0  0  0  0  0  0  0  0  0  0  0
   -3.2230   42.7288    0.0000 C   0  0  0  0  0  0  0  0  0  0  0  0
   -1.8205   43.2607    0.0000 C   0  0  0  0  0  0  0  0  0  0  0  0
   -0.3846   43.6946    0.0000 C   0  0  0  0  0  0  0  0  0  0  0  0
    1.0777   44.0283    0.0000 C   0  0  0  0  0  0  0  0  0  0  0  0
    2.5597   44.2604    0.0000 C   0  0  0  0  0  0  0  0  0  0  0  0
    4.0541   44.3897    0.0000 C   0  0  0  0  0  0  0  0  0  0  0  0
    5.5539   44.4156    0.0000 C   0  0  0  0  0  0  0  0  0  0  0  0
    7.0519   44.3380    0.0000 C   0  0  0  0  0  0  0  0  0  0  0  0
    8.5409   44.1572    0.0000 C   0  0  0  0  0  0  0  0  0  0  0  0
   10.0140   43.8741    0.0000 C   0  0  0  0  0  0  0  0  0  0  0  0
   11.4640   43.4900    0.0000 C   0  0  0  0  0  0  0  0  0  0  0  0
   12.8840   43.0068    0.0000 C   0  0  0  0  0  0  0  0  0  0  0  0
   14.2673   42.4268    0.0000 C   0  0  0  0  0  0  0  0  0  0  0  0
   15.6074   41.7528    0.0000 C   0  0  0  0  0  0  0  0  0  0  0  0
   16.8977   40.9879    0.0000 C   0  0  0  0  0  0  0  0  0  0  0  0
   18.1322   40.1358    0.0000 C   0  0  0  0  0  0  0  0  0  0  0  0
   19.3049   39.2005    0.0000 C   0  0  0  0  0  0  0  0  0  0  0  0
   20.4103   38.1866    0.0000 C   0  0  0  0  0  0  0  0  0  0  0  0
   21.4432   37.0989    0.0000 C   0  0  0  0  0  0  0  0  0  0  0  0
   22.3985   35.9424    0.0000 C   0  0  0  0  0  0  0  0  0  0  0  0
   23.2718   34.7229    0.0000 C   0  0  0  0  0  0  0  0  0  0  0  0
   24.0589   33.4459    0.0000 C   0  0  0  0  0  0  0  0  0  0  0  0
   24.7559   32.1177    0.0000 C   0  0  0  0  0  0  0  0  0  0  0  0
   25.3597   30.7446    0.0000 C   0  0  0  0  0  0  0  0  0  0  0  0
   25.8674   29.3331    0.0000 C   0  0  0  0  0  0  0  0  0  0  0  0
   26.2764   27.8900    0.0000 C   0  0  0  0  0  0  0  0  0  0  0  0
   26.5849   26.4220    0.0000 C   0  0  0  0  0  0  0  0  0  0  0  0
   26.7914   24.9363    0.0000 C   0  0  0  0  0  0  0  0  0  0  0  0
   26.8948   23.4399    0.0000 C   0  0  0  0  0  0  0  0  0  0  0  0
   26.8948   21.9399    0.0000 C   0  0  0  0  0  0  0  0  0  0  0  0
   26.7914   20.4435    0.0000 C   0  0  0  0  0  0  0  0  0  0  0  0
   26.5849   18.9577    0.0000 C   0  0  0  0  0  0  0  0  0  0  0  0
   26.2764   17.4898    0.0000 C   0  0  0  0  0  0  0  0  0  0  0  0
   25.8674   16.0467    0.0000 C   0  0  0  0  0  0  0  0  0  0  0  0
   25.3597   14.6352    0.0000 C   0  0  0  0  0  0  0  0  0  0  0  0
   24.7559   13.2621    0.0000 C   0  0  0  0  0  0  0  0  0  0  0  0
   24.0589   11.9339    0.0000 C   0  0  0  0  0  0  0  0  0  0  0  0
   23.2718   10.6569    0.0000 C   0  0  0  0  0  0  0  0  0  0  0  0
   22.3985    9.4374    0.0000 C   0  0  0  0  0  0  0  0  0  0  0  0
   21.4432    8.2809    0.0000 C   0  0  0  0  0  0  0  0  0  0  0  0
   20.4103    7.1932    0.0000 C   0  0  0  0  0  0  0  0  0  0  0  0
   19.3049    6.1792    0.0000 C   0  0  0  0  0  0  0  0  0  0  0  0
   18.1322    5.2440    0.0000 C   0  0  0  0  0  0  0  0  0  0  0  0
   16.8977    4.3919    0.0000 C   0  0  0  0  0  0  0  0  0  0  0  0
   15.6074    3.6270    0.0000 C   0  0  0  0  0  0  0  0  0  0  0  0
   14.2673    2.9530    0.0000 C   0  0  0  0  0  0  0  0  0  0  0  0
   12.8840    2.3730    0.0000 C   0  0  0  0  0  0  0  0  0  0  0  0
   11.4640    1.8898    0.0000 C   0  0  0  0  0  0  0  0  0  0  0  0
   10.0140    1.5057    0.0000 C   0  0  0  0  0  0  0  0  0  0  0  0
    8.5409    1.2226    0.0000 C   0  0  0  0  0  0  0  0  0  0  0  0
    7.0519    1.0418    0.0000 C   0  0  0  0  0  0  0  0  0  0  0  0
    5.5539    0.9642    0.0000 C   0  0  0  0  0  0  0  0  0  0  0  0
    4.0541    0.9901    0.0000 C   0  0  0  0  0  0  0  0  0  0  0  0
    2.5597    1.1194    0.0000 C   0  0  0  0  0  0  0  0  0  0  0  0
    1.0777    1.3515    0.0000 C   0  0  0  0  0  0  0  0  0  0  0  0
    1.7286    0.0000    0.0000 C   0  0  0  0  0  0  0  0  0  0  0  0
    1.0777   -1.3515    0.0000 C   0  0  0  0  0  0  0  0  0  0  0  0
   -0.3846   -1.6852    0.0000 C   0  0  0  0  0  0  0  0  0  0  0  0
   -1.5574   -0.7500    0.0000 C   0  0  0  0  0  0  0  0  0  0  0  0
   -1.5574    0.7500    0.0000 C   0  0  0  0  0  0  0  0  0  0  0  0
   -0.3846    1.6852    0.0000 C   0  0  0  0  0  0  0  0  0  0  0  0
   -1.8205    2.1191    0.0000 C   0  0  0  0  0  0  0  0  0  0  0  0
   -0.6586    3.0678    0.0000 C   0  0  0  0  0  0  0  0  0  0  0  0
   -0.8992    4.5484    0.0000 C   0  0  0  0  0  0  0  0  0  0  0  0
   -2.3018    5.0803    0.0000 C   0  0  0  0  0  0  0  0  0  0  0  0
   -3.4637    4.1316    0.0000 C   0  0  0  0  0  0  0  0  0  0  0  0
   -3.2230    2.6510    0.0000 C   0  0  0  0  0  0  0  0  0  0  0  0
   -4.5855    3.2784    0.0000 C   0  0  0  0  0  0  0  0  0  0  0  0
   -4.5510    1.7788    0.0000 C   0  0  0  0  0  0  0  0  0  0  0  0
   -5.8324    0.9991    0.0000 C   0  0  0  0  0  0  0  0  0  0  0  0
   -7.1484    1.7190    0.0000 C   0  0  0  0  0  0  0  0  0  0  0  0
   -7.1829    3.2186    0.0000 C   0  0  0  0  0  0  0  0  0  0  0  0
   -5.9015    3.9983    0.0000 C   0  0  0  0  0  0  0  0  0  0  0  0
  1  2  1  0
  2  3  1  0
  3  4  1  0
  4  5  1  0
  5  6  1  0
  6  7  1  0
  7  8  1  0
  8  9  1  0
  9 10  1  0
 10 11  1  0
 11 12  1  0
 12 13  1  0
 13 14  1  0
 14 15  1  0
 15 16  1  0
 16 17  1  0
 17 18  1  0
 18 19  1  0
 19 20  1  0
 20 21  1  0
 21 22  1  0
 22 23  1  0
 23 24  1  0
 24 25  1  0
 25 26  1  0
 26 27  1  0
 27 28  1  0
 28 29  1  0
 29 30  1  0
 30 31  1  0
 31 32  1  0
 32 33  1  0
 33 34  1  0
 34 35  1  0
 35 36  1  0
 36 37  1  0
 37 38  1  0
 38 39  1  0
 39 40  1  0
 40 41  1  0
 41 42  1  0
 42 43  1  0
 43 44  1  0
 44 45  1  0
 45 46  1  0
 46 47  1  0
 47 48  1  0
 48 49  1  0
 49 50  1  0
 50 51  1  0
 51 52  1  0
 52 53  1  0
 53 54  1  0
 54 55  1  0
 55 56  1  0
 56 57  1  0
 57 58  1  0
 58 59  1  0
 59 60  1  0
 60 61  1  0
 61 62  1  0
 62 63  1  0
 63 64  1  0
 64 65  1  0
 65 66  1  0
 66 67  1  0
 67 68  1  0
 68 69  1  0
 69 70  1  0
 70 71  1  0
 71 72  1  0
 72 73  1  0
 73 74  1  0
 74 75  1  0
 75 76  1  0
 76 77  1  0
 77 78  1  0
 78 79  1  0
 79 80  1  0
 80 81  1  0
 81 82  1  0
 82 83  1  0
 83 84  1  0
 84 85  1  0
 85 86  1  0
 86 87  1  0
 87 88  1  0
 88 89  1  0
 89 90  1  0
 90 91  1  0
 91 92  1  0
 92 93  1  0
 93 94  1  0
 94 95  2  0
 95 96  1  0
 96 97  2  0
 97 98  1  0
 98 99  2  0
 99100  1  0
100101  2  0
101102  1  0
102103  2  0
103104  1  0
104105  2  0
105  2  1  0
 93 87  1  0
 99 94  1  0
105100  1  0
M  END
>  <Title>  (620) 
idAAVXgen13

$$$$

     RDKit          2D

 14 15  0  0  0  0  0  0  0  0999 V2000
    3.2286   -0.0000    0.0000 C   0  0  0  0  0  0  0  0  0  0  0  0
    1.7286    0.0000    0.0000 C   0  0  0  0  0  0  0  0  0  0  0  0
    1.0777    1.3515    0.0000 C   0  0  0  0  0  0  0  0  0  0  0  0
   -0.3846    1.6852    0.0000 C   0  0  0  0  0  0  0  0  0  0  0  0
   -1.5574    0.7500    0.0000 C   0  0  0  0  0  0  0  0  0  0  0  0
   -1.5574   -0.7500    0.0000 C   0  0  0  0  0  0  0  0  0  0  0  0
   -0.3846   -1.6852    0.0000 C   0  0  0  0  0  0  0  0  0  0  0  0
   -0.7184   -3.1476    0.0000 N   0  0  0  0  0  0  0  0  0  0  0  0
   -2.1518   -3.5898    0.0000 C   0  0  0  0  0  0  0  0  0  0  0  0
   -2.4856   -5.0522    0.0000 C   0  0  0  0  0  0  0  0  0  0  0  0
   -1.3860   -6.0724    0.0000 N   0  0  0  0  0  0  0  0  0  0  0  0
    0.0474   -5.6303    0.0000 N   0  0  0  0  0  0  0  0  0  0  0  0
    0.3812   -4.1679    0.0000 N   0  0  0  0  0  0  0  0  0  0  0  0
    1.0777   -1.3515    0.0000 C   0  0  0  0  0  0  0  0  0  0  0  0
  1  2  1  0
  2  3  1  0
  3  4  2  0
  4  5  1  0
  5  6  1  0
  6  7  1  0
  7  8  1  0
  8  9  1  0
  9 10  1  0
 10 11  2  0
 11 12  1  0
 12 13  2  0
  7 14  1  0
 14  2  1  0
 13  8  1  0
M  END
>  <Title>  (621) 
idAAVYgen13

$$$$

     RDKit          2D

 37 41  0  0  0  0  0  0  0  0999 V2000
   -3.1981   -1.5132    0.0000 C   0  0  0  0  0  0  0  0  0  0  0  0
   -1.8991   -2.2632    0.0000 C   0  0  0  0  0  0  0  0  0  0  0  0
   -2.1595   -3.7404    0.0000 C   0  0  0  0  0  0  0  0  0  0  0  0
   -1.4095   -5.0395    0.0000 C   0  0  0  0  0  0  0  0  0  0  0  0
   -0.0000   -5.5525    0.0000 C   0  0  0  0  0  0  0  0  0  0  0  0
    1.4095   -5.0395    0.0000 C   0  0  0  0  0  0  0  0  0  0  0  0
    2.1595   -3.7404    0.0000 C   0  0  0  0  0  0  0  0  0  0  0  0
    1.8991   -2.2632    0.0000 C   0  0  0  0  0  0  0  0  0  0  0  0
    3.1981   -1.5132    0.0000 C   0  0  0  0  0  0  0  0  0  0  0  0
    3.1981   -0.0132    0.0000 O   0  0  0  0  0  0  0  0  0  0  0  0
    4.4971   -2.2632    0.0000 N   0  0  0  0  0  0  0  0  0  0  0  0
    5.7962   -1.5132    0.0000 C   0  0  0  0  0  0  0  0  0  0  0  0
    5.9530   -0.0214    0.0000 N   0  0  0  0  0  0  0  0  0  0  0  0
    7.4202    0.2904    0.0000 N   0  0  0  0  0  0  0  0  0  0  0  0
    8.1702   -1.0086    0.0000 N   0  0  0  0  0  0  0  0  0  0  0  0
    7.1665   -2.1233    0.0000 N   0  0  0  0  0  0  0  0  0  0  0  0
    7.4784   -3.5905    0.0000 C   0  0  0  0  0  0  0  0  0  0  0  0
    8.8487   -4.2007    0.0000 C   0  0  0  0  0  0  0  0  0  0  0  0
    8.6919   -5.6924    0.0000 C   0  0  0  0  0  0  0  0  0  0  0  0
    7.2247   -6.0043    0.0000 C   0  0  0  0  0  0  0  0  0  0  0  0
    6.6146   -7.3746    0.0000 C   0  0  0  0  0  0  0  0  0  0  0  0
    7.4962   -8.5881    0.0000 O   0  0  0  0  0  0  0  0  0  0  0  0
    5.1228   -7.5314    0.0000 N   0  0  0  0  0  0  0  0  0  0  0  0
    4.5127   -8.9017    0.0000 C   0  0  0  0  0  0  0  0  0  0  0  0
    3.0209   -9.0585    0.0000 N   0  0  0  0  0  0  0  0  0  0  0  0
    2.4108  -10.4288    0.0000 N   0  0  0  0  0  0  0  0  0  0  0  0
    3.2925  -11.6424    0.0000 N   0  0  0  0  0  0  0  0  0  0  0  0
    4.7843  -11.4856    0.0000 N   0  0  0  0  0  0  0  0  0  0  0  0
    5.3944  -10.1153    0.0000 N   0  0  0  0  0  0  0  0  0  0  0  0
    6.4747   -4.7053    0.0000 C   0  0  0  0  0  0  0  0  0  0  0  0
    4.9829   -4.5485    0.0000 O   0  0  0  0  0  0  0  0  0  0  0  0
    0.7500   -1.2990    0.0000 C   0  0  0  0  0  0  0  0  0  0  0  0
    1.5000    0.0000    0.0000 C   0  0  0  0  0  0  0  0  0  0  0  0
    0.7500    1.2990    0.0000 C   0  0  0  0  0  0  0  0  0  0  0  0
   -0.7500    1.2990    0.0000 C   0  0  0  0  0  0  0  0  0  0  0  0
   -1.5000    0.0000    0.0000 C   0  0  0  0  0  0  0  0  0  0  0  0
   -0.7500   -1.2990    0.0000 C   0  0  0  0  0  0  0  0  0  0  0  0
  1  2  1  0
  2  3  1  0
  3  4  1  0
  4  5  1  0
  5  6  1  0
  6  7  1  0
  7  8  1  0
  8  9  1  0
  9 10  2  0
  9 11  1  0
 11 12  1  0
 12 13  2  0
 13 14  1  0
 14 15  2  0
 15 16  1  0
 16 17  1  0
 17 18  2  0
 18 19  1  0
 19 20  2  0
 20 21  1  0
 21 22  2  0
 21 23  1  0
 23 24  1  0
 24 25  2  0
 25 26  1  0
 26 27  2  0
 27 28  1  0
 28 29  2  0
 20 30  1  0
 30 31  2  0
  8 32  1  0
 32 33  2  0
 33 34  1  0
 34 35  2  0
 35 36  1  0
 36 37  2  0
 37  2  1  0
 16 12  1  0
 30 17  1  0
 37 32  1  0
 29 24  1  0
M  END
>  <Title>  (622) 
idAAVZgen13

$$$$

     RDKit          2D

  8  8  0  0  0  0  0  0  0  0999 V2000
    5.0260   -1.2990    0.0000 C   0  0  0  0  0  0  0  0  0  0  0  0
    3.5260   -1.2990    0.0000 C   0  0  0  0  0  0  0  0  0  0  0  0
    2.7760    0.0000    0.0000 C   0  0  0  0  0  0  0  0  0  0  0  0
    1.2760    0.0000    0.0000 N   0  0  0  0  0  0  0  0  0  0  0  0
    0.3943    1.2135    0.0000 C   0  0  0  0  0  0  0  0  0  0  0  0
   -1.0323    0.7500    0.0000 C   0  0  0  0  0  0  0  0  0  0  0  0
   -1.0323   -0.7500    0.0000 C   0  0  0  0  0  0  0  0  0  0  0  0
    0.3943   -1.2135    0.0000 C   0  0  0  0  0  0  0  0  0  0  0  0
  1  2  1  0
  2  3  2  3
  3  4  1  0
  4  5  1  0
  5  6  2  0
  6  7  1  0
  7  8  2  0
  8  4  1  0
M  END
>  <Title>  (623) 
idAAWAgen13

$$$$

     RDKit          2D

 14 15  0  0  0  0  0  0  0  0999 V2000
    0.0481    8.2597    0.0000 C   0  0  0  0  0  0  0  0  0  0  0  0
   -0.9556    7.1449    0.0000 N   0  0  0  0  0  0  0  0  0  0  0  0
   -0.4921    5.7184    0.0000 C   0  0  0  0  0  0  0  0  0  0  0  0
    0.9751    5.4065    0.0000 O   0  0  0  0  0  0  0  0  0  0  0  0
   -1.4958    4.6036    0.0000 N   0  0  0  0  0  0  0  0  0  0  0  0
   -1.0323    3.1771    0.0000 C   0  0  0  0  0  0  0  0  0  0  0  0
    0.3943    2.7135    0.0000 C   0  0  0  0  0  0  0  0  0  0  0  0
    0.3943    1.2135    0.0000 C   0  0  0  0  0  0  0  0  0  0  0  0
    1.2760    0.0000    0.0000 N   0  0  0  0  0  0  0  0  0  0  0  0
    0.3943   -1.2135    0.0000 N   0  0  0  0  0  0  0  0  0  0  0  0
   -1.0323   -0.7500    0.0000 N   0  0  0  0  0  0  0  0  0  0  0  0
   -1.0323    0.7500    0.0000 N   0  0  0  0  0  0  0  0  0  0  0  0
   -1.9140    1.9635    0.0000 C   0  0  0  0  0  0  0  0  0  0  0  0
   -3.4140    1.9635    0.0000 O   0  0  0  0  0  0  0  0  0  0  0  0
  1  2  1  0
  2  3  1  0
  3  4  2  0
  3  5  1  0
  5  6  1  0
  6  7  1  0
  7  8  1  0
  8  9  2  0
  9 10  1  0
 10 11  2  0
 11 12  1  0
 12 13  1  0
 13 14  2  0
 13  6  1  0
 12  8  1  0
M  END
>  <Title>  (624) 
idAAWBgen13

$$$$

     RDKit          2D

 15 15  0  0  0  0  0  0  0  0999 V2000
    8.2500   -3.8971    0.0000 C   0  0  0  0  0  0  0  0  0  0  0  0
    7.5000   -2.5981    0.0000 C   0  0  0  0  0  0  0  0  0  0  0  0
    6.0000   -2.5981    0.0000 C   0  0  0  0  0  0  0  0  0  0  0  0
    5.2500   -1.2990    0.0000 C   0  0  0  0  0  0  0  0  0  0  0  0
    3.7500   -1.2990    0.0000 C   0  0  0  0  0  0  0  0  0  0  0  0
    3.0000   -2.5981    0.0000 O   0  0  0  0  0  0  0  0  0  0  0  0
    3.0000    0.0000    0.0000 N   0  0  0  0  0  0  0  0  0  0  0  0
    1.5000    0.0000    0.0000 C   0  0  0  0  0  0  0  0  0  0  0  0
    0.7500   -1.2990    0.0000 C   0  0  0  0  0  0  0  0  0  0  0  0
   -0.7500   -1.2990    0.0000 C   0  0  0  0  0  0  0  0  0  0  0  0
   -1.5000    0.0000    0.0000 C   0  0  0  0  0  0  0  0  0  0  0  0
   -3.0000    0.0000    0.0000 O   0  0  0  0  0  0  0  0  0  0  0  0
   -3.7500    1.2990    0.0000 C   0  0  0  0  0  0  0  0  0  0  0  0
   -0.7500    1.2990    0.0000 C   0  0  0  0  0  0  0  0  0  0  0  0
    0.7500    1.2990    0.0000 C   0  0  0  0  0  0  0  0  0  0  0  0
  1  2  2  0
  2  3  1  0
  3  4  1  0
  4  5  1  0
  5  6  2  0
  5  7  1  0
  7  8  1  0
  8  9  2  0
  9 10  1  0
 10 11  2  0
 11 12  1  0
 12 13  1  0
 11 14  1  0
 14 15  2  0
 15  8  1  0
M  END
>  <Title>  (625) 
idAAWCgen13

$$$$

     RDKit          2D

 23 25  0  0  0  0  0  0  0  0999 V2000
    6.2286    9.2264    0.0000 C   0  0  0  0  0  0  0  0  0  0  0  0
    4.7286    9.2321    0.0000 C   0  0  0  0  0  0  0  0  0  0  0  0
    3.2286    9.2377    0.0000 C   0  0  0  0  0  0  0  0  0  0  0  0
    2.4738    7.9414    0.0000 C   0  0  0  0  0  0  0  0  0  0  0  0
    0.9738    7.9470    0.0000 C   0  0  0  0  0  0  0  0  0  0  0  0
    0.2286    9.2489    0.0000 O   0  0  0  0  0  0  0  0  0  0  0  0
    0.2189    6.6508    0.0000 N   0  0  0  0  0  0  0  0  0  0  0  0
    1.0592    5.4083    0.0000 C   0  0  0  0  0  0  0  0  0  0  0  0
    0.6118    3.9766    0.0000 C   0  0  0  0  0  0  0  0  0  0  0  0
    1.0753    2.5500    0.0000 N   0  0  0  0  0  0  0  0  0  0  0  0
    0.3943    1.2135    0.0000 N   0  0  0  0  0  0  0  0  0  0  0  0
    1.2760    0.0000    0.0000 N   0  0  0  0  0  0  0  0  0  0  0  0
    0.3943   -1.2135    0.0000 N   0  0  0  0  0  0  0  0  0  0  0  0
   -1.0323   -0.7500    0.0000 N   0  0  0  0  0  0  0  0  0  0  0  0
   -1.0323    0.7500    0.0000 C   0  0  0  0  0  0  0  0  0  0  0  0
   -2.3688    1.4310    0.0000 N   0  0  0  0  0  0  0  0  0  0  0  0
   -2.8323    2.8576    0.0000 C   0  0  0  0  0  0  0  0  0  0  0  0
   -4.3277    2.9753    0.0000 O   0  0  0  0  0  0  0  0  0  0  0  0
   -2.1513    4.1941    0.0000 C   0  0  0  0  0  0  0  0  0  0  0  0
   -0.7248    4.6576    0.0000 O   0  0  0  0  0  0  0  0  0  0  0  0
   -2.3008    5.6728    0.0000 C   0  0  0  0  0  0  0  0  0  0  0  0
   -3.7325    6.1203    0.0000 O   0  0  0  0  0  0  0  0  0  0  0  0
   -1.2765    6.7685    0.0000 C   0  0  0  0  0  0  0  0  0  0  0  0
  1  2  3  0
  2  3  1  0
  3  4  1  0
  4  5  1  0
  5  6  2  0
  5  7  1  0
  7  8  1  0
  8  9  1  0
  9 10  1  0
 10 11  1  0
 11 12  1  0
 12 13  2  0
 13 14  1  0
 14 15  2  0
 15 16  1  0
 16 17  1  0
 17 18  2  0
 17 19  1  0
 19 20  1  0
 19 21  1  0
 21 22  1  0
 21 23  1  0
 23  7  1  0
 20  9  1  0
 15 11  1  0
M  END
>  <Title>  (626) 
idAAWDgen13

$$$$

     RDKit          2D

 94 95  0  0  0  0  0  0  0  0999 V2000
   -2.3077    0.7042    0.0000 C   0  0  0  0  0  0  0  0  0  0  0  0
   -1.8195    2.1225    0.0000 C   0  0  0  0  0  0  0  0  0  0  0  0
   -3.2195    2.6610    0.0000 C   0  0  0  0  0  0  0  0  0  0  0  0
   -4.5775    3.2980    0.0000 C   0  0  0  0  0  0  0  0  0  0  0  0
   -5.8866    4.0303    0.0000 C   0  0  0  0  0  0  0  0  0  0  0  0
   -7.1402    4.8541    0.0000 C   0  0  0  0  0  0  0  0  0  0  0  0
   -8.3318    5.7652    0.0000 C   0  0  0  0  0  0  0  0  0  0  0  0
   -9.4553    6.7590    0.0000 C   0  0  0  0  0  0  0  0  0  0  0  0
  -10.5051    7.8304    0.0000 C   0  0  0  0  0  0  0  0  0  0  0  0
  -11.4758    8.9740    0.0000 C   0  0  0  0  0  0  0  0  0  0  0  0
  -12.3624   10.1839    0.0000 C   0  0  0  0  0  0  0  0  0  0  0  0
  -13.1604   11.4540    0.0000 C   0  0  0  0  0  0  0  0  0  0  0  0
  -13.8659   12.7778    0.0000 C   0  0  0  0  0  0  0  0  0  0  0  0
  -14.4750   14.1485    0.0000 C   0  0  0  0  0  0  0  0  0  0  0  0
  -14.9849   15.5592    0.0000 C   0  0  0  0  0  0  0  0  0  0  0  0
  -15.3928   17.0027    0.0000 C   0  0  0  0  0  0  0  0  0  0  0  0
  -15.6966   18.4716    0.0000 C   0  0  0  0  0  0  0  0  0  0  0  0
  -15.8950   19.9584    0.0000 C   0  0  0  0  0  0  0  0  0  0  0  0
  -15.9867   21.4556    0.0000 C   0  0  0  0  0  0  0  0  0  0  0  0
  -15.9714   22.9555    0.0000 C   0  0  0  0  0  0  0  0  0  0  0  0
  -15.8491   24.4505    0.0000 C   0  0  0  0  0  0  0  0  0  0  0  0
  -15.6205   25.9330    0.0000 C   0  0  0  0  0  0  0  0  0  0  0  0
  -15.2867   27.3954    0.0000 C   0  0  0  0  0  0  0  0  0  0  0  0
  -14.8495   28.8303    0.0000 C   0  0  0  0  0  0  0  0  0  0  0  0
  -14.3110   30.2303    0.0000 C   0  0  0  0  0  0  0  0  0  0  0  0
  -13.6740   31.5883    0.0000 C   0  0  0  0  0  0  0  0  0  0  0  0
  -12.9417   32.8974    0.0000 C   0  0  0  0  0  0  0  0  0  0  0  0
  -12.1179   34.1509    0.0000 C   0  0  0  0  0  0  0  0  0  0  0  0
  -11.2068   35.3425    0.0000 C   0  0  0  0  0  0  0  0  0  0  0  0
  -10.2130   36.4661    0.0000 C   0  0  0  0  0  0  0  0  0  0  0  0
   -9.1416   37.5159    0.0000 C   0  0  0  0  0  0  0  0  0  0  0  0
   -7.9980   38.4865    0.0000 C   0  0  0  0  0  0  0  0  0  0  0  0
   -6.7881   39.3732    0.0000 C   0  0  0  0  0  0  0  0  0  0  0  0
   -5.5180   40.1712    0.0000 C   0  0  0  0  0  0  0  0  0  0  0  0
   -4.1942   40.8766    0.0000 C   0  0  0  0  0  0  0  0  0  0  0  0
   -2.8235   41.4858    0.0000 C   0  0  0  0  0  0  0  0  0  0  0  0
   -1.4128   41.9956    0.0000 C   0  0  0  0  0  0  0  0  0  0  0  0
    0.0307   42.4035    0.0000 C   0  0  0  0  0  0  0  0  0  0  0  0
    1.4996   42.7074    0.0000 C   0  0  0  0  0  0  0  0  0  0  0  0
    2.9864   42.9057    0.0000 C   0  0  0  0  0  0  0  0  0  0  0  0
    4.4836   42.9975    0.0000 C   0  0  0  0  0  0  0  0  0  0  0  0
    5.9835   42.9822    0.0000 C   0  0  0  0  0  0  0  0  0  0  0  0
    7.4785   42.8599    0.0000 C   0  0  0  0  0  0  0  0  0  0  0  0
    8.9610   42.6313    0.0000 C   0  0  0  0  0  0  0  0  0  0  0  0
   10.4234   42.2975    0.0000 C   0  0  0  0  0  0  0  0  0  0  0  0
   11.8583   41.8602    0.0000 C   0  0  0  0  0  0  0  0  0  0  0  0
   13.2583   41.3217    0.0000 C   0  0  0  0  0  0  0  0  0  0  0  0
   14.6163   40.6847    0.0000 C   0  0  0  0  0  0  0  0  0  0  0  0
   15.9254   39.9525    0.0000 C   0  0  0  0  0  0  0  0  0  0  0  0
   17.1790   39.1287    0.0000 C   0  0  0  0  0  0  0  0  0  0  0  0
   18.3705   38.2176    0.0000 C   0  0  0  0  0  0  0  0  0  0  0  0
   19.4941   37.2238    0.0000 C   0  0  0  0  0  0  0  0  0  0  0  0
   20.5439   36.1523    0.0000 C   0  0  0  0  0  0  0  0  0  0  0  0
   21.5145   35.0088    0.0000 C   0  0  0  0  0  0  0  0  0  0  0  0
   22.4012   33.7988    0.0000 C   0  0  0  0  0  0  0  0  0  0  0  0
   23.1992   32.5287    0.0000 C   0  0  0  0  0  0  0  0  0  0  0  0
   23.9046   31.2050    0.0000 C   0  0  0  0  0  0  0  0  0  0  0  0
   24.5138   29.8342    0.0000 C   0  0  0  0  0  0  0  0  0  0  0  0
   25.0236   28.4235    0.0000 C   0  0  0  0  0  0  0  0  0  0  0  0
   25.4315   26.9801    0.0000 C   0  0  0  0  0  0  0  0  0  0  0  0
   25.7354   25.5112    0.0000 C   0  0  0  0  0  0  0  0  0  0  0  0
   25.9337   24.0243    0.0000 C   0  0  0  0  0  0  0  0  0  0  0  0
   26.0255   22.5271    0.0000 C   0  0  0  0  0  0  0  0  0  0  0  0
   26.0102   21.0272    0.0000 C   0  0  0  0  0  0  0  0  0  0  0  0
   25.8879   19.5322    0.0000 C   0  0  0  0  0  0  0  0  0  0  0  0
   25.6593   18.0497    0.0000 C   0  0  0  0  0  0  0  0  0  0  0  0
   25.3255   16.5873    0.0000 C   0  0  0  0  0  0  0  0  0  0  0  0
   24.8883   15.1525    0.0000 C   0  0  0  0  0  0  0  0  0  0  0  0
   24.3498   13.7525    0.0000 C   0  0  0  0  0  0  0  0  0  0  0  0
   23.7128   12.3945    0.0000 C   0  0  0  0  0  0  0  0  0  0  0  0
   22.9805   11.0853    0.0000 C   0  0  0  0  0  0  0  0  0  0  0  0
   22.1567    9.8318    0.0000 C   0  0  0  0  0  0  0  0  0  0  0  0
   21.2456    8.6402    0.0000 C   0  0  0  0  0  0  0  0  0  0  0  0
   20.2518    7.5167    0.0000 C   0  0  0  0  0  0  0  0  0  0  0  0
   19.1804    6.4669    0.0000 C   0  0  0  0  0  0  0  0  0  0  0  0
   18.0368    5.4962    0.0000 C   0  0  0  0  0  0  0  0  0  0  0  0
   16.8269    4.6096    0.0000 C   0  0  0  0  0  0  0  0  0  0  0  0
   15.5568    3.8115    0.0000 C   0  0  0  0  0  0  0  0  0  0  0  0
   14.2330    3.1061    0.0000 C   0  0  0  0  0  0  0  0  0  0  0  0
   12.8622    2.4970    0.0000 C   0  0  0  0  0  0  0  0  0  0  0  0
   11.4516    1.9871    0.0000 C   0  0  0  0  0  0  0  0  0  0  0  0
   10.0081    1.5792    0.0000 C   0  0  0  0  0  0  0  0  0  0  0  0
    8.5392    1.2753    0.0000 C   0  0  0  0  0  0  0  0  0  0  0  0
    7.0523    1.0770    0.0000 C   0  0  0  0  0  0  0  0  0  0  0  0
    5.5552    0.9853    0.0000 C   0  0  0  0  0  0  0  0  0  0  0  0
    4.0552    1.0006    0.0000 C   0  0  0  0  0  0  0  0  0  0  0  0
    2.5602    1.1228    0.0000 C   0  0  0  0  0  0  0  0  0  0  0  0
    1.0777    1.3515    0.0000 C   0  0  0  0  0  0  0  0  0  0  0  0
    1.7286    0.0000    0.0000 C   0  0  0  0  0  0  0  0  0  0  0  0
    1.0777   -1.3515    0.0000 C   0  0  0  0  0  0  0  0  0  0  0  0
   -0.3846   -1.6852    0.0000 C   0  0  0  0  0  0  0  0  0  0  0  0
   -1.5574   -0.7500    0.0000 C   0  0  0  0  0  0  0  0  0  0  0  0
   -1.5574    0.7500    0.0000 C   0  0  0  0  0  0  0  0  0  0  0  0
   -0.3846    1.6852    0.0000 C   0  0  0  0  0  0  0  0  0  0  0  0
  1  2  1  0
  2  3  1  0
  3  4  1  0
  4  5  1  0
  5  6  1  0
  6  7  1  0
  7  8  1  0
  8  9  1  0
  9 10  1  0
 10 11  1  0
 11 12  1  0
 12 13  1  0
 13 14  1  0
 14 15  1  0
 15 16  1  0
 16 17  1  0
 17 18  1  0
 18 19  1  0
 19 20  1  0
 20 21  1  0
 21 22  1  0
 22 23  1  0
 23 24  1  0
 24 25  1  0
 25 26  1  0
 26 27  1  0
 27 28  1  0
 28 29  1  0
 29 30  1  0
 30 31  1  0
 31 32  1  0
 32 33  1  0
 33 34  1  0
 34 35  1  0
 35 36  1  0
 36 37  1  0
 37 38  1  0
 38 39  1  0
 39 40  1  0
 40 41  1  0
 41 42  1  0
 42 43  1  0
 43 44  1  0
 44 45  1  0
 45 46  1  0
 46 47  1  0
 47 48  1  0
 48 49  1  0
 49 50  1  0
 50 51  1  0
 51 52  1  0
 52 53  1  0
 53 54  1  0
 54 55  1  0
 55 56  1  0
 56 57  1  0
 57 58  1  0
 58 59  1  0
 59 60  1  0
 60 61  1  0
 61 62  1  0
 62 63  1  0
 63 64  1  0
 64 65  1  0
 65 66  1  0
 66 67  1  0
 67 68  1  0
 68 69  1  0
 69 70  1  0
 70 71  1  0
 71 72  1  0
 72 73  1  0
 73 74  1  0
 74 75  1  0
 75 76  1  0
 76 77  1  0
 77 78  1  0
 78 79  1  0
 79 80  1  0
 80 81  1  0
 81 82  1  0
 82 83  1  0
 83 84  1  0
 84 85  1  0
 85 86  1  0
 86 87  1  0
 87 88  1  0
 88 89  1  0
 89 90  2  0
 90 91  1  0
 91 92  2  0
 92 93  1  0
 93 94  2  0
 94  2  1  0
 94 88  1  0
M  END
>  <Title>  (627) 
idAAWEgen13

$$$$

     RDKit          2D

 18 18  0  0  0  0  0  0  0  0999 V2000
    5.0260   -9.0933    0.0000 C   0  0  0  0  0  0  0  0  0  0  0  0
    5.7760   -7.7942    0.0000 C   0  0  0  0  0  0  0  0  0  0  0  0
    7.2760   -7.7942    0.0000 O   0  0  0  0  0  0  0  0  0  0  0  0
    5.0260   -6.4952    0.0000 N   0  0  0  0  0  0  0  0  0  0  0  0
    5.7760   -5.1962    0.0000 C   0  0  0  0  0  0  0  0  0  0  0  0
    7.2760   -5.1962    0.0000 O   0  0  0  0  0  0  0  0  0  0  0  0
    5.0260   -3.8971    0.0000 N   0  0  0  0  0  0  0  0  0  0  0  0
    5.7760   -2.5981    0.0000 C   0  0  0  0  0  0  0  0  0  0  0  0
    7.2760   -2.5981    0.0000 C   0  0  0  0  0  0  0  0  0  0  0  0
    5.0260   -1.2990    0.0000 C   0  0  0  0  0  0  0  0  0  0  0  0
    3.5260   -1.2990    0.0000 C   0  0  0  0  0  0  0  0  0  0  0  0
    2.7760   -2.5981    0.0000 O   0  0  0  0  0  0  0  0  0  0  0  0
    2.7760    0.0000    0.0000 N   0  0  0  0  0  0  0  0  0  0  0  0
    1.2760    0.0000    0.0000 C   0  0  0  0  0  0  0  0  0  0  0  0
    0.3943    1.2135    0.0000 C   0  0  0  0  0  0  0  0  0  0  0  0
   -1.0323    0.7500    0.0000 C   0  0  0  0  0  0  0  0  0  0  0  0
   -1.0323   -0.7500    0.0000 C   0  0  0  0  0  0  0  0  0  0  0  0
    0.3943   -1.2135    0.0000 C   0  0  0  0  0  0  0  0  0  0  0  0
  1  2  1  0
  2  3  2  0
  2  4  1  0
  4  5  1  0
  5  6  2  0
  5  7  1  0
  7  8  1  0
  8  9  1  0
  8 10  1  0
 10 11  1  0
 11 12  2  0
 11 13  1  0
 13 14  1  0
 14 15  2  0
 15 16  1  0
 16 17  2  0
 17 18  1  0
 18 14  1  0
M  END
>  <Title>  (628) 
idAAWFgen13

$$$$

     RDKit          2D

 10 11  0  0  0  0  0  0  0  0999 V2000
    1.5000    0.0000    0.0000 C   0  0  0  0  0  0  0  0  0  0  0  0
    0.7500   -1.2990    0.0000 C   0  0  0  0  0  0  0  0  0  0  0  0
   -0.7500   -1.2990    0.0000 C   0  0  0  0  0  0  0  0  0  0  0  0
   -1.5000    0.0000    0.0000 C   0  0  0  0  0  0  0  0  0  0  0  0
   -0.7500    1.2990    0.0000 C   0  0  0  0  0  0  0  0  0  0  0  0
    0.7500    1.2990    0.0000 C   0  0  0  0  0  0  0  0  0  0  0  0
   -1.5000    2.5981    0.0000 C   0  0  0  0  0  0  0  0  0  0  0  0
   -3.0000    2.5981    0.0000 C   0  0  0  0  0  0  0  0  0  0  0  0
   -3.7500    1.2990    0.0000 C   0  0  0  0  0  0  0  0  0  0  0  0
   -3.0000    0.0000    0.0000 O   0  0  0  0  0  0  0  0  0  0  0  0
  1  2  2  0
  2  3  1  0
  3  4  2  0
  4  5  1  0
  5  6  2  0
  5  7  1  0
  7  8  1  0
  8  9  1  0
  9 10  1  0
  6  1  1  0
 10  4  1  0
M  END
>  <Title>  (629) 
idAAWGgen13

$$$$

     RDKit          2D

 35 39  0  0  0  0  0  0  0  0999 V2000
    8.2500    3.8971    0.0000 C   0  0  0  0  0  0  0  0  0  0  0  0
    7.5000    2.5981    0.0000 C   0  0  0  0  0  0  0  0  0  0  0  0
    8.2500    1.2990    0.0000 C   0  0  0  0  0  0  0  0  0  0  0  0
    7.5000    0.0000    0.0000 C   0  0  0  0  0  0  0  0  0  0  0  0
    6.0000    0.0000    0.0000 C   0  0  0  0  0  0  0  0  0  0  0  0
    5.2500   -1.2990    0.0000 N   0  0  0  0  0  0  0  0  0  0  0  0
    6.0000   -2.5981    0.0000 C   0  0  0  0  0  0  0  0  0  0  0  0
    7.5000   -2.5981    0.0000 O   0  0  0  0  0  0  0  0  0  0  0  0
    5.2500   -3.8971    0.0000 N   0  0  0  0  0  0  0  0  0  0  0  0
    6.0000   -5.1962    0.0000 C   0  0  0  0  0  0  0  0  0  0  0  0
    7.4918   -5.3529    0.0000 N   0  0  0  0  0  0  0  0  0  0  0  0
    7.8037   -6.8202    0.0000 N   0  0  0  0  0  0  0  0  0  0  0  0
    6.5046   -7.5702    0.0000 N   0  0  0  0  0  0  0  0  0  0  0  0
    5.3899   -6.5665    0.0000 N   0  0  0  0  0  0  0  0  0  0  0  0
    3.9227   -6.8783    0.0000 N   0  0  0  0  0  0  0  0  0  0  0  0
    2.8080   -5.8746    0.0000 C   0  0  0  0  0  0  0  0  0  0  0  0
    1.5089   -6.6246    0.0000 C   0  0  0  0  0  0  0  0  0  0  0  0
    1.8208   -8.0919    0.0000 N   0  0  0  0  0  0  0  0  0  0  0  0
    0.8171   -9.2066    0.0000 C   0  0  0  0  0  0  0  0  0  0  0  0
    1.2806  -10.6332    0.0000 O   0  0  0  0  0  0  0  0  0  0  0  0
   -0.6501   -8.8947    0.0000 N   0  0  0  0  0  0  0  0  0  0  0  0
   -1.6538  -10.0094    0.0000 C   0  0  0  0  0  0  0  0  0  0  0  0
   -1.1903  -11.4360    0.0000 N   0  0  0  0  0  0  0  0  0  0  0  0
   -2.1940  -12.5507    0.0000 N   0  0  0  0  0  0  0  0  0  0  0  0
   -3.6612  -12.2389    0.0000 N   0  0  0  0  0  0  0  0  0  0  0  0
   -4.1247  -10.8123    0.0000 N   0  0  0  0  0  0  0  0  0  0  0  0
   -3.1210   -9.6976    0.0000 N   0  0  0  0  0  0  0  0  0  0  0  0
    3.3126   -8.2487    0.0000 C   0  0  0  0  0  0  0  0  0  0  0  0
    4.0626   -9.5477    0.0000 O   0  0  0  0  0  0  0  0  0  0  0  0
    5.2500    1.2990    0.0000 C   0  0  0  0  0  0  0  0  0  0  0  0
    3.7500    1.2990    0.0000 C   0  0  0  0  0  0  0  0  0  0  0  0
    3.0000    2.5981    0.0000 C   0  0  0  0  0  0  0  0  0  0  0  0
    3.7500    3.8971    0.0000 C   0  0  0  0  0  0  0  0  0  0  0  0
    5.2500    3.8971    0.0000 C   0  0  0  0  0  0  0  0  0  0  0  0
    6.0000    2.5981    0.0000 C   0  0  0  0  0  0  0  0  0  0  0  0
  1  2  1  0
  2  3  1  0
  3  4  2  0
  4  5  1  0
  5  6  1  0
  6  7  1  0
  7  8  2  0
  7  9  1  0
  9 10  1  0
 10 11  2  0
 11 12  1  0
 12 13  2  0
 13 14  1  0
 14 15  1  0
 15 16  1  0
 16 17  1  0
 17 18  1  0
 18 19  1  0
 19 20  2  0
 19 21  1  0
 21 22  1  0
 22 23  2  0
 23 24  1  0
 24 25  2  0
 25 26  1  0
 26 27  2  0
 18 28  1  0
 28 29  2  0
  5 30  1  0
 30 31  2  0
 31 32  1  0
 32 33  2  0
 33 34  1  0
 34 35  2  0
 35  2  1  0
 14 10  1  0
 28 15  1  0
 35 30  1  0
 27 22  1  0
M  END
>  <Title>  (630) 
idAAWHgen13

$$$$

     RDKit          2D

 11 10  0  0  0  0  0  0  0  0999 V2000
    0.0000    0.0000    0.0000 C   0  0  0  0  0  0  0  0  0  0  0  0
    1.2990    0.7500    0.0000 C   0  0  0  0  0  0  0  0  0  0  0  0
    2.5981   -0.0000    0.0000 C   0  0  0  0  0  0  0  0  0  0  0  0
    3.8971    0.7500    0.0000 C   0  0  0  0  0  0  0  0  0  0  0  0
    5.1962   -0.0000    0.0000 C   0  0  0  0  0  0  0  0  0  0  0  0
    5.1962   -1.5000    0.0000 O   0  0  0  0  0  0  0  0  0  0  0  0
    6.4952    0.7500    0.0000 N   0  0  0  0  0  0  0  0  0  0  0  0
    7.7942   -0.0000    0.0000 C   0  0  0  0  0  0  0  0  0  0  0  0
    9.0933    0.7500    0.0000 C   0  0  0  0  0  0  0  0  0  0  0  0
   10.3923   -0.0000    0.0000 C   0  0  0  0  0  0  0  0  0  0  0  0
   11.6913    0.7500    0.0000 C   0  0  0  0  0  0  0  0  0  0  0  0
  1  2  2  0
  2  3  1  0
  3  4  1  0
  4  5  1  0
  5  6  2  0
  5  7  1  0
  7  8  1  0
  8  9  1  0
  9 10  1  0
 10 11  1  0
M  END
>  <Title>  (631) 
idAAWIgen13

$$$$

     RDKit          2D

 79 80  0  0  0  0  0  0  0  0999 V2000
    5.2057    4.2709    0.0000 C   0  0  0  0  0  0  0  0  0  0  0  0
    5.9950    4.3822    0.0000 C   0  0  0  0  0  0  0  0  0  0  0  0
    5.8773    5.8776    0.0000 C   0  0  0  0  0  0  0  0  0  0  0  0
    5.9442    7.3761    0.0000 C   0  0  0  0  0  0  0  0  0  0  0  0
    6.1947    8.8551    0.0000 C   0  0  0  0  0  0  0  0  0  0  0  0
    6.6251   10.2920    0.0000 C   0  0  0  0  0  0  0  0  0  0  0  0
    7.2287   11.6651    0.0000 C   0  0  0  0  0  0  0  0  0  0  0  0
    7.9966   12.9537    0.0000 C   0  0  0  0  0  0  0  0  0  0  0  0
    8.9170   14.1381    0.0000 C   0  0  0  0  0  0  0  0  0  0  0  0
    9.9760   15.2005    0.0000 C   0  0  0  0  0  0  0  0  0  0  0  0
   11.1575   16.1246    0.0000 C   0  0  0  0  0  0  0  0  0  0  0  0
   12.4436   16.8966    0.0000 C   0  0  0  0  0  0  0  0  0  0  0  0
   13.8148   17.5047    0.0000 C   0  0  0  0  0  0  0  0  0  0  0  0
   15.2504   17.9396    0.0000 C   0  0  0  0  0  0  0  0  0  0  0  0
   16.7285   18.1949    0.0000 C   0  0  0  0  0  0  0  0  0  0  0  0
   18.2268   18.2665    0.0000 C   0  0  0  0  0  0  0  0  0  0  0  0
   19.7225   18.1535    0.0000 C   0  0  0  0  0  0  0  0  0  0  0  0
   21.1930   17.8576    0.0000 C   0  0  0  0  0  0  0  0  0  0  0  0
   22.6160   17.3832    0.0000 C   0  0  0  0  0  0  0  0  0  0  0  0
   23.9699   16.7375    0.0000 C   0  0  0  0  0  0  0  0  0  0  0  0
   25.2342   15.9303    0.0000 C   0  0  0  0  0  0  0  0  0  0  0  0
   26.3898   14.9738    0.0000 C   0  0  0  0  0  0  0  0  0  0  0  0
   27.4190   13.8827    0.0000 C   0  0  0  0  0  0  0  0  0  0  0  0
   28.3063   12.6733    0.0000 C   0  0  0  0  0  0  0  0  0  0  0  0
   29.0383   11.3640    0.0000 C   0  0  0  0  0  0  0  0  0  0  0  0
   29.6039    9.9747    0.0000 C   0  0  0  0  0  0  0  0  0  0  0  0
   29.9944    8.5264    0.0000 C   0  0  0  0  0  0  0  0  0  0  0  0
   30.2040    7.0412    0.0000 C   0  0  0  0  0  0  0  0  0  0  0  0
   30.2295    5.5414    0.0000 C   0  0  0  0  0  0  0  0  0  0  0  0
   30.0705    4.0498    0.0000 C   0  0  0  0  0  0  0  0  0  0  0  0
   29.7294    2.5891    0.0000 C   0  0  0  0  0  0  0  0  0  0  0  0
   29.2114    1.1814    0.0000 C   0  0  0  0  0  0  0  0  0  0  0  0
   28.5243   -0.1520    0.0000 C   0  0  0  0  0  0  0  0  0  0  0  0
   27.6786   -1.3908    0.0000 C   0  0  0  0  0  0  0  0  0  0  0  0
   26.6870   -2.5163    0.0000 C   0  0  0  0  0  0  0  0  0  0  0  0
   25.5646   -3.5115    0.0000 C   0  0  0  0  0  0  0  0  0  0  0  0
   24.3285   -4.3612    0.0000 C   0  0  0  0  0  0  0  0  0  0  0  0
   22.9973   -5.0525    0.0000 C   0  0  0  0  0  0  0  0  0  0  0  0
   21.5912   -5.5750    0.0000 C   0  0  0  0  0  0  0  0  0  0  0  0
   20.1316   -5.9207    0.0000 C   0  0  0  0  0  0  0  0  0  0  0  0
   18.6406   -6.0845    0.0000 C   0  0  0  0  0  0  0  0  0  0  0  0
   17.1407   -6.0638    0.0000 C   0  0  0  0  0  0  0  0  0  0  0  0
   15.6548   -5.8589    0.0000 C   0  0  0  0  0  0  0  0  0  0  0  0
   14.2053   -5.4730    0.0000 C   0  0  0  0  0  0  0  0  0  0  0  0
   12.8142   -4.9119    0.0000 C   0  0  0  0  0  0  0  0  0  0  0  0
   11.5026   -4.1841    0.0000 C   0  0  0  0  0  0  0  0  0  0  0  0
   10.2904   -3.3006    0.0000 C   0  0  0  0  0  0  0  0  0  0  0  0
    9.1959   -2.2748    0.0000 C   0  0  0  0  0  0  0  0  0  0  0  0
    8.2358   -1.1224    0.0000 C   0  0  0  0  0  0  0  0  0  0  0  0
    7.4246    0.1394    0.0000 C   0  0  0  0  0  0  0  0  0  0  0  0
    6.7746    1.4912    0.0000 C   0  0  0  0  0  0  0  0  0  0  0  0
    6.2368   -0.0000    0.0000 C   0  0  0  0  0  0  0  0  0  0  0  0
    6.0910   -1.3407    0.0000 C   0  0  0  0  0  0  0  0  0  0  0  0
    5.6604   -2.6188    0.0000 C   0  0  0  0  0  0  0  0  0  0  0  0
    4.9651   -3.7744    0.0000 C   0  0  0  0  0  0  0  0  0  0  0  0
    4.0376   -4.7535    0.0000 C   0  0  0  0  0  0  0  0  0  0  0  0
    2.9214   -5.5103    0.0000 C   0  0  0  0  0  0  0  0  0  0  0  0
    1.6685   -6.0095    0.0000 C   0  0  0  0  0  0  0  0  0  0  0  0
    0.3377   -6.2277    0.0000 C   0  0  0  0  0  0  0  0  0  0  0  0
   -1.0090   -6.1546    0.0000 C   0  0  0  0  0  0  0  0  0  0  0  0
   -2.3085   -5.7938    0.0000 C   0  0  0  0  0  0  0  0  0  0  0  0
   -3.5000   -5.1621    0.0000 C   0  0  0  0  0  0  0  0  0  0  0  0
   -4.5279   -4.2890    0.0000 C   0  0  0  0  0  0  0  0  0  0  0  0
   -5.3440   -3.2154    0.0000 C   0  0  0  0  0  0  0  0  0  0  0  0
   -5.9103   -1.9914    0.0000 C   0  0  0  0  0  0  0  0  0  0  0  0
   -6.2002   -0.6743    0.0000 C   0  0  0  0  0  0  0  0  0  0  0  0
   -6.2002    0.6743    0.0000 C   0  0  0  0  0  0  0  0  0  0  0  0
   -5.9103    1.9914    0.0000 C   0  0  0  0  0  0  0  0  0  0  0  0
   -5.3440    3.2154    0.0000 C   0  0  0  0  0  0  0  0  0  0  0  0
   -4.5279    4.2890    0.0000 C   0  0  0  0  0  0  0  0  0  0  0  0
   -3.5000    5.1621    0.0000 C   0  0  0  0  0  0  0  0  0  0  0  0
   -2.3085    5.7938    0.0000 C   0  0  0  0  0  0  0  0  0  0  0  0
   -1.0090    6.1546    0.0000 C   0  0  0  0  0  0  0  0  0  0  0  0
    0.3377    6.2277    0.0000 C   0  0  0  0  0  0  0  0  0  0  0  0
    1.6685    6.0095    0.0000 C   0  0  0  0  0  0  0  0  0  0  0  0
    2.9214    5.5103    0.0000 C   0  0  0  0  0  0  0  0  0  0  0  0
    4.0376    4.7535    0.0000 C   0  0  0  0  0  0  0  0  0  0  0  0
    4.9651    3.7744    0.0000 C   0  0  0  0  0  0  0  0  0  0  0  0
    6.2957    2.9127    0.0000 C   0  0  0  0  0  0  0  0  0  0  0  0
  1  2  1  0
  2  3  1  0
  3  4  1  0
  4  5  1  0
  5  6  1  0
  6  7  1  0
  7  8  1  0
  8  9  1  0
  9 10  1  0
 10 11  1  0
 11 12  1  0
 12 13  1  0
 13 14  1  0
 14 15  1  0
 15 16  1  0
 16 17  1  0
 17 18  1  0
 18 19  1  0
 19 20  1  0
 20 21  1  0
 21 22  1  0
 22 23  1  0
 23 24  1  0
 24 25  1  0
 25 26  1  0
 26 27  1  0
 27 28  1  0
 28 29  1  0
 29 30  1  0
 30 31  1  0
 31 32  1  0
 32 33  1  0
 33 34  1  0
 34 35  1  0
 35 36  1  0
 36 37  1  0
 37 38  1  0
 38 39  1  0
 39 40  1  0
 40 41  1  0
 41 42  1  0
 42 43  1  0
 43 44  1  0
 44 45  1  0
 45 46  1  0
 46 47  1  0
 47 48  1  0
 48 49  1  0
 49 50  1  0
 50 51  1  0
 51 52  1  0
 52 53  1  0
 53 54  1  0
 54 55  2  0
 55 56  1  0
 56 57  2  0
 57 58  1  0
 58 59  2  0
 59 60  1  0
 60 61  2  0
 61 62  1  0
 62 63  2  0
 63 64  1  0
 64 65  2  0
 65 66  1  0
 66 67  2  0
 67 68  1  0
 68 69  2  0
 69 70  1  0
 70 71  2  0
 71 72  1  0
 72 73  2  0
 73 74  1  0
 74 75  2  0
 75 76  1  0
 76 77  2  0
 77 78  1  0
 78 79  2  0
 79  2  1  0
 79 51  1  0
M  END
>  <Title>  (632) 
idAAWJgen13

$$$$

     RDKit          2D

 10 11  0  0  0  0  0  0  0  0999 V2000
    1.2760    0.0000    0.0000 C   0  0  0  0  0  0  0  0  0  0  0  0
    0.3943    1.2135    0.0000 C   0  0  0  0  0  0  0  0  0  0  0  0
   -1.0323    0.7500    0.0000 C   0  0  0  0  0  0  0  0  0  0  0  0
   -2.2458    1.6317    0.0000 N   0  0  0  0  0  0  0  0  0  0  0  0
   -3.6724    1.1682    0.0000 C   0  0  0  0  0  0  0  0  0  0  0  0
   -4.5541    2.3817    0.0000 C   0  0  0  0  0  0  0  0  0  0  0  0
   -3.6724    3.5952    0.0000 C   0  0  0  0  0  0  0  0  0  0  0  0
   -2.2458    3.1317    0.0000 N   0  0  0  0  0  0  0  0  0  0  0  0
   -1.0323   -0.7500    0.0000 C   0  0  0  0  0  0  0  0  0  0  0  0
    0.3943   -1.2135    0.0000 C   0  0  0  0  0  0  0  0  0  0  0  0
  1  2  2  0
  2  3  1  0
  3  4  1  0
  4  5  1  0
  5  6  2  0
  6  7  1  0
  7  8  2  0
  3  9  1  0
  9 10  1  0
 10  1  1  0
  8  4  1  0
M  END
>  <Title>  (633) 
idAAWKgen13

$$$$

     RDKit          2D

 36 40  0  0  0  0  0  0  0  0999 V2000
   -3.0000   -2.5981    0.0000 C   0  0  0  0  0  0  0  0  0  0  0  0
   -1.5000   -2.5981    0.0000 C   0  0  0  0  0  0  0  0  0  0  0  0
   -0.7500   -3.8971    0.0000 C   0  0  0  0  0  0  0  0  0  0  0  0
    0.7500   -3.8971    0.0000 C   0  0  0  0  0  0  0  0  0  0  0  0
    1.5000   -2.5981    0.0000 C   0  0  0  0  0  0  0  0  0  0  0  0
    3.0000   -2.5981    0.0000 C   0  0  0  0  0  0  0  0  0  0  0  0
    3.7500   -1.2990    0.0000 O   0  0  0  0  0  0  0  0  0  0  0  0
    3.7500   -3.8971    0.0000 N   0  0  0  0  0  0  0  0  0  0  0  0
    5.2500   -3.8971    0.0000 C   0  0  0  0  0  0  0  0  0  0  0  0
    6.1317   -2.6836    0.0000 N   0  0  0  0  0  0  0  0  0  0  0  0
    7.5583   -3.1471    0.0000 N   0  0  0  0  0  0  0  0  0  0  0  0
    7.5583   -4.6471    0.0000 N   0  0  0  0  0  0  0  0  0  0  0  0
    6.1317   -5.1106    0.0000 N   0  0  0  0  0  0  0  0  0  0  0  0
    5.6682   -6.5372    0.0000 C   0  0  0  0  0  0  0  0  0  0  0  0
    6.5498   -7.7508    0.0000 C   0  0  0  0  0  0  0  0  0  0  0  0
    5.6682   -8.9643    0.0000 C   0  0  0  0  0  0  0  0  0  0  0  0
    4.2416   -8.5008    0.0000 C   0  0  0  0  0  0  0  0  0  0  0  0
    3.0280   -9.3824    0.0000 O   0  0  0  0  0  0  0  0  0  0  0  0
    1.6577   -8.7723    0.0000 C   0  0  0  0  0  0  0  0  0  0  0  0
    1.5009   -7.2805    0.0000 O   0  0  0  0  0  0  0  0  0  0  0  0
    0.4442   -9.6540    0.0000 N   0  0  0  0  0  0  0  0  0  0  0  0
   -0.9261   -9.0439    0.0000 C   0  0  0  0  0  0  0  0  0  0  0  0
   -1.0829   -7.5521    0.0000 N   0  0  0  0  0  0  0  0  0  0  0  0
   -2.4532   -6.9420    0.0000 N   0  0  0  0  0  0  0  0  0  0  0  0
   -3.6668   -7.8237    0.0000 N   0  0  0  0  0  0  0  0  0  0  0  0
   -3.5100   -9.3155    0.0000 N   0  0  0  0  0  0  0  0  0  0  0  0
   -2.1396   -9.9256    0.0000 N   0  0  0  0  0  0  0  0  0  0  0  0
    4.2416   -7.0008    0.0000 C   0  0  0  0  0  0  0  0  0  0  0  0
    3.0280   -6.1191    0.0000 O   0  0  0  0  0  0  0  0  0  0  0  0
    0.7500   -1.2990    0.0000 C   0  0  0  0  0  0  0  0  0  0  0  0
    1.5000    0.0000    0.0000 C   0  0  0  0  0  0  0  0  0  0  0  0
    0.7500    1.2990    0.0000 C   0  0  0  0  0  0  0  0  0  0  0  0
   -0.7500    1.2990    0.0000 C   0  0  0  0  0  0  0  0  0  0  0  0
   -1.5000    2.5981    0.0000 O   0  0  0  0  0  0  0  0  0  0  0  0
   -1.5000    0.0000    0.0000 C   0  0  0  0  0  0  0  0  0  0  0  0
   -0.7500   -1.2990    0.0000 C   0  0  0  0  0  0  0  0  0  0  0  0
  1  2  1  0
  2  3  1  0
  3  4  2  0
  4  5  1  0
  5  6  1  0
  6  7  2  0
  6  8  1  0
  8  9  1  0
  9 10  2  0
 10 11  1  0
 11 12  2  0
 12 13  1  0
 13 14  1  0
 14 15  2  0
 15 16  1  0
 16 17  2  0
 17 18  1  0
 18 19  1  0
 19 20  2  0
 19 21  1  0
 21 22  1  0
 22 23  2  0
 23 24  1  0
 24 25  2  0
 25 26  1  0
 26 27  2  0
 17 28  1  0
 28 29  2  0
  5 30  1  0
 30 31  2  0
 31 32  1  0
 32 33  2  0
 33 34  1  0
 33 35  1  0
 35 36  2  0
 36  2  1  0
 13  9  1  0
 28 14  1  0
 36 30  1  0
 27 22  1  0
M  END
>  <Title>  (634) 
idAAWLgen13

$$$$

     RDKit          2D

 16 18  0  0  0  0  0  0  0  0999 V2000
   -2.9108    4.3555    0.0000 C   0  0  0  0  0  0  0  0  0  0  0  0
   -2.8323    2.8576    0.0000 C   0  0  0  0  0  0  0  0  0  0  0  0
   -4.0903    2.0406    0.0000 O   0  0  0  0  0  0  0  0  0  0  0  0
   -1.4958    2.1766    0.0000 N   0  0  0  0  0  0  0  0  0  0  0  0
   -0.0692    2.6401    0.0000 C   0  0  0  0  0  0  0  0  0  0  0  0
    0.3943    1.2135    0.0000 C   0  0  0  0  0  0  0  0  0  0  0  0
    1.2760    0.0000    0.0000 C   0  0  0  0  0  0  0  0  0  0  0  0
    0.3943   -1.2135    0.0000 C   0  0  0  0  0  0  0  0  0  0  0  0
    0.8578   -2.6401    0.0000 C   0  0  0  0  0  0  0  0  0  0  0  0
   -0.1459   -3.7548    0.0000 N   0  0  0  0  0  0  0  0  0  0  0  0
    0.1660   -5.2220    0.0000 C   0  0  0  0  0  0  0  0  0  0  0  0
   -1.1330   -5.9720    0.0000 C   0  0  0  0  0  0  0  0  0  0  0  0
   -2.2478   -4.9684    0.0000 C   0  0  0  0  0  0  0  0  0  0  0  0
   -1.6377   -3.5980    0.0000 C   0  0  0  0  0  0  0  0  0  0  0  0
   -1.0323   -0.7500    0.0000 C   0  0  0  0  0  0  0  0  0  0  0  0
   -1.0323    0.7500    0.0000 C   0  0  0  0  0  0  0  0  0  0  0  0
  1  2  1  0
  2  3  2  0
  2  4  1  0
  4  5  1  0
  5  6  1  0
  6  7  1  0
  7  8  2  0
  8  9  1  0
  9 10  1  0
 10 11  1  0
 11 12  1  0
 12 13  1  0
 13 14  1  0
  8 15  1  0
 15 16  1  0
 16  4  1  0
 16  6  1  0
 14 10  1  0
M  END
>  <Title>  (635) 
idAAWMgen13

$$$$

     RDKit          2D

 40 39  0  0  0  0  0  0  0  0999 V2000
    0.0000    0.0000    0.0000 C   0  0  0  0  0  0  0  0  0  0  0  0
   -0.0000   -1.5000    0.0000 C   0  0  0  0  0  0  0  0  0  0  0  0
   -0.0000   -3.0000    0.0000 C   0  0  0  0  0  0  0  0  0  0  0  0
   -0.0000   -4.5000    0.0000 C   0  0  0  0  0  0  0  0  0  0  0  0
   -0.0000   -6.0000    0.0000 C   0  0  0  0  0  0  0  0  0  0  0  0
   -0.0000   -7.5000    0.0000 C   0  0  0  0  0  0  0  0  0  0  0  0
   -0.0000   -9.0000    0.0000 C   0  0  0  0  0  0  0  0  0  0  0  0
   -0.0000  -10.5000    0.0000 C   0  0  0  0  0  0  0  0  0  0  0  0
   -0.0000  -12.0000    0.0000 C   0  0  0  0  0  0  0  0  0  0  0  0
   -0.0000  -13.5000    0.0000 C   0  0  0  0  0  0  0  0  0  0  0  0
   -0.0000  -15.0000    0.0000 C   0  0  0  0  0  0  0  0  0  0  0  0
   -0.0000  -16.5000    0.0000 C   0  0  0  0  0  0  0  0  0  0  0  0
   -0.0000  -18.0000    0.0000 C   0  0  0  0  0  0  0  0  0  0  0  0
   -0.0000  -19.5000    0.0000 C   0  0  0  0  0  0  0  0  0  0  0  0
   -0.0000  -21.0000    0.0000 C   0  0  0  0  0  0  0  0  0  0  0  0
   -0.0000  -22.5000    0.0000 C   0  0  0  0  0  0  0  0  0  0  0  0
   -0.0000  -24.0000    0.0000 C   0  0  0  0  0  0  0  0  0  0  0  0
   -0.0000  -25.5000    0.0000 C   0  0  0  0  0  0  0  0  0  0  0  0
   -0.0000  -27.0000    0.0000 C   0  0  0  0  0  0  0  0  0  0  0  0
   -0.0000  -28.5000    0.0000 C   0  0  0  0  0  0  0  0  0  0  0  0
   -0.0000  -30.0000    0.0000 C   0  0  0  0  0  0  0  0  0  0  0  0
   -0.0000  -31.5000    0.0000 C   0  0  0  0  0  0  0  0  0  0  0  0
   -0.0000  -33.0000    0.0000 C   0  0  0  0  0  0  0  0  0  0  0  0
   -0.0000  -34.5000    0.0000 C   0  0  0  0  0  0  0  0  0  0  0  0
   -0.0000  -36.0000    0.0000 C   0  0  0  0  0  0  0  0  0  0  0  0
   -0.0000  -37.5000    0.0000 C   0  0  0  0  0  0  0  0  0  0  0  0
   -0.0000  -39.0000    0.0000 C   0  0  0  0  0  0  0  0  0  0  0  0
   -0.0000  -40.5000    0.0000 C   0  0  0  0  0  0  0  0  0  0  0  0
   -0.0000  -42.0000    0.0000 C   0  0  0  0  0  0  0  0  0  0  0  0
   -0.0000  -43.5000    0.0000 C   0  0  0  0  0  0  0  0  0  0  0  0
   -0.0000  -45.0000    0.0000 C   0  0  0  0  0  0  0  0  0  0  0  0
   -0.0000  -46.5000    0.0000 C   0  0  0  0  0  0  0  0  0  0  0  0
   -0.0000  -48.0000    0.0000 C   0  0  0  0  0  0  0  0  0  0  0  0
   -0.0000  -49.5000    0.0000 C   0  0  0  0  0  0  0  0  0  0  0  0
   -0.0000  -51.0000    0.0000 C   0  0  0  0  0  0  0  0  0  0  0  0
   -0.0000  -52.5000    0.0000 C   0  0  0  0  0  0  0  0  0  0  0  0
   -0.0000  -54.0000    0.0000 C   0  0  0  0  0  0  0  0  0  0  0  0
   -0.0000  -55.5000    0.0000 C   0  0  0  0  0  0  0  0  0  0  0  0
   -0.0000  -57.0000    0.0000 C   0  0  0  0  0  0  0  0  0  0  0  0
   -0.0000  -58.5000    0.0000 C   0  0  0  0  0  0  0  0  0  0  0  0
  1  2  3  0
  2  3  1  0
  3  4  3  0
  4  5  1  0
  5  6  3  0
  6  7  1  0
  7  8  3  0
  8  9  1  0
  9 10  3  0
 10 11  1  0
 11 12  3  0
 12 13  1  0
 13 14  3  0
 14 15  1  0
 15 16  3  0
 16 17  1  0
 17 18  3  0
 18 19  1  0
 19 20  3  0
 20 21  1  0
 21 22  3  0
 22 23  1  0
 23 24  3  0
 24 25  1  0
 25 26  3  0
 26 27  1  0
 27 28  3  0
 28 29  1  0
 29 30  3  0
 30 31  1  0
 31 32  3  0
 32 33  1  0
 33 34  3  0
 34 35  1  0
 35 36  3  0
 36 37  1  0
 37 38  3  0
 38 39  1  0
 39 40  3  0
M  END
>  <Title>  (636) 
idAAWNgen13

$$$$

     RDKit          2D

 36 40  0  0  0  0  0  0  0  0999 V2000
    5.5226    5.9068    0.0000 C   0  0  0  0  0  0  0  0  0  0  0  0
    5.7462    4.4235    0.0000 C   0  0  0  0  0  0  0  0  0  0  0  0
    7.1795    3.9814    0.0000 C   0  0  0  0  0  0  0  0  0  0  0  0
    7.7275    2.5851    0.0000 C   0  0  0  0  0  0  0  0  0  0  0  0
    6.9775    1.2861    0.0000 C   0  0  0  0  0  0  0  0  0  0  0  0
    5.4943    1.0625    0.0000 C   0  0  0  0  0  0  0  0  0  0  0  0
    5.0522   -0.3709    0.0000 N   0  0  0  0  0  0  0  0  0  0  0  0
    6.0724   -1.4704    0.0000 C   0  0  0  0  0  0  0  0  0  0  0  0
    7.5348   -1.1367    0.0000 O   0  0  0  0  0  0  0  0  0  0  0  0
    5.6303   -2.9038    0.0000 N   0  0  0  0  0  0  0  0  0  0  0  0
    6.6505   -4.0034    0.0000 C   0  0  0  0  0  0  0  0  0  0  0  0
    8.1398   -3.8243    0.0000 N   0  0  0  0  0  0  0  0  0  0  0  0
    8.7703   -5.1853    0.0000 N   0  0  0  0  0  0  0  0  0  0  0  0
    7.6708   -6.2056    0.0000 N   0  0  0  0  0  0  0  0  0  0  0  0
    6.3607   -5.4751    0.0000 N   0  0  0  0  0  0  0  0  0  0  0  0
    4.9996   -6.1056    0.0000 N   0  0  0  0  0  0  0  0  0  0  0  0
    3.6895   -5.3752    0.0000 C   0  0  0  0  0  0  0  0  0  0  0  0
    2.5899   -6.3954    0.0000 C   0  0  0  0  0  0  0  0  0  0  0  0
    3.2205   -7.7565    0.0000 N   0  0  0  0  0  0  0  0  0  0  0  0
    2.4900   -9.0666    0.0000 C   0  0  0  0  0  0  0  0  0  0  0  0
    3.2593  -10.3542    0.0000 O   0  0  0  0  0  0  0  0  0  0  0  0
    0.9901   -9.0890    0.0000 N   0  0  0  0  0  0  0  0  0  0  0  0
    0.2597  -10.3991    0.0000 C   0  0  0  0  0  0  0  0  0  0  0  0
    1.0290  -11.6868    0.0000 N   0  0  0  0  0  0  0  0  0  0  0  0
    0.2985  -12.9969    0.0000 N   0  0  0  0  0  0  0  0  0  0  0  0
   -1.2013  -13.0193    0.0000 N   0  0  0  0  0  0  0  0  0  0  0  0
   -1.9707  -11.7317    0.0000 N   0  0  0  0  0  0  0  0  0  0  0  0
   -1.2402  -10.4216    0.0000 N   0  0  0  0  0  0  0  0  0  0  0  0
    4.7097   -7.5774    0.0000 C   0  0  0  0  0  0  0  0  0  0  0  0
    5.7300   -8.6769    0.0000 O   0  0  0  0  0  0  0  0  0  0  0  0
    4.3947    2.0828    0.0000 C   0  0  0  0  0  0  0  0  0  0  0  0
    3.0433    1.4319    0.0000 C   0  0  0  0  0  0  0  0  0  0  0  0
    1.8039    2.2769    0.0000 C   0  0  0  0  0  0  0  0  0  0  0  0
    1.9160    3.7727    0.0000 C   0  0  0  0  0  0  0  0  0  0  0  0
    3.2674    4.4235    0.0000 C   0  0  0  0  0  0  0  0  0  0  0  0
    4.5068    3.5786    0.0000 C   0  0  0  0  0  0  0  0  0  0  0  0
  1  2  1  0
  2  3  1  0
  3  4  2  0
  4  5  1  0
  5  6  1  0
  6  7  2  3
  7  8  1  0
  8  9  2  0
  8 10  1  0
 10 11  1  0
 11 12  2  0
 12 13  1  0
 13 14  2  0
 14 15  1  0
 15 16  1  0
 16 17  1  0
 17 18  1  0
 18 19  1  0
 19 20  1  0
 20 21  2  0
 20 22  1  0
 22 23  1  0
 23 24  2  0
 24 25  1  0
 25 26  2  0
 26 27  1  0
 27 28  2  0
 19 29  1  0
 29 30  2  0
  6 31  1  0
 31 32  2  0
 32 33  1  0
 33 34  2  0
 34 35  1  0
 35 36  2  0
 36  2  1  0
 15 11  1  0
 29 16  1  0
 36 31  1  0
 28 23  1  0
M  END
>  <Title>  (637) 
idAAWOgen13

$$$$

     RDKit          2D

 13 14  0  0  0  0  0  0  0  0999 V2000
   -6.2940    7.2357    0.0000 C   0  0  0  0  0  0  0  0  0  0  0  0
   -5.1793    6.2320    0.0000 C   0  0  0  0  0  0  0  0  0  0  0  0
   -4.0646    5.2283    0.0000 C   0  0  0  0  0  0  0  0  0  0  0  0
   -2.9499    4.2246    0.0000 C   0  0  0  0  0  0  0  0  0  0  0  0
   -1.8351    3.2209    0.0000 C   0  0  0  0  0  0  0  0  0  0  0  0
   -0.4086    3.6844    0.0000 C   0  0  0  0  0  0  0  0  0  0  0  0
    0.7062    2.6807    0.0000 N   0  0  0  0  0  0  0  0  0  0  0  0
    0.3943    1.2135    0.0000 C   0  0  0  0  0  0  0  0  0  0  0  0
    1.2760    0.0000    0.0000 N   0  0  0  0  0  0  0  0  0  0  0  0
    0.3943   -1.2135    0.0000 N   0  0  0  0  0  0  0  0  0  0  0  0
   -1.0323   -0.7500    0.0000 N   0  0  0  0  0  0  0  0  0  0  0  0
   -1.0323    0.7500    0.0000 N   0  0  0  0  0  0  0  0  0  0  0  0
   -2.1470    1.7537    0.0000 N   0  0  0  0  0  0  0  0  0  0  0  0
  1  2  3  0
  2  3  1  0
  3  4  3  0
  4  5  1  0
  5  6  2  0
  6  7  1  0
  7  8  1  0
  8  9  2  0
  9 10  1  0
 10 11  2  0
 11 12  1  0
 12 13  1  0
 13  5  1  0
 12  8  1  0
M  END
>  <Title>  (638) 
idAAWPgen13

$$$$

     RDKit          2D

 22 25  0  0  0  0  0  0  0  0999 V2000
    6.0000   -2.5981    0.0000 C   0  0  0  0  0  0  0  0  0  0  0  0
    5.2500   -3.8971    0.0000 C   0  0  0  0  0  0  0  0  0  0  0  0
    6.0000   -5.1962    0.0000 O   0  0  0  0  0  0  0  0  0  0  0  0
    3.7500   -3.8971    0.0000 N   0  0  0  0  0  0  0  0  0  0  0  0
    3.0000   -2.5981    0.0000 C   0  0  0  0  0  0  0  0  0  0  0  0
    1.5000   -2.5981    0.0000 C   0  0  0  0  0  0  0  0  0  0  0  0
    0.7500   -1.2990    0.0000 C   0  0  0  0  0  0  0  0  0  0  0  0
    1.5000    0.0000    0.0000 C   0  0  0  0  0  0  0  0  0  0  0  0
    0.7500    1.2990    0.0000 C   0  0  0  0  0  0  0  0  0  0  0  0
   -0.7500    1.2990    0.0000 C   0  0  0  0  0  0  0  0  0  0  0  0
   -1.5000    0.0000    0.0000 C   0  0  0  0  0  0  0  0  0  0  0  0
   -0.7500   -1.2990    0.0000 C   0  0  0  0  0  0  0  0  0  0  0  0
   -1.5000   -2.5981    0.0000 N   0  0  0  0  0  0  0  0  0  0  0  0
   -0.7500   -3.8971    0.0000 C   0  0  0  0  0  0  0  0  0  0  0  0
   -1.5000   -5.1962    0.0000 O   0  0  0  0  0  0  0  0  0  0  0  0
    0.7500   -3.8971    0.0000 C   0  0  0  0  0  0  0  0  0  0  0  0
    1.5000   -5.1962    0.0000 C   0  0  0  0  0  0  0  0  0  0  0  0
    0.7500   -6.4952    0.0000 C   0  0  0  0  0  0  0  0  0  0  0  0
    1.5000   -7.7942    0.0000 C   0  0  0  0  0  0  0  0  0  0  0  0
    3.0000   -7.7942    0.0000 C   0  0  0  0  0  0  0  0  0  0  0  0
    3.7500   -6.4952    0.0000 C   0  0  0  0  0  0  0  0  0  0  0  0
    3.0000   -5.1962    0.0000 C   0  0  0  0  0  0  0  0  0  0  0  0
  1  2  1  0
  2  3  2  0
  2  4  1  0
  4  5  1  0
  5  6  1  0
  6  7  1  0
  7  8  2  0
  8  9  1  0
  9 10  2  0
 10 11  1  0
 11 12  2  0
 12 13  1  0
 13 14  1  0
 14 15  2  0
 14 16  1  0
 16 17  1  0
 17 18  2  0
 18 19  1  0
 19 20  2  0
 20 21  1  0
 21 22  2  0
 22  4  1  0
 16  6  1  0
 22 17  1  0
 12  7  1  0
M  END
>  <Title>  (639) 
idAAWQgen13

$$$$

     RDKit          2D

 43 48  0  0  0  0  0  0  0  0999 V2000
   -3.1771   -5.9156    0.0000 C   0  0  0  0  0  0  0  0  0  0  0  0
   -1.9635   -5.0339    0.0000 C   0  0  0  0  0  0  0  0  0  0  0  0
   -0.7500   -5.9156    0.0000 C   0  0  0  0  0  0  0  0  0  0  0  0
    0.7500   -5.9156    0.0000 C   0  0  0  0  0  0  0  0  0  0  0  0
    1.9635   -5.0339    0.0000 C   0  0  0  0  0  0  0  0  0  0  0  0
    3.1771   -5.9156    0.0000 C   0  0  0  0  0  0  0  0  0  0  0  0
    4.5474   -5.3055    0.0000 O   0  0  0  0  0  0  0  0  0  0  0  0
    3.0203   -7.4073    0.0000 N   0  0  0  0  0  0  0  0  0  0  0  0
    4.2338   -8.2890    0.0000 C   0  0  0  0  0  0  0  0  0  0  0  0
    5.6604   -7.8255    0.0000 N   0  0  0  0  0  0  0  0  0  0  0  0
    6.5420   -9.0390    0.0000 N   0  0  0  0  0  0  0  0  0  0  0  0
    5.6604  -10.2525    0.0000 N   0  0  0  0  0  0  0  0  0  0  0  0
    4.2338   -9.7890    0.0000 N   0  0  0  0  0  0  0  0  0  0  0  0
    3.0203  -10.6707    0.0000 C   0  0  0  0  0  0  0  0  0  0  0  0
    3.0203  -12.1707    0.0000 C   0  0  0  0  0  0  0  0  0  0  0  0
    1.5937  -12.6342    0.0000 C   0  0  0  0  0  0  0  0  0  0  0  0
    0.7120  -11.4207    0.0000 C   0  0  0  0  0  0  0  0  0  0  0  0
   -0.7880  -11.4207    0.0000 C   0  0  0  0  0  0  0  0  0  0  0  0
   -1.5380  -12.7197    0.0000 O   0  0  0  0  0  0  0  0  0  0  0  0
   -1.5380  -10.1217    0.0000 N   0  0  0  0  0  0  0  0  0  0  0  0
   -3.0380  -10.1217    0.0000 C   0  0  0  0  0  0  0  0  0  0  0  0
   -3.7880   -8.8226    0.0000 N   0  0  0  0  0  0  0  0  0  0  0  0
   -5.2880   -8.8226    0.0000 N   0  0  0  0  0  0  0  0  0  0  0  0
   -6.0380  -10.1217    0.0000 N   0  0  0  0  0  0  0  0  0  0  0  0
   -5.2880  -11.4207    0.0000 N   0  0  0  0  0  0  0  0  0  0  0  0
   -3.7880  -11.4207    0.0000 N   0  0  0  0  0  0  0  0  0  0  0  0
    1.5937  -10.2072    0.0000 C   0  0  0  0  0  0  0  0  0  0  0  0
    1.1301   -8.7806    0.0000 O   0  0  0  0  0  0  0  0  0  0  0  0
    2.4271   -3.6073    0.0000 C   0  0  0  0  0  0  0  0  0  0  0  0
    3.9271   -3.6073    0.0000 O   0  0  0  0  0  0  0  0  0  0  0  0
    1.9635   -2.1807    0.0000 O   0  0  0  0  0  0  0  0  0  0  0  0
    0.7500   -1.2990    0.0000 C   0  0  0  0  0  0  0  0  0  0  0  0
    1.5000    0.0000    0.0000 C   0  0  0  0  0  0  0  0  0  0  0  0
    0.7500    1.2990    0.0000 C   0  0  0  0  0  0  0  0  0  0  0  0
   -0.7500    1.2990    0.0000 C   0  0  0  0  0  0  0  0  0  0  0  0
   -1.5000    0.0000    0.0000 C   0  0  0  0  0  0  0  0  0  0  0  0
   -0.7500   -1.2990    0.0000 C   0  0  0  0  0  0  0  0  0  0  0  0
   -1.9635   -2.1807    0.0000 C   0  0  0  0  0  0  0  0  0  0  0  0
   -2.9672   -1.0660    0.0000 C   0  0  0  0  0  0  0  0  0  0  0  0
   -4.4344   -1.3779    0.0000 C   0  0  0  0  0  0  0  0  0  0  0  0
   -4.8980   -2.8045    0.0000 C   0  0  0  0  0  0  0  0  0  0  0  0
   -3.8943   -3.9192    0.0000 C   0  0  0  0  0  0  0  0  0  0  0  0
   -2.4271   -3.6073    0.0000 C   0  0  0  0  0  0  0  0  0  0  0  0
  1  2  1  0
  2  3  1  0
  3  4  2  0
  4  5  1  0
  5  6  1  0
  6  7  2  0
  6  8  1  0
  8  9  1  0
  9 10  2  0
 10 11  1  0
 11 12  2  0
 12 13  1  0
 13 14  1  0
 14 15  2  0
 15 16  1  0
 16 17  2  0
 17 18  1  0
 18 19  2  0
 18 20  1  0
 20 21  1  0
 21 22  2  0
 22 23  1  0
 23 24  2  0
 24 25  1  0
 25 26  2  0
 17 27  1  0
 27 28  2  0
  5 29  1  0
 29 30  2  0
 29 31  1  0
 31 32  1  0
 32 33  2  0
 33 34  1  0
 34 35  2  0
 35 36  1  0
 36 37  2  0
 37 38  1  0
 38 39  2  0
 39 40  1  0
 40 41  2  0
 41 42  1  0
 42 43  2  0
 43  2  1  0
 13  9  1  0
 27 14  1  0
 37 32  1  0
 43 38  1  0
 26 21  1  0
M  END
>  <Title>  (640) 
idAAWRgen13

$$$$

     RDKit          2D

 41 46  0  0  0  0  0  0  0  0999 V2000
   -1.3240   -6.3062    0.0000 C   0  0  0  0  0  0  0  0  0  0  0  0
   -0.7500   -4.9204    0.0000 C   0  0  0  0  0  0  0  0  0  0  0  0
    0.7500   -4.9204    0.0000 C   0  0  0  0  0  0  0  0  0  0  0  0
    1.8107   -3.8597    0.0000 C   0  0  0  0  0  0  0  0  0  0  0  0
    1.8107   -2.3597    0.0000 C   0  0  0  0  0  0  0  0  0  0  0  0
    3.1965   -1.7857    0.0000 O   0  0  0  0  0  0  0  0  0  0  0  0
    4.3865   -2.6988    0.0000 C   0  0  0  0  0  0  0  0  0  0  0  0
    4.1907   -4.1860    0.0000 O   0  0  0  0  0  0  0  0  0  0  0  0
    5.7723   -2.1248    0.0000 N   0  0  0  0  0  0  0  0  0  0  0  0
    6.9624   -3.0379    0.0000 C   0  0  0  0  0  0  0  0  0  0  0  0
    6.9231   -4.5374    0.0000 N   0  0  0  0  0  0  0  0  0  0  0  0
    8.3371   -5.0381    0.0000 N   0  0  0  0  0  0  0  0  0  0  0  0
    9.2502   -3.8481    0.0000 N   0  0  0  0  0  0  0  0  0  0  0  0
    8.4006   -2.6119    0.0000 N   0  0  0  0  0  0  0  0  0  0  0  0
    8.9013   -1.1979    0.0000 N   0  0  0  0  0  0  0  0  0  0  0  0
    8.0517    0.0382    0.0000 C   0  0  0  0  0  0  0  0  0  0  0  0
    8.9648    1.2283    0.0000 C   0  0  0  0  0  0  0  0  0  0  0  0
   10.3788    0.7276    0.0000 N   0  0  0  0  0  0  0  0  0  0  0  0
   11.6150    1.5772    0.0000 C   0  0  0  0  0  0  0  0  0  0  0  0
   12.9689    0.9314    0.0000 O   0  0  0  0  0  0  0  0  0  0  0  0
   11.4973    3.0725    0.0000 N   0  0  0  0  0  0  0  0  0  0  0  0
   12.7335    3.9222    0.0000 C   0  0  0  0  0  0  0  0  0  0  0  0
   14.0874    3.2764    0.0000 N   0  0  0  0  0  0  0  0  0  0  0  0
   15.3236    4.1260    0.0000 N   0  0  0  0  0  0  0  0  0  0  0  0
   15.2059    5.6214    0.0000 N   0  0  0  0  0  0  0  0  0  0  0  0
   13.8520    6.2671    0.0000 N   0  0  0  0  0  0  0  0  0  0  0  0
   12.6158    5.4175    0.0000 N   0  0  0  0  0  0  0  0  0  0  0  0
   10.3395   -0.7719    0.0000 C   0  0  0  0  0  0  0  0  0  0  0  0
   11.5296   -1.6851    0.0000 O   0  0  0  0  0  0  0  0  0  0  0  0
    0.7500   -1.2990    0.0000 C   0  0  0  0  0  0  0  0  0  0  0  0
    1.5000    0.0000    0.0000 C   0  0  0  0  0  0  0  0  0  0  0  0
    0.7500    1.2990    0.0000 C   0  0  0  0  0  0  0  0  0  0  0  0
   -0.7500    1.2990    0.0000 C   0  0  0  0  0  0  0  0  0  0  0  0
   -1.5000    0.0000    0.0000 C   0  0  0  0  0  0  0  0  0  0  0  0
   -0.7500   -1.2990    0.0000 C   0  0  0  0  0  0  0  0  0  0  0  0
   -1.8107   -2.3597    0.0000 C   0  0  0  0  0  0  0  0  0  0  0  0
   -3.1097   -1.6097    0.0000 C   0  0  0  0  0  0  0  0  0  0  0  0
   -4.4087   -2.3597    0.0000 C   0  0  0  0  0  0  0  0  0  0  0  0
   -4.4087   -3.8597    0.0000 C   0  0  0  0  0  0  0  0  0  0  0  0
   -3.1097   -4.6097    0.0000 C   0  0  0  0  0  0  0  0  0  0  0  0
   -1.8107   -3.8597    0.0000 C   0  0  0  0  0  0  0  0  0  0  0  0
  1  2  1  0
  2  3  1  0
  3  4  2  0
  4  5  1  0
  5  6  1  0
  6  7  1  0
  7  8  2  0
  7  9  1  0
  9 10  1  0
 10 11  2  0
 11 12  1  0
 12 13  2  0
 13 14  1  0
 14 15  1  0
 15 16  1  0
 16 17  1  0
 17 18  1  0
 18 19  1  0
 19 20  2  0
 19 21  1  0
 21 22  1  0
 22 23  2  0
 23 24  1  0
 24 25  2  0
 25 26  1  0
 26 27  2  0
 18 28  1  0
 28 29  2  0
  5 30  1  0
 30 31  2  0
 31 32  1  0
 32 33  2  0
 33 34  1  0
 34 35  2  0
 35 36  1  0
 36 37  2  0
 37 38  1  0
 38 39  2  0
 39 40  1  0
 40 41  2  0
 41  2  1  0
 14 10  1  0
 28 15  1  0
 35 30  1  0
 41 36  1  0
 27 22  1  0
M  END
>  <Title>  (641) 
idAAWSgen13

$$$$

     RDKit          2D

 13 12  0  0  0  0  0  0  0  0999 V2000
    0.0000    0.0000    0.0000 C   0  0  0  0  0  0  0  0  0  0  0  0
    1.2990    0.7500    0.0000 C   0  0  0  0  0  0  0  0  0  0  0  0
    2.5981   -0.0000    0.0000 C   0  0  0  0  0  0  0  0  0  0  0  0
    3.8971    0.7500    0.0000 C   0  0  0  0  0  0  0  0  0  0  0  0
    5.1962   -0.0000    0.0000 C   0  0  0  0  0  0  0  0  0  0  0  0
    5.1962   -1.5000    0.0000 O   0  0  0  0  0  0  0  0  0  0  0  0
    6.4952    0.7500    0.0000 N   0  0  0  0  0  0  0  0  0  0  0  0
    7.7942   -0.0000    0.0000 C   0  0  0  0  0  0  0  0  0  0  0  0
    7.7942   -1.5000    0.0000 O   0  0  0  0  0  0  0  0  0  0  0  0
    9.0933    0.7500    0.0000 C   0  0  0  0  0  0  0  0  0  0  0  0
   10.3923   -0.0000    0.0000 C   0  0  0  0  0  0  0  0  0  0  0  0
   11.6913    0.7500    0.0000 C   0  0  0  0  0  0  0  0  0  0  0  0
   10.3923   -1.5000    0.0000 C   0  0  0  0  0  0  0  0  0  0  0  0
  1  2  2  0
  2  3  1  0
  3  4  1  0
  4  5  1  0
  5  6  2  0
  5  7  1  0
  7  8  1  0
  8  9  2  0
  8 10  1  0
 10 11  1  0
 11 12  1  0
 11 13  1  0
M  END
>  <Title>  (642) 
idAAWTgen13

$$$$

     RDKit          2D

105106  0  0  0  0  0  0  0  0999 V2000
    3.1564   -4.0085    0.0000 C   0  0  0  0  0  0  0  0  0  0  0  0
    3.9140   -4.2564    0.0000 C   0  0  0  0  0  0  0  0  0  0  0  0
    3.5012   -5.6985    0.0000 C   0  0  0  0  0  0  0  0  0  0  0  0
    3.1973   -7.1674    0.0000 C   0  0  0  0  0  0  0  0  0  0  0  0
    3.0041   -8.6549    0.0000 C   0  0  0  0  0  0  0  0  0  0  0  0
    2.9225  -10.1526    0.0000 C   0  0  0  0  0  0  0  0  0  0  0  0
    2.9531  -11.6523    0.0000 C   0  0  0  0  0  0  0  0  0  0  0  0
    3.0957  -13.1455    0.0000 C   0  0  0  0  0  0  0  0  0  0  0  0
    3.3494  -14.6239    0.0000 C   0  0  0  0  0  0  0  0  0  0  0  0
    3.7130  -16.0792    0.0000 C   0  0  0  0  0  0  0  0  0  0  0  0
    4.1843  -17.5032    0.0000 C   0  0  0  0  0  0  0  0  0  0  0  0
    4.7606  -18.8881    0.0000 C   0  0  0  0  0  0  0  0  0  0  0  0
    5.4389  -20.2260    0.0000 C   0  0  0  0  0  0  0  0  0  0  0  0
    6.2152  -21.5094    0.0000 C   0  0  0  0  0  0  0  0  0  0  0  0
    7.0853  -22.7313    0.0000 C   0  0  0  0  0  0  0  0  0  0  0  0
    8.0443  -23.8847    0.0000 C   0  0  0  0  0  0  0  0  0  0  0  0
    9.0868  -24.9633    0.0000 C   0  0  0  0  0  0  0  0  0  0  0  0
   10.2069  -25.9609    0.0000 C   0  0  0  0  0  0  0  0  0  0  0  0
   11.3985  -26.8720    0.0000 C   0  0  0  0  0  0  0  0  0  0  0  0
   12.6549  -27.6915    0.0000 C   0  0  0  0  0  0  0  0  0  0  0  0
   13.9689  -28.4149    0.0000 C   0  0  0  0  0  0  0  0  0  0  0  0
   15.3334  -29.0380    0.0000 C   0  0  0  0  0  0  0  0  0  0  0  0
   16.7406  -29.5574    0.0000 C   0  0  0  0  0  0  0  0  0  0  0  0
   18.1826  -29.9702    0.0000 C   0  0  0  0  0  0  0  0  0  0  0  0
   19.6515  -30.2741    0.0000 C   0  0  0  0  0  0  0  0  0  0  0  0
   21.1390  -30.4673    0.0000 C   0  0  0  0  0  0  0  0  0  0  0  0
   22.6368  -30.5489    0.0000 C   0  0  0  0  0  0  0  0  0  0  0  0
   24.1365  -30.5183    0.0000 C   0  0  0  0  0  0  0  0  0  0  0  0
   25.6297  -30.3757    0.0000 C   0  0  0  0  0  0  0  0  0  0  0  0
   27.1081  -30.1220    0.0000 C   0  0  0  0  0  0  0  0  0  0  0  0
   28.5634  -29.7584    0.0000 C   0  0  0  0  0  0  0  0  0  0  0  0
   29.9874  -29.2871    0.0000 C   0  0  0  0  0  0  0  0  0  0  0  0
   31.3723  -28.7107    0.0000 C   0  0  0  0  0  0  0  0  0  0  0  0
   32.7102  -28.0325    0.0000 C   0  0  0  0  0  0  0  0  0  0  0  0
   33.9936  -27.2561    0.0000 C   0  0  0  0  0  0  0  0  0  0  0  0
   35.2155  -26.3861    0.0000 C   0  0  0  0  0  0  0  0  0  0  0  0
   36.3689  -25.4271    0.0000 C   0  0  0  0  0  0  0  0  0  0  0  0
   37.4474  -24.3846    0.0000 C   0  0  0  0  0  0  0  0  0  0  0  0
   38.4451  -23.2645    0.0000 C   0  0  0  0  0  0  0  0  0  0  0  0
   39.3562  -22.0729    0.0000 C   0  0  0  0  0  0  0  0  0  0  0  0
   40.1757  -20.8165    0.0000 C   0  0  0  0  0  0  0  0  0  0  0  0
   40.8991  -19.5025    0.0000 C   0  0  0  0  0  0  0  0  0  0  0  0
   41.5222  -18.1380    0.0000 C   0  0  0  0  0  0  0  0  0  0  0  0
   42.0416  -16.7308    0.0000 C   0  0  0  0  0  0  0  0  0  0  0  0
   42.4544  -15.2888    0.0000 C   0  0  0  0  0  0  0  0  0  0  0  0
   42.7583  -13.8199    0.0000 C   0  0  0  0  0  0  0  0  0  0  0  0
   42.9515  -12.3324    0.0000 C   0  0  0  0  0  0  0  0  0  0  0  0
   43.0331  -10.8346    0.0000 C   0  0  0  0  0  0  0  0  0  0  0  0
   43.0025   -9.3349    0.0000 C   0  0  0  0  0  0  0  0  0  0  0  0
   42.8599   -7.8417    0.0000 C   0  0  0  0  0  0  0  0  0  0  0  0
   42.6061   -6.3633    0.0000 C   0  0  0  0  0  0  0  0  0  0  0  0
   42.2426   -4.9080    0.0000 C   0  0  0  0  0  0  0  0  0  0  0  0
   41.7713   -3.4840    0.0000 C   0  0  0  0  0  0  0  0  0  0  0  0
   41.1949   -2.0991    0.0000 C   0  0  0  0  0  0  0  0  0  0  0  0
   40.5167   -0.7612    0.0000 C   0  0  0  0  0  0  0  0  0  0  0  0
   39.7403    0.5222    0.0000 C   0  0  0  0  0  0  0  0  0  0  0  0
   38.8703    1.7441    0.0000 C   0  0  0  0  0  0  0  0  0  0  0  0
   37.9113    2.8975    0.0000 C   0  0  0  0  0  0  0  0  0  0  0  0
   36.8688    3.9760    0.0000 C   0  0  0  0  0  0  0  0  0  0  0  0
   35.7487    4.9737    0.0000 C   0  0  0  0  0  0  0  0  0  0  0  0
   34.5571    5.8848    0.0000 C   0  0  0  0  0  0  0  0  0  0  0  0
   33.3007    6.7043    0.0000 C   0  0  0  0  0  0  0  0  0  0  0  0
   31.9867    7.4277    0.0000 C   0  0  0  0  0  0  0  0  0  0  0  0
   30.6222    8.0508    0.0000 C   0  0  0  0  0  0  0  0  0  0  0  0
   29.2150    8.5702    0.0000 C   0  0  0  0  0  0  0  0  0  0  0  0
   27.7729    8.9830    0.0000 C   0  0  0  0  0  0  0  0  0  0  0  0
   26.3040    9.2869    0.0000 C   0  0  0  0  0  0  0  0  0  0  0  0
   24.8165    9.4801    0.0000 C   0  0  0  0  0  0  0  0  0  0  0  0
   23.3188    9.5617    0.0000 C   0  0  0  0  0  0  0  0  0  0  0  0
   21.8191    9.5311    0.0000 C   0  0  0  0  0  0  0  0  0  0  0  0
   20.3259    9.3885    0.0000 C   0  0  0  0  0  0  0  0  0  0  0  0
   18.8475    9.1347    0.0000 C   0  0  0  0  0  0  0  0  0  0  0  0
   17.3922    8.7712    0.0000 C   0  0  0  0  0  0  0  0  0  0  0  0
   15.9682    8.2999    0.0000 C   0  0  0  0  0  0  0  0  0  0  0  0
   14.5833    7.7235    0.0000 C   0  0  0  0  0  0  0  0  0  0  0  0
   13.2454    7.0453    0.0000 C   0  0  0  0  0  0  0  0  0  0  0  0
   11.9620    6.2689    0.0000 C   0  0  0  0  0  0  0  0  0  0  0  0
   10.7401    5.3989    0.0000 C   0  0  0  0  0  0  0  0  0  0  0  0
    9.5867    4.4399    0.0000 C   0  0  0  0  0  0  0  0  0  0  0  0
    8.5081    3.3974    0.0000 C   0  0  0  0  0  0  0  0  0  0  0  0
    7.5105    2.2773    0.0000 C   0  0  0  0  0  0  0  0  0  0  0  0
    6.5994    1.0857    0.0000 C   0  0  0  0  0  0  0  0  0  0  0  0
    5.7799   -0.1707    0.0000 C   0  0  0  0  0  0  0  0  0  0  0  0
    5.0565   -1.4847    0.0000 C   0  0  0  0  0  0  0  0  0  0  0  0
    4.5700   -0.0000    0.0000 C   0  0  0  0  0  0  0  0  0  0  0  0
    4.3849    1.2875    0.0000 C   0  0  0  0  0  0  0  0  0  0  0  0
    3.8445    2.4707    0.0000 C   0  0  0  0  0  0  0  0  0  0  0  0
    2.9927    3.4538    0.0000 C   0  0  0  0  0  0  0  0  0  0  0  0
    1.8984    4.1570    0.0000 C   0  0  0  0  0  0  0  0  0  0  0  0
    0.6504    4.5235    0.0000 C   0  0  0  0  0  0  0  0  0  0  0  0
   -0.6504    4.5235    0.0000 C   0  0  0  0  0  0  0  0  0  0  0  0
   -1.8984    4.1570    0.0000 C   0  0  0  0  0  0  0  0  0  0  0  0
   -2.9927    3.4538    0.0000 C   0  0  0  0  0  0  0  0  0  0  0  0
   -3.8445    2.4707    0.0000 C   0  0  0  0  0  0  0  0  0  0  0  0
   -4.3849    1.2875    0.0000 C   0  0  0  0  0  0  0  0  0  0  0  0
   -4.5700    0.0000    0.0000 C   0  0  0  0  0  0  0  0  0  0  0  0
   -4.3849   -1.2875    0.0000 C   0  0  0  0  0  0  0  0  0  0  0  0
   -3.8445   -2.4707    0.0000 C   0  0  0  0  0  0  0  0  0  0  0  0
   -2.9927   -3.4538    0.0000 C   0  0  0  0  0  0  0  0  0  0  0  0
   -1.8984   -4.1570    0.0000 C   0  0  0  0  0  0  0  0  0  0  0  0
   -0.6504   -4.5235    0.0000 C   0  0  0  0  0  0  0  0  0  0  0  0
    0.6504   -4.5235    0.0000 C   0  0  0  0  0  0  0  0  0  0  0  0
    1.8984   -4.1570    0.0000 C   0  0  0  0  0  0  0  0  0  0  0  0
    2.9927   -3.4538    0.0000 C   0  0  0  0  0  0  0  0  0  0  0  0
    4.4334   -2.8492    0.0000 C   0  0  0  0  0  0  0  0  0  0  0  0
  1  2  1  0
  2  3  1  0
  3  4  1  0
  4  5  1  0
  5  6  1  0
  6  7  1  0
  7  8  1  0
  8  9  1  0
  9 10  1  0
 10 11  1  0
 11 12  1  0
 12 13  1  0
 13 14  1  0
 14 15  1  0
 15 16  1  0
 16 17  1  0
 17 18  1  0
 18 19  1  0
 19 20  1  0
 20 21  1  0
 21 22  1  0
 22 23  1  0
 23 24  1  0
 24 25  1  0
 25 26  1  0
 26 27  1  0
 27 28  1  0
 28 29  1  0
 29 30  1  0
 30 31  1  0
 31 32  1  0
 32 33  1  0
 33 34  1  0
 34 35  1  0
 35 36  1  0
 36 37  1  0
 37 38  1  0
 38 39  1  0
 39 40  1  0
 40 41  1  0
 41 42  1  0
 42 43  1  0
 43 44  1  0
 44 45  1  0
 45 46  1  0
 46 47  1  0
 47 48  1  0
 48 49  1  0
 49 50  1  0
 50 51  1  0
 51 52  1  0
 52 53  1  0
 53 54  1  0
 54 55  1  0
 55 56  1  0
 56 57  1  0
 57 58  1  0
 58 59  1  0
 59 60  1  0
 60 61  1  0
 61 62  1  0
 62 63  1  0
 63 64  1  0
 64 65  1  0
 65 66  1  0
 66 67  1  0
 67 68  1  0
 68 69  1  0
 69 70  1  0
 70 71  1  0
 71 72  1  0
 72 73  1  0
 73 74  1  0
 74 75  1  0
 75 76  1  0
 76 77  1  0
 77 78  1  0
 78 79  1  0
 79 80  1  0
 80 81  1  0
 81 82  1  0
 82 83  1  0
 83 84  1  0
 84 85  1  0
 85 86  1  0
 86 87  1  0
 87 88  1  0
 88 89  2  0
 89 90  1  0
 90 91  2  0
 91 92  1  0
 92 93  2  0
 93 94  1  0
 94 95  2  0
 95 96  1  0
 96 97  2  0
 97 98  1  0
 98 99  2  0
 99100  1  0
100101  2  0
101102  1  0
102103  2  0
103104  1  0
104105  2  0
105  2  1  0
105 84  1  0
M  END
>  <Title>  (643) 
idAAWUgen13

$$$$

     RDKit          2D

 13 12  0  0  0  0  0  0  0  0999 V2000
    0.0000    0.0000    0.0000 C   0  0  0  0  0  0  0  0  0  0  0  0
   -0.0000   -1.5000    0.0000 C   0  0  0  0  0  0  0  0  0  0  0  0
   -0.0000   -3.0000    0.0000 C   0  0  0  0  0  0  0  0  0  0  0  0
    1.2990   -3.7500    0.0000 C   0  0  0  0  0  0  0  0  0  0  0  0
    1.2990   -5.2500    0.0000 C   0  0  0  0  0  0  0  0  0  0  0  0
    2.5981   -6.0000    0.0000 C   0  0  0  0  0  0  0  0  0  0  0  0
    3.8971   -5.2500    0.0000 O   0  0  0  0  0  0  0  0  0  0  0  0
    2.5981   -7.5000    0.0000 N   0  0  0  0  0  0  0  0  0  0  0  0
    3.8971   -8.2500    0.0000 C   0  0  0  0  0  0  0  0  0  0  0  0
    5.1962   -7.5000    0.0000 O   0  0  0  0  0  0  0  0  0  0  0  0
    3.8971   -9.7500    0.0000 C   0  0  0  0  0  0  0  0  0  0  0  0
    5.1962  -10.5000    0.0000 C   0  0  0  0  0  0  0  0  0  0  0  0
    5.1962  -12.0000    0.0000 C   0  0  0  0  0  0  0  0  0  0  0  0
  1  2  3  0
  2  3  1  0
  3  4  1  0
  4  5  1  0
  5  6  1  0
  6  7  2  0
  6  8  1  0
  8  9  1  0
  9 10  2  0
  9 11  1  0
 11 12  1  0
 12 13  1  0
M  END
>  <Title>  (644) 
idAAWVgen13

$$$$

     RDKit          2D

 21 23  0  0  0  0  0  0  0  0999 V2000
   -3.7500    3.8971    0.0000 C   0  0  0  0  0  0  0  0  0  0  0  0
   -3.0000    2.5981    0.0000 C   0  0  0  0  0  0  0  0  0  0  0  0
   -3.7500    1.2990    0.0000 C   0  0  0  0  0  0  0  0  0  0  0  0
   -3.0000    0.0000    0.0000 C   0  0  0  0  0  0  0  0  0  0  0  0
   -1.5000    0.0000    0.0000 C   0  0  0  0  0  0  0  0  0  0  0  0
   -0.7500    1.2990    0.0000 C   0  0  0  0  0  0  0  0  0  0  0  0
   -1.5000    2.5981    0.0000 C   0  0  0  0  0  0  0  0  0  0  0  0
   -0.7500    3.8971    0.0000 C   0  0  0  0  0  0  0  0  0  0  0  0
   -1.5000    5.1962    0.0000 O   0  0  0  0  0  0  0  0  0  0  0  0
    0.7500    3.8971    0.0000 N   0  0  0  0  0  0  0  0  0  0  0  0
    1.5000    5.1962    0.0000 C   0  0  0  0  0  0  0  0  0  0  0  0
    0.8899    6.5665    0.0000 N   0  0  0  0  0  0  0  0  0  0  0  0
    2.0046    7.5702    0.0000 N   0  0  0  0  0  0  0  0  0  0  0  0
    3.3037    6.8202    0.0000 N   0  0  0  0  0  0  0  0  0  0  0  0
    2.9918    5.3529    0.0000 N   0  0  0  0  0  0  0  0  0  0  0  0
    3.9955    4.2382    0.0000 C   0  0  0  0  0  0  0  0  0  0  0  0
    5.4627    4.5501    0.0000 C   0  0  0  0  0  0  0  0  0  0  0  0
    6.4664    3.4354    0.0000 C   0  0  0  0  0  0  0  0  0  0  0  0
    6.0029    2.0088    0.0000 C   0  0  0  0  0  0  0  0  0  0  0  0
    4.5356    1.6969    0.0000 C   0  0  0  0  0  0  0  0  0  0  0  0
    3.5320    2.8116    0.0000 C   0  0  0  0  0  0  0  0  0  0  0  0
  1  2  1  0
  2  3  1  0
  3  4  1  0
  4  5  1  0
  5  6  2  0
  6  7  1  0
  7  8  1  0
  8  9  2  0
  8 10  1  0
 10 11  1  0
 11 12  2  0
 12 13  1  0
 13 14  2  0
 14 15  1  0
 15 16  1  0
 16 17  2  0
 17 18  1  0
 18 19  2  0
 19 20  1  0
 20 21  2  0
  7  2  1  0
 15 11  1  0
 21 16  1  0
M  END
>  <Title>  (645) 
idAAWWgen13

$$$$

     RDKit          2D

 90 91  0  0  0  0  0  0  0  0999 V2000
   12.5221    4.5660    0.0000 C   0  0  0  0  0  0  0  0  0  0  0  0
   13.3143    4.4770    0.0000 C   0  0  0  0  0  0  0  0  0  0  0  0
   13.6185    5.9458    0.0000 C   0  0  0  0  0  0  0  0  0  0  0  0
   14.1875    7.3337    0.0000 C   0  0  0  0  0  0  0  0  0  0  0  0
   15.0018    8.5934    0.0000 C   0  0  0  0  0  0  0  0  0  0  0  0
   16.0337    9.6821    0.0000 C   0  0  0  0  0  0  0  0  0  0  0  0
   17.2481   10.5626    0.0000 C   0  0  0  0  0  0  0  0  0  0  0  0
   18.6036   11.2049    0.0000 C   0  0  0  0  0  0  0  0  0  0  0  0
   20.0541   11.5873    0.0000 C   0  0  0  0  0  0  0  0  0  0  0  0
   21.5501   11.6966    0.0000 C   0  0  0  0  0  0  0  0  0  0  0  0
   23.0407   11.5292    0.0000 C   0  0  0  0  0  0  0  0  0  0  0  0
   24.4752   11.0907    0.0000 C   0  0  0  0  0  0  0  0  0  0  0  0
   25.8047   10.3961    0.0000 C   0  0  0  0  0  0  0  0  0  0  0  0
   26.9839    9.4690    0.0000 C   0  0  0  0  0  0  0  0  0  0  0  0
   27.9727    8.3411    0.0000 C   0  0  0  0  0  0  0  0  0  0  0  0
   28.7374    7.0506    0.0000 C   0  0  0  0  0  0  0  0  0  0  0  0
   29.2519    5.6417    0.0000 C   0  0  0  0  0  0  0  0  0  0  0  0
   29.4988    4.1621    0.0000 C   0  0  0  0  0  0  0  0  0  0  0  0
   29.4696    2.6624    0.0000 C   0  0  0  0  0  0  0  0  0  0  0  0
   29.1654    1.1936    0.0000 C   0  0  0  0  0  0  0  0  0  0  0  0
   28.5964   -0.1943    0.0000 C   0  0  0  0  0  0  0  0  0  0  0  0
   27.7821   -1.4541    0.0000 C   0  0  0  0  0  0  0  0  0  0  0  0
   26.7502   -2.5427    0.0000 C   0  0  0  0  0  0  0  0  0  0  0  0
   25.5358   -3.4232    0.0000 C   0  0  0  0  0  0  0  0  0  0  0  0
   24.1803   -4.0656    0.0000 C   0  0  0  0  0  0  0  0  0  0  0  0
   22.7299   -4.4479    0.0000 C   0  0  0  0  0  0  0  0  0  0  0  0
   21.2339   -4.5572    0.0000 C   0  0  0  0  0  0  0  0  0  0  0  0
   19.7432   -4.3898    0.0000 C   0  0  0  0  0  0  0  0  0  0  0  0
   18.3087   -3.9513    0.0000 C   0  0  0  0  0  0  0  0  0  0  0  0
   16.9793   -3.2567    0.0000 C   0  0  0  0  0  0  0  0  0  0  0  0
   15.8000   -2.3297    0.0000 C   0  0  0  0  0  0  0  0  0  0  0  0
   14.8113   -1.2017    0.0000 C   0  0  0  0  0  0  0  0  0  0  0  0
   14.0466    0.0887    0.0000 C   0  0  0  0  0  0  0  0  0  0  0  0
   13.5320    1.4977    0.0000 C   0  0  0  0  0  0  0  0  0  0  0  0
   12.9146   -0.0000    0.0000 C   0  0  0  0  0  0  0  0  0  0  0  0
   12.8363   -1.4207    0.0000 C   0  0  0  0  0  0  0  0  0  0  0  0
   12.6021   -2.8242    0.0000 C   0  0  0  0  0  0  0  0  0  0  0  0
   12.2149   -4.1934    0.0000 C   0  0  0  0  0  0  0  0  0  0  0  0
   11.6794   -5.5117    0.0000 C   0  0  0  0  0  0  0  0  0  0  0  0
   11.0022   -6.7630    0.0000 C   0  0  0  0  0  0  0  0  0  0  0  0
   10.1915   -7.9323    0.0000 C   0  0  0  0  0  0  0  0  0  0  0  0
    9.2570   -9.0053    0.0000 C   0  0  0  0  0  0  0  0  0  0  0  0
    8.2101   -9.9690    0.0000 C   0  0  0  0  0  0  0  0  0  0  0  0
    7.0636  -10.8117    0.0000 C   0  0  0  0  0  0  0  0  0  0  0  0
    5.8314  -11.5231    0.0000 C   0  0  0  0  0  0  0  0  0  0  0  0
    4.5284  -12.0947    0.0000 C   0  0  0  0  0  0  0  0  0  0  0  0
    3.1704  -12.5195    0.0000 C   0  0  0  0  0  0  0  0  0  0  0  0
    1.7739  -12.7922    0.0000 C   0  0  0  0  0  0  0  0  0  0  0  0
    0.3559  -12.9097    0.0000 C   0  0  0  0  0  0  0  0  0  0  0  0
   -1.0665  -12.8705    0.0000 C   0  0  0  0  0  0  0  0  0  0  0  0
   -2.4759  -12.6751    0.0000 C   0  0  0  0  0  0  0  0  0  0  0  0
   -3.8552  -12.3258    0.0000 C   0  0  0  0  0  0  0  0  0  0  0  0
   -5.1878  -11.8269    0.0000 C   0  0  0  0  0  0  0  0  0  0  0  0
   -6.4573  -11.1844    0.0000 C   0  0  0  0  0  0  0  0  0  0  0  0
   -7.6485  -10.4062    0.0000 C   0  0  0  0  0  0  0  0  0  0  0  0
   -8.7468   -9.5016    0.0000 C   0  0  0  0  0  0  0  0  0  0  0  0
   -9.7390   -8.4817    0.0000 C   0  0  0  0  0  0  0  0  0  0  0  0
  -10.6130   -7.3589    0.0000 C   0  0  0  0  0  0  0  0  0  0  0  0
  -11.3581   -6.1467    0.0000 C   0  0  0  0  0  0  0  0  0  0  0  0
  -11.9653   -4.8599    0.0000 C   0  0  0  0  0  0  0  0  0  0  0  0
  -12.4273   -3.5141    0.0000 C   0  0  0  0  0  0  0  0  0  0  0  0
  -12.7385   -2.1257    0.0000 C   0  0  0  0  0  0  0  0  0  0  0  0
  -12.8950   -0.7114    0.0000 C   0  0  0  0  0  0  0  0  0  0  0  0
  -12.8950    0.7114    0.0000 C   0  0  0  0  0  0  0  0  0  0  0  0
  -12.7385    2.1257    0.0000 C   0  0  0  0  0  0  0  0  0  0  0  0
  -12.4273    3.5141    0.0000 C   0  0  0  0  0  0  0  0  0  0  0  0
  -11.9653    4.8599    0.0000 C   0  0  0  0  0  0  0  0  0  0  0  0
  -11.3581    6.1467    0.0000 C   0  0  0  0  0  0  0  0  0  0  0  0
  -10.6130    7.3589    0.0000 C   0  0  0  0  0  0  0  0  0  0  0  0
   -9.7390    8.4817    0.0000 C   0  0  0  0  0  0  0  0  0  0  0  0
   -8.7468    9.5016    0.0000 C   0  0  0  0  0  0  0  0  0  0  0  0
   -7.6485   10.4062    0.0000 C   0  0  0  0  0  0  0  0  0  0  0  0
   -6.4573   11.1844    0.0000 C   0  0  0  0  0  0  0  0  0  0  0  0
   -5.1878   11.8269    0.0000 C   0  0  0  0  0  0  0  0  0  0  0  0
   -3.8552   12.3258    0.0000 C   0  0  0  0  0  0  0  0  0  0  0  0
   -2.4759   12.6751    0.0000 C   0  0  0  0  0  0  0  0  0  0  0  0
   -1.0665   12.8705    0.0000 C   0  0  0  0  0  0  0  0  0  0  0  0
    0.3559   12.9097    0.0000 C   0  0  0  0  0  0  0  0  0  0  0  0
    1.7739   12.7922    0.0000 C   0  0  0  0  0  0  0  0  0  0  0  0
    3.1704   12.5195    0.0000 C   0  0  0  0  0  0  0  0  0  0  0  0
    4.5284   12.0947    0.0000 C   0  0  0  0  0  0  0  0  0  0  0  0
    5.8314   11.5231    0.0000 C   0  0  0  0  0  0  0  0  0  0  0  0
    7.0636   10.8117    0.0000 C   0  0  0  0  0  0  0  0  0  0  0  0
    8.2101    9.9690    0.0000 C   0  0  0  0  0  0  0  0  0  0  0  0
    9.2570    9.0053    0.0000 C   0  0  0  0  0  0  0  0  0  0  0  0
   10.1915    7.9323    0.0000 C   0  0  0  0  0  0  0  0  0  0  0  0
   11.0022    6.7630    0.0000 C   0  0  0  0  0  0  0  0  0  0  0  0
   11.6794    5.5117    0.0000 C   0  0  0  0  0  0  0  0  0  0  0  0
   12.2149    4.1934    0.0000 C   0  0  0  0  0  0  0  0  0  0  0  0
   13.2851    2.9773    0.0000 C   0  0  0  0  0  0  0  0  0  0  0  0
  1  2  1  0
  2  3  1  0
  3  4  1  0
  4  5  1  0
  5  6  1  0
  6  7  1  0
  7  8  1  0
  8  9  1  0
  9 10  1  0
 10 11  1  0
 11 12  1  0
 12 13  1  0
 13 14  1  0
 14 15  1  0
 15 16  1  0
 16 17  1  0
 17 18  1  0
 18 19  1  0
 19 20  1  0
 20 21  1  0
 21 22  1  0
 22 23  1  0
 23 24  1  0
 24 25  1  0
 25 26  1  0
 26 27  1  0
 27 28  1  0
 28 29  1  0
 29 30  1  0
 30 31  1  0
 31 32  1  0
 32 33  1  0
 33 34  1  0
 34 35  1  0
 35 36  1  0
 36 37  1  0
 37 38  2  0
 38 39  1  0
 39 40  2  0
 40 41  1  0
 41 42  2  0
 42 43  1  0
 43 44  2  0
 44 45  1  0
 45 46  2  0
 46 47  1  0
 47 48  2  0
 48 49  1  0
 49 50  2  0
 50 51  1  0
 51 52  2  0
 52 53  1  0
 53 54  2  0
 54 55  1  0
 55 56  2  0
 56 57  1  0
 57 58  2  0
 58 59  1  0
 59 60  2  0
 60 61  1  0
 61 62  2  0
 62 63  1  0
 63 64  2  0
 64 65  1  0
 65 66  2  0
 66 67  1  0
 67 68  2  0
 68 69  1  0
 69 70  2  0
 70 71  1  0
 71 72  2  0
 72 73  1  0
 73 74  2  0
 74 75  1  0
 75 76  2  0
 76 77  1  0
 77 78  2  0
 78 79  1  0
 79 80  2  0
 80 81  1  0
 81 82  2  0
 82 83  1  0
 83 84  2  0
 84 85  1  0
 85 86  2  0
 86 87  1  0
 87 88  2  0
 88 89  1  0
 89 90  2  0
 90  2  1  0
 90 34  1  0
M  END
>  <Title>  (646) 
idAAWXgen13

$$$$

     RDKit          2D

  5  5  0  0  0  0  0  0  0  0999 V2000
    1.2760    0.0000    0.0000 C   0  0  0  0  0  0  0  0  0  0  0  0
    0.3943    1.2135    0.0000 C   0  0  0  0  0  0  0  0  0  0  0  0
   -1.0323    0.7500    0.0000 O   0  0  0  0  0  0  0  0  0  0  0  0
   -1.0323   -0.7500    0.0000 C   0  0  0  0  0  0  0  0  0  0  0  0
    0.3943   -1.2135    0.0000 C   0  0  0  0  0  0  0  0  0  0  0  0
  1  2  2  0
  2  3  1  0
  3  4  1  0
  4  5  1  0
  5  1  1  0
M  END
>  <Title>  (647) 
idAAWYgen13

$$$$

     RDKit          2D

 46 51  0  0  0  0  0  0  0  0999 V2000
   -4.6001   -4.9005    0.0000 C   0  0  0  0  0  0  0  0  0  0  0  0
   -3.1111   -4.7197    0.0000 C   0  0  0  0  0  0  0  0  0  0  0  0
   -2.5792   -6.1222    0.0000 C   0  0  0  0  0  0  0  0  0  0  0  0
   -1.4564   -7.1169    0.0000 C   0  0  0  0  0  0  0  0  0  0  0  0
   -0.0000   -7.4758    0.0000 C   0  0  0  0  0  0  0  0  0  0  0  0
    1.4564   -7.1169    0.0000 C   0  0  0  0  0  0  0  0  0  0  0  0
    2.5792   -6.1222    0.0000 C   0  0  0  0  0  0  0  0  0  0  0  0
    3.1111   -4.7197    0.0000 C   0  0  0  0  0  0  0  0  0  0  0  0
    4.6001   -4.9005    0.0000 C   0  0  0  0  0  0  0  0  0  0  0  0
    5.5013   -3.7013    0.0000 O   0  0  0  0  0  0  0  0  0  0  0  0
    5.1881   -6.2804    0.0000 N   0  0  0  0  0  0  0  0  0  0  0  0
    6.6772   -6.4612    0.0000 C   0  0  0  0  0  0  0  0  0  0  0  0
    7.6987   -5.3628    0.0000 N   0  0  0  0  0  0  0  0  0  0  0  0
    9.0590   -5.9949    0.0000 N   0  0  0  0  0  0  0  0  0  0  0  0
    8.8782   -7.4840    0.0000 N   0  0  0  0  0  0  0  0  0  0  0  0
    7.4061   -7.7722    0.0000 N   0  0  0  0  0  0  0  0  0  0  0  0
    6.7740   -9.1325    0.0000 N   0  0  0  0  0  0  0  0  0  0  0  0
    7.5030  -10.4435    0.0000 C   0  0  0  0  0  0  0  0  0  0  0  0
    6.4815  -11.5419    0.0000 C   0  0  0  0  0  0  0  0  0  0  0  0
    5.1212  -10.9098    0.0000 N   0  0  0  0  0  0  0  0  0  0  0  0
    3.8102  -11.6387    0.0000 C   0  0  0  0  0  0  0  0  0  0  0  0
    3.7861  -13.1385    0.0000 O   0  0  0  0  0  0  0  0  0  0  0  0
    2.5234  -10.8679    0.0000 N   0  0  0  0  0  0  0  0  0  0  0  0
    1.2125  -11.5969    0.0000 C   0  0  0  0  0  0  0  0  0  0  0  0
   -0.0743  -10.8260    0.0000 N   0  0  0  0  0  0  0  0  0  0  0  0
   -1.3853  -11.5550    0.0000 N   0  0  0  0  0  0  0  0  0  0  0  0
   -1.4094  -13.0548    0.0000 N   0  0  0  0  0  0  0  0  0  0  0  0
   -0.1226  -13.8257    0.0000 N   0  0  0  0  0  0  0  0  0  0  0  0
    1.1883  -13.0967    0.0000 N   0  0  0  0  0  0  0  0  0  0  0  0
    5.3020   -9.4207    0.0000 C   0  0  0  0  0  0  0  0  0  0  0  0
    4.2036   -8.3992    0.0000 O   0  0  0  0  0  0  0  0  0  0  0  0
    2.9303   -3.2306    0.0000 C   0  0  0  0  0  0  0  0  0  0  0  0
    4.3328   -2.6987    0.0000 O   0  0  0  0  0  0  0  0  0  0  0  0
    2.0782   -1.9961    0.0000 N   0  0  0  0  0  0  0  0  0  0  0  0
    0.7500   -1.2990    0.0000 C   0  0  0  0  0  0  0  0  0  0  0  0
    1.5000    0.0000    0.0000 C   0  0  0  0  0  0  0  0  0  0  0  0
    0.7500    1.2990    0.0000 C   0  0  0  0  0  0  0  0  0  0  0  0
   -0.7500    1.2990    0.0000 C   0  0  0  0  0  0  0  0  0  0  0  0
   -1.5000    0.0000    0.0000 C   0  0  0  0  0  0  0  0  0  0  0  0
   -0.7500   -1.2990    0.0000 C   0  0  0  0  0  0  0  0  0  0  0  0
   -2.0782   -1.9961    0.0000 C   0  0  0  0  0  0  0  0  0  0  0  0
   -2.7212   -0.6409    0.0000 C   0  0  0  0  0  0  0  0  0  0  0  0
   -4.2164   -0.5202    0.0000 C   0  0  0  0  0  0  0  0  0  0  0  0
   -5.0685   -1.7547    0.0000 C   0  0  0  0  0  0  0  0  0  0  0  0
   -4.4254   -3.1099    0.0000 C   0  0  0  0  0  0  0  0  0  0  0  0
   -2.9303   -3.2306    0.0000 C   0  0  0  0  0  0  0  0  0  0  0  0
  1  2  1  0
  2  3  1  0
  3  4  1  0
  4  5  1  0
  5  6  1  0
  6  7  1  0
  7  8  1  0
  8  9  1  0
  9 10  2  0
  9 11  1  0
 11 12  1  0
 12 13  2  0
 13 14  1  0
 14 15  2  0
 15 16  1  0
 16 17  1  0
 17 18  1  0
 18 19  1  0
 19 20  1  0
 20 21  1  0
 21 22  2  0
 21 23  1  0
 23 24  1  0
 24 25  2  0
 25 26  1  0
 26 27  2  0
 27 28  1  0
 28 29  2  0
 20 30  1  0
 30 31  2  0
  8 32  1  0
 32 33  2  0
 32 34  1  0
 34 35  1  0
 35 36  2  0
 36 37  1  0
 37 38  2  0
 38 39  1  0
 39 40  2  0
 40 41  1  0
 41 42  2  0
 42 43  1  0
 43 44  2  0
 44 45  1  0
 45 46  2  0
 46  2  1  0
 16 12  1  0
 30 17  1  0
 40 35  1  0
 46 41  1  0
 29 24  1  0
M  END
>  <Title>  (648) 
idAAWZgen13

$$$$

     RDKit          2D

 77 78  0  0  0  0  0  0  0  0999 V2000
   -2.2174   -1.0636    0.0000 C   0  0  0  0  0  0  0  0  0  0  0  0
   -2.4934    0.4108    0.0000 C   0  0  0  0  0  0  0  0  0  0  0  0
   -3.9783    0.1985    0.0000 C   0  0  0  0  0  0  0  0  0  0  0  0
   -5.4760    0.1146    0.0000 C   0  0  0  0  0  0  0  0  0  0  0  0
   -6.9753    0.1598    0.0000 C   0  0  0  0  0  0  0  0  0  0  0  0
   -8.4652    0.3337    0.0000 C   0  0  0  0  0  0  0  0  0  0  0  0
   -9.9346    0.6351    0.0000 C   0  0  0  0  0  0  0  0  0  0  0  0
  -11.3727    1.0616    0.0000 C   0  0  0  0  0  0  0  0  0  0  0  0
  -12.7688    1.6102    0.0000 C   0  0  0  0  0  0  0  0  0  0  0  0
  -14.1125    2.2767    0.0000 C   0  0  0  0  0  0  0  0  0  0  0  0
  -15.3940    3.0564    0.0000 C   0  0  0  0  0  0  0  0  0  0  0  0
  -16.6037    3.9433    0.0000 C   0  0  0  0  0  0  0  0  0  0  0  0
  -17.7327    4.9309    0.0000 C   0  0  0  0  0  0  0  0  0  0  0  0
  -18.7727    6.0119    0.0000 C   0  0  0  0  0  0  0  0  0  0  0  0
  -19.7158    7.1783    0.0000 C   0  0  0  0  0  0  0  0  0  0  0  0
  -20.5552    8.4214    0.0000 C   0  0  0  0  0  0  0  0  0  0  0  0
  -21.2846    9.7321    0.0000 C   0  0  0  0  0  0  0  0  0  0  0  0
  -21.8986   11.1007    0.0000 C   0  0  0  0  0  0  0  0  0  0  0  0
  -22.3927   12.5170    0.0000 C   0  0  0  0  0  0  0  0  0  0  0  0
  -22.7633   13.9705    0.0000 C   0  0  0  0  0  0  0  0  0  0  0  0
  -23.0075   15.4505    0.0000 C   0  0  0  0  0  0  0  0  0  0  0  0
  -23.1236   16.9460    0.0000 C   0  0  0  0  0  0  0  0  0  0  0  0
  -23.1107   18.4459    0.0000 C   0  0  0  0  0  0  0  0  0  0  0  0
  -22.9689   19.9392    0.0000 C   0  0  0  0  0  0  0  0  0  0  0  0
  -22.6992   21.4148    0.0000 C   0  0  0  0  0  0  0  0  0  0  0  0
  -22.3037   22.8617    0.0000 C   0  0  0  0  0  0  0  0  0  0  0  0
  -21.7853   24.2692    0.0000 C   0  0  0  0  0  0  0  0  0  0  0  0
  -21.1478   25.6270    0.0000 C   0  0  0  0  0  0  0  0  0  0  0  0
  -20.3959   26.9250    0.0000 C   0  0  0  0  0  0  0  0  0  0  0  0
  -19.5353   28.1535    0.0000 C   0  0  0  0  0  0  0  0  0  0  0  0
  -18.5722   29.3035    0.0000 C   0  0  0  0  0  0  0  0  0  0  0  0
  -17.5138   30.3664    0.0000 C   0  0  0  0  0  0  0  0  0  0  0  0
  -16.3680   31.3345    0.0000 C   0  0  0  0  0  0  0  0  0  0  0  0
  -15.1432   32.2004    0.0000 C   0  0  0  0  0  0  0  0  0  0  0  0
  -13.8485   32.9578    0.0000 C   0  0  0  0  0  0  0  0  0  0  0  0
  -12.4934   33.6012    0.0000 C   0  0  0  0  0  0  0  0  0  0  0  0
  -11.0881   34.1257    0.0000 C   0  0  0  0  0  0  0  0  0  0  0  0
   -9.6429   34.5274    0.0000 C   0  0  0  0  0  0  0  0  0  0  0  0
   -8.1685   34.8034    0.0000 C   0  0  0  0  0  0  0  0  0  0  0  0
   -6.6758   34.9516    0.0000 C   0  0  0  0  0  0  0  0  0  0  0  0
   -5.1760   34.9710    0.0000 C   0  0  0  0  0  0  0  0  0  0  0  0
   -3.6800   34.8613    0.0000 C   0  0  0  0  0  0  0  0  0  0  0  0
   -2.1990   34.6235    0.0000 C   0  0  0  0  0  0  0  0  0  0  0  0
   -0.7439   34.2592    0.0000 C   0  0  0  0  0  0  0  0  0  0  0  0
    0.6745   33.7712    0.0000 C   0  0  0  0  0  0  0  0  0  0  0  0
    2.0457   33.1631    0.0000 C   0  0  0  0  0  0  0  0  0  0  0  0
    3.3596   32.4393    0.0000 C   0  0  0  0  0  0  0  0  0  0  0  0
    4.6063   31.6053    0.0000 C   0  0  0  0  0  0  0  0  0  0  0  0
    5.7768   30.6672    0.0000 C   0  0  0  0  0  0  0  0  0  0  0  0
    6.8622   29.6319    0.0000 C   0  0  0  0  0  0  0  0  0  0  0  0
    7.8547   28.5072    0.0000 C   0  0  0  0  0  0  0  0  0  0  0  0
    8.7468   27.3013    0.0000 C   0  0  0  0  0  0  0  0  0  0  0  0
    9.5319   26.0232    0.0000 C   0  0  0  0  0  0  0  0  0  0  0  0
   10.2042   24.6823    0.0000 C   0  0  0  0  0  0  0  0  0  0  0  0
   10.7588   23.2886    0.0000 C   0  0  0  0  0  0  0  0  0  0  0  0
   11.1915   21.8523    0.0000 C   0  0  0  0  0  0  0  0  0  0  0  0
   11.4992   20.3842    0.0000 C   0  0  0  0  0  0  0  0  0  0  0  0
   11.6795   18.8951    0.0000 C   0  0  0  0  0  0  0  0  0  0  0  0
   11.7311   17.3960    0.0000 C   0  0  0  0  0  0  0  0  0  0  0  0
   11.6537   15.8980    0.0000 C   0  0  0  0  0  0  0  0  0  0  0  0
   11.4478   14.4122    0.0000 C   0  0  0  0  0  0  0  0  0  0  0  0
   11.1149   12.9496    0.0000 C   0  0  0  0  0  0  0  0  0  0  0  0
   10.6575   11.5210    0.0000 C   0  0  0  0  0  0  0  0  0  0  0  0
   10.0790   10.1371    0.0000 C   0  0  0  0  0  0  0  0  0  0  0  0
    9.3837    8.8080    0.0000 C   0  0  0  0  0  0  0  0  0  0  0  0
    8.5767    7.5436    0.0000 C   0  0  0  0  0  0  0  0  0  0  0  0
    7.6640    6.3532    0.0000 C   0  0  0  0  0  0  0  0  0  0  0  0
    6.6523    5.2457    0.0000 C   0  0  0  0  0  0  0  0  0  0  0  0
    5.5492    4.2293    0.0000 C   0  0  0  0  0  0  0  0  0  0  0  0
    4.3628    3.3115    0.0000 C   0  0  0  0  0  0  0  0  0  0  0  0
    3.1019    2.4990    0.0000 C   0  0  0  0  0  0  0  0  0  0  0  0
    1.7758    1.7980    0.0000 C   0  0  0  0  0  0  0  0  0  0  0  0
    0.3943    1.2135    0.0000 C   0  0  0  0  0  0  0  0  0  0  0  0
    1.2760    0.0000    0.0000 C   0  0  0  0  0  0  0  0  0  0  0  0
    0.3943   -1.2135    0.0000 C   0  0  0  0  0  0  0  0  0  0  0  0
   -1.0323   -0.7500    0.0000 C   0  0  0  0  0  0  0  0  0  0  0  0
   -1.0323    0.7500    0.0000 C   0  0  0  0  0  0  0  0  0  0  0  0
  1  2  1  0
  2  3  1  0
  3  4  1  0
  4  5  1  0
  5  6  1  0
  6  7  1  0
  7  8  1  0
  8  9  1  0
  9 10  1  0
 10 11  1  0
 11 12  1  0
 12 13  1  0
 13 14  1  0
 14 15  1  0
 15 16  1  0
 16 17  1  0
 17 18  1  0
 18 19  1  0
 19 20  1  0
 20 21  1  0
 21 22  1  0
 22 23  1  0
 23 24  1  0
 24 25  1  0
 25 26  1  0
 26 27  1  0
 27 28  1  0
 28 29  1  0
 29 30  1  0
 30 31  1  0
 31 32  1  0
 32 33  1  0
 33 34  1  0
 34 35  1  0
 35 36  1  0
 36 37  1  0
 37 38  1  0
 38 39  1  0
 39 40  1  0
 40 41  1  0
 41 42  1  0
 42 43  2  0
 43 44  1  0
 44 45  2  0
 45 46  1  0
 46 47  2  0
 47 48  1  0
 48 49  2  0
 49 50  1  0
 50 51  2  0
 51 52  1  0
 52 53  2  0
 53 54  1  0
 54 55  2  0
 55 56  1  0
 56 57  2  0
 57 58  1  0
 58 59  2  0
 59 60  1  0
 60 61  2  0
 61 62  1  0
 62 63  2  0
 63 64  1  0
 64 65  2  0
 65 66  1  0
 66 67  2  0
 67 68  1  0
 68 69  2  0
 69 70  1  0
 70 71  2  0
 71 72  1  0
 72 73  2  0
 73 74  1  0
 74 75  2  0
 75 76  1  0
 76 77  2  0
 77  2  1  0
 77 73  1  0
M  END
>  <Title>  (649) 
idAAXAgen13

$$$$

     RDKit          2D

  8  7  0  0  0  0  0  0  0  0999 V2000
    0.0000    0.0000    0.0000 C   0  0  0  0  0  0  0  0  0  0  0  0
   -0.0000   -1.5000    0.0000 C   0  0  0  0  0  0  0  0  0  0  0  0
   -0.0000   -3.0000    0.0000 C   0  0  0  0  0  0  0  0  0  0  0  0
   -0.0000   -4.5000    0.0000 C   0  0  0  0  0  0  0  0  0  0  0  0
   -0.0000   -6.0000    0.0000 C   0  0  0  0  0  0  0  0  0  0  0  0
   -0.0000   -7.5000    0.0000 C   0  0  0  0  0  0  0  0  0  0  0  0
   -0.0000   -9.0000    0.0000 C   0  0  0  0  0  0  0  0  0  0  0  0
   -0.0000  -10.5000    0.0000 C   0  0  0  0  0  0  0  0  0  0  0  0
  1  2  3  0
  2  3  1  0
  3  4  3  0
  4  5  1  0
  5  6  3  0
  6  7  1  0
  7  8  3  0
M  END
>  <Title>  (650) 
idAAXBgen13

$$$$

     RDKit          2D

 11 10  0  0  0  0  0  0  0  0999 V2000
    0.0000    0.0000    0.0000 C   0  0  0  0  0  0  0  0  0  0  0  0
    1.2990    0.7500    0.0000 C   0  0  0  0  0  0  0  0  0  0  0  0
    1.2990    2.2500    0.0000 O   0  0  0  0  0  0  0  0  0  0  0  0
    2.5981   -0.0000    0.0000 N   0  0  0  0  0  0  0  0  0  0  0  0
    3.8971    0.7500    0.0000 C   0  0  0  0  0  0  0  0  0  0  0  0
    5.1962   -0.0000    0.0000 C   0  0  0  0  0  0  0  0  0  0  0  0
    3.8971    2.2500    0.0000 C   0  0  0  0  0  0  0  0  0  0  0  0
    5.1962    3.0000    0.0000 C   0  0  0  0  0  0  0  0  0  0  0  0
    5.1962    4.5000    0.0000 C   0  0  0  0  0  0  0  0  0  0  0  0
    6.4952    5.2500    0.0000 C   0  0  0  0  0  0  0  0  0  0  0  0
    3.8971    5.2500    0.0000 C   0  0  0  0  0  0  0  0  0  0  0  0
  1  2  1  0
  2  3  2  0
  2  4  1  0
  4  5  1  0
  5  6  1  0
  5  7  1  0
  7  8  1  0
  8  9  1  0
  9 10  1  0
  9 11  1  0
M  END
>  <Title>  (651) 
idAAXCgen13

$$$$

     RDKit          2D

 32 35  0  0  0  0  0  0  0  0999 V2000
   -3.0000   -2.5981    0.0000 C   0  0  0  0  0  0  0  0  0  0  0  0
   -1.5000   -2.5981    0.0000 C   0  0  0  0  0  0  0  0  0  0  0  0
   -0.7500   -3.8971    0.0000 C   0  0  0  0  0  0  0  0  0  0  0  0
    0.7500   -3.8971    0.0000 C   0  0  0  0  0  0  0  0  0  0  0  0
    1.5000   -2.5981    0.0000 C   0  0  0  0  0  0  0  0  0  0  0  0
    3.0000   -2.5981    0.0000 N   0  0  0  0  0  0  0  0  0  0  0  0
    3.7500   -3.8971    0.0000 C   0  0  0  0  0  0  0  0  0  0  0  0
    5.2500   -3.8971    0.0000 C   0  0  0  0  0  0  0  0  0  0  0  0
    6.0000   -5.1962    0.0000 N   0  0  0  0  0  0  0  0  0  0  0  0
    7.5000   -5.1962    0.0000 N   0  0  0  0  0  0  0  0  0  0  0  0
    8.2500   -6.4952    0.0000 N   0  0  0  0  0  0  0  0  0  0  0  0
    9.7500   -6.4952    0.0000 N   0  0  0  0  0  0  0  0  0  0  0  0
    3.7500   -1.2990    0.0000 C   0  0  0  0  0  0  0  0  0  0  0  0
    3.1399    0.0713    0.0000 C   0  0  0  0  0  0  0  0  0  0  0  0
    4.2546    1.0750    0.0000 C   0  0  0  0  0  0  0  0  0  0  0  0
    5.5537    0.3250    0.0000 C   0  0  0  0  0  0  0  0  0  0  0  0
    6.9240    0.9351    0.0000 O   0  0  0  0  0  0  0  0  0  0  0  0
    8.1375    0.0534    0.0000 C   0  0  0  0  0  0  0  0  0  0  0  0
    7.9807   -1.4384    0.0000 O   0  0  0  0  0  0  0  0  0  0  0  0
    9.5078    0.6635    0.0000 N   0  0  0  0  0  0  0  0  0  0  0  0
    9.8197    2.1307    0.0000 C   0  0  0  0  0  0  0  0  0  0  0  0
   11.3115    2.2875    0.0000 C   0  0  0  0  0  0  0  0  0  0  0  0
   11.9216    0.9172    0.0000 C   0  0  0  0  0  0  0  0  0  0  0  0
   10.8069   -0.0865    0.0000 C   0  0  0  0  0  0  0  0  0  0  0  0
    5.2418   -1.1422    0.0000 C   0  0  0  0  0  0  0  0  0  0  0  0
    6.2455   -2.2570    0.0000 O   0  0  0  0  0  0  0  0  0  0  0  0
    0.7500   -1.2990    0.0000 C   0  0  0  0  0  0  0  0  0  0  0  0
    1.5000    0.0000    0.0000 C   0  0  0  0  0  0  0  0  0  0  0  0
    0.7500    1.2990    0.0000 C   0  0  0  0  0  0  0  0  0  0  0  0
   -0.7500    1.2990    0.0000 C   0  0  0  0  0  0  0  0  0  0  0  0
   -1.5000    0.0000    0.0000 C   0  0  0  0  0  0  0  0  0  0  0  0
   -0.7500   -1.2990    0.0000 C   0  0  0  0  0  0  0  0  0  0  0  0
  1  2  1  0
  2  3  1  0
  3  4  2  0
  4  5  1  0
  5  6  1  0
  6  7  1  0
  7  8  1  0
  8  9  2  3
  9 10  1  0
 10 11  2  3
 11 12  1  0
  6 13  1  0
 13 14  2  0
 14 15  1  0
 15 16  2  0
 16 17  1  0
 17 18  1  0
 18 19  2  0
 18 20  1  0
 20 21  1  0
 21 22  2  0
 22 23  1  0
 23 24  2  0
 16 25  1  0
 25 26  2  0
  5 27  1  0
 27 28  2  0
 28 29  1  0
 29 30  2  0
 30 31  1  0
 31 32  2  0
 32  2  1  0
 25 13  1  0
 32 27  1  0
 24 20  1  0
M  END
>  <Title>  (652) 
idAAXDgen13

$$$$

     RDKit          2D

 11 12  0  0  0  0  0  0  0  0999 V2000
   -3.2595   -3.4715    0.0000 C   0  0  0  0  0  0  0  0  0  0  0  0
   -1.8107   -3.8597    0.0000 C   0  0  0  0  0  0  0  0  0  0  0  0
   -1.4224   -5.3086    0.0000 O   0  0  0  0  0  0  0  0  0  0  0  0
   -0.7500   -2.7990    0.0000 N   0  0  0  0  0  0  0  0  0  0  0  0
    0.7500   -2.7990    0.0000 C   0  0  0  0  0  0  0  0  0  0  0  0
    0.7500   -1.2990    0.0000 C   0  0  0  0  0  0  0  0  0  0  0  0
    1.5000    0.0000    0.0000 C   0  0  0  0  0  0  0  0  0  0  0  0
    0.7500    1.2990    0.0000 C   0  0  0  0  0  0  0  0  0  0  0  0
   -0.7500    1.2990    0.0000 C   0  0  0  0  0  0  0  0  0  0  0  0
   -1.5000    0.0000    0.0000 C   0  0  0  0  0  0  0  0  0  0  0  0
   -0.7500   -1.2990    0.0000 C   0  0  0  0  0  0  0  0  0  0  0  0
  1  2  1  0
  2  3  2  0
  2  4  1  0
  4  5  1  0
  5  6  1  0
  6  7  2  0
  7  8  1  0
  8  9  2  0
  9 10  1  0
 10 11  1  0
 11  4  1  0
 11  6  1  0
M  END
>  <Title>  (653) 
idAAXEgen13

$$$$

     RDKit          2D

 17 19  0  0  0  0  0  0  0  0999 V2000
   -1.0981  -10.7194    0.0000 C   0  0  0  0  0  0  0  0  0  0  0  0
   -1.0981   -9.2194    0.0000 C   0  0  0  0  0  0  0  0  0  0  0  0
    0.2010   -8.4694    0.0000 C   0  0  0  0  0  0  0  0  0  0  0  0
    0.2010   -6.9694    0.0000 C   0  0  0  0  0  0  0  0  0  0  0  0
    1.5000   -6.2194    0.0000 C   0  0  0  0  0  0  0  0  0  0  0  0
    2.7990   -6.9694    0.0000 O   0  0  0  0  0  0  0  0  0  0  0  0
    1.5000   -4.7194    0.0000 N   0  0  0  0  0  0  0  0  0  0  0  0
    0.4393   -3.6587    0.0000 C   0  0  0  0  0  0  0  0  0  0  0  0
    1.5000   -2.5981    0.0000 C   0  0  0  0  0  0  0  0  0  0  0  0
    0.7500   -1.2990    0.0000 C   0  0  0  0  0  0  0  0  0  0  0  0
    1.5000    0.0000    0.0000 C   0  0  0  0  0  0  0  0  0  0  0  0
    0.7500    1.2990    0.0000 C   0  0  0  0  0  0  0  0  0  0  0  0
   -0.7500    1.2990    0.0000 C   0  0  0  0  0  0  0  0  0  0  0  0
   -1.5000    0.0000    0.0000 C   0  0  0  0  0  0  0  0  0  0  0  0
   -0.7500   -1.2990    0.0000 C   0  0  0  0  0  0  0  0  0  0  0  0
    2.9489   -2.2098    0.0000 C   0  0  0  0  0  0  0  0  0  0  0  0
    2.5607   -3.6587    0.0000 C   0  0  0  0  0  0  0  0  0  0  0  0
  1  2  2  0
  2  3  1  0
  3  4  1  0
  4  5  1  0
  5  6  2  0
  5  7  1  0
  7  8  1  0
  8  9  1  0
  9 10  1  0
 10 11  2  0
 11 12  1  0
 12 13  2  0
 13 14  1  0
 14 15  1  0
  9 16  1  0
 16 17  1  0
 17  7  1  0
 17  9  1  0
 15 10  1  0
M  END
>  <Title>  (654) 
idAAXFgen13

$$$$

     RDKit          2D

 40 45  0  0  0  0  0  0  0  0999 V2000
   -1.3240   -6.3062    0.0000 C   0  0  0  0  0  0  0  0  0  0  0  0
   -0.7500   -4.9204    0.0000 C   0  0  0  0  0  0  0  0  0  0  0  0
    0.7500   -4.9204    0.0000 C   0  0  0  0  0  0  0  0  0  0  0  0
    1.8107   -3.8597    0.0000 C   0  0  0  0  0  0  0  0  0  0  0  0
    1.8107   -2.3597    0.0000 C   0  0  0  0  0  0  0  0  0  0  0  0
    3.1965   -1.7857    0.0000 C   0  0  0  0  0  0  0  0  0  0  0  0
    3.3923   -0.2985    0.0000 O   0  0  0  0  0  0  0  0  0  0  0  0
    4.3865   -2.6988    0.0000 N   0  0  0  0  0  0  0  0  0  0  0  0
    5.7723   -2.1248    0.0000 C   0  0  0  0  0  0  0  0  0  0  0  0
    6.1225   -0.6662    0.0000 N   0  0  0  0  0  0  0  0  0  0  0  0
    7.6179   -0.5485    0.0000 N   0  0  0  0  0  0  0  0  0  0  0  0
    8.1919   -1.9344    0.0000 N   0  0  0  0  0  0  0  0  0  0  0  0
    7.0513   -2.9085    0.0000 N   0  0  0  0  0  0  0  0  0  0  0  0
    7.1690   -4.4039    0.0000 C   0  0  0  0  0  0  0  0  0  0  0  0
    8.4479   -5.1877    0.0000 C   0  0  0  0  0  0  0  0  0  0  0  0
    8.0978   -6.6462    0.0000 C   0  0  0  0  0  0  0  0  0  0  0  0
    6.6024   -6.7639    0.0000 C   0  0  0  0  0  0  0  0  0  0  0  0
    5.8186   -8.0429    0.0000 C   0  0  0  0  0  0  0  0  0  0  0  0
    6.5344   -9.3611    0.0000 O   0  0  0  0  0  0  0  0  0  0  0  0
    4.3192   -8.0036    0.0000 N   0  0  0  0  0  0  0  0  0  0  0  0
    3.5354   -9.2826    0.0000 C   0  0  0  0  0  0  0  0  0  0  0  0
    2.0359   -9.2433    0.0000 N   0  0  0  0  0  0  0  0  0  0  0  0
    1.2522  -10.5223    0.0000 N   0  0  0  0  0  0  0  0  0  0  0  0
    1.9679  -11.8405    0.0000 N   0  0  0  0  0  0  0  0  0  0  0  0
    3.4674  -11.8797    0.0000 N   0  0  0  0  0  0  0  0  0  0  0  0
    4.2512  -10.6008    0.0000 N   0  0  0  0  0  0  0  0  0  0  0  0
    6.0284   -5.3781    0.0000 C   0  0  0  0  0  0  0  0  0  0  0  0
    4.5698   -5.0279    0.0000 O   0  0  0  0  0  0  0  0  0  0  0  0
    0.7500   -1.2990    0.0000 C   0  0  0  0  0  0  0  0  0  0  0  0
    1.5000    0.0000    0.0000 C   0  0  0  0  0  0  0  0  0  0  0  0
    0.7500    1.2990    0.0000 C   0  0  0  0  0  0  0  0  0  0  0  0
   -0.7500    1.2990    0.0000 C   0  0  0  0  0  0  0  0  0  0  0  0
   -1.5000    0.0000    0.0000 C   0  0  0  0  0  0  0  0  0  0  0  0
   -0.7500   -1.2990    0.0000 C   0  0  0  0  0  0  0  0  0  0  0  0
   -1.8107   -2.3597    0.0000 C   0  0  0  0  0  0  0  0  0  0  0  0
   -3.1097   -1.6097    0.0000 C   0  0  0  0  0  0  0  0  0  0  0  0
   -4.4087   -2.3597    0.0000 C   0  0  0  0  0  0  0  0  0  0  0  0
   -4.4087   -3.8597    0.0000 C   0  0  0  0  0  0  0  0  0  0  0  0
   -3.1097   -4.6097    0.0000 C   0  0  0  0  0  0  0  0  0  0  0  0
   -1.8107   -3.8597    0.0000 C   0  0  0  0  0  0  0  0  0  0  0  0
  1  2  1  0
  2  3  1  0
  3  4  1  0
  4  5  1  0
  5  6  1  0
  6  7  2  0
  6  8  1  0
  8  9  1  0
  9 10  2  0
 10 11  1  0
 11 12  2  0
 12 13  1  0
 13 14  1  0
 14 15  2  0
 15 16  1  0
 16 17  2  0
 17 18  1  0
 18 19  2  0
 18 20  1  0
 20 21  1  0
 21 22  2  0
 22 23  1  0
 23 24  2  0
 24 25  1  0
 25 26  2  0
 17 27  1  0
 27 28  2  0
  5 29  1  0
 29 30  2  0
 30 31  1  0
 31 32  2  0
 32 33  1  0
 33 34  2  0
 34 35  1  0
 35 36  2  0
 36 37  1  0
 37 38  2  0
 38 39  1  0
 39 40  2  0
 40  2  1  0
 13  9  1  0
 27 14  1  0
 34 29  1  0
 40 35  1  0
 26 21  1  0
M  END
>  <Title>  (655) 
idAAXGgen13

$$$$

     RDKit          2D

 25 28  0  0  0  0  0  0  0  0999 V2000
   -3.0000   -2.5981    0.0000 C   0  0  0  0  0  0  0  0  0  0  0  0
   -1.5000   -2.5981    0.0000 C   0  0  0  0  0  0  0  0  0  0  0  0
   -0.7500   -3.8971    0.0000 C   0  0  0  0  0  0  0  0  0  0  0  0
    0.7500   -3.8971    0.0000 C   0  0  0  0  0  0  0  0  0  0  0  0
    1.5000   -2.5981    0.0000 C   0  0  0  0  0  0  0  0  0  0  0  0
    3.0000   -2.5981    0.0000 C   0  0  0  0  0  0  0  0  0  0  0  0
    3.7500   -1.2990    0.0000 O   0  0  0  0  0  0  0  0  0  0  0  0
    3.7500   -3.8971    0.0000 N   0  0  0  0  0  0  0  0  0  0  0  0
    5.2500   -3.8971    0.0000 C   0  0  0  0  0  0  0  0  0  0  0  0
    6.1317   -2.6836    0.0000 N   0  0  0  0  0  0  0  0  0  0  0  0
    7.5583   -3.1471    0.0000 N   0  0  0  0  0  0  0  0  0  0  0  0
    7.5583   -4.6471    0.0000 N   0  0  0  0  0  0  0  0  0  0  0  0
    6.1317   -5.1106    0.0000 N   0  0  0  0  0  0  0  0  0  0  0  0
    5.6682   -6.5372    0.0000 N   0  0  0  0  0  0  0  0  0  0  0  0
    4.2009   -6.8491    0.0000 C   0  0  0  0  0  0  0  0  0  0  0  0
    3.7374   -8.2757    0.0000 C   0  0  0  0  0  0  0  0  0  0  0  0
    4.7411   -9.3904    0.0000 N   0  0  0  0  0  0  0  0  0  0  0  0
    6.2083   -9.0785    0.0000 N   0  0  0  0  0  0  0  0  0  0  0  0
    6.6718   -7.6519    0.0000 N   0  0  0  0  0  0  0  0  0  0  0  0
    0.7500   -1.2990    0.0000 C   0  0  0  0  0  0  0  0  0  0  0  0
    1.5000    0.0000    0.0000 C   0  0  0  0  0  0  0  0  0  0  0  0
    0.7500    1.2990    0.0000 C   0  0  0  0  0  0  0  0  0  0  0  0
   -0.7500    1.2990    0.0000 C   0  0  0  0  0  0  0  0  0  0  0  0
   -1.5000    0.0000    0.0000 C   0  0  0  0  0  0  0  0  0  0  0  0
   -0.7500   -1.2990    0.0000 C   0  0  0  0  0  0  0  0  0  0  0  0
  1  2  1  0
  2  3  1  0
  3  4  2  0
  4  5  1  0
  5  6  1  0
  6  7  2  0
  6  8  1  0
  8  9  1  0
  9 10  2  0
 10 11  1  0
 11 12  2  0
 12 13  1  0
 13 14  1  0
 14 15  1  0
 15 16  1  0
 16 17  2  0
 17 18  1  0
 18 19  2  0
  5 20  1  0
 20 21  2  0
 21 22  1  0
 22 23  2  0
 23 24  1  0
 24 25  2  0
 25  2  1  0
 13  9  1  0
 19 14  1  0
 25 20  1  0
M  END
>  <Title>  (656) 
idAAXHgen13

$$$$

     RDKit          2D

  4  3  0  0  0  0  0  0  0  0999 V2000
    0.0000    0.0000    0.0000 C   0  0  0  0  0  0  0  0  0  0  0  0
    1.2990    0.7500    0.0000 C   0  0  0  0  0  0  0  0  0  0  0  0
    2.5981   -0.0000    0.0000 C   0  0  0  0  0  0  0  0  0  0  0  0
    1.2990    2.2500    0.0000 N   0  0  0  0  0  0  0  0  0  0  0  0
  1  2  1  0
  2  3  1  0
  2  4  1  0
M  END
>  <Title>  (657) 
idAAXIgen13

$$$$

     RDKit          2D

  8  7  0  0  0  0  0  0  0  0999 V2000
    0.0000    0.0000    0.0000 C   0  0  0  0  0  0  0  0  0  0  0  0
   -0.0000   -1.5000    0.0000 C   0  0  0  0  0  0  0  0  0  0  0  0
   -0.0000   -3.0000    0.0000 C   0  0  0  0  0  0  0  0  0  0  0  0
   -0.0000   -4.5000    0.0000 C   0  0  0  0  0  0  0  0  0  0  0  0
   -0.0000   -6.0000    0.0000 C   0  0  0  0  0  0  0  0  0  0  0  0
    1.2990   -6.7500    0.0000 C   0  0  0  0  0  0  0  0  0  0  0  0
    1.2990   -8.2500    0.0000 C   0  0  0  0  0  0  0  0  0  0  0  0
    2.5981   -6.0000    0.0000 C   0  0  0  0  0  0  0  0  0  0  0  0
  1  2  3  0
  2  3  1  0
  3  4  3  0
  4  5  1  0
  5  6  1  0
  6  7  1  0
  6  8  1  0
M  END
>  <Title>  (658) 
idAAXJgen13

$$$$

     RDKit          2D

 37 41  0  0  0  0  0  0  0  0999 V2000
   -5.6303   -2.9038    0.0000 C   0  0  0  0  0  0  0  0  0  0  0  0
   -4.1679   -3.2376    0.0000 C   0  0  0  0  0  0  0  0  0  0  0  0
   -3.1476   -2.1380    0.0000 C   0  0  0  0  0  0  0  0  0  0  0  0
   -1.6852   -2.4718    0.0000 C   0  0  0  0  0  0  0  0  0  0  0  0
   -1.3515   -3.9342    0.0000 C   0  0  0  0  0  0  0  0  0  0  0  0
   -0.0000   -4.5850    0.0000 C   0  0  0  0  0  0  0  0  0  0  0  0
    1.3515   -3.9342    0.0000 C   0  0  0  0  0  0  0  0  0  0  0  0
    1.6852   -2.4718    0.0000 C   0  0  0  0  0  0  0  0  0  0  0  0
    3.1476   -2.1380    0.0000 C   0  0  0  0  0  0  0  0  0  0  0  0
    3.5898   -0.7046    0.0000 O   0  0  0  0  0  0  0  0  0  0  0  0
    4.1679   -3.2376    0.0000 N   0  0  0  0  0  0  0  0  0  0  0  0
    5.6303   -2.9038    0.0000 C   0  0  0  0  0  0  0  0  0  0  0  0
    6.2198   -1.5245    0.0000 N   0  0  0  0  0  0  0  0  0  0  0  0
    7.7138   -1.6590    0.0000 N   0  0  0  0  0  0  0  0  0  0  0  0
    8.0476   -3.1214    0.0000 N   0  0  0  0  0  0  0  0  0  0  0  0
    6.7599   -3.8907    0.0000 N   0  0  0  0  0  0  0  0  0  0  0  0
    6.6254   -5.3847    0.0000 N   0  0  0  0  0  0  0  0  0  0  0  0
    7.7550   -6.3716    0.0000 C   0  0  0  0  0  0  0  0  0  0  0  0
    7.1655   -7.7509    0.0000 C   0  0  0  0  0  0  0  0  0  0  0  0
    5.6715   -7.6164    0.0000 N   0  0  0  0  0  0  0  0  0  0  0  0
    4.6846   -8.7460    0.0000 C   0  0  0  0  0  0  0  0  0  0  0  0
    5.1694  -10.1655    0.0000 O   0  0  0  0  0  0  0  0  0  0  0  0
    3.2129   -8.4561    0.0000 N   0  0  0  0  0  0  0  0  0  0  0  0
    2.2260   -9.5857    0.0000 C   0  0  0  0  0  0  0  0  0  0  0  0
    0.7543   -9.2959    0.0000 N   0  0  0  0  0  0  0  0  0  0  0  0
   -0.2326  -10.4255    0.0000 N   0  0  0  0  0  0  0  0  0  0  0  0
    0.2522  -11.8450    0.0000 N   0  0  0  0  0  0  0  0  0  0  0  0
    1.7239  -12.1348    0.0000 N   0  0  0  0  0  0  0  0  0  0  0  0
    2.7108  -11.0052    0.0000 N   0  0  0  0  0  0  0  0  0  0  0  0
    5.3378   -6.1540    0.0000 C   0  0  0  0  0  0  0  0  0  0  0  0
    3.9585   -5.5645    0.0000 O   0  0  0  0  0  0  0  0  0  0  0  0
    0.7500   -1.2990    0.0000 C   0  0  0  0  0  0  0  0  0  0  0  0
    1.5000    0.0000    0.0000 C   0  0  0  0  0  0  0  0  0  0  0  0
    0.7500    1.2990    0.0000 C   0  0  0  0  0  0  0  0  0  0  0  0
   -0.7500    1.2990    0.0000 C   0  0  0  0  0  0  0  0  0  0  0  0
   -1.5000    0.0000    0.0000 C   0  0  0  0  0  0  0  0  0  0  0  0
   -0.7500   -1.2990    0.0000 C   0  0  0  0  0  0  0  0  0  0  0  0
  1  2  1  0
  2  3  1  0
  3  4  1  0
  4  5  2  0
  5  6  1  0
  6  7  2  0
  7  8  1  0
  8  9  1  0
  9 10  2  0
  9 11  1  0
 11 12  1  0
 12 13  2  0
 13 14  1  0
 14 15  2  0
 15 16  1  0
 16 17  1  0
 17 18  1  0
 18 19  1  0
 19 20  1  0
 20 21  1  0
 21 22  2  0
 21 23  1  0
 23 24  1  0
 24 25  2  0
 25 26  1  0
 26 27  2  0
 27 28  1  0
 28 29  2  0
 20 30  1  0
 30 31  2  0
  8 32  1  0
 32 33  2  0
 33 34  1  0
 34 35  2  0
 35 36  1  0
 36 37  2  0
 37  4  1  0
 16 12  1  0
 30 17  1  0
 37 32  1  0
 29 24  1  0
M  END
>  <Title>  (659) 
idAAXKgen13

$$$$

     RDKit          2D

 60 68  0  0  0  0  0  0  0  0999 V2000
    2.9692   -9.5132    0.0000 C   0  0  0  0  0  0  0  0  0  0  0  0
    2.1358   -8.2660    0.0000 C   0  0  0  0  0  0  0  0  0  0  0  0
    3.1965   -7.2054    0.0000 C   0  0  0  0  0  0  0  0  0  0  0  0
    3.7705   -5.8195    0.0000 C   0  0  0  0  0  0  0  0  0  0  0  0
    3.7705   -4.3195    0.0000 C   0  0  0  0  0  0  0  0  0  0  0  0
    3.1965   -2.9337    0.0000 C   0  0  0  0  0  0  0  0  0  0  0  0
    2.1358   -1.8731    0.0000 C   0  0  0  0  0  0  0  0  0  0  0  0
    2.9692   -0.6259    0.0000 C   0  0  0  0  0  0  0  0  0  0  0  0
    2.3057    0.7195    0.0000 O   0  0  0  0  0  0  0  0  0  0  0  0
    4.4660   -0.7240    0.0000 N   0  0  0  0  0  0  0  0  0  0  0  0
    5.2993    0.5232    0.0000 C   0  0  0  0  0  0  0  0  0  0  0  0
    4.7801    1.9305    0.0000 N   0  0  0  0  0  0  0  0  0  0  0  0
    5.9581    2.8592    0.0000 N   0  0  0  0  0  0  0  0  0  0  0  0
    7.2053    2.0258    0.0000 N   0  0  0  0  0  0  0  0  0  0  0  0
    6.7982    0.5821    0.0000 N   0  0  0  0  0  0  0  0  0  0  0  0
    7.7268   -0.5958    0.0000 N   0  0  0  0  0  0  0  0  0  0  0  0
    9.2256   -0.5370    0.0000 C   0  0  0  0  0  0  0  0  0  0  0  0
    9.7448   -1.9442    0.0000 C   0  0  0  0  0  0  0  0  0  0  0  0
    8.5668   -2.8729    0.0000 N   0  0  0  0  0  0  0  0  0  0  0  0
    8.6257   -4.3717    0.0000 C   0  0  0  0  0  0  0  0  0  0  0  0
    9.9532   -5.0701    0.0000 O   0  0  0  0  0  0  0  0  0  0  0  0
    7.3571   -5.1721    0.0000 N   0  0  0  0  0  0  0  0  0  0  0  0
    7.4160   -6.6710    0.0000 C   0  0  0  0  0  0  0  0  0  0  0  0
    6.1474   -7.4714    0.0000 N   0  0  0  0  0  0  0  0  0  0  0  0
    6.2063   -8.9703    0.0000 N   0  0  0  0  0  0  0  0  0  0  0  0
    7.5338   -9.6687    0.0000 N   0  0  0  0  0  0  0  0  0  0  0  0
    8.8024   -8.8683    0.0000 N   0  0  0  0  0  0  0  0  0  0  0  0
    8.7435   -7.3694    0.0000 N   0  0  0  0  0  0  0  0  0  0  0  0
    7.3196   -2.0395    0.0000 C   0  0  0  0  0  0  0  0  0  0  0  0
    5.9124   -2.5587    0.0000 O   0  0  0  0  0  0  0  0  0  0  0  0
    0.7500   -1.2990    0.0000 C   0  0  0  0  0  0  0  0  0  0  0  0
    1.5000    0.0000    0.0000 C   0  0  0  0  0  0  0  0  0  0  0  0
    0.7500    1.2990    0.0000 C   0  0  0  0  0  0  0  0  0  0  0  0
   -0.7500    1.2990    0.0000 C   0  0  0  0  0  0  0  0  0  0  0  0
   -1.5000    0.0000    0.0000 C   0  0  0  0  0  0  0  0  0  0  0  0
   -0.7500   -1.2990    0.0000 C   0  0  0  0  0  0  0  0  0  0  0  0
   -2.1358   -1.8731    0.0000 C   0  0  0  0  0  0  0  0  0  0  0  0
   -2.5240   -0.4242    0.0000 C   0  0  0  0  0  0  0  0  0  0  0  0
   -3.9729   -0.0359    0.0000 C   0  0  0  0  0  0  0  0  0  0  0  0
   -5.0336   -1.0966    0.0000 C   0  0  0  0  0  0  0  0  0  0  0  0
   -4.6454   -2.5455    0.0000 C   0  0  0  0  0  0  0  0  0  0  0  0
   -3.1965   -2.9337    0.0000 C   0  0  0  0  0  0  0  0  0  0  0  0
   -3.7705   -4.3195    0.0000 C   0  0  0  0  0  0  0  0  0  0  0  0
   -5.0695   -3.5695    0.0000 C   0  0  0  0  0  0  0  0  0  0  0  0
   -6.3686   -4.3195    0.0000 C   0  0  0  0  0  0  0  0  0  0  0  0
   -6.3686   -5.8195    0.0000 C   0  0  0  0  0  0  0  0  0  0  0  0
   -5.0695   -6.5695    0.0000 C   0  0  0  0  0  0  0  0  0  0  0  0
   -3.7705   -5.8195    0.0000 C   0  0  0  0  0  0  0  0  0  0  0  0
   -3.1965   -7.2054    0.0000 C   0  0  0  0  0  0  0  0  0  0  0  0
   -4.6454   -7.5936    0.0000 C   0  0  0  0  0  0  0  0  0  0  0  0
   -5.0336   -9.0425    0.0000 C   0  0  0  0  0  0  0  0  0  0  0  0
   -3.9729  -10.1031    0.0000 C   0  0  0  0  0  0  0  0  0  0  0  0
   -2.5240   -9.7149    0.0000 C   0  0  0  0  0  0  0  0  0  0  0  0
   -2.1358   -8.2660    0.0000 C   0  0  0  0  0  0  0  0  0  0  0  0
   -0.7500   -8.8400    0.0000 C   0  0  0  0  0  0  0  0  0  0  0  0
   -1.5000  -10.1391    0.0000 C   0  0  0  0  0  0  0  0  0  0  0  0
   -0.7500  -11.4381    0.0000 C   0  0  0  0  0  0  0  0  0  0  0  0
    0.7500  -11.4381    0.0000 C   0  0  0  0  0  0  0  0  0  0  0  0
    1.5000  -10.1391    0.0000 C   0  0  0  0  0  0  0  0  0  0  0  0
    0.7500   -8.8400    0.0000 C   0  0  0  0  0  0  0  0  0  0  0  0
  1  2  1  0
  2  3  1  0
  3  4  2  0
  4  5  1  0
  5  6  1  0
  6  7  1  0
  7  8  1  0
  8  9  2  0
  8 10  1  0
 10 11  1  0
 11 12  2  0
 12 13  1  0
 13 14  2  0
 14 15  1  0
 15 16  1  0
 16 17  1  0
 17 18  1  0
 18 19  1  0
 19 20  1  0
 20 21  2  0
 20 22  1  0
 22 23  1  0
 23 24  2  0
 24 25  1  0
 25 26  2  0
 26 27  1  0
 27 28  2  0
 19 29  1  0
 29 30  2  0
  7 31  1  0
 31 32  2  0
 32 33  1  0
 33 34  2  0
 34 35  1  0
 35 36  2  0
 36 37  1  0
 37 38  2  0
 38 39  1  0
 39 40  2  0
 40 41  1  0
 41 42  2  0
 42 43  1  0
 43 44  2  0
 44 45  1  0
 45 46  2  0
 46 47  1  0
 47 48  2  0
 48 49  1  0
 49 50  2  0
 50 51  1  0
 51 52  2  0
 52 53  1  0
 53 54  2  0
 54 55  1  0
 55 56  2  0
 56 57  1  0
 57 58  2  0
 58 59  1  0
 59 60  2  0
 60  2  1  0
 15 11  1  0
 29 16  1  0
 36 31  1  0
 42 37  1  0
 48 43  1  0
 54 49  1  0
 60 55  1  0
 28 23  1  0
M  END
>  <Title>  (660) 
idAAXLgen13

$$$$

     RDKit          2D

 33 37  0  0  0  0  0  0  0  0999 V2000
   -3.1965   -1.7857    0.0000 C   0  0  0  0  0  0  0  0  0  0  0  0
   -1.8107   -2.3597    0.0000 C   0  0  0  0  0  0  0  0  0  0  0  0
   -1.8107   -3.8597    0.0000 C   0  0  0  0  0  0  0  0  0  0  0  0
   -0.7500   -4.9204    0.0000 C   0  0  0  0  0  0  0  0  0  0  0  0
    0.7500   -4.9204    0.0000 C   0  0  0  0  0  0  0  0  0  0  0  0
    1.3240   -6.3062    0.0000 C   0  0  0  0  0  0  0  0  0  0  0  0
    2.8112   -6.5020    0.0000 O   0  0  0  0  0  0  0  0  0  0  0  0
    0.4109   -7.4962    0.0000 N   0  0  0  0  0  0  0  0  0  0  0  0
    0.9849   -8.8820    0.0000 C   0  0  0  0  0  0  0  0  0  0  0  0
    2.4435   -9.2322    0.0000 N   0  0  0  0  0  0  0  0  0  0  0  0
    2.5612  -10.7276    0.0000 N   0  0  0  0  0  0  0  0  0  0  0  0
    1.1753  -11.3016    0.0000 N   0  0  0  0  0  0  0  0  0  0  0  0
    0.2012  -10.1610    0.0000 N   0  0  0  0  0  0  0  0  0  0  0  0
   -1.2942  -10.2787    0.0000 C   0  0  0  0  0  0  0  0  0  0  0  0
   -2.0780  -11.5576    0.0000 C   0  0  0  0  0  0  0  0  0  0  0  0
   -3.5365  -11.2075    0.0000 C   0  0  0  0  0  0  0  0  0  0  0  0
   -3.6542   -9.7121    0.0000 C   0  0  0  0  0  0  0  0  0  0  0  0
   -4.9332   -8.9283    0.0000 N   0  0  0  0  0  0  0  0  0  0  0  0
   -6.3190   -9.5024    0.0000 N   0  0  0  0  0  0  0  0  0  0  0  0
   -7.2932   -8.3618    0.0000 N   0  0  0  0  0  0  0  0  0  0  0  0
   -6.5094   -7.0828    0.0000 N   0  0  0  0  0  0  0  0  0  0  0  0
   -5.0509   -7.4330    0.0000 N   0  0  0  0  0  0  0  0  0  0  0  0
   -2.2684   -9.1381    0.0000 C   0  0  0  0  0  0  0  0  0  0  0  0
   -1.9182   -7.6795    0.0000 O   0  0  0  0  0  0  0  0  0  0  0  0
    1.8107   -3.8597    0.0000 C   0  0  0  0  0  0  0  0  0  0  0  0
    3.1965   -4.4337    0.0000 O   0  0  0  0  0  0  0  0  0  0  0  0
    1.8107   -2.3597    0.0000 O   0  0  0  0  0  0  0  0  0  0  0  0
    0.7500   -1.2990    0.0000 C   0  0  0  0  0  0  0  0  0  0  0  0
    1.5000    0.0000    0.0000 C   0  0  0  0  0  0  0  0  0  0  0  0
    0.7500    1.2990    0.0000 C   0  0  0  0  0  0  0  0  0  0  0  0
   -0.7500    1.2990    0.0000 C   0  0  0  0  0  0  0  0  0  0  0  0
   -1.5000    0.0000    0.0000 C   0  0  0  0  0  0  0  0  0  0  0  0
   -0.7500   -1.2990    0.0000 C   0  0  0  0  0  0  0  0  0  0  0  0
  1  2  1  0
  2  3  2  0
  3  4  1  0
  4  5  2  0
  5  6  1  0
  6  7  2  0
  6  8  1  0
  8  9  1  0
  9 10  2  0
 10 11  1  0
 11 12  2  0
 12 13  1  0
 13 14  1  0
 14 15  2  0
 15 16  1  0
 16 17  2  0
 17 18  1  0
 18 19  1  0
 19 20  2  0
 20 21  1  0
 21 22  2  0
 17 23  1  0
 23 24  2  0
  5 25  1  0
 25 26  2  0
 25 27  1  0
 27 28  1  0
 28 29  2  0
 29 30  1  0
 30 31  2  0
 31 32  1  0
 32 33  2  0
 33  2  1  0
 13  9  1  0
 23 14  1  0
 33 28  1  0
 22 18  1  0
M  END
>  <Title>  (661) 
idAAXMgen13

$$$$

     RDKit          2D

 12 13  0  0  0  0  0  0  0  0999 V2000
    1.8478   -6.4639    0.0000 C   0  0  0  0  0  0  0  0  0  0  0  0
    2.0046   -4.9721    0.0000 C   0  0  0  0  0  0  0  0  0  0  0  0
    3.3037   -4.2221    0.0000 C   0  0  0  0  0  0  0  0  0  0  0  0
    2.9918   -2.7549    0.0000 C   0  0  0  0  0  0  0  0  0  0  0  0
    1.5000   -2.5981    0.0000 C   0  0  0  0  0  0  0  0  0  0  0  0
    0.7500   -1.2990    0.0000 N   0  0  0  0  0  0  0  0  0  0  0  0
    1.5000    0.0000    0.0000 C   0  0  0  0  0  0  0  0  0  0  0  0
    0.7500    1.2990    0.0000 C   0  0  0  0  0  0  0  0  0  0  0  0
   -0.7500    1.2990    0.0000 N   0  0  0  0  0  0  0  0  0  0  0  0
   -1.5000    0.0000    0.0000 N   0  0  0  0  0  0  0  0  0  0  0  0
   -0.7500   -1.2990    0.0000 N   0  0  0  0  0  0  0  0  0  0  0  0
    0.8899   -3.9684    0.0000 C   0  0  0  0  0  0  0  0  0  0  0  0
  1  2  1  0
  2  3  1  0
  3  4  2  0
  4  5  1  0
  5  6  1  0
  6  7  1  0
  7  8  1  0
  8  9  2  0
  9 10  1  0
 10 11  2  0
  5 12  1  0
 12  2  1  0
 11  6  1  0
M  END
>  <Title>  (662) 
idAAXNgen13

$$$$

     RDKit          2D

 17 19  0  0  0  0  0  0  0  0999 V2000
    3.0000   -5.1962    0.0000 C   0  0  0  0  0  0  0  0  0  0  0  0
    1.5000   -5.1962    0.0000 C   0  0  0  0  0  0  0  0  0  0  0  0
    0.7500   -6.4952    0.0000 O   0  0  0  0  0  0  0  0  0  0  0  0
    0.7500   -3.8971    0.0000 N   0  0  0  0  0  0  0  0  0  0  0  0
    1.5000   -2.5981    0.0000 C   0  0  0  0  0  0  0  0  0  0  0  0
    0.7500   -1.2990    0.0000 C   0  0  0  0  0  0  0  0  0  0  0  0
    1.5000    0.0000    0.0000 C   0  0  0  0  0  0  0  0  0  0  0  0
    0.7500    1.2990    0.0000 C   0  0  0  0  0  0  0  0  0  0  0  0
   -0.7500    1.2990    0.0000 C   0  0  0  0  0  0  0  0  0  0  0  0
   -1.5000    0.0000    0.0000 C   0  0  0  0  0  0  0  0  0  0  0  0
   -0.7500   -1.2990    0.0000 C   0  0  0  0  0  0  0  0  0  0  0  0
   -1.5000   -2.5981    0.0000 C   0  0  0  0  0  0  0  0  0  0  0  0
   -3.0000   -2.5981    0.0000 C   0  0  0  0  0  0  0  0  0  0  0  0
   -3.7500   -3.8971    0.0000 C   0  0  0  0  0  0  0  0  0  0  0  0
   -3.0000   -5.1962    0.0000 C   0  0  0  0  0  0  0  0  0  0  0  0
   -1.5000   -5.1962    0.0000 C   0  0  0  0  0  0  0  0  0  0  0  0
   -0.7500   -3.8971    0.0000 C   0  0  0  0  0  0  0  0  0  0  0  0
  1  2  2  0
  2  3  1  0
  2  4  1  0
  4  5  1  0
  5  6  1  0
  6  7  2  0
  7  8  1  0
  8  9  2  0
  9 10  1  0
 10 11  2  0
 11 12  1  0
 12 13  2  0
 13 14  1  0
 14 15  2  0
 15 16  1  0
 16 17  2  0
 17  4  1  0
 11  6  1  0
 17 12  1  0
M  END
>  <Title>  (663) 
idAAXOgen13

$$$$

     RDKit          2D

 17 19  0  0  0  0  0  0  0  0999 V2000
   -4.3202   -4.5321    0.0000 C   0  0  0  0  0  0  0  0  0  0  0  0
   -3.2595   -3.4715    0.0000 C   0  0  0  0  0  0  0  0  0  0  0  0
   -1.8107   -3.8597    0.0000 C   0  0  0  0  0  0  0  0  0  0  0  0
   -0.7500   -2.7990    0.0000 N   0  0  0  0  0  0  0  0  0  0  0  0
    0.7500   -2.7990    0.0000 C   0  0  0  0  0  0  0  0  0  0  0  0
    0.7500   -1.2990    0.0000 C   0  0  0  0  0  0  0  0  0  0  0  0
    1.5000    0.0000    0.0000 C   0  0  0  0  0  0  0  0  0  0  0  0
    0.7500    1.2990    0.0000 C   0  0  0  0  0  0  0  0  0  0  0  0
   -0.7500    1.2990    0.0000 C   0  0  0  0  0  0  0  0  0  0  0  0
   -1.5000    2.5981    0.0000 C   0  0  0  0  0  0  0  0  0  0  0  0
   -0.7500    3.8971    0.0000 C   0  0  0  0  0  0  0  0  0  0  0  0
   -1.5000    5.1962    0.0000 C   0  0  0  0  0  0  0  0  0  0  0  0
   -3.0000    5.1962    0.0000 C   0  0  0  0  0  0  0  0  0  0  0  0
   -3.7500    3.8971    0.0000 C   0  0  0  0  0  0  0  0  0  0  0  0
   -3.0000    2.5981    0.0000 C   0  0  0  0  0  0  0  0  0  0  0  0
   -1.5000    0.0000    0.0000 C   0  0  0  0  0  0  0  0  0  0  0  0
   -0.7500   -1.2990    0.0000 C   0  0  0  0  0  0  0  0  0  0  0  0
  1  2  1  0
  2  3  1  0
  3  4  1  0
  4  5  1  0
  5  6  1  0
  6  7  2  0
  7  8  1  0
  8  9  1  0
  9 10  1  0
 10 11  2  0
 11 12  1  0
 12 13  2  0
 13 14  1  0
 14 15  2  0
  9 16  1  0
 16 17  1  0
 17  4  1  0
 17  6  1  0
 15 10  1  0
M  END
>  <Title>  (664) 
idAAXPgen13

$$$$

     RDKit          2D

  9  8  0  0  0  0  0  0  0  0999 V2000
    0.0000    0.0000    0.0000 C   0  0  0  0  0  0  0  0  0  0  0  0
    1.2990    0.7500    0.0000 C   0  0  0  0  0  0  0  0  0  0  0  0
    2.5981   -0.0000    0.0000 C   0  0  0  0  0  0  0  0  0  0  0  0
    3.8971    0.7500    0.0000 N   0  0  0  0  0  0  0  0  0  0  0  0
    5.1962   -0.0000    0.0000 C   0  0  0  0  0  0  0  0  0  0  0  0
    5.1962   -1.5000    0.0000 O   0  0  0  0  0  0  0  0  0  0  0  0
    6.4952    0.7500    0.0000 C   0  0  0  0  0  0  0  0  0  0  0  0
    7.7942   -0.0000    0.0000 C   0  0  0  0  0  0  0  0  0  0  0  0
    9.0933    0.7500    0.0000 C   0  0  0  0  0  0  0  0  0  0  0  0
  1  2  2  0
  2  3  1  0
  3  4  1  0
  4  5  1  0
  5  6  2  0
  5  7  1  0
  7  8  1  0
  8  9  1  0
M  END
>  <Title>  (665) 
idAAXQgen13

$$$$

     RDKit          2D

 22 23  0  0  0  0  0  0  0  0999 V2000
   10.4825   -1.0296    0.0000 C   0  0  0  0  0  0  0  0  0  0  0  0
    8.9851   -1.1193    0.0000 C   0  0  0  0  0  0  0  0  0  0  0  0
    8.1588    0.1326    0.0000 C   0  0  0  0  0  0  0  0  0  0  0  0
    6.6615    0.0429    0.0000 C   0  0  0  0  0  0  0  0  0  0  0  0
    5.8351    1.2947    0.0000 C   0  0  0  0  0  0  0  0  0  0  0  0
    6.5061    2.6363    0.0000 O   0  0  0  0  0  0  0  0  0  0  0  0
    4.3378    1.2050    0.0000 N   0  0  0  0  0  0  0  0  0  0  0  0
    3.5115    2.4569    0.0000 C   0  0  0  0  0  0  0  0  0  0  0  0
    4.0385    3.8613    0.0000 N   0  0  0  0  0  0  0  0  0  0  0  0
    2.8658    4.7965    0.0000 N   0  0  0  0  0  0  0  0  0  0  0  0
    1.6139    3.9701    0.0000 N   0  0  0  0  0  0  0  0  0  0  0  0
    2.0130    2.5242    0.0000 N   0  0  0  0  0  0  0  0  0  0  0  0
    1.0777    1.3515    0.0000 C   0  0  0  0  0  0  0  0  0  0  0  0
    1.7286    0.0000    0.0000 C   0  0  0  0  0  0  0  0  0  0  0  0
    1.0777   -1.3515    0.0000 C   0  0  0  0  0  0  0  0  0  0  0  0
   -0.3846   -1.6852    0.0000 C   0  0  0  0  0  0  0  0  0  0  0  0
   -0.7184   -3.1476    0.0000 C   0  0  0  0  0  0  0  0  0  0  0  0
   -2.1518   -3.5898    0.0000 C   0  0  0  0  0  0  0  0  0  0  0  0
    0.3812   -4.1679    0.0000 C   0  0  0  0  0  0  0  0  0  0  0  0
   -1.5574   -0.7500    0.0000 C   0  0  0  0  0  0  0  0  0  0  0  0
   -1.5574    0.7500    0.0000 C   0  0  0  0  0  0  0  0  0  0  0  0
   -0.3846    1.6852    0.0000 O   0  0  0  0  0  0  0  0  0  0  0  0
  1  2  2  0
  2  3  1  0
  3  4  1  0
  4  5  1  0
  5  6  2  0
  5  7  1  0
  7  8  1  0
  8  9  2  0
  9 10  1  0
 10 11  2  0
 11 12  1  0
 12 13  1  0
 13 14  2  0
 14 15  1  0
 15 16  2  0
 16 17  1  0
 17 18  1  0
 17 19  1  0
 16 20  1  0
 20 21  2  0
 21 22  1  0
 12  8  1  0
 22 13  1  0
M  END
>  <Title>  (666) 
idAAXRgen13

$$$$

     RDKit          2D

 37 41  0  0  0  0  0  0  0  0999 V2000
   -7.5000   -2.5981    0.0000 C   0  0  0  0  0  0  0  0  0  0  0  0
   -6.0000   -2.5981    0.0000 C   0  0  0  0  0  0  0  0  0  0  0  0
   -4.5000   -2.5981    0.0000 C   0  0  0  0  0  0  0  0  0  0  0  0
   -3.0000   -2.5981    0.0000 C   0  0  0  0  0  0  0  0  0  0  0  0
   -1.5000   -2.5981    0.0000 C   0  0  0  0  0  0  0  0  0  0  0  0
   -0.7500   -3.8971    0.0000 C   0  0  0  0  0  0  0  0  0  0  0  0
    0.7500   -3.8971    0.0000 C   0  0  0  0  0  0  0  0  0  0  0  0
    1.5000   -2.5981    0.0000 C   0  0  0  0  0  0  0  0  0  0  0  0
    3.0000   -2.5981    0.0000 C   0  0  0  0  0  0  0  0  0  0  0  0
    3.7500   -1.2990    0.0000 O   0  0  0  0  0  0  0  0  0  0  0  0
    3.7500   -3.8971    0.0000 N   0  0  0  0  0  0  0  0  0  0  0  0
    5.2500   -3.8971    0.0000 C   0  0  0  0  0  0  0  0  0  0  0  0
    6.1317   -2.6836    0.0000 N   0  0  0  0  0  0  0  0  0  0  0  0
    7.5583   -3.1471    0.0000 N   0  0  0  0  0  0  0  0  0  0  0  0
    7.5583   -4.6471    0.0000 N   0  0  0  0  0  0  0  0  0  0  0  0
    6.1317   -5.1106    0.0000 N   0  0  0  0  0  0  0  0  0  0  0  0
    5.6682   -6.5372    0.0000 N   0  0  0  0  0  0  0  0  0  0  0  0
    6.5498   -7.7508    0.0000 C   0  0  0  0  0  0  0  0  0  0  0  0
    5.6682   -8.9643    0.0000 C   0  0  0  0  0  0  0  0  0  0  0  0
    4.2416   -8.5008    0.0000 N   0  0  0  0  0  0  0  0  0  0  0  0
    3.0280   -9.3824    0.0000 C   0  0  0  0  0  0  0  0  0  0  0  0
    3.1848  -10.8742    0.0000 O   0  0  0  0  0  0  0  0  0  0  0  0
    1.6577   -8.7723    0.0000 N   0  0  0  0  0  0  0  0  0  0  0  0
    0.4442   -9.6540    0.0000 C   0  0  0  0  0  0  0  0  0  0  0  0
   -0.9261   -9.0439    0.0000 N   0  0  0  0  0  0  0  0  0  0  0  0
   -2.1396   -9.9256    0.0000 N   0  0  0  0  0  0  0  0  0  0  0  0
   -1.9829  -11.4174    0.0000 N   0  0  0  0  0  0  0  0  0  0  0  0
   -0.6125  -12.0275    0.0000 N   0  0  0  0  0  0  0  0  0  0  0  0
    0.6010  -11.1458    0.0000 N   0  0  0  0  0  0  0  0  0  0  0  0
    4.2416   -7.0008    0.0000 C   0  0  0  0  0  0  0  0  0  0  0  0
    3.0280   -6.1191    0.0000 O   0  0  0  0  0  0  0  0  0  0  0  0
    0.7500   -1.2990    0.0000 C   0  0  0  0  0  0  0  0  0  0  0  0
    1.5000    0.0000    0.0000 C   0  0  0  0  0  0  0  0  0  0  0  0
    0.7500    1.2990    0.0000 C   0  0  0  0  0  0  0  0  0  0  0  0
   -0.7500    1.2990    0.0000 C   0  0  0  0  0  0  0  0  0  0  0  0
   -1.5000    0.0000    0.0000 C   0  0  0  0  0  0  0  0  0  0  0  0
   -0.7500   -1.2990    0.0000 C   0  0  0  0  0  0  0  0  0  0  0  0
  1  2  3  0
  2  3  1  0
  3  4  3  0
  4  5  1  0
  5  6  2  0
  6  7  1  0
  7  8  2  0
  8  9  1  0
  9 10  2  0
  9 11  1  0
 11 12  1  0
 12 13  2  0
 13 14  1  0
 14 15  2  0
 15 16  1  0
 16 17  1  0
 17 18  1  0
 18 19  1  0
 19 20  1  0
 20 21  1  0
 21 22  2  0
 21 23  1  0
 23 24  1  0
 24 25  2  0
 25 26  1  0
 26 27  2  0
 27 28  1  0
 28 29  2  0
 20 30  1  0
 30 31  2  0
  8 32  1  0
 32 33  2  0
 33 34  1  0
 34 35  2  0
 35 36  1  0
 36 37  2  0
 37  5  1  0
 16 12  1  0
 30 17  1  0
 37 32  1  0
 29 24  1  0
M  END
>  <Title>  (667) 
idAAXSgen13

$$$$

     RDKit          2D

 46 52  0  0  0  0  0  0  0  0999 V2000
   -0.0000   -8.0154    0.0000 C   0  0  0  0  0  0  0  0  0  0  0  0
   -0.0000   -6.5154    0.0000 C   0  0  0  0  0  0  0  0  0  0  0  0
    1.4392   -6.0928    0.0000 C   0  0  0  0  0  0  0  0  0  0  0  0
    2.4215   -4.9592    0.0000 C   0  0  0  0  0  0  0  0  0  0  0  0
    2.6350   -3.4744    0.0000 C   0  0  0  0  0  0  0  0  0  0  0  0
    2.0119   -2.1100    0.0000 C   0  0  0  0  0  0  0  0  0  0  0  0
    3.1455   -1.1277    0.0000 C   0  0  0  0  0  0  0  0  0  0  0  0
    2.8616    0.3452    0.0000 O   0  0  0  0  0  0  0  0  0  0  0  0
    4.5630   -1.6183    0.0000 N   0  0  0  0  0  0  0  0  0  0  0  0
    5.6966   -0.6360    0.0000 C   0  0  0  0  0  0  0  0  0  0  0  0
    5.5683    0.8585    0.0000 N   0  0  0  0  0  0  0  0  0  0  0  0
    6.9500    1.4424    0.0000 N   0  0  0  0  0  0  0  0  0  0  0  0
    7.9322    0.3088    0.0000 N   0  0  0  0  0  0  0  0  0  0  0  0
    7.1576   -0.9758    0.0000 N   0  0  0  0  0  0  0  0  0  0  0  0
    7.7416   -2.3574    0.0000 N   0  0  0  0  0  0  0  0  0  0  0  0
    7.1774   -3.7473    0.0000 C   0  0  0  0  0  0  0  0  0  0  0  0
    8.5673   -4.3114    0.0000 C   0  0  0  0  0  0  0  0  0  0  0  0
    9.1512   -5.6931    0.0000 C   0  0  0  0  0  0  0  0  0  0  0  0
   10.6398   -5.8783    0.0000 O   0  0  0  0  0  0  0  0  0  0  0  0
    8.2466   -6.8897    0.0000 N   0  0  0  0  0  0  0  0  0  0  0  0
    8.8305   -8.2713    0.0000 C   0  0  0  0  0  0  0  0  0  0  0  0
    7.9259   -9.4679    0.0000 N   0  0  0  0  0  0  0  0  0  0  0  0
    8.5098  -10.8495    0.0000 N   0  0  0  0  0  0  0  0  0  0  0  0
    9.9983  -11.0347    0.0000 N   0  0  0  0  0  0  0  0  0  0  0  0
   10.9029   -9.8382    0.0000 N   0  0  0  0  0  0  0  0  0  0  0  0
   10.3190   -8.4565    0.0000 N   0  0  0  0  0  0  0  0  0  0  0  0
    9.1314   -2.9216    0.0000 C   0  0  0  0  0  0  0  0  0  0  0  0
   10.5131   -2.3377    0.0000 O   0  0  0  0  0  0  0  0  0  0  0  0
    0.7500   -1.2990    0.0000 C   0  0  0  0  0  0  0  0  0  0  0  0
    1.5000    0.0000    0.0000 C   0  0  0  0  0  0  0  0  0  0  0  0
    0.7500    1.2990    0.0000 C   0  0  0  0  0  0  0  0  0  0  0  0
   -0.7500    1.2990    0.0000 C   0  0  0  0  0  0  0  0  0  0  0  0
   -1.5000    0.0000    0.0000 C   0  0  0  0  0  0  0  0  0  0  0  0
   -0.7500   -1.2990    0.0000 C   0  0  0  0  0  0  0  0  0  0  0  0
   -2.0119   -2.1100    0.0000 C   0  0  0  0  0  0  0  0  0  0  0  0
   -2.8820   -0.8881    0.0000 C   0  0  0  0  0  0  0  0  0  0  0  0
   -4.3752   -1.0307    0.0000 C   0  0  0  0  0  0  0  0  0  0  0  0
   -4.9983   -2.3952    0.0000 C   0  0  0  0  0  0  0  0  0  0  0  0
   -4.1282   -3.6170    0.0000 C   0  0  0  0  0  0  0  0  0  0  0  0
   -2.6350   -3.4744    0.0000 C   0  0  0  0  0  0  0  0  0  0  0  0
   -2.4215   -4.9592    0.0000 C   0  0  0  0  0  0  0  0  0  0  0  0
   -3.8944   -5.2431    0.0000 C   0  0  0  0  0  0  0  0  0  0  0  0
   -4.3850   -6.6606    0.0000 C   0  0  0  0  0  0  0  0  0  0  0  0
   -3.4027   -7.7942    0.0000 C   0  0  0  0  0  0  0  0  0  0  0  0
   -1.9298   -7.5103    0.0000 C   0  0  0  0  0  0  0  0  0  0  0  0
   -1.4392   -6.0928    0.0000 C   0  0  0  0  0  0  0  0  0  0  0  0
  1  2  1  0
  2  3  2  0
  3  4  1  0
  4  5  1  0
  5  6  2  0
  6  7  1  0
  7  8  2  0
  7  9  1  0
  9 10  1  0
 10 11  2  0
 11 12  1  0
 12 13  2  0
 13 14  1  0
 14 15  1  0
 15 16  1  0
 16 17  2  0
 17 18  1  0
 18 19  2  0
 18 20  1  0
 20 21  1  0
 21 22  2  0
 22 23  1  0
 23 24  2  0
 24 25  1  0
 25 26  2  0
 17 27  1  0
 27 28  2  0
  6 29  1  0
 29 30  2  0
 30 31  1  0
 31 32  2  0
 32 33  1  0
 33 34  2  0
 34 35  1  0
 35 36  2  0
 36 37  1  0
 37 38  2  0
 38 39  1  0
 39 40  2  0
 40 41  1  0
 41 42  2  0
 42 43  1  0
 43 44  2  0
 44 45  1  0
 45 46  2  0
 46  2  1  0
 14 10  1  0
 27 15  1  0
 34 29  1  0
 40 35  1  0
 46 41  1  0
 26 21  1  0
M  END
>  <Title>  (668) 
idAAXTgen13

$$$$

     RDKit          2D

 10 11  0  0  0  0  0  0  0  0999 V2000
    4.2990   -3.3481    0.0000 C   0  0  0  0  0  0  0  0  0  0  0  0
    2.7990   -3.3481    0.0000 C   0  0  0  0  0  0  0  0  0  0  0  0
    1.5000   -2.5981    0.0000 C   0  0  0  0  0  0  0  0  0  0  0  0
    0.7500   -1.2990    0.0000 C   0  0  0  0  0  0  0  0  0  0  0  0
    1.5000    0.0000    0.0000 C   0  0  0  0  0  0  0  0  0  0  0  0
    0.7500    1.2990    0.0000 C   0  0  0  0  0  0  0  0  0  0  0  0
   -0.7500    1.2990    0.0000 N   0  0  0  0  0  0  0  0  0  0  0  0
   -1.5000    0.0000    0.0000 N   0  0  0  0  0  0  0  0  0  0  0  0
   -0.7500   -1.2990    0.0000 N   0  0  0  0  0  0  0  0  0  0  0  0
    1.5000   -4.0981    0.0000 C   0  0  0  0  0  0  0  0  0  0  0  0
  1  2  1  0
  2  3  2  0
  3  4  1  0
  4  5  2  0
  5  6  1  0
  6  7  2  0
  7  8  1  0
  8  9  2  0
  3 10  1  0
 10  2  1  0
  9  4  1  0
M  END
>  <Title>  (669) 
idAAXUgen13

$$$$

     RDKit          2D

 75 76  0  0  0  0  0  0  0  0999 V2000
   17.1942    0.0000    0.0000 C   0  0  0  0  0  0  0  0  0  0  0  0
   17.1288   -1.4986    0.0000 C   0  0  0  0  0  0  0  0  0  0  0  0
   16.9330   -2.9857    0.0000 C   0  0  0  0  0  0  0  0  0  0  0  0
   16.6083   -4.4502    0.0000 C   0  0  0  0  0  0  0  0  0  0  0  0
   16.1573   -5.8808    0.0000 C   0  0  0  0  0  0  0  0  0  0  0  0
   15.5832   -7.2666    0.0000 C   0  0  0  0  0  0  0  0  0  0  0  0
   17.0627   -7.5141    0.0000 C   0  0  0  0  0  0  0  0  0  0  0  0
   17.2844   -8.9977    0.0000 C   0  0  0  0  0  0  0  0  0  0  0  0
   15.9420   -9.6670    0.0000 C   0  0  0  0  0  0  0  0  0  0  0  0
   14.8906   -8.5971    0.0000 C   0  0  0  0  0  0  0  0  0  0  0  0
   14.0847   -9.8622    0.0000 C   0  0  0  0  0  0  0  0  0  0  0  0
   13.1715  -11.0522    0.0000 C   0  0  0  0  0  0  0  0  0  0  0  0
   12.1581  -12.1581    0.0000 C   0  0  0  0  0  0  0  0  0  0  0  0
   11.0522  -13.1715    0.0000 C   0  0  0  0  0  0  0  0  0  0  0  0
    9.8622  -14.0847    0.0000 C   0  0  0  0  0  0  0  0  0  0  0  0
    8.5971  -14.8906    0.0000 C   0  0  0  0  0  0  0  0  0  0  0  0
    7.2666  -15.5832    0.0000 C   0  0  0  0  0  0  0  0  0  0  0  0
    5.8808  -16.1573    0.0000 C   0  0  0  0  0  0  0  0  0  0  0  0
    4.4502  -16.6083    0.0000 C   0  0  0  0  0  0  0  0  0  0  0  0
    2.9857  -16.9330    0.0000 C   0  0  0  0  0  0  0  0  0  0  0  0
    1.4986  -17.1288    0.0000 C   0  0  0  0  0  0  0  0  0  0  0  0
   -0.0000  -17.1942    0.0000 C   0  0  0  0  0  0  0  0  0  0  0  0
   -1.4986  -17.1288    0.0000 C   0  0  0  0  0  0  0  0  0  0  0  0
   -2.9857  -16.9330    0.0000 C   0  0  0  0  0  0  0  0  0  0  0  0
   -4.4502  -16.6083    0.0000 C   0  0  0  0  0  0  0  0  0  0  0  0
   -5.8808  -16.1573    0.0000 C   0  0  0  0  0  0  0  0  0  0  0  0
   -7.2666  -15.5832    0.0000 C   0  0  0  0  0  0  0  0  0  0  0  0
   -8.5971  -14.8906    0.0000 C   0  0  0  0  0  0  0  0  0  0  0  0
   -9.8622  -14.0847    0.0000 C   0  0  0  0  0  0  0  0  0  0  0  0
  -11.0522  -13.1715    0.0000 C   0  0  0  0  0  0  0  0  0  0  0  0
  -12.1581  -12.1581    0.0000 C   0  0  0  0  0  0  0  0  0  0  0  0
  -13.1715  -11.0522    0.0000 C   0  0  0  0  0  0  0  0  0  0  0  0
  -14.0847   -9.8622    0.0000 C   0  0  0  0  0  0  0  0  0  0  0  0
  -14.8906   -8.5971    0.0000 C   0  0  0  0  0  0  0  0  0  0  0  0
  -15.5832   -7.2666    0.0000 C   0  0  0  0  0  0  0  0  0  0  0  0
  -16.1573   -5.8808    0.0000 C   0  0  0  0  0  0  0  0  0  0  0  0
  -16.6083   -4.4502    0.0000 C   0  0  0  0  0  0  0  0  0  0  0  0
  -16.9330   -2.9857    0.0000 C   0  0  0  0  0  0  0  0  0  0  0  0
  -17.1288   -1.4986    0.0000 C   0  0  0  0  0  0  0  0  0  0  0  0
  -17.1942    0.0000    0.0000 C   0  0  0  0  0  0  0  0  0  0  0  0
  -17.1288    1.4986    0.0000 C   0  0  0  0  0  0  0  0  0  0  0  0
  -16.9330    2.9857    0.0000 C   0  0  0  0  0  0  0  0  0  0  0  0
  -16.6083    4.4502    0.0000 C   0  0  0  0  0  0  0  0  0  0  0  0
  -16.1573    5.8808    0.0000 C   0  0  0  0  0  0  0  0  0  0  0  0
  -15.5832    7.2666    0.0000 C   0  0  0  0  0  0  0  0  0  0  0  0
  -14.8906    8.5971    0.0000 C   0  0  0  0  0  0  0  0  0  0  0  0
  -14.0847    9.8622    0.0000 C   0  0  0  0  0  0  0  0  0  0  0  0
  -13.1715   11.0522    0.0000 C   0  0  0  0  0  0  0  0  0  0  0  0
  -12.1581   12.1581    0.0000 C   0  0  0  0  0  0  0  0  0  0  0  0
  -11.0522   13.1715    0.0000 C   0  0  0  0  0  0  0  0  0  0  0  0
   -9.8622   14.0847    0.0000 C   0  0  0  0  0  0  0  0  0  0  0  0
   -8.5971   14.8906    0.0000 C   0  0  0  0  0  0  0  0  0  0  0  0
   -7.2666   15.5832    0.0000 C   0  0  0  0  0  0  0  0  0  0  0  0
   -5.8808   16.1573    0.0000 C   0  0  0  0  0  0  0  0  0  0  0  0
   -4.4502   16.6083    0.0000 C   0  0  0  0  0  0  0  0  0  0  0  0
   -2.9857   16.9330    0.0000 C   0  0  0  0  0  0  0  0  0  0  0  0
   -1.4986   17.1288    0.0000 C   0  0  0  0  0  0  0  0  0  0  0  0
    0.0000   17.1942    0.0000 C   0  0  0  0  0  0  0  0  0  0  0  0
    1.4986   17.1288    0.0000 C   0  0  0  0  0  0  0  0  0  0  0  0
    2.9857   16.9330    0.0000 C   0  0  0  0  0  0  0  0  0  0  0  0
    4.4502   16.6083    0.0000 C   0  0  0  0  0  0  0  0  0  0  0  0
    5.8808   16.1573    0.0000 C   0  0  0  0  0  0  0  0  0  0  0  0
    7.2666   15.5832    0.0000 C   0  0  0  0  0  0  0  0  0  0  0  0
    8.5971   14.8906    0.0000 C   0  0  0  0  0  0  0  0  0  0  0  0
    9.8622   14.0847    0.0000 C   0  0  0  0  0  0  0  0  0  0  0  0
   11.0522   13.1715    0.0000 C   0  0  0  0  0  0  0  0  0  0  0  0
   12.1581   12.1581    0.0000 C   0  0  0  0  0  0  0  0  0  0  0  0
   13.1715   11.0522    0.0000 C   0  0  0  0  0  0  0  0  0  0  0  0
   14.0847    9.8622    0.0000 C   0  0  0  0  0  0  0  0  0  0  0  0
   14.8906    8.5971    0.0000 C   0  0  0  0  0  0  0  0  0  0  0  0
   15.5832    7.2666    0.0000 C   0  0  0  0  0  0  0  0  0  0  0  0
   16.1573    5.8808    0.0000 C   0  0  0  0  0  0  0  0  0  0  0  0
   16.6083    4.4502    0.0000 C   0  0  0  0  0  0  0  0  0  0  0  0
   16.9330    2.9857    0.0000 C   0  0  0  0  0  0  0  0  0  0  0  0
   17.1288    1.4986    0.0000 C   0  0  0  0  0  0  0  0  0  0  0  0
  1  2  2  0
  2  3  1  0
  3  4  2  0
  4  5  1  0
  5  6  2  0
  6  7  1  0
  7  8  2  0
  8  9  1  0
  9 10  2  0
 10 11  1  0
 11 12  1  0
 12 13  1  0
 13 14  1  0
 14 15  1  0
 15 16  1  0
 16 17  1  0
 17 18  1  0
 18 19  1  0
 19 20  1  0
 20 21  1  0
 21 22  1  0
 22 23  1  0
 23 24  1  0
 24 25  1  0
 25 26  1  0
 26 27  1  0
 27 28  1  0
 28 29  1  0
 29 30  1  0
 30 31  1  0
 31 32  1  0
 32 33  1  0
 33 34  1  0
 34 35  1  0
 35 36  1  0
 36 37  1  0
 37 38  1  0
 38 39  1  0
 39 40  1  0
 40 41  1  0
 41 42  1  0
 42 43  1  0
 43 44  1  0
 44 45  1  0
 45 46  1  0
 46 47  1  0
 47 48  1  0
 48 49  1  0
 49 50  1  0
 50 51  1  0
 51 52  1  0
 52 53  1  0
 53 54  1  0
 54 55  1  0
 55 56  1  0
 56 57  1  0
 57 58  1  0
 58 59  1  0
 59 60  1  0
 60 61  1  0
 61 62  1  0
 62 63  1  0
 63 64  1  0
 64 65  1  0
 65 66  1  0
 66 67  1  0
 67 68  1  0
 68 69  1  0
 69 70  1  0
 70 71  1  0
 71 72  1  0
 72 73  2  0
 73 74  1  0
 74 75  2  0
 75  1  1  0
 10  6  1  0
M  END
>  <Title>  (670) 
idAAXVgen13

$$$$

     RDKit          2D

 27 30  0  0  0  0  0  0  0  0999 V2000
   -3.1476   -2.1380    0.0000 C   0  0  0  0  0  0  0  0  0  0  0  0
   -1.6852   -2.4718    0.0000 C   0  0  0  0  0  0  0  0  0  0  0  0
   -1.3515   -3.9342    0.0000 N   0  0  0  0  0  0  0  0  0  0  0  0
   -0.0000   -4.5850    0.0000 C   0  0  0  0  0  0  0  0  0  0  0  0
    1.3515   -3.9342    0.0000 C   0  0  0  0  0  0  0  0  0  0  0  0
    1.6852   -2.4718    0.0000 C   0  0  0  0  0  0  0  0  0  0  0  0
    3.1476   -2.1380    0.0000 N   0  0  0  0  0  0  0  0  0  0  0  0
    3.7372   -0.7587    0.0000 C   0  0  0  0  0  0  0  0  0  0  0  0
    5.2311   -0.8932    0.0000 C   0  0  0  0  0  0  0  0  0  0  0  0
    5.5649   -2.3556    0.0000 C   0  0  0  0  0  0  0  0  0  0  0  0
    6.9442   -2.9451    0.0000 C   0  0  0  0  0  0  0  0  0  0  0  0
    8.1444   -2.0454    0.0000 O   0  0  0  0  0  0  0  0  0  0  0  0
    7.1233   -4.4344    0.0000 N   0  0  0  0  0  0  0  0  0  0  0  0
    8.5026   -5.0239    0.0000 C   0  0  0  0  0  0  0  0  0  0  0  0
    8.6817   -6.5132    0.0000 N   0  0  0  0  0  0  0  0  0  0  0  0
   10.0610   -7.1027    0.0000 N   0  0  0  0  0  0  0  0  0  0  0  0
   11.2612   -6.2030    0.0000 N   0  0  0  0  0  0  0  0  0  0  0  0
   11.0821   -4.7137    0.0000 N   0  0  0  0  0  0  0  0  0  0  0  0
    9.7028   -4.1242    0.0000 N   0  0  0  0  0  0  0  0  0  0  0  0
    4.2772   -3.1249    0.0000 C   0  0  0  0  0  0  0  0  0  0  0  0
    4.1428   -4.6189    0.0000 O   0  0  0  0  0  0  0  0  0  0  0  0
    0.7500   -1.2990    0.0000 C   0  0  0  0  0  0  0  0  0  0  0  0
    1.5000    0.0000    0.0000 C   0  0  0  0  0  0  0  0  0  0  0  0
    0.7500    1.2990    0.0000 C   0  0  0  0  0  0  0  0  0  0  0  0
   -0.7500    1.2990    0.0000 C   0  0  0  0  0  0  0  0  0  0  0  0
   -1.5000    0.0000    0.0000 C   0  0  0  0  0  0  0  0  0  0  0  0
   -0.7500   -1.2990    0.0000 C   0  0  0  0  0  0  0  0  0  0  0  0
  1  2  1  0
  2  3  1  0
  3  4  1  0
  4  5  1  0
  5  6  2  0
  6  7  1  0
  7  8  1  0
  8  9  1  0
  9 10  2  0
 10 11  1  0
 11 12  2  0
 11 13  1  0
 13 14  1  0
 14 15  2  0
 15 16  1  0
 16 17  2  0
 17 18  1  0
 18 19  2  0
 10 20  1  0
 20 21  2  0
  6 22  1  0
 22 23  2  0
 23 24  1  0
 24 25  2  0
 25 26  1  0
 26 27  2  0
 27  2  1  0
 20  7  1  0
 27 22  1  0
 19 14  1  0
M  END
>  <Title>  (671) 
idAAXWgen13

$$$$

     RDKit          2D

  6  5  0  0  0  0  0  0  0  0999 V2000
    0.0000    0.0000    0.0000 C   0  0  0  0  0  0  0  0  0  0  0  0
    1.2990    0.7500    0.0000 C   0  0  0  0  0  0  0  0  0  0  0  0
    2.5981   -0.0000    0.0000 C   0  0  0  0  0  0  0  0  0  0  0  0
    3.8971    0.7500    0.0000 C   0  0  0  0  0  0  0  0  0  0  0  0
    5.1962   -0.0000    0.0000 C   0  0  0  0  0  0  0  0  0  0  0  0
    3.8971    2.2500    0.0000 O   0  0  0  0  0  0  0  0  0  0  0  0
  1  2  1  0
  2  3  1  0
  3  4  1  0
  4  5  1  0
  4  6  2  0
M  END
>  <Title>  (672) 
idAAXXgen13

$$$$

     RDKit          2D

 93 96  0  0  0  0  0  0  0  0999 V2000
   11.7076   10.9328    0.0000 C   0  0  0  0  0  0  0  0  0  0  0  0
   12.8687    9.9831    0.0000 C   0  0  0  0  0  0  0  0  0  0  0  0
   13.9087   11.0640    0.0000 C   0  0  0  0  0  0  0  0  0  0  0  0
   15.1086   11.9641    0.0000 C   0  0  0  0  0  0  0  0  0  0  0  0
   16.4374   12.6601    0.0000 C   0  0  0  0  0  0  0  0  0  0  0  0
   17.8606   13.1339    0.0000 C   0  0  0  0  0  0  0  0  0  0  0  0
   19.3414   13.3732    0.0000 C   0  0  0  0  0  0  0  0  0  0  0  0
   20.8414   13.3719    0.0000 C   0  0  0  0  0  0  0  0  0  0  0  0
   22.3218   13.1300    0.0000 C   0  0  0  0  0  0  0  0  0  0  0  0
   23.7442   12.6538    0.0000 C   0  0  0  0  0  0  0  0  0  0  0  0
   25.0718   11.9556    0.0000 C   0  0  0  0  0  0  0  0  0  0  0  0
   26.2702   11.0534    0.0000 C   0  0  0  0  0  0  0  0  0  0  0  0
   27.3083    9.9707    0.0000 C   0  0  0  0  0  0  0  0  0  0  0  0
   28.1594    8.7355    0.0000 C   0  0  0  0  0  0  0  0  0  0  0  0
   28.8012    7.3798    0.0000 C   0  0  0  0  0  0  0  0  0  0  0  0
   29.2173    5.9387    0.0000 C   0  0  0  0  0  0  0  0  0  0  0  0
   29.3969    4.4495    0.0000 C   0  0  0  0  0  0  0  0  0  0  0  0
   29.3352    2.9507    0.0000 C   0  0  0  0  0  0  0  0  0  0  0  0
   29.0339    1.4813    0.0000 C   0  0  0  0  0  0  0  0  0  0  0  0
   28.5008    0.0792    0.0000 C   0  0  0  0  0  0  0  0  0  0  0  0
   27.7497   -1.2192    0.0000 C   0  0  0  0  0  0  0  0  0  0  0  0
   26.8000   -2.3803    0.0000 C   0  0  0  0  0  0  0  0  0  0  0  0
   25.6764   -3.3740    0.0000 C   0  0  0  0  0  0  0  0  0  0  0  0
   24.4079   -4.1746    0.0000 C   0  0  0  0  0  0  0  0  0  0  0  0
   23.0274   -4.7614    0.0000 C   0  0  0  0  0  0  0  0  0  0  0  0
   21.5707   -5.1191    0.0000 C   0  0  0  0  0  0  0  0  0  0  0  0
   20.0755   -5.2385    0.0000 C   0  0  0  0  0  0  0  0  0  0  0  0
   18.5804   -5.1165    0.0000 C   0  0  0  0  0  0  0  0  0  0  0  0
   17.1243   -4.7563    0.0000 C   0  0  0  0  0  0  0  0  0  0  0  0
   15.7449   -4.1672    0.0000 C   0  0  0  0  0  0  0  0  0  0  0  0
   14.4778   -3.3644    0.0000 C   0  0  0  0  0  0  0  0  0  0  0  0
   13.3559   -2.3687    0.0000 C   0  0  0  0  0  0  0  0  0  0  0  0
   12.4082   -1.2060    0.0000 C   0  0  0  0  0  0  0  0  0  0  0  0
   11.6593    0.0937    0.0000 C   0  0  0  0  0  0  0  0  0  0  0  0
   11.1286    1.4967    0.0000 C   0  0  0  0  0  0  0  0  0  0  0  0
   10.5288   -0.0000    0.0000 C   0  0  0  0  0  0  0  0  0  0  0  0
   10.4348   -1.4033    0.0000 C   0  0  0  0  0  0  0  0  0  0  0  0
   10.1547   -2.7817    0.0000 C   0  0  0  0  0  0  0  0  0  0  0  0
    9.6933   -4.1103    0.0000 C   0  0  0  0  0  0  0  0  0  0  0  0
    9.0590   -5.3656    0.0000 C   0  0  0  0  0  0  0  0  0  0  0  0
    8.2630   -6.5252    0.0000 C   0  0  0  0  0  0  0  0  0  0  0  0
    7.3195   -7.5683    0.0000 C   0  0  0  0  0  0  0  0  0  0  0  0
    6.2455   -8.4764    0.0000 C   0  0  0  0  0  0  0  0  0  0  0  0
    5.0599   -9.2332    0.0000 C   0  0  0  0  0  0  0  0  0  0  0  0
    3.7841   -9.8253    0.0000 C   0  0  0  0  0  0  0  0  0  0  0  0
    2.4408  -10.2420    0.0000 C   0  0  0  0  0  0  0  0  0  0  0  0
    1.0539  -10.4759    0.0000 C   0  0  0  0  0  0  0  0  0  0  0  0
   -0.3518  -10.5229    0.0000 C   0  0  0  0  0  0  0  0  0  0  0  0
   -1.7512  -10.3821    0.0000 C   0  0  0  0  0  0  0  0  0  0  0  0
   -3.1194  -10.0561    0.0000 C   0  0  0  0  0  0  0  0  0  0  0  0
   -4.4319   -9.5506    0.0000 C   0  0  0  0  0  0  0  0  0  0  0  0
   -5.6654   -8.8746    0.0000 C   0  0  0  0  0  0  0  0  0  0  0  0
   -6.7977   -8.0403    0.0000 C   0  0  0  0  0  0  0  0  0  0  0  0
   -7.8087   -7.0625    0.0000 C   0  0  0  0  0  0  0  0  0  0  0  0
   -8.6804   -5.9587    0.0000 C   0  0  0  0  0  0  0  0  0  0  0  0
   -9.3971   -4.7486    0.0000 C   0  0  0  0  0  0  0  0  0  0  0  0
   -9.9462   -3.4537    0.0000 C   0  0  0  0  0  0  0  0  0  0  0  0
  -10.3178   -2.0972    0.0000 C   0  0  0  0  0  0  0  0  0  0  0  0
  -10.5053   -0.7032    0.0000 C   0  0  0  0  0  0  0  0  0  0  0  0
  -10.5053    0.7032    0.0000 C   0  0  0  0  0  0  0  0  0  0  0  0
  -10.3178    2.0972    0.0000 C   0  0  0  0  0  0  0  0  0  0  0  0
   -9.9462    3.4537    0.0000 C   0  0  0  0  0  0  0  0  0  0  0  0
   -9.3971    4.7486    0.0000 C   0  0  0  0  0  0  0  0  0  0  0  0
   -8.6804    5.9587    0.0000 C   0  0  0  0  0  0  0  0  0  0  0  0
   -7.8087    7.0625    0.0000 C   0  0  0  0  0  0  0  0  0  0  0  0
   -6.7977    8.0403    0.0000 C   0  0  0  0  0  0  0  0  0  0  0  0
   -5.6654    8.8746    0.0000 C   0  0  0  0  0  0  0  0  0  0  0  0
   -4.4319    9.5506    0.0000 C   0  0  0  0  0  0  0  0  0  0  0  0
   -3.1194   10.0561    0.0000 C   0  0  0  0  0  0  0  0  0  0  0  0
   -1.7512   10.3821    0.0000 C   0  0  0  0  0  0  0  0  0  0  0  0
   -0.3518   10.5229    0.0000 C   0  0  0  0  0  0  0  0  0  0  0  0
    1.0539   10.4759    0.0000 C   0  0  0  0  0  0  0  0  0  0  0  0
    2.4408   10.2420    0.0000 C   0  0  0  0  0  0  0  0  0  0  0  0
    3.7841    9.8253    0.0000 C   0  0  0  0  0  0  0  0  0  0  0  0
    5.0599    9.2332    0.0000 C   0  0  0  0  0  0  0  0  0  0  0  0
    6.2455    8.4764    0.0000 C   0  0  0  0  0  0  0  0  0  0  0  0
    7.3195    7.5683    0.0000 C   0  0  0  0  0  0  0  0  0  0  0  0
    8.2630    6.5252    0.0000 C   0  0  0  0  0  0  0  0  0  0  0  0
    9.0590    5.3656    0.0000 C   0  0  0  0  0  0  0  0  0  0  0  0
    9.6933    4.1103    0.0000 C   0  0  0  0  0  0  0  0  0  0  0  0
   10.8298    2.9666    0.0000 C   0  0  0  0  0  0  0  0  0  0  0  0
   10.7707    4.4654    0.0000 C   0  0  0  0  0  0  0  0  0  0  0  0
   11.9691    3.5633    0.0000 C   0  0  0  0  0  0  0  0  0  0  0  0
   13.3496    4.1501    0.0000 C   0  0  0  0  0  0  0  0  0  0  0  0
   13.5316    5.6390    0.0000 C   0  0  0  0  0  0  0  0  0  0  0  0
   12.3333    6.5411    0.0000 C   0  0  0  0  0  0  0  0  0  0  0  0
   10.9528    5.9543    0.0000 C   0  0  0  0  0  0  0  0  0  0  0  0
   11.3713    7.3948    0.0000 C   0  0  0  0  0  0  0  0  0  0  0  0
    9.8761    7.2753    0.0000 C   0  0  0  0  0  0  0  0  0  0  0  0
    9.0251    8.5105    0.0000 C   0  0  0  0  0  0  0  0  0  0  0  0
    9.6693    9.8652    0.0000 C   0  0  0  0  0  0  0  0  0  0  0  0
   11.1645    9.9846    0.0000 C   0  0  0  0  0  0  0  0  0  0  0  0
   12.0155    8.7494    0.0000 C   0  0  0  0  0  0  0  0  0  0  0  0
  1  2  1  0
  2  3  1  0
  3  4  1  0
  4  5  1  0
  5  6  1  0
  6  7  1  0
  7  8  1  0
  8  9  1  0
  9 10  1  0
 10 11  1  0
 11 12  1  0
 12 13  1  0
 13 14  1  0
 14 15  1  0
 15 16  1  0
 16 17  1  0
 17 18  1  0
 18 19  1  0
 19 20  1  0
 20 21  1  0
 21 22  1  0
 22 23  1  0
 23 24  1  0
 24 25  1  0
 25 26  1  0
 26 27  1  0
 27 28  1  0
 28 29  1  0
 29 30  1  0
 30 31  1  0
 31 32  1  0
 32 33  1  0
 33 34  1  0
 34 35  1  0
 35 36  1  0
 36 37  1  0
 37 38  1  0
 38 39  1  0
 39 40  1  0
 40 41  1  0
 41 42  1  0
 42 43  1  0
 43 44  1  0
 44 45  2  0
 45 46  1  0
 46 47  2  0
 47 48  1  0
 48 49  2  0
 49 50  1  0
 50 51  2  0
 51 52  1  0
 52 53  2  0
 53 54  1  0
 54 55  2  0
 55 56  1  0
 56 57  2  0
 57 58  1  0
 58 59  2  0
 59 60  1  0
 60 61  2  0
 61 62  1  0
 62 63  2  0
 63 64  1  0
 64 65  2  0
 65 66  1  0
 66 67  2  0
 67 68  1  0
 68 69  2  0
 69 70  1  0
 70 71  2  0
 71 72  1  0
 72 73  2  0
 73 74  1  0
 74 75  2  0
 75 76  1  0
 76 77  2  0
 77 78  1  0
 78 79  2  0
 79 80  1  0
 80 81  2  0
 81 82  1  0
 82 83  2  0
 83 84  1  0
 84 85  2  0
 85 86  1  0
 86 87  2  0
 87 88  1  0
 88 89  2  0
 89 90  1  0
 90 91  2  0
 91 92  1  0
 92 93  2  0
 93  2  1  0
 81 35  1  0
 87 82  1  0
 93 88  1  0
M  END
>  <Title>  (673) 
idAAXYgen13

$$$$

     RDKit          2D

 40 44  0  0  0  0  0  0  0  0999 V2000
  -12.9329   -9.6444    0.0000 C   0  0  0  0  0  0  0  0  0  0  0  0
  -11.4330   -9.6668    0.0000 C   0  0  0  0  0  0  0  0  0  0  0  0
  -10.6637   -8.3792    0.0000 C   0  0  0  0  0  0  0  0  0  0  0  0
   -9.1638   -8.4016    0.0000 C   0  0  0  0  0  0  0  0  0  0  0  0
   -8.3945   -7.1139    0.0000 N   0  0  0  0  0  0  0  0  0  0  0  0
   -6.8947   -7.1364    0.0000 C   0  0  0  0  0  0  0  0  0  0  0  0
   -6.1642   -8.4465    0.0000 O   0  0  0  0  0  0  0  0  0  0  0  0
   -6.1253   -5.8487    0.0000 N   0  0  0  0  0  0  0  0  0  0  0  0
   -4.6255   -5.8711    0.0000 C   0  0  0  0  0  0  0  0  0  0  0  0
   -3.7621   -7.0977    0.0000 N   0  0  0  0  0  0  0  0  0  0  0  0
   -2.3287   -6.6556    0.0000 N   0  0  0  0  0  0  0  0  0  0  0  0
   -2.3063   -5.1558    0.0000 N   0  0  0  0  0  0  0  0  0  0  0  0
   -3.7258   -4.6709    0.0000 N   0  0  0  0  0  0  0  0  0  0  0  0
   -4.1679   -3.2376    0.0000 C   0  0  0  0  0  0  0  0  0  0  0  0
   -5.6303   -2.9038    0.0000 C   0  0  0  0  0  0  0  0  0  0  0  0
   -6.0724   -1.4704    0.0000 C   0  0  0  0  0  0  0  0  0  0  0  0
   -5.0522   -0.3709    0.0000 C   0  0  0  0  0  0  0  0  0  0  0  0
   -3.5898   -0.7046    0.0000 C   0  0  0  0  0  0  0  0  0  0  0  0
   -3.1476   -2.1380    0.0000 C   0  0  0  0  0  0  0  0  0  0  0  0
   -1.6852   -2.4718    0.0000 C   0  0  0  0  0  0  0  0  0  0  0  0
   -1.3515   -3.9342    0.0000 C   0  0  0  0  0  0  0  0  0  0  0  0
   -0.0000   -4.5850    0.0000 C   0  0  0  0  0  0  0  0  0  0  0  0
    1.3515   -3.9342    0.0000 C   0  0  0  0  0  0  0  0  0  0  0  0
    1.6852   -2.4718    0.0000 C   0  0  0  0  0  0  0  0  0  0  0  0
    3.1476   -2.1380    0.0000 C   0  0  0  0  0  0  0  0  0  0  0  0
    3.5898   -0.7046    0.0000 O   0  0  0  0  0  0  0  0  0  0  0  0
    4.1679   -3.2376    0.0000 N   0  0  0  0  0  0  0  0  0  0  0  0
    5.6303   -2.9038    0.0000 C   0  0  0  0  0  0  0  0  0  0  0  0
    5.9641   -1.4414    0.0000 C   0  0  0  0  0  0  0  0  0  0  0  0
    7.3155   -0.7906    0.0000 N   0  0  0  0  0  0  0  0  0  0  0  0
    8.6670   -1.4414    0.0000 N   0  0  0  0  0  0  0  0  0  0  0  0
    9.0007   -2.9038    0.0000 N   0  0  0  0  0  0  0  0  0  0  0  0
    8.0655   -4.0765    0.0000 N   0  0  0  0  0  0  0  0  0  0  0  0
    6.5655   -4.0765    0.0000 N   0  0  0  0  0  0  0  0  0  0  0  0
    0.7500   -1.2990    0.0000 C   0  0  0  0  0  0  0  0  0  0  0  0
    1.5000    0.0000    0.0000 C   0  0  0  0  0  0  0  0  0  0  0  0
    0.7500    1.2990    0.0000 C   0  0  0  0  0  0  0  0  0  0  0  0
   -0.7500    1.2990    0.0000 C   0  0  0  0  0  0  0  0  0  0  0  0
   -1.5000    0.0000    0.0000 C   0  0  0  0  0  0  0  0  0  0  0  0
   -0.7500   -1.2990    0.0000 C   0  0  0  0  0  0  0  0  0  0  0  0
  1  2  2  0
  2  3  1  0
  3  4  1  0
  4  5  1  0
  5  6  1  0
  6  7  2  0
  6  8  1  0
  8  9  1  0
  9 10  2  0
 10 11  1  0
 11 12  2  0
 12 13  1  0
 13 14  1  0
 14 15  2  0
 15 16  1  0
 16 17  2  0
 17 18  1  0
 18 19  2  0
 19 20  1  0
 20 21  2  0
 21 22  1  0
 22 23  2  0
 23 24  1  0
 24 25  1  0
 25 26  2  0
 25 27  1  0
 27 28  1  0
 28 29  1  0
 29 30  1  0
 30 31  1  0
 31 32  2  0
 32 33  1  0
 33 34  2  0
 24 35  1  0
 35 36  2  0
 36 37  1  0
 37 38  2  0
 38 39  1  0
 39 40  2  0
 13  9  1  0
 19 14  1  0
 40 20  1  0
 34 28  1  0
 40 35  1  0
M  END
>  <Title>  (674) 
idAAXZgen13

$$$$

     RDKit          2D

104107  0  0  0  0  0  0  0  0999 V2000
   12.1914   10.9519    0.0000 C   0  0  0  0  0  0  0  0  0  0  0  0
   13.4571   10.1469    0.0000 C   0  0  0  0  0  0  0  0  0  0  0  0
   14.3466   11.3548    0.0000 C   0  0  0  0  0  0  0  0  0  0  0  0
   15.3922   12.4302    0.0000 C   0  0  0  0  0  0  0  0  0  0  0  0
   16.5746   13.3533    0.0000 C   0  0  0  0  0  0  0  0  0  0  0  0
   17.8716   14.1068    0.0000 C   0  0  0  0  0  0  0  0  0  0  0  0
   19.2592   14.6766    0.0000 C   0  0  0  0  0  0  0  0  0  0  0  0
   20.7114   15.0522    0.0000 C   0  0  0  0  0  0  0  0  0  0  0  0
   22.2012   15.2266    0.0000 C   0  0  0  0  0  0  0  0  0  0  0  0
   23.7009   15.1965    0.0000 C   0  0  0  0  0  0  0  0  0  0  0  0
   25.1825   14.9624    0.0000 C   0  0  0  0  0  0  0  0  0  0  0  0
   26.6185   14.5288    0.0000 C   0  0  0  0  0  0  0  0  0  0  0  0
   27.9820   13.9037    0.0000 C   0  0  0  0  0  0  0  0  0  0  0  0
   29.2477   13.0987    0.0000 C   0  0  0  0  0  0  0  0  0  0  0  0
   30.3921   12.1289    0.0000 C   0  0  0  0  0  0  0  0  0  0  0  0
   31.3937   11.0123    0.0000 C   0  0  0  0  0  0  0  0  0  0  0  0
   32.2339    9.7697    0.0000 C   0  0  0  0  0  0  0  0  0  0  0  0
   32.8971    8.4243    0.0000 C   0  0  0  0  0  0  0  0  0  0  0  0
   33.3709    7.0011    0.0000 C   0  0  0  0  0  0  0  0  0  0  0  0
   33.6466    5.5266    0.0000 C   0  0  0  0  0  0  0  0  0  0  0  0
   33.7188    4.0284    0.0000 C   0  0  0  0  0  0  0  0  0  0  0  0
   33.5864    2.5342    0.0000 C   0  0  0  0  0  0  0  0  0  0  0  0
   33.2518    1.0720    0.0000 C   0  0  0  0  0  0  0  0  0  0  0  0
   32.7212   -0.3310    0.0000 C   0  0  0  0  0  0  0  0  0  0  0  0
   32.0045   -1.6487    0.0000 C   0  0  0  0  0  0  0  0  0  0  0  0
   31.1150   -2.8565    0.0000 C   0  0  0  0  0  0  0  0  0  0  0  0
   30.0694   -3.9320    0.0000 C   0  0  0  0  0  0  0  0  0  0  0  0
   28.8871   -4.8551    0.0000 C   0  0  0  0  0  0  0  0  0  0  0  0
   27.5900   -5.6085    0.0000 C   0  0  0  0  0  0  0  0  0  0  0  0
   26.2025   -6.1784    0.0000 C   0  0  0  0  0  0  0  0  0  0  0  0
   24.7503   -6.5540    0.0000 C   0  0  0  0  0  0  0  0  0  0  0  0
   23.2604   -6.7283    0.0000 C   0  0  0  0  0  0  0  0  0  0  0  0
   21.7607   -6.6982    0.0000 C   0  0  0  0  0  0  0  0  0  0  0  0
   20.2791   -6.4642    0.0000 C   0  0  0  0  0  0  0  0  0  0  0  0
   18.8432   -6.0305    0.0000 C   0  0  0  0  0  0  0  0  0  0  0  0
   17.4796   -5.4054    0.0000 C   0  0  0  0  0  0  0  0  0  0  0  0
   16.2139   -4.6005    0.0000 C   0  0  0  0  0  0  0  0  0  0  0  0
   15.0696   -3.6306    0.0000 C   0  0  0  0  0  0  0  0  0  0  0  0
   14.0680   -2.5140    0.0000 C   0  0  0  0  0  0  0  0  0  0  0  0
   13.2278   -1.2715    0.0000 C   0  0  0  0  0  0  0  0  0  0  0  0
   12.5645    0.0740    0.0000 C   0  0  0  0  0  0  0  0  0  0  0  0
   12.0907    1.4972    0.0000 C   0  0  0  0  0  0  0  0  0  0  0  0
   11.4831    0.0000    0.0000 C   0  0  0  0  0  0  0  0  0  0  0  0
   11.3960   -1.4111    0.0000 C   0  0  0  0  0  0  0  0  0  0  0  0
   11.1362   -2.8009    0.0000 C   0  0  0  0  0  0  0  0  0  0  0  0
   10.7076   -4.1482    0.0000 C   0  0  0  0  0  0  0  0  0  0  0  0
   10.1167   -5.4326    0.0000 C   0  0  0  0  0  0  0  0  0  0  0  0
    9.3724   -6.6346    0.0000 C   0  0  0  0  0  0  0  0  0  0  0  0
    8.4861   -7.7361    0.0000 C   0  0  0  0  0  0  0  0  0  0  0  0
    7.4711   -8.7203    0.0000 C   0  0  0  0  0  0  0  0  0  0  0  0
    6.3428   -9.5723    0.0000 C   0  0  0  0  0  0  0  0  0  0  0  0
    5.1184  -10.2792    0.0000 C   0  0  0  0  0  0  0  0  0  0  0  0
    3.8164  -10.8303    0.0000 C   0  0  0  0  0  0  0  0  0  0  0  0
    2.4566  -11.2172    0.0000 C   0  0  0  0  0  0  0  0  0  0  0  0
    1.0595  -11.4341    0.0000 C   0  0  0  0  0  0  0  0  0  0  0  0
   -0.3536  -11.4776    0.0000 C   0  0  0  0  0  0  0  0  0  0  0  0
   -1.7614  -11.3472    0.0000 C   0  0  0  0  0  0  0  0  0  0  0  0
   -3.1425  -11.0447    0.0000 C   0  0  0  0  0  0  0  0  0  0  0  0
   -4.4759  -10.5748    0.0000 C   0  0  0  0  0  0  0  0  0  0  0  0
   -5.7415   -9.9446    0.0000 C   0  0  0  0  0  0  0  0  0  0  0  0
   -6.9201   -9.1637    0.0000 C   0  0  0  0  0  0  0  0  0  0  0  0
   -7.9937   -8.2438    0.0000 C   0  0  0  0  0  0  0  0  0  0  0  0
   -8.9462   -7.1990    0.0000 C   0  0  0  0  0  0  0  0  0  0  0  0
   -9.7631   -6.0451    0.0000 C   0  0  0  0  0  0  0  0  0  0  0  0
  -10.4320   -4.7995    0.0000 C   0  0  0  0  0  0  0  0  0  0  0  0
  -10.9427   -3.4811    0.0000 C   0  0  0  0  0  0  0  0  0  0  0  0
  -11.2875   -2.1100    0.0000 C   0  0  0  0  0  0  0  0  0  0  0  0
  -11.4613   -0.7069    0.0000 C   0  0  0  0  0  0  0  0  0  0  0  0
  -11.4613    0.7069    0.0000 C   0  0  0  0  0  0  0  0  0  0  0  0
  -11.2875    2.1100    0.0000 C   0  0  0  0  0  0  0  0  0  0  0  0
  -10.9427    3.4811    0.0000 C   0  0  0  0  0  0  0  0  0  0  0  0
  -10.4320    4.7995    0.0000 C   0  0  0  0  0  0  0  0  0  0  0  0
   -9.7631    6.0451    0.0000 C   0  0  0  0  0  0  0  0  0  0  0  0
   -8.9462    7.1990    0.0000 C   0  0  0  0  0  0  0  0  0  0  0  0
   -7.9937    8.2438    0.0000 C   0  0  0  0  0  0  0  0  0  0  0  0
   -6.9201    9.1637    0.0000 C   0  0  0  0  0  0  0  0  0  0  0  0
   -5.7415    9.9446    0.0000 C   0  0  0  0  0  0  0  0  0  0  0  0
   -4.4759   10.5748    0.0000 C   0  0  0  0  0  0  0  0  0  0  0  0
   -3.1425   11.0447    0.0000 C   0  0  0  0  0  0  0  0  0  0  0  0
   -1.7614   11.3472    0.0000 C   0  0  0  0  0  0  0  0  0  0  0  0
   -0.3536   11.4776    0.0000 C   0  0  0  0  0  0  0  0  0  0  0  0
    1.0595   11.4341    0.0000 C   0  0  0  0  0  0  0  0  0  0  0  0
    2.4566   11.2172    0.0000 C   0  0  0  0  0  0  0  0  0  0  0  0
    3.8164   10.8303    0.0000 C   0  0  0  0  0  0  0  0  0  0  0  0
    5.1184   10.2792    0.0000 C   0  0  0  0  0  0  0  0  0  0  0  0
    6.3428    9.5723    0.0000 C   0  0  0  0  0  0  0  0  0  0  0  0
    7.4711    8.7203    0.0000 C   0  0  0  0  0  0  0  0  0  0  0  0
    8.4861    7.7361    0.0000 C   0  0  0  0  0  0  0  0  0  0  0  0
    9.3724    6.6346    0.0000 C   0  0  0  0  0  0  0  0  0  0  0  0
   10.1167    5.4326    0.0000 C   0  0  0  0  0  0  0  0  0  0  0  0
   10.7076    4.1482    0.0000 C   0  0  0  0  0  0  0  0  0  0  0  0
   11.8151    2.9716    0.0000 C   0  0  0  0  0  0  0  0  0  0  0  0
   11.7428    4.4699    0.0000 C   0  0  0  0  0  0  0  0  0  0  0  0
   12.9706    3.6081    0.0000 C   0  0  0  0  0  0  0  0  0  0  0  0
   14.3307    4.2405    0.0000 C   0  0  0  0  0  0  0  0  0  0  0  0
   14.4631    5.7347    0.0000 C   0  0  0  0  0  0  0  0  0  0  0  0
   13.2354    6.5964    0.0000 C   0  0  0  0  0  0  0  0  0  0  0  0
   11.8752    5.9640    0.0000 C   0  0  0  0  0  0  0  0  0  0  0  0
   12.2098    7.4262    0.0000 C   0  0  0  0  0  0  0  0  0  0  0  0
   10.7295    7.1842    0.0000 C   0  0  0  0  0  0  0  0  0  0  0  0
    9.7797    8.3453    0.0000 C   0  0  0  0  0  0  0  0  0  0  0  0
   10.3103    9.7483    0.0000 C   0  0  0  0  0  0  0  0  0  0  0  0
   11.7907    9.9903    0.0000 C   0  0  0  0  0  0  0  0  0  0  0  0
   12.7404    8.8292    0.0000 C   0  0  0  0  0  0  0  0  0  0  0  0
  1  2  1  0
  2  3  1  0
  3  4  1  0
  4  5  1  0
  5  6  1  0
  6  7  1  0
  7  8  1  0
  8  9  1  0
  9 10  1  0
 10 11  1  0
 11 12  1  0
 12 13  1  0
 13 14  1  0
 14 15  1  0
 15 16  1  0
 16 17  1  0
 17 18  1  0
 18 19  1  0
 19 20  1  0
 20 21  1  0
 21 22  1  0
 22 23  1  0
 23 24  1  0
 24 25  1  0
 25 26  1  0
 26 27  1  0
 27 28  1  0
 28 29  1  0
 29 30  1  0
 30 31  1  0
 31 32  1  0
 32 33  1  0
 33 34  1  0
 34 35  1  0
 35 36  1  0
 36 37  1  0
 37 38  1  0
 38 39  1  0
 39 40  1  0
 40 41  1  0
 41 42  1  0
 42 43  1  0
 43 44  1  0
 44 45  1  0
 45 46  1  0
 46 47  1  0
 47 48  1  0
 48 49  1  0
 49 50  1  0
 50 51  1  0
 51 52  1  0
 52 53  1  0
 53 54  1  0
 54 55  1  0
 55 56  1  0
 56 57  1  0
 57 58  1  0
 58 59  1  0
 59 60  1  0
 60 61  1  0
 61 62  1  0
 62 63  1  0
 63 64  1  0
 64 65  1  0
 65 66  1  0
 66 67  1  0
 67 68  1  0
 68 69  1  0
 69 70  1  0
 70 71  1  0
 71 72  1  0
 72 73  1  0
 73 74  1  0
 74 75  1  0
 75 76  1  0
 76 77  1  0
 77 78  1  0
 78 79  1  0
 79 80  1  0
 80 81  1  0
 81 82  2  0
 82 83  1  0
 83 84  2  0
 84 85  1  0
 85 86  2  0
 86 87  1  0
 87 88  2  0
 88 89  1  0
 89 90  2  0
 90 91  1  0
 91 92  2  0
 92 93  1  0
 93 94  2  0
 94 95  1  0
 95 96  2  0
 96 97  1  0
 97 98  2  0
 98 99  1  0
 99100  2  0
100101  1  0
101102  2  0
102103  1  0
103104  2  0
104  2  1  0
 92 42  1  0
 98 93  1  0
104 99  1  0
M  END
>  <Title>  (675) 
idAAYAgen13

$$$$

     RDKit          2D

 14 13  0  0  0  0  0  0  0  0999 V2000
    0.0000    0.0000    0.0000 C   0  0  0  0  0  0  0  0  0  0  0  0
    1.2990    0.7500    0.0000 C   0  0  0  0  0  0  0  0  0  0  0  0
    2.5981   -0.0000    0.0000 C   0  0  0  0  0  0  0  0  0  0  0  0
    3.8971    0.7500    0.0000 C   0  0  0  0  0  0  0  0  0  0  0  0
    5.1962   -0.0000    0.0000 C   0  0  0  0  0  0  0  0  0  0  0  0
    6.4952    0.7500    0.0000 N   0  0  0  0  0  0  0  0  0  0  0  0
    7.7942   -0.0000    0.0000 C   0  0  0  0  0  0  0  0  0  0  0  0
    7.7942   -1.5000    0.0000 O   0  0  0  0  0  0  0  0  0  0  0  0
    9.0933    0.7500    0.0000 C   0  0  0  0  0  0  0  0  0  0  0  0
   10.3923   -0.0000    0.0000 C   0  0  0  0  0  0  0  0  0  0  0  0
   11.6913    0.7500    0.0000 C   0  0  0  0  0  0  0  0  0  0  0  0
   12.9904   -0.0000    0.0000 C   0  0  0  0  0  0  0  0  0  0  0  0
   14.2894    0.7500    0.0000 C   0  0  0  0  0  0  0  0  0  0  0  0
   12.9904   -1.5000    0.0000 C   0  0  0  0  0  0  0  0  0  0  0  0
  1  2  2  0
  2  3  1  0
  3  4  1  0
  4  5  2  3
  5  6  1  0
  6  7  1  0
  7  8  2  0
  7  9  1  0
  9 10  1  0
 10 11  1  0
 11 12  1  0
 12 13  1  0
 12 14  1  0
M  END
>  <Title>  (676) 
idAAYBgen13

$$$$

     RDKit          2D

 94 95  0  0  0  0  0  0  0  0999 V2000
   -2.1759   -1.0801    0.0000 C   0  0  0  0  0  0  0  0  0  0  0  0
   -2.4877    0.3871    0.0000 C   0  0  0  0  0  0  0  0  0  0  0  0
   -3.9649    0.1266    0.0000 C   0  0  0  0  0  0  0  0  0  0  0  0
   -5.4567   -0.0301    0.0000 C   0  0  0  0  0  0  0  0  0  0  0  0
   -6.9558   -0.0825    0.0000 C   0  0  0  0  0  0  0  0  0  0  0  0
   -8.4549   -0.0301    0.0000 C   0  0  0  0  0  0  0  0  0  0  0  0
   -9.9467    0.1266    0.0000 C   0  0  0  0  0  0  0  0  0  0  0  0
  -11.4239    0.3871    0.0000 C   0  0  0  0  0  0  0  0  0  0  0  0
  -12.8793    0.7500    0.0000 C   0  0  0  0  0  0  0  0  0  0  0  0
  -14.3059    1.2135    0.0000 C   0  0  0  0  0  0  0  0  0  0  0  0
  -15.6967    1.7754    0.0000 C   0  0  0  0  0  0  0  0  0  0  0  0
  -17.0449    2.4330    0.0000 C   0  0  0  0  0  0  0  0  0  0  0  0
  -18.3439    3.1830    0.0000 C   0  0  0  0  0  0  0  0  0  0  0  0
  -19.5875    4.0218    0.0000 C   0  0  0  0  0  0  0  0  0  0  0  0
  -20.7695    4.9453    0.0000 C   0  0  0  0  0  0  0  0  0  0  0  0
  -21.8842    5.9490    0.0000 C   0  0  0  0  0  0  0  0  0  0  0  0
  -22.9262    7.0280    0.0000 C   0  0  0  0  0  0  0  0  0  0  0  0
  -23.8904    8.1770    0.0000 C   0  0  0  0  0  0  0  0  0  0  0  0
  -24.7721    9.3906    0.0000 C   0  0  0  0  0  0  0  0  0  0  0  0
  -25.5669   10.6626    0.0000 C   0  0  0  0  0  0  0  0  0  0  0  0
  -26.2711   11.9871    0.0000 C   0  0  0  0  0  0  0  0  0  0  0  0
  -26.8813   13.3574    0.0000 C   0  0  0  0  0  0  0  0  0  0  0  0
  -27.3943   14.7669    0.0000 C   0  0  0  0  0  0  0  0  0  0  0  0
  -27.8077   16.2088    0.0000 C   0  0  0  0  0  0  0  0  0  0  0  0
  -28.1196   17.6760    0.0000 C   0  0  0  0  0  0  0  0  0  0  0  0
  -28.3284   19.1614    0.0000 C   0  0  0  0  0  0  0  0  0  0  0  0
  -28.4330   20.6578    0.0000 C   0  0  0  0  0  0  0  0  0  0  0  0
  -28.4330   22.1578    0.0000 C   0  0  0  0  0  0  0  0  0  0  0  0
  -28.3284   23.6541    0.0000 C   0  0  0  0  0  0  0  0  0  0  0  0
  -28.1196   25.1395    0.0000 C   0  0  0  0  0  0  0  0  0  0  0  0
  -27.8077   26.6068    0.0000 C   0  0  0  0  0  0  0  0  0  0  0  0
  -27.3943   28.0486    0.0000 C   0  0  0  0  0  0  0  0  0  0  0  0
  -26.8813   29.4582    0.0000 C   0  0  0  0  0  0  0  0  0  0  0  0
  -26.2711   30.8285    0.0000 C   0  0  0  0  0  0  0  0  0  0  0  0
  -25.5669   32.1529    0.0000 C   0  0  0  0  0  0  0  0  0  0  0  0
  -24.7721   33.4250    0.0000 C   0  0  0  0  0  0  0  0  0  0  0  0
  -23.8904   34.6385    0.0000 C   0  0  0  0  0  0  0  0  0  0  0  0
  -22.9262   35.7876    0.0000 C   0  0  0  0  0  0  0  0  0  0  0  0
  -21.8842   36.8666    0.0000 C   0  0  0  0  0  0  0  0  0  0  0  0
  -20.7695   37.8703    0.0000 C   0  0  0  0  0  0  0  0  0  0  0  0
  -19.5875   38.7938    0.0000 C   0  0  0  0  0  0  0  0  0  0  0  0
  -18.3439   39.6326    0.0000 C   0  0  0  0  0  0  0  0  0  0  0  0
  -17.0449   40.3826    0.0000 C   0  0  0  0  0  0  0  0  0  0  0  0
  -15.6967   41.0401    0.0000 C   0  0  0  0  0  0  0  0  0  0  0  0
  -14.3059   41.6020    0.0000 C   0  0  0  0  0  0  0  0  0  0  0  0
  -12.8793   42.0656    0.0000 C   0  0  0  0  0  0  0  0  0  0  0  0
  -11.4239   42.4285    0.0000 C   0  0  0  0  0  0  0  0  0  0  0  0
   -9.9467   42.6889    0.0000 C   0  0  0  0  0  0  0  0  0  0  0  0
   -8.4549   42.8457    0.0000 C   0  0  0  0  0  0  0  0  0  0  0  0
   -6.9558   42.8981    0.0000 C   0  0  0  0  0  0  0  0  0  0  0  0
   -5.4567   42.8457    0.0000 C   0  0  0  0  0  0  0  0  0  0  0  0
   -3.9649   42.6889    0.0000 C   0  0  0  0  0  0  0  0  0  0  0  0
   -2.4877   42.4285    0.0000 C   0  0  0  0  0  0  0  0  0  0  0  0
   -1.0323   42.0656    0.0000 C   0  0  0  0  0  0  0  0  0  0  0  0
    0.3943   41.6020    0.0000 C   0  0  0  0  0  0  0  0  0  0  0  0
    1.7851   41.0401    0.0000 C   0  0  0  0  0  0  0  0  0  0  0  0
    3.1333   40.3826    0.0000 C   0  0  0  0  0  0  0  0  0  0  0  0
    4.4323   39.6326    0.0000 C   0  0  0  0  0  0  0  0  0  0  0  0
    5.6759   38.7938    0.0000 C   0  0  0  0  0  0  0  0  0  0  0  0
    6.8579   37.8703    0.0000 C   0  0  0  0  0  0  0  0  0  0  0  0
    7.9726   36.8666    0.0000 C   0  0  0  0  0  0  0  0  0  0  0  0
    9.0146   35.7876    0.0000 C   0  0  0  0  0  0  0  0  0  0  0  0
    9.9788   34.6385    0.0000 C   0  0  0  0  0  0  0  0  0  0  0  0
   10.8604   33.4250    0.0000 C   0  0  0  0  0  0  0  0  0  0  0  0
   11.6553   32.1529    0.0000 C   0  0  0  0  0  0  0  0  0  0  0  0
   12.3595   30.8285    0.0000 C   0  0  0  0  0  0  0  0  0  0  0  0
   12.9696   29.4582    0.0000 C   0  0  0  0  0  0  0  0  0  0  0  0
   13.4827   28.0486    0.0000 C   0  0  0  0  0  0  0  0  0  0  0  0
   13.8961   26.6068    0.0000 C   0  0  0  0  0  0  0  0  0  0  0  0
   14.2080   25.1395    0.0000 C   0  0  0  0  0  0  0  0  0  0  0  0
   14.4167   23.6541    0.0000 C   0  0  0  0  0  0  0  0  0  0  0  0
   14.5214   22.1578    0.0000 C   0  0  0  0  0  0  0  0  0  0  0  0
   14.5214   20.6578    0.0000 C   0  0  0  0  0  0  0  0  0  0  0  0
   14.4167   19.1614    0.0000 C   0  0  0  0  0  0  0  0  0  0  0  0
   14.2080   17.6760    0.0000 C   0  0  0  0  0  0  0  0  0  0  0  0
   13.8961   16.2088    0.0000 C   0  0  0  0  0  0  0  0  0  0  0  0
   13.4827   14.7669    0.0000 C   0  0  0  0  0  0  0  0  0  0  0  0
   12.9696   13.3574    0.0000 C   0  0  0  0  0  0  0  0  0  0  0  0
   12.3595   11.9871    0.0000 C   0  0  0  0  0  0  0  0  0  0  0  0
   11.6553   10.6626    0.0000 C   0  0  0  0  0  0  0  0  0  0  0  0
   10.8604    9.3906    0.0000 C   0  0  0  0  0  0  0  0  0  0  0  0
    9.9788    8.1770    0.0000 C   0  0  0  0  0  0  0  0  0  0  0  0
    9.0146    7.0280    0.0000 C   0  0  0  0  0  0  0  0  0  0  0  0
    7.9726    5.9490    0.0000 C   0  0  0  0  0  0  0  0  0  0  0  0
    6.8579    4.9453    0.0000 C   0  0  0  0  0  0  0  0  0  0  0  0
    5.6759    4.0218    0.0000 C   0  0  0  0  0  0  0  0  0  0  0  0
    4.4323    3.1830    0.0000 C   0  0  0  0  0  0  0  0  0  0  0  0
    3.1333    2.4330    0.0000 C   0  0  0  0  0  0  0  0  0  0  0  0
    1.7851    1.7754    0.0000 C   0  0  0  0  0  0  0  0  0  0  0  0
    0.3943    1.2135    0.0000 C   0  0  0  0  0  0  0  0  0  0  0  0
    1.2760    0.0000    0.0000 C   0  0  0  0  0  0  0  0  0  0  0  0
    0.3943   -1.2135    0.0000 C   0  0  0  0  0  0  0  0  0  0  0  0
   -1.0323   -0.7500    0.0000 C   0  0  0  0  0  0  0  0  0  0  0  0
   -1.0323    0.7500    0.0000 C   0  0  0  0  0  0  0  0  0  0  0  0
  1  2  1  0
  2  3  1  0
  3  4  1  0
  4  5  1  0
  5  6  1  0
  6  7  1  0
  7  8  1  0
  8  9  1  0
  9 10  1  0
 10 11  1  0
 11 12  1  0
 12 13  1  0
 13 14  1  0
 14 15  1  0
 15 16  1  0
 16 17  1  0
 17 18  1  0
 18 19  1  0
 19 20  1  0
 20 21  1  0
 21 22  1  0
 22 23  1  0
 23 24  1  0
 24 25  1  0
 25 26  1  0
 26 27  1  0
 27 28  1  0
 28 29  1  0
 29 30  1  0
 30 31  1  0
 31 32  1  0
 32 33  1  0
 33 34  1  0
 34 35  1  0
 35 36  1  0
 36 37  1  0
 37 38  1  0
 38 39  1  0
 39 40  1  0
 40 41  1  0
 41 42  1  0
 42 43  1  0
 43 44  1  0
 44 45  1  0
 45 46  1  0
 46 47  1  0
 47 48  1  0
 48 49  1  0
 49 50  1  0
 50 51  1  0
 51 52  1  0
 52 53  1  0
 53 54  1  0
 54 55  1  0
 55 56  1  0
 56 57  1  0
 57 58  1  0
 58 59  1  0
 59 60  1  0
 60 61  1  0
 61 62  1  0
 62 63  1  0
 63 64  1  0
 64 65  1  0
 65 66  1  0
 66 67  1  0
 67 68  1  0
 68 69  1  0
 69 70  1  0
 70 71  1  0
 71 72  1  0
 72 73  1  0
 73 74  1  0
 74 75  1  0
 75 76  1  0
 76 77  1  0
 77 78  1  0
 78 79  1  0
 79 80  2  0
 80 81  1  0
 81 82  2  0
 82 83  1  0
 83 84  2  0
 84 85  1  0
 85 86  2  0
 86 87  1  0
 87 88  2  0
 88 89  1  0
 89 90  2  0
 90 91  1  0
 91 92  2  0
 92 93  1  0
 93 94  2  0
 94  2  1  0
 94 90  1  0
M  END
>  <Title>  (677) 
idAAYCgen13

$$$$

     RDKit          2D

 31 34  0  0  0  0  0  0  0  0999 V2000
    3.0000    0.0000    0.0000 C   0  0  0  0  0  0  0  0  0  0  0  0
    1.5000    0.0000    0.0000 C   0  0  0  0  0  0  0  0  0  0  0  0
    0.7500   -1.2990    0.0000 C   0  0  0  0  0  0  0  0  0  0  0  0
   -0.7500   -1.2990    0.0000 C   0  0  0  0  0  0  0  0  0  0  0  0
   -1.5000    0.0000    0.0000 C   0  0  0  0  0  0  0  0  0  0  0  0
   -3.0000    0.0000    0.0000 C   0  0  0  0  0  0  0  0  0  0  0  0
   -3.7500   -1.2990    0.0000 O   0  0  0  0  0  0  0  0  0  0  0  0
   -3.7500    1.2990    0.0000 N   0  0  0  0  0  0  0  0  0  0  0  0
   -5.2500    1.2990    0.0000 C   0  0  0  0  0  0  0  0  0  0  0  0
   -6.1317    0.0855    0.0000 N   0  0  0  0  0  0  0  0  0  0  0  0
   -7.5583    0.5490    0.0000 N   0  0  0  0  0  0  0  0  0  0  0  0
   -7.5583    2.0490    0.0000 N   0  0  0  0  0  0  0  0  0  0  0  0
   -6.1317    2.5126    0.0000 N   0  0  0  0  0  0  0  0  0  0  0  0
   -5.6682    3.9391    0.0000 N   0  0  0  0  0  0  0  0  0  0  0  0
   -6.5498    5.1527    0.0000 C   0  0  0  0  0  0  0  0  0  0  0  0
   -5.6682    6.3662    0.0000 C   0  0  0  0  0  0  0  0  0  0  0  0
   -4.2416    5.9027    0.0000 C   0  0  0  0  0  0  0  0  0  0  0  0
   -3.0280    6.7844    0.0000 C   0  0  0  0  0  0  0  0  0  0  0  0
   -3.1848    8.2761    0.0000 O   0  0  0  0  0  0  0  0  0  0  0  0
   -1.6577    6.1742    0.0000 N   0  0  0  0  0  0  0  0  0  0  0  0
   -0.4442    7.0559    0.0000 C   0  0  0  0  0  0  0  0  0  0  0  0
    0.9261    6.4458    0.0000 N   0  0  0  0  0  0  0  0  0  0  0  0
    2.1396    7.3275    0.0000 N   0  0  0  0  0  0  0  0  0  0  0  0
    1.9829    8.8193    0.0000 N   0  0  0  0  0  0  0  0  0  0  0  0
    0.6125    9.4294    0.0000 N   0  0  0  0  0  0  0  0  0  0  0  0
   -0.6010    8.5477    0.0000 N   0  0  0  0  0  0  0  0  0  0  0  0
   -4.2416    4.4027    0.0000 C   0  0  0  0  0  0  0  0  0  0  0  0
   -3.0280    3.5210    0.0000 O   0  0  0  0  0  0  0  0  0  0  0  0
   -0.7500    1.2990    0.0000 C   0  0  0  0  0  0  0  0  0  0  0  0
   -1.5000    2.5981    0.0000 O   0  0  0  0  0  0  0  0  0  0  0  0
    0.7500    1.2990    0.0000 O   0  0  0  0  0  0  0  0  0  0  0  0
  1  2  1  0
  2  3  2  0
  3  4  1  0
  4  5  2  0
  5  6  1  0
  6  7  2  0
  6  8  1  0
  8  9  1  0
  9 10  2  0
 10 11  1  0
 11 12  2  0
 12 13  1  0
 13 14  1  0
 14 15  1  0
 15 16  1  0
 16 17  1  0
 17 18  1  0
 18 19  2  0
 18 20  1  0
 20 21  1  0
 21 22  2  0
 22 23  1  0
 23 24  2  0
 24 25  1  0
 25 26  2  0
 17 27  1  0
 27 28  2  0
  5 29  1  0
 29 30  2  0
 29 31  1  0
 31  2  1  0
 13  9  1  0
 27 14  1  0
 26 21  1  0
M  END
>  <Title>  (678) 
idAAYDgen13

$$$$

     RDKit          2D

 22 22  0  0  0  0  0  0  0  0999 V2000
   25.5000    0.0000    0.0000 C   0  0  0  0  0  0  0  0  0  0  0  0
   24.0000    0.0000    0.0000 C   0  0  0  0  0  0  0  0  0  0  0  0
   22.5000    0.0000    0.0000 C   0  0  0  0  0  0  0  0  0  0  0  0
   21.0000    0.0000    0.0000 C   0  0  0  0  0  0  0  0  0  0  0  0
   19.5000    0.0000    0.0000 C   0  0  0  0  0  0  0  0  0  0  0  0
   18.0000    0.0000    0.0000 C   0  0  0  0  0  0  0  0  0  0  0  0
   16.5000    0.0000    0.0000 C   0  0  0  0  0  0  0  0  0  0  0  0
   15.0000    0.0000    0.0000 C   0  0  0  0  0  0  0  0  0  0  0  0
   13.5000    0.0000    0.0000 C   0  0  0  0  0  0  0  0  0  0  0  0
   12.0000    0.0000    0.0000 C   0  0  0  0  0  0  0  0  0  0  0  0
   10.5000    0.0000    0.0000 C   0  0  0  0  0  0  0  0  0  0  0  0
    9.0000    0.0000    0.0000 C   0  0  0  0  0  0  0  0  0  0  0  0
    7.5000    0.0000    0.0000 C   0  0  0  0  0  0  0  0  0  0  0  0
    6.0000    0.0000    0.0000 C   0  0  0  0  0  0  0  0  0  0  0  0
    4.5000    0.0000    0.0000 C   0  0  0  0  0  0  0  0  0  0  0  0
    3.0000    0.0000    0.0000 C   0  0  0  0  0  0  0  0  0  0  0  0
    1.5000    0.0000    0.0000 C   0  0  0  0  0  0  0  0  0  0  0  0
    0.7500   -1.2990    0.0000 C   0  0  0  0  0  0  0  0  0  0  0  0
   -0.7500   -1.2990    0.0000 C   0  0  0  0  0  0  0  0  0  0  0  0
   -1.5000    0.0000    0.0000 C   0  0  0  0  0  0  0  0  0  0  0  0
   -0.7500    1.2990    0.0000 C   0  0  0  0  0  0  0  0  0  0  0  0
    0.7500    1.2990    0.0000 C   0  0  0  0  0  0  0  0  0  0  0  0
  1  2  3  0
  2  3  1  0
  3  4  3  0
  4  5  1  0
  5  6  3  0
  6  7  1  0
  7  8  3  0
  8  9  1  0
  9 10  3  0
 10 11  1  0
 11 12  3  0
 12 13  1  0
 13 14  3  0
 14 15  1  0
 15 16  3  0
 16 17  1  0
 17 18  2  0
 18 19  1  0
 19 20  2  0
 20 21  1  0
 21 22  2  0
 22 17  1  0
M  END
>  <Title>  (679) 
idAAYEgen13

$$$$

     RDKit          2D

 42 47  0  0  0  0  0  0  0  0999 V2000
   -5.6682   -1.2570    0.0000 C   0  0  0  0  0  0  0  0  0  0  0  0
   -6.1317   -2.6836    0.0000 C   0  0  0  0  0  0  0  0  0  0  0  0
   -7.5583   -3.1471    0.0000 C   0  0  0  0  0  0  0  0  0  0  0  0
   -7.5583   -4.6471    0.0000 C   0  0  0  0  0  0  0  0  0  0  0  0
   -6.1317   -5.1106    0.0000 C   0  0  0  0  0  0  0  0  0  0  0  0
   -5.2500   -3.8971    0.0000 C   0  0  0  0  0  0  0  0  0  0  0  0
   -3.7500   -3.8971    0.0000 C   0  0  0  0  0  0  0  0  0  0  0  0
   -3.0000   -5.1962    0.0000 O   0  0  0  0  0  0  0  0  0  0  0  0
   -3.0000   -2.5981    0.0000 N   0  0  0  0  0  0  0  0  0  0  0  0
   -1.5000   -2.5981    0.0000 C   0  0  0  0  0  0  0  0  0  0  0  0
   -0.7500   -3.8971    0.0000 C   0  0  0  0  0  0  0  0  0  0  0  0
    0.7500   -3.8971    0.0000 C   0  0  0  0  0  0  0  0  0  0  0  0
    1.5000   -2.5981    0.0000 C   0  0  0  0  0  0  0  0  0  0  0  0
    3.0000   -2.5981    0.0000 C   0  0  0  0  0  0  0  0  0  0  0  0
    3.7500   -1.2990    0.0000 O   0  0  0  0  0  0  0  0  0  0  0  0
    3.7500   -3.8971    0.0000 N   0  0  0  0  0  0  0  0  0  0  0  0
    5.2500   -3.8971    0.0000 C   0  0  0  0  0  0  0  0  0  0  0  0
    6.1317   -2.6836    0.0000 N   0  0  0  0  0  0  0  0  0  0  0  0
    7.5583   -3.1471    0.0000 N   0  0  0  0  0  0  0  0  0  0  0  0
    7.5583   -4.6471    0.0000 N   0  0  0  0  0  0  0  0  0  0  0  0
    6.1317   -5.1106    0.0000 N   0  0  0  0  0  0  0  0  0  0  0  0
    5.6682   -6.5372    0.0000 N   0  0  0  0  0  0  0  0  0  0  0  0
    6.5498   -7.7508    0.0000 C   0  0  0  0  0  0  0  0  0  0  0  0
    5.6682   -8.9643    0.0000 C   0  0  0  0  0  0  0  0  0  0  0  0
    4.2416   -8.5008    0.0000 N   0  0  0  0  0  0  0  0  0  0  0  0
    3.0280   -9.3824    0.0000 C   0  0  0  0  0  0  0  0  0  0  0  0
    3.1848  -10.8742    0.0000 O   0  0  0  0  0  0  0  0  0  0  0  0
    1.6577   -8.7723    0.0000 N   0  0  0  0  0  0  0  0  0  0  0  0
    0.4442   -9.6540    0.0000 C   0  0  0  0  0  0  0  0  0  0  0  0
   -0.9261   -9.0439    0.0000 N   0  0  0  0  0  0  0  0  0  0  0  0
   -2.1396   -9.9256    0.0000 N   0  0  0  0  0  0  0  0  0  0  0  0
   -1.9829  -11.4174    0.0000 N   0  0  0  0  0  0  0  0  0  0  0  0
   -0.6125  -12.0275    0.0000 N   0  0  0  0  0  0  0  0  0  0  0  0
    0.6010  -11.1458    0.0000 N   0  0  0  0  0  0  0  0  0  0  0  0
    4.2416   -7.0008    0.0000 C   0  0  0  0  0  0  0  0  0  0  0  0
    3.0280   -6.1191    0.0000 O   0  0  0  0  0  0  0  0  0  0  0  0
    0.7500   -1.2990    0.0000 C   0  0  0  0  0  0  0  0  0  0  0  0
    1.5000    0.0000    0.0000 C   0  0  0  0  0  0  0  0  0  0  0  0
    0.7500    1.2990    0.0000 C   0  0  0  0  0  0  0  0  0  0  0  0
   -0.7500    1.2990    0.0000 C   0  0  0  0  0  0  0  0  0  0  0  0
   -1.5000    0.0000    0.0000 C   0  0  0  0  0  0  0  0  0  0  0  0
   -0.7500   -1.2990    0.0000 C   0  0  0  0  0  0  0  0  0  0  0  0
  1  2  1  0
  2  3  1  0
  3  4  2  0
  4  5  1  0
  5  6  1  0
  6  7  1  0
  7  8  2  0
  7  9  1  0
  9 10  1  0
 10 11  2  0
 11 12  1  0
 12 13  2  0
 13 14  1  0
 14 15  2  0
 14 16  1  0
 16 17  1  0
 17 18  2  0
 18 19  1  0
 19 20  2  0
 20 21  1  0
 21 22  1  0
 22 23  1  0
 23 24  1  0
 24 25  1  0
 25 26  1  0
 26 27  2  0
 26 28  1  0
 28 29  1  0
 29 30  2  0
 30 31  1  0
 31 32  2  0
 32 33  1  0
 33 34  2  0
 25 35  1  0
 35 36  2  0
 13 37  1  0
 37 38  2  0
 38 39  1  0
 39 40  2  0
 40 41  1  0
 41 42  2  0
  6  2  1  0
 42 10  1  0
 21 17  1  0
 35 22  1  0
 42 37  1  0
 34 29  1  0
M  END
>  <Title>  (680) 
idAAYFgen13

$$$$

     RDKit          2D

 76 76  0  0  0  0  0  0  0  0999 V2000
  106.5000    0.0000    0.0000 C   0  0  0  0  0  0  0  0  0  0  0  0
  105.0000    0.0000    0.0000 C   0  0  0  0  0  0  0  0  0  0  0  0
  103.5000    0.0000    0.0000 C   0  0  0  0  0  0  0  0  0  0  0  0
  102.0000    0.0000    0.0000 C   0  0  0  0  0  0  0  0  0  0  0  0
  100.5000    0.0000    0.0000 C   0  0  0  0  0  0  0  0  0  0  0  0
   99.0000    0.0000    0.0000 C   0  0  0  0  0  0  0  0  0  0  0  0
   97.5000    0.0000    0.0000 C   0  0  0  0  0  0  0  0  0  0  0  0
   96.0000    0.0000    0.0000 C   0  0  0  0  0  0  0  0  0  0  0  0
   94.5000    0.0000    0.0000 C   0  0  0  0  0  0  0  0  0  0  0  0
   93.0000    0.0000    0.0000 C   0  0  0  0  0  0  0  0  0  0  0  0
   91.5000    0.0000    0.0000 C   0  0  0  0  0  0  0  0  0  0  0  0
   90.0000    0.0000    0.0000 C   0  0  0  0  0  0  0  0  0  0  0  0
   88.5000    0.0000    0.0000 C   0  0  0  0  0  0  0  0  0  0  0  0
   87.0000    0.0000    0.0000 C   0  0  0  0  0  0  0  0  0  0  0  0
   85.5000    0.0000    0.0000 C   0  0  0  0  0  0  0  0  0  0  0  0
   84.0000    0.0000    0.0000 C   0  0  0  0  0  0  0  0  0  0  0  0
   82.5000    0.0000    0.0000 C   0  0  0  0  0  0  0  0  0  0  0  0
   81.0000    0.0000    0.0000 C   0  0  0  0  0  0  0  0  0  0  0  0
   79.5000    0.0000    0.0000 C   0  0  0  0  0  0  0  0  0  0  0  0
   78.0000    0.0000    0.0000 C   0  0  0  0  0  0  0  0  0  0  0  0
   76.5000    0.0000    0.0000 C   0  0  0  0  0  0  0  0  0  0  0  0
   75.0000    0.0000    0.0000 C   0  0  0  0  0  0  0  0  0  0  0  0
   73.5000    0.0000    0.0000 C   0  0  0  0  0  0  0  0  0  0  0  0
   72.0000    0.0000    0.0000 C   0  0  0  0  0  0  0  0  0  0  0  0
   70.5000    0.0000    0.0000 C   0  0  0  0  0  0  0  0  0  0  0  0
   69.0000    0.0000    0.0000 C   0  0  0  0  0  0  0  0  0  0  0  0
   67.5000    0.0000    0.0000 C   0  0  0  0  0  0  0  0  0  0  0  0
   66.0000    0.0000    0.0000 C   0  0  0  0  0  0  0  0  0  0  0  0
   64.5000    0.0000    0.0000 C   0  0  0  0  0  0  0  0  0  0  0  0
   63.0000    0.0000    0.0000 C   0  0  0  0  0  0  0  0  0  0  0  0
   61.5000    0.0000    0.0000 C   0  0  0  0  0  0  0  0  0  0  0  0
   60.0000    0.0000    0.0000 C   0  0  0  0  0  0  0  0  0  0  0  0
   58.5000    0.0000    0.0000 C   0  0  0  0  0  0  0  0  0  0  0  0
   57.0000    0.0000    0.0000 C   0  0  0  0  0  0  0  0  0  0  0  0
   55.5000    0.0000    0.0000 C   0  0  0  0  0  0  0  0  0  0  0  0
   54.0000    0.0000    0.0000 C   0  0  0  0  0  0  0  0  0  0  0  0
   52.5000    0.0000    0.0000 C   0  0  0  0  0  0  0  0  0  0  0  0
   51.0000    0.0000    0.0000 C   0  0  0  0  0  0  0  0  0  0  0  0
   49.5000    0.0000    0.0000 C   0  0  0  0  0  0  0  0  0  0  0  0
   48.0000    0.0000    0.0000 C   0  0  0  0  0  0  0  0  0  0  0  0
   46.5000    0.0000    0.0000 C   0  0  0  0  0  0  0  0  0  0  0  0
   45.0000    0.0000    0.0000 C   0  0  0  0  0  0  0  0  0  0  0  0
   43.5000    0.0000    0.0000 C   0  0  0  0  0  0  0  0  0  0  0  0
   42.0000    0.0000    0.0000 C   0  0  0  0  0  0  0  0  0  0  0  0
   40.5000    0.0000    0.0000 C   0  0  0  0  0  0  0  0  0  0  0  0
   39.0000    0.0000    0.0000 C   0  0  0  0  0  0  0  0  0  0  0  0
   37.5000    0.0000    0.0000 C   0  0  0  0  0  0  0  0  0  0  0  0
   36.0000    0.0000    0.0000 C   0  0  0  0  0  0  0  0  0  0  0  0
   34.5000    0.0000    0.0000 C   0  0  0  0  0  0  0  0  0  0  0  0
   33.0000    0.0000    0.0000 C   0  0  0  0  0  0  0  0  0  0  0  0
   31.5000    0.0000    0.0000 C   0  0  0  0  0  0  0  0  0  0  0  0
   30.0000    0.0000    0.0000 C   0  0  0  0  0  0  0  0  0  0  0  0
   28.5000    0.0000    0.0000 C   0  0  0  0  0  0  0  0  0  0  0  0
   27.0000    0.0000    0.0000 C   0  0  0  0  0  0  0  0  0  0  0  0
   25.5000    0.0000    0.0000 C   0  0  0  0  0  0  0  0  0  0  0  0
   24.0000    0.0000    0.0000 C   0  0  0  0  0  0  0  0  0  0  0  0
   22.5000    0.0000    0.0000 C   0  0  0  0  0  0  0  0  0  0  0  0
   21.0000    0.0000    0.0000 C   0  0  0  0  0  0  0  0  0  0  0  0
   19.5000    0.0000    0.0000 C   0  0  0  0  0  0  0  0  0  0  0  0
   18.0000    0.0000    0.0000 C   0  0  0  0  0  0  0  0  0  0  0  0
   16.5000    0.0000    0.0000 C   0  0  0  0  0  0  0  0  0  0  0  0
   15.0000    0.0000    0.0000 C   0  0  0  0  0  0  0  0  0  0  0  0
   13.5000    0.0000    0.0000 C   0  0  0  0  0  0  0  0  0  0  0  0
   12.0000    0.0000    0.0000 C   0  0  0  0  0  0  0  0  0  0  0  0
   10.5000    0.0000    0.0000 C   0  0  0  0  0  0  0  0  0  0  0  0
    9.0000    0.0000    0.0000 C   0  0  0  0  0  0  0  0  0  0  0  0
    7.5000    0.0000    0.0000 C   0  0  0  0  0  0  0  0  0  0  0  0
    6.0000    0.0000    0.0000 C   0  0  0  0  0  0  0  0  0  0  0  0
    4.5000    0.0000    0.0000 C   0  0  0  0  0  0  0  0  0  0  0  0
    3.0000    0.0000    0.0000 C   0  0  0  0  0  0  0  0  0  0  0  0
    1.5000    0.0000    0.0000 C   0  0  0  0  0  0  0  0  0  0  0  0
    0.7500   -1.2990    0.0000 C   0  0  0  0  0  0  0  0  0  0  0  0
   -0.7500   -1.2990    0.0000 C   0  0  0  0  0  0  0  0  0  0  0  0
   -1.5000    0.0000    0.0000 C   0  0  0  0  0  0  0  0  0  0  0  0
   -0.7500    1.2990    0.0000 C   0  0  0  0  0  0  0  0  0  0  0  0
    0.7500    1.2990    0.0000 C   0  0  0  0  0  0  0  0  0  0  0  0
  1  2  3  0
  2  3  1  0
  3  4  3  0
  4  5  1  0
  5  6  3  0
  6  7  1  0
  7  8  3  0
  8  9  1  0
  9 10  3  0
 10 11  1  0
 11 12  3  0
 12 13  1  0
 13 14  3  0
 14 15  1  0
 15 16  3  0
 16 17  1  0
 17 18  3  0
 18 19  1  0
 19 20  3  0
 20 21  1  0
 21 22  3  0
 22 23  1  0
 23 24  3  0
 24 25  1  0
 25 26  3  0
 26 27  1  0
 27 28  3  0
 28 29  1  0
 29 30  3  0
 30 31  1  0
 31 32  3  0
 32 33  1  0
 33 34  3  0
 34 35  1  0
 35 36  3  0
 36 37  1  0
 37 38  3  0
 38 39  1  0
 39 40  3  0
 40 41  1  0
 41 42  3  0
 42 43  1  0
 43 44  3  0
 44 45  1  0
 45 46  3  0
 46 47  1  0
 47 48  3  0
 48 49  1  0
 49 50  3  0
 50 51  1  0
 51 52  3  0
 52 53  1  0
 53 54  3  0
 54 55  1  0
 55 56  3  0
 56 57  1  0
 57 58  3  0
 58 59  1  0
 59 60  3  0
 60 61  1  0
 61 62  3  0
 62 63  1  0
 63 64  3  0
 64 65  1  0
 65 66  3  0
 66 67  1  0
 67 68  3  0
 68 69  1  0
 69 70  3  0
 70 71  1  0
 71 72  2  0
 72 73  1  0
 73 74  2  0
 74 75  1  0
 75 76  2  0
 76 71  1  0
M  END
>  <Title>  (681) 
idAAYGgen13

$$$$

     RDKit          2D

 13 13  0  0  0  0  0  0  0  0999 V2000
    8.2500   -3.8971    0.0000 C   0  0  0  0  0  0  0  0  0  0  0  0
    7.5000   -2.5981    0.0000 C   0  0  0  0  0  0  0  0  0  0  0  0
    6.0000   -2.5981    0.0000 C   0  0  0  0  0  0  0  0  0  0  0  0
    5.2500   -1.2990    0.0000 C   0  0  0  0  0  0  0  0  0  0  0  0
    3.7500   -1.2990    0.0000 C   0  0  0  0  0  0  0  0  0  0  0  0
    3.0000   -2.5981    0.0000 O   0  0  0  0  0  0  0  0  0  0  0  0
    3.0000    0.0000    0.0000 N   0  0  0  0  0  0  0  0  0  0  0  0
    1.5000    0.0000    0.0000 C   0  0  0  0  0  0  0  0  0  0  0  0
    0.7500   -1.2990    0.0000 C   0  0  0  0  0  0  0  0  0  0  0  0
   -0.7500   -1.2990    0.0000 C   0  0  0  0  0  0  0  0  0  0  0  0
   -1.5000    0.0000    0.0000 C   0  0  0  0  0  0  0  0  0  0  0  0
   -0.7500    1.2990    0.0000 O   0  0  0  0  0  0  0  0  0  0  0  0
    0.7500    1.2990    0.0000 C   0  0  0  0  0  0  0  0  0  0  0  0
  1  2  2  0
  2  3  1  0
  3  4  1  0
  4  5  1  0
  5  6  2  0
  5  7  1  0
  7  8  1  0
  8  9  2  0
  9 10  1  0
 10 11  2  0
 11 12  1  0
 12 13  1  0
 13  8  1  0
M  END
>  <Title>  (682) 
idAAYHgen13

$$$$

     RDKit          2D

 13 14  0  0  0  0  0  0  0  0999 V2000
    3.0000    0.0000    0.0000 C   0  0  0  0  0  0  0  0  0  0  0  0
    1.5000    0.0000    0.0000 C   0  0  0  0  0  0  0  0  0  0  0  0
    0.7500   -1.2990    0.0000 C   0  0  0  0  0  0  0  0  0  0  0  0
   -0.7500   -1.2990    0.0000 C   0  0  0  0  0  0  0  0  0  0  0  0
   -1.5000    0.0000    0.0000 N   0  0  0  0  0  0  0  0  0  0  0  0
   -0.7500    1.2990    0.0000 C   0  0  0  0  0  0  0  0  0  0  0  0
   -1.5000    2.5981    0.0000 N   0  0  0  0  0  0  0  0  0  0  0  0
   -0.7500    3.8971    0.0000 C   0  0  0  0  0  0  0  0  0  0  0  0
   -1.5000    5.1962    0.0000 C   0  0  0  0  0  0  0  0  0  0  0  0
   -3.0000    5.1962    0.0000 N   0  0  0  0  0  0  0  0  0  0  0  0
   -3.7500    3.8971    0.0000 N   0  0  0  0  0  0  0  0  0  0  0  0
   -3.0000    2.5981    0.0000 N   0  0  0  0  0  0  0  0  0  0  0  0
    0.7500    1.2990    0.0000 C   0  0  0  0  0  0  0  0  0  0  0  0
  1  2  1  0
  2  3  2  0
  3  4  1  0
  4  5  1  0
  5  6  2  0
  6  7  1  0
  7  8  1  0
  8  9  1  0
  9 10  2  0
 10 11  1  0
 11 12  2  0
  6 13  1  0
 13  2  1  0
 12  7  1  0
M  END
>  <Title>  (683) 
idAAYIgen13

$$$$

     RDKit          2D

 89 90  0  0  0  0  0  0  0  0999 V2000
    3.4715    4.0756    0.0000 C   0  0  0  0  0  0  0  0  0  0  0  0
    4.2400    4.2876    0.0000 C   0  0  0  0  0  0  0  0  0  0  0  0
    3.9094    5.7507    0.0000 C   0  0  0  0  0  0  0  0  0  0  0  0
    3.7173    7.2383    0.0000 C   0  0  0  0  0  0  0  0  0  0  0  0
    3.6653    8.7374    0.0000 C   0  0  0  0  0  0  0  0  0  0  0  0
    3.7539   10.2348    0.0000 C   0  0  0  0  0  0  0  0  0  0  0  0
    3.9824   11.7173    0.0000 C   0  0  0  0  0  0  0  0  0  0  0  0
    4.3486   13.1719    0.0000 C   0  0  0  0  0  0  0  0  0  0  0  0
    4.8495   14.5858    0.0000 C   0  0  0  0  0  0  0  0  0  0  0  0
    5.4806   15.9466    0.0000 C   0  0  0  0  0  0  0  0  0  0  0  0
    6.2363   17.2423    0.0000 C   0  0  0  0  0  0  0  0  0  0  0  0
    7.1101   18.4616    0.0000 C   0  0  0  0  0  0  0  0  0  0  0  0
    8.0941   19.5936    0.0000 C   0  0  0  0  0  0  0  0  0  0  0  0
    9.1799   20.6286    0.0000 C   0  0  0  0  0  0  0  0  0  0  0  0
   10.3578   21.5573    0.0000 C   0  0  0  0  0  0  0  0  0  0  0  0
   11.6175   22.3717    0.0000 C   0  0  0  0  0  0  0  0  0  0  0  0
   12.9479   23.0645    0.0000 C   0  0  0  0  0  0  0  0  0  0  0  0
   14.3374   23.6297    0.0000 C   0  0  0  0  0  0  0  0  0  0  0  0
   15.7736   24.0623    0.0000 C   0  0  0  0  0  0  0  0  0  0  0  0
   17.2441   24.3585    0.0000 C   0  0  0  0  0  0  0  0  0  0  0  0
   18.7358   24.5157    0.0000 C   0  0  0  0  0  0  0  0  0  0  0  0
   20.2358   24.5325    0.0000 C   0  0  0  0  0  0  0  0  0  0  0  0
   21.7306   24.4088    0.0000 C   0  0  0  0  0  0  0  0  0  0  0  0
   23.2074   24.1456    0.0000 C   0  0  0  0  0  0  0  0  0  0  0  0
   24.6530   23.7453    0.0000 C   0  0  0  0  0  0  0  0  0  0  0  0
   26.0548   23.2115    0.0000 C   0  0  0  0  0  0  0  0  0  0  0  0
   27.4004   22.5486    0.0000 C   0  0  0  0  0  0  0  0  0  0  0  0
   28.6780   21.7628    0.0000 C   0  0  0  0  0  0  0  0  0  0  0  0
   29.8765   20.8607    0.0000 C   0  0  0  0  0  0  0  0  0  0  0  0
   30.9851   19.8503    0.0000 C   0  0  0  0  0  0  0  0  0  0  0  0
   31.9944   18.7406    0.0000 C   0  0  0  0  0  0  0  0  0  0  0  0
   32.8952   17.5412    0.0000 C   0  0  0  0  0  0  0  0  0  0  0  0
   33.6798   16.2628    0.0000 C   0  0  0  0  0  0  0  0  0  0  0  0
   34.3413   14.9165    0.0000 C   0  0  0  0  0  0  0  0  0  0  0  0
   34.8737   13.5142    0.0000 C   0  0  0  0  0  0  0  0  0  0  0  0
   35.2725   12.0682    0.0000 C   0  0  0  0  0  0  0  0  0  0  0  0
   35.5342   10.5912    0.0000 C   0  0  0  0  0  0  0  0  0  0  0  0
   35.6563    9.0962    0.0000 C   0  0  0  0  0  0  0  0  0  0  0  0
   35.6380    7.5963    0.0000 C   0  0  0  0  0  0  0  0  0  0  0  0
   35.4793    6.1047    0.0000 C   0  0  0  0  0  0  0  0  0  0  0  0
   35.1816    4.6345    0.0000 C   0  0  0  0  0  0  0  0  0  0  0  0
   34.7475    3.1987    0.0000 C   0  0  0  0  0  0  0  0  0  0  0  0
   34.1809    1.8098    0.0000 C   0  0  0  0  0  0  0  0  0  0  0  0
   33.4868    0.4801    0.0000 C   0  0  0  0  0  0  0  0  0  0  0  0
   32.6711   -0.7787    0.0000 C   0  0  0  0  0  0  0  0  0  0  0  0
   31.7412   -1.9557    0.0000 C   0  0  0  0  0  0  0  0  0  0  0  0
   30.7051   -3.0404    0.0000 C   0  0  0  0  0  0  0  0  0  0  0  0
   29.5721   -4.0233    0.0000 C   0  0  0  0  0  0  0  0  0  0  0  0
   28.3519   -4.8958    0.0000 C   0  0  0  0  0  0  0  0  0  0  0  0
   27.0554   -5.6502    0.0000 C   0  0  0  0  0  0  0  0  0  0  0  0
   25.6940   -6.2799    0.0000 C   0  0  0  0  0  0  0  0  0  0  0  0
   24.2796   -6.7794    0.0000 C   0  0  0  0  0  0  0  0  0  0  0  0
   22.8246   -7.1442    0.0000 C   0  0  0  0  0  0  0  0  0  0  0  0
   21.3419   -7.3711    0.0000 C   0  0  0  0  0  0  0  0  0  0  0  0
   19.8444   -7.4582    0.0000 C   0  0  0  0  0  0  0  0  0  0  0  0
   18.3454   -7.4047    0.0000 C   0  0  0  0  0  0  0  0  0  0  0  0
   16.8579   -7.2111    0.0000 C   0  0  0  0  0  0  0  0  0  0  0  0
   15.3951   -6.8790    0.0000 C   0  0  0  0  0  0  0  0  0  0  0  0
   13.9699   -6.4114    0.0000 C   0  0  0  0  0  0  0  0  0  0  0  0
   12.5947   -5.8124    0.0000 C   0  0  0  0  0  0  0  0  0  0  0  0
   11.2816   -5.0872    0.0000 C   0  0  0  0  0  0  0  0  0  0  0  0
   10.0422   -4.2423    0.0000 C   0  0  0  0  0  0  0  0  0  0  0  0
    8.8874   -3.2851    0.0000 C   0  0  0  0  0  0  0  0  0  0  0  0
    7.8273   -2.2239    0.0000 C   0  0  0  0  0  0  0  0  0  0  0  0
    6.8712   -1.0680    0.0000 C   0  0  0  0  0  0  0  0  0  0  0  0
    6.0275    0.1722    0.0000 C   0  0  0  0  0  0  0  0  0  0  0  0
    5.3037    1.4860    0.0000 C   0  0  0  0  0  0  0  0  0  0  0  0
    4.8080   -0.0000    0.0000 C   0  0  0  0  0  0  0  0  0  0  0  0
    4.6297   -1.2972    0.0000 C   0  0  0  0  0  0  0  0  0  0  0  0
    4.1080   -2.4981    0.0000 C   0  0  0  0  0  0  0  0  0  0  0  0
    3.2817   -3.5138    0.0000 C   0  0  0  0  0  0  0  0  0  0  0  0
    2.2120   -4.2689    0.0000 C   0  0  0  0  0  0  0  0  0  0  0  0
    0.9782   -4.7074    0.0000 C   0  0  0  0  0  0  0  0  0  0  0  0
   -0.3281   -4.7967    0.0000 C   0  0  0  0  0  0  0  0  0  0  0  0
   -1.6101   -4.5303    0.0000 C   0  0  0  0  0  0  0  0  0  0  0  0
   -2.7727   -3.9280    0.0000 C   0  0  0  0  0  0  0  0  0  0  0  0
   -3.7296   -3.0342    0.0000 C   0  0  0  0  0  0  0  0  0  0  0  0
   -4.4099   -1.9155    0.0000 C   0  0  0  0  0  0  0  0  0  0  0  0
   -4.7632   -0.6547    0.0000 C   0  0  0  0  0  0  0  0  0  0  0  0
   -4.7632    0.6547    0.0000 C   0  0  0  0  0  0  0  0  0  0  0  0
   -4.4099    1.9155    0.0000 C   0  0  0  0  0  0  0  0  0  0  0  0
   -3.7296    3.0342    0.0000 C   0  0  0  0  0  0  0  0  0  0  0  0
   -2.7727    3.9280    0.0000 C   0  0  0  0  0  0  0  0  0  0  0  0
   -1.6101    4.5303    0.0000 C   0  0  0  0  0  0  0  0  0  0  0  0
   -0.3281    4.7967    0.0000 C   0  0  0  0  0  0  0  0  0  0  0  0
    0.9782    4.7074    0.0000 C   0  0  0  0  0  0  0  0  0  0  0  0
    2.2120    4.2689    0.0000 C   0  0  0  0  0  0  0  0  0  0  0  0
    3.2817    3.5138    0.0000 C   0  0  0  0  0  0  0  0  0  0  0  0
    4.7061    2.8618    0.0000 C   0  0  0  0  0  0  0  0  0  0  0  0
  1  2  1  0
  2  3  1  0
  3  4  2  0
  4  5  1  0
  5  6  1  0
  6  7  1  0
  7  8  1  0
  8  9  1  0
  9 10  1  0
 10 11  1  0
 11 12  1  0
 12 13  1  0
 13 14  1  0
 14 15  1  0
 15 16  1  0
 16 17  1  0
 17 18  1  0
 18 19  1  0
 19 20  1  0
 20 21  1  0
 21 22  1  0
 22 23  1  0
 23 24  1  0
 24 25  1  0
 25 26  1  0
 26 27  1  0
 27 28  1  0
 28 29  1  0
 29 30  1  0
 30 31  1  0
 31 32  1  0
 32 33  1  0
 33 34  1  0
 34 35  1  0
 35 36  1  0
 36 37  1  0
 37 38  1  0
 38 39  1  0
 39 40  1  0
 40 41  1  0
 41 42  1  0
 42 43  1  0
 43 44  1  0
 44 45  1  0
 45 46  1  0
 46 47  1  0
 47 48  1  0
 48 49  1  0
 49 50  1  0
 50 51  1  0
 51 52  1  0
 52 53  1  0
 53 54  1  0
 54 55  1  0
 55 56  1  0
 56 57  1  0
 57 58  1  0
 58 59  1  0
 59 60  1  0
 60 61  1  0
 61 62  1  0
 62 63  1  0
 63 64  1  0
 64 65  1  0
 65 66  1  0
 66 67  1  0
 67 68  1  0
 68 69  2  0
 69 70  1  0
 70 71  2  0
 71 72  1  0
 72 73  2  0
 73 74  1  0
 74 75  2  0
 75 76  1  0
 76 77  2  0
 77 78  1  0
 78 79  2  0
 79 80  1  0
 80 81  2  0
 81 82  1  0
 82 83  2  0
 83 84  1  0
 84 85  2  0
 85 86  1  0
 86 87  2  0
 87 88  1  0
 88 89  2  0
 89  2  1  0
 89 67  1  0
M  END
>  <Title>  (684) 
idAAYJgen13

$$$$

     RDKit          2D

 79 80  0  0  0  0  0  0  0  0999 V2000
   -2.3322    0.7362    0.0000 C   0  0  0  0  0  0  0  0  0  0  0  0
   -1.8129    2.1435    0.0000 C   0  0  0  0  0  0  0  0  0  0  0  0
   -3.1965    2.7228    0.0000 C   0  0  0  0  0  0  0  0  0  0  0  0
   -4.5252    3.4190    0.0000 C   0  0  0  0  0  0  0  0  0  0  0  0
   -5.7891    4.2268    0.0000 C   0  0  0  0  0  0  0  0  0  0  0  0
   -6.9789    5.1402    0.0000 C   0  0  0  0  0  0  0  0  0  0  0  0
   -8.0858    6.1526    0.0000 C   0  0  0  0  0  0  0  0  0  0  0  0
   -9.1015    7.2563    0.0000 C   0  0  0  0  0  0  0  0  0  0  0  0
  -10.0186    8.4433    0.0000 C   0  0  0  0  0  0  0  0  0  0  0  0
  -10.8303    9.7047    0.0000 C   0  0  0  0  0  0  0  0  0  0  0  0
  -11.5305   11.0313    0.0000 C   0  0  0  0  0  0  0  0  0  0  0  0
  -12.1141   12.4131    0.0000 C   0  0  0  0  0  0  0  0  0  0  0  0
  -12.5768   13.8399    0.0000 C   0  0  0  0  0  0  0  0  0  0  0  0
  -12.9150   15.3013    0.0000 C   0  0  0  0  0  0  0  0  0  0  0  0
  -13.1264   16.7863    0.0000 C   0  0  0  0  0  0  0  0  0  0  0  0
  -13.2094   18.2840    0.0000 C   0  0  0  0  0  0  0  0  0  0  0  0
  -13.1633   19.7833    0.0000 C   0  0  0  0  0  0  0  0  0  0  0  0
  -12.9885   21.2731    0.0000 C   0  0  0  0  0  0  0  0  0  0  0  0
  -12.6862   22.7423    0.0000 C   0  0  0  0  0  0  0  0  0  0  0  0
  -12.2588   24.1801    0.0000 C   0  0  0  0  0  0  0  0  0  0  0  0
  -11.7094   25.5759    0.0000 C   0  0  0  0  0  0  0  0  0  0  0  0
  -11.0420   26.9192    0.0000 C   0  0  0  0  0  0  0  0  0  0  0  0
  -10.2616   28.2003    0.0000 C   0  0  0  0  0  0  0  0  0  0  0  0
   -9.3739   29.4094    0.0000 C   0  0  0  0  0  0  0  0  0  0  0  0
   -8.3856   30.5378    0.0000 C   0  0  0  0  0  0  0  0  0  0  0  0
   -7.3040   31.5771    0.0000 C   0  0  0  0  0  0  0  0  0  0  0  0
   -6.1370   32.5195    0.0000 C   0  0  0  0  0  0  0  0  0  0  0  0
   -4.8934   33.3581    0.0000 C   0  0  0  0  0  0  0  0  0  0  0  0
   -3.5822   34.0867    0.0000 C   0  0  0  0  0  0  0  0  0  0  0  0
   -2.2133   34.6999    0.0000 C   0  0  0  0  0  0  0  0  0  0  0  0
   -0.7967   35.1932    0.0000 C   0  0  0  0  0  0  0  0  0  0  0  0
    0.6571   35.5628    0.0000 C   0  0  0  0  0  0  0  0  0  0  0  0
    2.1372   35.8061    0.0000 C   0  0  0  0  0  0  0  0  0  0  0  0
    3.6328   35.9213    0.0000 C   0  0  0  0  0  0  0  0  0  0  0  0
    5.1327   35.9074    0.0000 C   0  0  0  0  0  0  0  0  0  0  0  0
    6.6259   35.7647    0.0000 C   0  0  0  0  0  0  0  0  0  0  0  0
    8.1013   35.4941    0.0000 C   0  0  0  0  0  0  0  0  0  0  0  0
    9.5480   35.0978    0.0000 C   0  0  0  0  0  0  0  0  0  0  0  0
   10.9552   34.5785    0.0000 C   0  0  0  0  0  0  0  0  0  0  0  0
   12.3126   33.9401    0.0000 C   0  0  0  0  0  0  0  0  0  0  0  0
   13.6101   33.1875    0.0000 C   0  0  0  0  0  0  0  0  0  0  0  0
   14.8381   32.3261    0.0000 C   0  0  0  0  0  0  0  0  0  0  0  0
   15.9875   31.3623    0.0000 C   0  0  0  0  0  0  0  0  0  0  0  0
   17.0498   30.3032    0.0000 C   0  0  0  0  0  0  0  0  0  0  0  0
   18.0171   29.1568    0.0000 C   0  0  0  0  0  0  0  0  0  0  0  0
   18.8823   27.9315    0.0000 C   0  0  0  0  0  0  0  0  0  0  0  0
   19.6390   26.6363    0.0000 C   0  0  0  0  0  0  0  0  0  0  0  0
   20.2815   25.2809    0.0000 C   0  0  0  0  0  0  0  0  0  0  0  0
   20.8051   23.8752    0.0000 C   0  0  0  0  0  0  0  0  0  0  0  0
   21.2059   22.4298    0.0000 C   0  0  0  0  0  0  0  0  0  0  0  0
   21.4810   20.9552    0.0000 C   0  0  0  0  0  0  0  0  0  0  0  0
   21.6283   19.4625    0.0000 C   0  0  0  0  0  0  0  0  0  0  0  0
   21.6467   17.9626    0.0000 C   0  0  0  0  0  0  0  0  0  0  0  0
   21.5362   16.4667    0.0000 C   0  0  0  0  0  0  0  0  0  0  0  0
   21.2974   14.9858    0.0000 C   0  0  0  0  0  0  0  0  0  0  0  0
   20.9323   13.5309    0.0000 C   0  0  0  0  0  0  0  0  0  0  0  0
   20.4434   12.1128    0.0000 C   0  0  0  0  0  0  0  0  0  0  0  0
   19.8344   10.7420    0.0000 C   0  0  0  0  0  0  0  0  0  0  0  0
   19.1098    9.4286    0.0000 C   0  0  0  0  0  0  0  0  0  0  0  0
   18.2750    8.1824    0.0000 C   0  0  0  0  0  0  0  0  0  0  0  0
   17.3362    7.0125    0.0000 C   0  0  0  0  0  0  0  0  0  0  0  0
   16.3003    5.9277    0.0000 C   0  0  0  0  0  0  0  0  0  0  0  0
   15.1749    4.9359    0.0000 C   0  0  0  0  0  0  0  0  0  0  0  0
   13.9685    4.0446    0.0000 C   0  0  0  0  0  0  0  0  0  0  0  0
   12.6899    3.2602    0.0000 C   0  0  0  0  0  0  0  0  0  0  0  0
   11.3486    2.5887    0.0000 C   0  0  0  0  0  0  0  0  0  0  0  0
    9.9545    2.0350    0.0000 C   0  0  0  0  0  0  0  0  0  0  0  0
    8.5180    1.6031    0.0000 C   0  0  0  0  0  0  0  0  0  0  0  0
    7.0497    1.2964    0.0000 C   0  0  0  0  0  0  0  0  0  0  0  0
    5.5605    1.1170    0.0000 C   0  0  0  0  0  0  0  0  0  0  0  0
    4.0614    1.0663    0.0000 C   0  0  0  0  0  0  0  0  0  0  0  0
    2.5634    1.1446    0.0000 C   0  0  0  0  0  0  0  0  0  0  0  0
    1.0777    1.3515    0.0000 C   0  0  0  0  0  0  0  0  0  0  0  0
    1.7286    0.0000    0.0000 C   0  0  0  0  0  0  0  0  0  0  0  0
    1.0777   -1.3515    0.0000 C   0  0  0  0  0  0  0  0  0  0  0  0
   -0.3846   -1.6852    0.0000 C   0  0  0  0  0  0  0  0  0  0  0  0
   -1.5574   -0.7500    0.0000 C   0  0  0  0  0  0  0  0  0  0  0  0
   -1.5574    0.7500    0.0000 C   0  0  0  0  0  0  0  0  0  0  0  0
   -0.3846    1.6852    0.0000 C   0  0  0  0  0  0  0  0  0  0  0  0
  1  2  1  0
  2  3  1  0
  3  4  1  0
  4  5  1  0
  5  6  1  0
  6  7  1  0
  7  8  1  0
  8  9  1  0
  9 10  1  0
 10 11  1  0
 11 12  1  0
 12 13  1  0
 13 14  1  0
 14 15  1  0
 15 16  1  0
 16 17  1  0
 17 18  1  0
 18 19  1  0
 19 20  1  0
 20 21  1  0
 21 22  1  0
 22 23  1  0
 23 24  1  0
 24 25  1  0
 25 26  1  0
 26 27  1  0
 27 28  1  0
 28 29  1  0
 29 30  1  0
 30 31  1  0
 31 32  1  0
 32 33  1  0
 33 34  1  0
 34 35  1  0
 35 36  1  0
 36 37  1  0
 37 38  1  0
 38 39  1  0
 39 40  1  0
 40 41  1  0
 41 42  1  0
 42 43  1  0
 43 44  1  0
 44 45  1  0
 45 46  1  0
 46 47  1  0
 47 48  1  0
 48 49  1  0
 49 50  1  0
 50 51  1  0
 51 52  1  0
 52 53  1  0
 53 54  1  0
 54 55  1  0
 55 56  1  0
 56 57  1  0
 57 58  1  0
 58 59  1  0
 59 60  1  0
 60 61  1  0
 61 62  1  0
 62 63  1  0
 63 64  1  0
 64 65  1  0
 65 66  1  0
 66 67  1  0
 67 68  1  0
 68 69  1  0
 69 70  1  0
 70 71  1  0
 71 72  1  0
 72 73  1  0
 73 74  1  0
 74 75  1  0
 75 76  1  0
 76 77  2  0
 77 78  1  0
 78 79  2  0
 79  2  1  0
 79 73  1  0
M  END
>  <Title>  (685) 
idAAYKgen13

$$$$

     RDKit          2D

 16 18  0  0  0  0  0  0  0  0999 V2000
   -8.0128   -3.1555    0.0000 C   0  0  0  0  0  0  0  0  0  0  0  0
   -6.9521   -2.0949    0.0000 C   0  0  0  0  0  0  0  0  0  0  0  0
   -5.5032   -2.4831    0.0000 C   0  0  0  0  0  0  0  0  0  0  0  0
   -4.4426   -1.4224    0.0000 C   0  0  0  0  0  0  0  0  0  0  0  0
   -2.9937   -1.8107    0.0000 C   0  0  0  0  0  0  0  0  0  0  0  0
   -2.6054   -3.2595    0.0000 O   0  0  0  0  0  0  0  0  0  0  0  0
   -1.9330   -0.7500    0.0000 N   0  0  0  0  0  0  0  0  0  0  0  0
   -1.9330    0.7500    0.0000 C   0  0  0  0  0  0  0  0  0  0  0  0
   -0.4330    0.7500    0.0000 C   0  0  0  0  0  0  0  0  0  0  0  0
   -0.0448    2.1989    0.0000 C   0  0  0  0  0  0  0  0  0  0  0  0
   -0.9888    3.3646    0.0000 C   0  0  0  0  0  0  0  0  0  0  0  0
   -0.1718    4.6226    0.0000 C   0  0  0  0  0  0  0  0  0  0  0  0
    1.2771    4.2344    0.0000 C   0  0  0  0  0  0  0  0  0  0  0  0
    1.3556    2.7364    0.0000 C   0  0  0  0  0  0  0  0  0  0  0  0
    0.8660    0.0000    0.0000 C   0  0  0  0  0  0  0  0  0  0  0  0
   -0.4330   -0.7500    0.0000 C   0  0  0  0  0  0  0  0  0  0  0  0
  1  2  2  0
  2  3  1  0
  3  4  1  0
  4  5  1  0
  5  6  2  0
  5  7  1  0
  7  8  1  0
  8  9  1  0
  9 10  1  0
 10 11  1  0
 11 12  1  0
 12 13  1  0
 13 14  1  0
  9 15  1  0
 15 16  1  0
 16  7  1  0
 16  9  1  0
 14 10  1  0
M  END
>  <Title>  (686) 
idAAYLgen13

$$$$

     RDKit          2D

  8  7  0  0  0  0  0  0  0  0999 V2000
    0.0000    0.0000    0.0000 C   0  0  0  0  0  0  0  0  0  0  0  0
   -0.0000   -1.5000    0.0000 C   0  0  0  0  0  0  0  0  0  0  0  0
   -0.0000   -3.0000    0.0000 C   0  0  0  0  0  0  0  0  0  0  0  0
    1.2990   -3.7500    0.0000 C   0  0  0  0  0  0  0  0  0  0  0  0
    1.2990   -5.2500    0.0000 C   0  0  0  0  0  0  0  0  0  0  0  0
    2.5981   -6.0000    0.0000 C   0  0  0  0  0  0  0  0  0  0  0  0
   -0.0000   -6.0000    0.0000 C   0  0  0  0  0  0  0  0  0  0  0  0
   -0.0000   -7.5000    0.0000 O   0  0  0  0  0  0  0  0  0  0  0  0
  1  2  3  0
  2  3  1  0
  3  4  1  0
  4  5  1  0
  5  6  1  0
  5  7  1  0
  7  8  1  0
M  END
>  <Title>  (687) 
idAAYMgen13

$$$$

     RDKit          2D

 74 76  0  0  0  0  0  0  0  0999 V2000
   -2.3535   -5.6764    0.0000 C   0  0  0  0  0  0  0  0  0  0  0  0
   -0.9794   -6.2780    0.0000 C   0  0  0  0  0  0  0  0  0  0  0  0
   -1.5070   -7.6821    0.0000 C   0  0  0  0  0  0  0  0  0  0  0  0
   -1.8823   -9.1344    0.0000 C   0  0  0  0  0  0  0  0  0  0  0  0
   -2.1012  -10.6183    0.0000 C   0  0  0  0  0  0  0  0  0  0  0  0
   -2.1611  -12.1171    0.0000 C   0  0  0  0  0  0  0  0  0  0  0  0
   -2.0613  -13.6138    0.0000 C   0  0  0  0  0  0  0  0  0  0  0  0
   -1.8030  -15.0914    0.0000 C   0  0  0  0  0  0  0  0  0  0  0  0
   -1.3891  -16.5332    0.0000 C   0  0  0  0  0  0  0  0  0  0  0  0
   -0.8243  -17.9228    0.0000 C   0  0  0  0  0  0  0  0  0  0  0  0
   -0.1150  -19.2445    0.0000 C   0  0  0  0  0  0  0  0  0  0  0  0
    0.7307  -20.4833    0.0000 C   0  0  0  0  0  0  0  0  0  0  0  0
    1.7034  -21.6252    0.0000 C   0  0  0  0  0  0  0  0  0  0  0  0
    2.7919  -22.6573    0.0000 C   0  0  0  0  0  0  0  0  0  0  0  0
    3.9839  -23.5678    0.0000 C   0  0  0  0  0  0  0  0  0  0  0  0
    5.2660  -24.3464    0.0000 C   0  0  0  0  0  0  0  0  0  0  0  0
    6.6236  -24.9843    0.0000 C   0  0  0  0  0  0  0  0  0  0  0  0
    8.0413  -25.4744    0.0000 C   0  0  0  0  0  0  0  0  0  0  0  0
    9.5031  -25.8109    0.0000 C   0  0  0  0  0  0  0  0  0  0  0  0
   10.9923  -25.9902    0.0000 C   0  0  0  0  0  0  0  0  0  0  0  0
   12.4922  -26.0102    0.0000 C   0  0  0  0  0  0  0  0  0  0  0  0
   13.9857  -25.8706    0.0000 C   0  0  0  0  0  0  0  0  0  0  0  0
   15.4559  -25.5731    0.0000 C   0  0  0  0  0  0  0  0  0  0  0  0
   16.8861  -25.1210    0.0000 C   0  0  0  0  0  0  0  0  0  0  0  0
   18.2602  -24.5194    0.0000 C   0  0  0  0  0  0  0  0  0  0  0  0
   19.5625  -23.7752    0.0000 C   0  0  0  0  0  0  0  0  0  0  0  0
   20.7784  -22.8967    0.0000 C   0  0  0  0  0  0  0  0  0  0  0  0
   21.8940  -21.8940    0.0000 C   0  0  0  0  0  0  0  0  0  0  0  0
   22.8967  -20.7784    0.0000 C   0  0  0  0  0  0  0  0  0  0  0  0
   23.7752  -19.5625    0.0000 C   0  0  0  0  0  0  0  0  0  0  0  0
   24.5194  -18.2602    0.0000 C   0  0  0  0  0  0  0  0  0  0  0  0
   25.1210  -16.8861    0.0000 C   0  0  0  0  0  0  0  0  0  0  0  0
   25.5731  -15.4559    0.0000 C   0  0  0  0  0  0  0  0  0  0  0  0
   25.8706  -13.9857    0.0000 C   0  0  0  0  0  0  0  0  0  0  0  0
   26.0102  -12.4922    0.0000 C   0  0  0  0  0  0  0  0  0  0  0  0
   25.9902  -10.9923    0.0000 C   0  0  0  0  0  0  0  0  0  0  0  0
   25.8109   -9.5031    0.0000 C   0  0  0  0  0  0  0  0  0  0  0  0
   25.4744   -8.0413    0.0000 C   0  0  0  0  0  0  0  0  0  0  0  0
   24.9843   -6.6236    0.0000 C   0  0  0  0  0  0  0  0  0  0  0  0
   24.3464   -5.2660    0.0000 C   0  0  0  0  0  0  0  0  0  0  0  0
   23.5678   -3.9839    0.0000 C   0  0  0  0  0  0  0  0  0  0  0  0
   22.6573   -2.7919    0.0000 C   0  0  0  0  0  0  0  0  0  0  0  0
   21.6252   -1.7034    0.0000 C   0  0  0  0  0  0  0  0  0  0  0  0
   20.4833   -0.7307    0.0000 C   0  0  0  0  0  0  0  0  0  0  0  0
   19.2445    0.1150    0.0000 C   0  0  0  0  0  0  0  0  0  0  0  0
   17.9228    0.8243    0.0000 C   0  0  0  0  0  0  0  0  0  0  0  0
   16.5332    1.3891    0.0000 C   0  0  0  0  0  0  0  0  0  0  0  0
   15.0914    1.8030    0.0000 C   0  0  0  0  0  0  0  0  0  0  0  0
   13.6138    2.0613    0.0000 C   0  0  0  0  0  0  0  0  0  0  0  0
   12.1171    2.1611    0.0000 C   0  0  0  0  0  0  0  0  0  0  0  0
   10.6183    2.1012    0.0000 C   0  0  0  0  0  0  0  0  0  0  0  0
    9.1344    1.8823    0.0000 C   0  0  0  0  0  0  0  0  0  0  0  0
    7.6821    1.5070    0.0000 C   0  0  0  0  0  0  0  0  0  0  0  0
    6.2780    0.9794    0.0000 C   0  0  0  0  0  0  0  0  0  0  0  0
    4.9378    0.3055    0.0000 C   0  0  0  0  0  0  0  0  0  0  0  0
    3.6769   -0.5070    0.0000 C   0  0  0  0  0  0  0  0  0  0  0  0
    2.5095   -1.4489    0.0000 C   0  0  0  0  0  0  0  0  0  0  0  0
    2.8978    0.0000    0.0000 C   0  0  0  0  0  0  0  0  0  0  0  0
    2.5095    1.4489    0.0000 C   0  0  0  0  0  0  0  0  0  0  0  0
    1.4489    2.5095    0.0000 C   0  0  0  0  0  0  0  0  0  0  0  0
    0.0000    2.8978    0.0000 C   0  0  0  0  0  0  0  0  0  0  0  0
   -1.4489    2.5095    0.0000 C   0  0  0  0  0  0  0  0  0  0  0  0
   -2.5095    1.4489    0.0000 C   0  0  0  0  0  0  0  0  0  0  0  0
   -2.8978    0.0000    0.0000 C   0  0  0  0  0  0  0  0  0  0  0  0
   -2.5095   -1.4489    0.0000 C   0  0  0  0  0  0  0  0  0  0  0  0
   -1.4489   -2.5095    0.0000 C   0  0  0  0  0  0  0  0  0  0  0  0
   -0.0000   -2.8978    0.0000 C   0  0  0  0  0  0  0  0  0  0  0  0
    1.4489   -2.5095    0.0000 C   0  0  0  0  0  0  0  0  0  0  0  0
    0.5070   -3.6769    0.0000 C   0  0  0  0  0  0  0  0  0  0  0  0
    2.0052   -3.7501    0.0000 C   0  0  0  0  0  0  0  0  0  0  0  0
    2.6909   -5.0842    0.0000 C   0  0  0  0  0  0  0  0  0  0  0  0
    1.8784   -6.3451    0.0000 C   0  0  0  0  0  0  0  0  0  0  0  0
    0.3802   -6.2719    0.0000 C   0  0  0  0  0  0  0  0  0  0  0  0
   -0.3055   -4.9378    0.0000 C   0  0  0  0  0  0  0  0  0  0  0  0
  1  2  1  0
  2  3  1  0
  3  4  1  0
  4  5  1  0
  5  6  1  0
  6  7  1  0
  7  8  1  0
  8  9  1  0
  9 10  1  0
 10 11  1  0
 11 12  1  0
 12 13  1  0
 13 14  1  0
 14 15  1  0
 15 16  1  0
 16 17  1  0
 17 18  1  0
 18 19  1  0
 19 20  1  0
 20 21  1  0
 21 22  1  0
 22 23  1  0
 23 24  1  0
 24 25  1  0
 25 26  1  0
 26 27  1  0
 27 28  1  0
 28 29  1  0
 29 30  1  0
 30 31  1  0
 31 32  1  0
 32 33  1  0
 33 34  1  0
 34 35  1  0
 35 36  1  0
 36 37  1  0
 37 38  1  0
 38 39  1  0
 39 40  1  0
 40 41  1  0
 41 42  1  0
 42 43  1  0
 43 44  1  0
 44 45  1  0
 45 46  1  0
 46 47  1  0
 47 48  1  0
 48 49  1  0
 49 50  1  0
 50 51  1  0
 51 52  1  0
 52 53  1  0
 53 54  1  0
 54 55  1  0
 55 56  1  0
 56 57  1  0
 57 58  1  0
 58 59  1  0
 59 60  1  0
 60 61  1  0
 61 62  1  0
 62 63  1  0
 63 64  2  0
 64 65  1  0
 65 66  2  0
 66 67  1  0
 67 68  2  0
 68 69  1  0
 69 70  2  0
 70 71  1  0
 71 72  2  0
 72 73  1  0
 73 74  2  0
 74  2  1  0
 68 57  1  0
 74 69  1  0
M  END
>  <Title>  (688) 
idAAYNgen13

$$$$

     RDKit          2D

 37 41  0  0  0  0  0  0  0  0999 V2000
    3.0000    0.0000    0.0000 C   0  0  0  0  0  0  0  0  0  0  0  0
    1.5000    0.0000    0.0000 C   0  0  0  0  0  0  0  0  0  0  0  0
    0.7500   -1.2990    0.0000 N   0  0  0  0  0  0  0  0  0  0  0  0
   -0.7500   -1.2990    0.0000 C   0  0  0  0  0  0  0  0  0  0  0  0
   -1.5000    0.0000    0.0000 C   0  0  0  0  0  0  0  0  0  0  0  0
   -0.7500    1.2990    0.0000 N   0  0  0  0  0  0  0  0  0  0  0  0
    0.7500    1.2990    0.0000 N   0  0  0  0  0  0  0  0  0  0  0  0
    1.5000    2.5981    0.0000 C   0  0  0  0  0  0  0  0  0  0  0  0
    3.0000    2.5981    0.0000 C   0  0  0  0  0  0  0  0  0  0  0  0
    3.7500    3.8971    0.0000 C   0  0  0  0  0  0  0  0  0  0  0  0
    3.0000    5.1962    0.0000 C   0  0  0  0  0  0  0  0  0  0  0  0
    3.7500    6.4952    0.0000 C   0  0  0  0  0  0  0  0  0  0  0  0
    3.0000    7.7942    0.0000 O   0  0  0  0  0  0  0  0  0  0  0  0
    5.2500    6.4952    0.0000 N   0  0  0  0  0  0  0  0  0  0  0  0
    6.0000    7.7942    0.0000 C   0  0  0  0  0  0  0  0  0  0  0  0
    5.3899    9.1645    0.0000 N   0  0  0  0  0  0  0  0  0  0  0  0
    6.5046   10.1682    0.0000 N   0  0  0  0  0  0  0  0  0  0  0  0
    7.8037    9.4182    0.0000 N   0  0  0  0  0  0  0  0  0  0  0  0
    7.4918    7.9510    0.0000 N   0  0  0  0  0  0  0  0  0  0  0  0
    8.4955    6.8363    0.0000 N   0  0  0  0  0  0  0  0  0  0  0  0
    9.9873    6.9931    0.0000 C   0  0  0  0  0  0  0  0  0  0  0  0
   10.5974    5.6228    0.0000 C   0  0  0  0  0  0  0  0  0  0  0  0
    9.4826    4.6191    0.0000 N   0  0  0  0  0  0  0  0  0  0  0  0
    9.6394    3.1273    0.0000 C   0  0  0  0  0  0  0  0  0  0  0  0
   11.0098    2.5172    0.0000 O   0  0  0  0  0  0  0  0  0  0  0  0
    8.4259    2.2456    0.0000 N   0  0  0  0  0  0  0  0  0  0  0  0
    8.5827    0.7538    0.0000 C   0  0  0  0  0  0  0  0  0  0  0  0
    7.3692   -0.1278    0.0000 N   0  0  0  0  0  0  0  0  0  0  0  0
    7.5260   -1.6196    0.0000 N   0  0  0  0  0  0  0  0  0  0  0  0
    8.8963   -2.2297    0.0000 N   0  0  0  0  0  0  0  0  0  0  0  0
   10.1098   -1.3480    0.0000 N   0  0  0  0  0  0  0  0  0  0  0  0
    9.9530    0.1437    0.0000 N   0  0  0  0  0  0  0  0  0  0  0  0
    8.1836    5.3691    0.0000 C   0  0  0  0  0  0  0  0  0  0  0  0
    6.8133    4.7590    0.0000 O   0  0  0  0  0  0  0  0  0  0  0  0
    1.5000    5.1962    0.0000 C   0  0  0  0  0  0  0  0  0  0  0  0
    0.7500    6.4952    0.0000 O   0  0  0  0  0  0  0  0  0  0  0  0
    0.7500    3.8971    0.0000 N   0  0  0  0  0  0  0  0  0  0  0  0
  1  2  1  0
  2  3  2  0
  3  4  1  0
  4  5  1  0
  5  6  2  0
  6  7  1  0
  7  8  1  0
  8  9  2  0
  9 10  1  0
 10 11  2  0
 11 12  1  0
 12 13  2  0
 12 14  1  0
 14 15  1  0
 15 16  2  0
 16 17  1  0
 17 18  2  0
 18 19  1  0
 19 20  1  0
 20 21  1  0
 21 22  1  0
 22 23  1  0
 23 24  1  0
 24 25  2  0
 24 26  1  0
 26 27  1  0
 27 28  2  0
 28 29  1  0
 29 30  2  0
 30 31  1  0
 31 32  2  0
 23 33  1  0
 33 34  2  0
 11 35  1  0
 35 36  2  0
 35 37  1  0
  7  2  1  0
 37  8  1  0
 19 15  1  0
 33 20  1  0
 32 27  1  0
M  END
>  <Title>  (689) 
idAAYOgen13

$$$$

     RDKit          2D

 38 42  0  0  0  0  0  0  0  0999 V2000
    3.2286   -0.0000    0.0000 C   0  0  0  0  0  0  0  0  0  0  0  0
    1.7286    0.0000    0.0000 C   0  0  0  0  0  0  0  0  0  0  0  0
    1.0777    1.3515    0.0000 C   0  0  0  0  0  0  0  0  0  0  0  0
   -0.3846    1.6852    0.0000 C   0  0  0  0  0  0  0  0  0  0  0  0
   -1.5574    0.7500    0.0000 C   0  0  0  0  0  0  0  0  0  0  0  0
   -1.5574   -0.7500    0.0000 C   0  0  0  0  0  0  0  0  0  0  0  0
   -2.9088   -1.4008    0.0000 C   0  0  0  0  0  0  0  0  0  0  0  0
   -3.0209   -2.8966    0.0000 O   0  0  0  0  0  0  0  0  0  0  0  0
   -4.1482   -0.5558    0.0000 N   0  0  0  0  0  0  0  0  0  0  0  0
   -5.4997   -1.2067    0.0000 C   0  0  0  0  0  0  0  0  0  0  0  0
   -5.7675   -2.6826    0.0000 N   0  0  0  0  0  0  0  0  0  0  0  0
   -7.2539   -2.8839    0.0000 N   0  0  0  0  0  0  0  0  0  0  0  0
   -7.9047   -1.5325    0.0000 N   0  0  0  0  0  0  0  0  0  0  0  0
   -6.8205   -0.4959    0.0000 N   0  0  0  0  0  0  0  0  0  0  0  0
   -7.0219    0.9906    0.0000 N   0  0  0  0  0  0  0  0  0  0  0  0
   -8.3428    1.7014    0.0000 C   0  0  0  0  0  0  0  0  0  0  0  0
   -8.0750    3.1773    0.0000 C   0  0  0  0  0  0  0  0  0  0  0  0
   -6.5885    3.3786    0.0000 N   0  0  0  0  0  0  0  0  0  0  0  0
   -5.8777    4.6995    0.0000 C   0  0  0  0  0  0  0  0  0  0  0  0
   -6.6663    5.9755    0.0000 O   0  0  0  0  0  0  0  0  0  0  0  0
   -4.3784    4.7444    0.0000 N   0  0  0  0  0  0  0  0  0  0  0  0
   -3.6676    6.0653    0.0000 C   0  0  0  0  0  0  0  0  0  0  0  0
   -2.1683    6.1101    0.0000 N   0  0  0  0  0  0  0  0  0  0  0  0
   -1.4575    7.4310    0.0000 N   0  0  0  0  0  0  0  0  0  0  0  0
   -2.2460    8.7071    0.0000 N   0  0  0  0  0  0  0  0  0  0  0  0
   -3.7453    8.6622    0.0000 N   0  0  0  0  0  0  0  0  0  0  0  0
   -4.4561    7.3413    0.0000 N   0  0  0  0  0  0  0  0  0  0  0  0
   -5.9377    2.0272    0.0000 C   0  0  0  0  0  0  0  0  0  0  0  0
   -4.4618    1.7593    0.0000 O   0  0  0  0  0  0  0  0  0  0  0  0
   -0.3846   -1.6852    0.0000 C   0  0  0  0  0  0  0  0  0  0  0  0
   -0.7184   -3.1476    0.0000 O   0  0  0  0  0  0  0  0  0  0  0  0
    1.0777   -1.3515    0.0000 N   0  0  0  0  0  0  0  0  0  0  0  0
    2.0130   -2.5242    0.0000 C   0  0  0  0  0  0  0  0  0  0  0  0
    1.4650   -3.9205    0.0000 C   0  0  0  0  0  0  0  0  0  0  0  0
    2.4002   -5.0933    0.0000 C   0  0  0  0  0  0  0  0  0  0  0  0
    3.8835   -4.8697    0.0000 C   0  0  0  0  0  0  0  0  0  0  0  0
    4.4315   -3.4734    0.0000 C   0  0  0  0  0  0  0  0  0  0  0  0
    3.4962   -2.3006    0.0000 C   0  0  0  0  0  0  0  0  0  0  0  0
  1  2  1  0
  2  3  1  0
  3  4  2  0
  4  5  1  0
  5  6  2  0
  6  7  1  0
  7  8  2  0
  7  9  1  0
  9 10  1  0
 10 11  2  0
 11 12  1  0
 12 13  2  0
 13 14  1  0
 14 15  1  0
 15 16  1  0
 16 17  1  0
 17 18  1  0
 18 19  1  0
 19 20  2  0
 19 21  1  0
 21 22  1  0
 22 23  2  0
 23 24  1  0
 24 25  2  0
 25 26  1  0
 26 27  2  0
 18 28  1  0
 28 29  2  0
  6 30  1  0
 30 31  2  0
 30 32  1  0
 32 33  1  0
 33 34  2  0
 34 35  1  0
 35 36  2  0
 36 37  1  0
 37 38  2  0
 32  2  1  0
 38 33  1  0
 14 10  1  0
 28 15  1  0
 27 22  1  0
M  END
>  <Title>  (690) 
idAAYPgen13

$$$$

     RDKit          2D

  6  6  0  0  0  0  0  0  0  0999 V2000
    1.5000    0.0000    0.0000 C   0  0  0  0  0  0  0  0  0  0  0  0
    0.7500   -1.2990    0.0000 C   0  0  0  0  0  0  0  0  0  0  0  0
   -0.7500   -1.2990    0.0000 C   0  0  0  0  0  0  0  0  0  0  0  0
   -1.5000    0.0000    0.0000 C   0  0  0  0  0  0  0  0  0  0  0  0
   -0.7500    1.2990    0.0000 C   0  0  0  0  0  0  0  0  0  0  0  0
    0.7500    1.2990    0.0000 C   0  0  0  0  0  0  0  0  0  0  0  0
  1  2  2  0
  2  3  1  0
  3  4  2  0
  4  5  1  0
  5  6  2  0
  6  1  1  0
M  END
>  <Title>  (691) 
idAAYQgen13

$$$$

     RDKit          2D

 10 11  0  0  0  0  0  0  0  0999 V2000
   -2.6401   -3.1891    0.0000 C   0  0  0  0  0  0  0  0  0  0  0  0
   -1.2135   -2.7256    0.0000 C   0  0  0  0  0  0  0  0  0  0  0  0
   -0.0000   -3.6073    0.0000 C   0  0  0  0  0  0  0  0  0  0  0  0
    1.2135   -2.7256    0.0000 C   0  0  0  0  0  0  0  0  0  0  0  0
    0.7500   -1.2990    0.0000 C   0  0  0  0  0  0  0  0  0  0  0  0
    1.5000    0.0000    0.0000 C   0  0  0  0  0  0  0  0  0  0  0  0
    0.7500    1.2990    0.0000 C   0  0  0  0  0  0  0  0  0  0  0  0
   -0.7500    1.2990    0.0000 C   0  0  0  0  0  0  0  0  0  0  0  0
   -1.5000    0.0000    0.0000 C   0  0  0  0  0  0  0  0  0  0  0  0
   -0.7500   -1.2990    0.0000 C   0  0  0  0  0  0  0  0  0  0  0  0
  1  2  1  0
  2  3  1  0
  3  4  2  0
  4  5  1  0
  5  6  2  0
  6  7  1  0
  7  8  2  0
  8  9  1  0
  9 10  2  0
 10  2  1  0
 10  5  1  0
M  END
>  <Title>  (692) 
idAAYRgen13

$$$$

     RDKit          2D

 48 53  0  0  0  0  0  0  0  0999 V2000
   -2.0819    9.6100    0.0000 C   0  0  0  0  0  0  0  0  0  0  0  0
   -2.8512    8.3223    0.0000 C   0  0  0  0  0  0  0  0  0  0  0  0
   -3.6206    7.0346    0.0000 C   0  0  0  0  0  0  0  0  0  0  0  0
   -2.8901    5.7245    0.0000 C   0  0  0  0  0  0  0  0  0  0  0  0
   -3.6594    4.4369    0.0000 C   0  0  0  0  0  0  0  0  0  0  0  0
   -2.9289    3.1267    0.0000 C   0  0  0  0  0  0  0  0  0  0  0  0
   -3.6983    1.8391    0.0000 C   0  0  0  0  0  0  0  0  0  0  0  0
   -5.1981    1.8615    0.0000 O   0  0  0  0  0  0  0  0  0  0  0  0
   -2.9678    0.5290    0.0000 N   0  0  0  0  0  0  0  0  0  0  0  0
   -3.7372   -0.7587    0.0000 C   0  0  0  0  0  0  0  0  0  0  0  0
   -5.2311   -0.8932    0.0000 N   0  0  0  0  0  0  0  0  0  0  0  0
   -5.5649   -2.3556    0.0000 N   0  0  0  0  0  0  0  0  0  0  0  0
   -4.2772   -3.1249    0.0000 N   0  0  0  0  0  0  0  0  0  0  0  0
   -3.1476   -2.1380    0.0000 N   0  0  0  0  0  0  0  0  0  0  0  0
   -1.6852   -2.4718    0.0000 C   0  0  0  0  0  0  0  0  0  0  0  0
   -1.3515   -3.9342    0.0000 C   0  0  0  0  0  0  0  0  0  0  0  0
   -0.0000   -4.5850    0.0000 C   0  0  0  0  0  0  0  0  0  0  0  0
    1.3515   -3.9342    0.0000 C   0  0  0  0  0  0  0  0  0  0  0  0
    1.6852   -2.4718    0.0000 C   0  0  0  0  0  0  0  0  0  0  0  0
    3.1476   -2.1380    0.0000 C   0  0  0  0  0  0  0  0  0  0  0  0
    3.5898   -0.7046    0.0000 O   0  0  0  0  0  0  0  0  0  0  0  0
    4.1679   -3.2376    0.0000 N   0  0  0  0  0  0  0  0  0  0  0  0
    5.6303   -2.9038    0.0000 C   0  0  0  0  0  0  0  0  0  0  0  0
    6.2198   -1.5245    0.0000 N   0  0  0  0  0  0  0  0  0  0  0  0
    7.7138   -1.6590    0.0000 N   0  0  0  0  0  0  0  0  0  0  0  0
    8.0476   -3.1214    0.0000 N   0  0  0  0  0  0  0  0  0  0  0  0
    6.7599   -3.8907    0.0000 N   0  0  0  0  0  0  0  0  0  0  0  0
    6.6254   -5.3847    0.0000 N   0  0  0  0  0  0  0  0  0  0  0  0
    7.7550   -6.3716    0.0000 C   0  0  0  0  0  0  0  0  0  0  0  0
    7.1655   -7.7509    0.0000 C   0  0  0  0  0  0  0  0  0  0  0  0
    5.6715   -7.6164    0.0000 C   0  0  0  0  0  0  0  0  0  0  0  0
    4.6846   -8.7460    0.0000 C   0  0  0  0  0  0  0  0  0  0  0  0
    5.1694  -10.1655    0.0000 O   0  0  0  0  0  0  0  0  0  0  0  0
    3.2129   -8.4561    0.0000 N   0  0  0  0  0  0  0  0  0  0  0  0
    2.2260   -9.5857    0.0000 C   0  0  0  0  0  0  0  0  0  0  0  0
    0.7543   -9.2959    0.0000 N   0  0  0  0  0  0  0  0  0  0  0  0
   -0.2326  -10.4255    0.0000 N   0  0  0  0  0  0  0  0  0  0  0  0
    0.2522  -11.8450    0.0000 N   0  0  0  0  0  0  0  0  0  0  0  0
    1.7239  -12.1348    0.0000 N   0  0  0  0  0  0  0  0  0  0  0  0
    2.7108  -11.0052    0.0000 N   0  0  0  0  0  0  0  0  0  0  0  0
    5.3378   -6.1540    0.0000 C   0  0  0  0  0  0  0  0  0  0  0  0
    3.9585   -5.5645    0.0000 O   0  0  0  0  0  0  0  0  0  0  0  0
    0.7500   -1.2990    0.0000 C   0  0  0  0  0  0  0  0  0  0  0  0
    1.5000    0.0000    0.0000 C   0  0  0  0  0  0  0  0  0  0  0  0
    0.7500    1.2990    0.0000 C   0  0  0  0  0  0  0  0  0  0  0  0
   -0.7500    1.2990    0.0000 C   0  0  0  0  0  0  0  0  0  0  0  0
   -1.5000    0.0000    0.0000 C   0  0  0  0  0  0  0  0  0  0  0  0
   -0.7500   -1.2990    0.0000 C   0  0  0  0  0  0  0  0  0  0  0  0
  1  2  3  0
  2  3  1  0
  3  4  2  3
  4  5  1  0
  5  6  1  0
  6  7  1  0
  7  8  2  0
  7  9  1  0
  9 10  1  0
 10 11  2  0
 11 12  1  0
 12 13  2  0
 13 14  1  0
 14 15  1  0
 15 16  2  0
 16 17  1  0
 17 18  2  0
 18 19  1  0
 19 20  1  0
 20 21  2  0
 20 22  1  0
 22 23  1  0
 23 24  2  0
 24 25  1  0
 25 26  2  0
 26 27  1  0
 27 28  1  0
 28 29  1  0
 29 30  1  0
 30 31  1  0
 31 32  1  0
 32 33  2  0
 32 34  1  0
 34 35  1  0
 35 36  2  0
 36 37  1  0
 37 38  2  0
 38 39  1  0
 39 40  2  0
 31 41  1  0
 41 42  2  0
 19 43  1  0
 43 44  2  0
 44 45  1  0
 45 46  2  0
 46 47  1  0
 47 48  2  0
 14 10  1  0
 48 15  1  0
 27 23  1  0
 41 28  1  0
 48 43  1  0
 40 35  1  0
M  END
>  <Title>  (693) 
idAAYSgen13

$$$$

     RDKit          2D

 27 30  0  0  0  0  0  0  0  0999 V2000
   -3.1476   -2.1380    0.0000 C   0  0  0  0  0  0  0  0  0  0  0  0
   -1.6852   -2.4718    0.0000 C   0  0  0  0  0  0  0  0  0  0  0  0
   -1.3515   -3.9342    0.0000 C   0  0  0  0  0  0  0  0  0  0  0  0
   -0.0000   -4.5850    0.0000 C   0  0  0  0  0  0  0  0  0  0  0  0
    1.3515   -3.9342    0.0000 C   0  0  0  0  0  0  0  0  0  0  0  0
    1.6852   -2.4718    0.0000 C   0  0  0  0  0  0  0  0  0  0  0  0
    3.1476   -2.1380    0.0000 C   0  0  0  0  0  0  0  0  0  0  0  0
    3.5898   -0.7046    0.0000 O   0  0  0  0  0  0  0  0  0  0  0  0
    4.1679   -3.2376    0.0000 N   0  0  0  0  0  0  0  0  0  0  0  0
    5.6303   -2.9038    0.0000 C   0  0  0  0  0  0  0  0  0  0  0  0
    6.2198   -1.5245    0.0000 N   0  0  0  0  0  0  0  0  0  0  0  0
    7.7138   -1.6590    0.0000 N   0  0  0  0  0  0  0  0  0  0  0  0
    8.0476   -3.1214    0.0000 N   0  0  0  0  0  0  0  0  0  0  0  0
    6.7599   -3.8907    0.0000 N   0  0  0  0  0  0  0  0  0  0  0  0
    6.6254   -5.3847    0.0000 C   0  0  0  0  0  0  0  0  0  0  0  0
    7.7550   -6.3716    0.0000 C   0  0  0  0  0  0  0  0  0  0  0  0
    7.1655   -7.7509    0.0000 C   0  0  0  0  0  0  0  0  0  0  0  0
    5.6715   -7.6164    0.0000 C   0  0  0  0  0  0  0  0  0  0  0  0
    4.6846   -8.7460    0.0000 O   0  0  0  0  0  0  0  0  0  0  0  0
    5.3378   -6.1540    0.0000 C   0  0  0  0  0  0  0  0  0  0  0  0
    3.9585   -5.5645    0.0000 O   0  0  0  0  0  0  0  0  0  0  0  0
    0.7500   -1.2990    0.0000 C   0  0  0  0  0  0  0  0  0  0  0  0
    1.5000    0.0000    0.0000 C   0  0  0  0  0  0  0  0  0  0  0  0
    0.7500    1.2990    0.0000 C   0  0  0  0  0  0  0  0  0  0  0  0
   -0.7500    1.2990    0.0000 C   0  0  0  0  0  0  0  0  0  0  0  0
   -1.5000    0.0000    0.0000 C   0  0  0  0  0  0  0  0  0  0  0  0
   -0.7500   -1.2990    0.0000 C   0  0  0  0  0  0  0  0  0  0  0  0
  1  2  1  0
  2  3  1  0
  3  4  2  0
  4  5  1  0
  5  6  1  0
  6  7  1  0
  7  8  2  0
  7  9  1  0
  9 10  1  0
 10 11  2  0
 11 12  1  0
 12 13  2  0
 13 14  1  0
 14 15  1  0
 15 16  2  0
 16 17  1  0
 17 18  2  0
 18 19  1  0
 18 20  1  0
 20 21  2  0
  6 22  1  0
 22 23  2  0
 23 24  1  0
 24 25  2  0
 25 26  1  0
 26 27  2  0
 27  2  1  0
 14 10  1  0
 20 15  1  0
 27 22  1  0
M  END
>  <Title>  (694) 
idAAYTgen13

$$$$

     RDKit          2D

 24 27  0  0  0  0  0  0  0  0999 V2000
   -3.0000   -2.5981    0.0000 C   0  0  0  0  0  0  0  0  0  0  0  0
   -1.5000   -2.5981    0.0000 C   0  0  0  0  0  0  0  0  0  0  0  0
   -0.7500   -3.8971    0.0000 C   0  0  0  0  0  0  0  0  0  0  0  0
    0.7500   -3.8971    0.0000 N   0  0  0  0  0  0  0  0  0  0  0  0
    1.5000   -2.5981    0.0000 C   0  0  0  0  0  0  0  0  0  0  0  0
    3.0000   -2.5981    0.0000 C   0  0  0  0  0  0  0  0  0  0  0  0
    3.7500   -3.8971    0.0000 N   0  0  0  0  0  0  0  0  0  0  0  0
    5.2418   -4.0539    0.0000 C   0  0  0  0  0  0  0  0  0  0  0  0
    5.5537   -5.5211    0.0000 C   0  0  0  0  0  0  0  0  0  0  0  0
    4.2546   -6.2711    0.0000 C   0  0  0  0  0  0  0  0  0  0  0  0
    4.0978   -7.7629    0.0000 N   0  0  0  0  0  0  0  0  0  0  0  0
    2.7275   -8.3730    0.0000 C   0  0  0  0  0  0  0  0  0  0  0  0
    2.5707   -9.8648    0.0000 C   0  0  0  0  0  0  0  0  0  0  0  0
    3.7842  -10.7465    0.0000 N   0  0  0  0  0  0  0  0  0  0  0  0
    5.1546  -10.1364    0.0000 N   0  0  0  0  0  0  0  0  0  0  0  0
    5.3113   -8.6446    0.0000 N   0  0  0  0  0  0  0  0  0  0  0  0
    3.1399   -5.2674    0.0000 C   0  0  0  0  0  0  0  0  0  0  0  0
    1.6727   -5.5793    0.0000 O   0  0  0  0  0  0  0  0  0  0  0  0
    0.7500   -1.2990    0.0000 C   0  0  0  0  0  0  0  0  0  0  0  0
    1.5000    0.0000    0.0000 C   0  0  0  0  0  0  0  0  0  0  0  0
    0.7500    1.2990    0.0000 C   0  0  0  0  0  0  0  0  0  0  0  0
   -0.7500    1.2990    0.0000 C   0  0  0  0  0  0  0  0  0  0  0  0
   -1.5000    0.0000    0.0000 C   0  0  0  0  0  0  0  0  0  0  0  0
   -0.7500   -1.2990    0.0000 C   0  0  0  0  0  0  0  0  0  0  0  0
  1  2  1  0
  2  3  1  0
  3  4  1  0
  4  5  1  0
  5  6  1  0
  6  7  1  0
  7  8  1  0
  8  9  1  0
  9 10  1  0
 10 11  1  0
 11 12  1  0
 12 13  1  0
 13 14  2  0
 14 15  1  0
 15 16  2  0
 10 17  1  0
 17 18  2  0
  5 19  1  0
 19 20  2  0
 20 21  1  0
 21 22  2  0
 22 23  1  0
 23 24  2  0
 24  2  1  0
 17  7  1  0
 24 19  1  0
 16 11  1  0
M  END
>  <Title>  (695) 
idAAYUgen13

$$$$

     RDKit          2D

 33 37  0  0  0  0  0  0  0  0999 V2000
   -3.0000   -2.5981    0.0000 C   0  0  0  0  0  0  0  0  0  0  0  0
   -1.5000   -2.5981    0.0000 C   0  0  0  0  0  0  0  0  0  0  0  0
   -0.7500   -3.8971    0.0000 C   0  0  0  0  0  0  0  0  0  0  0  0
    0.7500   -3.8971    0.0000 C   0  0  0  0  0  0  0  0  0  0  0  0
    1.5000   -2.5981    0.0000 C   0  0  0  0  0  0  0  0  0  0  0  0
    3.0000   -2.5981    0.0000 C   0  0  0  0  0  0  0  0  0  0  0  0
    3.7500   -1.2990    0.0000 O   0  0  0  0  0  0  0  0  0  0  0  0
    3.7500   -3.8971    0.0000 N   0  0  0  0  0  0  0  0  0  0  0  0
    5.2500   -3.8971    0.0000 C   0  0  0  0  0  0  0  0  0  0  0  0
    6.1317   -2.6836    0.0000 N   0  0  0  0  0  0  0  0  0  0  0  0
    7.5583   -3.1471    0.0000 N   0  0  0  0  0  0  0  0  0  0  0  0
    7.5583   -4.6471    0.0000 N   0  0  0  0  0  0  0  0  0  0  0  0
    6.1317   -5.1106    0.0000 N   0  0  0  0  0  0  0  0  0  0  0  0
    5.6682   -6.5372    0.0000 N   0  0  0  0  0  0  0  0  0  0  0  0
    4.3316   -7.2182    0.0000 C   0  0  0  0  0  0  0  0  0  0  0  0
    5.0126   -8.5547    0.0000 C   0  0  0  0  0  0  0  0  0  0  0  0
    4.5491   -9.9813    0.0000 C   0  0  0  0  0  0  0  0  0  0  0  0
    5.5528  -11.0960    0.0000 O   0  0  0  0  0  0  0  0  0  0  0  0
    3.0819  -10.2932    0.0000 N   0  0  0  0  0  0  0  0  0  0  0  0
    2.6184  -11.7198    0.0000 C   0  0  0  0  0  0  0  0  0  0  0  0
    1.1511  -12.0316    0.0000 N   0  0  0  0  0  0  0  0  0  0  0  0
    0.6876  -13.4582    0.0000 N   0  0  0  0  0  0  0  0  0  0  0  0
    1.6913  -14.5729    0.0000 N   0  0  0  0  0  0  0  0  0  0  0  0
    3.1585  -14.2611    0.0000 N   0  0  0  0  0  0  0  0  0  0  0  0
    3.6221  -12.8345    0.0000 N   0  0  0  0  0  0  0  0  0  0  0  0
    6.3491   -7.8737    0.0000 C   0  0  0  0  0  0  0  0  0  0  0  0
    7.7757   -8.3373    0.0000 O   0  0  0  0  0  0  0  0  0  0  0  0
    0.7500   -1.2990    0.0000 C   0  0  0  0  0  0  0  0  0  0  0  0
    1.5000    0.0000    0.0000 C   0  0  0  0  0  0  0  0  0  0  0  0
    0.7500    1.2990    0.0000 C   0  0  0  0  0  0  0  0  0  0  0  0
   -0.7500    1.2990    0.0000 C   0  0  0  0  0  0  0  0  0  0  0  0
   -1.5000    0.0000    0.0000 C   0  0  0  0  0  0  0  0  0  0  0  0
   -0.7500   -1.2990    0.0000 C   0  0  0  0  0  0  0  0  0  0  0  0
  1  2  1  0
  2  3  1  0
  3  4  1  0
  4  5  1  0
  5  6  1  0
  6  7  2  0
  6  8  1  0
  8  9  1  0
  9 10  2  0
 10 11  1  0
 11 12  2  0
 12 13  1  0
 13 14  1  0
 14 15  1  0
 15 16  2  0
 16 17  1  0
 17 18  2  0
 17 19  1  0
 19 20  1  0
 20 21  2  0
 21 22  1  0
 22 23  2  0
 23 24  1  0
 24 25  2  0
 16 26  1  0
 26 27  2  0
  5 28  1  0
 28 29  2  0
 29 30  1  0
 30 31  2  0
 31 32  1  0
 32 33  2  0
 33  2  1  0
 13  9  1  0
 26 14  1  0
 33 28  1  0
 25 20  1  0
M  END
>  <Title>  (696) 
idAAYVgen13

$$$$

     RDKit          2D

 44 43  0  0  0  0  0  0  0  0999 V2000
    0.0000    0.0000    0.0000 C   0  0  0  0  0  0  0  0  0  0  0  0
   -0.0000   -1.5000    0.0000 C   0  0  0  0  0  0  0  0  0  0  0  0
   -0.0000   -3.0000    0.0000 C   0  0  0  0  0  0  0  0  0  0  0  0
   -0.0000   -4.5000    0.0000 C   0  0  0  0  0  0  0  0  0  0  0  0
   -0.0000   -6.0000    0.0000 C   0  0  0  0  0  0  0  0  0  0  0  0
   -0.0000   -7.5000    0.0000 C   0  0  0  0  0  0  0  0  0  0  0  0
   -0.0000   -9.0000    0.0000 C   0  0  0  0  0  0  0  0  0  0  0  0
   -0.0000  -10.5000    0.0000 C   0  0  0  0  0  0  0  0  0  0  0  0
   -0.0000  -12.0000    0.0000 C   0  0  0  0  0  0  0  0  0  0  0  0
   -0.0000  -13.5000    0.0000 C   0  0  0  0  0  0  0  0  0  0  0  0
   -0.0000  -15.0000    0.0000 C   0  0  0  0  0  0  0  0  0  0  0  0
   -0.0000  -16.5000    0.0000 C   0  0  0  0  0  0  0  0  0  0  0  0
   -0.0000  -18.0000    0.0000 C   0  0  0  0  0  0  0  0  0  0  0  0
   -0.0000  -19.5000    0.0000 C   0  0  0  0  0  0  0  0  0  0  0  0
   -0.0000  -21.0000    0.0000 C   0  0  0  0  0  0  0  0  0  0  0  0
   -0.0000  -22.5000    0.0000 C   0  0  0  0  0  0  0  0  0  0  0  0
   -0.0000  -24.0000    0.0000 C   0  0  0  0  0  0  0  0  0  0  0  0
   -0.0000  -25.5000    0.0000 C   0  0  0  0  0  0  0  0  0  0  0  0
   -0.0000  -27.0000    0.0000 C   0  0  0  0  0  0  0  0  0  0  0  0
   -0.0000  -28.5000    0.0000 C   0  0  0  0  0  0  0  0  0  0  0  0
   -0.0000  -30.0000    0.0000 C   0  0  0  0  0  0  0  0  0  0  0  0
   -0.0000  -31.5000    0.0000 C   0  0  0  0  0  0  0  0  0  0  0  0
   -0.0000  -33.0000    0.0000 C   0  0  0  0  0  0  0  0  0  0  0  0
   -0.0000  -34.5000    0.0000 C   0  0  0  0  0  0  0  0  0  0  0  0
   -0.0000  -36.0000    0.0000 C   0  0  0  0  0  0  0  0  0  0  0  0
   -0.0000  -37.5000    0.0000 C   0  0  0  0  0  0  0  0  0  0  0  0
   -0.0000  -39.0000    0.0000 C   0  0  0  0  0  0  0  0  0  0  0  0
   -0.0000  -40.5000    0.0000 C   0  0  0  0  0  0  0  0  0  0  0  0
   -0.0000  -42.0000    0.0000 C   0  0  0  0  0  0  0  0  0  0  0  0
   -0.0000  -43.5000    0.0000 C   0  0  0  0  0  0  0  0  0  0  0  0
   -0.0000  -45.0000    0.0000 C   0  0  0  0  0  0  0  0  0  0  0  0
   -0.0000  -46.5000    0.0000 C   0  0  0  0  0  0  0  0  0  0  0  0
   -0.0000  -48.0000    0.0000 C   0  0  0  0  0  0  0  0  0  0  0  0
   -0.0000  -49.5000    0.0000 C   0  0  0  0  0  0  0  0  0  0  0  0
   -0.0000  -51.0000    0.0000 C   0  0  0  0  0  0  0  0  0  0  0  0
   -0.0000  -52.5000    0.0000 C   0  0  0  0  0  0  0  0  0  0  0  0
   -0.0000  -54.0000    0.0000 C   0  0  0  0  0  0  0  0  0  0  0  0
   -0.0000  -55.5000    0.0000 C   0  0  0  0  0  0  0  0  0  0  0  0
   -0.0000  -57.0000    0.0000 C   0  0  0  0  0  0  0  0  0  0  0  0
   -0.0000  -58.5000    0.0000 C   0  0  0  0  0  0  0  0  0  0  0  0
   -0.0000  -60.0000    0.0000 C   0  0  0  0  0  0  0  0  0  0  0  0
    1.2990  -60.7500    0.0000 C   0  0  0  0  0  0  0  0  0  0  0  0
    1.2990  -62.2500    0.0000 C   0  0  0  0  0  0  0  0  0  0  0  0
    1.2990  -63.7500    0.0000 C   0  0  0  0  0  0  0  0  0  0  0  0
  1  2  3  0
  2  3  1  0
  3  4  3  0
  4  5  1  0
  5  6  3  0
  6  7  1  0
  7  8  3  0
  8  9  1  0
  9 10  3  0
 10 11  1  0
 11 12  3  0
 12 13  1  0
 13 14  3  0
 14 15  1  0
 15 16  3  0
 16 17  1  0
 17 18  3  0
 18 19  1  0
 19 20  3  0
 20 21  1  0
 21 22  3  0
 22 23  1  0
 23 24  3  0
 24 25  1  0
 25 26  3  0
 26 27  1  0
 27 28  3  0
 28 29  1  0
 29 30  3  0
 30 31  1  0
 31 32  3  0
 32 33  1  0
 33 34  3  0
 34 35  1  0
 35 36  3  0
 36 37  1  0
 37 38  3  0
 38 39  1  0
 39 40  3  0
 40 41  1  0
 41 42  2  3
 42 43  1  0
 43 44  3  0
M  END
>  <Title>  (697) 
idAAYWgen13

$$$$

     RDKit          2D

 50 49  0  0  0  0  0  0  0  0999 V2000
    0.0000    0.0000    0.0000 C   0  0  0  0  0  0  0  0  0  0  0  0
   -0.0000   -1.5000    0.0000 C   0  0  0  0  0  0  0  0  0  0  0  0
   -0.0000   -3.0000    0.0000 C   0  0  0  0  0  0  0  0  0  0  0  0
   -0.0000   -4.5000    0.0000 C   0  0  0  0  0  0  0  0  0  0  0  0
   -0.0000   -6.0000    0.0000 C   0  0  0  0  0  0  0  0  0  0  0  0
   -0.0000   -7.5000    0.0000 C   0  0  0  0  0  0  0  0  0  0  0  0
   -0.0000   -9.0000    0.0000 C   0  0  0  0  0  0  0  0  0  0  0  0
   -0.0000  -10.5000    0.0000 C   0  0  0  0  0  0  0  0  0  0  0  0
   -0.0000  -12.0000    0.0000 C   0  0  0  0  0  0  0  0  0  0  0  0
   -0.0000  -13.5000    0.0000 C   0  0  0  0  0  0  0  0  0  0  0  0
   -0.0000  -15.0000    0.0000 C   0  0  0  0  0  0  0  0  0  0  0  0
   -0.0000  -16.5000    0.0000 C   0  0  0  0  0  0  0  0  0  0  0  0
   -0.0000  -18.0000    0.0000 C   0  0  0  0  0  0  0  0  0  0  0  0
   -0.0000  -19.5000    0.0000 C   0  0  0  0  0  0  0  0  0  0  0  0
   -0.0000  -21.0000    0.0000 C   0  0  0  0  0  0  0  0  0  0  0  0
   -0.0000  -22.5000    0.0000 C   0  0  0  0  0  0  0  0  0  0  0  0
   -0.0000  -24.0000    0.0000 C   0  0  0  0  0  0  0  0  0  0  0  0
   -0.0000  -25.5000    0.0000 C   0  0  0  0  0  0  0  0  0  0  0  0
   -0.0000  -27.0000    0.0000 C   0  0  0  0  0  0  0  0  0  0  0  0
   -0.0000  -28.5000    0.0000 C   0  0  0  0  0  0  0  0  0  0  0  0
   -0.0000  -30.0000    0.0000 C   0  0  0  0  0  0  0  0  0  0  0  0
   -0.0000  -31.5000    0.0000 C   0  0  0  0  0  0  0  0  0  0  0  0
   -0.0000  -33.0000    0.0000 C   0  0  0  0  0  0  0  0  0  0  0  0
   -0.0000  -34.5000    0.0000 C   0  0  0  0  0  0  0  0  0  0  0  0
   -0.0000  -36.0000    0.0000 C   0  0  0  0  0  0  0  0  0  0  0  0
   -0.0000  -37.5000    0.0000 C   0  0  0  0  0  0  0  0  0  0  0  0
   -0.0000  -39.0000    0.0000 C   0  0  0  0  0  0  0  0  0  0  0  0
   -0.0000  -40.5000    0.0000 C   0  0  0  0  0  0  0  0  0  0  0  0
   -0.0000  -42.0000    0.0000 C   0  0  0  0  0  0  0  0  0  0  0  0
   -0.0000  -43.5000    0.0000 C   0  0  0  0  0  0  0  0  0  0  0  0
   -0.0000  -45.0000    0.0000 C   0  0  0  0  0  0  0  0  0  0  0  0
   -0.0000  -46.5000    0.0000 C   0  0  0  0  0  0  0  0  0  0  0  0
   -0.0000  -48.0000    0.0000 C   0  0  0  0  0  0  0  0  0  0  0  0
   -0.0000  -49.5000    0.0000 C   0  0  0  0  0  0  0  0  0  0  0  0
   -0.0000  -51.0000    0.0000 C   0  0  0  0  0  0  0  0  0  0  0  0
   -0.0000  -52.5000    0.0000 C   0  0  0  0  0  0  0  0  0  0  0  0
   -0.0000  -54.0000    0.0000 C   0  0  0  0  0  0  0  0  0  0  0  0
   -0.0000  -55.5000    0.0000 C   0  0  0  0  0  0  0  0  0  0  0  0
   -0.0000  -57.0000    0.0000 C   0  0  0  0  0  0  0  0  0  0  0  0
   -0.0000  -58.5000    0.0000 C   0  0  0  0  0  0  0  0  0  0  0  0
   -0.0000  -60.0000    0.0000 C   0  0  0  0  0  0  0  0  0  0  0  0
   -0.0000  -61.5000    0.0000 C   0  0  0  0  0  0  0  0  0  0  0  0
   -0.0000  -63.0000    0.0000 C   0  0  0  0  0  0  0  0  0  0  0  0
   -0.0000  -64.5000    0.0000 C   0  0  0  0  0  0  0  0  0  0  0  0
   -0.0000  -66.0000    0.0000 C   0  0  0  0  0  0  0  0  0  0  0  0
   -0.0000  -67.5000    0.0000 C   0  0  0  0  0  0  0  0  0  0  0  0
   -0.0000  -69.0000    0.0000 C   0  0  0  0  0  0  0  0  0  0  0  0
   -0.0000  -70.5000    0.0000 C   0  0  0  0  0  0  0  0  0  0  0  0
   -0.0000  -72.0000    0.0000 C   0  0  0  0  0  0  0  0  0  0  0  0
   -0.0000  -73.5000    0.0000 C   0  0  0  0  0  0  0  0  0  0  0  0
  1  2  3  0
  2  3  1  0
  3  4  3  0
  4  5  1  0
  5  6  3  0
  6  7  1  0
  7  8  3  0
  8  9  1  0
  9 10  3  0
 10 11  1  0
 11 12  3  0
 12 13  1  0
 13 14  3  0
 14 15  1  0
 15 16  3  0
 16 17  1  0
 17 18  3  0
 18 19  1  0
 19 20  3  0
 20 21  1  0
 21 22  3  0
 22 23  1  0
 23 24  3  0
 24 25  1  0
 25 26  3  0
 26 27  1  0
 27 28  3  0
 28 29  1  0
 29 30  3  0
 30 31  1  0
 31 32  3  0
 32 33  1  0
 33 34  3  0
 34 35  1  0
 35 36  3  0
 36 37  1  0
 37 38  3  0
 38 39  1  0
 39 40  3  0
 40 41  1  0
 41 42  3  0
 42 43  1  0
 43 44  3  0
 44 45  1  0
 45 46  3  0
 46 47  1  0
 47 48  3  0
 48 49  1  0
 49 50  3  0
M  END
>  <Title>  (698) 
idAAYXgen13

$$$$

     RDKit          2D

 94 95  0  0  0  0  0  0  0  0999 V2000
    1.6085    3.7496    0.0000 C   0  0  0  0  0  0  0  0  0  0  0  0
    2.3319    4.0845    0.0000 C   0  0  0  0  0  0  0  0  0  0  0  0
    1.7571    5.4700    0.0000 C   0  0  0  0  0  0  0  0  0  0  0  0
    1.2956    6.8972    0.0000 C   0  0  0  0  0  0  0  0  0  0  0  0
    0.9504    8.3570    0.0000 C   0  0  0  0  0  0  0  0  0  0  0  0
    0.7238    9.8398    0.0000 C   0  0  0  0  0  0  0  0  0  0  0  0
    0.6173   11.3360    0.0000 C   0  0  0  0  0  0  0  0  0  0  0  0
    0.6315   12.8359    0.0000 C   0  0  0  0  0  0  0  0  0  0  0  0
    0.7664   14.3298    0.0000 C   0  0  0  0  0  0  0  0  0  0  0  0
    1.0210   15.8081    0.0000 C   0  0  0  0  0  0  0  0  0  0  0  0
    1.3938   17.2610    0.0000 C   0  0  0  0  0  0  0  0  0  0  0  0
    1.8822   18.6793    0.0000 C   0  0  0  0  0  0  0  0  0  0  0  0
    2.4832   20.0536    0.0000 C   0  0  0  0  0  0  0  0  0  0  0  0
    3.1929   21.3751    0.0000 C   0  0  0  0  0  0  0  0  0  0  0  0
    4.0066   22.6352    0.0000 C   0  0  0  0  0  0  0  0  0  0  0  0
    4.9190   23.8258    0.0000 C   0  0  0  0  0  0  0  0  0  0  0  0
    5.9243   24.9391    0.0000 C   0  0  0  0  0  0  0  0  0  0  0  0
    7.0159   25.9679    0.0000 C   0  0  0  0  0  0  0  0  0  0  0  0
    8.1867   26.9055    0.0000 C   0  0  0  0  0  0  0  0  0  0  0  0
    9.4292   27.7459    0.0000 C   0  0  0  0  0  0  0  0  0  0  0  0
   10.7353   28.4835    0.0000 C   0  0  0  0  0  0  0  0  0  0  0  0
   12.0965   29.1137    0.0000 C   0  0  0  0  0  0  0  0  0  0  0  0
   13.5040   29.6323    0.0000 C   0  0  0  0  0  0  0  0  0  0  0  0
   14.9487   30.0359    0.0000 C   0  0  0  0  0  0  0  0  0  0  0  0
   16.4212   30.3220    0.0000 C   0  0  0  0  0  0  0  0  0  0  0  0
   17.9119   30.4887    0.0000 C   0  0  0  0  0  0  0  0  0  0  0  0
   19.4112   30.5349    0.0000 C   0  0  0  0  0  0  0  0  0  0  0  0
   20.9093   30.4603    0.0000 C   0  0  0  0  0  0  0  0  0  0  0  0
   22.3966   30.2654    0.0000 C   0  0  0  0  0  0  0  0  0  0  0  0
   23.8634   29.9514    0.0000 C   0  0  0  0  0  0  0  0  0  0  0  0
   25.3001   29.5205    0.0000 C   0  0  0  0  0  0  0  0  0  0  0  0
   26.6975   28.9753    0.0000 C   0  0  0  0  0  0  0  0  0  0  0  0
   28.0466   28.3195    0.0000 C   0  0  0  0  0  0  0  0  0  0  0  0
   29.3384   27.5572    0.0000 C   0  0  0  0  0  0  0  0  0  0  0  0
   30.5648   26.6934    0.0000 C   0  0  0  0  0  0  0  0  0  0  0  0
   31.7176   25.7338    0.0000 C   0  0  0  0  0  0  0  0  0  0  0  0
   32.7895   24.6845    0.0000 C   0  0  0  0  0  0  0  0  0  0  0  0
   33.7735   23.5524    0.0000 C   0  0  0  0  0  0  0  0  0  0  0  0
   34.6633   22.3447    0.0000 C   0  0  0  0  0  0  0  0  0  0  0  0
   35.4529   21.0694    0.0000 C   0  0  0  0  0  0  0  0  0  0  0  0
   36.1374   19.7346    0.0000 C   0  0  0  0  0  0  0  0  0  0  0  0
   36.7122   18.3492    0.0000 C   0  0  0  0  0  0  0  0  0  0  0  0
   37.1737   16.9219    0.0000 C   0  0  0  0  0  0  0  0  0  0  0  0
   37.5189   15.4622    0.0000 C   0  0  0  0  0  0  0  0  0  0  0  0
   37.7454   13.9794    0.0000 C   0  0  0  0  0  0  0  0  0  0  0  0
   37.8520   12.4832    0.0000 C   0  0  0  0  0  0  0  0  0  0  0  0
   37.8378   10.9832    0.0000 C   0  0  0  0  0  0  0  0  0  0  0  0
   37.7029    9.4893    0.0000 C   0  0  0  0  0  0  0  0  0  0  0  0
   37.4482    8.0111    0.0000 C   0  0  0  0  0  0  0  0  0  0  0  0
   37.0755    6.5581    0.0000 C   0  0  0  0  0  0  0  0  0  0  0  0
   36.5870    5.1399    0.0000 C   0  0  0  0  0  0  0  0  0  0  0  0
   35.9860    3.7656    0.0000 C   0  0  0  0  0  0  0  0  0  0  0  0
   35.2764    2.4441    0.0000 C   0  0  0  0  0  0  0  0  0  0  0  0
   34.4627    1.1839    0.0000 C   0  0  0  0  0  0  0  0  0  0  0  0
   33.5503   -0.0067    0.0000 C   0  0  0  0  0  0  0  0  0  0  0  0
   32.5450   -1.1199    0.0000 C   0  0  0  0  0  0  0  0  0  0  0  0
   31.4534   -2.1487    0.0000 C   0  0  0  0  0  0  0  0  0  0  0  0
   30.2825   -3.0863    0.0000 C   0  0  0  0  0  0  0  0  0  0  0  0
   29.0400   -3.9267    0.0000 C   0  0  0  0  0  0  0  0  0  0  0  0
   27.7340   -4.6644    0.0000 C   0  0  0  0  0  0  0  0  0  0  0  0
   26.3728   -5.2945    0.0000 C   0  0  0  0  0  0  0  0  0  0  0  0
   24.9652   -5.8131    0.0000 C   0  0  0  0  0  0  0  0  0  0  0  0
   23.5206   -6.2168    0.0000 C   0  0  0  0  0  0  0  0  0  0  0  0
   22.0481   -6.5029    0.0000 C   0  0  0  0  0  0  0  0  0  0  0  0
   20.5574   -6.6696    0.0000 C   0  0  0  0  0  0  0  0  0  0  0  0
   19.0581   -6.7157    0.0000 C   0  0  0  0  0  0  0  0  0  0  0  0
   17.5600   -6.6411    0.0000 C   0  0  0  0  0  0  0  0  0  0  0  0
   16.0727   -6.4462    0.0000 C   0  0  0  0  0  0  0  0  0  0  0  0
   14.6059   -6.1323    0.0000 C   0  0  0  0  0  0  0  0  0  0  0  0
   13.1692   -5.7013    0.0000 C   0  0  0  0  0  0  0  0  0  0  0  0
   11.7717   -5.1561    0.0000 C   0  0  0  0  0  0  0  0  0  0  0  0
   10.4227   -4.5003    0.0000 C   0  0  0  0  0  0  0  0  0  0  0  0
    9.1308   -3.7380    0.0000 C   0  0  0  0  0  0  0  0  0  0  0  0
    7.9045   -2.8743    0.0000 C   0  0  0  0  0  0  0  0  0  0  0  0
    6.7516   -1.9146    0.0000 C   0  0  0  0  0  0  0  0  0  0  0  0
    5.6797   -0.8653    0.0000 C   0  0  0  0  0  0  0  0  0  0  0  0
    4.6957    0.2668    0.0000 C   0  0  0  0  0  0  0  0  0  0  0  0
    3.8060    1.4745    0.0000 C   0  0  0  0  0  0  0  0  0  0  0  0
    3.3816   -0.0000    0.0000 C   0  0  0  0  0  0  0  0  0  0  0  0
    3.1533   -1.2216    0.0000 C   0  0  0  0  0  0  0  0  0  0  0  0
    2.4991   -2.2782    0.0000 C   0  0  0  0  0  0  0  0  0  0  0  0
    1.5073   -3.0271    0.0000 C   0  0  0  0  0  0  0  0  0  0  0  0
    0.3120   -3.3672    0.0000 C   0  0  0  0  0  0  0  0  0  0  0  0
   -0.9254   -3.2526    0.0000 C   0  0  0  0  0  0  0  0  0  0  0  0
   -2.0379   -2.6986    0.0000 C   0  0  0  0  0  0  0  0  0  0  0  0
   -2.8751   -1.7802    0.0000 C   0  0  0  0  0  0  0  0  0  0  0  0
   -3.3241   -0.6214    0.0000 C   0  0  0  0  0  0  0  0  0  0  0  0
   -3.3241    0.6214    0.0000 C   0  0  0  0  0  0  0  0  0  0  0  0
   -2.8751    1.7802    0.0000 C   0  0  0  0  0  0  0  0  0  0  0  0
   -2.0379    2.6986    0.0000 C   0  0  0  0  0  0  0  0  0  0  0  0
   -0.9254    3.2526    0.0000 C   0  0  0  0  0  0  0  0  0  0  0  0
    0.3120    3.3672    0.0000 C   0  0  0  0  0  0  0  0  0  0  0  0
    1.5073    3.0271    0.0000 C   0  0  0  0  0  0  0  0  0  0  0  0
    3.0164    2.7498    0.0000 C   0  0  0  0  0  0  0  0  0  0  0  0
  1  2  1  0
  2  3  1  0
  3  4  1  0
  4  5  1  0
  5  6  1  0
  6  7  1  0
  7  8  1  0
  8  9  1  0
  9 10  1  0
 10 11  1  0
 11 12  1  0
 12 13  1  0
 13 14  1  0
 14 15  1  0
 15 16  1  0
 16 17  1  0
 17 18  1  0
 18 19  1  0
 19 20  1  0
 20 21  1  0
 21 22  1  0
 22 23  1  0
 23 24  1  0
 24 25  1  0
 25 26  1  0
 26 27  1  0
 27 28  1  0
 28 29  1  0
 29 30  1  0
 30 31  1  0
 31 32  1  0
 32 33  1  0
 33 34  1  0
 34 35  1  0
 35 36  1  0
 36 37  1  0
 37 38  1  0
 38 39  1  0
 39 40  1  0
 40 41  1  0
 41 42  1  0
 42 43  1  0
 43 44  1  0
 44 45  1  0
 45 46  1  0
 46 47  1  0
 47 48  1  0
 48 49  1  0
 49 50  1  0
 50 51  1  0
 51 52  1  0
 52 53  1  0
 53 54  1  0
 54 55  1  0
 55 56  1  0
 56 57  1  0
 57 58  1  0
 58 59  1  0
 59 60  1  0
 60 61  1  0
 61 62  1  0
 62 63  1  0
 63 64  1  0
 64 65  1  0
 65 66  1  0
 66 67  1  0
 67 68  1  0
 68 69  1  0
 69 70  1  0
 70 71  1  0
 71 72  1  0
 72 73  1  0
 73 74  1  0
 74 75  1  0
 75 76  1  0
 76 77  1  0
 77 78  1  0
 78 79  1  0
 79 80  2  0
 80 81  1  0
 81 82  2  0
 82 83  1  0
 83 84  2  0
 84 85  1  0
 85 86  2  0
 86 87  1  0
 87 88  2  0
 88 89  1  0
 89 90  2  0
 90 91  1  0
 91 92  2  0
 92 93  1  0
 93 94  2  0
 94  2  1  0
 94 78  1  0
M  END
>  <Title>  (699) 
idAAYYgen13

$$$$

     RDKit          2D

 11 11  0  0  0  0  0  0  0  0999 V2000
    7.2760   -2.5981    0.0000 C   0  0  0  0  0  0  0  0  0  0  0  0
    5.7760   -2.5981    0.0000 C   0  0  0  0  0  0  0  0  0  0  0  0
    5.0260   -1.2990    0.0000 C   0  0  0  0  0  0  0  0  0  0  0  0
    3.5260   -1.2990    0.0000 C   0  0  0  0  0  0  0  0  0  0  0  0
    2.7760   -2.5981    0.0000 O   0  0  0  0  0  0  0  0  0  0  0  0
    2.7760    0.0000    0.0000 N   0  0  0  0  0  0  0  0  0  0  0  0
    1.2760    0.0000    0.0000 C   0  0  0  0  0  0  0  0  0  0  0  0
    0.3943    1.2135    0.0000 C   0  0  0  0  0  0  0  0  0  0  0  0
   -1.0323    0.7500    0.0000 C   0  0  0  0  0  0  0  0  0  0  0  0
   -1.0323   -0.7500    0.0000 C   0  0  0  0  0  0  0  0  0  0  0  0
    0.3943   -1.2135    0.0000 O   0  0  0  0  0  0  0  0  0  0  0  0
  1  2  2  0
  2  3  1  0
  3  4  1  0
  4  5  2  0
  4  6  1  0
  6  7  1  0
  7  8  2  0
  8  9  1  0
  9 10  2  0
 10 11  1  0
 11  7  1  0
M  END
>  <Title>  (700) 
idAAYZgen13

$$$$

     RDKit          2D

 36 40  0  0  0  0  0  0  0  0999 V2000
   -3.1965   -1.7857    0.0000 C   0  0  0  0  0  0  0  0  0  0  0  0
   -1.8107   -2.3597    0.0000 C   0  0  0  0  0  0  0  0  0  0  0  0
   -1.8107   -3.8597    0.0000 C   0  0  0  0  0  0  0  0  0  0  0  0
   -0.7500   -4.9204    0.0000 C   0  0  0  0  0  0  0  0  0  0  0  0
    0.7500   -4.9204    0.0000 C   0  0  0  0  0  0  0  0  0  0  0  0
    1.8107   -3.8597    0.0000 C   0  0  0  0  0  0  0  0  0  0  0  0
    1.8107   -2.3597    0.0000 C   0  0  0  0  0  0  0  0  0  0  0  0
    3.1965   -1.7857    0.0000 C   0  0  0  0  0  0  0  0  0  0  0  0
    3.3923   -0.2985    0.0000 O   0  0  0  0  0  0  0  0  0  0  0  0
    4.3865   -2.6988    0.0000 N   0  0  0  0  0  0  0  0  0  0  0  0
    5.7723   -2.1248    0.0000 C   0  0  0  0  0  0  0  0  0  0  0  0
    6.1225   -0.6662    0.0000 N   0  0  0  0  0  0  0  0  0  0  0  0
    7.6179   -0.5485    0.0000 N   0  0  0  0  0  0  0  0  0  0  0  0
    8.1919   -1.9344    0.0000 N   0  0  0  0  0  0  0  0  0  0  0  0
    7.0513   -2.9085    0.0000 N   0  0  0  0  0  0  0  0  0  0  0  0
    7.1690   -4.4039    0.0000 C   0  0  0  0  0  0  0  0  0  0  0  0
    8.4479   -5.1877    0.0000 C   0  0  0  0  0  0  0  0  0  0  0  0
    8.0978   -6.6462    0.0000 C   0  0  0  0  0  0  0  0  0  0  0  0
    6.6024   -6.7639    0.0000 C   0  0  0  0  0  0  0  0  0  0  0  0
    5.8186   -8.0429    0.0000 C   0  0  0  0  0  0  0  0  0  0  0  0
    6.5344   -9.3611    0.0000 O   0  0  0  0  0  0  0  0  0  0  0  0
    4.3192   -8.0036    0.0000 N   0  0  0  0  0  0  0  0  0  0  0  0
    3.5354   -9.2826    0.0000 C   0  0  0  0  0  0  0  0  0  0  0  0
    2.0359   -9.2433    0.0000 N   0  0  0  0  0  0  0  0  0  0  0  0
    1.2522  -10.5223    0.0000 N   0  0  0  0  0  0  0  0  0  0  0  0
    1.9679  -11.8405    0.0000 N   0  0  0  0  0  0  0  0  0  0  0  0
    3.4674  -11.8797    0.0000 N   0  0  0  0  0  0  0  0  0  0  0  0
    4.2512  -10.6008    0.0000 N   0  0  0  0  0  0  0  0  0  0  0  0
    6.0284   -5.3781    0.0000 C   0  0  0  0  0  0  0  0  0  0  0  0
    4.5698   -5.0279    0.0000 O   0  0  0  0  0  0  0  0  0  0  0  0
    0.7500   -1.2990    0.0000 C   0  0  0  0  0  0  0  0  0  0  0  0
    1.5000    0.0000    0.0000 C   0  0  0  0  0  0  0  0  0  0  0  0
    0.7500    1.2990    0.0000 C   0  0  0  0  0  0  0  0  0  0  0  0
   -0.7500    1.2990    0.0000 C   0  0  0  0  0  0  0  0  0  0  0  0
   -1.5000    0.0000    0.0000 C   0  0  0  0  0  0  0  0  0  0  0  0
   -0.7500   -1.2990    0.0000 C   0  0  0  0  0  0  0  0  0  0  0  0
  1  2  1  0
  2  3  1  0
  3  4  2  0
  4  5  1  0
  5  6  1  0
  6  7  1  0
  7  8  1  0
  8  9  2  0
  8 10  1  0
 10 11  1  0
 11 12  2  0
 12 13  1  0
 13 14  2  0
 14 15  1  0
 15 16  1  0
 16 17  2  0
 17 18  1  0
 18 19  2  0
 19 20  1  0
 20 21  2  0
 20 22  1  0
 22 23  1  0
 23 24  2  0
 24 25  1  0
 25 26  2  0
 26 27  1  0
 27 28  2  0
 19 29  1  0
 29 30  2  0
  7 31  1  0
 31 32  2  0
 32 33  1  0
 33 34  2  0
 34 35  1  0
 35 36  2  0
 36  2  1  0
 15 11  1  0
 29 16  1  0
 36 31  1  0
 28 23  1  0
M  END
>  <Title>  (701) 
idAAZAgen13

$$$$

     RDKit          2D

 36 40  0  0  0  0  0  0  0  0999 V2000
   -0.5773   -4.2803    0.0000 C   0  0  0  0  0  0  0  0  0  0  0  0
    0.8899   -3.9684    0.0000 C   0  0  0  0  0  0  0  0  0  0  0  0
    2.0046   -4.9721    0.0000 C   0  0  0  0  0  0  0  0  0  0  0  0
    3.3037   -4.2221    0.0000 N   0  0  0  0  0  0  0  0  0  0  0  0
    2.9918   -2.7549    0.0000 N   0  0  0  0  0  0  0  0  0  0  0  0
    1.5000   -2.5981    0.0000 N   0  0  0  0  0  0  0  0  0  0  0  0
    0.7500   -1.2990    0.0000 C   0  0  0  0  0  0  0  0  0  0  0  0
    1.5000    0.0000    0.0000 C   0  0  0  0  0  0  0  0  0  0  0  0
    0.7500    1.2990    0.0000 C   0  0  0  0  0  0  0  0  0  0  0  0
   -0.7500    1.2990    0.0000 C   0  0  0  0  0  0  0  0  0  0  0  0
   -1.5000    2.5981    0.0000 C   0  0  0  0  0  0  0  0  0  0  0  0
   -3.0000    2.5981    0.0000 O   0  0  0  0  0  0  0  0  0  0  0  0
   -0.7500    3.8971    0.0000 N   0  0  0  0  0  0  0  0  0  0  0  0
   -1.5000    5.1962    0.0000 C   0  0  0  0  0  0  0  0  0  0  0  0
   -2.9918    5.3529    0.0000 N   0  0  0  0  0  0  0  0  0  0  0  0
   -3.3037    6.8202    0.0000 N   0  0  0  0  0  0  0  0  0  0  0  0
   -2.0046    7.5702    0.0000 N   0  0  0  0  0  0  0  0  0  0  0  0
   -0.8899    6.5665    0.0000 N   0  0  0  0  0  0  0  0  0  0  0  0
    0.5773    6.8783    0.0000 N   0  0  0  0  0  0  0  0  0  0  0  0
    1.1874    8.2487    0.0000 C   0  0  0  0  0  0  0  0  0  0  0  0
    2.6792    8.0919    0.0000 C   0  0  0  0  0  0  0  0  0  0  0  0
    2.9911    6.6246    0.0000 N   0  0  0  0  0  0  0  0  0  0  0  0
    4.3614    6.0145    0.0000 C   0  0  0  0  0  0  0  0  0  0  0  0
    5.5749    6.8962    0.0000 O   0  0  0  0  0  0  0  0  0  0  0  0
    4.5182    4.5228    0.0000 N   0  0  0  0  0  0  0  0  0  0  0  0
    5.8885    3.9126    0.0000 C   0  0  0  0  0  0  0  0  0  0  0  0
    6.0453    2.4209    0.0000 N   0  0  0  0  0  0  0  0  0  0  0  0
    7.4156    1.8108    0.0000 N   0  0  0  0  0  0  0  0  0  0  0  0
    8.6291    2.6924    0.0000 N   0  0  0  0  0  0  0  0  0  0  0  0
    8.4724    4.1842    0.0000 N   0  0  0  0  0  0  0  0  0  0  0  0
    7.1020    4.7943    0.0000 N   0  0  0  0  0  0  0  0  0  0  0  0
    1.6920    5.8746    0.0000 C   0  0  0  0  0  0  0  0  0  0  0  0
    1.5353    4.3829    0.0000 O   0  0  0  0  0  0  0  0  0  0  0  0
   -1.5000    0.0000    0.0000 C   0  0  0  0  0  0  0  0  0  0  0  0
   -3.0000    0.0000    0.0000 O   0  0  0  0  0  0  0  0  0  0  0  0
   -0.7500   -1.2990    0.0000 O   0  0  0  0  0  0  0  0  0  0  0  0
  1  2  1  0
  2  3  2  0
  3  4  1  0
  4  5  2  0
  5  6  1  0
  6  7  1  0
  7  8  2  0
  8  9  1  0
  9 10  2  0
 10 11  1  0
 11 12  2  0
 11 13  1  0
 13 14  1  0
 14 15  2  0
 15 16  1  0
 16 17  2  0
 17 18  1  0
 18 19  1  0
 19 20  1  0
 20 21  1  0
 21 22  1  0
 22 23  1  0
 23 24  2  0
 23 25  1  0
 25 26  1  0
 26 27  2  0
 27 28  1  0
 28 29  2  0
 29 30  1  0
 30 31  2  0
 22 32  1  0
 32 33  2  0
 10 34  1  0
 34 35  2  0
 34 36  1  0
  6  2  1  0
 36  7  1  0
 18 14  1  0
 32 19  1  0
 31 26  1  0
M  END
>  <Title>  (702) 
idAAZBgen13

$$$$

     RDKit          2D

 81 82  0  0  0  0  0  0  0  0999 V2000
    7.3699    4.4002    0.0000 C   0  0  0  0  0  0  0  0  0  0  0  0
    8.1663    4.4363    0.0000 C   0  0  0  0  0  0  0  0  0  0  0  0
    8.2031    5.9358    0.0000 C   0  0  0  0  0  0  0  0  0  0  0  0
    8.4482    7.4157    0.0000 C   0  0  0  0  0  0  0  0  0  0  0  0
    8.8969    8.8470    0.0000 C   0  0  0  0  0  0  0  0  0  0  0  0
    9.5404   10.2019    0.0000 C   0  0  0  0  0  0  0  0  0  0  0  0
   10.3663   11.4541    0.0000 C   0  0  0  0  0  0  0  0  0  0  0  0
   11.3583   12.5792    0.0000 C   0  0  0  0  0  0  0  0  0  0  0  0
   12.4973   13.5552    0.0000 C   0  0  0  0  0  0  0  0  0  0  0  0
   13.7611   14.3633    0.0000 C   0  0  0  0  0  0  0  0  0  0  0  0
   15.1250   14.9876    0.0000 C   0  0  0  0  0  0  0  0  0  0  0  0
   16.5625   15.4160    0.0000 C   0  0  0  0  0  0  0  0  0  0  0  0
   18.0457   15.6401    0.0000 C   0  0  0  0  0  0  0  0  0  0  0  0
   19.5456   15.6557    0.0000 C   0  0  0  0  0  0  0  0  0  0  0  0
   21.0331   15.4624    0.0000 C   0  0  0  0  0  0  0  0  0  0  0  0
   22.4792   15.0639    0.0000 C   0  0  0  0  0  0  0  0  0  0  0  0
   23.8558   14.4680    0.0000 C   0  0  0  0  0  0  0  0  0  0  0  0
   25.1360   13.6864    0.0000 C   0  0  0  0  0  0  0  0  0  0  0  0
   26.2950   12.7342    0.0000 C   0  0  0  0  0  0  0  0  0  0  0  0
   27.3102   11.6300    0.0000 C   0  0  0  0  0  0  0  0  0  0  0  0
   28.1619   10.3952    0.0000 C   0  0  0  0  0  0  0  0  0  0  0  0
   28.8334    9.0539    0.0000 C   0  0  0  0  0  0  0  0  0  0  0  0
   29.3117    7.6322    0.0000 C   0  0  0  0  0  0  0  0  0  0  0  0
   29.5875    6.1577    0.0000 C   0  0  0  0  0  0  0  0  0  0  0  0
   29.6554    4.6593    0.0000 C   0  0  0  0  0  0  0  0  0  0  0  0
   29.5141    3.1660    0.0000 C   0  0  0  0  0  0  0  0  0  0  0  0
   29.1663    1.7068    0.0000 C   0  0  0  0  0  0  0  0  0  0  0  0
   28.6189    0.3103    0.0000 C   0  0  0  0  0  0  0  0  0  0  0  0
   27.8824   -0.9965    0.0000 C   0  0  0  0  0  0  0  0  0  0  0  0
   26.9712   -2.1880    0.0000 C   0  0  0  0  0  0  0  0  0  0  0  0
   25.9031   -3.2411    0.0000 C   0  0  0  0  0  0  0  0  0  0  0  0
   24.6988   -4.1353    0.0000 C   0  0  0  0  0  0  0  0  0  0  0  0
   23.3817   -4.8533    0.0000 C   0  0  0  0  0  0  0  0  0  0  0  0
   21.9776   -5.3809    0.0000 C   0  0  0  0  0  0  0  0  0  0  0  0
   20.5137   -5.7080    0.0000 C   0  0  0  0  0  0  0  0  0  0  0  0
   19.0185   -5.8281    0.0000 C   0  0  0  0  0  0  0  0  0  0  0  0
   17.5212   -5.7390    0.0000 C   0  0  0  0  0  0  0  0  0  0  0  0
   16.0508   -5.4424    0.0000 C   0  0  0  0  0  0  0  0  0  0  0  0
   14.6360   -4.9440    0.0000 C   0  0  0  0  0  0  0  0  0  0  0  0
   13.3043   -4.2536    0.0000 C   0  0  0  0  0  0  0  0  0  0  0  0
   12.0817   -3.3846    0.0000 C   0  0  0  0  0  0  0  0  0  0  0  0
   10.9920   -2.3538    0.0000 C   0  0  0  0  0  0  0  0  0  0  0  0
   10.0563   -1.1815    0.0000 C   0  0  0  0  0  0  0  0  0  0  0  0
    9.2928    0.1097    0.0000 C   0  0  0  0  0  0  0  0  0  0  0  0
    8.7165    1.4946    0.0000 C   0  0  0  0  0  0  0  0  0  0  0  0
    8.1437   -0.0000    0.0000 C   0  0  0  0  0  0  0  0  0  0  0  0
    8.0266   -1.3763    0.0000 C   0  0  0  0  0  0  0  0  0  0  0  0
    7.6785   -2.7130    0.0000 C   0  0  0  0  0  0  0  0  0  0  0  0
    7.1096   -3.9717    0.0000 C   0  0  0  0  0  0  0  0  0  0  0  0
    6.3361   -5.1160    0.0000 C   0  0  0  0  0  0  0  0  0  0  0  0
    5.3804   -6.1133    0.0000 C   0  0  0  0  0  0  0  0  0  0  0  0
    4.2698   -6.9346    0.0000 C   0  0  0  0  0  0  0  0  0  0  0  0
    3.0364   -7.5565    0.0000 C   0  0  0  0  0  0  0  0  0  0  0  0
    1.7157   -7.9609    0.0000 C   0  0  0  0  0  0  0  0  0  0  0  0
    0.3456   -8.1364    0.0000 C   0  0  0  0  0  0  0  0  0  0  0  0
   -1.0344   -8.0778    0.0000 C   0  0  0  0  0  0  0  0  0  0  0  0
   -2.3847   -7.7868    0.0000 C   0  0  0  0  0  0  0  0  0  0  0  0
   -3.6663   -7.2717    0.0000 C   0  0  0  0  0  0  0  0  0  0  0  0
   -4.8425   -6.5475    0.0000 C   0  0  0  0  0  0  0  0  0  0  0  0
   -5.8794   -5.6350    0.0000 C   0  0  0  0  0  0  0  0  0  0  0  0
   -6.7472   -4.5603    0.0000 C   0  0  0  0  0  0  0  0  0  0  0  0
   -7.4208   -3.3544    0.0000 C   0  0  0  0  0  0  0  0  0  0  0  0
   -7.8809   -2.0520    0.0000 C   0  0  0  0  0  0  0  0  0  0  0  0
   -8.1144   -0.6906    0.0000 C   0  0  0  0  0  0  0  0  0  0  0  0
   -8.1144    0.6906    0.0000 C   0  0  0  0  0  0  0  0  0  0  0  0
   -7.8809    2.0520    0.0000 C   0  0  0  0  0  0  0  0  0  0  0  0
   -7.4208    3.3544    0.0000 C   0  0  0  0  0  0  0  0  0  0  0  0
   -6.7472    4.5603    0.0000 C   0  0  0  0  0  0  0  0  0  0  0  0
   -5.8794    5.6350    0.0000 C   0  0  0  0  0  0  0  0  0  0  0  0
   -4.8425    6.5475    0.0000 C   0  0  0  0  0  0  0  0  0  0  0  0
   -3.6663    7.2717    0.0000 C   0  0  0  0  0  0  0  0  0  0  0  0
   -2.3847    7.7868    0.0000 C   0  0  0  0  0  0  0  0  0  0  0  0
   -1.0344    8.0778    0.0000 C   0  0  0  0  0  0  0  0  0  0  0  0
    0.3456    8.1364    0.0000 C   0  0  0  0  0  0  0  0  0  0  0  0
    1.7157    7.9609    0.0000 C   0  0  0  0  0  0  0  0  0  0  0  0
    3.0364    7.5565    0.0000 C   0  0  0  0  0  0  0  0  0  0  0  0
    4.2698    6.9346    0.0000 C   0  0  0  0  0  0  0  0  0  0  0  0
    5.3804    6.1133    0.0000 C   0  0  0  0  0  0  0  0  0  0  0  0
    6.3361    5.1160    0.0000 C   0  0  0  0  0  0  0  0  0  0  0  0
    7.1096    3.9717    0.0000 C   0  0  0  0  0  0  0  0  0  0  0  0
    8.3385    2.9462    0.0000 C   0  0  0  0  0  0  0  0  0  0  0  0
  1  2  1  0
  2  3  1  0
  3  4  1  0
  4  5  1  0
  5  6  1  0
  6  7  1  0
  7  8  1  0
  8  9  1  0
  9 10  1  0
 10 11  1  0
 11 12  1  0
 12 13  1  0
 13 14  1  0
 14 15  1  0
 15 16  1  0
 16 17  1  0
 17 18  1  0
 18 19  1  0
 19 20  1  0
 20 21  1  0
 21 22  1  0
 22 23  1  0
 23 24  1  0
 24 25  1  0
 25 26  1  0
 26 27  1  0
 27 28  1  0
 28 29  1  0
 29 30  1  0
 30 31  1  0
 31 32  1  0
 32 33  1  0
 33 34  1  0
 34 35  1  0
 35 36  1  0
 36 37  1  0
 37 38  1  0
 38 39  1  0
 39 40  1  0
 40 41  1  0
 41 42  1  0
 42 43  1  0
 43 44  1  0
 44 45  1  0
 45 46  1  0
 46 47  1  0
 47 48  1  0
 48 49  2  0
 49 50  1  0
 50 51  2  0
 51 52  1  0
 52 53  2  0
 53 54  1  0
 54 55  2  0
 55 56  1  0
 56 57  2  0
 57 58  1  0
 58 59  2  0
 59 60  1  0
 60 61  2  0
 61 62  1  0
 62 63  2  0
 63 64  1  0
 64 65  2  0
 65 66  1  0
 66 67  2  0
 67 68  1  0
 68 69  2  0
 69 70  1  0
 70 71  2  0
 71 72  1  0
 72 73  2  0
 73 74  1  0
 74 75  2  0
 75 76  1  0
 76 77  2  0
 77 78  1  0
 78 79  2  0
 79 80  1  0
 80 81  2  0
 81  2  1  0
 81 45  1  0
M  END
>  <Title>  (703) 
idAAZCgen13

$$$$

     RDKit          2D

 35 39  0  0  0  0  0  0  0  0999 V2000
   -3.1476   -2.1380    0.0000 C   0  0  0  0  0  0  0  0  0  0  0  0
   -1.6852   -2.4718    0.0000 C   0  0  0  0  0  0  0  0  0  0  0  0
   -1.3515   -3.9342    0.0000 C   0  0  0  0  0  0  0  0  0  0  0  0
   -0.0000   -4.5850    0.0000 C   0  0  0  0  0  0  0  0  0  0  0  0
    1.3515   -3.9342    0.0000 C   0  0  0  0  0  0  0  0  0  0  0  0
    1.6852   -2.4718    0.0000 C   0  0  0  0  0  0  0  0  0  0  0  0
    3.1476   -2.1380    0.0000 C   0  0  0  0  0  0  0  0  0  0  0  0
    3.5898   -0.7046    0.0000 O   0  0  0  0  0  0  0  0  0  0  0  0
    4.1679   -3.2376    0.0000 N   0  0  0  0  0  0  0  0  0  0  0  0
    5.6303   -2.9038    0.0000 C   0  0  0  0  0  0  0  0  0  0  0  0
    6.2198   -1.5245    0.0000 N   0  0  0  0  0  0  0  0  0  0  0  0
    7.7138   -1.6590    0.0000 N   0  0  0  0  0  0  0  0  0  0  0  0
    8.0476   -3.1214    0.0000 N   0  0  0  0  0  0  0  0  0  0  0  0
    6.7599   -3.8907    0.0000 N   0  0  0  0  0  0  0  0  0  0  0  0
    6.6254   -5.3847    0.0000 N   0  0  0  0  0  0  0  0  0  0  0  0
    7.7550   -6.3716    0.0000 C   0  0  0  0  0  0  0  0  0  0  0  0
    7.1655   -7.7509    0.0000 C   0  0  0  0  0  0  0  0  0  0  0  0
    5.6715   -7.6164    0.0000 C   0  0  0  0  0  0  0  0  0  0  0  0
    4.6846   -8.7460    0.0000 C   0  0  0  0  0  0  0  0  0  0  0  0
    5.1694  -10.1655    0.0000 O   0  0  0  0  0  0  0  0  0  0  0  0
    3.2129   -8.4561    0.0000 N   0  0  0  0  0  0  0  0  0  0  0  0
    2.2260   -9.5857    0.0000 C   0  0  0  0  0  0  0  0  0  0  0  0
    0.7543   -9.2959    0.0000 N   0  0  0  0  0  0  0  0  0  0  0  0
   -0.2326  -10.4255    0.0000 N   0  0  0  0  0  0  0  0  0  0  0  0
    0.2522  -11.8450    0.0000 N   0  0  0  0  0  0  0  0  0  0  0  0
    1.7239  -12.1348    0.0000 N   0  0  0  0  0  0  0  0  0  0  0  0
    2.7108  -11.0052    0.0000 N   0  0  0  0  0  0  0  0  0  0  0  0
    5.3378   -6.1540    0.0000 C   0  0  0  0  0  0  0  0  0  0  0  0
    3.9585   -5.5645    0.0000 O   0  0  0  0  0  0  0  0  0  0  0  0
    0.7500   -1.2990    0.0000 C   0  0  0  0  0  0  0  0  0  0  0  0
    1.5000    0.0000    0.0000 C   0  0  0  0  0  0  0  0  0  0  0  0
    0.7500    1.2990    0.0000 C   0  0  0  0  0  0  0  0  0  0  0  0
   -0.7500    1.2990    0.0000 C   0  0  0  0  0  0  0  0  0  0  0  0
   -1.5000    0.0000    0.0000 C   0  0  0  0  0  0  0  0  0  0  0  0
   -0.7500   -1.2990    0.0000 C   0  0  0  0  0  0  0  0  0  0  0  0
  1  2  1  0
  2  3  1  0
  3  4  2  0
  4  5  1  0
  5  6  1  0
  6  7  1  0
  7  8  2  0
  7  9  1  0
  9 10  1  0
 10 11  2  0
 11 12  1  0
 12 13  2  0
 13 14  1  0
 14 15  1  0
 15 16  1  0
 16 17  1  0
 17 18  1  0
 18 19  1  0
 19 20  2  0
 19 21  1  0
 21 22  1  0
 22 23  2  0
 23 24  1  0
 24 25  2  0
 25 26  1  0
 26 27  2  0
 18 28  1  0
 28 29  2  0
  6 30  1  0
 30 31  2  0
 31 32  1  0
 32 33  2  0
 33 34  1  0
 34 35  2  0
 35  2  1  0
 14 10  1  0
 28 15  1  0
 35 30  1  0
 27 22  1  0
M  END
>  <Title>  (704) 
idAAZDgen13

$$$$

     RDKit          2D

 35 39  0  0  0  0  0  0  0  0999 V2000
   -3.1476   -2.1380    0.0000 C   0  0  0  0  0  0  0  0  0  0  0  0
   -1.6852   -2.4718    0.0000 C   0  0  0  0  0  0  0  0  0  0  0  0
   -1.3515   -3.9342    0.0000 C   0  0  0  0  0  0  0  0  0  0  0  0
   -0.0000   -4.5850    0.0000 C   0  0  0  0  0  0  0  0  0  0  0  0
    1.3515   -3.9342    0.0000 C   0  0  0  0  0  0  0  0  0  0  0  0
    1.6852   -2.4718    0.0000 C   0  0  0  0  0  0  0  0  0  0  0  0
    3.1476   -2.1380    0.0000 C   0  0  0  0  0  0  0  0  0  0  0  0
    3.5898   -0.7046    0.0000 O   0  0  0  0  0  0  0  0  0  0  0  0
    4.1679   -3.2376    0.0000 N   0  0  0  0  0  0  0  0  0  0  0  0
    5.6303   -2.9038    0.0000 C   0  0  0  0  0  0  0  0  0  0  0  0
    6.2198   -1.5245    0.0000 N   0  0  0  0  0  0  0  0  0  0  0  0
    7.7138   -1.6590    0.0000 N   0  0  0  0  0  0  0  0  0  0  0  0
    8.0476   -3.1214    0.0000 N   0  0  0  0  0  0  0  0  0  0  0  0
    6.7599   -3.8907    0.0000 N   0  0  0  0  0  0  0  0  0  0  0  0
    6.6254   -5.3847    0.0000 N   0  0  0  0  0  0  0  0  0  0  0  0
    7.7550   -6.3716    0.0000 C   0  0  0  0  0  0  0  0  0  0  0  0
    7.1655   -7.7509    0.0000 C   0  0  0  0  0  0  0  0  0  0  0  0
    5.6715   -7.6164    0.0000 N   0  0  0  0  0  0  0  0  0  0  0  0
    4.6846   -8.7460    0.0000 C   0  0  0  0  0  0  0  0  0  0  0  0
    5.1694  -10.1655    0.0000 O   0  0  0  0  0  0  0  0  0  0  0  0
    3.2129   -8.4561    0.0000 N   0  0  0  0  0  0  0  0  0  0  0  0
    2.2260   -9.5857    0.0000 C   0  0  0  0  0  0  0  0  0  0  0  0
    0.7543   -9.2959    0.0000 N   0  0  0  0  0  0  0  0  0  0  0  0
   -0.2326  -10.4255    0.0000 N   0  0  0  0  0  0  0  0  0  0  0  0
    0.2522  -11.8450    0.0000 N   0  0  0  0  0  0  0  0  0  0  0  0
    1.7239  -12.1348    0.0000 N   0  0  0  0  0  0  0  0  0  0  0  0
    2.7108  -11.0052    0.0000 N   0  0  0  0  0  0  0  0  0  0  0  0
    5.3378   -6.1540    0.0000 C   0  0  0  0  0  0  0  0  0  0  0  0
    3.9585   -5.5645    0.0000 O   0  0  0  0  0  0  0  0  0  0  0  0
    0.7500   -1.2990    0.0000 C   0  0  0  0  0  0  0  0  0  0  0  0
    1.5000    0.0000    0.0000 C   0  0  0  0  0  0  0  0  0  0  0  0
    0.7500    1.2990    0.0000 C   0  0  0  0  0  0  0  0  0  0  0  0
   -0.7500    1.2990    0.0000 C   0  0  0  0  0  0  0  0  0  0  0  0
   -1.5000    0.0000    0.0000 C   0  0  0  0  0  0  0  0  0  0  0  0
   -0.7500   -1.2990    0.0000 C   0  0  0  0  0  0  0  0  0  0  0  0
  1  2  1  0
  2  3  2  0
  3  4  1  0
  4  5  2  0
  5  6  1  0
  6  7  1  0
  7  8  2  0
  7  9  1  0
  9 10  1  0
 10 11  2  0
 11 12  1  0
 12 13  2  0
 13 14  1  0
 14 15  1  0
 15 16  1  0
 16 17  1  0
 17 18  1  0
 18 19  1  0
 19 20  2  0
 19 21  1  0
 21 22  1  0
 22 23  2  0
 23 24  1  0
 24 25  2  0
 25 26  1  0
 26 27  2  0
 18 28  1  0
 28 29  2  0
  6 30  1  0
 30 31  2  0
 31 32  1  0
 32 33  2  0
 33 34  1  0
 34 35  2  0
 35  2  1  0
 14 10  1  0
 28 15  1  0
 35 30  1  0
 27 22  1  0
M  END
>  <Title>  (705) 
idAAZEgen13

$$$$

     RDKit          2D

 37 41  0  0  0  0  0  0  0  0999 V2000
   -3.1965   -1.7857    0.0000 C   0  0  0  0  0  0  0  0  0  0  0  0
   -1.8107   -2.3597    0.0000 C   0  0  0  0  0  0  0  0  0  0  0  0
   -1.8107   -3.8597    0.0000 C   0  0  0  0  0  0  0  0  0  0  0  0
   -0.7500   -4.9204    0.0000 C   0  0  0  0  0  0  0  0  0  0  0  0
    0.7500   -4.9204    0.0000 C   0  0  0  0  0  0  0  0  0  0  0  0
    1.3240   -6.3062    0.0000 C   0  0  0  0  0  0  0  0  0  0  0  0
    2.8112   -6.5020    0.0000 O   0  0  0  0  0  0  0  0  0  0  0  0
    0.4109   -7.4962    0.0000 N   0  0  0  0  0  0  0  0  0  0  0  0
    0.9849   -8.8820    0.0000 C   0  0  0  0  0  0  0  0  0  0  0  0
    2.4435   -9.2322    0.0000 N   0  0  0  0  0  0  0  0  0  0  0  0
    2.5612  -10.7276    0.0000 N   0  0  0  0  0  0  0  0  0  0  0  0
    1.1753  -11.3016    0.0000 N   0  0  0  0  0  0  0  0  0  0  0  0
    0.2012  -10.1610    0.0000 N   0  0  0  0  0  0  0  0  0  0  0  0
   -1.2942  -10.2787    0.0000 C   0  0  0  0  0  0  0  0  0  0  0  0
   -2.0780  -11.5576    0.0000 C   0  0  0  0  0  0  0  0  0  0  0  0
   -3.5365  -11.2075    0.0000 C   0  0  0  0  0  0  0  0  0  0  0  0
   -3.6542   -9.7121    0.0000 C   0  0  0  0  0  0  0  0  0  0  0  0
   -4.9332   -8.9283    0.0000 C   0  0  0  0  0  0  0  0  0  0  0  0
   -6.2514   -9.6441    0.0000 O   0  0  0  0  0  0  0  0  0  0  0  0
   -4.8939   -7.4289    0.0000 N   0  0  0  0  0  0  0  0  0  0  0  0
   -6.1729   -6.6451    0.0000 C   0  0  0  0  0  0  0  0  0  0  0  0
   -6.1336   -5.1456    0.0000 N   0  0  0  0  0  0  0  0  0  0  0  0
   -7.4126   -4.3619    0.0000 N   0  0  0  0  0  0  0  0  0  0  0  0
   -8.7308   -5.0776    0.0000 N   0  0  0  0  0  0  0  0  0  0  0  0
   -8.7700   -6.5771    0.0000 N   0  0  0  0  0  0  0  0  0  0  0  0
   -7.4911   -7.3608    0.0000 N   0  0  0  0  0  0  0  0  0  0  0  0
   -2.2684   -9.1381    0.0000 C   0  0  0  0  0  0  0  0  0  0  0  0
   -1.9182   -7.6795    0.0000 O   0  0  0  0  0  0  0  0  0  0  0  0
    1.8107   -3.8597    0.0000 C   0  0  0  0  0  0  0  0  0  0  0  0
    3.1965   -4.4337    0.0000 O   0  0  0  0  0  0  0  0  0  0  0  0
    1.8107   -2.3597    0.0000 O   0  0  0  0  0  0  0  0  0  0  0  0
    0.7500   -1.2990    0.0000 C   0  0  0  0  0  0  0  0  0  0  0  0
    1.5000    0.0000    0.0000 C   0  0  0  0  0  0  0  0  0  0  0  0
    0.7500    1.2990    0.0000 C   0  0  0  0  0  0  0  0  0  0  0  0
   -0.7500    1.2990    0.0000 C   0  0  0  0  0  0  0  0  0  0  0  0
   -1.5000    0.0000    0.0000 C   0  0  0  0  0  0  0  0  0  0  0  0
   -0.7500   -1.2990    0.0000 C   0  0  0  0  0  0  0  0  0  0  0  0
  1  2  1  0
  2  3  1  0
  3  4  2  0
  4  5  1  0
  5  6  1  0
  6  7  2  0
  6  8  1  0
  8  9  1  0
  9 10  2  0
 10 11  1  0
 11 12  2  0
 12 13  1  0
 13 14  1  0
 14 15  2  0
 15 16  1  0
 16 17  2  0
 17 18  1  0
 18 19  2  0
 18 20  1  0
 20 21  1  0
 21 22  2  0
 22 23  1  0
 23 24  2  0
 24 25  1  0
 25 26  2  0
 17 27  1  0
 27 28  2  0
  5 29  1  0
 29 30  2  0
 29 31  1  0
 31 32  1  0
 32 33  2  0
 33 34  1  0
 34 35  2  0
 35 36  1  0
 36 37  2  0
 37  2  1  0
 13  9  1  0
 27 14  1  0
 37 32  1  0
 26 21  1  0
M  END
>  <Title>  (706) 
idAAZFgen13

$$$$

     RDKit          2D

 13 14  0  0  0  0  0  0  0  0999 V2000
    5.0260   -1.2990    0.0000 C   0  0  0  0  0  0  0  0  0  0  0  0
    3.5260   -1.2990    0.0000 C   0  0  0  0  0  0  0  0  0  0  0  0
    2.7760    0.0000    0.0000 N   0  0  0  0  0  0  0  0  0  0  0  0
    1.2760    0.0000    0.0000 C   0  0  0  0  0  0  0  0  0  0  0  0
    0.3943    1.2135    0.0000 N   0  0  0  0  0  0  0  0  0  0  0  0
   -1.0323    0.7500    0.0000 N   0  0  0  0  0  0  0  0  0  0  0  0
   -1.0323   -0.7500    0.0000 N   0  0  0  0  0  0  0  0  0  0  0  0
    0.3943   -1.2135    0.0000 N   0  0  0  0  0  0  0  0  0  0  0  0
    0.8578   -2.6401    0.0000 C   0  0  0  0  0  0  0  0  0  0  0  0
    2.2844   -3.1036    0.0000 C   0  0  0  0  0  0  0  0  0  0  0  0
    2.2844   -4.6036    0.0000 C   0  0  0  0  0  0  0  0  0  0  0  0
    0.8578   -5.0672    0.0000 C   0  0  0  0  0  0  0  0  0  0  0  0
   -0.0239   -3.8536    0.0000 C   0  0  0  0  0  0  0  0  0  0  0  0
  1  2  1  0
  2  3  1  0
  3  4  1  0
  4  5  2  0
  5  6  1  0
  6  7  2  0
  7  8  1  0
  8  9  1  0
  9 10  2  0
 10 11  1  0
 11 12  1  0
 12 13  2  0
  8  4  1  0
 13  9  1  0
M  END
>  <Title>  (707) 
idAAZGgen13

$$$$

     RDKit          2D

 16 16  0  0  0  0  0  0  0  0999 V2000
   12.0000   -5.1962    0.0000 C   0  0  0  0  0  0  0  0  0  0  0  0
   10.5000   -5.1962    0.0000 C   0  0  0  0  0  0  0  0  0  0  0  0
    9.7500   -3.8971    0.0000 C   0  0  0  0  0  0  0  0  0  0  0  0
    8.2500   -3.8971    0.0000 C   0  0  0  0  0  0  0  0  0  0  0  0
    7.5000   -5.1962    0.0000 O   0  0  0  0  0  0  0  0  0  0  0  0
    7.5000   -2.5981    0.0000 N   0  0  0  0  0  0  0  0  0  0  0  0
    6.0000   -2.5981    0.0000 C   0  0  0  0  0  0  0  0  0  0  0  0
    5.2500   -1.2990    0.0000 C   0  0  0  0  0  0  0  0  0  0  0  0
    3.7500   -1.2990    0.0000 C   0  0  0  0  0  0  0  0  0  0  0  0
    3.0000    0.0000    0.0000 C   0  0  0  0  0  0  0  0  0  0  0  0
    1.5000    0.0000    0.0000 C   0  0  0  0  0  0  0  0  0  0  0  0
    0.7500   -1.2990    0.0000 C   0  0  0  0  0  0  0  0  0  0  0  0
   -0.7500   -1.2990    0.0000 C   0  0  0  0  0  0  0  0  0  0  0  0
   -1.5000    0.0000    0.0000 C   0  0  0  0  0  0  0  0  0  0  0  0
   -0.7500    1.2990    0.0000 C   0  0  0  0  0  0  0  0  0  0  0  0
    0.7500    1.2990    0.0000 C   0  0  0  0  0  0  0  0  0  0  0  0
  1  2  2  0
  2  3  1  0
  3  4  1  0
  4  5  2  0
  4  6  1  0
  6  7  1  0
  7  8  2  3
  8  9  1  0
  9 10  1  0
 10 11  1  0
 11 12  2  0
 12 13  1  0
 13 14  2  0
 14 15  1  0
 15 16  2  0
 16 11  1  0
M  END
>  <Title>  (708) 
idAAZHgen13

$$$$

     RDKit          2D

 37 41  0  0  0  0  0  0  0  0999 V2000
   -6.7500   -3.8971    0.0000 C   0  0  0  0  0  0  0  0  0  0  0  0
   -5.2500   -3.8971    0.0000 C   0  0  0  0  0  0  0  0  0  0  0  0
   -3.7500   -3.8971    0.0000 C   0  0  0  0  0  0  0  0  0  0  0  0
   -3.0000   -2.5981    0.0000 C   0  0  0  0  0  0  0  0  0  0  0  0
   -1.5000   -2.5981    0.0000 C   0  0  0  0  0  0  0  0  0  0  0  0
   -0.7500   -3.8971    0.0000 C   0  0  0  0  0  0  0  0  0  0  0  0
    0.7500   -3.8971    0.0000 C   0  0  0  0  0  0  0  0  0  0  0  0
    1.5000   -2.5981    0.0000 C   0  0  0  0  0  0  0  0  0  0  0  0
    3.0000   -2.5981    0.0000 C   0  0  0  0  0  0  0  0  0  0  0  0
    3.7500   -1.2990    0.0000 O   0  0  0  0  0  0  0  0  0  0  0  0
    3.7500   -3.8971    0.0000 N   0  0  0  0  0  0  0  0  0  0  0  0
    5.2500   -3.8971    0.0000 C   0  0  0  0  0  0  0  0  0  0  0  0
    6.1317   -2.6836    0.0000 N   0  0  0  0  0  0  0  0  0  0  0  0
    7.5583   -3.1471    0.0000 N   0  0  0  0  0  0  0  0  0  0  0  0
    7.5583   -4.6471    0.0000 N   0  0  0  0  0  0  0  0  0  0  0  0
    6.1317   -5.1106    0.0000 N   0  0  0  0  0  0  0  0  0  0  0  0
    5.6682   -6.5372    0.0000 N   0  0  0  0  0  0  0  0  0  0  0  0
    6.5498   -7.7508    0.0000 C   0  0  0  0  0  0  0  0  0  0  0  0
    5.6682   -8.9643    0.0000 C   0  0  0  0  0  0  0  0  0  0  0  0
    4.2416   -8.5008    0.0000 N   0  0  0  0  0  0  0  0  0  0  0  0
    3.0280   -9.3824    0.0000 C   0  0  0  0  0  0  0  0  0  0  0  0
    3.1848  -10.8742    0.0000 O   0  0  0  0  0  0  0  0  0  0  0  0
    1.6577   -8.7723    0.0000 N   0  0  0  0  0  0  0  0  0  0  0  0
    0.4442   -9.6540    0.0000 C   0  0  0  0  0  0  0  0  0  0  0  0
   -0.9261   -9.0439    0.0000 N   0  0  0  0  0  0  0  0  0  0  0  0
   -2.1396   -9.9256    0.0000 N   0  0  0  0  0  0  0  0  0  0  0  0
   -1.9829  -11.4174    0.0000 N   0  0  0  0  0  0  0  0  0  0  0  0
   -0.6125  -12.0275    0.0000 N   0  0  0  0  0  0  0  0  0  0  0  0
    0.6010  -11.1458    0.0000 N   0  0  0  0  0  0  0  0  0  0  0  0
    4.2416   -7.0008    0.0000 C   0  0  0  0  0  0  0  0  0  0  0  0
    3.0280   -6.1191    0.0000 O   0  0  0  0  0  0  0  0  0  0  0  0
    0.7500   -1.2990    0.0000 C   0  0  0  0  0  0  0  0  0  0  0  0
    1.5000    0.0000    0.0000 C   0  0  0  0  0  0  0  0  0  0  0  0
    0.7500    1.2990    0.0000 C   0  0  0  0  0  0  0  0  0  0  0  0
   -0.7500    1.2990    0.0000 C   0  0  0  0  0  0  0  0  0  0  0  0
   -1.5000    0.0000    0.0000 C   0  0  0  0  0  0  0  0  0  0  0  0
   -0.7500   -1.2990    0.0000 C   0  0  0  0  0  0  0  0  0  0  0  0
  1  2  3  0
  2  3  1  0
  3  4  2  3
  4  5  1  0
  5  6  2  0
  6  7  1  0
  7  8  2  0
  8  9  1  0
  9 10  2  0
  9 11  1  0
 11 12  1  0
 12 13  2  0
 13 14  1  0
 14 15  2  0
 15 16  1  0
 16 17  1  0
 17 18  1  0
 18 19  1  0
 19 20  1  0
 20 21  1  0
 21 22  2  0
 21 23  1  0
 23 24  1  0
 24 25  2  0
 25 26  1  0
 26 27  2  0
 27 28  1  0
 28 29  2  0
 20 30  1  0
 30 31  2  0
  8 32  1  0
 32 33  2  0
 33 34  1  0
 34 35  2  0
 35 36  1  0
 36 37  2  0
 37  5  1  0
 16 12  1  0
 30 17  1  0
 37 32  1  0
 29 24  1  0
M  END
>  <Title>  (709) 
idAAZIgen13

$$$$

     RDKit          2D

 13 15  0  0  0  0  0  0  0  0999 V2000
   -4.4426   -1.4224    0.0000 C   0  0  0  0  0  0  0  0  0  0  0  0
   -2.9937   -1.8107    0.0000 C   0  0  0  0  0  0  0  0  0  0  0  0
   -2.6054   -3.2595    0.0000 O   0  0  0  0  0  0  0  0  0  0  0  0
   -1.9330   -0.7500    0.0000 N   0  0  0  0  0  0  0  0  0  0  0  0
   -1.9330    0.7500    0.0000 C   0  0  0  0  0  0  0  0  0  0  0  0
   -0.4330    0.7500    0.0000 C   0  0  0  0  0  0  0  0  0  0  0  0
   -0.0448    2.1989    0.0000 C   0  0  0  0  0  0  0  0  0  0  0  0
   -0.9888    3.3646    0.0000 C   0  0  0  0  0  0  0  0  0  0  0  0
   -0.1718    4.6226    0.0000 C   0  0  0  0  0  0  0  0  0  0  0  0
    1.2771    4.2344    0.0000 C   0  0  0  0  0  0  0  0  0  0  0  0
    1.3556    2.7364    0.0000 C   0  0  0  0  0  0  0  0  0  0  0  0
    0.8660    0.0000    0.0000 C   0  0  0  0  0  0  0  0  0  0  0  0
   -0.4330   -0.7500    0.0000 C   0  0  0  0  0  0  0  0  0  0  0  0
  1  2  1  0
  2  3  2  0
  2  4  1  0
  4  5  1  0
  5  6  1  0
  6  7  1  0
  7  8  1  0
  8  9  1  0
  9 10  1  0
 10 11  1  0
  6 12  1  0
 12 13  1  0
 13  4  1  0
 13  6  1  0
 11  7  1  0
M  END
>  <Title>  (710) 
idAAZJgen13

$$$$

     RDKit          2D

 74 77  0  0  0  0  0  0  0  0999 V2000
   -5.6638   -0.7952    0.0000 C   0  0  0  0  0  0  0  0  0  0  0  0
   -5.1428   -2.2018    0.0000 C   0  0  0  0  0  0  0  0  0  0  0  0
   -6.5212   -2.7933    0.0000 C   0  0  0  0  0  0  0  0  0  0  0  0
   -7.8328   -3.5213    0.0000 C   0  0  0  0  0  0  0  0  0  0  0  0
   -9.0639   -4.3782    0.0000 C   0  0  0  0  0  0  0  0  0  0  0  0
  -10.2020   -5.3552    0.0000 C   0  0  0  0  0  0  0  0  0  0  0  0
  -11.2355   -6.4424    0.0000 C   0  0  0  0  0  0  0  0  0  0  0  0
  -12.1537   -7.6286    0.0000 C   0  0  0  0  0  0  0  0  0  0  0  0
  -12.9471   -8.9015    0.0000 C   0  0  0  0  0  0  0  0  0  0  0  0
  -13.6077  -10.2483    0.0000 C   0  0  0  0  0  0  0  0  0  0  0  0
  -14.1287  -11.6549    0.0000 C   0  0  0  0  0  0  0  0  0  0  0  0
  -14.5046  -13.1070    0.0000 C   0  0  0  0  0  0  0  0  0  0  0  0
  -14.7318  -14.5897    0.0000 C   0  0  0  0  0  0  0  0  0  0  0  0
  -14.8077  -16.0878    0.0000 C   0  0  0  0  0  0  0  0  0  0  0  0
  -14.7318  -17.5859    0.0000 C   0  0  0  0  0  0  0  0  0  0  0  0
  -14.5046  -19.0686    0.0000 C   0  0  0  0  0  0  0  0  0  0  0  0
  -14.1287  -20.5207    0.0000 C   0  0  0  0  0  0  0  0  0  0  0  0
  -13.6077  -21.9273    0.0000 C   0  0  0  0  0  0  0  0  0  0  0  0
  -12.9471  -23.2740    0.0000 C   0  0  0  0  0  0  0  0  0  0  0  0
  -12.1537  -24.5470    0.0000 C   0  0  0  0  0  0  0  0  0  0  0  0
  -11.2355  -25.7331    0.0000 C   0  0  0  0  0  0  0  0  0  0  0  0
  -10.2020  -26.8203    0.0000 C   0  0  0  0  0  0  0  0  0  0  0  0
   -9.0639  -27.7974    0.0000 C   0  0  0  0  0  0  0  0  0  0  0  0
   -7.8328  -28.6543    0.0000 C   0  0  0  0  0  0  0  0  0  0  0  0
   -6.5212  -29.3822    0.0000 C   0  0  0  0  0  0  0  0  0  0  0  0
   -5.1428  -29.9738    0.0000 C   0  0  0  0  0  0  0  0  0  0  0  0
   -3.7116  -30.4228    0.0000 C   0  0  0  0  0  0  0  0  0  0  0  0
   -2.2423  -30.7248    0.0000 C   0  0  0  0  0  0  0  0  0  0  0  0
   -0.7500  -30.8765    0.0000 C   0  0  0  0  0  0  0  0  0  0  0  0
    0.7500  -30.8765    0.0000 C   0  0  0  0  0  0  0  0  0  0  0  0
    2.2423  -30.7248    0.0000 C   0  0  0  0  0  0  0  0  0  0  0  0
    3.7116  -30.4228    0.0000 C   0  0  0  0  0  0  0  0  0  0  0  0
    5.1428  -29.9738    0.0000 C   0  0  0  0  0  0  0  0  0  0  0  0
    6.5212  -29.3822    0.0000 C   0  0  0  0  0  0  0  0  0  0  0  0
    7.8328  -28.6543    0.0000 C   0  0  0  0  0  0  0  0  0  0  0  0
    9.0639  -27.7974    0.0000 C   0  0  0  0  0  0  0  0  0  0  0  0
   10.2020  -26.8203    0.0000 C   0  0  0  0  0  0  0  0  0  0  0  0
   11.2355  -25.7331    0.0000 C   0  0  0  0  0  0  0  0  0  0  0  0
   12.1537  -24.5470    0.0000 C   0  0  0  0  0  0  0  0  0  0  0  0
   12.9471  -23.2740    0.0000 C   0  0  0  0  0  0  0  0  0  0  0  0
   13.6077  -21.9273    0.0000 C   0  0  0  0  0  0  0  0  0  0  0  0
   14.1287  -20.5207    0.0000 C   0  0  0  0  0  0  0  0  0  0  0  0
   14.5046  -19.0686    0.0000 C   0  0  0  0  0  0  0  0  0  0  0  0
   14.7318  -17.5859    0.0000 C   0  0  0  0  0  0  0  0  0  0  0  0
   14.8077  -16.0878    0.0000 C   0  0  0  0  0  0  0  0  0  0  0  0
   14.7318  -14.5897    0.0000 C   0  0  0  0  0  0  0  0  0  0  0  0
   14.5046  -13.1070    0.0000 C   0  0  0  0  0  0  0  0  0  0  0  0
   14.1287  -11.6549    0.0000 C   0  0  0  0  0  0  0  0  0  0  0  0
   13.6077  -10.2483    0.0000 C   0  0  0  0  0  0  0  0  0  0  0  0
   12.9471   -8.9015    0.0000 C   0  0  0  0  0  0  0  0  0  0  0  0
   12.1537   -7.6286    0.0000 C   0  0  0  0  0  0  0  0  0  0  0  0
   11.2355   -6.4424    0.0000 C   0  0  0  0  0  0  0  0  0  0  0  0
   10.2020   -5.3552    0.0000 C   0  0  0  0  0  0  0  0  0  0  0  0
    9.0639   -4.3782    0.0000 C   0  0  0  0  0  0  0  0  0  0  0  0
    7.8328   -3.5213    0.0000 C   0  0  0  0  0  0  0  0  0  0  0  0
    6.5212   -2.7933    0.0000 C   0  0  0  0  0  0  0  0  0  0  0  0
    5.1428   -2.2018    0.0000 C   0  0  0  0  0  0  0  0  0  0  0  0
    3.7116   -1.7527    0.0000 C   0  0  0  0  0  0  0  0  0  0  0  0
    3.8785   -3.2434    0.0000 C   0  0  0  0  0  0  0  0  0  0  0  0
    2.5123   -3.8628    0.0000 C   0  0  0  0  0  0  0  0  0  0  0  0
    1.5011   -2.7549    0.0000 C   0  0  0  0  0  0  0  0  0  0  0  0
    2.2423   -1.4508    0.0000 C   0  0  0  0  0  0  0  0  0  0  0  0
    0.7500   -1.2990    0.0000 C   0  0  0  0  0  0  0  0  0  0  0  0
    1.5000    0.0000    0.0000 C   0  0  0  0  0  0  0  0  0  0  0  0
    0.7500    1.2990    0.0000 C   0  0  0  0  0  0  0  0  0  0  0  0
   -0.7500    1.2990    0.0000 C   0  0  0  0  0  0  0  0  0  0  0  0
   -1.5000    0.0000    0.0000 C   0  0  0  0  0  0  0  0  0  0  0  0
   -0.7500   -1.2990    0.0000 C   0  0  0  0  0  0  0  0  0  0  0  0
   -2.2423   -1.4508    0.0000 C   0  0  0  0  0  0  0  0  0  0  0  0
   -1.2462   -2.5723    0.0000 C   0  0  0  0  0  0  0  0  0  0  0  0
   -1.7193   -3.9957    0.0000 C   0  0  0  0  0  0  0  0  0  0  0  0
   -3.1886   -4.2976    0.0000 C   0  0  0  0  0  0  0  0  0  0  0  0
   -4.1848   -3.1762    0.0000 C   0  0  0  0  0  0  0  0  0  0  0  0
   -3.7116   -1.7527    0.0000 C   0  0  0  0  0  0  0  0  0  0  0  0
  1  2  1  0
  2  3  1  0
  3  4  2  0
  4  5  1  0
  5  6  1  0
  6  7  1  0
  7  8  1  0
  8  9  1  0
  9 10  1  0
 10 11  1  0
 11 12  1  0
 12 13  1  0
 13 14  1  0
 14 15  1  0
 15 16  1  0
 16 17  1  0
 17 18  1  0
 18 19  1  0
 19 20  1  0
 20 21  1  0
 21 22  1  0
 22 23  1  0
 23 24  1  0
 24 25  1  0
 25 26  1  0
 26 27  1  0
 27 28  1  0
 28 29  1  0
 29 30  1  0
 30 31  1  0
 31 32  1  0
 32 33  1  0
 33 34  1  0
 34 35  1  0
 35 36  1  0
 36 37  1  0
 37 38  1  0
 38 39  1  0
 39 40  1  0
 40 41  1  0
 41 42  1  0
 42 43  1  0
 43 44  1  0
 44 45  1  0
 45 46  1  0
 46 47  1  0
 47 48  2  0
 48 49  1  0
 49 50  2  0
 50 51  1  0
 51 52  2  0
 52 53  1  0
 53 54  2  0
 54 55  1  0
 55 56  2  0
 56 57  1  0
 57 58  2  0
 58 59  1  0
 59 60  2  0
 60 61  1  0
 61 62  2  0
 62 63  1  0
 63 64  2  0
 64 65  1  0
 65 66  2  0
 66 67  1  0
 67 68  2  0
 68 69  1  0
 69 70  2  0
 70 71  1  0
 71 72  2  0
 72 73  1  0
 73 74  2  0
 74  2  1  0
 62 58  1  0
 68 63  1  0
 74 69  1  0
M  END
>  <Title>  (711) 
idAAZKgen13

$$$$

     RDKit          2D

 86 87  0  0  0  0  0  0  0  0999 V2000
    1.9416   -3.8372    0.0000 C   0  0  0  0  0  0  0  0  0  0  0  0
    2.6798   -4.1381    0.0000 C   0  0  0  0  0  0  0  0  0  0  0  0
    2.1775   -5.5515    0.0000 C   0  0  0  0  0  0  0  0  0  0  0  0
    1.8058   -7.0047    0.0000 C   0  0  0  0  0  0  0  0  0  0  0  0
    1.5678   -8.4857    0.0000 C   0  0  0  0  0  0  0  0  0  0  0  0
    1.4654   -9.9822    0.0000 C   0  0  0  0  0  0  0  0  0  0  0  0
    1.4996  -11.4818    0.0000 C   0  0  0  0  0  0  0  0  0  0  0  0
    1.6699  -12.9721    0.0000 C   0  0  0  0  0  0  0  0  0  0  0  0
    1.9751  -14.4407    0.0000 C   0  0  0  0  0  0  0  0  0  0  0  0
    2.4126  -15.8755    0.0000 C   0  0  0  0  0  0  0  0  0  0  0  0
    2.9787  -17.2646    0.0000 C   0  0  0  0  0  0  0  0  0  0  0  0
    3.6688  -18.5964    0.0000 C   0  0  0  0  0  0  0  0  0  0  0  0
    4.4772  -19.8600    0.0000 C   0  0  0  0  0  0  0  0  0  0  0  0
    5.3971  -21.0448    0.0000 C   0  0  0  0  0  0  0  0  0  0  0  0
    6.4209  -22.1410    0.0000 C   0  0  0  0  0  0  0  0  0  0  0  0
    7.5402  -23.1397    0.0000 C   0  0  0  0  0  0  0  0  0  0  0  0
    8.7456  -24.0323    0.0000 C   0  0  0  0  0  0  0  0  0  0  0  0
   10.0272  -24.8117    0.0000 C   0  0  0  0  0  0  0  0  0  0  0  0
   11.3744  -25.4713    0.0000 C   0  0  0  0  0  0  0  0  0  0  0  0
   12.7760  -26.0057    0.0000 C   0  0  0  0  0  0  0  0  0  0  0  0
   14.2204  -26.4104    0.0000 C   0  0  0  0  0  0  0  0  0  0  0  0
   15.6956  -26.6821    0.0000 C   0  0  0  0  0  0  0  0  0  0  0  0
   17.1894  -26.8185    0.0000 C   0  0  0  0  0  0  0  0  0  0  0  0
   18.6894  -26.8185    0.0000 C   0  0  0  0  0  0  0  0  0  0  0  0
   20.1832  -26.6821    0.0000 C   0  0  0  0  0  0  0  0  0  0  0  0
   21.6584  -26.4104    0.0000 C   0  0  0  0  0  0  0  0  0  0  0  0
   23.1027  -26.0057    0.0000 C   0  0  0  0  0  0  0  0  0  0  0  0
   24.5043  -25.4713    0.0000 C   0  0  0  0  0  0  0  0  0  0  0  0
   25.8515  -24.8117    0.0000 C   0  0  0  0  0  0  0  0  0  0  0  0
   27.1331  -24.0323    0.0000 C   0  0  0  0  0  0  0  0  0  0  0  0
   28.3386  -23.1397    0.0000 C   0  0  0  0  0  0  0  0  0  0  0  0
   29.4579  -22.1410    0.0000 C   0  0  0  0  0  0  0  0  0  0  0  0
   30.4817  -21.0448    0.0000 C   0  0  0  0  0  0  0  0  0  0  0  0
   31.4016  -19.8600    0.0000 C   0  0  0  0  0  0  0  0  0  0  0  0
   32.2099  -18.5964    0.0000 C   0  0  0  0  0  0  0  0  0  0  0  0
   32.9000  -17.2646    0.0000 C   0  0  0  0  0  0  0  0  0  0  0  0
   33.4662  -15.8755    0.0000 C   0  0  0  0  0  0  0  0  0  0  0  0
   33.9036  -14.4407    0.0000 C   0  0  0  0  0  0  0  0  0  0  0  0
   34.2088  -12.9721    0.0000 C   0  0  0  0  0  0  0  0  0  0  0  0
   34.3792  -11.4818    0.0000 C   0  0  0  0  0  0  0  0  0  0  0  0
   34.4133   -9.9822    0.0000 C   0  0  0  0  0  0  0  0  0  0  0  0
   34.3110   -8.4857    0.0000 C   0  0  0  0  0  0  0  0  0  0  0  0
   34.0730   -7.0047    0.0000 C   0  0  0  0  0  0  0  0  0  0  0  0
   33.7012   -5.5515    0.0000 C   0  0  0  0  0  0  0  0  0  0  0  0
   33.1989   -4.1381    0.0000 C   0  0  0  0  0  0  0  0  0  0  0  0
   32.5702   -2.7762    0.0000 C   0  0  0  0  0  0  0  0  0  0  0  0
   31.8202   -1.4772    0.0000 C   0  0  0  0  0  0  0  0  0  0  0  0
   30.9551   -0.2518    0.0000 C   0  0  0  0  0  0  0  0  0  0  0  0
   29.9823    0.8900    0.0000 C   0  0  0  0  0  0  0  0  0  0  0  0
   28.9096    1.9385    0.0000 C   0  0  0  0  0  0  0  0  0  0  0  0
   27.7460    2.8851    0.0000 C   0  0  0  0  0  0  0  0  0  0  0  0
   26.5012    3.7220    0.0000 C   0  0  0  0  0  0  0  0  0  0  0  0
   25.1854    4.4422    0.0000 C   0  0  0  0  0  0  0  0  0  0  0  0
   23.8096    5.0398    0.0000 C   0  0  0  0  0  0  0  0  0  0  0  0
   22.3852    5.5099    0.0000 C   0  0  0  0  0  0  0  0  0  0  0  0
   20.9239    5.8484    0.0000 C   0  0  0  0  0  0  0  0  0  0  0  0
   19.4378    6.0527    0.0000 C   0  0  0  0  0  0  0  0  0  0  0  0
   17.9394    6.1209    0.0000 C   0  0  0  0  0  0  0  0  0  0  0  0
   16.4409    6.0527    0.0000 C   0  0  0  0  0  0  0  0  0  0  0  0
   14.9549    5.8484    0.0000 C   0  0  0  0  0  0  0  0  0  0  0  0
   13.4936    5.5099    0.0000 C   0  0  0  0  0  0  0  0  0  0  0  0
   12.0691    5.0398    0.0000 C   0  0  0  0  0  0  0  0  0  0  0  0
   10.6933    4.4422    0.0000 C   0  0  0  0  0  0  0  0  0  0  0  0
    9.3776    3.7220    0.0000 C   0  0  0  0  0  0  0  0  0  0  0  0
    8.1327    2.8851    0.0000 C   0  0  0  0  0  0  0  0  0  0  0  0
    6.9692    1.9385    0.0000 C   0  0  0  0  0  0  0  0  0  0  0  0
    5.8965    0.8900    0.0000 C   0  0  0  0  0  0  0  0  0  0  0  0
    4.9236   -0.2518    0.0000 C   0  0  0  0  0  0  0  0  0  0  0  0
    4.0586   -1.4772    0.0000 C   0  0  0  0  0  0  0  0  0  0  0  0
    3.6191   -0.0000    0.0000 C   0  0  0  0  0  0  0  0  0  0  0  0
    3.4008    1.2378    0.0000 C   0  0  0  0  0  0  0  0  0  0  0  0
    2.7724    2.3263    0.0000 C   0  0  0  0  0  0  0  0  0  0  0  0
    1.8095    3.1342    0.0000 C   0  0  0  0  0  0  0  0  0  0  0  0
    0.6284    3.5641    0.0000 C   0  0  0  0  0  0  0  0  0  0  0  0
   -0.6284    3.5641    0.0000 C   0  0  0  0  0  0  0  0  0  0  0  0
   -1.8095    3.1342    0.0000 C   0  0  0  0  0  0  0  0  0  0  0  0
   -2.7724    2.3263    0.0000 C   0  0  0  0  0  0  0  0  0  0  0  0
   -3.4008    1.2378    0.0000 C   0  0  0  0  0  0  0  0  0  0  0  0
   -3.6191    0.0000    0.0000 C   0  0  0  0  0  0  0  0  0  0  0  0
   -3.4008   -1.2378    0.0000 C   0  0  0  0  0  0  0  0  0  0  0  0
   -2.7724   -2.3263    0.0000 C   0  0  0  0  0  0  0  0  0  0  0  0
   -1.8095   -3.1342    0.0000 C   0  0  0  0  0  0  0  0  0  0  0  0
   -0.6284   -3.5641    0.0000 C   0  0  0  0  0  0  0  0  0  0  0  0
    0.6284   -3.5641    0.0000 C   0  0  0  0  0  0  0  0  0  0  0  0
    1.8095   -3.1342    0.0000 C   0  0  0  0  0  0  0  0  0  0  0  0
    3.3086   -2.7762    0.0000 C   0  0  0  0  0  0  0  0  0  0  0  0
  1  2  1  0
  2  3  1  0
  3  4  1  0
  4  5  1  0
  5  6  1  0
  6  7  1  0
  7  8  1  0
  8  9  1  0
  9 10  1  0
 10 11  1  0
 11 12  1  0
 12 13  1  0
 13 14  1  0
 14 15  1  0
 15 16  1  0
 16 17  1  0
 17 18  1  0
 18 19  1  0
 19 20  1  0
 20 21  1  0
 21 22  1  0
 22 23  1  0
 23 24  1  0
 24 25  1  0
 25 26  1  0
 26 27  1  0
 27 28  1  0
 28 29  1  0
 29 30  1  0
 30 31  1  0
 31 32  1  0
 32 33  1  0
 33 34  1  0
 34 35  1  0
 35 36  1  0
 36 37  1  0
 37 38  1  0
 38 39  1  0
 39 40  1  0
 40 41  1  0
 41 42  1  0
 42 43  1  0
 43 44  1  0
 44 45  1  0
 45 46  1  0
 46 47  1  0
 47 48  1  0
 48 49  1  0
 49 50  1  0
 50 51  1  0
 51 52  1  0
 52 53  1  0
 53 54  1  0
 54 55  1  0
 55 56  1  0
 56 57  1  0
 57 58  1  0
 58 59  1  0
 59 60  1  0
 60 61  1  0
 61 62  1  0
 62 63  1  0
 63 64  1  0
 64 65  1  0
 65 66  1  0
 66 67  1  0
 67 68  1  0
 68 69  1  0
 69 70  1  0
 70 71  1  0
 71 72  1  0
 72 73  1  0
 73 74  2  0
 74 75  1  0
 75 76  2  0
 76 77  1  0
 77 78  2  0
 78 79  1  0
 79 80  2  0
 80 81  1  0
 81 82  2  0
 82 83  1  0
 83 84  2  0
 84 85  1  0
 85 86  2  0
 86  2  1  0
 86 69  1  0
M  END
>  <Title>  (712) 
idAAZLgen13

$$$$

     RDKit          2D

  6  6  0  0  0  0  0  0  0  0999 V2000
    2.7760    0.0000    0.0000 C   0  0  0  0  0  0  0  0  0  0  0  0
    1.2760    0.0000    0.0000 N   0  0  0  0  0  0  0  0  0  0  0  0
    0.3943    1.2135    0.0000 C   0  0  0  0  0  0  0  0  0  0  0  0
   -1.0323    0.7500    0.0000 C   0  0  0  0  0  0  0  0  0  0  0  0
   -1.0323   -0.7500    0.0000 C   0  0  0  0  0  0  0  0  0  0  0  0
    0.3943   -1.2135    0.0000 C   0  0  0  0  0  0  0  0  0  0  0  0
  1  2  1  0
  2  3  1  0
  3  4  2  0
  4  5  1  0
  5  6  2  0
  6  2  1  0
M  END
>  <Title>  (713) 
idAAZMgen13

$$$$

     RDKit          2D

 70 71  0  0  0  0  0  0  0  0999 V2000
   -2.4597    0.0405    0.0000 C   0  0  0  0  0  0  0  0  0  0  0  0
   -2.2430   -1.4438    0.0000 C   0  0  0  0  0  0  0  0  0  0  0  0
   -3.7151   -1.7320    0.0000 C   0  0  0  0  0  0  0  0  0  0  0  0
   -5.1524   -2.1609    0.0000 C   0  0  0  0  0  0  0  0  0  0  0  0
   -6.5417   -2.7266    0.0000 C   0  0  0  0  0  0  0  0  0  0  0  0
   -7.8699   -3.4236    0.0000 C   0  0  0  0  0  0  0  0  0  0  0  0
   -9.1246   -4.2457    0.0000 C   0  0  0  0  0  0  0  0  0  0  0  0
  -10.2941   -5.1849    0.0000 C   0  0  0  0  0  0  0  0  0  0  0  0
  -11.3675   -6.2327    0.0000 C   0  0  0  0  0  0  0  0  0  0  0  0
  -12.3347   -7.3792    0.0000 C   0  0  0  0  0  0  0  0  0  0  0  0
  -13.1868   -8.6137    0.0000 C   0  0  0  0  0  0  0  0  0  0  0  0
  -13.9158   -9.9246    0.0000 C   0  0  0  0  0  0  0  0  0  0  0  0
  -14.5149  -11.2998    0.0000 C   0  0  0  0  0  0  0  0  0  0  0  0
  -14.9784  -12.7264    0.0000 C   0  0  0  0  0  0  0  0  0  0  0  0
  -15.3021  -14.1910    0.0000 C   0  0  0  0  0  0  0  0  0  0  0  0
  -15.4829  -15.6801    0.0000 C   0  0  0  0  0  0  0  0  0  0  0  0
  -15.5191  -17.1797    0.0000 C   0  0  0  0  0  0  0  0  0  0  0  0
  -15.4105  -18.6757    0.0000 C   0  0  0  0  0  0  0  0  0  0  0  0
  -15.1579  -20.1543    0.0000 C   0  0  0  0  0  0  0  0  0  0  0  0
  -14.7639  -21.6016    0.0000 C   0  0  0  0  0  0  0  0  0  0  0  0
  -14.2320  -23.0042    0.0000 C   0  0  0  0  0  0  0  0  0  0  0  0
  -13.5672  -24.3488    0.0000 C   0  0  0  0  0  0  0  0  0  0  0  0
  -12.7757  -25.6230    0.0000 C   0  0  0  0  0  0  0  0  0  0  0  0
  -11.8650  -26.8149    0.0000 C   0  0  0  0  0  0  0  0  0  0  0  0
  -10.8434  -27.9133    0.0000 C   0  0  0  0  0  0  0  0  0  0  0  0
   -9.7207  -28.9080    0.0000 C   0  0  0  0  0  0  0  0  0  0  0  0
   -8.5072  -29.7896    0.0000 C   0  0  0  0  0  0  0  0  0  0  0  0
   -7.2142  -30.5501    0.0000 C   0  0  0  0  0  0  0  0  0  0  0  0
   -5.8539  -31.1822    0.0000 C   0  0  0  0  0  0  0  0  0  0  0  0
   -4.4389  -31.6800    0.0000 C   0  0  0  0  0  0  0  0  0  0  0  0
   -2.9825  -32.0390    0.0000 C   0  0  0  0  0  0  0  0  0  0  0  0
   -1.4982  -32.2557    0.0000 C   0  0  0  0  0  0  0  0  0  0  0  0
   -0.0000  -32.3282    0.0000 C   0  0  0  0  0  0  0  0  0  0  0  0
    1.4982  -32.2557    0.0000 C   0  0  0  0  0  0  0  0  0  0  0  0
    2.9825  -32.0390    0.0000 C   0  0  0  0  0  0  0  0  0  0  0  0
    4.4389  -31.6800    0.0000 C   0  0  0  0  0  0  0  0  0  0  0  0
    5.8539  -31.1822    0.0000 C   0  0  0  0  0  0  0  0  0  0  0  0
    7.2142  -30.5501    0.0000 C   0  0  0  0  0  0  0  0  0  0  0  0
    8.5072  -29.7896    0.0000 C   0  0  0  0  0  0  0  0  0  0  0  0
    9.7207  -28.9080    0.0000 C   0  0  0  0  0  0  0  0  0  0  0  0
   10.8434  -27.9133    0.0000 C   0  0  0  0  0  0  0  0  0  0  0  0
   11.8650  -26.8149    0.0000 C   0  0  0  0  0  0  0  0  0  0  0  0
   12.7757  -25.6230    0.0000 C   0  0  0  0  0  0  0  0  0  0  0  0
   13.5672  -24.3488    0.0000 C   0  0  0  0  0  0  0  0  0  0  0  0
   14.2320  -23.0042    0.0000 C   0  0  0  0  0  0  0  0  0  0  0  0
   14.7639  -21.6016    0.0000 C   0  0  0  0  0  0  0  0  0  0  0  0
   15.1579  -20.1543    0.0000 C   0  0  0  0  0  0  0  0  0  0  0  0
   15.4105  -18.6757    0.0000 C   0  0  0  0  0  0  0  0  0  0  0  0
   15.5191  -17.1797    0.0000 C   0  0  0  0  0  0  0  0  0  0  0  0
   15.4829  -15.6801    0.0000 C   0  0  0  0  0  0  0  0  0  0  0  0
   15.3021  -14.1910    0.0000 C   0  0  0  0  0  0  0  0  0  0  0  0
   14.9784  -12.7264    0.0000 C   0  0  0  0  0  0  0  0  0  0  0  0
   14.5149  -11.2998    0.0000 C   0  0  0  0  0  0  0  0  0  0  0  0
   13.9158   -9.9246    0.0000 C   0  0  0  0  0  0  0  0  0  0  0  0
   13.1868   -8.6137    0.0000 C   0  0  0  0  0  0  0  0  0  0  0  0
   12.3347   -7.3792    0.0000 C   0  0  0  0  0  0  0  0  0  0  0  0
   11.3675   -6.2327    0.0000 C   0  0  0  0  0  0  0  0  0  0  0  0
   10.2941   -5.1849    0.0000 C   0  0  0  0  0  0  0  0  0  0  0  0
    9.1246   -4.2457    0.0000 C   0  0  0  0  0  0  0  0  0  0  0  0
    7.8699   -3.4236    0.0000 C   0  0  0  0  0  0  0  0  0  0  0  0
    6.5417   -2.7266    0.0000 C   0  0  0  0  0  0  0  0  0  0  0  0
    5.1524   -2.1609    0.0000 C   0  0  0  0  0  0  0  0  0  0  0  0
    3.7151   -1.7320    0.0000 C   0  0  0  0  0  0  0  0  0  0  0  0
    2.2430   -1.4438    0.0000 C   0  0  0  0  0  0  0  0  0  0  0  0
    0.7500   -1.2990    0.0000 C   0  0  0  0  0  0  0  0  0  0  0  0
    1.5000    0.0000    0.0000 C   0  0  0  0  0  0  0  0  0  0  0  0
    0.7500    1.2990    0.0000 C   0  0  0  0  0  0  0  0  0  0  0  0
   -0.7500    1.2990    0.0000 C   0  0  0  0  0  0  0  0  0  0  0  0
   -1.5000    0.0000    0.0000 C   0  0  0  0  0  0  0  0  0  0  0  0
   -0.7500   -1.2990    0.0000 C   0  0  0  0  0  0  0  0  0  0  0  0
  1  2  1  0
  2  3  1  0
  3  4  1  0
  4  5  1  0
  5  6  1  0
  6  7  1  0
  7  8  1  0
  8  9  1  0
  9 10  1  0
 10 11  1  0
 11 12  1  0
 12 13  1  0
 13 14  1  0
 14 15  1  0
 15 16  1  0
 16 17  1  0
 17 18  1  0
 18 19  1  0
 19 20  1  0
 20 21  1  0
 21 22  1  0
 22 23  1  0
 23 24  1  0
 24 25  1  0
 25 26  1  0
 26 27  1  0
 27 28  1  0
 28 29  1  0
 29 30  1  0
 30 31  1  0
 31 32  1  0
 32 33  1  0
 33 34  1  0
 34 35  1  0
 35 36  1  0
 36 37  1  0
 37 38  1  0
 38 39  1  0
 39 40  1  0
 40 41  1  0
 41 42  1  0
 42 43  1  0
 43 44  1  0
 44 45  1  0
 45 46  1  0
 46 47  1  0
 47 48  1  0
 48 49  1  0
 49 50  1  0
 50 51  1  0
 51 52  1  0
 52 53  1  0
 53 54  1  0
 54 55  1  0
 55 56  1  0
 56 57  1  0
 57 58  1  0
 58 59  1  0
 59 60  1  0
 60 61  1  0
 61 62  1  0
 62 63  1  0
 63 64  1  0
 64 65  1  0
 65 66  1  0
 66 67  1  0
 67 68  2  0
 68 69  1  0
 69 70  2  0
 70  2  1  0
 70 65  1  0
M  END
>  <Title>  (714) 
idAAZNgen13

$$$$

     RDKit          2D

  9 10  0  0  0  0  0  0  0  0999 V2000
   -1.8107   -3.8597    0.0000 C   0  0  0  0  0  0  0  0  0  0  0  0
   -0.7500   -2.7990    0.0000 C   0  0  0  0  0  0  0  0  0  0  0  0
    0.7500   -2.7990    0.0000 C   0  0  0  0  0  0  0  0  0  0  0  0
    0.7500   -1.2990    0.0000 C   0  0  0  0  0  0  0  0  0  0  0  0
    1.5000    0.0000    0.0000 C   0  0  0  0  0  0  0  0  0  0  0  0
    0.7500    1.2990    0.0000 C   0  0  0  0  0  0  0  0  0  0  0  0
   -0.7500    1.2990    0.0000 C   0  0  0  0  0  0  0  0  0  0  0  0
   -1.5000    0.0000    0.0000 C   0  0  0  0  0  0  0  0  0  0  0  0
   -0.7500   -1.2990    0.0000 C   0  0  0  0  0  0  0  0  0  0  0  0
  1  2  1  0
  2  3  1  0
  3  4  1  0
  4  5  2  0
  5  6  1  0
  6  7  2  0
  7  8  1  0
  8  9  2  0
  9  2  1  0
  9  4  1  0
M  END
>  <Title>  (715) 
idAAZOgen13

$$$$

     RDKit          2D

 42 47  0  0  0  0  0  0  0  0999 V2000
   -4.9620    3.6981    0.0000 C   0  0  0  0  0  0  0  0  0  0  0  0
   -3.9583    2.5833    0.0000 C   0  0  0  0  0  0  0  0  0  0  0  0
   -4.4218    1.1568    0.0000 C   0  0  0  0  0  0  0  0  0  0  0  0
   -3.4182    0.0420    0.0000 C   0  0  0  0  0  0  0  0  0  0  0  0
   -3.8817   -1.3846    0.0000 C   0  0  0  0  0  0  0  0  0  0  0  0
   -5.3083   -1.8481    0.0000 N   0  0  0  0  0  0  0  0  0  0  0  0
   -5.3083   -3.3481    0.0000 N   0  0  0  0  0  0  0  0  0  0  0  0
   -3.8817   -3.8116    0.0000 N   0  0  0  0  0  0  0  0  0  0  0  0
   -3.0000   -2.5981    0.0000 N   0  0  0  0  0  0  0  0  0  0  0  0
   -1.5000   -2.5981    0.0000 C   0  0  0  0  0  0  0  0  0  0  0  0
   -0.7500   -3.8971    0.0000 C   0  0  0  0  0  0  0  0  0  0  0  0
    0.7500   -3.8971    0.0000 C   0  0  0  0  0  0  0  0  0  0  0  0
    1.5000   -2.5981    0.0000 C   0  0  0  0  0  0  0  0  0  0  0  0
    3.0000   -2.5981    0.0000 C   0  0  0  0  0  0  0  0  0  0  0  0
    3.7500   -1.2990    0.0000 O   0  0  0  0  0  0  0  0  0  0  0  0
    3.7500   -3.8971    0.0000 N   0  0  0  0  0  0  0  0  0  0  0  0
    5.2500   -3.8971    0.0000 C   0  0  0  0  0  0  0  0  0  0  0  0
    6.1317   -2.6836    0.0000 N   0  0  0  0  0  0  0  0  0  0  0  0
    7.5583   -3.1471    0.0000 N   0  0  0  0  0  0  0  0  0  0  0  0
    7.5583   -4.6471    0.0000 N   0  0  0  0  0  0  0  0  0  0  0  0
    6.1317   -5.1106    0.0000 N   0  0  0  0  0  0  0  0  0  0  0  0
    5.6682   -6.5372    0.0000 C   0  0  0  0  0  0  0  0  0  0  0  0
    6.5498   -7.7508    0.0000 C   0  0  0  0  0  0  0  0  0  0  0  0
    5.6682   -8.9643    0.0000 C   0  0  0  0  0  0  0  0  0  0  0  0
    4.2416   -8.5008    0.0000 C   0  0  0  0  0  0  0  0  0  0  0  0
    3.0280   -9.3824    0.0000 C   0  0  0  0  0  0  0  0  0  0  0  0
    3.1848  -10.8742    0.0000 O   0  0  0  0  0  0  0  0  0  0  0  0
    1.6577   -8.7723    0.0000 N   0  0  0  0  0  0  0  0  0  0  0  0
    0.4442   -9.6540    0.0000 C   0  0  0  0  0  0  0  0  0  0  0  0
   -0.9261   -9.0439    0.0000 N   0  0  0  0  0  0  0  0  0  0  0  0
   -2.1396   -9.9256    0.0000 N   0  0  0  0  0  0  0  0  0  0  0  0
   -1.9829  -11.4174    0.0000 N   0  0  0  0  0  0  0  0  0  0  0  0
   -0.6125  -12.0275    0.0000 N   0  0  0  0  0  0  0  0  0  0  0  0
    0.6010  -11.1458    0.0000 N   0  0  0  0  0  0  0  0  0  0  0  0
    4.2416   -7.0008    0.0000 C   0  0  0  0  0  0  0  0  0  0  0  0
    3.0280   -6.1191    0.0000 O   0  0  0  0  0  0  0  0  0  0  0  0
    0.7500   -1.2990    0.0000 C   0  0  0  0  0  0  0  0  0  0  0  0
    1.5000    0.0000    0.0000 C   0  0  0  0  0  0  0  0  0  0  0  0
    0.7500    1.2990    0.0000 C   0  0  0  0  0  0  0  0  0  0  0  0
   -0.7500    1.2990    0.0000 C   0  0  0  0  0  0  0  0  0  0  0  0
   -1.5000    0.0000    0.0000 C   0  0  0  0  0  0  0  0  0  0  0  0
   -0.7500   -1.2990    0.0000 C   0  0  0  0  0  0  0  0  0  0  0  0
  1  2  1  0
  2  3  1  0
  3  4  1  0
  4  5  1  0
  5  6  2  0
  6  7  1  0
  7  8  2  0
  8  9  1  0
  9 10  1  0
 10 11  2  0
 11 12  1  0
 12 13  2  0
 13 14  1  0
 14 15  2  0
 14 16  1  0
 16 17  1  0
 17 18  2  0
 18 19  1  0
 19 20  2  0
 20 21  1  0
 21 22  1  0
 22 23  2  0
 23 24  1  0
 24 25  2  0
 25 26  1  0
 26 27  2  0
 26 28  1  0
 28 29  1  0
 29 30  2  0
 30 31  1  0
 31 32  2  0
 32 33  1  0
 33 34  2  0
 25 35  1  0
 35 36  2  0
 13 37  1  0
 37 38  2  0
 38 39  1  0
 39 40  2  0
 40 41  1  0
 41 42  2  0
  9  5  1  0
 42 10  1  0
 21 17  1  0
 35 22  1  0
 42 37  1  0
 34 29  1  0
M  END
>  <Title>  (716) 
idAAZPgen13

$$$$

     RDKit          2D

 58 66  0  0  0  0  0  0  0  0999 V2000
    4.3881   -6.6982    0.0000 C   0  0  0  0  0  0  0  0  0  0  0  0
    3.0367   -6.0474    0.0000 C   0  0  0  0  0  0  0  0  0  0  0  0
    3.3705   -4.5850    0.0000 C   0  0  0  0  0  0  0  0  0  0  0  0
    3.0367   -3.1226    0.0000 C   0  0  0  0  0  0  0  0  0  0  0  0
    2.1015   -1.9499    0.0000 C   0  0  0  0  0  0  0  0  0  0  0  0
    3.0367   -0.7771    0.0000 C   0  0  0  0  0  0  0  0  0  0  0  0
    2.4887    0.6192    0.0000 O   0  0  0  0  0  0  0  0  0  0  0  0
    4.5199   -1.0007    0.0000 N   0  0  0  0  0  0  0  0  0  0  0  0
    5.4552    0.1721    0.0000 C   0  0  0  0  0  0  0  0  0  0  0  0
    5.0561    1.6180    0.0000 N   0  0  0  0  0  0  0  0  0  0  0  0
    6.3080    2.4444    0.0000 N   0  0  0  0  0  0  0  0  0  0  0  0
    7.4807    1.5091    0.0000 N   0  0  0  0  0  0  0  0  0  0  0  0
    6.9537    0.1048    0.0000 N   0  0  0  0  0  0  0  0  0  0  0  0
    7.7800   -1.1471    0.0000 N   0  0  0  0  0  0  0  0  0  0  0  0
    9.2785   -1.2144    0.0000 C   0  0  0  0  0  0  0  0  0  0  0  0
    9.6775   -2.6603    0.0000 C   0  0  0  0  0  0  0  0  0  0  0  0
    8.4257   -3.4867    0.0000 N   0  0  0  0  0  0  0  0  0  0  0  0
    8.3584   -4.9852    0.0000 C   0  0  0  0  0  0  0  0  0  0  0  0
    9.6225   -5.7927    0.0000 O   0  0  0  0  0  0  0  0  0  0  0  0
    7.0270   -5.6761    0.0000 N   0  0  0  0  0  0  0  0  0  0  0  0
    6.9597   -7.1746    0.0000 C   0  0  0  0  0  0  0  0  0  0  0  0
    5.6283   -7.8656    0.0000 N   0  0  0  0  0  0  0  0  0  0  0  0
    5.5610   -9.3641    0.0000 N   0  0  0  0  0  0  0  0  0  0  0  0
    6.8251  -10.1716    0.0000 N   0  0  0  0  0  0  0  0  0  0  0  0
    8.1565   -9.4806    0.0000 N   0  0  0  0  0  0  0  0  0  0  0  0
    8.2238   -7.9821    0.0000 N   0  0  0  0  0  0  0  0  0  0  0  0
    7.2529   -2.5514    0.0000 C   0  0  0  0  0  0  0  0  0  0  0  0
    5.8070   -2.9505    0.0000 O   0  0  0  0  0  0  0  0  0  0  0  0
    0.7500   -1.2990    0.0000 C   0  0  0  0  0  0  0  0  0  0  0  0
    1.5000    0.0000    0.0000 C   0  0  0  0  0  0  0  0  0  0  0  0
    0.7500    1.2990    0.0000 C   0  0  0  0  0  0  0  0  0  0  0  0
   -0.7500    1.2990    0.0000 C   0  0  0  0  0  0  0  0  0  0  0  0
   -1.5000    0.0000    0.0000 C   0  0  0  0  0  0  0  0  0  0  0  0
   -0.7500   -1.2990    0.0000 C   0  0  0  0  0  0  0  0  0  0  0  0
   -2.1015   -1.9499    0.0000 C   0  0  0  0  0  0  0  0  0  0  0  0
   -2.6495   -0.5536    0.0000 C   0  0  0  0  0  0  0  0  0  0  0  0
   -4.1327   -0.3300    0.0000 C   0  0  0  0  0  0  0  0  0  0  0  0
   -5.0679   -1.5027    0.0000 C   0  0  0  0  0  0  0  0  0  0  0  0
   -4.5199   -2.8990    0.0000 C   0  0  0  0  0  0  0  0  0  0  0  0
   -3.0367   -3.1226    0.0000 C   0  0  0  0  0  0  0  0  0  0  0  0
   -3.3705   -4.5850    0.0000 C   0  0  0  0  0  0  0  0  0  0  0  0
   -4.8038   -4.1429    0.0000 C   0  0  0  0  0  0  0  0  0  0  0  0
   -5.9034   -5.1631    0.0000 C   0  0  0  0  0  0  0  0  0  0  0  0
   -5.5696   -6.6255    0.0000 C   0  0  0  0  0  0  0  0  0  0  0  0
   -4.1363   -7.0677    0.0000 C   0  0  0  0  0  0  0  0  0  0  0  0
   -3.0367   -6.0474    0.0000 C   0  0  0  0  0  0  0  0  0  0  0  0
   -2.1015   -7.2201    0.0000 C   0  0  0  0  0  0  0  0  0  0  0  0
   -3.3408   -8.0651    0.0000 C   0  0  0  0  0  0  0  0  0  0  0  0
   -3.2287   -9.5609    0.0000 C   0  0  0  0  0  0  0  0  0  0  0  0
   -1.8773  -10.2118    0.0000 C   0  0  0  0  0  0  0  0  0  0  0  0
   -0.6379   -9.3668    0.0000 C   0  0  0  0  0  0  0  0  0  0  0  0
   -0.7500   -7.8710    0.0000 C   0  0  0  0  0  0  0  0  0  0  0  0
    0.7500   -7.8710    0.0000 C   0  0  0  0  0  0  0  0  0  0  0  0
    0.6379   -9.3668    0.0000 C   0  0  0  0  0  0  0  0  0  0  0  0
    1.8773  -10.2118    0.0000 C   0  0  0  0  0  0  0  0  0  0  0  0
    3.2287   -9.5609    0.0000 C   0  0  0  0  0  0  0  0  0  0  0  0
    3.3408   -8.0651    0.0000 C   0  0  0  0  0  0  0  0  0  0  0  0
    2.1015   -7.2201    0.0000 C   0  0  0  0  0  0  0  0  0  0  0  0
  1  2  1  0
  2  3  1  0
  3  4  2  0
  4  5  1  0
  5  6  1  0
  6  7  2  0
  6  8  1  0
  8  9  1  0
  9 10  2  0
 10 11  1  0
 11 12  2  0
 12 13  1  0
 13 14  1  0
 14 15  1  0
 15 16  1  0
 16 17  1  0
 17 18  1  0
 18 19  2  0
 18 20  1  0
 20 21  1  0
 21 22  2  0
 22 23  1  0
 23 24  2  0
 24 25  1  0
 25 26  2  0
 17 27  1  0
 27 28  2  0
  5 29  1  0
 29 30  2  0
 30 31  1  0
 31 32  2  0
 32 33  1  0
 33 34  2  0
 34 35  1  0
 35 36  2  0
 36 37  1  0
 37 38  2  0
 38 39  1  0
 39 40  2  0
 40 41  1  0
 41 42  2  0
 42 43  1  0
 43 44  2  0
 44 45  1  0
 45 46  2  0
 46 47  1  0
 47 48  2  0
 48 49  1  0
 49 50  2  0
 50 51  1  0
 51 52  2  0
 52 53  1  0
 53 54  2  0
 54 55  1  0
 55 56  2  0
 56 57  1  0
 57 58  2  0
 58  2  1  0
 13  9  1  0
 27 14  1  0
 34 29  1  0
 40 35  1  0
 46 41  1  0
 52 47  1  0
 58 53  1  0
 26 21  1  0
M  END
>  <Title>  (717) 
idAAZQgen13

$$$$

     RDKit          2D

 32 36  0  0  0  0  0  0  0  0999 V2000
   -3.0000   -2.5981    0.0000 C   0  0  0  0  0  0  0  0  0  0  0  0
   -1.5000   -2.5981    0.0000 C   0  0  0  0  0  0  0  0  0  0  0  0
   -0.7500   -3.8971    0.0000 C   0  0  0  0  0  0  0  0  0  0  0  0
    0.7500   -3.8971    0.0000 C   0  0  0  0  0  0  0  0  0  0  0  0
    1.5000   -2.5981    0.0000 C   0  0  0  0  0  0  0  0  0  0  0  0
    3.0000   -2.5981    0.0000 N   0  0  0  0  0  0  0  0  0  0  0  0
    3.8817   -1.3846    0.0000 N   0  0  0  0  0  0  0  0  0  0  0  0
    5.3083   -1.8481    0.0000 C   0  0  0  0  0  0  0  0  0  0  0  0
    5.3083   -3.3481    0.0000 N   0  0  0  0  0  0  0  0  0  0  0  0
    3.8817   -3.8116    0.0000 N   0  0  0  0  0  0  0  0  0  0  0  0
    3.4182   -5.2382    0.0000 C   0  0  0  0  0  0  0  0  0  0  0  0
    4.2998   -6.4517    0.0000 C   0  0  0  0  0  0  0  0  0  0  0  0
    3.4182   -7.6652    0.0000 C   0  0  0  0  0  0  0  0  0  0  0  0
    1.9916   -7.2017    0.0000 C   0  0  0  0  0  0  0  0  0  0  0  0
    0.7780   -8.0834    0.0000 O   0  0  0  0  0  0  0  0  0  0  0  0
   -0.5923   -7.4733    0.0000 C   0  0  0  0  0  0  0  0  0  0  0  0
   -0.7491   -5.9815    0.0000 O   0  0  0  0  0  0  0  0  0  0  0  0
   -1.8058   -8.3550    0.0000 N   0  0  0  0  0  0  0  0  0  0  0  0
   -3.1761   -7.7449    0.0000 C   0  0  0  0  0  0  0  0  0  0  0  0
   -3.3329   -6.2531    0.0000 N   0  0  0  0  0  0  0  0  0  0  0  0
   -4.7032   -5.6430    0.0000 N   0  0  0  0  0  0  0  0  0  0  0  0
   -5.9168   -6.5246    0.0000 N   0  0  0  0  0  0  0  0  0  0  0  0
   -5.7600   -8.0164    0.0000 N   0  0  0  0  0  0  0  0  0  0  0  0
   -4.3896   -8.6265    0.0000 N   0  0  0  0  0  0  0  0  0  0  0  0
    1.9916   -5.7017    0.0000 C   0  0  0  0  0  0  0  0  0  0  0  0
    0.7780   -4.8200    0.0000 O   0  0  0  0  0  0  0  0  0  0  0  0
    0.7500   -1.2990    0.0000 C   0  0  0  0  0  0  0  0  0  0  0  0
    1.5000    0.0000    0.0000 C   0  0  0  0  0  0  0  0  0  0  0  0
    0.7500    1.2990    0.0000 C   0  0  0  0  0  0  0  0  0  0  0  0
   -0.7500    1.2990    0.0000 C   0  0  0  0  0  0  0  0  0  0  0  0
   -1.5000    0.0000    0.0000 C   0  0  0  0  0  0  0  0  0  0  0  0
   -0.7500   -1.2990    0.0000 C   0  0  0  0  0  0  0  0  0  0  0  0
  1  2  1  0
  2  3  2  0
  3  4  1  0
  4  5  2  0
  5  6  1  0
  6  7  1  0
  7  8  1  0
  8  9  1  0
  9 10  1  0
 10 11  1  0
 11 12  2  0
 12 13  1  0
 13 14  2  0
 14 15  1  0
 15 16  1  0
 16 17  2  0
 16 18  1  0
 18 19  1  0
 19 20  2  0
 20 21  1  0
 21 22  2  0
 22 23  1  0
 23 24  2  0
 14 25  1  0
 25 26  2  0
  5 27  1  0
 27 28  2  0
 28 29  1  0
 29 30  2  0
 30 31  1  0
 31 32  2  0
 32  2  1  0
 10  6  1  0
 25 11  1  0
 32 27  1  0
 24 19  1  0
M  END
>  <Title>  (718) 
idAAZRgen13

$$$$

     RDKit          2D

 17 20  0  0  0  0  0  0  0  0999 V2000
   -1.1401   -6.6375    0.0000 C   0  0  0  0  0  0  0  0  0  0  0  0
    0.2865   -7.1011    0.0000 C   0  0  0  0  0  0  0  0  0  0  0  0
    0.7500   -8.5277    0.0000 C   0  0  0  0  0  0  0  0  0  0  0  0
    2.2500   -8.5277    0.0000 C   0  0  0  0  0  0  0  0  0  0  0  0
    2.7135   -7.1011    0.0000 N   0  0  0  0  0  0  0  0  0  0  0  0
    1.5000   -6.2194    0.0000 N   0  0  0  0  0  0  0  0  0  0  0  0
    1.5000   -4.7194    0.0000 N   0  0  0  0  0  0  0  0  0  0  0  0
    0.4393   -3.6587    0.0000 C   0  0  0  0  0  0  0  0  0  0  0  0
    1.5000   -2.5981    0.0000 C   0  0  0  0  0  0  0  0  0  0  0  0
    0.7500   -1.2990    0.0000 C   0  0  0  0  0  0  0  0  0  0  0  0
    1.5000    0.0000    0.0000 C   0  0  0  0  0  0  0  0  0  0  0  0
    0.7500    1.2990    0.0000 C   0  0  0  0  0  0  0  0  0  0  0  0
   -0.7500    1.2990    0.0000 C   0  0  0  0  0  0  0  0  0  0  0  0
   -1.5000    0.0000    0.0000 C   0  0  0  0  0  0  0  0  0  0  0  0
   -0.7500   -1.2990    0.0000 C   0  0  0  0  0  0  0  0  0  0  0  0
    2.9489   -2.2098    0.0000 C   0  0  0  0  0  0  0  0  0  0  0  0
    2.5607   -3.6587    0.0000 C   0  0  0  0  0  0  0  0  0  0  0  0
  1  2  1  0
  2  3  2  0
  3  4  1  0
  4  5  2  0
  5  6  1  0
  6  7  1  0
  7  8  1  0
  8  9  1  0
  9 10  1  0
 10 11  2  0
 11 12  1  0
 12 13  2  0
 13 14  1  0
 14 15  2  0
  9 16  1  0
 16 17  1  0
  6  2  1  0
 17  7  1  0
 17  9  1  0
 15 10  1  0
M  END
>  <Title>  (719) 
idAAZSgen13

$$$$

     RDKit          2D

  8  7  0  0  0  0  0  0  0  0999 V2000
    0.0000    0.0000    0.0000 C   0  0  0  0  0  0  0  0  0  0  0  0
    1.2990    0.7500    0.0000 C   0  0  0  0  0  0  0  0  0  0  0  0
    2.5981   -0.0000    0.0000 C   0  0  0  0  0  0  0  0  0  0  0  0
    3.8971    0.7500    0.0000 C   0  0  0  0  0  0  0  0  0  0  0  0
    5.1962   -0.0000    0.0000 C   0  0  0  0  0  0  0  0  0  0  0  0
    6.4952    0.7500    0.0000 C   0  0  0  0  0  0  0  0  0  0  0  0
    7.7942   -0.0000    0.0000 C   0  0  0  0  0  0  0  0  0  0  0  0
    6.4952    2.2500    0.0000 C   0  0  0  0  0  0  0  0  0  0  0  0
  1  2  2  0
  2  3  1  0
  3  4  1  0
  4  5  1  0
  5  6  1  0
  6  7  1  0
  6  8  1  0
M  END
>  <Title>  (720) 
idAAZTgen13

$$$$

     RDKit          2D

  7  6  0  0  0  0  0  0  0  0999 V2000
    0.0000    0.0000    0.0000 C   0  0  0  0  0  0  0  0  0  0  0  0
   -0.0000   -1.5000    0.0000 C   0  0  0  0  0  0  0  0  0  0  0  0
   -0.0000   -3.0000    0.0000 C   0  0  0  0  0  0  0  0  0  0  0  0
    1.2990   -3.7500    0.0000 C   0  0  0  0  0  0  0  0  0  0  0  0
    1.2990   -5.2500    0.0000 C   0  0  0  0  0  0  0  0  0  0  0  0
    2.5981   -3.0000    0.0000 O   0  0  0  0  0  0  0  0  0  0  0  0
    3.8971   -3.7500    0.0000 C   0  0  0  0  0  0  0  0  0  0  0  0
  1  2  3  0
  2  3  1  0
  3  4  2  3
  4  5  1  0
  4  6  1  0
  6  7  1  0
M  END
>  <Title>  (721) 
idAAZUgen13

$$$$

     RDKit          2D

 60 59  0  0  0  0  0  0  0  0999 V2000
    0.0000    0.0000    0.0000 C   0  0  0  0  0  0  0  0  0  0  0  0
   -0.0000   -1.5000    0.0000 C   0  0  0  0  0  0  0  0  0  0  0  0
   -0.0000   -3.0000    0.0000 C   0  0  0  0  0  0  0  0  0  0  0  0
   -0.0000   -4.5000    0.0000 C   0  0  0  0  0  0  0  0  0  0  0  0
   -0.0000   -6.0000    0.0000 C   0  0  0  0  0  0  0  0  0  0  0  0
   -0.0000   -7.5000    0.0000 C   0  0  0  0  0  0  0  0  0  0  0  0
   -0.0000   -9.0000    0.0000 C   0  0  0  0  0  0  0  0  0  0  0  0
   -0.0000  -10.5000    0.0000 C   0  0  0  0  0  0  0  0  0  0  0  0
   -0.0000  -12.0000    0.0000 C   0  0  0  0  0  0  0  0  0  0  0  0
   -0.0000  -13.5000    0.0000 C   0  0  0  0  0  0  0  0  0  0  0  0
   -0.0000  -15.0000    0.0000 C   0  0  0  0  0  0  0  0  0  0  0  0
   -0.0000  -16.5000    0.0000 C   0  0  0  0  0  0  0  0  0  0  0  0
   -0.0000  -18.0000    0.0000 C   0  0  0  0  0  0  0  0  0  0  0  0
   -0.0000  -19.5000    0.0000 C   0  0  0  0  0  0  0  0  0  0  0  0
   -0.0000  -21.0000    0.0000 C   0  0  0  0  0  0  0  0  0  0  0  0
   -0.0000  -22.5000    0.0000 C   0  0  0  0  0  0  0  0  0  0  0  0
   -0.0000  -24.0000    0.0000 C   0  0  0  0  0  0  0  0  0  0  0  0
   -0.0000  -25.5000    0.0000 C   0  0  0  0  0  0  0  0  0  0  0  0
   -0.0000  -27.0000    0.0000 C   0  0  0  0  0  0  0  0  0  0  0  0
   -0.0000  -28.5000    0.0000 C   0  0  0  0  0  0  0  0  0  0  0  0
   -0.0000  -30.0000    0.0000 C   0  0  0  0  0  0  0  0  0  0  0  0
   -0.0000  -31.5000    0.0000 C   0  0  0  0  0  0  0  0  0  0  0  0
   -0.0000  -33.0000    0.0000 C   0  0  0  0  0  0  0  0  0  0  0  0
   -0.0000  -34.5000    0.0000 C   0  0  0  0  0  0  0  0  0  0  0  0
   -0.0000  -36.0000    0.0000 C   0  0  0  0  0  0  0  0  0  0  0  0
   -0.0000  -37.5000    0.0000 C   0  0  0  0  0  0  0  0  0  0  0  0
   -0.0000  -39.0000    0.0000 C   0  0  0  0  0  0  0  0  0  0  0  0
   -0.0000  -40.5000    0.0000 C   0  0  0  0  0  0  0  0  0  0  0  0
   -0.0000  -42.0000    0.0000 C   0  0  0  0  0  0  0  0  0  0  0  0
   -0.0000  -43.5000    0.0000 C   0  0  0  0  0  0  0  0  0  0  0  0
   -0.0000  -45.0000    0.0000 C   0  0  0  0  0  0  0  0  0  0  0  0
   -0.0000  -46.5000    0.0000 C   0  0  0  0  0  0  0  0  0  0  0  0
   -0.0000  -48.0000    0.0000 C   0  0  0  0  0  0  0  0  0  0  0  0
   -0.0000  -49.5000    0.0000 C   0  0  0  0  0  0  0  0  0  0  0  0
   -0.0000  -51.0000    0.0000 C   0  0  0  0  0  0  0  0  0  0  0  0
   -0.0000  -52.5000    0.0000 C   0  0  0  0  0  0  0  0  0  0  0  0
   -0.0000  -54.0000    0.0000 C   0  0  0  0  0  0  0  0  0  0  0  0
   -0.0000  -55.5000    0.0000 C   0  0  0  0  0  0  0  0  0  0  0  0
   -0.0000  -57.0000    0.0000 C   0  0  0  0  0  0  0  0  0  0  0  0
   -0.0000  -58.5000    0.0000 C   0  0  0  0  0  0  0  0  0  0  0  0
   -0.0000  -60.0000    0.0000 C   0  0  0  0  0  0  0  0  0  0  0  0
   -0.0000  -61.5000    0.0000 C   0  0  0  0  0  0  0  0  0  0  0  0
   -0.0000  -63.0000    0.0000 C   0  0  0  0  0  0  0  0  0  0  0  0
   -0.0000  -64.5000    0.0000 C   0  0  0  0  0  0  0  0  0  0  0  0
   -0.0000  -66.0000    0.0000 C   0  0  0  0  0  0  0  0  0  0  0  0
   -0.0000  -67.5000    0.0000 C   0  0  0  0  0  0  0  0  0  0  0  0
   -0.0000  -69.0000    0.0000 C   0  0  0  0  0  0  0  0  0  0  0  0
   -0.0000  -70.5000    0.0000 C   0  0  0  0  0  0  0  0  0  0  0  0
   -0.0000  -72.0000    0.0000 C   0  0  0  0  0  0  0  0  0  0  0  0
   -0.0000  -73.5000    0.0000 C   0  0  0  0  0  0  0  0  0  0  0  0
   -0.0000  -75.0000    0.0000 C   0  0  0  0  0  0  0  0  0  0  0  0
   -0.0000  -76.5000    0.0000 C   0  0  0  0  0  0  0  0  0  0  0  0
   -0.0000  -78.0000    0.0000 C   0  0  0  0  0  0  0  0  0  0  0  0
   -0.0000  -79.5000    0.0000 C   0  0  0  0  0  0  0  0  0  0  0  0
   -0.0000  -81.0000    0.0000 C   0  0  0  0  0  0  0  0  0  0  0  0
   -0.0000  -82.5000    0.0000 C   0  0  0  0  0  0  0  0  0  0  0  0
   -0.0000  -84.0000    0.0000 C   0  0  0  0  0  0  0  0  0  0  0  0
   -0.0000  -85.5000    0.0000 C   0  0  0  0  0  0  0  0  0  0  0  0
   -0.0000  -87.0000    0.0000 C   0  0  0  0  0  0  0  0  0  0  0  0
   -0.0000  -88.5000    0.0000 C   0  0  0  0  0  0  0  0  0  0  0  0
  1  2  3  0
  2  3  1  0
  3  4  3  0
  4  5  1  0
  5  6  3  0
  6  7  1  0
  7  8  3  0
  8  9  1  0
  9 10  3  0
 10 11  1  0
 11 12  3  0
 12 13  1  0
 13 14  3  0
 14 15  1  0
 15 16  3  0
 16 17  1  0
 17 18  3  0
 18 19  1  0
 19 20  3  0
 20 21  1  0
 21 22  3  0
 22 23  1  0
 23 24  3  0
 24 25  1  0
 25 26  3  0
 26 27  1  0
 27 28  3  0
 28 29  1  0
 29 30  3  0
 30 31  1  0
 31 32  3  0
 32 33  1  0
 33 34  3  0
 34 35  1  0
 35 36  3  0
 36 37  1  0
 37 38  3  0
 38 39  1  0
 39 40  3  0
 40 41  1  0
 41 42  3  0
 42 43  1  0
 43 44  3  0
 44 45  1  0
 45 46  3  0
 46 47  1  0
 47 48  3  0
 48 49  1  0
 49 50  3  0
 50 51  1  0
 51 52  3  0
 52 53  1  0
 53 54  3  0
 54 55  1  0
 55 56  3  0
 56 57  1  0
 57 58  3  0
 58 59  1  0
 59 60  3  0
M  END
>  <Title>  (722) 
idAAZVgen13

$$$$

     RDKit          2D

 42 47  0  0  0  0  0  0  0  0999 V2000
   -3.1771   -5.9156    0.0000 C   0  0  0  0  0  0  0  0  0  0  0  0
   -1.9635   -5.0339    0.0000 C   0  0  0  0  0  0  0  0  0  0  0  0
   -0.7500   -5.9156    0.0000 C   0  0  0  0  0  0  0  0  0  0  0  0
    0.7500   -5.9156    0.0000 C   0  0  0  0  0  0  0  0  0  0  0  0
    1.9635   -5.0339    0.0000 C   0  0  0  0  0  0  0  0  0  0  0  0
    2.4271   -3.6073    0.0000 C   0  0  0  0  0  0  0  0  0  0  0  0
    1.9635   -2.1807    0.0000 C   0  0  0  0  0  0  0  0  0  0  0  0
    3.1771   -1.2990    0.0000 C   0  0  0  0  0  0  0  0  0  0  0  0
    3.0203    0.1927    0.0000 O   0  0  0  0  0  0  0  0  0  0  0  0
    4.5474   -1.9091    0.0000 N   0  0  0  0  0  0  0  0  0  0  0  0
    5.7609   -1.0275    0.0000 C   0  0  0  0  0  0  0  0  0  0  0  0
    5.7609    0.4725    0.0000 N   0  0  0  0  0  0  0  0  0  0  0  0
    7.1875    0.9361    0.0000 N   0  0  0  0  0  0  0  0  0  0  0  0
    8.0692   -0.2775    0.0000 N   0  0  0  0  0  0  0  0  0  0  0  0
    7.1875   -1.4910    0.0000 N   0  0  0  0  0  0  0  0  0  0  0  0
    7.6510   -2.9176    0.0000 N   0  0  0  0  0  0  0  0  0  0  0  0
    9.0776   -3.3811    0.0000 C   0  0  0  0  0  0  0  0  0  0  0  0
    9.0776   -4.8811    0.0000 C   0  0  0  0  0  0  0  0  0  0  0  0
    7.6510   -5.3446    0.0000 C   0  0  0  0  0  0  0  0  0  0  0  0
    7.1875   -6.7712    0.0000 C   0  0  0  0  0  0  0  0  0  0  0  0
    8.1912   -7.8859    0.0000 O   0  0  0  0  0  0  0  0  0  0  0  0
    5.7203   -7.0831    0.0000 N   0  0  0  0  0  0  0  0  0  0  0  0
    5.2567   -8.5097    0.0000 C   0  0  0  0  0  0  0  0  0  0  0  0
    3.7895   -8.8215    0.0000 N   0  0  0  0  0  0  0  0  0  0  0  0
    3.3260  -10.2481    0.0000 N   0  0  0  0  0  0  0  0  0  0  0  0
    4.3297  -11.3628    0.0000 N   0  0  0  0  0  0  0  0  0  0  0  0
    5.7969  -11.0510    0.0000 N   0  0  0  0  0  0  0  0  0  0  0  0
    6.2604   -9.6244    0.0000 N   0  0  0  0  0  0  0  0  0  0  0  0
    6.7693   -4.1311    0.0000 C   0  0  0  0  0  0  0  0  0  0  0  0
    5.2693   -4.1311    0.0000 O   0  0  0  0  0  0  0  0  0  0  0  0
    0.7500   -1.2990    0.0000 C   0  0  0  0  0  0  0  0  0  0  0  0
    1.5000    0.0000    0.0000 C   0  0  0  0  0  0  0  0  0  0  0  0
    0.7500    1.2990    0.0000 C   0  0  0  0  0  0  0  0  0  0  0  0
   -0.7500    1.2990    0.0000 C   0  0  0  0  0  0  0  0  0  0  0  0
   -1.5000    0.0000    0.0000 C   0  0  0  0  0  0  0  0  0  0  0  0
   -0.7500   -1.2990    0.0000 C   0  0  0  0  0  0  0  0  0  0  0  0
   -1.9635   -2.1807    0.0000 C   0  0  0  0  0  0  0  0  0  0  0  0
   -2.9672   -1.0660    0.0000 C   0  0  0  0  0  0  0  0  0  0  0  0
   -4.4344   -1.3779    0.0000 C   0  0  0  0  0  0  0  0  0  0  0  0
   -4.8980   -2.8045    0.0000 C   0  0  0  0  0  0  0  0  0  0  0  0
   -3.8943   -3.9192    0.0000 C   0  0  0  0  0  0  0  0  0  0  0  0
   -2.4271   -3.6073    0.0000 C   0  0  0  0  0  0  0  0  0  0  0  0
  1  2  1  0
  2  3  1  0
  3  4  2  0
  4  5  1  0
  5  6  1  0
  6  7  1  0
  7  8  1  0
  8  9  2  0
  8 10  1  0
 10 11  1  0
 11 12  2  0
 12 13  1  0
 13 14  2  0
 14 15  1  0
 15 16  1  0
 16 17  1  0
 17 18  1  0
 18 19  1  0
 19 20  1  0
 20 21  2  0
 20 22  1  0
 22 23  1  0
 23 24  2  0
 24 25  1  0
 25 26  2  0
 26 27  1  0
 27 28  2  0
 19 29  1  0
 29 30  2  0
  7 31  1  0
 31 32  2  0
 32 33  1  0
 33 34  2  0
 34 35  1  0
 35 36  2  0
 36 37  1  0
 37 38  2  0
 38 39  1  0
 39 40  2  0
 40 41  1  0
 41 42  2  0
 42  2  1  0
 15 11  1  0
 29 16  1  0
 36 31  1  0
 42 37  1  0
 28 23  1  0
M  END
>  <Title>  (723) 
idAAZWgen13

$$$$

     RDKit          2D

 42 47  0  0  0  0  0  0  0  0999 V2000
   -3.1771   -5.9156    0.0000 C   0  0  0  0  0  0  0  0  0  0  0  0
   -1.9635   -5.0339    0.0000 C   0  0  0  0  0  0  0  0  0  0  0  0
   -0.7500   -5.9156    0.0000 C   0  0  0  0  0  0  0  0  0  0  0  0
    0.7500   -5.9156    0.0000 C   0  0  0  0  0  0  0  0  0  0  0  0
    1.9635   -5.0339    0.0000 C   0  0  0  0  0  0  0  0  0  0  0  0
    2.4271   -3.6073    0.0000 C   0  0  0  0  0  0  0  0  0  0  0  0
    1.9635   -2.1807    0.0000 C   0  0  0  0  0  0  0  0  0  0  0  0
    3.1771   -1.2990    0.0000 C   0  0  0  0  0  0  0  0  0  0  0  0
    3.0203    0.1927    0.0000 O   0  0  0  0  0  0  0  0  0  0  0  0
    4.5474   -1.9091    0.0000 N   0  0  0  0  0  0  0  0  0  0  0  0
    5.7609   -1.0275    0.0000 C   0  0  0  0  0  0  0  0  0  0  0  0
    5.7609    0.4725    0.0000 N   0  0  0  0  0  0  0  0  0  0  0  0
    7.1875    0.9361    0.0000 N   0  0  0  0  0  0  0  0  0  0  0  0
    8.0692   -0.2775    0.0000 N   0  0  0  0  0  0  0  0  0  0  0  0
    7.1875   -1.4910    0.0000 N   0  0  0  0  0  0  0  0  0  0  0  0
    7.6510   -2.9176    0.0000 N   0  0  0  0  0  0  0  0  0  0  0  0
    9.0776   -3.3811    0.0000 C   0  0  0  0  0  0  0  0  0  0  0  0
    9.0776   -4.8811    0.0000 C   0  0  0  0  0  0  0  0  0  0  0  0
    7.6510   -5.3446    0.0000 C   0  0  0  0  0  0  0  0  0  0  0  0
    7.1875   -6.7712    0.0000 C   0  0  0  0  0  0  0  0  0  0  0  0
    8.1912   -7.8859    0.0000 O   0  0  0  0  0  0  0  0  0  0  0  0
    5.7203   -7.0831    0.0000 N   0  0  0  0  0  0  0  0  0  0  0  0
    5.2567   -8.5097    0.0000 C   0  0  0  0  0  0  0  0  0  0  0  0
    3.7895   -8.8215    0.0000 N   0  0  0  0  0  0  0  0  0  0  0  0
    3.3260  -10.2481    0.0000 N   0  0  0  0  0  0  0  0  0  0  0  0
    4.3297  -11.3628    0.0000 N   0  0  0  0  0  0  0  0  0  0  0  0
    5.7969  -11.0510    0.0000 N   0  0  0  0  0  0  0  0  0  0  0  0
    6.2604   -9.6244    0.0000 N   0  0  0  0  0  0  0  0  0  0  0  0
    6.7693   -4.1311    0.0000 C   0  0  0  0  0  0  0  0  0  0  0  0
    5.2693   -4.1311    0.0000 O   0  0  0  0  0  0  0  0  0  0  0  0
    0.7500   -1.2990    0.0000 C   0  0  0  0  0  0  0  0  0  0  0  0
    1.5000    0.0000    0.0000 C   0  0  0  0  0  0  0  0  0  0  0  0
    0.7500    1.2990    0.0000 C   0  0  0  0  0  0  0  0  0  0  0  0
   -0.7500    1.2990    0.0000 C   0  0  0  0  0  0  0  0  0  0  0  0
   -1.5000    0.0000    0.0000 C   0  0  0  0  0  0  0  0  0  0  0  0
   -0.7500   -1.2990    0.0000 C   0  0  0  0  0  0  0  0  0  0  0  0
   -1.9635   -2.1807    0.0000 C   0  0  0  0  0  0  0  0  0  0  0  0
   -2.9672   -1.0660    0.0000 C   0  0  0  0  0  0  0  0  0  0  0  0
   -4.4344   -1.3779    0.0000 C   0  0  0  0  0  0  0  0  0  0  0  0
   -4.8980   -2.8045    0.0000 C   0  0  0  0  0  0  0  0  0  0  0  0
   -3.8943   -3.9192    0.0000 C   0  0  0  0  0  0  0  0  0  0  0  0
   -2.4271   -3.6073    0.0000 C   0  0  0  0  0  0  0  0  0  0  0  0
  1  2  1  0
  2  3  1  0
  3  4  2  0
  4  5  1  0
  5  6  1  0
  6  7  1  0
  7  8  1  0
  8  9  2  0
  8 10  1  0
 10 11  1  0
 11 12  2  0
 12 13  1  0
 13 14  2  0
 14 15  1  0
 15 16  1  0
 16 17  1  0
 17 18  1  0
 18 19  2  0
 19 20  1  0
 20 21  2  0
 20 22  1  0
 22 23  1  0
 23 24  2  0
 24 25  1  0
 25 26  2  0
 26 27  1  0
 27 28  2  0
 19 29  1  0
 29 30  2  0
  7 31  1  0
 31 32  2  0
 32 33  1  0
 33 34  2  0
 34 35  1  0
 35 36  2  0
 36 37  1  0
 37 38  2  0
 38 39  1  0
 39 40  2  0
 40 41  1  0
 41 42  2  0
 42  2  1  0
 15 11  1  0
 29 16  1  0
 36 31  1  0
 42 37  1  0
 28 23  1  0
M  END
>  <Title>  (724) 
idAAZXgen13

$$$$

     RDKit          2D

 30 33  0  0  0  0  0  0  0  0999 V2000
   -3.1981   -1.5132    0.0000 C   0  0  0  0  0  0  0  0  0  0  0  0
   -1.8991   -2.2632    0.0000 C   0  0  0  0  0  0  0  0  0  0  0  0
   -2.1595   -3.7404    0.0000 C   0  0  0  0  0  0  0  0  0  0  0  0
   -1.4095   -5.0395    0.0000 C   0  0  0  0  0  0  0  0  0  0  0  0
   -0.0000   -5.5525    0.0000 C   0  0  0  0  0  0  0  0  0  0  0  0
    1.4095   -5.0395    0.0000 C   0  0  0  0  0  0  0  0  0  0  0  0
    2.3737   -6.1885    0.0000 C   0  0  0  0  0  0  0  0  0  0  0  0
    3.8509   -5.9281    0.0000 O   0  0  0  0  0  0  0  0  0  0  0  0
    1.8607   -7.5981    0.0000 N   0  0  0  0  0  0  0  0  0  0  0  0
    2.8249   -8.7471    0.0000 C   0  0  0  0  0  0  0  0  0  0  0  0
    4.3212   -8.6425    0.0000 N   0  0  0  0  0  0  0  0  0  0  0  0
    4.8831  -10.0333    0.0000 N   0  0  0  0  0  0  0  0  0  0  0  0
    3.7341  -10.9975    0.0000 N   0  0  0  0  0  0  0  0  0  0  0  0
    2.4620  -10.2026    0.0000 N   0  0  0  0  0  0  0  0  0  0  0  0
    1.0712  -10.7645    0.0000 C   0  0  0  0  0  0  0  0  0  0  0  0
    0.7083  -12.2199    0.0000 C   0  0  0  0  0  0  0  0  0  0  0  0
   -0.7880  -12.3246    0.0000 C   0  0  0  0  0  0  0  0  0  0  0  0
   -1.3499  -10.9338    0.0000 C   0  0  0  0  0  0  0  0  0  0  0  0
   -2.8054  -10.5709    0.0000 O   0  0  0  0  0  0  0  0  0  0  0  0
   -0.2009   -9.9696    0.0000 C   0  0  0  0  0  0  0  0  0  0  0  0
   -0.3055   -8.4733    0.0000 O   0  0  0  0  0  0  0  0  0  0  0  0
    2.1595   -3.7404    0.0000 C   0  0  0  0  0  0  0  0  0  0  0  0
    3.6368   -4.0009    0.0000 O   0  0  0  0  0  0  0  0  0  0  0  0
    1.8991   -2.2632    0.0000 O   0  0  0  0  0  0  0  0  0  0  0  0
    0.7500   -1.2990    0.0000 C   0  0  0  0  0  0  0  0  0  0  0  0
    1.5000    0.0000    0.0000 C   0  0  0  0  0  0  0  0  0  0  0  0
    0.7500    1.2990    0.0000 C   0  0  0  0  0  0  0  0  0  0  0  0
   -0.7500    1.2990    0.0000 C   0  0  0  0  0  0  0  0  0  0  0  0
   -1.5000    0.0000    0.0000 C   0  0  0  0  0  0  0  0  0  0  0  0
   -0.7500   -1.2990    0.0000 C   0  0  0  0  0  0  0  0  0  0  0  0
  1  2  1  0
  2  3  1  0
  3  4  2  0
  4  5  1  0
  5  6  1  0
  6  7  1  0
  7  8  2  0
  7  9  1  0
  9 10  1  0
 10 11  2  0
 11 12  1  0
 12 13  2  0
 13 14  1  0
 14 15  1  0
 15 16  2  0
 16 17  1  0
 17 18  2  0
 18 19  1  0
 18 20  1  0
 20 21  2  0
  6 22  1  0
 22 23  2  0
 22 24  1  0
 24 25  1  0
 25 26  2  0
 26 27  1  0
 27 28  2  0
 28 29  1  0
 29 30  2  0
 30  2  1  0
 14 10  1  0
 20 15  1  0
 30 25  1  0
M  END
>  <Title>  (725) 
idAAZYgen13

$$$$

     RDKit          2D

  8  8  0  0  0  0  0  0  0  0999 V2000
    5.0260   -1.2990    0.0000 C   0  0  0  0  0  0  0  0  0  0  0  0
    3.5260   -1.2990    0.0000 C   0  0  0  0  0  0  0  0  0  0  0  0
    2.7760    0.0000    0.0000 C   0  0  0  0  0  0  0  0  0  0  0  0
    1.2760    0.0000    0.0000 C   0  0  0  0  0  0  0  0  0  0  0  0
    0.3943    1.2135    0.0000 C   0  0  0  0  0  0  0  0  0  0  0  0
   -1.0323    0.7500    0.0000 C   0  0  0  0  0  0  0  0  0  0  0  0
   -1.0323   -0.7500    0.0000 C   0  0  0  0  0  0  0  0  0  0  0  0
    0.3943   -1.2135    0.0000 C   0  0  0  0  0  0  0  0  0  0  0  0
  1  2  2  0
  2  3  1  0
  3  4  1  0
  4  5  1  0
  5  6  2  0
  6  7  1  0
  7  8  1  0
  8  4  1  0
M  END
>  <Title>  (726) 
idAAZZgen13

$$$$

     RDKit          2D

 41 46  0  0  0  0  0  0  0  0999 V2000
   -2.5725    0.8135    0.0000 C   0  0  0  0  0  0  0  0  0  0  0  0
   -3.5466   -0.3271    0.0000 C   0  0  0  0  0  0  0  0  0  0  0  0
   -5.0420   -0.2094    0.0000 C   0  0  0  0  0  0  0  0  0  0  0  0
   -5.6160   -1.5952    0.0000 N   0  0  0  0  0  0  0  0  0  0  0  0
   -4.4754   -2.5694    0.0000 N   0  0  0  0  0  0  0  0  0  0  0  0
   -3.1965   -1.7857    0.0000 N   0  0  0  0  0  0  0  0  0  0  0  0
   -1.8107   -2.3597    0.0000 C   0  0  0  0  0  0  0  0  0  0  0  0
   -1.8107   -3.8597    0.0000 C   0  0  0  0  0  0  0  0  0  0  0  0
   -0.7500   -4.9204    0.0000 C   0  0  0  0  0  0  0  0  0  0  0  0
    0.7500   -4.9204    0.0000 C   0  0  0  0  0  0  0  0  0  0  0  0
    1.8107   -3.8597    0.0000 C   0  0  0  0  0  0  0  0  0  0  0  0
    1.8107   -2.3597    0.0000 C   0  0  0  0  0  0  0  0  0  0  0  0
    3.1965   -1.7857    0.0000 C   0  0  0  0  0  0  0  0  0  0  0  0
    3.3923   -0.2985    0.0000 O   0  0  0  0  0  0  0  0  0  0  0  0
    4.3865   -2.6988    0.0000 N   0  0  0  0  0  0  0  0  0  0  0  0
    5.7723   -2.1248    0.0000 C   0  0  0  0  0  0  0  0  0  0  0  0
    6.1225   -0.6662    0.0000 N   0  0  0  0  0  0  0  0  0  0  0  0
    7.6179   -0.5485    0.0000 N   0  0  0  0  0  0  0  0  0  0  0  0
    8.1919   -1.9344    0.0000 N   0  0  0  0  0  0  0  0  0  0  0  0
    7.0513   -2.9085    0.0000 N   0  0  0  0  0  0  0  0  0  0  0  0
    7.1690   -4.4039    0.0000 N   0  0  0  0  0  0  0  0  0  0  0  0
    8.4479   -5.1877    0.0000 C   0  0  0  0  0  0  0  0  0  0  0  0
    8.0978   -6.6462    0.0000 C   0  0  0  0  0  0  0  0  0  0  0  0
    6.6024   -6.7639    0.0000 N   0  0  0  0  0  0  0  0  0  0  0  0
    5.8186   -8.0429    0.0000 C   0  0  0  0  0  0  0  0  0  0  0  0
    6.5344   -9.3611    0.0000 O   0  0  0  0  0  0  0  0  0  0  0  0
    4.3192   -8.0036    0.0000 N   0  0  0  0  0  0  0  0  0  0  0  0
    3.5354   -9.2826    0.0000 C   0  0  0  0  0  0  0  0  0  0  0  0
    2.0359   -9.2433    0.0000 N   0  0  0  0  0  0  0  0  0  0  0  0
    1.2522  -10.5223    0.0000 N   0  0  0  0  0  0  0  0  0  0  0  0
    1.9679  -11.8405    0.0000 N   0  0  0  0  0  0  0  0  0  0  0  0
    3.4674  -11.8797    0.0000 N   0  0  0  0  0  0  0  0  0  0  0  0
    4.2512  -10.6008    0.0000 N   0  0  0  0  0  0  0  0  0  0  0  0
    6.0284   -5.3781    0.0000 C   0  0  0  0  0  0  0  0  0  0  0  0
    4.5698   -5.0279    0.0000 O   0  0  0  0  0  0  0  0  0  0  0  0
    0.7500   -1.2990    0.0000 C   0  0  0  0  0  0  0  0  0  0  0  0
    1.5000    0.0000    0.0000 C   0  0  0  0  0  0  0  0  0  0  0  0
    0.7500    1.2990    0.0000 C   0  0  0  0  0  0  0  0  0  0  0  0
   -0.7500    1.2990    0.0000 C   0  0  0  0  0  0  0  0  0  0  0  0
   -1.5000    0.0000    0.0000 C   0  0  0  0  0  0  0  0  0  0  0  0
   -0.7500   -1.2990    0.0000 C   0  0  0  0  0  0  0  0  0  0  0  0
  1  2  1  0
  2  3  2  0
  3  4  1  0
  4  5  2  0
  5  6  1  0
  6  7  1  0
  7  8  2  0
  8  9  1  0
  9 10  2  0
 10 11  1  0
 11 12  1  0
 12 13  1  0
 13 14  2  0
 13 15  1  0
 15 16  1  0
 16 17  2  0
 17 18  1  0
 18 19  2  0
 19 20  1  0
 20 21  1  0
 21 22  1  0
 22 23  1  0
 23 24  1  0
 24 25  1  0
 25 26  2  0
 25 27  1  0
 27 28  1  0
 28 29  2  0
 29 30  1  0
 30 31  2  0
 31 32  1  0
 32 33  2  0
 24 34  1  0
 34 35  2  0
 12 36  1  0
 36 37  2  0
 37 38  1  0
 38 39  2  0
 39 40  1  0
 40 41  2  0
  6  2  1  0
 41  7  1  0
 20 16  1  0
 34 21  1  0
 41 36  1  0
 33 28  1  0
M  END
>  <Title>  (727) 
idABAAgen13

$$$$

     RDKit          2D

 45 51  0  0  0  0  0  0  0  0999 V2000
    1.2135   -7.3421    0.0000 C   0  0  0  0  0  0  0  0  0  0  0  0
    0.7500   -5.9156    0.0000 C   0  0  0  0  0  0  0  0  0  0  0  0
    1.9635   -5.0339    0.0000 C   0  0  0  0  0  0  0  0  0  0  0  0
    2.4271   -3.6073    0.0000 C   0  0  0  0  0  0  0  0  0  0  0  0
    1.9635   -2.1807    0.0000 C   0  0  0  0  0  0  0  0  0  0  0  0
    3.1771   -1.2990    0.0000 C   0  0  0  0  0  0  0  0  0  0  0  0
    3.0203    0.1927    0.0000 O   0  0  0  0  0  0  0  0  0  0  0  0
    4.5474   -1.9091    0.0000 N   0  0  0  0  0  0  0  0  0  0  0  0
    5.7609   -1.0275    0.0000 C   0  0  0  0  0  0  0  0  0  0  0  0
    5.7609    0.4725    0.0000 N   0  0  0  0  0  0  0  0  0  0  0  0
    7.1875    0.9361    0.0000 N   0  0  0  0  0  0  0  0  0  0  0  0
    8.0692   -0.2775    0.0000 N   0  0  0  0  0  0  0  0  0  0  0  0
    7.1875   -1.4910    0.0000 N   0  0  0  0  0  0  0  0  0  0  0  0
    7.6510   -2.9176    0.0000 N   0  0  0  0  0  0  0  0  0  0  0  0
    6.9700   -4.2541    0.0000 C   0  0  0  0  0  0  0  0  0  0  0  0
    8.3065   -4.9351    0.0000 C   0  0  0  0  0  0  0  0  0  0  0  0
    8.7701   -6.3617    0.0000 C   0  0  0  0  0  0  0  0  0  0  0  0
   10.2373   -6.6735    0.0000 O   0  0  0  0  0  0  0  0  0  0  0  0
    7.7664   -7.4764    0.0000 N   0  0  0  0  0  0  0  0  0  0  0  0
    8.2299   -8.9030    0.0000 C   0  0  0  0  0  0  0  0  0  0  0  0
    7.2262  -10.0177    0.0000 N   0  0  0  0  0  0  0  0  0  0  0  0
    7.6897  -11.4443    0.0000 N   0  0  0  0  0  0  0  0  0  0  0  0
    9.1569  -11.7561    0.0000 N   0  0  0  0  0  0  0  0  0  0  0  0
   10.1606  -10.6414    0.0000 N   0  0  0  0  0  0  0  0  0  0  0  0
    9.6971   -9.2148    0.0000 N   0  0  0  0  0  0  0  0  0  0  0  0
    8.9875   -3.5986    0.0000 C   0  0  0  0  0  0  0  0  0  0  0  0
   10.4141   -3.1350    0.0000 O   0  0  0  0  0  0  0  0  0  0  0  0
    0.7500   -1.2990    0.0000 C   0  0  0  0  0  0  0  0  0  0  0  0
    1.5000    0.0000    0.0000 C   0  0  0  0  0  0  0  0  0  0  0  0
    0.7500    1.2990    0.0000 C   0  0  0  0  0  0  0  0  0  0  0  0
   -0.7500    1.2990    0.0000 C   0  0  0  0  0  0  0  0  0  0  0  0
   -1.5000    0.0000    0.0000 C   0  0  0  0  0  0  0  0  0  0  0  0
   -0.7500   -1.2990    0.0000 C   0  0  0  0  0  0  0  0  0  0  0  0
   -1.9635   -2.1807    0.0000 C   0  0  0  0  0  0  0  0  0  0  0  0
   -2.9672   -1.0660    0.0000 C   0  0  0  0  0  0  0  0  0  0  0  0
   -4.4344   -1.3779    0.0000 C   0  0  0  0  0  0  0  0  0  0  0  0
   -4.8980   -2.8045    0.0000 C   0  0  0  0  0  0  0  0  0  0  0  0
   -3.8943   -3.9192    0.0000 C   0  0  0  0  0  0  0  0  0  0  0  0
   -2.4271   -3.6073    0.0000 C   0  0  0  0  0  0  0  0  0  0  0  0
   -1.9635   -5.0339    0.0000 C   0  0  0  0  0  0  0  0  0  0  0  0
   -3.3338   -5.6440    0.0000 C   0  0  0  0  0  0  0  0  0  0  0  0
   -3.4906   -7.1358    0.0000 C   0  0  0  0  0  0  0  0  0  0  0  0
   -2.2771   -8.0175    0.0000 C   0  0  0  0  0  0  0  0  0  0  0  0
   -0.9068   -7.4073    0.0000 C   0  0  0  0  0  0  0  0  0  0  0  0
   -0.7500   -5.9156    0.0000 C   0  0  0  0  0  0  0  0  0  0  0  0
  1  2  1  0
  2  3  1  0
  3  4  2  0
  4  5  1  0
  5  6  1  0
  6  7  2  0
  6  8  1  0
  8  9  1  0
  9 10  2  0
 10 11  1  0
 11 12  2  0
 12 13  1  0
 13 14  1  0
 14 15  1  0
 15 16  2  0
 16 17  1  0
 17 18  2  0
 17 19  1  0
 19 20  1  0
 20 21  2  0
 21 22  1  0
 22 23  2  0
 23 24  1  0
 24 25  2  0
 16 26  1  0
 26 27  2  0
  5 28  1  0
 28 29  2  0
 29 30  1  0
 30 31  2  0
 31 32  1  0
 32 33  2  0
 33 34  1  0
 34 35  2  0
 35 36  1  0
 36 37  2  0
 37 38  1  0
 38 39  2  0
 39 40  1  0
 40 41  2  0
 41 42  1  0
 42 43  2  0
 43 44  1  0
 44 45  2  0
 45  2  1  0
 13  9  1  0
 26 14  1  0
 33 28  1  0
 39 34  1  0
 45 40  1  0
 25 20  1  0
M  END
>  <Title>  (728) 
idABABgen13

$$$$

     RDKit          2D

  6  5  0  0  0  0  0  0  0  0999 V2000
    0.0000    0.0000    0.0000 C   0  0  0  0  0  0  0  0  0  0  0  0
    1.2990    0.7500    0.0000 C   0  0  0  0  0  0  0  0  0  0  0  0
    2.5981   -0.0000    0.0000 C   0  0  0  0  0  0  0  0  0  0  0  0
    3.8971    0.7500    0.0000 C   0  0  0  0  0  0  0  0  0  0  0  0
    5.1962   -0.0000    0.0000 C   0  0  0  0  0  0  0  0  0  0  0  0
    6.4952    0.7500    0.0000 C   0  0  0  0  0  0  0  0  0  0  0  0
  1  2  1  0
  2  3  1  0
  3  4  1  0
  4  5  1  0
  5  6  1  0
M  END
>  <Title>  (729) 
idABACgen13

$$$$

     RDKit          2D

  6  5  0  0  0  0  0  0  0  0999 V2000
    0.0000    0.0000    0.0000 C   0  0  0  0  0  0  0  0  0  0  0  0
    1.2990    0.7500    0.0000 C   0  0  0  0  0  0  0  0  0  0  0  0
    2.5981   -0.0000    0.0000 C   0  0  0  0  0  0  0  0  0  0  0  0
    3.8971    0.7500    0.0000 C   0  0  0  0  0  0  0  0  0  0  0  0
    5.1962   -0.0000    0.0000 N   0  0  0  0  0  0  0  0  0  0  0  0
    6.4952    0.7500    0.0000 C   0  0  0  0  0  0  0  0  0  0  0  0
  1  2  1  0
  2  3  2  3
  3  4  1  0
  4  5  1  0
  5  6  1  0
M  END
>  <Title>  (730) 
idABADgen13

$$$$

     RDKit          2D

 49 55  0  0  0  0  0  0  0  0999 V2000
   -2.1535   -8.4451    0.0000 C   0  0  0  0  0  0  0  0  0  0  0  0
   -1.4564   -7.1169    0.0000 C   0  0  0  0  0  0  0  0  0  0  0  0
   -0.0000   -7.4758    0.0000 C   0  0  0  0  0  0  0  0  0  0  0  0
    1.4564   -7.1169    0.0000 C   0  0  0  0  0  0  0  0  0  0  0  0
    2.5792   -6.1222    0.0000 C   0  0  0  0  0  0  0  0  0  0  0  0
    3.1111   -4.7197    0.0000 C   0  0  0  0  0  0  0  0  0  0  0  0
    2.9303   -3.2306    0.0000 C   0  0  0  0  0  0  0  0  0  0  0  0
    2.0782   -1.9961    0.0000 C   0  0  0  0  0  0  0  0  0  0  0  0
    3.0729   -0.8734    0.0000 C   0  0  0  0  0  0  0  0  0  0  0  0
    2.5979    0.5494    0.0000 O   0  0  0  0  0  0  0  0  0  0  0  0
    4.5426   -1.1734    0.0000 N   0  0  0  0  0  0  0  0  0  0  0  0
    5.5372   -0.0506    0.0000 C   0  0  0  0  0  0  0  0  0  0  0  0
    5.2136    1.4140    0.0000 N   0  0  0  0  0  0  0  0  0  0  0  0
    6.5065    2.1745    0.0000 N   0  0  0  0  0  0  0  0  0  0  0  0
    7.6293    1.1798    0.0000 N   0  0  0  0  0  0  0  0  0  0  0  0
    7.0302   -0.1954    0.0000 N   0  0  0  0  0  0  0  0  0  0  0  0
    7.7907   -1.4884    0.0000 N   0  0  0  0  0  0  0  0  0  0  0  0
    9.2837   -1.6331    0.0000 C   0  0  0  0  0  0  0  0  0  0  0  0
    9.6073   -3.0978    0.0000 C   0  0  0  0  0  0  0  0  0  0  0  0
    8.3144   -3.8582    0.0000 N   0  0  0  0  0  0  0  0  0  0  0  0
    8.1696   -5.3512    0.0000 C   0  0  0  0  0  0  0  0  0  0  0  0
    9.3902   -6.2231    0.0000 O   0  0  0  0  0  0  0  0  0  0  0  0
    6.8043   -5.9723    0.0000 N   0  0  0  0  0  0  0  0  0  0  0  0
    6.6595   -7.4653    0.0000 C   0  0  0  0  0  0  0  0  0  0  0  0
    5.2941   -8.0865    0.0000 N   0  0  0  0  0  0  0  0  0  0  0  0
    5.1494   -9.5795    0.0000 N   0  0  0  0  0  0  0  0  0  0  0  0
    6.3700  -10.4513    0.0000 N   0  0  0  0  0  0  0  0  0  0  0  0
    7.7353   -9.8302    0.0000 N   0  0  0  0  0  0  0  0  0  0  0  0
    7.8801   -8.3372    0.0000 N   0  0  0  0  0  0  0  0  0  0  0  0
    7.1916   -2.8635    0.0000 C   0  0  0  0  0  0  0  0  0  0  0  0
    5.7270   -3.1872    0.0000 O   0  0  0  0  0  0  0  0  0  0  0  0
    0.7500   -1.2990    0.0000 C   0  0  0  0  0  0  0  0  0  0  0  0
    1.5000    0.0000    0.0000 C   0  0  0  0  0  0  0  0  0  0  0  0
    0.7500    1.2990    0.0000 C   0  0  0  0  0  0  0  0  0  0  0  0
   -0.7500    1.2990    0.0000 C   0  0  0  0  0  0  0  0  0  0  0  0
   -1.5000    0.0000    0.0000 C   0  0  0  0  0  0  0  0  0  0  0  0
   -0.7500   -1.2990    0.0000 C   0  0  0  0  0  0  0  0  0  0  0  0
   -2.0782   -1.9961    0.0000 C   0  0  0  0  0  0  0  0  0  0  0  0
   -2.7212   -0.6409    0.0000 C   0  0  0  0  0  0  0  0  0  0  0  0
   -4.2164   -0.5202    0.0000 C   0  0  0  0  0  0  0  0  0  0  0  0
   -5.0685   -1.7547    0.0000 C   0  0  0  0  0  0  0  0  0  0  0  0
   -4.4254   -3.1099    0.0000 C   0  0  0  0  0  0  0  0  0  0  0  0
   -2.9303   -3.2306    0.0000 C   0  0  0  0  0  0  0  0  0  0  0  0
   -3.1111   -4.7197    0.0000 C   0  0  0  0  0  0  0  0  0  0  0  0
   -4.5917   -4.4790    0.0000 C   0  0  0  0  0  0  0  0  0  0  0  0
   -5.5403   -5.6410    0.0000 C   0  0  0  0  0  0  0  0  0  0  0  0
   -5.0084   -7.0435    0.0000 C   0  0  0  0  0  0  0  0  0  0  0  0
   -3.5278   -7.2841    0.0000 C   0  0  0  0  0  0  0  0  0  0  0  0
   -2.5792   -6.1222    0.0000 C   0  0  0  0  0  0  0  0  0  0  0  0
  1  2  1  0
  2  3  1  0
  3  4  2  0
  4  5  1  0
  5  6  1  0
  6  7  1  0
  7  8  1  0
  8  9  1  0
  9 10  2  0
  9 11  1  0
 11 12  1  0
 12 13  2  0
 13 14  1  0
 14 15  2  0
 15 16  1  0
 16 17  1  0
 17 18  1  0
 18 19  1  0
 19 20  1  0
 20 21  1  0
 21 22  2  0
 21 23  1  0
 23 24  1  0
 24 25  2  0
 25 26  1  0
 26 27  2  0
 27 28  1  0
 28 29  2  0
 20 30  1  0
 30 31  2  0
  8 32  1  0
 32 33  2  0
 33 34  1  0
 34 35  2  0
 35 36  1  0
 36 37  2  0
 37 38  1  0
 38 39  2  0
 39 40  1  0
 40 41  2  0
 41 42  1  0
 42 43  2  0
 43 44  1  0
 44 45  2  0
 45 46  1  0
 46 47  2  0
 47 48  1  0
 48 49  2  0
 49  2  1  0
 16 12  1  0
 30 17  1  0
 37 32  1  0
 43 38  1  0
 49 44  1  0
 29 24  1  0
M  END
>  <Title>  (731) 
idABAEgen13

$$$$

     RDKit          2D

 48 54  0  0  0  0  0  0  0  0999 V2000
   -1.1382   -8.3460    0.0000 C   0  0  0  0  0  0  0  0  0  0  0  0
   -0.7500   -6.8971    0.0000 C   0  0  0  0  0  0  0  0  0  0  0  0
    0.7500   -6.8971    0.0000 C   0  0  0  0  0  0  0  0  0  0  0  0
    2.0490   -6.1471    0.0000 C   0  0  0  0  0  0  0  0  0  0  0  0
    2.7990   -4.8481    0.0000 C   0  0  0  0  0  0  0  0  0  0  0  0
    2.7990   -3.3481    0.0000 C   0  0  0  0  0  0  0  0  0  0  0  0
    2.0490   -2.0490    0.0000 C   0  0  0  0  0  0  0  0  0  0  0  0
    3.1097   -0.9884    0.0000 C   0  0  0  0  0  0  0  0  0  0  0  0
    2.7215    0.4605    0.0000 O   0  0  0  0  0  0  0  0  0  0  0  0
    4.5586   -1.3766    0.0000 N   0  0  0  0  0  0  0  0  0  0  0  0
    5.6192   -0.3159    0.0000 C   0  0  0  0  0  0  0  0  0  0  0  0
    5.3846    1.1656    0.0000 N   0  0  0  0  0  0  0  0  0  0  0  0
    6.7211    1.8466    0.0000 N   0  0  0  0  0  0  0  0  0  0  0  0
    7.7818    0.7859    0.0000 N   0  0  0  0  0  0  0  0  0  0  0  0
    7.1008   -0.5506    0.0000 N   0  0  0  0  0  0  0  0  0  0  0  0
    7.7818   -1.8871    0.0000 N   0  0  0  0  0  0  0  0  0  0  0  0
    9.2633   -2.1218    0.0000 C   0  0  0  0  0  0  0  0  0  0  0  0
    9.4979   -3.6033    0.0000 C   0  0  0  0  0  0  0  0  0  0  0  0
    8.1614   -4.2843    0.0000 N   0  0  0  0  0  0  0  0  0  0  0  0
    7.9268   -5.7658    0.0000 C   0  0  0  0  0  0  0  0  0  0  0  0
    9.0925   -6.7098    0.0000 O   0  0  0  0  0  0  0  0  0  0  0  0
    6.5264   -6.3034    0.0000 N   0  0  0  0  0  0  0  0  0  0  0  0
    6.2918   -7.7849    0.0000 C   0  0  0  0  0  0  0  0  0  0  0  0
    4.8914   -8.3224    0.0000 N   0  0  0  0  0  0  0  0  0  0  0  0
    4.6567   -9.8040    0.0000 N   0  0  0  0  0  0  0  0  0  0  0  0
    5.8225  -10.7480    0.0000 N   0  0  0  0  0  0  0  0  0  0  0  0
    7.2228  -10.2104    0.0000 N   0  0  0  0  0  0  0  0  0  0  0  0
    7.4575   -8.7289    0.0000 N   0  0  0  0  0  0  0  0  0  0  0  0
    7.1008   -3.2236    0.0000 C   0  0  0  0  0  0  0  0  0  0  0  0
    5.6192   -3.4583    0.0000 O   0  0  0  0  0  0  0  0  0  0  0  0
    0.7500   -1.2990    0.0000 C   0  0  0  0  0  0  0  0  0  0  0  0
    1.5000    0.0000    0.0000 C   0  0  0  0  0  0  0  0  0  0  0  0
    0.7500    1.2990    0.0000 C   0  0  0  0  0  0  0  0  0  0  0  0
   -0.7500    1.2990    0.0000 C   0  0  0  0  0  0  0  0  0  0  0  0
   -1.5000    0.0000    0.0000 C   0  0  0  0  0  0  0  0  0  0  0  0
   -0.7500   -1.2990    0.0000 C   0  0  0  0  0  0  0  0  0  0  0  0
   -2.0490   -2.0490    0.0000 C   0  0  0  0  0  0  0  0  0  0  0  0
   -2.7990   -0.7500    0.0000 C   0  0  0  0  0  0  0  0  0  0  0  0
   -4.2990   -0.7500    0.0000 C   0  0  0  0  0  0  0  0  0  0  0  0
   -5.0490   -2.0490    0.0000 C   0  0  0  0  0  0  0  0  0  0  0  0
   -4.2990   -3.3481    0.0000 C   0  0  0  0  0  0  0  0  0  0  0  0
   -2.7990   -3.3481    0.0000 C   0  0  0  0  0  0  0  0  0  0  0  0
   -2.7990   -4.8481    0.0000 C   0  0  0  0  0  0  0  0  0  0  0  0
   -4.2990   -4.8481    0.0000 C   0  0  0  0  0  0  0  0  0  0  0  0
   -5.0490   -6.1471    0.0000 C   0  0  0  0  0  0  0  0  0  0  0  0
   -4.2990   -7.4462    0.0000 C   0  0  0  0  0  0  0  0  0  0  0  0
   -2.7990   -7.4462    0.0000 C   0  0  0  0  0  0  0  0  0  0  0  0
   -2.0490   -6.1471    0.0000 C   0  0  0  0  0  0  0  0  0  0  0  0
  1  2  1  0
  2  3  1  0
  3  4  1  0
  4  5  1  0
  5  6  1  0
  6  7  1  0
  7  8  1  0
  8  9  2  0
  8 10  1  0
 10 11  1  0
 11 12  2  0
 12 13  1  0
 13 14  2  0
 14 15  1  0
 15 16  1  0
 16 17  1  0
 17 18  1  0
 18 19  1  0
 19 20  1  0
 20 21  2  0
 20 22  1  0
 22 23  1  0
 23 24  2  0
 24 25  1  0
 25 26  2  0
 26 27  1  0
 27 28  2  0
 19 29  1  0
 29 30  2  0
  7 31  1  0
 31 32  2  0
 32 33  1  0
 33 34  2  0
 34 35  1  0
 35 36  2  0
 36 37  1  0
 37 38  2  0
 38 39  1  0
 39 40  2  0
 40 41  1  0
 41 42  2  0
 42 43  1  0
 43 44  2  0
 44 45  1  0
 45 46  2  0
 46 47  1  0
 47 48  2  0
 48  2  1  0
 15 11  1  0
 29 16  1  0
 36 31  1  0
 42 37  1  0
 48 43  1  0
 28 23  1  0
M  END
>  <Title>  (732) 
idABAFgen13

$$$$

     RDKit          2D

 31 35  0  0  0  0  0  0  0  0999 V2000
   -3.0000   -2.5981    0.0000 C   0  0  0  0  0  0  0  0  0  0  0  0
   -1.5000   -2.5981    0.0000 C   0  0  0  0  0  0  0  0  0  0  0  0
   -0.7500   -3.8971    0.0000 C   0  0  0  0  0  0  0  0  0  0  0  0
    0.7500   -3.8971    0.0000 C   0  0  0  0  0  0  0  0  0  0  0  0
    1.5000   -2.5981    0.0000 C   0  0  0  0  0  0  0  0  0  0  0  0
    3.0000   -2.5981    0.0000 C   0  0  0  0  0  0  0  0  0  0  0  0
    3.8817   -1.3846    0.0000 C   0  0  0  0  0  0  0  0  0  0  0  0
    5.3083   -1.8481    0.0000 C   0  0  0  0  0  0  0  0  0  0  0  0
    5.3083   -3.3481    0.0000 N   0  0  0  0  0  0  0  0  0  0  0  0
    3.8817   -3.8116    0.0000 N   0  0  0  0  0  0  0  0  0  0  0  0
    3.4182   -5.2382    0.0000 N   0  0  0  0  0  0  0  0  0  0  0  0
    4.2998   -6.4517    0.0000 C   0  0  0  0  0  0  0  0  0  0  0  0
    3.4182   -7.6652    0.0000 C   0  0  0  0  0  0  0  0  0  0  0  0
    1.9916   -7.2017    0.0000 N   0  0  0  0  0  0  0  0  0  0  0  0
    0.7780   -8.0834    0.0000 C   0  0  0  0  0  0  0  0  0  0  0  0
    0.9348   -9.5752    0.0000 O   0  0  0  0  0  0  0  0  0  0  0  0
   -0.5923   -7.4733    0.0000 N   0  0  0  0  0  0  0  0  0  0  0  0
   -1.8058   -8.3550    0.0000 C   0  0  0  0  0  0  0  0  0  0  0  0
   -3.1761   -7.7449    0.0000 N   0  0  0  0  0  0  0  0  0  0  0  0
   -4.3896   -8.6265    0.0000 N   0  0  0  0  0  0  0  0  0  0  0  0
   -4.2329  -10.1183    0.0000 N   0  0  0  0  0  0  0  0  0  0  0  0
   -2.8625  -10.7284    0.0000 N   0  0  0  0  0  0  0  0  0  0  0  0
   -1.6490   -9.8467    0.0000 N   0  0  0  0  0  0  0  0  0  0  0  0
    1.9916   -5.7017    0.0000 C   0  0  0  0  0  0  0  0  0  0  0  0
    0.7780   -4.8200    0.0000 O   0  0  0  0  0  0  0  0  0  0  0  0
    0.7500   -1.2990    0.0000 C   0  0  0  0  0  0  0  0  0  0  0  0
    1.5000    0.0000    0.0000 C   0  0  0  0  0  0  0  0  0  0  0  0
    0.7500    1.2990    0.0000 C   0  0  0  0  0  0  0  0  0  0  0  0
   -0.7500    1.2990    0.0000 C   0  0  0  0  0  0  0  0  0  0  0  0
   -1.5000    0.0000    0.0000 C   0  0  0  0  0  0  0  0  0  0  0  0
   -0.7500   -1.2990    0.0000 C   0  0  0  0  0  0  0  0  0  0  0  0
  1  2  1  0
  2  3  1  0
  3  4  2  0
  4  5  1  0
  5  6  1  0
  6  7  2  0
  7  8  1  0
  8  9  2  0
  9 10  1  0
 10 11  1  0
 11 12  1  0
 12 13  1  0
 13 14  1  0
 14 15  1  0
 15 16  2  0
 15 17  1  0
 17 18  1  0
 18 19  2  0
 19 20  1  0
 20 21  2  0
 21 22  1  0
 22 23  2  0
 14 24  1  0
 24 25  2  0
  5 26  1  0
 26 27  2  0
 27 28  1  0
 28 29  2  0
 29 30  1  0
 30 31  2  0
 31  2  1  0
 10  6  1  0
 24 11  1  0
 31 26  1  0
 23 18  1  0
M  END
>  <Title>  (733) 
idABAGgen13

$$$$

     RDKit          2D

 35 39  0  0  0  0  0  0  0  0999 V2000
   -3.1476   -2.1380    0.0000 C   0  0  0  0  0  0  0  0  0  0  0  0
   -1.6852   -2.4718    0.0000 C   0  0  0  0  0  0  0  0  0  0  0  0
   -1.3515   -3.9342    0.0000 C   0  0  0  0  0  0  0  0  0  0  0  0
   -0.0000   -4.5850    0.0000 C   0  0  0  0  0  0  0  0  0  0  0  0
    1.3515   -3.9342    0.0000 C   0  0  0  0  0  0  0  0  0  0  0  0
    1.6852   -2.4718    0.0000 C   0  0  0  0  0  0  0  0  0  0  0  0
    3.1476   -2.1380    0.0000 C   0  0  0  0  0  0  0  0  0  0  0  0
    3.5898   -0.7046    0.0000 O   0  0  0  0  0  0  0  0  0  0  0  0
    4.1679   -3.2376    0.0000 N   0  0  0  0  0  0  0  0  0  0  0  0
    5.6303   -2.9038    0.0000 C   0  0  0  0  0  0  0  0  0  0  0  0
    6.2198   -1.5245    0.0000 N   0  0  0  0  0  0  0  0  0  0  0  0
    7.7138   -1.6590    0.0000 N   0  0  0  0  0  0  0  0  0  0  0  0
    8.0476   -3.1214    0.0000 N   0  0  0  0  0  0  0  0  0  0  0  0
    6.7599   -3.8907    0.0000 N   0  0  0  0  0  0  0  0  0  0  0  0
    6.6254   -5.3847    0.0000 N   0  0  0  0  0  0  0  0  0  0  0  0
    7.7550   -6.3716    0.0000 C   0  0  0  0  0  0  0  0  0  0  0  0
    7.1655   -7.7509    0.0000 C   0  0  0  0  0  0  0  0  0  0  0  0
    5.6715   -7.6164    0.0000 N   0  0  0  0  0  0  0  0  0  0  0  0
    4.6846   -8.7460    0.0000 C   0  0  0  0  0  0  0  0  0  0  0  0
    5.1694  -10.1655    0.0000 O   0  0  0  0  0  0  0  0  0  0  0  0
    3.2129   -8.4561    0.0000 N   0  0  0  0  0  0  0  0  0  0  0  0
    2.2260   -9.5857    0.0000 C   0  0  0  0  0  0  0  0  0  0  0  0
    0.7543   -9.2959    0.0000 N   0  0  0  0  0  0  0  0  0  0  0  0
   -0.2326  -10.4255    0.0000 N   0  0  0  0  0  0  0  0  0  0  0  0
    0.2522  -11.8450    0.0000 N   0  0  0  0  0  0  0  0  0  0  0  0
    1.7239  -12.1348    0.0000 N   0  0  0  0  0  0  0  0  0  0  0  0
    2.7108  -11.0052    0.0000 N   0  0  0  0  0  0  0  0  0  0  0  0
    5.3378   -6.1540    0.0000 C   0  0  0  0  0  0  0  0  0  0  0  0
    3.9585   -5.5645    0.0000 O   0  0  0  0  0  0  0  0  0  0  0  0
    0.7500   -1.2990    0.0000 C   0  0  0  0  0  0  0  0  0  0  0  0
    1.5000    0.0000    0.0000 C   0  0  0  0  0  0  0  0  0  0  0  0
    0.7500    1.2990    0.0000 C   0  0  0  0  0  0  0  0  0  0  0  0
   -0.7500    1.2990    0.0000 C   0  0  0  0  0  0  0  0  0  0  0  0
   -1.5000    0.0000    0.0000 C   0  0  0  0  0  0  0  0  0  0  0  0
   -0.7500   -1.2990    0.0000 C   0  0  0  0  0  0  0  0  0  0  0  0
  1  2  1  0
  2  3  1  0
  3  4  1  0
  4  5  1  0
  5  6  2  0
  6  7  1  0
  7  8  2  0
  7  9  1  0
  9 10  1  0
 10 11  2  0
 11 12  1  0
 12 13  2  0
 13 14  1  0
 14 15  1  0
 15 16  1  0
 16 17  1  0
 17 18  1  0
 18 19  1  0
 19 20  2  0
 19 21  1  0
 21 22  1  0
 22 23  2  0
 23 24  1  0
 24 25  2  0
 25 26  1  0
 26 27  2  0
 18 28  1  0
 28 29  2  0
  6 30  1  0
 30 31  2  0
 31 32  1  0
 32 33  2  0
 33 34  1  0
 34 35  2  0
 35  2  1  0
 14 10  1  0
 28 15  1  0
 35 30  1  0
 27 22  1  0
M  END
>  <Title>  (734) 
idABAHgen13

$$$$

     RDKit          2D

 12 13  0  0  0  0  0  0  0  0999 V2000
   -3.2595   -3.4715    0.0000 C   0  0  0  0  0  0  0  0  0  0  0  0
   -1.8107   -3.8597    0.0000 C   0  0  0  0  0  0  0  0  0  0  0  0
   -1.4224   -5.3086    0.0000 O   0  0  0  0  0  0  0  0  0  0  0  0
   -0.7500   -2.7990    0.0000 N   0  0  0  0  0  0  0  0  0  0  0  0
    0.7500   -2.7990    0.0000 C   0  0  0  0  0  0  0  0  0  0  0  0
    0.7500   -1.2990    0.0000 C   0  0  0  0  0  0  0  0  0  0  0  0
    1.5000    0.0000    0.0000 C   0  0  0  0  0  0  0  0  0  0  0  0
    0.7500    1.2990    0.0000 C   0  0  0  0  0  0  0  0  0  0  0  0
   -0.7500    1.2990    0.0000 C   0  0  0  0  0  0  0  0  0  0  0  0
   -1.5000    2.5981    0.0000 O   0  0  0  0  0  0  0  0  0  0  0  0
   -1.5000    0.0000    0.0000 N   0  0  0  0  0  0  0  0  0  0  0  0
   -0.7500   -1.2990    0.0000 C   0  0  0  0  0  0  0  0  0  0  0  0
  1  2  1  0
  2  3  2  0
  2  4  1  0
  4  5  1  0
  5  6  1  0
  6  7  2  0
  7  8  1  0
  8  9  2  0
  9 10  1  0
  9 11  1  0
 11 12  2  0
 12  4  1  0
 12  6  1  0
M  END
>  <Title>  (735) 
idABAIgen13

$$$$

     RDKit          2D

 12 12  0  0  0  0  0  0  0  0999 V2000
    8.0260   -3.8971    0.0000 C   0  0  0  0  0  0  0  0  0  0  0  0
    7.2760   -2.5981    0.0000 C   0  0  0  0  0  0  0  0  0  0  0  0
    5.7760   -2.5981    0.0000 C   0  0  0  0  0  0  0  0  0  0  0  0
    5.0260   -1.2990    0.0000 C   0  0  0  0  0  0  0  0  0  0  0  0
    3.5260   -1.2990    0.0000 C   0  0  0  0  0  0  0  0  0  0  0  0
    2.7760   -2.5981    0.0000 O   0  0  0  0  0  0  0  0  0  0  0  0
    2.7760    0.0000    0.0000 N   0  0  0  0  0  0  0  0  0  0  0  0
    1.2760    0.0000    0.0000 C   0  0  0  0  0  0  0  0  0  0  0  0
    0.3943    1.2135    0.0000 C   0  0  0  0  0  0  0  0  0  0  0  0
   -1.0323    0.7500    0.0000 C   0  0  0  0  0  0  0  0  0  0  0  0
   -1.0323   -0.7500    0.0000 C   0  0  0  0  0  0  0  0  0  0  0  0
    0.3943   -1.2135    0.0000 C   0  0  0  0  0  0  0  0  0  0  0  0
  1  2  2  0
  2  3  1  0
  3  4  1  0
  4  5  1  0
  5  6  2  0
  5  7  1  0
  7  8  1  0
  8  9  2  0
  9 10  1  0
 10 11  1  0
 11 12  1  0
 12  8  1  0
M  END
>  <Title>  (736) 
idABAJgen13

$$$$

     RDKit          2D

 87 89  0  0  0  0  0  0  0  0999 V2000
    7.2421   -7.7617    0.0000 C   0  0  0  0  0  0  0  0  0  0  0  0
    8.7026   -7.4196    0.0000 C   0  0  0  0  0  0  0  0  0  0  0  0
    9.1435   -8.8534    0.0000 C   0  0  0  0  0  0  0  0  0  0  0  0
    9.7755  -10.2137    0.0000 C   0  0  0  0  0  0  0  0  0  0  0  0
   10.5869  -11.4753    0.0000 C   0  0  0  0  0  0  0  0  0  0  0  0
   11.5625  -12.6147    0.0000 C   0  0  0  0  0  0  0  0  0  0  0  0
   12.6842  -13.6106    0.0000 C   0  0  0  0  0  0  0  0  0  0  0  0
   13.9310  -14.4445    0.0000 C   0  0  0  0  0  0  0  0  0  0  0  0
   15.2798  -15.1009    0.0000 C   0  0  0  0  0  0  0  0  0  0  0  0
   16.7053  -15.5675    0.0000 C   0  0  0  0  0  0  0  0  0  0  0  0
   18.1812  -15.8357    0.0000 C   0  0  0  0  0  0  0  0  0  0  0  0
   19.6798  -15.9003    0.0000 C   0  0  0  0  0  0  0  0  0  0  0  0
   21.1732  -15.7604    0.0000 C   0  0  0  0  0  0  0  0  0  0  0  0
   22.6337  -15.4183    0.0000 C   0  0  0  0  0  0  0  0  0  0  0  0
   24.0340  -14.8806    0.0000 C   0  0  0  0  0  0  0  0  0  0  0  0
   25.3481  -14.1572    0.0000 C   0  0  0  0  0  0  0  0  0  0  0  0
   26.5514  -13.2616    0.0000 C   0  0  0  0  0  0  0  0  0  0  0  0
   27.6215  -12.2105    0.0000 C   0  0  0  0  0  0  0  0  0  0  0  0
   28.5386  -11.0235    0.0000 C   0  0  0  0  0  0  0  0  0  0  0  0
   29.2855   -9.7227    0.0000 C   0  0  0  0  0  0  0  0  0  0  0  0
   29.8483   -8.3323    0.0000 C   0  0  0  0  0  0  0  0  0  0  0  0
   30.2165   -6.8782    0.0000 C   0  0  0  0  0  0  0  0  0  0  0  0
   30.3833   -5.3875    0.0000 C   0  0  0  0  0  0  0  0  0  0  0  0
   30.3456   -3.8880    0.0000 C   0  0  0  0  0  0  0  0  0  0  0  0
   30.1040   -2.4075    0.0000 C   0  0  0  0  0  0  0  0  0  0  0  0
   29.6631   -0.9738    0.0000 C   0  0  0  0  0  0  0  0  0  0  0  0
   29.0311    0.3865    0.0000 C   0  0  0  0  0  0  0  0  0  0  0  0
   28.2197    1.6482    0.0000 C   0  0  0  0  0  0  0  0  0  0  0  0
   27.2441    2.7875    0.0000 C   0  0  0  0  0  0  0  0  0  0  0  0
   26.1224    3.7835    0.0000 C   0  0  0  0  0  0  0  0  0  0  0  0
   24.8756    4.6174    0.0000 C   0  0  0  0  0  0  0  0  0  0  0  0
   23.5268    5.2738    0.0000 C   0  0  0  0  0  0  0  0  0  0  0  0
   22.1012    5.7404    0.0000 C   0  0  0  0  0  0  0  0  0  0  0  0
   20.6254    6.0085    0.0000 C   0  0  0  0  0  0  0  0  0  0  0  0
   19.1268    6.0732    0.0000 C   0  0  0  0  0  0  0  0  0  0  0  0
   17.6333    5.9332    0.0000 C   0  0  0  0  0  0  0  0  0  0  0  0
   16.1728    5.5912    0.0000 C   0  0  0  0  0  0  0  0  0  0  0  0
   14.7725    5.0534    0.0000 C   0  0  0  0  0  0  0  0  0  0  0  0
   13.4585    4.3300    0.0000 C   0  0  0  0  0  0  0  0  0  0  0  0
   12.2552    3.4345    0.0000 C   0  0  0  0  0  0  0  0  0  0  0  0
   11.1850    2.3834    0.0000 C   0  0  0  0  0  0  0  0  0  0  0  0
   10.2680    1.1964    0.0000 C   0  0  0  0  0  0  0  0  0  0  0  0
    9.5211   -0.1045    0.0000 C   0  0  0  0  0  0  0  0  0  0  0  0
    8.9583   -1.4949    0.0000 C   0  0  0  0  0  0  0  0  0  0  0  0
    8.3822   -0.0000    0.0000 C   0  0  0  0  0  0  0  0  0  0  0  0
    8.2679    1.3797    0.0000 C   0  0  0  0  0  0  0  0  0  0  0  0
    7.9280    2.7217    0.0000 C   0  0  0  0  0  0  0  0  0  0  0  0
    7.3719    3.9895    0.0000 C   0  0  0  0  0  0  0  0  0  0  0  0
    6.6147    5.1484    0.0000 C   0  0  0  0  0  0  0  0  0  0  0  0
    5.6771    6.1670    0.0000 C   0  0  0  0  0  0  0  0  0  0  0  0
    4.5846    7.0173    0.0000 C   0  0  0  0  0  0  0  0  0  0  0  0
    3.3671    7.6762    0.0000 C   0  0  0  0  0  0  0  0  0  0  0  0
    2.0577    8.1257    0.0000 C   0  0  0  0  0  0  0  0  0  0  0  0
    0.6922    8.3535    0.0000 C   0  0  0  0  0  0  0  0  0  0  0  0
   -0.6922    8.3535    0.0000 C   0  0  0  0  0  0  0  0  0  0  0  0
   -2.0577    8.1257    0.0000 C   0  0  0  0  0  0  0  0  0  0  0  0
   -3.3671    7.6762    0.0000 C   0  0  0  0  0  0  0  0  0  0  0  0
   -4.5846    7.0173    0.0000 C   0  0  0  0  0  0  0  0  0  0  0  0
   -5.6771    6.1670    0.0000 C   0  0  0  0  0  0  0  0  0  0  0  0
   -6.6147    5.1484    0.0000 C   0  0  0  0  0  0  0  0  0  0  0  0
   -7.3719    3.9895    0.0000 C   0  0  0  0  0  0  0  0  0  0  0  0
   -7.9280    2.7217    0.0000 C   0  0  0  0  0  0  0  0  0  0  0  0
   -8.2679    1.3797    0.0000 C   0  0  0  0  0  0  0  0  0  0  0  0
   -8.3822    0.0000    0.0000 C   0  0  0  0  0  0  0  0  0  0  0  0
   -8.2679   -1.3797    0.0000 C   0  0  0  0  0  0  0  0  0  0  0  0
   -7.9280   -2.7217    0.0000 C   0  0  0  0  0  0  0  0  0  0  0  0
   -7.3719   -3.9895    0.0000 C   0  0  0  0  0  0  0  0  0  0  0  0
   -6.6147   -5.1484    0.0000 C   0  0  0  0  0  0  0  0  0  0  0  0
   -5.6771   -6.1670    0.0000 C   0  0  0  0  0  0  0  0  0  0  0  0
   -4.5846   -7.0173    0.0000 C   0  0  0  0  0  0  0  0  0  0  0  0
   -3.3671   -7.6762    0.0000 C   0  0  0  0  0  0  0  0  0  0  0  0
   -2.0577   -8.1257    0.0000 C   0  0  0  0  0  0  0  0  0  0  0  0
   -0.6922   -8.3535    0.0000 C   0  0  0  0  0  0  0  0  0  0  0  0
    0.6922   -8.3535    0.0000 C   0  0  0  0  0  0  0  0  0  0  0  0
    2.0577   -8.1257    0.0000 C   0  0  0  0  0  0  0  0  0  0  0  0
    3.3671   -7.6762    0.0000 C   0  0  0  0  0  0  0  0  0  0  0  0
    4.5846   -7.0173    0.0000 C   0  0  0  0  0  0  0  0  0  0  0  0
    5.6771   -6.1670    0.0000 C   0  0  0  0  0  0  0  0  0  0  0  0
    6.6147   -5.1484    0.0000 C   0  0  0  0  0  0  0  0  0  0  0  0
    7.3719   -3.9895    0.0000 C   0  0  0  0  0  0  0  0  0  0  0  0
    8.5901   -2.9490    0.0000 C   0  0  0  0  0  0  0  0  0  0  0  0
    8.4233   -4.4397    0.0000 C   0  0  0  0  0  0  0  0  0  0  0  0
    9.7030   -3.6572    0.0000 C   0  0  0  0  0  0  0  0  0  0  0  0
   11.0205   -4.3743    0.0000 C   0  0  0  0  0  0  0  0  0  0  0  0
   11.0583   -5.8738    0.0000 C   0  0  0  0  0  0  0  0  0  0  0  0
    9.7785   -6.6563    0.0000 C   0  0  0  0  0  0  0  0  0  0  0  0
    8.4610   -5.9392    0.0000 C   0  0  0  0  0  0  0  0  0  0  0  0
  1  2  1  0
  2  3  1  0
  3  4  1  0
  4  5  1  0
  5  6  1  0
  6  7  1  0
  7  8  1  0
  8  9  1  0
  9 10  1  0
 10 11  1  0
 11 12  1  0
 12 13  1  0
 13 14  1  0
 14 15  1  0
 15 16  1  0
 16 17  1  0
 17 18  1  0
 18 19  1  0
 19 20  1  0
 20 21  1  0
 21 22  1  0
 22 23  1  0
 23 24  1  0
 24 25  1  0
 25 26  1  0
 26 27  1  0
 27 28  1  0
 28 29  1  0
 29 30  1  0
 30 31  1  0
 31 32  1  0
 32 33  1  0
 33 34  1  0
 34 35  1  0
 35 36  1  0
 36 37  1  0
 37 38  1  0
 38 39  1  0
 39 40  1  0
 40 41  1  0
 41 42  1  0
 42 43  1  0
 43 44  1  0
 44 45  1  0
 45 46  1  0
 46 47  1  0
 47 48  1  0
 48 49  1  0
 49 50  1  0
 50 51  1  0
 51 52  1  0
 52 53  1  0
 53 54  1  0
 54 55  1  0
 55 56  1  0
 56 57  1  0
 57 58  1  0
 58 59  1  0
 59 60  1  0
 60 61  1  0
 61 62  1  0
 62 63  1  0
 63 64  1  0
 64 65  1  0
 65 66  1  0
 66 67  1  0
 67 68  1  0
 68 69  1  0
 69 70  1  0
 70 71  1  0
 71 72  1  0
 72 73  1  0
 73 74  1  0
 74 75  1  0
 75 76  1  0
 76 77  2  0
 77 78  1  0
 78 79  2  0
 79 80  1  0
 80 81  2  0
 81 82  1  0
 82 83  2  0
 83 84  1  0
 84 85  2  0
 85 86  1  0
 86 87  2  0
 87  2  1  0
 81 44  1  0
 87 82  1  0
M  END
>  <Title>  (737) 
idABAKgen13

$$$$

     RDKit          2D

 93 94  0  0  0  0  0  0  0  0999 V2000
   -2.1779   -1.0793    0.0000 C   0  0  0  0  0  0  0  0  0  0  0  0
   -2.4880    0.3883    0.0000 C   0  0  0  0  0  0  0  0  0  0  0  0
   -3.9656    0.1301    0.0000 C   0  0  0  0  0  0  0  0  0  0  0  0
   -5.4578   -0.0232    0.0000 C   0  0  0  0  0  0  0  0  0  0  0  0
   -6.9570   -0.0708    0.0000 C   0  0  0  0  0  0  0  0  0  0  0  0
   -8.4559   -0.0126    0.0000 C   0  0  0  0  0  0  0  0  0  0  0  0
   -9.9469    0.1512    0.0000 C   0  0  0  0  0  0  0  0  0  0  0  0
  -11.4227    0.4198    0.0000 C   0  0  0  0  0  0  0  0  0  0  0  0
  -12.8758    0.7918    0.0000 C   0  0  0  0  0  0  0  0  0  0  0  0
  -14.2991    1.2654    0.0000 C   0  0  0  0  0  0  0  0  0  0  0  0
  -15.6854    1.8382    0.0000 C   0  0  0  0  0  0  0  0  0  0  0  0
  -17.0279    2.5074    0.0000 C   0  0  0  0  0  0  0  0  0  0  0  0
  -18.3198    3.2696    0.0000 C   0  0  0  0  0  0  0  0  0  0  0  0
  -19.5547    4.1210    0.0000 C   0  0  0  0  0  0  0  0  0  0  0  0
  -20.7266    5.0574    0.0000 C   0  0  0  0  0  0  0  0  0  0  0  0
  -21.8294    6.0741    0.0000 C   0  0  0  0  0  0  0  0  0  0  0  0
  -22.8577    7.1661    0.0000 C   0  0  0  0  0  0  0  0  0  0  0  0
  -23.8065    8.3280    0.0000 C   0  0  0  0  0  0  0  0  0  0  0  0
  -24.6710    9.5538    0.0000 C   0  0  0  0  0  0  0  0  0  0  0  0
  -25.4468   10.8376    0.0000 C   0  0  0  0  0  0  0  0  0  0  0  0
  -26.1301   12.1729    0.0000 C   0  0  0  0  0  0  0  0  0  0  0  0
  -26.7176   13.5531    0.0000 C   0  0  0  0  0  0  0  0  0  0  0  0
  -27.2062   14.9713    0.0000 C   0  0  0  0  0  0  0  0  0  0  0  0
  -27.5936   16.4204    0.0000 C   0  0  0  0  0  0  0  0  0  0  0  0
  -27.8778   17.8932    0.0000 C   0  0  0  0  0  0  0  0  0  0  0  0
  -28.0574   19.3824    0.0000 C   0  0  0  0  0  0  0  0  0  0  0  0
  -28.1315   20.8806    0.0000 C   0  0  0  0  0  0  0  0  0  0  0  0
  -28.0997   22.3803    0.0000 C   0  0  0  0  0  0  0  0  0  0  0  0
  -27.9622   23.8739    0.0000 C   0  0  0  0  0  0  0  0  0  0  0  0
  -27.7198   25.3542    0.0000 C   0  0  0  0  0  0  0  0  0  0  0  0
  -27.3735   26.8137    0.0000 C   0  0  0  0  0  0  0  0  0  0  0  0
  -26.9251   28.2451    0.0000 C   0  0  0  0  0  0  0  0  0  0  0  0
  -26.3768   29.6413    0.0000 C   0  0  0  0  0  0  0  0  0  0  0  0
  -25.7314   30.9954    0.0000 C   0  0  0  0  0  0  0  0  0  0  0  0
  -24.9922   32.3006    0.0000 C   0  0  0  0  0  0  0  0  0  0  0  0
  -24.1627   33.5503    0.0000 C   0  0  0  0  0  0  0  0  0  0  0  0
  -23.2471   34.7385    0.0000 C   0  0  0  0  0  0  0  0  0  0  0  0
  -22.2500   35.8591    0.0000 C   0  0  0  0  0  0  0  0  0  0  0  0
  -21.1763   36.9066    0.0000 C   0  0  0  0  0  0  0  0  0  0  0  0
  -20.0314   37.8757    0.0000 C   0  0  0  0  0  0  0  0  0  0  0  0
  -18.8210   38.7616    0.0000 C   0  0  0  0  0  0  0  0  0  0  0  0
  -17.5511   39.5600    0.0000 C   0  0  0  0  0  0  0  0  0  0  0  0
  -16.2280   40.2668    0.0000 C   0  0  0  0  0  0  0  0  0  0  0  0
  -14.8585   40.8785    0.0000 C   0  0  0  0  0  0  0  0  0  0  0  0
  -13.4491   41.3921    0.0000 C   0  0  0  0  0  0  0  0  0  0  0  0
  -12.0071   41.8050    0.0000 C   0  0  0  0  0  0  0  0  0  0  0  0
  -10.5395   42.1151    0.0000 C   0  0  0  0  0  0  0  0  0  0  0  0
   -9.0537   42.3210    0.0000 C   0  0  0  0  0  0  0  0  0  0  0  0
   -7.5570   42.4215    0.0000 C   0  0  0  0  0  0  0  0  0  0  0  0
   -6.0570   42.4162    0.0000 C   0  0  0  0  0  0  0  0  0  0  0  0
   -4.5612   42.3051    0.0000 C   0  0  0  0  0  0  0  0  0  0  0  0
   -3.0768   42.0888    0.0000 C   0  0  0  0  0  0  0  0  0  0  0  0
   -1.6115   41.7683    0.0000 C   0  0  0  0  0  0  0  0  0  0  0  0
   -0.1724   41.3452    0.0000 C   0  0  0  0  0  0  0  0  0  0  0  0
    1.2333   40.8217    0.0000 C   0  0  0  0  0  0  0  0  0  0  0  0
    2.5985   40.2004    0.0000 C   0  0  0  0  0  0  0  0  0  0  0  0
    3.9166   39.4842    0.0000 C   0  0  0  0  0  0  0  0  0  0  0  0
    5.1808   38.6769    0.0000 C   0  0  0  0  0  0  0  0  0  0  0  0
    6.3849   37.7824    0.0000 C   0  0  0  0  0  0  0  0  0  0  0  0
    7.5229   36.8053    0.0000 C   0  0  0  0  0  0  0  0  0  0  0  0
    8.5892   35.7502    0.0000 C   0  0  0  0  0  0  0  0  0  0  0  0
    9.5784   34.6226    0.0000 C   0  0  0  0  0  0  0  0  0  0  0  0
   10.4855   33.4280    0.0000 C   0  0  0  0  0  0  0  0  0  0  0  0
   11.3062   32.1724    0.0000 C   0  0  0  0  0  0  0  0  0  0  0  0
   12.0362   30.8621    0.0000 C   0  0  0  0  0  0  0  0  0  0  0  0
   12.6720   29.5035    0.0000 C   0  0  0  0  0  0  0  0  0  0  0  0
   13.2104   28.1034    0.0000 C   0  0  0  0  0  0  0  0  0  0  0  0
   13.6487   26.6689    0.0000 C   0  0  0  0  0  0  0  0  0  0  0  0
   13.9847   25.2070    0.0000 C   0  0  0  0  0  0  0  0  0  0  0  0
   14.2167   23.7251    0.0000 C   0  0  0  0  0  0  0  0  0  0  0  0
   14.3436   22.2304    0.0000 C   0  0  0  0  0  0  0  0  0  0  0  0
   14.3648   20.7306    0.0000 C   0  0  0  0  0  0  0  0  0  0  0  0
   14.2802   19.2330    0.0000 C   0  0  0  0  0  0  0  0  0  0  0  0
   14.0901   17.7451    0.0000 C   0  0  0  0  0  0  0  0  0  0  0  0
   13.7955   16.2743    0.0000 C   0  0  0  0  0  0  0  0  0  0  0  0
   13.3979   14.8279    0.0000 C   0  0  0  0  0  0  0  0  0  0  0  0
   12.8992   13.4132    0.0000 C   0  0  0  0  0  0  0  0  0  0  0  0
   12.3021   12.0372    0.0000 C   0  0  0  0  0  0  0  0  0  0  0  0
   11.6093   10.7068    0.0000 C   0  0  0  0  0  0  0  0  0  0  0  0
   10.8244    9.4285    0.0000 C   0  0  0  0  0  0  0  0  0  0  0  0
    9.9513    8.2088    0.0000 C   0  0  0  0  0  0  0  0  0  0  0  0
    8.9944    7.0537    0.0000 C   0  0  0  0  0  0  0  0  0  0  0  0
    7.9583    5.9690    0.0000 C   0  0  0  0  0  0  0  0  0  0  0  0
    6.8484    4.9601    0.0000 C   0  0  0  0  0  0  0  0  0  0  0  0
    5.6700    4.0319    0.0000 C   0  0  0  0  0  0  0  0  0  0  0  0
    4.4291    3.1893    0.0000 C   0  0  0  0  0  0  0  0  0  0  0  0
    3.1318    2.4362    0.0000 C   0  0  0  0  0  0  0  0  0  0  0  0
    1.7846    1.7765    0.0000 C   0  0  0  0  0  0  0  0  0  0  0  0
    0.3943    1.2135    0.0000 C   0  0  0  0  0  0  0  0  0  0  0  0
    1.2760    0.0000    0.0000 C   0  0  0  0  0  0  0  0  0  0  0  0
    0.3943   -1.2135    0.0000 C   0  0  0  0  0  0  0  0  0  0  0  0
   -1.0323   -0.7500    0.0000 C   0  0  0  0  0  0  0  0  0  0  0  0
   -1.0323    0.7500    0.0000 C   0  0  0  0  0  0  0  0  0  0  0  0
  1  2  1  0
  2  3  1  0
  3  4  1  0
  4  5  1  0
  5  6  1  0
  6  7  1  0
  7  8  1  0
  8  9  1  0
  9 10  1  0
 10 11  1  0
 11 12  1  0
 12 13  1  0
 13 14  1  0
 14 15  1  0
 15 16  1  0
 16 17  1  0
 17 18  1  0
 18 19  1  0
 19 20  1  0
 20 21  1  0
 21 22  1  0
 22 23  1  0
 23 24  1  0
 24 25  1  0
 25 26  1  0
 26 27  1  0
 27 28  1  0
 28 29  1  0
 29 30  1  0
 30 31  1  0
 31 32  1  0
 32 33  1  0
 33 34  1  0
 34 35  1  0
 35 36  1  0
 36 37  1  0
 37 38  1  0
 38 39  1  0
 39 40  1  0
 40 41  1  0
 41 42  1  0
 42 43  1  0
 43 44  1  0
 44 45  1  0
 45 46  1  0
 46 47  1  0
 47 48  1  0
 48 49  1  0
 49 50  1  0
 50 51  1  0
 51 52  1  0
 52 53  1  0
 53 54  1  0
 54 55  1  0
 55 56  1  0
 56 57  1  0
 57 58  1  0
 58 59  1  0
 59 60  1  0
 60 61  1  0
 61 62  1  0
 62 63  1  0
 63 64  1  0
 64 65  1  0
 65 66  1  0
 66 67  1  0
 67 68  1  0
 68 69  1  0
 69 70  1  0
 70 71  1  0
 71 72  1  0
 72 73  1  0
 73 74  1  0
 74 75  1  0
 75 76  1  0
 76 77  1  0
 77 78  1  0
 78 79  1  0
 79 80  1  0
 80 81  1  0
 81 82  1  0
 82 83  1  0
 83 84  1  0
 84 85  2  0
 85 86  1  0
 86 87  2  0
 87 88  1  0
 88 89  2  0
 89 90  1  0
 90 91  2  0
 91 92  1  0
 92 93  2  0
 93  2  1  0
 93 89  1  0
M  END
>  <Title>  (738) 
idABALgen13

$$$$

     RDKit          2D

 61 62  0  0  0  0  0  0  0  0999 V2000
   -4.6471   -2.8871    0.0000 C   0  0  0  0  0  0  0  0  0  0  0  0
   -3.4680   -1.9599    0.0000 C   0  0  0  0  0  0  0  0  0  0  0  0
   -2.2889   -1.0326    0.0000 C   0  0  0  0  0  0  0  0  0  0  0  0
   -2.5024    0.4521    0.0000 C   0  0  0  0  0  0  0  0  0  0  0  0
   -3.9969    0.3238    0.0000 C   0  0  0  0  0  0  0  0  0  0  0  0
   -5.4963    0.3666    0.0000 C   0  0  0  0  0  0  0  0  0  0  0  0
   -6.9810    0.5801    0.0000 C   0  0  0  0  0  0  0  0  0  0  0  0
   -8.4317    0.9614    0.0000 C   0  0  0  0  0  0  0  0  0  0  0  0
   -9.8295    1.5056    0.0000 C   0  0  0  0  0  0  0  0  0  0  0  0
  -11.1562    2.2056    0.0000 C   0  0  0  0  0  0  0  0  0  0  0  0
  -12.3944    3.0523    0.0000 C   0  0  0  0  0  0  0  0  0  0  0  0
  -13.5280    4.0346    0.0000 C   0  0  0  0  0  0  0  0  0  0  0  0
  -14.5423    5.1397    0.0000 C   0  0  0  0  0  0  0  0  0  0  0  0
  -15.4240    6.3532    0.0000 C   0  0  0  0  0  0  0  0  0  0  0  0
  -16.1616    7.6593    0.0000 C   0  0  0  0  0  0  0  0  0  0  0  0
  -16.7455    9.0410    0.0000 C   0  0  0  0  0  0  0  0  0  0  0  0
  -17.1681   10.4802    0.0000 C   0  0  0  0  0  0  0  0  0  0  0  0
  -17.4239   11.9583    0.0000 C   0  0  0  0  0  0  0  0  0  0  0  0
  -17.5095   13.4558    0.0000 C   0  0  0  0  0  0  0  0  0  0  0  0
  -17.4239   14.9534    0.0000 C   0  0  0  0  0  0  0  0  0  0  0  0
  -17.1681   16.4314    0.0000 C   0  0  0  0  0  0  0  0  0  0  0  0
  -16.7455   17.8706    0.0000 C   0  0  0  0  0  0  0  0  0  0  0  0
  -16.1616   19.2523    0.0000 C   0  0  0  0  0  0  0  0  0  0  0  0
  -15.4240   20.5584    0.0000 C   0  0  0  0  0  0  0  0  0  0  0  0
  -14.5423   21.7720    0.0000 C   0  0  0  0  0  0  0  0  0  0  0  0
  -13.5280   22.8771    0.0000 C   0  0  0  0  0  0  0  0  0  0  0  0
  -12.3944   23.8594    0.0000 C   0  0  0  0  0  0  0  0  0  0  0  0
  -11.1562   24.7060    0.0000 C   0  0  0  0  0  0  0  0  0  0  0  0
   -9.8295   25.4060    0.0000 C   0  0  0  0  0  0  0  0  0  0  0  0
   -8.4317   25.9503    0.0000 C   0  0  0  0  0  0  0  0  0  0  0  0
   -6.9810   26.3316    0.0000 C   0  0  0  0  0  0  0  0  0  0  0  0
   -5.4963   26.5451    0.0000 C   0  0  0  0  0  0  0  0  0  0  0  0
   -3.9969   26.5879    0.0000 C   0  0  0  0  0  0  0  0  0  0  0  0
   -2.5024   26.4595    0.0000 C   0  0  0  0  0  0  0  0  0  0  0  0
   -1.0323   26.1616    0.0000 C   0  0  0  0  0  0  0  0  0  0  0  0
    0.3943   25.6981    0.0000 C   0  0  0  0  0  0  0  0  0  0  0  0
    1.7587   25.0750    0.0000 C   0  0  0  0  0  0  0  0  0  0  0  0
    3.0433   24.3004    0.0000 C   0  0  0  0  0  0  0  0  0  0  0  0
    4.2311   23.3844    0.0000 C   0  0  0  0  0  0  0  0  0  0  0  0
    5.3068   22.3390    0.0000 C   0  0  0  0  0  0  0  0  0  0  0  0
    6.2563   21.1778    0.0000 C   0  0  0  0  0  0  0  0  0  0  0  0
    7.0673   19.9159    0.0000 C   0  0  0  0  0  0  0  0  0  0  0  0
    7.7291   18.5698    0.0000 C   0  0  0  0  0  0  0  0  0  0  0  0
    8.2332   17.1571    0.0000 C   0  0  0  0  0  0  0  0  0  0  0  0
    8.5730   15.6960    0.0000 C   0  0  0  0  0  0  0  0  0  0  0  0
    8.7439   14.2058    0.0000 C   0  0  0  0  0  0  0  0  0  0  0  0
    8.7439   12.7058    0.0000 C   0  0  0  0  0  0  0  0  0  0  0  0
    8.5730   11.2156    0.0000 C   0  0  0  0  0  0  0  0  0  0  0  0
    8.2332    9.7546    0.0000 C   0  0  0  0  0  0  0  0  0  0  0  0
    7.7291    8.3418    0.0000 C   0  0  0  0  0  0  0  0  0  0  0  0
    7.0673    6.9957    0.0000 C   0  0  0  0  0  0  0  0  0  0  0  0
    6.2563    5.7338    0.0000 C   0  0  0  0  0  0  0  0  0  0  0  0
    5.3068    4.5726    0.0000 C   0  0  0  0  0  0  0  0  0  0  0  0
    4.2311    3.5272    0.0000 C   0  0  0  0  0  0  0  0  0  0  0  0
    3.0433    2.6112    0.0000 C   0  0  0  0  0  0  0  0  0  0  0  0
    1.7587    1.8366    0.0000 C   0  0  0  0  0  0  0  0  0  0  0  0
    0.3943    1.2135    0.0000 C   0  0  0  0  0  0  0  0  0  0  0  0
    1.2760    0.0000    0.0000 C   0  0  0  0  0  0  0  0  0  0  0  0
    0.3943   -1.2135    0.0000 C   0  0  0  0  0  0  0  0  0  0  0  0
   -1.0323   -0.7500    0.0000 C   0  0  0  0  0  0  0  0  0  0  0  0
   -1.0323    0.7500    0.0000 C   0  0  0  0  0  0  0  0  0  0  0  0
  1  2  3  0
  2  3  1  0
  3  4  1  0
  4  5  1  0
  5  6  1  0
  6  7  1  0
  7  8  1  0
  8  9  1  0
  9 10  1  0
 10 11  1  0
 11 12  1  0
 12 13  1  0
 13 14  1  0
 14 15  1  0
 15 16  1  0
 16 17  1  0
 17 18  1  0
 18 19  1  0
 19 20  1  0
 20 21  1  0
 21 22  1  0
 22 23  1  0
 23 24  1  0
 24 25  1  0
 25 26  1  0
 26 27  1  0
 27 28  1  0
 28 29  1  0
 29 30  1  0
 30 31  1  0
 31 32  1  0
 32 33  1  0
 33 34  1  0
 34 35  1  0
 35 36  1  0
 36 37  1  0
 37 38  1  0
 38 39  1  0
 39 40  1  0
 40 41  2  0
 41 42  1  0
 42 43  2  0
 43 44  1  0
 44 45  2  0
 45 46  1  0
 46 47  2  0
 47 48  1  0
 48 49  2  0
 49 50  1  0
 50 51  2  0
 51 52  1  0
 52 53  2  0
 53 54  1  0
 54 55  2  0
 55 56  1  0
 56 57  2  0
 57 58  1  0
 58 59  2  0
 59 60  1  0
 60 61  2  0
 61  4  1  0
 61 57  1  0
M  END
>  <Title>  (739) 
idABAMgen13

$$$$

     RDKit          2D

  5  5  0  0  0  0  0  0  0  0999 V2000
    1.2760    0.0000    0.0000 C   0  0  0  0  0  0  0  0  0  0  0  0
    0.3943    1.2135    0.0000 C   0  0  0  0  0  0  0  0  0  0  0  0
   -1.0323    0.7500    0.0000 C   0  0  0  0  0  0  0  0  0  0  0  0
   -1.0323   -0.7500    0.0000 N   0  0  0  0  0  0  0  0  0  0  0  0
    0.3943   -1.2135    0.0000 C   0  0  0  0  0  0  0  0  0  0  0  0
  1  2  1  0
  2  3  2  0
  3  4  1  0
  4  5  1  0
  5  1  2  0
M  END
>  <Title>  (740) 
idABANgen13

$$$$

     RDKit          2D

 44 49  0  0  0  0  0  0  0  0999 V2000
   -3.7860   -5.5823    0.0000 C   0  0  0  0  0  0  0  0  0  0  0  0
   -2.4215   -4.9592    0.0000 C   0  0  0  0  0  0  0  0  0  0  0  0
   -1.4392   -6.0928    0.0000 C   0  0  0  0  0  0  0  0  0  0  0  0
   -0.0000   -6.5154    0.0000 C   0  0  0  0  0  0  0  0  0  0  0  0
    1.4392   -6.0928    0.0000 C   0  0  0  0  0  0  0  0  0  0  0  0
    2.4215   -4.9592    0.0000 C   0  0  0  0  0  0  0  0  0  0  0  0
    3.7860   -5.5823    0.0000 C   0  0  0  0  0  0  0  0  0  0  0  0
    5.0078   -4.7122    0.0000 O   0  0  0  0  0  0  0  0  0  0  0  0
    3.9286   -7.0755    0.0000 N   0  0  0  0  0  0  0  0  0  0  0  0
    5.2930   -7.6986    0.0000 C   0  0  0  0  0  0  0  0  0  0  0  0
    6.5991   -6.9610    0.0000 N   0  0  0  0  0  0  0  0  0  0  0  0
    7.7042   -7.9753    0.0000 N   0  0  0  0  0  0  0  0  0  0  0  0
    7.0811   -9.3397    0.0000 N   0  0  0  0  0  0  0  0  0  0  0  0
    5.5909   -9.1688    0.0000 N   0  0  0  0  0  0  0  0  0  0  0  0
    4.5766  -10.2739    0.0000 N   0  0  0  0  0  0  0  0  0  0  0  0
    4.8745  -11.7440    0.0000 C   0  0  0  0  0  0  0  0  0  0  0  0
    3.5684  -12.4816    0.0000 C   0  0  0  0  0  0  0  0  0  0  0  0
    2.4633  -11.4673    0.0000 N   0  0  0  0  0  0  0  0  0  0  0  0
    0.9932  -11.7652    0.0000 C   0  0  0  0  0  0  0  0  0  0  0  0
    0.5161  -13.1873    0.0000 O   0  0  0  0  0  0  0  0  0  0  0  0
    0.0001  -10.6410    0.0000 N   0  0  0  0  0  0  0  0  0  0  0  0
   -1.4700  -10.9389    0.0000 C   0  0  0  0  0  0  0  0  0  0  0  0
   -2.4630   -9.8147    0.0000 N   0  0  0  0  0  0  0  0  0  0  0  0
   -3.9332  -10.1125    0.0000 N   0  0  0  0  0  0  0  0  0  0  0  0
   -4.4102  -11.5346    0.0000 N   0  0  0  0  0  0  0  0  0  0  0  0
   -3.4172  -12.6589    0.0000 N   0  0  0  0  0  0  0  0  0  0  0  0
   -1.9471  -12.3610    0.0000 N   0  0  0  0  0  0  0  0  0  0  0  0
    3.0864  -10.1029    0.0000 C   0  0  0  0  0  0  0  0  0  0  0  0
    2.3488   -8.7968    0.0000 O   0  0  0  0  0  0  0  0  0  0  0  0
    2.6350   -3.4744    0.0000 C   0  0  0  0  0  0  0  0  0  0  0  0
    4.1197   -3.2610    0.0000 O   0  0  0  0  0  0  0  0  0  0  0  0
    2.0119   -2.1100    0.0000 O   0  0  0  0  0  0  0  0  0  0  0  0
    0.7500   -1.2990    0.0000 C   0  0  0  0  0  0  0  0  0  0  0  0
    1.5000    0.0000    0.0000 C   0  0  0  0  0  0  0  0  0  0  0  0
    0.7500    1.2990    0.0000 C   0  0  0  0  0  0  0  0  0  0  0  0
   -0.7500    1.2990    0.0000 C   0  0  0  0  0  0  0  0  0  0  0  0
   -1.5000    0.0000    0.0000 C   0  0  0  0  0  0  0  0  0  0  0  0
   -0.7500   -1.2990    0.0000 C   0  0  0  0  0  0  0  0  0  0  0  0
   -2.0119   -2.1100    0.0000 C   0  0  0  0  0  0  0  0  0  0  0  0
   -2.8820   -0.8881    0.0000 C   0  0  0  0  0  0  0  0  0  0  0  0
   -4.3752   -1.0307    0.0000 C   0  0  0  0  0  0  0  0  0  0  0  0
   -4.9983   -2.3952    0.0000 C   0  0  0  0  0  0  0  0  0  0  0  0
   -4.1282   -3.6170    0.0000 C   0  0  0  0  0  0  0  0  0  0  0  0
   -2.6350   -3.4744    0.0000 C   0  0  0  0  0  0  0  0  0  0  0  0
  1  2  1  0
  2  3  1  0
  3  4  2  0
  4  5  1  0
  5  6  2  0
  6  7  1  0
  7  8  2  0
  7  9  1  0
  9 10  1  0
 10 11  2  0
 11 12  1  0
 12 13  2  0
 13 14  1  0
 14 15  1  0
 15 16  1  0
 16 17  1  0
 17 18  1  0
 18 19  1  0
 19 20  2  0
 19 21  1  0
 21 22  1  0
 22 23  2  0
 23 24  1  0
 24 25  2  0
 25 26  1  0
 26 27  2  0
 18 28  1  0
 28 29  2  0
  6 30  1  0
 30 31  2  0
 30 32  1  0
 32 33  1  0
 33 34  2  0
 34 35  1  0
 35 36  2  0
 36 37  1  0
 37 38  2  0
 38 39  1  0
 39 40  2  0
 40 41  1  0
 41 42  2  0
 42 43  1  0
 43 44  2  0
 44  2  1  0
 14 10  1  0
 28 15  1  0
 38 33  1  0
 44 39  1  0
 27 22  1  0
M  END
>  <Title>  (741) 
idABAOgen13

$$$$

     RDKit          2D

 39 44  0  0  0  0  0  0  0  0999 V2000
   -1.3240   -6.3062    0.0000 C   0  0  0  0  0  0  0  0  0  0  0  0
   -0.7500   -4.9204    0.0000 C   0  0  0  0  0  0  0  0  0  0  0  0
    0.7500   -4.9204    0.0000 C   0  0  0  0  0  0  0  0  0  0  0  0
    1.8107   -3.8597    0.0000 C   0  0  0  0  0  0  0  0  0  0  0  0
    1.8107   -2.3597    0.0000 C   0  0  0  0  0  0  0  0  0  0  0  0
    3.1965   -1.7857    0.0000 C   0  0  0  0  0  0  0  0  0  0  0  0
    3.3923   -0.2985    0.0000 O   0  0  0  0  0  0  0  0  0  0  0  0
    4.3865   -2.6988    0.0000 N   0  0  0  0  0  0  0  0  0  0  0  0
    5.7723   -2.1248    0.0000 C   0  0  0  0  0  0  0  0  0  0  0  0
    6.1225   -0.6662    0.0000 N   0  0  0  0  0  0  0  0  0  0  0  0
    7.6179   -0.5485    0.0000 N   0  0  0  0  0  0  0  0  0  0  0  0
    8.1919   -1.9344    0.0000 N   0  0  0  0  0  0  0  0  0  0  0  0
    7.0513   -2.9085    0.0000 N   0  0  0  0  0  0  0  0  0  0  0  0
    7.1690   -4.4039    0.0000 N   0  0  0  0  0  0  0  0  0  0  0  0
    6.1948   -5.5445    0.0000 C   0  0  0  0  0  0  0  0  0  0  0  0
    7.3354   -6.5187    0.0000 C   0  0  0  0  0  0  0  0  0  0  0  0
    7.4531   -8.0141    0.0000 C   0  0  0  0  0  0  0  0  0  0  0  0
    8.8070   -8.6598    0.0000 O   0  0  0  0  0  0  0  0  0  0  0  0
    6.2169   -8.8637    0.0000 N   0  0  0  0  0  0  0  0  0  0  0  0
    6.3346  -10.3591    0.0000 C   0  0  0  0  0  0  0  0  0  0  0  0
    5.0984  -11.2087    0.0000 N   0  0  0  0  0  0  0  0  0  0  0  0
    5.2161  -12.7040    0.0000 N   0  0  0  0  0  0  0  0  0  0  0  0
    6.5700  -13.3498    0.0000 N   0  0  0  0  0  0  0  0  0  0  0  0
    7.8062  -12.5002    0.0000 N   0  0  0  0  0  0  0  0  0  0  0  0
    7.6885  -11.0048    0.0000 N   0  0  0  0  0  0  0  0  0  0  0  0
    8.3096   -5.3781    0.0000 C   0  0  0  0  0  0  0  0  0  0  0  0
    9.8050   -5.2604    0.0000 O   0  0  0  0  0  0  0  0  0  0  0  0
    0.7500   -1.2990    0.0000 C   0  0  0  0  0  0  0  0  0  0  0  0
    1.5000    0.0000    0.0000 C   0  0  0  0  0  0  0  0  0  0  0  0
    0.7500    1.2990    0.0000 C   0  0  0  0  0  0  0  0  0  0  0  0
   -0.7500    1.2990    0.0000 C   0  0  0  0  0  0  0  0  0  0  0  0
   -1.5000    0.0000    0.0000 C   0  0  0  0  0  0  0  0  0  0  0  0
   -0.7500   -1.2990    0.0000 C   0  0  0  0  0  0  0  0  0  0  0  0
   -1.8107   -2.3597    0.0000 C   0  0  0  0  0  0  0  0  0  0  0  0
   -3.1097   -1.6097    0.0000 C   0  0  0  0  0  0  0  0  0  0  0  0
   -4.4087   -2.3597    0.0000 C   0  0  0  0  0  0  0  0  0  0  0  0
   -4.4087   -3.8597    0.0000 C   0  0  0  0  0  0  0  0  0  0  0  0
   -3.1097   -4.6097    0.0000 C   0  0  0  0  0  0  0  0  0  0  0  0
   -1.8107   -3.8597    0.0000 C   0  0  0  0  0  0  0  0  0  0  0  0
  1  2  1  0
  2  3  1  0
  3  4  2  0
  4  5  1  0
  5  6  1  0
  6  7  2  0
  6  8  1  0
  8  9  1  0
  9 10  2  0
 10 11  1  0
 11 12  2  0
 12 13  1  0
 13 14  1  0
 14 15  1  0
 15 16  2  0
 16 17  1  0
 17 18  2  0
 17 19  1  0
 19 20  1  0
 20 21  2  0
 21 22  1  0
 22 23  2  0
 23 24  1  0
 24 25  2  0
 16 26  1  0
 26 27  2  0
  5 28  1  0
 28 29  2  0
 29 30  1  0
 30 31  2  0
 31 32  1  0
 32 33  2  0
 33 34  1  0
 34 35  2  0
 35 36  1  0
 36 37  2  0
 37 38  1  0
 38 39  2  0
 39  2  1  0
 13  9  1  0
 26 14  1  0
 33 28  1  0
 39 34  1  0
 25 20  1  0
M  END
>  <Title>  (742) 
idABAPgen13

$$$$

     RDKit          2D

  8  9  0  0  0  0  0  0  0  0999 V2000
    1.5000    0.0000    0.0000 C   0  0  0  0  0  0  0  0  0  0  0  0
    0.7500   -1.2990    0.0000 C   0  0  0  0  0  0  0  0  0  0  0  0
   -0.7500   -1.2990    0.0000 C   0  0  0  0  0  0  0  0  0  0  0  0
   -1.5000    0.0000    0.0000 C   0  0  0  0  0  0  0  0  0  0  0  0
   -2.7990    0.7500    0.0000 C   0  0  0  0  0  0  0  0  0  0  0  0
   -2.0490    2.0490    0.0000 C   0  0  0  0  0  0  0  0  0  0  0  0
   -0.7500    1.2990    0.0000 C   0  0  0  0  0  0  0  0  0  0  0  0
    0.7500    1.2990    0.0000 C   0  0  0  0  0  0  0  0  0  0  0  0
  1  2  2  0
  2  3  1  0
  3  4  2  0
  4  5  1  0
  5  6  2  0
  6  7  1  0
  7  8  2  0
  8  1  1  0
  7  4  1  0
M  END
>  <Title>  (743) 
idABAQgen13

$$$$

     RDKit          2D

 34 38  0  0  0  0  0  0  0  0999 V2000
   -3.1771   -5.9156    0.0000 C   0  0  0  0  0  0  0  0  0  0  0  0
   -1.9635   -5.0339    0.0000 C   0  0  0  0  0  0  0  0  0  0  0  0
   -0.7500   -5.9156    0.0000 C   0  0  0  0  0  0  0  0  0  0  0  0
    0.7500   -5.9156    0.0000 C   0  0  0  0  0  0  0  0  0  0  0  0
    1.9635   -5.0339    0.0000 C   0  0  0  0  0  0  0  0  0  0  0  0
    2.4271   -3.6073    0.0000 C   0  0  0  0  0  0  0  0  0  0  0  0
    1.9635   -2.1807    0.0000 C   0  0  0  0  0  0  0  0  0  0  0  0
    3.1771   -1.2990    0.0000 C   0  0  0  0  0  0  0  0  0  0  0  0
    3.0203    0.1927    0.0000 O   0  0  0  0  0  0  0  0  0  0  0  0
    4.5474   -1.9091    0.0000 N   0  0  0  0  0  0  0  0  0  0  0  0
    5.7609   -1.0275    0.0000 C   0  0  0  0  0  0  0  0  0  0  0  0
    5.7609    0.4725    0.0000 N   0  0  0  0  0  0  0  0  0  0  0  0
    7.1875    0.9361    0.0000 N   0  0  0  0  0  0  0  0  0  0  0  0
    8.0692   -0.2775    0.0000 N   0  0  0  0  0  0  0  0  0  0  0  0
    7.1875   -1.4910    0.0000 N   0  0  0  0  0  0  0  0  0  0  0  0
    7.6510   -2.9176    0.0000 N   0  0  0  0  0  0  0  0  0  0  0  0
    9.1374   -3.1189    0.0000 C   0  0  0  0  0  0  0  0  0  0  0  0
    9.9068   -4.4066    0.0000 N   0  0  0  0  0  0  0  0  0  0  0  0
    9.3797   -5.8110    0.0000 N   0  0  0  0  0  0  0  0  0  0  0  0
    7.9531   -6.2745    0.0000 N   0  0  0  0  0  0  0  0  0  0  0  0
    6.7013   -5.4481    0.0000 N   0  0  0  0  0  0  0  0  0  0  0  0
    6.5668   -3.9542    0.0000 N   0  0  0  0  0  0  0  0  0  0  0  0
    0.7500   -1.2990    0.0000 C   0  0  0  0  0  0  0  0  0  0  0  0
    1.5000    0.0000    0.0000 C   0  0  0  0  0  0  0  0  0  0  0  0
    0.7500    1.2990    0.0000 C   0  0  0  0  0  0  0  0  0  0  0  0
   -0.7500    1.2990    0.0000 C   0  0  0  0  0  0  0  0  0  0  0  0
   -1.5000    0.0000    0.0000 C   0  0  0  0  0  0  0  0  0  0  0  0
   -0.7500   -1.2990    0.0000 C   0  0  0  0  0  0  0  0  0  0  0  0
   -1.9635   -2.1807    0.0000 C   0  0  0  0  0  0  0  0  0  0  0  0
   -2.9672   -1.0660    0.0000 C   0  0  0  0  0  0  0  0  0  0  0  0
   -4.4344   -1.3779    0.0000 C   0  0  0  0  0  0  0  0  0  0  0  0
   -4.8980   -2.8045    0.0000 C   0  0  0  0  0  0  0  0  0  0  0  0
   -3.8943   -3.9192    0.0000 C   0  0  0  0  0  0  0  0  0  0  0  0
   -2.4271   -3.6073    0.0000 C   0  0  0  0  0  0  0  0  0  0  0  0
  1  2  1  0
  2  3  1  0
  3  4  1  0
  4  5  1  0
  5  6  1  0
  6  7  1  0
  7  8  1  0
  8  9  2  0
  8 10  1  0
 10 11  1  0
 11 12  2  0
 12 13  1  0
 13 14  2  0
 14 15  1  0
 15 16  1  0
 16 17  1  0
 17 18  2  0
 18 19  1  0
 19 20  2  0
 20 21  1  0
 21 22  2  0
  7 23  1  0
 23 24  2  0
 24 25  1  0
 25 26  2  0
 26 27  1  0
 27 28  2  0
 28 29  1  0
 29 30  2  0
 30 31  1  0
 31 32  2  0
 32 33  1  0
 33 34  2  0
 34  2  1  0
 15 11  1  0
 22 16  1  0
 28 23  1  0
 34 29  1  0
M  END
>  <Title>  (744) 
idABARgen13

$$$$

     RDKit          2D

 78 79  0  0  0  0  0  0  0  0999 V2000
   -2.2145   -1.0648    0.0000 C   0  0  0  0  0  0  0  0  0  0  0  0
   -2.4930    0.4091    0.0000 C   0  0  0  0  0  0  0  0  0  0  0  0
   -3.9774    0.1934    0.0000 C   0  0  0  0  0  0  0  0  0  0  0  0
   -5.4748    0.1043    0.0000 C   0  0  0  0  0  0  0  0  0  0  0  0
   -6.9743    0.1425    0.0000 C   0  0  0  0  0  0  0  0  0  0  0  0
   -8.4652    0.3077    0.0000 C   0  0  0  0  0  0  0  0  0  0  0  0
   -9.9367    0.5988    0.0000 C   0  0  0  0  0  0  0  0  0  0  0  0
  -11.3782    1.0136    0.0000 C   0  0  0  0  0  0  0  0  0  0  0  0
  -12.7793    1.5492    0.0000 C   0  0  0  0  0  0  0  0  0  0  0  0
  -14.1300    2.2016    0.0000 C   0  0  0  0  0  0  0  0  0  0  0  0
  -15.4204    2.9663    0.0000 C   0  0  0  0  0  0  0  0  0  0  0  0
  -16.6414    3.8376    0.0000 C   0  0  0  0  0  0  0  0  0  0  0  0
  -17.7841    4.8094    0.0000 C   0  0  0  0  0  0  0  0  0  0  0  0
  -18.8402    5.8745    0.0000 C   0  0  0  0  0  0  0  0  0  0  0  0
  -19.8022    7.0254    0.0000 C   0  0  0  0  0  0  0  0  0  0  0  0
  -20.6632    8.2537    0.0000 C   0  0  0  0  0  0  0  0  0  0  0  0
  -21.4168    9.5506    0.0000 C   0  0  0  0  0  0  0  0  0  0  0  0
  -22.0578   10.9068    0.0000 C   0  0  0  0  0  0  0  0  0  0  0  0
  -22.5815   12.3124    0.0000 C   0  0  0  0  0  0  0  0  0  0  0  0
  -22.9840   13.7574    0.0000 C   0  0  0  0  0  0  0  0  0  0  0  0
  -23.2626   15.2313    0.0000 C   0  0  0  0  0  0  0  0  0  0  0  0
  -23.4152   16.7235    0.0000 C   0  0  0  0  0  0  0  0  0  0  0  0
  -23.4406   18.2233    0.0000 C   0  0  0  0  0  0  0  0  0  0  0  0
  -23.3388   19.7198    0.0000 C   0  0  0  0  0  0  0  0  0  0  0  0
  -23.1105   21.2024    0.0000 C   0  0  0  0  0  0  0  0  0  0  0  0
  -22.7572   22.6602    0.0000 C   0  0  0  0  0  0  0  0  0  0  0  0
  -22.2816   24.0828    0.0000 C   0  0  0  0  0  0  0  0  0  0  0  0
  -21.6870   25.4599    0.0000 C   0  0  0  0  0  0  0  0  0  0  0  0
  -20.9778   26.7817    0.0000 C   0  0  0  0  0  0  0  0  0  0  0  0
  -20.1591   28.0385    0.0000 C   0  0  0  0  0  0  0  0  0  0  0  0
  -19.2367   29.2214    0.0000 C   0  0  0  0  0  0  0  0  0  0  0  0
  -18.2174   30.3218    0.0000 C   0  0  0  0  0  0  0  0  0  0  0  0
  -17.1083   31.3318    0.0000 C   0  0  0  0  0  0  0  0  0  0  0  0
  -15.9177   32.2441    0.0000 C   0  0  0  0  0  0  0  0  0  0  0  0
  -14.6539   33.0521    0.0000 C   0  0  0  0  0  0  0  0  0  0  0  0
  -13.3262   33.7501    0.0000 C   0  0  0  0  0  0  0  0  0  0  0  0
  -11.9440   34.3329    0.0000 C   0  0  0  0  0  0  0  0  0  0  0  0
  -10.5175   34.7964    0.0000 C   0  0  0  0  0  0  0  0  0  0  0  0
   -9.0567   35.1373    0.0000 C   0  0  0  0  0  0  0  0  0  0  0  0
   -7.5723   35.3531    0.0000 C   0  0  0  0  0  0  0  0  0  0  0  0
   -6.0749   35.4422    0.0000 C   0  0  0  0  0  0  0  0  0  0  0  0
   -4.5754   35.4040    0.0000 C   0  0  0  0  0  0  0  0  0  0  0  0
   -3.0846   35.2387    0.0000 C   0  0  0  0  0  0  0  0  0  0  0  0
   -1.6131   34.9477    0.0000 C   0  0  0  0  0  0  0  0  0  0  0  0
   -0.1716   34.5329    0.0000 C   0  0  0  0  0  0  0  0  0  0  0  0
    1.2296   33.9973    0.0000 C   0  0  0  0  0  0  0  0  0  0  0  0
    2.5802   33.3448    0.0000 C   0  0  0  0  0  0  0  0  0  0  0  0
    3.8707   32.5802    0.0000 C   0  0  0  0  0  0  0  0  0  0  0  0
    5.0917   31.7088    0.0000 C   0  0  0  0  0  0  0  0  0  0  0  0
    6.2343   30.7371    0.0000 C   0  0  0  0  0  0  0  0  0  0  0  0
    7.2905   29.6719    0.0000 C   0  0  0  0  0  0  0  0  0  0  0  0
    8.2525   28.5210    0.0000 C   0  0  0  0  0  0  0  0  0  0  0  0
    9.1134   27.2927    0.0000 C   0  0  0  0  0  0  0  0  0  0  0  0
    9.8671   25.9958    0.0000 C   0  0  0  0  0  0  0  0  0  0  0  0
   10.5081   24.6396    0.0000 C   0  0  0  0  0  0  0  0  0  0  0  0
   11.0317   23.2340    0.0000 C   0  0  0  0  0  0  0  0  0  0  0  0
   11.4343   21.7890    0.0000 C   0  0  0  0  0  0  0  0  0  0  0  0
   11.7129   20.3151    0.0000 C   0  0  0  0  0  0  0  0  0  0  0  0
   11.8654   18.8229    0.0000 C   0  0  0  0  0  0  0  0  0  0  0  0
   11.8909   17.3231    0.0000 C   0  0  0  0  0  0  0  0  0  0  0  0
   11.7891   15.8266    0.0000 C   0  0  0  0  0  0  0  0  0  0  0  0
   11.5607   14.3441    0.0000 C   0  0  0  0  0  0  0  0  0  0  0  0
   11.2075   12.8863    0.0000 C   0  0  0  0  0  0  0  0  0  0  0  0
   10.7318   11.4637    0.0000 C   0  0  0  0  0  0  0  0  0  0  0  0
   10.1373   10.0865    0.0000 C   0  0  0  0  0  0  0  0  0  0  0  0
    9.4281    8.7648    0.0000 C   0  0  0  0  0  0  0  0  0  0  0  0
    8.6094    7.5079    0.0000 C   0  0  0  0  0  0  0  0  0  0  0  0
    7.6870    6.3250    0.0000 C   0  0  0  0  0  0  0  0  0  0  0  0
    6.6676    5.2246    0.0000 C   0  0  0  0  0  0  0  0  0  0  0  0
    5.5586    4.2147    0.0000 C   0  0  0  0  0  0  0  0  0  0  0  0
    4.3679    3.3024    0.0000 C   0  0  0  0  0  0  0  0  0  0  0  0
    3.1042    2.4943    0.0000 C   0  0  0  0  0  0  0  0  0  0  0  0
    1.7764    1.7964    0.0000 C   0  0  0  0  0  0  0  0  0  0  0  0
    0.3943    1.2135    0.0000 C   0  0  0  0  0  0  0  0  0  0  0  0
    1.2760    0.0000    0.0000 C   0  0  0  0  0  0  0  0  0  0  0  0
    0.3943   -1.2135    0.0000 C   0  0  0  0  0  0  0  0  0  0  0  0
   -1.0323   -0.7500    0.0000 C   0  0  0  0  0  0  0  0  0  0  0  0
   -1.0323    0.7500    0.0000 C   0  0  0  0  0  0  0  0  0  0  0  0
  1  2  1  0
  2  3  1  0
  3  4  1  0
  4  5  1  0
  5  6  1  0
  6  7  1  0
  7  8  1  0
  8  9  1  0
  9 10  1  0
 10 11  1  0
 11 12  1  0
 12 13  1  0
 13 14  1  0
 14 15  1  0
 15 16  1  0
 16 17  1  0
 17 18  1  0
 18 19  1  0
 19 20  1  0
 20 21  1  0
 21 22  1  0
 22 23  1  0
 23 24  1  0
 24 25  1  0
 25 26  1  0
 26 27  1  0
 27 28  1  0
 28 29  1  0
 29 30  1  0
 30 31  1  0
 31 32  1  0
 32 33  1  0
 33 34  1  0
 34 35  1  0
 35 36  1  0
 36 37  1  0
 37 38  1  0
 38 39  1  0
 39 40  1  0
 40 41  1  0
 41 42  1  0
 42 43  1  0
 43 44  1  0
 44 45  1  0
 45 46  1  0
 46 47  1  0
 47 48  1  0
 48 49  1  0
 49 50  1  0
 50 51  1  0
 51 52  2  0
 52 53  1  0
 53 54  2  0
 54 55  1  0
 55 56  2  0
 56 57  1  0
 57 58  2  0
 58 59  1  0
 59 60  2  0
 60 61  1  0
 61 62  2  0
 62 63  1  0
 63 64  2  0
 64 65  1  0
 65 66  2  0
 66 67  1  0
 67 68  2  0
 68 69  1  0
 69 70  2  0
 70 71  1  0
 71 72  2  0
 72 73  1  0
 73 74  2  0
 74 75  1  0
 75 76  2  0
 76 77  1  0
 77 78  2  0
 78  2  1  0
 78 74  1  0
M  END
>  <Title>  (745) 
idABASgen13

$$$$

     RDKit          2D

 31 35  0  0  0  0  0  0  0  0999 V2000
   -3.0000   -2.5981    0.0000 C   0  0  0  0  0  0  0  0  0  0  0  0
   -1.5000   -2.5981    0.0000 C   0  0  0  0  0  0  0  0  0  0  0  0
   -0.7500   -3.8971    0.0000 C   0  0  0  0  0  0  0  0  0  0  0  0
    0.7500   -3.8971    0.0000 C   0  0  0  0  0  0  0  0  0  0  0  0
    1.5000   -2.5981    0.0000 C   0  0  0  0  0  0  0  0  0  0  0  0
    3.0000   -2.5981    0.0000 C   0  0  0  0  0  0  0  0  0  0  0  0
    3.7500   -1.2990    0.0000 O   0  0  0  0  0  0  0  0  0  0  0  0
    3.7500   -3.8971    0.0000 N   0  0  0  0  0  0  0  0  0  0  0  0
    5.2500   -3.8971    0.0000 C   0  0  0  0  0  0  0  0  0  0  0  0
    6.1317   -2.6836    0.0000 N   0  0  0  0  0  0  0  0  0  0  0  0
    7.5583   -3.1471    0.0000 N   0  0  0  0  0  0  0  0  0  0  0  0
    7.5583   -4.6471    0.0000 N   0  0  0  0  0  0  0  0  0  0  0  0
    6.1317   -5.1106    0.0000 N   0  0  0  0  0  0  0  0  0  0  0  0
    5.6682   -6.5372    0.0000 N   0  0  0  0  0  0  0  0  0  0  0  0
    6.5498   -7.7508    0.0000 C   0  0  0  0  0  0  0  0  0  0  0  0
    5.6682   -8.9643    0.0000 C   0  0  0  0  0  0  0  0  0  0  0  0
    4.2416   -8.5008    0.0000 N   0  0  0  0  0  0  0  0  0  0  0  0
    3.0280   -9.3824    0.0000 C   0  0  0  0  0  0  0  0  0  0  0  0
    1.6577   -8.7723    0.0000 N   0  0  0  0  0  0  0  0  0  0  0  0
    0.4442   -9.6540    0.0000 N   0  0  0  0  0  0  0  0  0  0  0  0
    0.6010  -11.1458    0.0000 N   0  0  0  0  0  0  0  0  0  0  0  0
    1.9713  -11.7559    0.0000 N   0  0  0  0  0  0  0  0  0  0  0  0
    3.1848  -10.8742    0.0000 N   0  0  0  0  0  0  0  0  0  0  0  0
    4.2416   -7.0008    0.0000 C   0  0  0  0  0  0  0  0  0  0  0  0
    3.0280   -6.1191    0.0000 O   0  0  0  0  0  0  0  0  0  0  0  0
    0.7500   -1.2990    0.0000 C   0  0  0  0  0  0  0  0  0  0  0  0
    1.5000    0.0000    0.0000 C   0  0  0  0  0  0  0  0  0  0  0  0
    0.7500    1.2990    0.0000 C   0  0  0  0  0  0  0  0  0  0  0  0
   -0.7500    1.2990    0.0000 C   0  0  0  0  0  0  0  0  0  0  0  0
   -1.5000    0.0000    0.0000 C   0  0  0  0  0  0  0  0  0  0  0  0
   -0.7500   -1.2990    0.0000 C   0  0  0  0  0  0  0  0  0  0  0  0
  1  2  1  0
  2  3  1  0
  3  4  2  0
  4  5  1  0
  5  6  1  0
  6  7  2  0
  6  8  1  0
  8  9  1  0
  9 10  2  0
 10 11  1  0
 11 12  2  0
 12 13  1  0
 13 14  1  0
 14 15  1  0
 15 16  1  0
 16 17  1  0
 17 18  1  0
 18 19  2  0
 19 20  1  0
 20 21  2  0
 21 22  1  0
 22 23  2  0
 17 24  1  0
 24 25  2  0
  5 26  1  0
 26 27  2  0
 27 28  1  0
 28 29  2  0
 29 30  1  0
 30 31  2  0
 31  2  1  0
 13  9  1  0
 24 14  1  0
 31 26  1  0
 23 18  1  0
M  END
>  <Title>  (746) 
idABATgen13

$$$$

     RDKit          2D

 53 60  0  0  0  0  0  0  0  0999 V2000
    3.1097   -7.2078    0.0000 C   0  0  0  0  0  0  0  0  0  0  0  0
    2.0490   -6.1471    0.0000 C   0  0  0  0  0  0  0  0  0  0  0  0
    2.7990   -4.8481    0.0000 C   0  0  0  0  0  0  0  0  0  0  0  0
    2.7990   -3.3481    0.0000 C   0  0  0  0  0  0  0  0  0  0  0  0
    2.0490   -2.0490    0.0000 C   0  0  0  0  0  0  0  0  0  0  0  0
    3.1097   -0.9884    0.0000 C   0  0  0  0  0  0  0  0  0  0  0  0
    2.7215    0.4605    0.0000 O   0  0  0  0  0  0  0  0  0  0  0  0
    4.5586   -1.3766    0.0000 N   0  0  0  0  0  0  0  0  0  0  0  0
    5.6192   -0.3159    0.0000 C   0  0  0  0  0  0  0  0  0  0  0  0
    5.3846    1.1656    0.0000 N   0  0  0  0  0  0  0  0  0  0  0  0
    6.7211    1.8466    0.0000 N   0  0  0  0  0  0  0  0  0  0  0  0
    7.7818    0.7859    0.0000 N   0  0  0  0  0  0  0  0  0  0  0  0
    7.1008   -0.5506    0.0000 N   0  0  0  0  0  0  0  0  0  0  0  0
    7.7818   -1.8871    0.0000 C   0  0  0  0  0  0  0  0  0  0  0  0
    6.9648   -3.1451    0.0000 C   0  0  0  0  0  0  0  0  0  0  0  0
    7.6458   -4.4816    0.0000 C   0  0  0  0  0  0  0  0  0  0  0  0
    9.1437   -4.5601    0.0000 C   0  0  0  0  0  0  0  0  0  0  0  0
    9.9607   -3.3021    0.0000 C   0  0  0  0  0  0  0  0  0  0  0  0
   11.4586   -3.3806    0.0000 C   0  0  0  0  0  0  0  0  0  0  0  0
   12.2756   -2.1226    0.0000 O   0  0  0  0  0  0  0  0  0  0  0  0
   12.1396   -4.7171    0.0000 N   0  0  0  0  0  0  0  0  0  0  0  0
   13.6376   -4.7956    0.0000 C   0  0  0  0  0  0  0  0  0  0  0  0
   14.3186   -6.1321    0.0000 N   0  0  0  0  0  0  0  0  0  0  0  0
   15.8165   -6.2107    0.0000 N   0  0  0  0  0  0  0  0  0  0  0  0
   16.6335   -4.9526    0.0000 N   0  0  0  0  0  0  0  0  0  0  0  0
   15.9525   -3.6161    0.0000 N   0  0  0  0  0  0  0  0  0  0  0  0
   14.4545   -3.5376    0.0000 N   0  0  0  0  0  0  0  0  0  0  0  0
    9.2797   -1.9656    0.0000 C   0  0  0  0  0  0  0  0  0  0  0  0
   10.0967   -0.7076    0.0000 O   0  0  0  0  0  0  0  0  0  0  0  0
    0.7500   -1.2990    0.0000 C   0  0  0  0  0  0  0  0  0  0  0  0
    1.5000    0.0000    0.0000 C   0  0  0  0  0  0  0  0  0  0  0  0
    0.7500    1.2990    0.0000 C   0  0  0  0  0  0  0  0  0  0  0  0
   -0.7500    1.2990    0.0000 C   0  0  0  0  0  0  0  0  0  0  0  0
   -1.5000    0.0000    0.0000 C   0  0  0  0  0  0  0  0  0  0  0  0
   -0.7500   -1.2990    0.0000 C   0  0  0  0  0  0  0  0  0  0  0  0
   -2.0490   -2.0490    0.0000 C   0  0  0  0  0  0  0  0  0  0  0  0
   -2.7990   -0.7500    0.0000 C   0  0  0  0  0  0  0  0  0  0  0  0
   -4.2990   -0.7500    0.0000 C   0  0  0  0  0  0  0  0  0  0  0  0
   -5.0490   -2.0490    0.0000 C   0  0  0  0  0  0  0  0  0  0  0  0
   -4.2990   -3.3481    0.0000 C   0  0  0  0  0  0  0  0  0  0  0  0
   -2.7990   -3.3481    0.0000 C   0  0  0  0  0  0  0  0  0  0  0  0
   -2.7990   -4.8481    0.0000 C   0  0  0  0  0  0  0  0  0  0  0  0
   -4.2990   -4.8481    0.0000 C   0  0  0  0  0  0  0  0  0  0  0  0
   -5.0490   -6.1471    0.0000 C   0  0  0  0  0  0  0  0  0  0  0  0
   -4.2990   -7.4462    0.0000 C   0  0  0  0  0  0  0  0  0  0  0  0
   -2.7990   -7.4462    0.0000 C   0  0  0  0  0  0  0  0  0  0  0  0
   -2.0490   -6.1471    0.0000 C   0  0  0  0  0  0  0  0  0  0  0  0
   -0.7500   -6.8971    0.0000 C   0  0  0  0  0  0  0  0  0  0  0  0
   -1.5000   -8.1962    0.0000 C   0  0  0  0  0  0  0  0  0  0  0  0
   -0.7500   -9.4952    0.0000 C   0  0  0  0  0  0  0  0  0  0  0  0
    0.7500   -9.4952    0.0000 C   0  0  0  0  0  0  0  0  0  0  0  0
    1.5000   -8.1962    0.0000 C   0  0  0  0  0  0  0  0  0  0  0  0
    0.7500   -6.8971    0.0000 C   0  0  0  0  0  0  0  0  0  0  0  0
  1  2  1  0
  2  3  1  0
  3  4  2  0
  4  5  1  0
  5  6  1  0
  6  7  2  0
  6  8  1  0
  8  9  1  0
  9 10  2  0
 10 11  1  0
 11 12  2  0
 12 13  1  0
 13 14  1  0
 14 15  2  0
 15 16  1  0
 16 17  1  0
 17 18  1  0
 18 19  1  0
 19 20  2  0
 19 21  1  0
 21 22  1  0
 22 23  2  0
 23 24  1  0
 24 25  2  0
 25 26  1  0
 26 27  2  0
 18 28  1  0
 28 29  2  0
  5 30  1  0
 30 31  2  0
 31 32  1  0
 32 33  2  0
 33 34  1  0
 34 35  2  0
 35 36  1  0
 36 37  2  0
 37 38  1  0
 38 39  2  0
 39 40  1  0
 40 41  2  0
 41 42  1  0
 42 43  2  0
 43 44  1  0
 44 45  2  0
 45 46  1  0
 46 47  2  0
 47 48  1  0
 48 49  2  0
 49 50  1  0
 50 51  2  0
 51 52  1  0
 52 53  2  0
 53  2  1  0
 13  9  1  0
 28 14  1  0
 35 30  1  0
 41 36  1  0
 47 42  1  0
 53 48  1  0
 27 22  1  0
M  END
>  <Title>  (747) 
idABAUgen13

$$$$

     RDKit          2D

 69 70  0  0  0  0  0  0  0  0999 V2000
   -2.2444   -1.0523    0.0000 C   0  0  0  0  0  0  0  0  0  0  0  0
   -2.4969    0.4263    0.0000 C   0  0  0  0  0  0  0  0  0  0  0  0
   -3.9860    0.2455    0.0000 C   0  0  0  0  0  0  0  0  0  0  0  0
   -5.4856    0.2093    0.0000 C   0  0  0  0  0  0  0  0  0  0  0  0
   -6.9816    0.3179    0.0000 C   0  0  0  0  0  0  0  0  0  0  0  0
   -8.4602    0.5705    0.0000 C   0  0  0  0  0  0  0  0  0  0  0  0
   -9.9075    0.9645    0.0000 C   0  0  0  0  0  0  0  0  0  0  0  0
  -11.3101    1.4964    0.0000 C   0  0  0  0  0  0  0  0  0  0  0  0
  -12.6547    2.1612    0.0000 C   0  0  0  0  0  0  0  0  0  0  0  0
  -13.9289    2.9527    0.0000 C   0  0  0  0  0  0  0  0  0  0  0  0
  -15.1208    3.8634    0.0000 C   0  0  0  0  0  0  0  0  0  0  0  0
  -16.2192    4.8849    0.0000 C   0  0  0  0  0  0  0  0  0  0  0  0
  -17.2139    6.0077    0.0000 C   0  0  0  0  0  0  0  0  0  0  0  0
  -18.0955    7.2212    0.0000 C   0  0  0  0  0  0  0  0  0  0  0  0
  -18.8560    8.5142    0.0000 C   0  0  0  0  0  0  0  0  0  0  0  0
  -19.4881    9.8745    0.0000 C   0  0  0  0  0  0  0  0  0  0  0  0
  -19.9859   11.2895    0.0000 C   0  0  0  0  0  0  0  0  0  0  0  0
  -20.3449   12.7459    0.0000 C   0  0  0  0  0  0  0  0  0  0  0  0
  -20.5616   14.2301    0.0000 C   0  0  0  0  0  0  0  0  0  0  0  0
  -20.6341   15.7284    0.0000 C   0  0  0  0  0  0  0  0  0  0  0  0
  -20.5616   17.2266    0.0000 C   0  0  0  0  0  0  0  0  0  0  0  0
  -20.3449   18.7109    0.0000 C   0  0  0  0  0  0  0  0  0  0  0  0
  -19.9859   20.1673    0.0000 C   0  0  0  0  0  0  0  0  0  0  0  0
  -19.4881   21.5823    0.0000 C   0  0  0  0  0  0  0  0  0  0  0  0
  -18.8560   22.9426    0.0000 C   0  0  0  0  0  0  0  0  0  0  0  0
  -18.0955   24.2355    0.0000 C   0  0  0  0  0  0  0  0  0  0  0  0
  -17.2139   25.4491    0.0000 C   0  0  0  0  0  0  0  0  0  0  0  0
  -16.2192   26.5718    0.0000 C   0  0  0  0  0  0  0  0  0  0  0  0
  -15.1208   27.5934    0.0000 C   0  0  0  0  0  0  0  0  0  0  0  0
  -13.9289   28.5041    0.0000 C   0  0  0  0  0  0  0  0  0  0  0  0
  -12.6547   29.2956    0.0000 C   0  0  0  0  0  0  0  0  0  0  0  0
  -11.3101   29.9604    0.0000 C   0  0  0  0  0  0  0  0  0  0  0  0
   -9.9075   30.4923    0.0000 C   0  0  0  0  0  0  0  0  0  0  0  0
   -8.4602   30.8863    0.0000 C   0  0  0  0  0  0  0  0  0  0  0  0
   -6.9816   31.1389    0.0000 C   0  0  0  0  0  0  0  0  0  0  0  0
   -5.4856   31.2475    0.0000 C   0  0  0  0  0  0  0  0  0  0  0  0
   -3.9860   31.2113    0.0000 C   0  0  0  0  0  0  0  0  0  0  0  0
   -2.4969   31.0305    0.0000 C   0  0  0  0  0  0  0  0  0  0  0  0
   -1.0323   30.7068    0.0000 C   0  0  0  0  0  0  0  0  0  0  0  0
    0.3943   30.2433    0.0000 C   0  0  0  0  0  0  0  0  0  0  0  0
    1.7695   29.6442    0.0000 C   0  0  0  0  0  0  0  0  0  0  0  0
    3.0804   28.9152    0.0000 C   0  0  0  0  0  0  0  0  0  0  0  0
    4.3149   28.0631    0.0000 C   0  0  0  0  0  0  0  0  0  0  0  0
    5.4614   27.0959    0.0000 C   0  0  0  0  0  0  0  0  0  0  0  0
    6.5092   26.0225    0.0000 C   0  0  0  0  0  0  0  0  0  0  0  0
    7.4484   24.8530    0.0000 C   0  0  0  0  0  0  0  0  0  0  0  0
    8.2705   23.5983    0.0000 C   0  0  0  0  0  0  0  0  0  0  0  0
    8.9675   22.2701    0.0000 C   0  0  0  0  0  0  0  0  0  0  0  0
    9.5332   20.8808    0.0000 C   0  0  0  0  0  0  0  0  0  0  0  0
    9.9621   19.4434    0.0000 C   0  0  0  0  0  0  0  0  0  0  0  0
   10.2503   17.9714    0.0000 C   0  0  0  0  0  0  0  0  0  0  0  0
   10.3951   16.4784    0.0000 C   0  0  0  0  0  0  0  0  0  0  0  0
   10.3951   14.9784    0.0000 C   0  0  0  0  0  0  0  0  0  0  0  0
   10.2503   13.4854    0.0000 C   0  0  0  0  0  0  0  0  0  0  0  0
    9.9621   12.0133    0.0000 C   0  0  0  0  0  0  0  0  0  0  0  0
    9.5332   10.5760    0.0000 C   0  0  0  0  0  0  0  0  0  0  0  0
    8.9675    9.1867    0.0000 C   0  0  0  0  0  0  0  0  0  0  0  0
    8.2705    7.8585    0.0000 C   0  0  0  0  0  0  0  0  0  0  0  0
    7.4484    6.6038    0.0000 C   0  0  0  0  0  0  0  0  0  0  0  0
    6.5092    5.4343    0.0000 C   0  0  0  0  0  0  0  0  0  0  0  0
    5.4614    4.3609    0.0000 C   0  0  0  0  0  0  0  0  0  0  0  0
    4.3149    3.3936    0.0000 C   0  0  0  0  0  0  0  0  0  0  0  0
    3.0804    2.5415    0.0000 C   0  0  0  0  0  0  0  0  0  0  0  0
    1.7695    1.8126    0.0000 C   0  0  0  0  0  0  0  0  0  0  0  0
    0.3943    1.2135    0.0000 C   0  0  0  0  0  0  0  0  0  0  0  0
    1.2760    0.0000    0.0000 C   0  0  0  0  0  0  0  0  0  0  0  0
    0.3943   -1.2135    0.0000 C   0  0  0  0  0  0  0  0  0  0  0  0
   -1.0323   -0.7500    0.0000 C   0  0  0  0  0  0  0  0  0  0  0  0
   -1.0323    0.7500    0.0000 C   0  0  0  0  0  0  0  0  0  0  0  0
  1  2  1  0
  2  3  1  0
  3  4  1  0
  4  5  1  0
  5  6  1  0
  6  7  1  0
  7  8  1  0
  8  9  1  0
  9 10  1  0
 10 11  1  0
 11 12  1  0
 12 13  1  0
 13 14  1  0
 14 15  1  0
 15 16  1  0
 16 17  1  0
 17 18  1  0
 18 19  1  0
 19 20  1  0
 20 21  1  0
 21 22  1  0
 22 23  1  0
 23 24  1  0
 24 25  1  0
 25 26  1  0
 26 27  1  0
 27 28  1  0
 28 29  1  0
 29 30  1  0
 30 31  1  0
 31 32  1  0
 32 33  1  0
 33 34  1  0
 34 35  1  0
 35 36  1  0
 36 37  1  0
 37 38  1  0
 38 39  1  0
 39 40  1  0
 40 41  1  0
 41 42  1  0
 42 43  1  0
 43 44  1  0
 44 45  2  0
 45 46  1  0
 46 47  2  0
 47 48  1  0
 48 49  2  0
 49 50  1  0
 50 51  2  0
 51 52  1  0
 52 53  2  0
 53 54  1  0
 54 55  2  0
 55 56  1  0
 56 57  2  0
 57 58  1  0
 58 59  2  0
 59 60  1  0
 60 61  2  0
 61 62  1  0
 62 63  2  0
 63 64  1  0
 64 65  2  0
 65 66  1  0
 66 67  2  0
 67 68  1  0
 68 69  2  0
 69  2  1  0
 69 65  1  0
M  END
>  <Title>  (748) 
idABAVgen13

$$$$

     RDKit          2D

 14 15  0  0  0  0  0  0  0  0999 V2000
    5.0260    1.2990    0.0000 C   0  0  0  0  0  0  0  0  0  0  0  0
    3.5260    1.2990    0.0000 C   0  0  0  0  0  0  0  0  0  0  0  0
    2.7760    2.5981    0.0000 O   0  0  0  0  0  0  0  0  0  0  0  0
    2.7760    0.0000    0.0000 N   0  0  0  0  0  0  0  0  0  0  0  0
    1.2760    0.0000    0.0000 C   0  0  0  0  0  0  0  0  0  0  0  0
    0.3943    1.2135    0.0000 N   0  0  0  0  0  0  0  0  0  0  0  0
   -1.0323    0.7500    0.0000 N   0  0  0  0  0  0  0  0  0  0  0  0
   -1.0323   -0.7500    0.0000 N   0  0  0  0  0  0  0  0  0  0  0  0
    0.3943   -1.2135    0.0000 N   0  0  0  0  0  0  0  0  0  0  0  0
    0.8578   -2.6401    0.0000 C   0  0  0  0  0  0  0  0  0  0  0  0
   -0.0239   -3.8536    0.0000 C   0  0  0  0  0  0  0  0  0  0  0  0
    0.8578   -5.0672    0.0000 C   0  0  0  0  0  0  0  0  0  0  0  0
    2.2844   -4.6036    0.0000 C   0  0  0  0  0  0  0  0  0  0  0  0
    2.2844   -3.1036    0.0000 C   0  0  0  0  0  0  0  0  0  0  0  0
  1  2  1  0
  2  3  2  0
  2  4  1  0
  4  5  1  0
  5  6  2  0
  6  7  1  0
  7  8  2  0
  8  9  1  0
  9 10  1  0
 10 11  2  0
 11 12  1  0
 12 13  1  0
 13 14  2  0
  9  5  1  0
 14 10  1  0
M  END
>  <Title>  (749) 
idABAWgen13

$$$$

     RDKit          2D

 14 15  0  0  0  0  0  0  0  0999 V2000
    5.7760   -2.5981    0.0000 C   0  0  0  0  0  0  0  0  0  0  0  0
    5.0260   -1.2990    0.0000 C   0  0  0  0  0  0  0  0  0  0  0  0
    3.5260   -1.2990    0.0000 C   0  0  0  0  0  0  0  0  0  0  0  0
    2.7760    0.0000    0.0000 C   0  0  0  0  0  0  0  0  0  0  0  0
    1.2760    0.0000    0.0000 C   0  0  0  0  0  0  0  0  0  0  0  0
    0.3943    1.2135    0.0000 N   0  0  0  0  0  0  0  0  0  0  0  0
   -1.0323    0.7500    0.0000 N   0  0  0  0  0  0  0  0  0  0  0  0
   -1.0323   -0.7500    0.0000 N   0  0  0  0  0  0  0  0  0  0  0  0
    0.3943   -1.2135    0.0000 N   0  0  0  0  0  0  0  0  0  0  0  0
    0.8578   -2.6401    0.0000 C   0  0  0  0  0  0  0  0  0  0  0  0
    2.2844   -3.1036    0.0000 C   0  0  0  0  0  0  0  0  0  0  0  0
    2.2844   -4.6036    0.0000 C   0  0  0  0  0  0  0  0  0  0  0  0
    0.8578   -5.0672    0.0000 C   0  0  0  0  0  0  0  0  0  0  0  0
   -0.0239   -3.8536    0.0000 C   0  0  0  0  0  0  0  0  0  0  0  0
  1  2  1  0
  2  3  1  0
  3  4  1  0
  4  5  1  0
  5  6  2  0
  6  7  1  0
  7  8  2  0
  8  9  1  0
  9 10  1  0
 10 11  2  0
 11 12  1  0
 12 13  1  0
 13 14  2  0
  9  5  1  0
 14 10  1  0
M  END
>  <Title>  (750) 
idABAXgen13

$$$$

     RDKit          2D

 16 16  0  0  0  0  0  0  0  0999 V2000
   12.0000   -5.1962    0.0000 C   0  0  0  0  0  0  0  0  0  0  0  0
   10.5000   -5.1962    0.0000 C   0  0  0  0  0  0  0  0  0  0  0  0
    9.7500   -3.8971    0.0000 C   0  0  0  0  0  0  0  0  0  0  0  0
    8.2500   -3.8971    0.0000 C   0  0  0  0  0  0  0  0  0  0  0  0
    7.5000   -2.5981    0.0000 N   0  0  0  0  0  0  0  0  0  0  0  0
    6.0000   -2.5981    0.0000 C   0  0  0  0  0  0  0  0  0  0  0  0
    5.2500   -3.8971    0.0000 O   0  0  0  0  0  0  0  0  0  0  0  0
    5.2500   -1.2990    0.0000 C   0  0  0  0  0  0  0  0  0  0  0  0
    3.7500   -1.2990    0.0000 C   0  0  0  0  0  0  0  0  0  0  0  0
    3.0000    0.0000    0.0000 C   0  0  0  0  0  0  0  0  0  0  0  0
    1.5000    0.0000    0.0000 C   0  0  0  0  0  0  0  0  0  0  0  0
    0.7500   -1.2990    0.0000 C   0  0  0  0  0  0  0  0  0  0  0  0
   -0.7500   -1.2990    0.0000 C   0  0  0  0  0  0  0  0  0  0  0  0
   -1.5000    0.0000    0.0000 C   0  0  0  0  0  0  0  0  0  0  0  0
   -0.7500    1.2990    0.0000 C   0  0  0  0  0  0  0  0  0  0  0  0
    0.7500    1.2990    0.0000 C   0  0  0  0  0  0  0  0  0  0  0  0
  1  2  2  0
  2  3  1  0
  3  4  1  0
  4  5  1  0
  5  6  1  0
  6  7  2  0
  6  8  1  0
  8  9  1  0
  9 10  1  0
 10 11  1  0
 11 12  2  0
 12 13  1  0
 13 14  2  0
 14 15  1  0
 15 16  2  0
 16 11  1  0
M  END
>  <Title>  (751) 
idABAYgen13

$$$$

     RDKit          2D

 30 33  0  0  0  0  0  0  0  0999 V2000
    9.6478    0.2453    0.0000 C   0  0  0  0  0  0  0  0  0  0  0  0
    8.6441   -0.8694    0.0000 C   0  0  0  0  0  0  0  0  0  0  0  0
    7.1523   -0.7126    0.0000 C   0  0  0  0  0  0  0  0  0  0  0  0
    6.5422   -2.0829    0.0000 C   0  0  0  0  0  0  0  0  0  0  0  0
    7.6569   -3.0866    0.0000 C   0  0  0  0  0  0  0  0  0  0  0  0
    7.5001   -4.5784    0.0000 C   0  0  0  0  0  0  0  0  0  0  0  0
    8.7136   -5.4601    0.0000 O   0  0  0  0  0  0  0  0  0  0  0  0
    6.1298   -5.1885    0.0000 N   0  0  0  0  0  0  0  0  0  0  0  0
    5.9730   -6.6803    0.0000 C   0  0  0  0  0  0  0  0  0  0  0  0
    7.0877   -7.6840    0.0000 N   0  0  0  0  0  0  0  0  0  0  0  0
    6.4776   -9.0543    0.0000 N   0  0  0  0  0  0  0  0  0  0  0  0
    4.9858   -8.8975    0.0000 N   0  0  0  0  0  0  0  0  0  0  0  0
    4.6740   -7.4303    0.0000 N   0  0  0  0  0  0  0  0  0  0  0  0
    3.3037   -6.8202    0.0000 C   0  0  0  0  0  0  0  0  0  0  0  0
    2.0046   -7.5702    0.0000 C   0  0  0  0  0  0  0  0  0  0  0  0
    0.8899   -6.5665    0.0000 C   0  0  0  0  0  0  0  0  0  0  0  0
    1.5000   -5.1962    0.0000 C   0  0  0  0  0  0  0  0  0  0  0  0
    0.7500   -3.8971    0.0000 C   0  0  0  0  0  0  0  0  0  0  0  0
   -0.7500   -3.8971    0.0000 O   0  0  0  0  0  0  0  0  0  0  0  0
    1.5000   -2.5981    0.0000 N   0  0  0  0  0  0  0  0  0  0  0  0
    0.7500   -1.2990    0.0000 C   0  0  0  0  0  0  0  0  0  0  0  0
    1.5000    0.0000    0.0000 N   0  0  0  0  0  0  0  0  0  0  0  0
    0.7500    1.2990    0.0000 N   0  0  0  0  0  0  0  0  0  0  0  0
   -0.7500    1.2990    0.0000 N   0  0  0  0  0  0  0  0  0  0  0  0
   -1.5000    0.0000    0.0000 N   0  0  0  0  0  0  0  0  0  0  0  0
   -0.7500   -1.2990    0.0000 N   0  0  0  0  0  0  0  0  0  0  0  0
    2.9918   -5.3529    0.0000 C   0  0  0  0  0  0  0  0  0  0  0  0
    3.9955   -4.2382    0.0000 O   0  0  0  0  0  0  0  0  0  0  0  0
    8.9559   -2.3366    0.0000 C   0  0  0  0  0  0  0  0  0  0  0  0
   10.3263   -2.9467    0.0000 O   0  0  0  0  0  0  0  0  0  0  0  0
  1  2  1  0
  2  3  2  0
  3  4  1  0
  4  5  2  0
  5  6  1  0
  6  7  2  0
  6  8  1  0
  8  9  1  0
  9 10  2  0
 10 11  1  0
 11 12  2  0
 12 13  1  0
 13 14  1  0
 14 15  2  0
 15 16  1  0
 16 17  2  0
 17 18  1  0
 18 19  2  0
 18 20  1  0
 20 21  1  0
 21 22  2  0
 22 23  1  0
 23 24  2  0
 24 25  1  0
 25 26  2  0
 17 27  1  0
 27 28  2  0
  5 29  1  0
 29 30  2  0
 29  2  1  0
 13  9  1  0
 27 14  1  0
 26 21  1  0
M  END
>  <Title>  (752) 
idABAZgen13

$$$$

     RDKit          2D

 11 11  0  0  0  0  0  0  0  0999 V2000
    7.2760   -2.5981    0.0000 C   0  0  0  0  0  0  0  0  0  0  0  0
    5.7760   -2.5981    0.0000 C   0  0  0  0  0  0  0  0  0  0  0  0
    5.0260   -1.2990    0.0000 C   0  0  0  0  0  0  0  0  0  0  0  0
    3.5260   -1.2990    0.0000 N   0  0  0  0  0  0  0  0  0  0  0  0
    2.7760    0.0000    0.0000 C   0  0  0  0  0  0  0  0  0  0  0  0
    3.5260    1.2990    0.0000 O   0  0  0  0  0  0  0  0  0  0  0  0
    1.2760    0.0000    0.0000 C   0  0  0  0  0  0  0  0  0  0  0  0
    0.3943    1.2135    0.0000 C   0  0  0  0  0  0  0  0  0  0  0  0
   -1.0323    0.7500    0.0000 C   0  0  0  0  0  0  0  0  0  0  0  0
   -1.0323   -0.7500    0.0000 C   0  0  0  0  0  0  0  0  0  0  0  0
    0.3943   -1.2135    0.0000 C   0  0  0  0  0  0  0  0  0  0  0  0
  1  2  1  0
  2  3  2  3
  3  4  1  0
  4  5  1  0
  5  6  2  0
  5  7  1  0
  7  8  1  0
  8  9  2  0
  9 10  1  0
 10 11  1  0
 11  7  1  0
M  END
>  <Title>  (753) 
idABBAgen13

$$$$

     RDKit          2D

 11 11  0  0  0  0  0  0  0  0999 V2000
    7.5000   -2.5981    0.0000 C   0  0  0  0  0  0  0  0  0  0  0  0
    6.0000   -2.5981    0.0000 C   0  0  0  0  0  0  0  0  0  0  0  0
    5.2500   -1.2990    0.0000 C   0  0  0  0  0  0  0  0  0  0  0  0
    3.7500   -1.2990    0.0000 C   0  0  0  0  0  0  0  0  0  0  0  0
    3.0000    0.0000    0.0000 C   0  0  0  0  0  0  0  0  0  0  0  0
    1.5000    0.0000    0.0000 C   0  0  0  0  0  0  0  0  0  0  0  0
    0.7500   -1.2990    0.0000 C   0  0  0  0  0  0  0  0  0  0  0  0
   -0.7500   -1.2990    0.0000 C   0  0  0  0  0  0  0  0  0  0  0  0
   -1.5000    0.0000    0.0000 C   0  0  0  0  0  0  0  0  0  0  0  0
   -0.7500    1.2990    0.0000 C   0  0  0  0  0  0  0  0  0  0  0  0
    0.7500    1.2990    0.0000 C   0  0  0  0  0  0  0  0  0  0  0  0
  1  2  2  0
  2  3  1  0
  3  4  2  3
  4  5  1  0
  5  6  1  0
  6  7  2  0
  7  8  1  0
  8  9  2  0
  9 10  1  0
 10 11  2  0
 11  6  1  0
M  END
>  <Title>  (754) 
idABBBgen13

$$$$

     RDKit          2D

 43 48  0  0  0  0  0  0  0  0999 V2000
   -3.1771   -5.9156    0.0000 C   0  0  0  0  0  0  0  0  0  0  0  0
   -1.9635   -5.0339    0.0000 C   0  0  0  0  0  0  0  0  0  0  0  0
   -0.7500   -5.9156    0.0000 C   0  0  0  0  0  0  0  0  0  0  0  0
    0.7500   -5.9156    0.0000 C   0  0  0  0  0  0  0  0  0  0  0  0
    1.9635   -5.0339    0.0000 C   0  0  0  0  0  0  0  0  0  0  0  0
    2.4271   -3.6073    0.0000 C   0  0  0  0  0  0  0  0  0  0  0  0
    1.9635   -2.1807    0.0000 C   0  0  0  0  0  0  0  0  0  0  0  0
    3.1771   -1.2990    0.0000 C   0  0  0  0  0  0  0  0  0  0  0  0
    4.5474   -1.9091    0.0000 N   0  0  0  0  0  0  0  0  0  0  0  0
    4.7042   -3.4009    0.0000 C   0  0  0  0  0  0  0  0  0  0  0  0
    3.4906   -4.2826    0.0000 O   0  0  0  0  0  0  0  0  0  0  0  0
    6.0745   -4.0110    0.0000 N   0  0  0  0  0  0  0  0  0  0  0  0
    6.6120   -5.4114    0.0000 C   0  0  0  0  0  0  0  0  0  0  0  0
    8.0124   -4.8738    0.0000 C   0  0  0  0  0  0  0  0  0  0  0  0
    9.3827   -5.4840    0.0000 C   0  0  0  0  0  0  0  0  0  0  0  0
   10.5962   -4.6023    0.0000 O   0  0  0  0  0  0  0  0  0  0  0  0
    9.5395   -6.9757    0.0000 N   0  0  0  0  0  0  0  0  0  0  0  0
   10.9098   -7.5858    0.0000 C   0  0  0  0  0  0  0  0  0  0  0  0
   11.0666   -9.0776    0.0000 N   0  0  0  0  0  0  0  0  0  0  0  0
   12.4369   -9.6877    0.0000 N   0  0  0  0  0  0  0  0  0  0  0  0
   13.6505   -8.8061    0.0000 N   0  0  0  0  0  0  0  0  0  0  0  0
   13.4937   -7.3143    0.0000 N   0  0  0  0  0  0  0  0  0  0  0  0
   12.1234   -6.7042    0.0000 N   0  0  0  0  0  0  0  0  0  0  0  0
    7.4749   -3.4735    0.0000 C   0  0  0  0  0  0  0  0  0  0  0  0
    8.0850   -2.1032    0.0000 O   0  0  0  0  0  0  0  0  0  0  0  0
    5.7609   -1.0275    0.0000 C   0  0  0  0  0  0  0  0  0  0  0  0
    7.1312   -1.6376    0.0000 N   0  0  0  0  0  0  0  0  0  0  0  0
    8.3447   -0.7559    0.0000 N   0  0  0  0  0  0  0  0  0  0  0  0
    8.1879    0.7359    0.0000 N   0  0  0  0  0  0  0  0  0  0  0  0
    6.8176    1.3460    0.0000 N   0  0  0  0  0  0  0  0  0  0  0  0
    5.6041    0.4643    0.0000 N   0  0  0  0  0  0  0  0  0  0  0  0
    0.7500   -1.2990    0.0000 C   0  0  0  0  0  0  0  0  0  0  0  0
    1.5000    0.0000    0.0000 C   0  0  0  0  0  0  0  0  0  0  0  0
    0.7500    1.2990    0.0000 C   0  0  0  0  0  0  0  0  0  0  0  0
   -0.7500    1.2990    0.0000 C   0  0  0  0  0  0  0  0  0  0  0  0
   -1.5000    0.0000    0.0000 C   0  0  0  0  0  0  0  0  0  0  0  0
   -0.7500   -1.2990    0.0000 C   0  0  0  0  0  0  0  0  0  0  0  0
   -1.9635   -2.1807    0.0000 C   0  0  0  0  0  0  0  0  0  0  0  0
   -2.9672   -1.0660    0.0000 C   0  0  0  0  0  0  0  0  0  0  0  0
   -4.4344   -1.3779    0.0000 C   0  0  0  0  0  0  0  0  0  0  0  0
   -4.8980   -2.8045    0.0000 C   0  0  0  0  0  0  0  0  0  0  0  0
   -3.8943   -3.9192    0.0000 C   0  0  0  0  0  0  0  0  0  0  0  0
   -2.4271   -3.6073    0.0000 C   0  0  0  0  0  0  0  0  0  0  0  0
  1  2  1  0
  2  3  1  0
  3  4  2  0
  4  5  1  0
  5  6  1  0
  6  7  1  0
  7  8  1  0
  8  9  1  0
  9 10  1  0
 10 11  2  0
 10 12  1  0
 12 13  1  0
 13 14  2  0
 14 15  1  0
 15 16  2  0
 15 17  1  0
 17 18  1  0
 18 19  2  0
 19 20  1  0
 20 21  2  0
 21 22  1  0
 22 23  2  0
 14 24  1  0
 24 25  2  0
  9 26  1  0
 26 27  2  0
 27 28  1  0
 28 29  2  0
 29 30  1  0
 30 31  2  0
  7 32  1  0
 32 33  2  0
 33 34  1  0
 34 35  2  0
 35 36  1  0
 36 37  2  0
 37 38  1  0
 38 39  2  0
 39 40  1  0
 40 41  2  0
 41 42  1  0
 42 43  2  0
 43  2  1  0
 24 12  1  0
 31 26  1  0
 37 32  1  0
 43 38  1  0
 23 18  1  0
M  END
>  <Title>  (755) 
idABBCgen13

$$$$

     RDKit          2D

  6  5  0  0  0  0  0  0  0  0999 V2000
    0.0000    0.0000    0.0000 C   0  0  0  0  0  0  0  0  0  0  0  0
    1.2990    0.7500    0.0000 C   0  0  0  0  0  0  0  0  0  0  0  0
    2.5981   -0.0000    0.0000 C   0  0  0  0  0  0  0  0  0  0  0  0
    3.8971    0.7500    0.0000 C   0  0  0  0  0  0  0  0  0  0  0  0
    5.1962   -0.0000    0.0000 C   0  0  0  0  0  0  0  0  0  0  0  0
    6.4952    0.7500    0.0000 C   0  0  0  0  0  0  0  0  0  0  0  0
  1  2  1  0
  2  3  2  3
  3  4  1  0
  4  5  1  0
  5  6  1  0
M  END
>  <Title>  (756) 
idABBDgen13

$$$$

     RDKit          2D

 46 52  0  0  0  0  0  0  0  0999 V2000
    1.2135   -7.3421    0.0000 C   0  0  0  0  0  0  0  0  0  0  0  0
    0.7500   -5.9156    0.0000 C   0  0  0  0  0  0  0  0  0  0  0  0
    1.9635   -5.0339    0.0000 C   0  0  0  0  0  0  0  0  0  0  0  0
    2.4271   -3.6073    0.0000 C   0  0  0  0  0  0  0  0  0  0  0  0
    1.9635   -2.1807    0.0000 C   0  0  0  0  0  0  0  0  0  0  0  0
    3.1771   -1.2990    0.0000 C   0  0  0  0  0  0  0  0  0  0  0  0
    3.0203    0.1927    0.0000 O   0  0  0  0  0  0  0  0  0  0  0  0
    4.5474   -1.9091    0.0000 N   0  0  0  0  0  0  0  0  0  0  0  0
    5.7609   -1.0275    0.0000 C   0  0  0  0  0  0  0  0  0  0  0  0
    5.7609    0.4725    0.0000 N   0  0  0  0  0  0  0  0  0  0  0  0
    7.1875    0.9361    0.0000 N   0  0  0  0  0  0  0  0  0  0  0  0
    8.0692   -0.2775    0.0000 N   0  0  0  0  0  0  0  0  0  0  0  0
    7.1875   -1.4910    0.0000 N   0  0  0  0  0  0  0  0  0  0  0  0
    7.6510   -2.9176    0.0000 N   0  0  0  0  0  0  0  0  0  0  0  0
    9.0776   -3.3811    0.0000 C   0  0  0  0  0  0  0  0  0  0  0  0
    9.0776   -4.8811    0.0000 C   0  0  0  0  0  0  0  0  0  0  0  0
    7.6510   -5.3446    0.0000 N   0  0  0  0  0  0  0  0  0  0  0  0
    7.1875   -6.7712    0.0000 C   0  0  0  0  0  0  0  0  0  0  0  0
    8.1912   -7.8859    0.0000 O   0  0  0  0  0  0  0  0  0  0  0  0
    5.7203   -7.0831    0.0000 N   0  0  0  0  0  0  0  0  0  0  0  0
    5.2567   -8.5097    0.0000 C   0  0  0  0  0  0  0  0  0  0  0  0
    3.7895   -8.8215    0.0000 N   0  0  0  0  0  0  0  0  0  0  0  0
    3.3260  -10.2481    0.0000 N   0  0  0  0  0  0  0  0  0  0  0  0
    4.3297  -11.3628    0.0000 N   0  0  0  0  0  0  0  0  0  0  0  0
    5.7969  -11.0510    0.0000 N   0  0  0  0  0  0  0  0  0  0  0  0
    6.2604   -9.6244    0.0000 N   0  0  0  0  0  0  0  0  0  0  0  0
    6.7693   -4.1311    0.0000 C   0  0  0  0  0  0  0  0  0  0  0  0
    5.2693   -4.1311    0.0000 O   0  0  0  0  0  0  0  0  0  0  0  0
    0.7500   -1.2990    0.0000 C   0  0  0  0  0  0  0  0  0  0  0  0
    1.5000    0.0000    0.0000 C   0  0  0  0  0  0  0  0  0  0  0  0
    0.7500    1.2990    0.0000 C   0  0  0  0  0  0  0  0  0  0  0  0
   -0.7500    1.2990    0.0000 C   0  0  0  0  0  0  0  0  0  0  0  0
   -1.5000    0.0000    0.0000 C   0  0  0  0  0  0  0  0  0  0  0  0
   -0.7500   -1.2990    0.0000 C   0  0  0  0  0  0  0  0  0  0  0  0
   -1.9635   -2.1807    0.0000 C   0  0  0  0  0  0  0  0  0  0  0  0
   -2.9672   -1.0660    0.0000 C   0  0  0  0  0  0  0  0  0  0  0  0
   -4.4344   -1.3779    0.0000 C   0  0  0  0  0  0  0  0  0  0  0  0
   -4.8980   -2.8045    0.0000 C   0  0  0  0  0  0  0  0  0  0  0  0
   -3.8943   -3.9192    0.0000 C   0  0  0  0  0  0  0  0  0  0  0  0
   -2.4271   -3.6073    0.0000 C   0  0  0  0  0  0  0  0  0  0  0  0
   -1.9635   -5.0339    0.0000 C   0  0  0  0  0  0  0  0  0  0  0  0
   -3.3338   -5.6440    0.0000 C   0  0  0  0  0  0  0  0  0  0  0  0
   -3.4906   -7.1358    0.0000 C   0  0  0  0  0  0  0  0  0  0  0  0
   -2.2771   -8.0175    0.0000 C   0  0  0  0  0  0  0  0  0  0  0  0
   -0.9068   -7.4073    0.0000 C   0  0  0  0  0  0  0  0  0  0  0  0
   -0.7500   -5.9156    0.0000 C   0  0  0  0  0  0  0  0  0  0  0  0
  1  2  1  0
  2  3  1  0
  3  4  1  0
  4  5  1  0
  5  6  1  0
  6  7  2  0
  6  8  1  0
  8  9  1  0
  9 10  2  0
 10 11  1  0
 11 12  2  0
 12 13  1  0
 13 14  1  0
 14 15  1  0
 15 16  1  0
 16 17  1  0
 17 18  1  0
 18 19  2  0
 18 20  1  0
 20 21  1  0
 21 22  2  0
 22 23  1  0
 23 24  2  0
 24 25  1  0
 25 26  2  0
 17 27  1  0
 27 28  2  0
  5 29  1  0
 29 30  2  0
 30 31  1  0
 31 32  2  0
 32 33  1  0
 33 34  2  0
 34 35  1  0
 35 36  2  0
 36 37  1  0
 37 38  2  0
 38 39  1  0
 39 40  2  0
 40 41  1  0
 41 42  2  0
 42 43  1  0
 43 44  2  0
 44 45  1  0
 45 46  2  0
 46  2  1  0
 13  9  1  0
 27 14  1  0
 34 29  1  0
 40 35  1  0
 46 41  1  0
 26 21  1  0
M  END
>  <Title>  (757) 
idABBEgen13

$$$$

     RDKit          2D

 47 53  0  0  0  0  0  0  0  0999 V2000
   -0.0000   -8.0154    0.0000 C   0  0  0  0  0  0  0  0  0  0  0  0
   -0.0000   -6.5154    0.0000 C   0  0  0  0  0  0  0  0  0  0  0  0
    1.4392   -6.0928    0.0000 C   0  0  0  0  0  0  0  0  0  0  0  0
    2.4215   -4.9592    0.0000 C   0  0  0  0  0  0  0  0  0  0  0  0
    2.6350   -3.4744    0.0000 C   0  0  0  0  0  0  0  0  0  0  0  0
    2.0119   -2.1100    0.0000 C   0  0  0  0  0  0  0  0  0  0  0  0
    3.1455   -1.1277    0.0000 C   0  0  0  0  0  0  0  0  0  0  0  0
    2.8616    0.3452    0.0000 O   0  0  0  0  0  0  0  0  0  0  0  0
    4.5630   -1.6183    0.0000 N   0  0  0  0  0  0  0  0  0  0  0  0
    5.6966   -0.6360    0.0000 C   0  0  0  0  0  0  0  0  0  0  0  0
    5.5683    0.8585    0.0000 N   0  0  0  0  0  0  0  0  0  0  0  0
    6.9500    1.4424    0.0000 N   0  0  0  0  0  0  0  0  0  0  0  0
    7.9322    0.3088    0.0000 N   0  0  0  0  0  0  0  0  0  0  0  0
    7.1576   -0.9758    0.0000 N   0  0  0  0  0  0  0  0  0  0  0  0
    7.7416   -2.3574    0.0000 N   0  0  0  0  0  0  0  0  0  0  0  0
    9.2026   -2.6972    0.0000 C   0  0  0  0  0  0  0  0  0  0  0  0
    9.3309   -4.1917    0.0000 C   0  0  0  0  0  0  0  0  0  0  0  0
    7.9492   -4.7756    0.0000 N   0  0  0  0  0  0  0  0  0  0  0  0
    7.6095   -6.2366    0.0000 C   0  0  0  0  0  0  0  0  0  0  0  0
    8.7049   -7.2614    0.0000 O   0  0  0  0  0  0  0  0  0  0  0  0
    6.1744   -6.6729    0.0000 N   0  0  0  0  0  0  0  0  0  0  0  0
    5.8346   -8.1339    0.0000 C   0  0  0  0  0  0  0  0  0  0  0  0
    4.3995   -8.5702    0.0000 N   0  0  0  0  0  0  0  0  0  0  0  0
    4.0597  -10.0312    0.0000 N   0  0  0  0  0  0  0  0  0  0  0  0
    5.1551  -11.0560    0.0000 N   0  0  0  0  0  0  0  0  0  0  0  0
    6.5903  -10.6197    0.0000 N   0  0  0  0  0  0  0  0  0  0  0  0
    6.9300   -9.1587    0.0000 N   0  0  0  0  0  0  0  0  0  0  0  0
    6.9670   -3.6420    0.0000 C   0  0  0  0  0  0  0  0  0  0  0  0
    5.4725   -3.7703    0.0000 O   0  0  0  0  0  0  0  0  0  0  0  0
    0.7500   -1.2990    0.0000 C   0  0  0  0  0  0  0  0  0  0  0  0
    1.5000    0.0000    0.0000 C   0  0  0  0  0  0  0  0  0  0  0  0
    0.7500    1.2990    0.0000 C   0  0  0  0  0  0  0  0  0  0  0  0
   -0.7500    1.2990    0.0000 C   0  0  0  0  0  0  0  0  0  0  0  0
   -1.5000    0.0000    0.0000 C   0  0  0  0  0  0  0  0  0  0  0  0
   -0.7500   -1.2990    0.0000 C   0  0  0  0  0  0  0  0  0  0  0  0
   -2.0119   -2.1100    0.0000 C   0  0  0  0  0  0  0  0  0  0  0  0
   -2.8820   -0.8881    0.0000 C   0  0  0  0  0  0  0  0  0  0  0  0
   -4.3752   -1.0307    0.0000 C   0  0  0  0  0  0  0  0  0  0  0  0
   -4.9983   -2.3952    0.0000 C   0  0  0  0  0  0  0  0  0  0  0  0
   -4.1282   -3.6170    0.0000 C   0  0  0  0  0  0  0  0  0  0  0  0
   -2.6350   -3.4744    0.0000 C   0  0  0  0  0  0  0  0  0  0  0  0
   -2.4215   -4.9592    0.0000 C   0  0  0  0  0  0  0  0  0  0  0  0
   -3.8944   -5.2431    0.0000 C   0  0  0  0  0  0  0  0  0  0  0  0
   -4.3850   -6.6606    0.0000 C   0  0  0  0  0  0  0  0  0  0  0  0
   -3.4027   -7.7942    0.0000 C   0  0  0  0  0  0  0  0  0  0  0  0
   -1.9298   -7.5103    0.0000 C   0  0  0  0  0  0  0  0  0  0  0  0
   -1.4392   -6.0928    0.0000 C   0  0  0  0  0  0  0  0  0  0  0  0
  1  2  1  0
  2  3  1  0
  3  4  2  0
  4  5  1  0
  5  6  1  0
  6  7  1  0
  7  8  2  0
  7  9  1  0
  9 10  1  0
 10 11  2  0
 11 12  1  0
 12 13  2  0
 13 14  1  0
 14 15  1  0
 15 16  1  0
 16 17  1  0
 17 18  1  0
 18 19  1  0
 19 20  2  0
 19 21  1  0
 21 22  1  0
 22 23  2  0
 23 24  1  0
 24 25  2  0
 25 26  1  0
 26 27  2  0
 18 28  1  0
 28 29  2  0
  6 30  1  0
 30 31  2  0
 31 32  1  0
 32 33  2  0
 33 34  1  0
 34 35  2  0
 35 36  1  0
 36 37  2  0
 37 38  1  0
 38 39  2  0
 39 40  1  0
 40 41  2  0
 41 42  1  0
 42 43  2  0
 43 44  1  0
 44 45  2  0
 45 46  1  0
 46 47  2  0
 47  2  1  0
 14 10  1  0
 28 15  1  0
 35 30  1  0
 41 36  1  0
 47 42  1  0
 27 22  1  0
M  END
>  <Title>  (758) 
idABBFgen13

$$$$

     RDKit          2D

  5  4  0  0  0  0  0  0  0  0999 V2000
    0.0000    0.0000    0.0000 C   0  0  0  0  0  0  0  0  0  0  0  0
    1.2990    0.7500    0.0000 C   0  0  0  0  0  0  0  0  0  0  0  0
    2.5981   -0.0000    0.0000 C   0  0  0  0  0  0  0  0  0  0  0  0
    3.8971    0.7500    0.0000 C   0  0  0  0  0  0  0  0  0  0  0  0
    2.5981   -1.5000    0.0000 C   0  0  0  0  0  0  0  0  0  0  0  0
  1  2  1  0
  2  3  2  3
  3  4  1  0
  3  5  1  0
M  END
>  <Title>  (759) 
idABBGgen13

$$$$

     RDKit          2D

 29 33  0  0  0  0  0  0  0  0999 V2000
   -2.6401   -3.1891    0.0000 C   0  0  0  0  0  0  0  0  0  0  0  0
   -1.2135   -2.7256    0.0000 C   0  0  0  0  0  0  0  0  0  0  0  0
   -0.0000   -3.6073    0.0000 C   0  0  0  0  0  0  0  0  0  0  0  0
    1.2135   -2.7256    0.0000 C   0  0  0  0  0  0  0  0  0  0  0  0
    2.6401   -3.1891    0.0000 N   0  0  0  0  0  0  0  0  0  0  0  0
    3.3211   -4.5257    0.0000 N   0  0  0  0  0  0  0  0  0  0  0  0
    4.6576   -3.8447    0.0000 N   0  0  0  0  0  0  0  0  0  0  0  0
    3.9766   -2.5082    0.0000 N   0  0  0  0  0  0  0  0  0  0  0  0
    4.4401   -1.0816    0.0000 N   0  0  0  0  0  0  0  0  0  0  0  0
    3.5585    0.1319    0.0000 C   0  0  0  0  0  0  0  0  0  0  0  0
    4.4401    1.3455    0.0000 C   0  0  0  0  0  0  0  0  0  0  0  0
    5.8667    0.8819    0.0000 N   0  0  0  0  0  0  0  0  0  0  0  0
    7.0803    1.7636    0.0000 C   0  0  0  0  0  0  0  0  0  0  0  0
    6.9235    3.2554    0.0000 O   0  0  0  0  0  0  0  0  0  0  0  0
    8.4506    1.1535    0.0000 N   0  0  0  0  0  0  0  0  0  0  0  0
    9.6641    2.0352    0.0000 C   0  0  0  0  0  0  0  0  0  0  0  0
   11.0344    1.4251    0.0000 N   0  0  0  0  0  0  0  0  0  0  0  0
   12.2479    2.3068    0.0000 N   0  0  0  0  0  0  0  0  0  0  0  0
   12.0912    3.7986    0.0000 N   0  0  0  0  0  0  0  0  0  0  0  0
   10.7208    4.4087    0.0000 N   0  0  0  0  0  0  0  0  0  0  0  0
    9.5073    3.5270    0.0000 N   0  0  0  0  0  0  0  0  0  0  0  0
    5.8667   -0.6181    0.0000 C   0  0  0  0  0  0  0  0  0  0  0  0
    7.0803   -1.4997    0.0000 O   0  0  0  0  0  0  0  0  0  0  0  0
    0.7500   -1.2990    0.0000 C   0  0  0  0  0  0  0  0  0  0  0  0
    1.5000    0.0000    0.0000 C   0  0  0  0  0  0  0  0  0  0  0  0
    0.7500    1.2990    0.0000 C   0  0  0  0  0  0  0  0  0  0  0  0
   -0.7500    1.2990    0.0000 C   0  0  0  0  0  0  0  0  0  0  0  0
   -1.5000    0.0000    0.0000 C   0  0  0  0  0  0  0  0  0  0  0  0
   -0.7500   -1.2990    0.0000 C   0  0  0  0  0  0  0  0  0  0  0  0
  1  2  1  0
  2  3  2  0
  3  4  1  0
  4  5  1  0
  5  6  1  0
  6  7  2  0
  7  8  1  0
  8  9  1  0
  9 10  1  0
 10 11  1  0
 11 12  1  0
 12 13  1  0
 13 14  2  0
 13 15  1  0
 15 16  1  0
 16 17  2  0
 17 18  1  0
 18 19  2  0
 19 20  1  0
 20 21  2  0
 12 22  1  0
 22 23  2  0
  4 24  1  0
 24 25  2  0
 25 26  1  0
 26 27  2  0
 27 28  1  0
 28 29  2  0
 29  2  1  0
  8  5  1  0
 22  9  1  0
 29 24  1  0
 21 16  1  0
M  END
>  <Title>  (760) 
idABBHgen13

$$$$

     RDKit          2D

 83 84  0  0  0  0  0  0  0  0999 V2000
   -2.2007   -1.0703    0.0000 C   0  0  0  0  0  0  0  0  0  0  0  0
   -2.4912    0.4013    0.0000 C   0  0  0  0  0  0  0  0  0  0  0  0
   -3.9732    0.1696    0.0000 C   0  0  0  0  0  0  0  0  0  0  0  0
   -5.4689    0.0563    0.0000 C   0  0  0  0  0  0  0  0  0  0  0  0
   -6.9689    0.0623    0.0000 C   0  0  0  0  0  0  0  0  0  0  0  0
   -8.4637    0.1874    0.0000 C   0  0  0  0  0  0  0  0  0  0  0  0
   -9.9438    0.4309    0.0000 C   0  0  0  0  0  0  0  0  0  0  0  0
  -11.3999    0.7912    0.0000 C   0  0  0  0  0  0  0  0  0  0  0  0
  -12.8227    1.2661    0.0000 C   0  0  0  0  0  0  0  0  0  0  0  0
  -14.2033    1.8525    0.0000 C   0  0  0  0  0  0  0  0  0  0  0  0
  -15.5330    2.5467    0.0000 C   0  0  0  0  0  0  0  0  0  0  0  0
  -16.8033    3.3444    0.0000 C   0  0  0  0  0  0  0  0  0  0  0  0
  -18.0062    4.2405    0.0000 C   0  0  0  0  0  0  0  0  0  0  0  0
  -19.1342    5.2293    0.0000 C   0  0  0  0  0  0  0  0  0  0  0  0
  -20.1800    6.3047    0.0000 C   0  0  0  0  0  0  0  0  0  0  0  0
  -21.1370    7.4597    0.0000 C   0  0  0  0  0  0  0  0  0  0  0  0
  -21.9993    8.6871    0.0000 C   0  0  0  0  0  0  0  0  0  0  0  0
  -22.7613    9.9791    0.0000 C   0  0  0  0  0  0  0  0  0  0  0  0
  -23.4183   11.3276    0.0000 C   0  0  0  0  0  0  0  0  0  0  0  0
  -23.9660   12.7240    0.0000 C   0  0  0  0  0  0  0  0  0  0  0  0
  -24.4011   14.1595    0.0000 C   0  0  0  0  0  0  0  0  0  0  0  0
  -24.7207   15.6250    0.0000 C   0  0  0  0  0  0  0  0  0  0  0  0
  -24.9229   17.1114    0.0000 C   0  0  0  0  0  0  0  0  0  0  0  0
  -25.0064   18.6090    0.0000 C   0  0  0  0  0  0  0  0  0  0  0  0
  -24.9706   20.1086    0.0000 C   0  0  0  0  0  0  0  0  0  0  0  0
  -24.8158   21.6006    0.0000 C   0  0  0  0  0  0  0  0  0  0  0  0
  -24.5429   23.0756    0.0000 C   0  0  0  0  0  0  0  0  0  0  0  0
  -24.1537   24.5242    0.0000 C   0  0  0  0  0  0  0  0  0  0  0  0
  -23.6507   25.9373    0.0000 C   0  0  0  0  0  0  0  0  0  0  0  0
  -23.0369   27.3060    0.0000 C   0  0  0  0  0  0  0  0  0  0  0  0
  -22.3164   28.6216    0.0000 C   0  0  0  0  0  0  0  0  0  0  0  0
  -21.4936   29.8758    0.0000 C   0  0  0  0  0  0  0  0  0  0  0  0
  -20.5738   31.0607    0.0000 C   0  0  0  0  0  0  0  0  0  0  0  0
  -19.5627   32.1687    0.0000 C   0  0  0  0  0  0  0  0  0  0  0  0
  -18.4668   33.1930    0.0000 C   0  0  0  0  0  0  0  0  0  0  0  0
  -17.2930   34.1269    0.0000 C   0  0  0  0  0  0  0  0  0  0  0  0
  -16.0487   34.9645    0.0000 C   0  0  0  0  0  0  0  0  0  0  0  0
  -14.7418   35.7007    0.0000 C   0  0  0  0  0  0  0  0  0  0  0  0
  -13.3805   36.3307    0.0000 C   0  0  0  0  0  0  0  0  0  0  0  0
  -11.9735   36.8506    0.0000 C   0  0  0  0  0  0  0  0  0  0  0  0
  -10.5296   37.2571    0.0000 C   0  0  0  0  0  0  0  0  0  0  0  0
   -9.0580   37.5475    0.0000 C   0  0  0  0  0  0  0  0  0  0  0  0
   -7.5680   37.7201    0.0000 C   0  0  0  0  0  0  0  0  0  0  0  0
   -6.0689   37.7738    0.0000 C   0  0  0  0  0  0  0  0  0  0  0  0
   -4.5704   37.7082    0.0000 C   0  0  0  0  0  0  0  0  0  0  0  0
   -3.0817   37.5237    0.0000 C   0  0  0  0  0  0  0  0  0  0  0  0
   -1.6125   37.2216    0.0000 C   0  0  0  0  0  0  0  0  0  0  0  0
   -0.1719   36.8037    0.0000 C   0  0  0  0  0  0  0  0  0  0  0  0
    1.2310   36.2726    0.0000 C   0  0  0  0  0  0  0  0  0  0  0  0
    2.5872   35.6318    0.0000 C   0  0  0  0  0  0  0  0  0  0  0  0
    3.8882   34.8853    0.0000 C   0  0  0  0  0  0  0  0  0  0  0  0
    5.1258   34.0377    0.0000 C   0  0  0  0  0  0  0  0  0  0  0  0
    6.2922   33.0945    0.0000 C   0  0  0  0  0  0  0  0  0  0  0  0
    7.3799   32.0616    0.0000 C   0  0  0  0  0  0  0  0  0  0  0  0
    8.3821   30.9456    0.0000 C   0  0  0  0  0  0  0  0  0  0  0  0
    9.2925   29.7534    0.0000 C   0  0  0  0  0  0  0  0  0  0  0  0
   10.1053   28.4927    0.0000 C   0  0  0  0  0  0  0  0  0  0  0  0
   10.8153   27.1714    0.0000 C   0  0  0  0  0  0  0  0  0  0  0  0
   11.4181   25.7979    0.0000 C   0  0  0  0  0  0  0  0  0  0  0  0
   11.9099   24.3808    0.0000 C   0  0  0  0  0  0  0  0  0  0  0  0
   12.2876   22.9291    0.0000 C   0  0  0  0  0  0  0  0  0  0  0  0
   12.5487   21.4520    0.0000 C   0  0  0  0  0  0  0  0  0  0  0  0
   12.6917   19.9588    0.0000 C   0  0  0  0  0  0  0  0  0  0  0  0
   12.7155   18.4590    0.0000 C   0  0  0  0  0  0  0  0  0  0  0  0
   12.6201   16.9621    0.0000 C   0  0  0  0  0  0  0  0  0  0  0  0
   12.4061   15.4774    0.0000 C   0  0  0  0  0  0  0  0  0  0  0  0
   12.0748   14.0144    0.0000 C   0  0  0  0  0  0  0  0  0  0  0  0
   11.6284   12.5824    0.0000 C   0  0  0  0  0  0  0  0  0  0  0  0
   11.0695   11.1904    0.0000 C   0  0  0  0  0  0  0  0  0  0  0  0
   10.4019    9.8472    0.0000 C   0  0  0  0  0  0  0  0  0  0  0  0
    9.6296    8.5613    0.0000 C   0  0  0  0  0  0  0  0  0  0  0  0
    8.7576    7.3408    0.0000 C   0  0  0  0  0  0  0  0  0  0  0  0
    7.7914    6.1934    0.0000 C   0  0  0  0  0  0  0  0  0  0  0  0
    6.7371    5.1265    0.0000 C   0  0  0  0  0  0  0  0  0  0  0  0
    5.6013    4.1466    0.0000 C   0  0  0  0  0  0  0  0  0  0  0  0
    4.3913    3.2601    0.0000 C   0  0  0  0  0  0  0  0  0  0  0  0
    3.1147    2.4726    0.0000 C   0  0  0  0  0  0  0  0  0  0  0  0
    1.7795    1.7889    0.0000 C   0  0  0  0  0  0  0  0  0  0  0  0
    0.3943    1.2135    0.0000 C   0  0  0  0  0  0  0  0  0  0  0  0
    1.2760    0.0000    0.0000 C   0  0  0  0  0  0  0  0  0  0  0  0
    0.3943   -1.2135    0.0000 C   0  0  0  0  0  0  0  0  0  0  0  0
   -1.0323   -0.7500    0.0000 C   0  0  0  0  0  0  0  0  0  0  0  0
   -1.0323    0.7500    0.0000 C   0  0  0  0  0  0  0  0  0  0  0  0
  1  2  1  0
  2  3  1  0
  3  4  1  0
  4  5  1  0
  5  6  1  0
  6  7  1  0
  7  8  1  0
  8  9  1  0
  9 10  1  0
 10 11  1  0
 11 12  1  0
 12 13  1  0
 13 14  1  0
 14 15  1  0
 15 16  1  0
 16 17  1  0
 17 18  1  0
 18 19  1  0
 19 20  1  0
 20 21  1  0
 21 22  1  0
 22 23  1  0
 23 24  1  0
 24 25  1  0
 25 26  1  0
 26 27  1  0
 27 28  1  0
 28 29  1  0
 29 30  1  0
 30 31  1  0
 31 32  1  0
 32 33  1  0
 33 34  1  0
 34 35  2  0
 35 36  1  0
 36 37  2  0
 37 38  1  0
 38 39  2  0
 39 40  1  0
 40 41  2  0
 41 42  1  0
 42 43  2  0
 43 44  1  0
 44 45  2  0
 45 46  1  0
 46 47  2  0
 47 48  1  0
 48 49  2  0
 49 50  1  0
 50 51  2  0
 51 52  1  0
 52 53  2  0
 53 54  1  0
 54 55  2  0
 55 56  1  0
 56 57  2  0
 57 58  1  0
 58 59  2  0
 59 60  1  0
 60 61  2  0
 61 62  1  0
 62 63  2  0
 63 64  1  0
 64 65  2  0
 65 66  1  0
 66 67  2  0
 67 68  1  0
 68 69  2  0
 69 70  1  0
 70 71  2  0
 71 72  1  0
 72 73  2  0
 73 74  1  0
 74 75  2  0
 75 76  1  0
 76 77  2  0
 77 78  1  0
 78 79  2  0
 79 80  1  0
 80 81  2  0
 81 82  1  0
 82 83  2  0
 83  2  1  0
 83 79  1  0
M  END
>  <Title>  (761) 
idABBIgen13

$$$$

     RDKit          2D

 41 46  0  0  0  0  0  0  0  0999 V2000
   -1.3240   -6.3062    0.0000 C   0  0  0  0  0  0  0  0  0  0  0  0
   -0.7500   -4.9204    0.0000 C   0  0  0  0  0  0  0  0  0  0  0  0
    0.7500   -4.9204    0.0000 C   0  0  0  0  0  0  0  0  0  0  0  0
    1.8107   -3.8597    0.0000 C   0  0  0  0  0  0  0  0  0  0  0  0
    1.8107   -2.3597    0.0000 C   0  0  0  0  0  0  0  0  0  0  0  0
    3.1965   -1.7857    0.0000 O   0  0  0  0  0  0  0  0  0  0  0  0
    4.3865   -2.6988    0.0000 C   0  0  0  0  0  0  0  0  0  0  0  0
    4.1907   -4.1860    0.0000 O   0  0  0  0  0  0  0  0  0  0  0  0
    5.7723   -2.1248    0.0000 N   0  0  0  0  0  0  0  0  0  0  0  0
    6.9624   -3.0379    0.0000 C   0  0  0  0  0  0  0  0  0  0  0  0
    6.9231   -4.5374    0.0000 N   0  0  0  0  0  0  0  0  0  0  0  0
    8.3371   -5.0381    0.0000 N   0  0  0  0  0  0  0  0  0  0  0  0
    9.2502   -3.8481    0.0000 N   0  0  0  0  0  0  0  0  0  0  0  0
    8.4006   -2.6119    0.0000 N   0  0  0  0  0  0  0  0  0  0  0  0
    8.9013   -1.1979    0.0000 N   0  0  0  0  0  0  0  0  0  0  0  0
    8.0517    0.0382    0.0000 C   0  0  0  0  0  0  0  0  0  0  0  0
    8.9648    1.2283    0.0000 C   0  0  0  0  0  0  0  0  0  0  0  0
   10.3788    0.7276    0.0000 C   0  0  0  0  0  0  0  0  0  0  0  0
   11.6150    1.5772    0.0000 C   0  0  0  0  0  0  0  0  0  0  0  0
   12.9689    0.9314    0.0000 O   0  0  0  0  0  0  0  0  0  0  0  0
   11.4973    3.0725    0.0000 N   0  0  0  0  0  0  0  0  0  0  0  0
   12.7335    3.9222    0.0000 C   0  0  0  0  0  0  0  0  0  0  0  0
   14.0874    3.2764    0.0000 N   0  0  0  0  0  0  0  0  0  0  0  0
   15.3236    4.1260    0.0000 N   0  0  0  0  0  0  0  0  0  0  0  0
   15.2059    5.6214    0.0000 N   0  0  0  0  0  0  0  0  0  0  0  0
   13.8520    6.2671    0.0000 N   0  0  0  0  0  0  0  0  0  0  0  0
   12.6158    5.4175    0.0000 N   0  0  0  0  0  0  0  0  0  0  0  0
   10.3395   -0.7719    0.0000 C   0  0  0  0  0  0  0  0  0  0  0  0
   11.5296   -1.6851    0.0000 O   0  0  0  0  0  0  0  0  0  0  0  0
    0.7500   -1.2990    0.0000 C   0  0  0  0  0  0  0  0  0  0  0  0
    1.5000    0.0000    0.0000 C   0  0  0  0  0  0  0  0  0  0  0  0
    0.7500    1.2990    0.0000 C   0  0  0  0  0  0  0  0  0  0  0  0
   -0.7500    1.2990    0.0000 C   0  0  0  0  0  0  0  0  0  0  0  0
   -1.5000    0.0000    0.0000 C   0  0  0  0  0  0  0  0  0  0  0  0
   -0.7500   -1.2990    0.0000 C   0  0  0  0  0  0  0  0  0  0  0  0
   -1.8107   -2.3597    0.0000 C   0  0  0  0  0  0  0  0  0  0  0  0
   -3.1097   -1.6097    0.0000 C   0  0  0  0  0  0  0  0  0  0  0  0
   -4.4087   -2.3597    0.0000 C   0  0  0  0  0  0  0  0  0  0  0  0
   -4.4087   -3.8597    0.0000 C   0  0  0  0  0  0  0  0  0  0  0  0
   -3.1097   -4.6097    0.0000 C   0  0  0  0  0  0  0  0  0  0  0  0
   -1.8107   -3.8597    0.0000 C   0  0  0  0  0  0  0  0  0  0  0  0
  1  2  1  0
  2  3  1  0
  3  4  2  0
  4  5  1  0
  5  6  1  0
  6  7  1  0
  7  8  2  0
  7  9  1  0
  9 10  1  0
 10 11  2  0
 11 12  1  0
 12 13  2  0
 13 14  1  0
 14 15  1  0
 15 16  1  0
 16 17  1  0
 17 18  1  0
 18 19  1  0
 19 20  2  0
 19 21  1  0
 21 22  1  0
 22 23  2  0
 23 24  1  0
 24 25  2  0
 25 26  1  0
 26 27  2  0
 18 28  1  0
 28 29  2  0
  5 30  1  0
 30 31  2  0
 31 32  1  0
 32 33  2  0
 33 34  1  0
 34 35  2  0
 35 36  1  0
 36 37  2  0
 37 38  1  0
 38 39  2  0
 39 40  1  0
 40 41  2  0
 41  2  1  0
 14 10  1  0
 28 15  1  0
 35 30  1  0
 41 36  1  0
 27 22  1  0
M  END
>  <Title>  (762) 
idABBJgen13

$$$$

     RDKit          2D

 14 13  0  0  0  0  0  0  0  0999 V2000
    0.0000    0.0000    0.0000 C   0  0  0  0  0  0  0  0  0  0  0  0
    1.2990    0.7500    0.0000 C   0  0  0  0  0  0  0  0  0  0  0  0
    1.2990    2.2500    0.0000 O   0  0  0  0  0  0  0  0  0  0  0  0
    2.5981   -0.0000    0.0000 N   0  0  0  0  0  0  0  0  0  0  0  0
    3.8971    0.7500    0.0000 C   0  0  0  0  0  0  0  0  0  0  0  0
    3.8971    2.2500    0.0000 O   0  0  0  0  0  0  0  0  0  0  0  0
    5.1962   -0.0000    0.0000 N   0  0  0  0  0  0  0  0  0  0  0  0
    6.4952    0.7500    0.0000 C   0  0  0  0  0  0  0  0  0  0  0  0
    7.7942   -0.0000    0.0000 C   0  0  0  0  0  0  0  0  0  0  0  0
    6.4952    2.2500    0.0000 C   0  0  0  0  0  0  0  0  0  0  0  0
    7.7942    3.0000    0.0000 C   0  0  0  0  0  0  0  0  0  0  0  0
    7.7942    4.5000    0.0000 C   0  0  0  0  0  0  0  0  0  0  0  0
    9.0933    5.2500    0.0000 C   0  0  0  0  0  0  0  0  0  0  0  0
    6.4952    5.2500    0.0000 C   0  0  0  0  0  0  0  0  0  0  0  0
  1  2  1  0
  2  3  2  0
  2  4  1  0
  4  5  1  0
  5  6  2  0
  5  7  1  0
  7  8  1  0
  8  9  1  0
  8 10  1  0
 10 11  1  0
 11 12  1  0
 12 13  1  0
 12 14  1  0
M  END
>  <Title>  (763) 
idABBKgen13

$$$$

     RDKit          2D

 37 41  0  0  0  0  0  0  0  0999 V2000
   -3.1981   -1.5132    0.0000 C   0  0  0  0  0  0  0  0  0  0  0  0
   -1.8991   -2.2632    0.0000 C   0  0  0  0  0  0  0  0  0  0  0  0
   -2.1595   -3.7404    0.0000 C   0  0  0  0  0  0  0  0  0  0  0  0
   -1.4095   -5.0395    0.0000 C   0  0  0  0  0  0  0  0  0  0  0  0
   -0.0000   -5.5525    0.0000 C   0  0  0  0  0  0  0  0  0  0  0  0
    1.4095   -5.0395    0.0000 C   0  0  0  0  0  0  0  0  0  0  0  0
    2.1595   -3.7404    0.0000 C   0  0  0  0  0  0  0  0  0  0  0  0
    1.8991   -2.2632    0.0000 C   0  0  0  0  0  0  0  0  0  0  0  0
    3.1981   -1.5132    0.0000 C   0  0  0  0  0  0  0  0  0  0  0  0
    3.1981   -0.0132    0.0000 O   0  0  0  0  0  0  0  0  0  0  0  0
    4.4971   -2.2632    0.0000 N   0  0  0  0  0  0  0  0  0  0  0  0
    5.7962   -1.5132    0.0000 C   0  0  0  0  0  0  0  0  0  0  0  0
    5.9530   -0.0214    0.0000 N   0  0  0  0  0  0  0  0  0  0  0  0
    7.4202    0.2904    0.0000 N   0  0  0  0  0  0  0  0  0  0  0  0
    8.1702   -1.0086    0.0000 N   0  0  0  0  0  0  0  0  0  0  0  0
    7.1665   -2.1233    0.0000 N   0  0  0  0  0  0  0  0  0  0  0  0
    7.4784   -3.5905    0.0000 N   0  0  0  0  0  0  0  0  0  0  0  0
    8.8487   -4.2007    0.0000 C   0  0  0  0  0  0  0  0  0  0  0  0
    8.6919   -5.6924    0.0000 C   0  0  0  0  0  0  0  0  0  0  0  0
    7.2247   -6.0043    0.0000 C   0  0  0  0  0  0  0  0  0  0  0  0
    6.6146   -7.3746    0.0000 C   0  0  0  0  0  0  0  0  0  0  0  0
    7.4962   -8.5881    0.0000 O   0  0  0  0  0  0  0  0  0  0  0  0
    5.1228   -7.5314    0.0000 N   0  0  0  0  0  0  0  0  0  0  0  0
    4.5127   -8.9017    0.0000 C   0  0  0  0  0  0  0  0  0  0  0  0
    3.0209   -9.0585    0.0000 N   0  0  0  0  0  0  0  0  0  0  0  0
    2.4108  -10.4288    0.0000 N   0  0  0  0  0  0  0  0  0  0  0  0
    3.2925  -11.6424    0.0000 N   0  0  0  0  0  0  0  0  0  0  0  0
    4.7843  -11.4856    0.0000 N   0  0  0  0  0  0  0  0  0  0  0  0
    5.3944  -10.1153    0.0000 N   0  0  0  0  0  0  0  0  0  0  0  0
    6.4747   -4.7053    0.0000 C   0  0  0  0  0  0  0  0  0  0  0  0
    4.9829   -4.5485    0.0000 O   0  0  0  0  0  0  0  0  0  0  0  0
    0.7500   -1.2990    0.0000 C   0  0  0  0  0  0  0  0  0  0  0  0
    1.5000    0.0000    0.0000 C   0  0  0  0  0  0  0  0  0  0  0  0
    0.7500    1.2990    0.0000 C   0  0  0  0  0  0  0  0  0  0  0  0
   -0.7500    1.2990    0.0000 C   0  0  0  0  0  0  0  0  0  0  0  0
   -1.5000    0.0000    0.0000 C   0  0  0  0  0  0  0  0  0  0  0  0
   -0.7500   -1.2990    0.0000 C   0  0  0  0  0  0  0  0  0  0  0  0
  1  2  1  0
  2  3  1  0
  3  4  1  0
  4  5  1  0
  5  6  1  0
  6  7  1  0
  7  8  1  0
  8  9  1  0
  9 10  2  0
  9 11  1  0
 11 12  1  0
 12 13  2  0
 13 14  1  0
 14 15  2  0
 15 16  1  0
 16 17  1  0
 17 18  1  0
 18 19  1  0
 19 20  1  0
 20 21  1  0
 21 22  2  0
 21 23  1  0
 23 24  1  0
 24 25  2  0
 25 26  1  0
 26 27  2  0
 27 28  1  0
 28 29  2  0
 20 30  1  0
 30 31  2  0
  8 32  1  0
 32 33  2  0
 33 34  1  0
 34 35  2  0
 35 36  1  0
 36 37  2  0
 37  2  1  0
 16 12  1  0
 30 17  1  0
 37 32  1  0
 29 24  1  0
M  END
>  <Title>  (764) 
idABBLgen13

$$$$

     RDKit          2D

 11 12  0  0  0  0  0  0  0  0999 V2000
   -3.2595   -3.4715    0.0000 C   0  0  0  0  0  0  0  0  0  0  0  0
   -1.8107   -3.8597    0.0000 C   0  0  0  0  0  0  0  0  0  0  0  0
   -1.4224   -5.3086    0.0000 O   0  0  0  0  0  0  0  0  0  0  0  0
   -0.7500   -2.7990    0.0000 N   0  0  0  0  0  0  0  0  0  0  0  0
    0.7500   -2.7990    0.0000 C   0  0  0  0  0  0  0  0  0  0  0  0
    0.7500   -1.2990    0.0000 C   0  0  0  0  0  0  0  0  0  0  0  0
    1.5000    0.0000    0.0000 C   0  0  0  0  0  0  0  0  0  0  0  0
    0.7500    1.2990    0.0000 C   0  0  0  0  0  0  0  0  0  0  0  0
   -0.7500    1.2990    0.0000 C   0  0  0  0  0  0  0  0  0  0  0  0
   -1.5000    0.0000    0.0000 C   0  0  0  0  0  0  0  0  0  0  0  0
   -0.7500   -1.2990    0.0000 C   0  0  0  0  0  0  0  0  0  0  0  0
  1  2  1  0
  2  3  2  0
  2  4  1  0
  4  5  1  0
  5  6  1  0
  6  7  2  0
  7  8  1  0
  8  9  2  0
  9 10  1  0
 10 11  2  0
 11  4  1  0
 11  6  1  0
M  END
>  <Title>  (765) 
idABBMgen13

$$$$

     RDKit          2D

 12 13  0  0  0  0  0  0  0  0999 V2000
    1.8478   -6.4639    0.0000 C   0  0  0  0  0  0  0  0  0  0  0  0
    2.0046   -4.9721    0.0000 C   0  0  0  0  0  0  0  0  0  0  0  0
    3.3037   -4.2221    0.0000 C   0  0  0  0  0  0  0  0  0  0  0  0
    2.9918   -2.7549    0.0000 C   0  0  0  0  0  0  0  0  0  0  0  0
    1.5000   -2.5981    0.0000 C   0  0  0  0  0  0  0  0  0  0  0  0
    0.7500   -1.2990    0.0000 C   0  0  0  0  0  0  0  0  0  0  0  0
    1.5000    0.0000    0.0000 C   0  0  0  0  0  0  0  0  0  0  0  0
    0.7500    1.2990    0.0000 C   0  0  0  0  0  0  0  0  0  0  0  0
   -0.7500    1.2990    0.0000 C   0  0  0  0  0  0  0  0  0  0  0  0
   -1.5000    0.0000    0.0000 N   0  0  0  0  0  0  0  0  0  0  0  0
   -0.7500   -1.2990    0.0000 N   0  0  0  0  0  0  0  0  0  0  0  0
    0.8899   -3.9684    0.0000 C   0  0  0  0  0  0  0  0  0  0  0  0
  1  2  1  0
  2  3  2  0
  3  4  1  0
  4  5  2  0
  5  6  1  0
  6  7  2  0
  7  8  1  0
  8  9  2  0
  9 10  1  0
 10 11  2  0
  5 12  1  0
 12  2  1  0
 11  6  1  0
M  END
>  <Title>  (766) 
idABBNgen13

$$$$

     RDKit          2D

 27 31  0  0  0  0  0  0  0  0999 V2000
   -5.7998   -6.4517    0.0000 O   0  0  0  0  0  0  0  0  0  0  0  0
   -4.2998   -6.4517    0.0000 C   0  0  0  0  0  0  0  0  0  0  0  0
   -3.4182   -7.6652    0.0000 N   0  0  0  0  0  0  0  0  0  0  0  0
   -3.8817   -9.0918    0.0000 C   0  0  0  0  0  0  0  0  0  0  0  0
   -5.3489   -9.4037    0.0000 N   0  0  0  0  0  0  0  0  0  0  0  0
   -5.8124  -10.8303    0.0000 N   0  0  0  0  0  0  0  0  0  0  0  0
   -4.8087  -11.9450    0.0000 N   0  0  0  0  0  0  0  0  0  0  0  0
   -3.3415  -11.6331    0.0000 N   0  0  0  0  0  0  0  0  0  0  0  0
   -2.8780  -10.2065    0.0000 N   0  0  0  0  0  0  0  0  0  0  0  0
   -1.9916   -7.2017    0.0000 C   0  0  0  0  0  0  0  0  0  0  0  0
   -1.9916   -5.7017    0.0000 C   0  0  0  0  0  0  0  0  0  0  0  0
   -3.4182   -5.2382    0.0000 N   0  0  0  0  0  0  0  0  0  0  0  0
   -3.8817   -3.8116    0.0000 N   0  0  0  0  0  0  0  0  0  0  0  0
   -5.3083   -3.3481    0.0000 N   0  0  0  0  0  0  0  0  0  0  0  0
   -5.3083   -1.8481    0.0000 N   0  0  0  0  0  0  0  0  0  0  0  0
   -3.8817   -1.3846    0.0000 N   0  0  0  0  0  0  0  0  0  0  0  0
   -3.0000   -2.5981    0.0000 C   0  0  0  0  0  0  0  0  0  0  0  0
   -1.5000   -2.5981    0.0000 C   0  0  0  0  0  0  0  0  0  0  0  0
   -0.7500   -3.8971    0.0000 C   0  0  0  0  0  0  0  0  0  0  0  0
    0.7500   -3.8971    0.0000 C   0  0  0  0  0  0  0  0  0  0  0  0
    1.5000   -2.5981    0.0000 C   0  0  0  0  0  0  0  0  0  0  0  0
    0.7500   -1.2990    0.0000 C   0  0  0  0  0  0  0  0  0  0  0  0
    1.5000    0.0000    0.0000 C   0  0  0  0  0  0  0  0  0  0  0  0
    0.7500    1.2990    0.0000 C   0  0  0  0  0  0  0  0  0  0  0  0
   -0.7500    1.2990    0.0000 C   0  0  0  0  0  0  0  0  0  0  0  0
   -1.5000    0.0000    0.0000 C   0  0  0  0  0  0  0  0  0  0  0  0
   -0.7500   -1.2990    0.0000 C   0  0  0  0  0  0  0  0  0  0  0  0
  1  2  2  0
  2  3  1  0
  3  4  1  0
  4  5  2  0
  5  6  1  0
  6  7  2  0
  7  8  1  0
  8  9  2  0
  3 10  1  0
 10 11  1  0
 11 12  1  0
 12 13  1  0
 13 14  1  0
 14 15  2  0
 15 16  1  0
 16 17  2  0
 17 18  1  0
 18 19  1  0
 19 20  1  0
 20 21  1  0
 21 22  1  0
 22 23  2  0
 23 24  1  0
 24 25  2  0
 25 26  1  0
 26 27  2  0
 12  2  1  0
 17 13  1  0
 27 18  1  0
  9  4  1  0
 27 22  1  0
M  END
>  <Title>  (767) 
idABBOgen13

$$$$

     RDKit          2D

 86 87  0  0  0  0  0  0  0  0999 V2000
    8.9274    4.4518    0.0000 C   0  0  0  0  0  0  0  0  0  0  0  0
    9.7245    4.4557    0.0000 C   0  0  0  0  0  0  0  0  0  0  0  0
    9.8241    5.9524    0.0000 C   0  0  0  0  0  0  0  0  0  0  0  0
   10.1356    7.4197    0.0000 C   0  0  0  0  0  0  0  0  0  0  0  0
   10.6528    8.8277    0.0000 C   0  0  0  0  0  0  0  0  0  0  0  0
   11.3651   10.1478    0.0000 C   0  0  0  0  0  0  0  0  0  0  0  0
   12.2580   11.3531    0.0000 C   0  0  0  0  0  0  0  0  0  0  0  0
   13.3134   12.4190    0.0000 C   0  0  0  0  0  0  0  0  0  0  0  0
   14.5097   13.3239    0.0000 C   0  0  0  0  0  0  0  0  0  0  0  0
   15.8227   14.0493    0.0000 C   0  0  0  0  0  0  0  0  0  0  0  0
   17.2254   14.5805    0.0000 C   0  0  0  0  0  0  0  0  0  0  0  0
   18.6896   14.9067    0.0000 C   0  0  0  0  0  0  0  0  0  0  0  0
   20.1852   15.0211    0.0000 C   0  0  0  0  0  0  0  0  0  0  0  0
   21.6819   14.9216    0.0000 C   0  0  0  0  0  0  0  0  0  0  0  0
   23.1492   14.6100    0.0000 C   0  0  0  0  0  0  0  0  0  0  0  0
   24.5572   14.0928    0.0000 C   0  0  0  0  0  0  0  0  0  0  0  0
   25.8773   13.3805    0.0000 C   0  0  0  0  0  0  0  0  0  0  0  0
   27.0825   12.4876    0.0000 C   0  0  0  0  0  0  0  0  0  0  0  0
   28.1485   11.4323    0.0000 C   0  0  0  0  0  0  0  0  0  0  0  0
   29.0534   10.2359    0.0000 C   0  0  0  0  0  0  0  0  0  0  0  0
   29.7788    8.9230    0.0000 C   0  0  0  0  0  0  0  0  0  0  0  0
   30.3100    7.5202    0.0000 C   0  0  0  0  0  0  0  0  0  0  0  0
   30.6361    6.0561    0.0000 C   0  0  0  0  0  0  0  0  0  0  0  0
   30.7506    4.5605    0.0000 C   0  0  0  0  0  0  0  0  0  0  0  0
   30.6510    3.0638    0.0000 C   0  0  0  0  0  0  0  0  0  0  0  0
   30.3395    1.5965    0.0000 C   0  0  0  0  0  0  0  0  0  0  0  0
   29.8223    0.1885    0.0000 C   0  0  0  0  0  0  0  0  0  0  0  0
   29.1100   -1.1316    0.0000 C   0  0  0  0  0  0  0  0  0  0  0  0
   28.2171   -2.3369    0.0000 C   0  0  0  0  0  0  0  0  0  0  0  0
   27.1617   -3.4028    0.0000 C   0  0  0  0  0  0  0  0  0  0  0  0
   25.9654   -4.3077    0.0000 C   0  0  0  0  0  0  0  0  0  0  0  0
   24.6525   -5.0331    0.0000 C   0  0  0  0  0  0  0  0  0  0  0  0
   23.2497   -5.5643    0.0000 C   0  0  0  0  0  0  0  0  0  0  0  0
   21.7856   -5.8905    0.0000 C   0  0  0  0  0  0  0  0  0  0  0  0
   20.2899   -6.0049    0.0000 C   0  0  0  0  0  0  0  0  0  0  0  0
   18.7932   -5.9054    0.0000 C   0  0  0  0  0  0  0  0  0  0  0  0
   17.3259   -5.5938    0.0000 C   0  0  0  0  0  0  0  0  0  0  0  0
   15.9179   -5.0766    0.0000 C   0  0  0  0  0  0  0  0  0  0  0  0
   14.5978   -4.3643    0.0000 C   0  0  0  0  0  0  0  0  0  0  0  0
   13.3926   -3.4714    0.0000 C   0  0  0  0  0  0  0  0  0  0  0  0
   12.3266   -2.4160    0.0000 C   0  0  0  0  0  0  0  0  0  0  0  0
   11.4218   -1.2197    0.0000 C   0  0  0  0  0  0  0  0  0  0  0  0
   10.6963    0.0932    0.0000 C   0  0  0  0  0  0  0  0  0  0  0  0
   10.1651    1.4960    0.0000 C   0  0  0  0  0  0  0  0  0  0  0  0
    9.5746   -0.0000    0.0000 C   0  0  0  0  0  0  0  0  0  0  0  0
    9.4726   -1.3941    0.0000 C   0  0  0  0  0  0  0  0  0  0  0  0
    9.1687   -2.7584    0.0000 C   0  0  0  0  0  0  0  0  0  0  0  0
    8.6693   -4.0640    0.0000 C   0  0  0  0  0  0  0  0  0  0  0  0
    7.9852   -5.2830    0.0000 C   0  0  0  0  0  0  0  0  0  0  0  0
    7.1309   -6.3893    0.0000 C   0  0  0  0  0  0  0  0  0  0  0  0
    6.1246   -7.3595    0.0000 C   0  0  0  0  0  0  0  0  0  0  0  0
    4.9878   -8.1728    0.0000 C   0  0  0  0  0  0  0  0  0  0  0  0
    3.7447   -8.8120    0.0000 C   0  0  0  0  0  0  0  0  0  0  0  0
    2.4217   -9.2633    0.0000 C   0  0  0  0  0  0  0  0  0  0  0  0
    1.0472   -9.5172    0.0000 C   0  0  0  0  0  0  0  0  0  0  0  0
   -0.3497   -9.5682    0.0000 C   0  0  0  0  0  0  0  0  0  0  0  0
   -1.7391   -9.4154    0.0000 C   0  0  0  0  0  0  0  0  0  0  0  0
   -3.0915   -9.0618    0.0000 C   0  0  0  0  0  0  0  0  0  0  0  0
   -4.3779   -8.5151    0.0000 C   0  0  0  0  0  0  0  0  0  0  0  0
   -5.5711   -7.7870    0.0000 C   0  0  0  0  0  0  0  0  0  0  0  0
   -6.6455   -6.8928    0.0000 C   0  0  0  0  0  0  0  0  0  0  0  0
   -7.5783   -5.8518    0.0000 C   0  0  0  0  0  0  0  0  0  0  0  0
   -8.3496   -4.6860    0.0000 C   0  0  0  0  0  0  0  0  0  0  0  0
   -8.9429   -3.4204    0.0000 C   0  0  0  0  0  0  0  0  0  0  0  0
   -9.3456   -2.0818    0.0000 C   0  0  0  0  0  0  0  0  0  0  0  0
   -9.5491   -0.6989    0.0000 C   0  0  0  0  0  0  0  0  0  0  0  0
   -9.5491    0.6989    0.0000 C   0  0  0  0  0  0  0  0  0  0  0  0
   -9.3456    2.0818    0.0000 C   0  0  0  0  0  0  0  0  0  0  0  0
   -8.9429    3.4204    0.0000 C   0  0  0  0  0  0  0  0  0  0  0  0
   -8.3496    4.6860    0.0000 C   0  0  0  0  0  0  0  0  0  0  0  0
   -7.5783    5.8518    0.0000 C   0  0  0  0  0  0  0  0  0  0  0  0
   -6.6455    6.8928    0.0000 C   0  0  0  0  0  0  0  0  0  0  0  0
   -5.5711    7.7870    0.0000 C   0  0  0  0  0  0  0  0  0  0  0  0
   -4.3779    8.5151    0.0000 C   0  0  0  0  0  0  0  0  0  0  0  0
   -3.0915    9.0618    0.0000 C   0  0  0  0  0  0  0  0  0  0  0  0
   -1.7391    9.4154    0.0000 C   0  0  0  0  0  0  0  0  0  0  0  0
   -0.3497    9.5682    0.0000 C   0  0  0  0  0  0  0  0  0  0  0  0
    1.0472    9.5172    0.0000 C   0  0  0  0  0  0  0  0  0  0  0  0
    2.4217    9.2633    0.0000 C   0  0  0  0  0  0  0  0  0  0  0  0
    3.7447    8.8120    0.0000 C   0  0  0  0  0  0  0  0  0  0  0  0
    4.9878    8.1728    0.0000 C   0  0  0  0  0  0  0  0  0  0  0  0
    6.1246    7.3595    0.0000 C   0  0  0  0  0  0  0  0  0  0  0  0
    7.1309    6.3893    0.0000 C   0  0  0  0  0  0  0  0  0  0  0  0
    7.9852    5.2830    0.0000 C   0  0  0  0  0  0  0  0  0  0  0  0
    8.6693    4.0640    0.0000 C   0  0  0  0  0  0  0  0  0  0  0  0
    9.8390    2.9601    0.0000 C   0  0  0  0  0  0  0  0  0  0  0  0
  1  2  1  0
  2  3  1  0
  3  4  1  0
  4  5  1  0
  5  6  1  0
  6  7  1  0
  7  8  1  0
  8  9  1  0
  9 10  1  0
 10 11  1  0
 11 12  1  0
 12 13  1  0
 13 14  1  0
 14 15  1  0
 15 16  1  0
 16 17  1  0
 17 18  1  0
 18 19  1  0
 19 20  1  0
 20 21  1  0
 21 22  1  0
 22 23  1  0
 23 24  1  0
 24 25  1  0
 25 26  1  0
 26 27  1  0
 27 28  1  0
 28 29  1  0
 29 30  1  0
 30 31  1  0
 31 32  1  0
 32 33  1  0
 33 34  1  0
 34 35  1  0
 35 36  1  0
 36 37  1  0
 37 38  1  0
 38 39  1  0
 39 40  1  0
 40 41  1  0
 41 42  1  0
 42 43  1  0
 43 44  1  0
 44 45  1  0
 45 46  1  0
 46 47  1  0
 47 48  2  0
 48 49  1  0
 49 50  2  0
 50 51  1  0
 51 52  2  0
 52 53  1  0
 53 54  2  0
 54 55  1  0
 55 56  2  0
 56 57  1  0
 57 58  2  0
 58 59  1  0
 59 60  2  0
 60 61  1  0
 61 62  2  0
 62 63  1  0
 63 64  2  0
 64 65  1  0
 65 66  2  0
 66 67  1  0
 67 68  2  0
 68 69  1  0
 69 70  2  0
 70 71  1  0
 71 72  2  0
 72 73  1  0
 73 74  2  0
 74 75  1  0
 75 76  2  0
 76 77  1  0
 77 78  2  0
 78 79  1  0
 79 80  2  0
 80 81  1  0
 81 82  2  0
 82 83  1  0
 83 84  2  0
 84 85  1  0
 85 86  2  0
 86  2  1  0
 86 44  1  0
M  END
>  <Title>  (768) 
idABBPgen13

$$$$

     RDKit          2D

 36 40  0  0  0  0  0  0  0  0999 V2000
   -3.1965   -1.7857    0.0000 C   0  0  0  0  0  0  0  0  0  0  0  0
   -1.8107   -2.3597    0.0000 C   0  0  0  0  0  0  0  0  0  0  0  0
   -1.8107   -3.8597    0.0000 C   0  0  0  0  0  0  0  0  0  0  0  0
   -0.7500   -4.9204    0.0000 C   0  0  0  0  0  0  0  0  0  0  0  0
    0.7500   -4.9204    0.0000 C   0  0  0  0  0  0  0  0  0  0  0  0
    1.8107   -3.8597    0.0000 C   0  0  0  0  0  0  0  0  0  0  0  0
    1.8107   -2.3597    0.0000 C   0  0  0  0  0  0  0  0  0  0  0  0
    3.1965   -1.7857    0.0000 C   0  0  0  0  0  0  0  0  0  0  0  0
    3.3923   -0.2985    0.0000 O   0  0  0  0  0  0  0  0  0  0  0  0
    4.3865   -2.6988    0.0000 N   0  0  0  0  0  0  0  0  0  0  0  0
    5.7723   -2.1248    0.0000 C   0  0  0  0  0  0  0  0  0  0  0  0
    6.1225   -0.6662    0.0000 N   0  0  0  0  0  0  0  0  0  0  0  0
    7.6179   -0.5485    0.0000 N   0  0  0  0  0  0  0  0  0  0  0  0
    8.1919   -1.9344    0.0000 N   0  0  0  0  0  0  0  0  0  0  0  0
    7.0513   -2.9085    0.0000 N   0  0  0  0  0  0  0  0  0  0  0  0
    7.1690   -4.4039    0.0000 C   0  0  0  0  0  0  0  0  0  0  0  0
    8.4479   -5.1877    0.0000 C   0  0  0  0  0  0  0  0  0  0  0  0
    8.0978   -6.6462    0.0000 C   0  0  0  0  0  0  0  0  0  0  0  0
    6.6024   -6.7639    0.0000 C   0  0  0  0  0  0  0  0  0  0  0  0
    5.8186   -8.0429    0.0000 C   0  0  0  0  0  0  0  0  0  0  0  0
    6.5344   -9.3611    0.0000 O   0  0  0  0  0  0  0  0  0  0  0  0
    4.3192   -8.0036    0.0000 N   0  0  0  0  0  0  0  0  0  0  0  0
    3.5354   -9.2826    0.0000 C   0  0  0  0  0  0  0  0  0  0  0  0
    2.0359   -9.2433    0.0000 N   0  0  0  0  0  0  0  0  0  0  0  0
    1.2522  -10.5223    0.0000 N   0  0  0  0  0  0  0  0  0  0  0  0
    1.9679  -11.8405    0.0000 N   0  0  0  0  0  0  0  0  0  0  0  0
    3.4674  -11.8797    0.0000 N   0  0  0  0  0  0  0  0  0  0  0  0
    4.2512  -10.6008    0.0000 N   0  0  0  0  0  0  0  0  0  0  0  0
    6.0284   -5.3781    0.0000 C   0  0  0  0  0  0  0  0  0  0  0  0
    4.5698   -5.0279    0.0000 O   0  0  0  0  0  0  0  0  0  0  0  0
    0.7500   -1.2990    0.0000 C   0  0  0  0  0  0  0  0  0  0  0  0
    1.5000    0.0000    0.0000 C   0  0  0  0  0  0  0  0  0  0  0  0
    0.7500    1.2990    0.0000 C   0  0  0  0  0  0  0  0  0  0  0  0
   -0.7500    1.2990    0.0000 C   0  0  0  0  0  0  0  0  0  0  0  0
   -1.5000    0.0000    0.0000 C   0  0  0  0  0  0  0  0  0  0  0  0
   -0.7500   -1.2990    0.0000 C   0  0  0  0  0  0  0  0  0  0  0  0
  1  2  1  0
  2  3  1  0
  3  4  1  0
  4  5  1  0
  5  6  2  0
  6  7  1  0
  7  8  1  0
  8  9  2  0
  8 10  1  0
 10 11  1  0
 11 12  2  0
 12 13  1  0
 13 14  2  0
 14 15  1  0
 15 16  1  0
 16 17  2  0
 17 18  1  0
 18 19  2  0
 19 20  1  0
 20 21  2  0
 20 22  1  0
 22 23  1  0
 23 24  2  0
 24 25  1  0
 25 26  2  0
 26 27  1  0
 27 28  2  0
 19 29  1  0
 29 30  2  0
  7 31  1  0
 31 32  2  0
 32 33  1  0
 33 34  2  0
 34 35  1  0
 35 36  2  0
 36  2  1  0
 15 11  1  0
 29 16  1  0
 36 31  1  0
 28 23  1  0
M  END
>  <Title>  (769) 
idABBQgen13

$$$$

     RDKit          2D

 29 30  0  0  0  0  0  0  0  0999 V2000
   -2.6235   -0.8412    0.0000 C   0  0  0  0  0  0  0  0  0  0  0  0
   -2.5293    0.6558    0.0000 C   0  0  0  0  0  0  0  0  0  0  0  0
   -4.0028    0.9369    0.0000 C   0  0  0  0  0  0  0  0  0  0  0  0
   -5.3600    1.5756    0.0000 C   0  0  0  0  0  0  0  0  0  0  0  0
   -6.5158    2.5317    0.0000 C   0  0  0  0  0  0  0  0  0  0  0  0
   -7.3974    3.7452    0.0000 C   0  0  0  0  0  0  0  0  0  0  0  0
   -7.9496    5.1399    0.0000 C   0  0  0  0  0  0  0  0  0  0  0  0
   -8.1376    6.6281    0.0000 C   0  0  0  0  0  0  0  0  0  0  0  0
   -7.9496    8.1162    0.0000 C   0  0  0  0  0  0  0  0  0  0  0  0
   -7.3974    9.5109    0.0000 C   0  0  0  0  0  0  0  0  0  0  0  0
   -6.5158   10.7244    0.0000 C   0  0  0  0  0  0  0  0  0  0  0  0
   -5.3600   11.6806    0.0000 C   0  0  0  0  0  0  0  0  0  0  0  0
   -4.0028   12.3192    0.0000 C   0  0  0  0  0  0  0  0  0  0  0  0
   -2.5293   12.6003    0.0000 C   0  0  0  0  0  0  0  0  0  0  0  0
   -1.0323   12.5061    0.0000 C   0  0  0  0  0  0  0  0  0  0  0  0
    0.3943   12.0426    0.0000 C   0  0  0  0  0  0  0  0  0  0  0  0
    1.6608   11.2388    0.0000 C   0  0  0  0  0  0  0  0  0  0  0  0
    2.6876   10.1454    0.0000 C   0  0  0  0  0  0  0  0  0  0  0  0
    3.4102    8.8309    0.0000 C   0  0  0  0  0  0  0  0  0  0  0  0
    3.7833    7.3781    0.0000 C   0  0  0  0  0  0  0  0  0  0  0  0
    3.7833    5.8781    0.0000 C   0  0  0  0  0  0  0  0  0  0  0  0
    3.4102    4.4252    0.0000 C   0  0  0  0  0  0  0  0  0  0  0  0
    2.6876    3.1107    0.0000 C   0  0  0  0  0  0  0  0  0  0  0  0
    1.6608    2.0173    0.0000 C   0  0  0  0  0  0  0  0  0  0  0  0
    0.3943    1.2135    0.0000 C   0  0  0  0  0  0  0  0  0  0  0  0
    1.2760    0.0000    0.0000 C   0  0  0  0  0  0  0  0  0  0  0  0
    0.3943   -1.2135    0.0000 C   0  0  0  0  0  0  0  0  0  0  0  0
   -1.0323   -0.7500    0.0000 C   0  0  0  0  0  0  0  0  0  0  0  0
   -1.0323    0.7500    0.0000 C   0  0  0  0  0  0  0  0  0  0  0  0
  1  2  1  0
  2  3  1  0
  3  4  1  0
  4  5  1  0
  5  6  1  0
  6  7  1  0
  7  8  1  0
  8  9  1  0
  9 10  1  0
 10 11  2  0
 11 12  1  0
 12 13  2  0
 13 14  1  0
 14 15  2  0
 15 16  1  0
 16 17  2  0
 17 18  1  0
 18 19  2  0
 19 20  1  0
 20 21  2  0
 21 22  1  0
 22 23  2  0
 23 24  1  0
 24 25  2  0
 25 26  1  0
 26 27  2  0
 27 28  1  0
 28 29  2  0
 29  2  1  0
 29 25  1  0
M  END
>  <Title>  (770) 
idABBRgen13

$$$$

     RDKit          2D

 10 10  0  0  0  0  0  0  0  0999 V2000
    6.0000   -2.5981    0.0000 C   0  0  0  0  0  0  0  0  0  0  0  0
    5.2500   -1.2990    0.0000 C   0  0  0  0  0  0  0  0  0  0  0  0
    3.7500   -1.2990    0.0000 C   0  0  0  0  0  0  0  0  0  0  0  0
    3.0000    0.0000    0.0000 O   0  0  0  0  0  0  0  0  0  0  0  0
    1.5000    0.0000    0.0000 C   0  0  0  0  0  0  0  0  0  0  0  0
    0.7500   -1.2990    0.0000 C   0  0  0  0  0  0  0  0  0  0  0  0
   -0.7500   -1.2990    0.0000 C   0  0  0  0  0  0  0  0  0  0  0  0
   -1.5000    0.0000    0.0000 C   0  0  0  0  0  0  0  0  0  0  0  0
   -0.7500    1.2990    0.0000 C   0  0  0  0  0  0  0  0  0  0  0  0
    0.7500    1.2990    0.0000 C   0  0  0  0  0  0  0  0  0  0  0  0
  1  2  2  0
  2  3  1  0
  3  4  1  0
  4  5  1  0
  5  6  2  0
  6  7  1  0
  7  8  2  0
  8  9  1  0
  9 10  2  0
 10  5  1  0
M  END
>  <Title>  (771) 
idABBSgen13

$$$$

     RDKit          2D

  4  3  0  0  0  0  0  0  0  0999 V2000
    0.0000    0.0000    0.0000 C   0  0  0  0  0  0  0  0  0  0  0  0
    1.2990    0.7500    0.0000 C   0  0  0  0  0  0  0  0  0  0  0  0
    2.5981   -0.0000    0.0000 C   0  0  0  0  0  0  0  0  0  0  0  0
    1.2990    2.2500    0.0000 C   0  0  0  0  0  0  0  0  0  0  0  0
  1  2  2  0
  2  3  1  0
  2  4  1  0
M  END
>  <Title>  (772) 
idABBTgen13

$$$$

     RDKit          2D

 76 78  0  0  0  0  0  0  0  0999 V2000
   -2.4508    0.0482    0.0000 C   0  0  0  0  0  0  0  0  0  0  0  0
   -2.2436   -1.4374    0.0000 C   0  0  0  0  0  0  0  0  0  0  0  0
   -3.7181   -1.7131    0.0000 C   0  0  0  0  0  0  0  0  0  0  0  0
   -5.1608   -2.1236    0.0000 C   0  0  0  0  0  0  0  0  0  0  0  0
   -6.5595   -2.6654    0.0000 C   0  0  0  0  0  0  0  0  0  0  0  0
   -7.9023   -3.3340    0.0000 C   0  0  0  0  0  0  0  0  0  0  0  0
   -9.1776   -4.1237    0.0000 C   0  0  0  0  0  0  0  0  0  0  0  0
  -10.3746   -5.0276    0.0000 C   0  0  0  0  0  0  0  0  0  0  0  0
  -11.4831   -6.0382    0.0000 C   0  0  0  0  0  0  0  0  0  0  0  0
  -12.4937   -7.1467    0.0000 C   0  0  0  0  0  0  0  0  0  0  0  0
  -13.3976   -8.3437    0.0000 C   0  0  0  0  0  0  0  0  0  0  0  0
  -14.1873   -9.6190    0.0000 C   0  0  0  0  0  0  0  0  0  0  0  0
  -14.8559  -10.9618    0.0000 C   0  0  0  0  0  0  0  0  0  0  0  0
  -15.3977  -12.3605    0.0000 C   0  0  0  0  0  0  0  0  0  0  0  0
  -15.8082  -13.8032    0.0000 C   0  0  0  0  0  0  0  0  0  0  0  0
  -16.0839  -15.2777    0.0000 C   0  0  0  0  0  0  0  0  0  0  0  0
  -16.2223  -16.7713    0.0000 C   0  0  0  0  0  0  0  0  0  0  0  0
  -16.2223  -18.2713    0.0000 C   0  0  0  0  0  0  0  0  0  0  0  0
  -16.0839  -19.7649    0.0000 C   0  0  0  0  0  0  0  0  0  0  0  0
  -15.8082  -21.2394    0.0000 C   0  0  0  0  0  0  0  0  0  0  0  0
  -15.3977  -22.6821    0.0000 C   0  0  0  0  0  0  0  0  0  0  0  0
  -14.8559  -24.0808    0.0000 C   0  0  0  0  0  0  0  0  0  0  0  0
  -14.1873  -25.4235    0.0000 C   0  0  0  0  0  0  0  0  0  0  0  0
  -13.3976  -26.6989    0.0000 C   0  0  0  0  0  0  0  0  0  0  0  0
  -12.4937  -27.8959    0.0000 C   0  0  0  0  0  0  0  0  0  0  0  0
  -11.4831  -29.0044    0.0000 C   0  0  0  0  0  0  0  0  0  0  0  0
  -10.3746  -30.0150    0.0000 C   0  0  0  0  0  0  0  0  0  0  0  0
   -9.1776  -30.9189    0.0000 C   0  0  0  0  0  0  0  0  0  0  0  0
   -7.9023  -31.7086    0.0000 C   0  0  0  0  0  0  0  0  0  0  0  0
   -6.5595  -32.3772    0.0000 C   0  0  0  0  0  0  0  0  0  0  0  0
   -5.1608  -32.9190    0.0000 C   0  0  0  0  0  0  0  0  0  0  0  0
   -3.7181  -33.3295    0.0000 C   0  0  0  0  0  0  0  0  0  0  0  0
   -2.2436  -33.6051    0.0000 C   0  0  0  0  0  0  0  0  0  0  0  0
   -0.7500  -33.7435    0.0000 C   0  0  0  0  0  0  0  0  0  0  0  0
    0.7500  -33.7435    0.0000 C   0  0  0  0  0  0  0  0  0  0  0  0
    2.2436  -33.6051    0.0000 C   0  0  0  0  0  0  0  0  0  0  0  0
    3.7181  -33.3295    0.0000 C   0  0  0  0  0  0  0  0  0  0  0  0
    5.1608  -32.9190    0.0000 C   0  0  0  0  0  0  0  0  0  0  0  0
    6.5595  -32.3772    0.0000 C   0  0  0  0  0  0  0  0  0  0  0  0
    7.9023  -31.7086    0.0000 C   0  0  0  0  0  0  0  0  0  0  0  0
    9.1776  -30.9189    0.0000 C   0  0  0  0  0  0  0  0  0  0  0  0
   10.3746  -30.0150    0.0000 C   0  0  0  0  0  0  0  0  0  0  0  0
   11.4831  -29.0044    0.0000 C   0  0  0  0  0  0  0  0  0  0  0  0
   12.4937  -27.8959    0.0000 C   0  0  0  0  0  0  0  0  0  0  0  0
   13.3976  -26.6989    0.0000 C   0  0  0  0  0  0  0  0  0  0  0  0
   14.1873  -25.4235    0.0000 C   0  0  0  0  0  0  0  0  0  0  0  0
   14.8559  -24.0808    0.0000 C   0  0  0  0  0  0  0  0  0  0  0  0
   15.3977  -22.6821    0.0000 C   0  0  0  0  0  0  0  0  0  0  0  0
   15.8082  -21.2394    0.0000 C   0  0  0  0  0  0  0  0  0  0  0  0
   16.0839  -19.7649    0.0000 C   0  0  0  0  0  0  0  0  0  0  0  0
   16.2223  -18.2713    0.0000 C   0  0  0  0  0  0  0  0  0  0  0  0
   16.2223  -16.7713    0.0000 C   0  0  0  0  0  0  0  0  0  0  0  0
   16.0839  -15.2777    0.0000 C   0  0  0  0  0  0  0  0  0  0  0  0
   15.8082  -13.8032    0.0000 C   0  0  0  0  0  0  0  0  0  0  0  0
   15.3977  -12.3605    0.0000 C   0  0  0  0  0  0  0  0  0  0  0  0
   14.8559  -10.9618    0.0000 C   0  0  0  0  0  0  0  0  0  0  0  0
   14.1873   -9.6190    0.0000 C   0  0  0  0  0  0  0  0  0  0  0  0
   13.3976   -8.3437    0.0000 C   0  0  0  0  0  0  0  0  0  0  0  0
   12.4937   -7.1467    0.0000 C   0  0  0  0  0  0  0  0  0  0  0  0
   11.4831   -6.0382    0.0000 C   0  0  0  0  0  0  0  0  0  0  0  0
   10.3746   -5.0276    0.0000 C   0  0  0  0  0  0  0  0  0  0  0  0
    9.1776   -4.1237    0.0000 C   0  0  0  0  0  0  0  0  0  0  0  0
    7.9023   -3.3340    0.0000 C   0  0  0  0  0  0  0  0  0  0  0  0
    6.5595   -2.6654    0.0000 C   0  0  0  0  0  0  0  0  0  0  0  0
    5.1608   -2.1236    0.0000 C   0  0  0  0  0  0  0  0  0  0  0  0
    3.7181   -1.7131    0.0000 C   0  0  0  0  0  0  0  0  0  0  0  0
    3.9116   -3.2005    0.0000 C   0  0  0  0  0  0  0  0  0  0  0  0
    2.5567   -3.8442    0.0000 C   0  0  0  0  0  0  0  0  0  0  0  0
    1.5258   -2.7546    0.0000 C   0  0  0  0  0  0  0  0  0  0  0  0
    2.2436   -1.4374    0.0000 C   0  0  0  0  0  0  0  0  0  0  0  0
    0.7500   -1.2990    0.0000 C   0  0  0  0  0  0  0  0  0  0  0  0
    1.5000    0.0000    0.0000 C   0  0  0  0  0  0  0  0  0  0  0  0
    0.7500    1.2990    0.0000 C   0  0  0  0  0  0  0  0  0  0  0  0
   -0.7500    1.2990    0.0000 C   0  0  0  0  0  0  0  0  0  0  0  0
   -1.5000    0.0000    0.0000 C   0  0  0  0  0  0  0  0  0  0  0  0
   -0.7500   -1.2990    0.0000 C   0  0  0  0  0  0  0  0  0  0  0  0
  1  2  1  0
  2  3  1  0
  3  4  1  0
  4  5  1  0
  5  6  1  0
  6  7  1  0
  7  8  1  0
  8  9  1  0
  9 10  1  0
 10 11  1  0
 11 12  1  0
 12 13  1  0
 13 14  1  0
 14 15  1  0
 15 16  1  0
 16 17  1  0
 17 18  1  0
 18 19  1  0
 19 20  1  0
 20 21  1  0
 21 22  1  0
 22 23  1  0
 23 24  1  0
 24 25  1  0
 25 26  1  0
 26 27  1  0
 27 28  1  0
 28 29  1  0
 29 30  1  0
 30 31  1  0
 31 32  1  0
 32 33  1  0
 33 34  1  0
 34 35  1  0
 35 36  1  0
 36 37  1  0
 37 38  1  0
 38 39  1  0
 39 40  1  0
 40 41  1  0
 41 42  1  0
 42 43  1  0
 43 44  1  0
 44 45  1  0
 45 46  1  0
 46 47  1  0
 47 48  1  0
 48 49  1  0
 49 50  1  0
 50 51  1  0
 51 52  1  0
 52 53  1  0
 53 54  1  0
 54 55  1  0
 55 56  1  0
 56 57  1  0
 57 58  1  0
 58 59  1  0
 59 60  1  0
 60 61  1  0
 61 62  1  0
 62 63  1  0
 63 64  1  0
 64 65  1  0
 65 66  1  0
 66 67  1  0
 67 68  2  0
 68 69  1  0
 69 70  2  0
 70 71  1  0
 71 72  2  0
 72 73  1  0
 73 74  2  0
 74 75  1  0
 75 76  2  0
 76  2  1  0
 70 66  1  0
 76 71  1  0
M  END
>  <Title>  (773) 
idABBUgen13

$$$$

     RDKit          2D

  5  4  0  0  0  0  0  0  0  0999 V2000
    0.0000    0.0000    0.0000 C   0  0  0  0  0  0  0  0  0  0  0  0
   -0.0000   -1.5000    0.0000 C   0  0  0  0  0  0  0  0  0  0  0  0
   -0.0000   -3.0000    0.0000 C   0  0  0  0  0  0  0  0  0  0  0  0
    1.2990   -3.7500    0.0000 O   0  0  0  0  0  0  0  0  0  0  0  0
    1.2990   -5.2500    0.0000 C   0  0  0  0  0  0  0  0  0  0  0  0
  1  2  3  0
  2  3  1  0
  3  4  1  0
  4  5  1  0
M  END
>  <Title>  (774) 
idABBVgen13

$$$$

     RDKit          2D

 56 58  0  0  0  0  0  0  0  0999 V2000
    1.5197    6.2157    0.0000 C   0  0  0  0  0  0  0  0  0  0  0  0
    2.3223    4.9485    0.0000 C   0  0  0  0  0  0  0  0  0  0  0  0
    1.6261    3.6198    0.0000 C   0  0  0  0  0  0  0  0  0  0  0  0
    0.1274    3.5584    0.0000 C   0  0  0  0  0  0  0  0  0  0  0  0
   -0.6752    4.8256    0.0000 C   0  0  0  0  0  0  0  0  0  0  0  0
    0.0210    6.1543    0.0000 C   0  0  0  0  0  0  0  0  0  0  0  0
   -1.2847    6.1962    0.0000 C   0  0  0  0  0  0  0  0  0  0  0  0
   -1.6881    7.6410    0.0000 C   0  0  0  0  0  0  0  0  0  0  0  0
   -1.8769    9.1290    0.0000 C   0  0  0  0  0  0  0  0  0  0  0  0
   -1.8471   10.6287    0.0000 C   0  0  0  0  0  0  0  0  0  0  0  0
   -1.5991   12.1081    0.0000 C   0  0  0  0  0  0  0  0  0  0  0  0
   -1.1384   13.5356    0.0000 C   0  0  0  0  0  0  0  0  0  0  0  0
   -0.4748   14.8808    0.0000 C   0  0  0  0  0  0  0  0  0  0  0  0
    0.3776   16.1151    0.0000 C   0  0  0  0  0  0  0  0  0  0  0  0
    1.4006   17.2121    0.0000 C   0  0  0  0  0  0  0  0  0  0  0  0
    2.5725   18.1484    0.0000 C   0  0  0  0  0  0  0  0  0  0  0  0
    3.8682   18.9042    0.0000 C   0  0  0  0  0  0  0  0  0  0  0  0
    5.2601   19.4632    0.0000 C   0  0  0  0  0  0  0  0  0  0  0  0
    6.7186   19.8136    0.0000 C   0  0  0  0  0  0  0  0  0  0  0  0
    8.2126   19.9479    0.0000 C   0  0  0  0  0  0  0  0  0  0  0  0
    9.7102   19.8633    0.0000 C   0  0  0  0  0  0  0  0  0  0  0  0
   11.1795   19.5615    0.0000 C   0  0  0  0  0  0  0  0  0  0  0  0
   12.5893   19.0490    0.0000 C   0  0  0  0  0  0  0  0  0  0  0  0
   13.9093   18.3367    0.0000 C   0  0  0  0  0  0  0  0  0  0  0  0
   15.1116   17.4398    0.0000 C   0  0  0  0  0  0  0  0  0  0  0  0
   16.1705   16.3773    0.0000 C   0  0  0  0  0  0  0  0  0  0  0  0
   17.0635   15.1721    0.0000 C   0  0  0  0  0  0  0  0  0  0  0  0
   17.7714   13.8496    0.0000 C   0  0  0  0  0  0  0  0  0  0  0  0
   18.2792   12.4382    0.0000 C   0  0  0  0  0  0  0  0  0  0  0  0
   18.5761   10.9679    0.0000 C   0  0  0  0  0  0  0  0  0  0  0  0
   18.6558    9.4700    0.0000 C   0  0  0  0  0  0  0  0  0  0  0  0
   18.5165    7.9765    0.0000 C   0  0  0  0  0  0  0  0  0  0  0  0
   18.1613    6.5192    0.0000 C   0  0  0  0  0  0  0  0  0  0  0  0
   17.5976    5.1291    0.0000 C   0  0  0  0  0  0  0  0  0  0  0  0
   16.8376    3.8359    0.0000 C   0  0  0  0  0  0  0  0  0  0  0  0
   15.8973    2.6672    0.0000 C   0  0  0  0  0  0  0  0  0  0  0  0
   14.7969    1.6478    0.0000 C   0  0  0  0  0  0  0  0  0  0  0  0
   13.5599    0.7995    0.0000 C   0  0  0  0  0  0  0  0  0  0  0  0
   12.2124    0.1403    0.0000 C   0  0  0  0  0  0  0  0  0  0  0  0
   10.7834   -0.3156    0.0000 C   0  0  0  0  0  0  0  0  0  0  0  0
    9.3032   -0.5586    0.0000 C   0  0  0  0  0  0  0  0  0  0  0  0
    7.8034   -0.5835    0.0000 C   0  0  0  0  0  0  0  0  0  0  0  0
    6.3160   -0.3898    0.0000 C   0  0  0  0  0  0  0  0  0  0  0  0
    4.8726    0.0184    0.0000 C   0  0  0  0  0  0  0  0  0  0  0  0
    3.5041    0.6325    0.0000 C   0  0  0  0  0  0  0  0  0  0  0  0
    2.2395    1.4392    0.0000 C   0  0  0  0  0  0  0  0  0  0  0  0
    2.6621    0.0000    0.0000 C   0  0  0  0  0  0  0  0  0  0  0  0
    2.2395   -1.4392    0.0000 C   0  0  0  0  0  0  0  0  0  0  0  0
    1.1059   -2.4215    0.0000 C   0  0  0  0  0  0  0  0  0  0  0  0
   -0.3789   -2.6350    0.0000 C   0  0  0  0  0  0  0  0  0  0  0  0
   -1.7433   -2.0119    0.0000 C   0  0  0  0  0  0  0  0  0  0  0  0
   -2.5543   -0.7500    0.0000 C   0  0  0  0  0  0  0  0  0  0  0  0
   -2.5543    0.7500    0.0000 C   0  0  0  0  0  0  0  0  0  0  0  0
   -1.7433    2.0119    0.0000 C   0  0  0  0  0  0  0  0  0  0  0  0
   -0.3789    2.6350    0.0000 C   0  0  0  0  0  0  0  0  0  0  0  0
    1.1059    2.4215    0.0000 C   0  0  0  0  0  0  0  0  0  0  0  0
  1  2  2  0
  2  3  1  0
  3  4  2  0
  4  5  1  0
  5  6  2  0
  5  7  1  0
  7  8  1  0
  8  9  1  0
  9 10  1  0
 10 11  1  0
 11 12  1  0
 12 13  1  0
 13 14  1  0
 14 15  1  0
 15 16  1  0
 16 17  1  0
 17 18  1  0
 18 19  1  0
 19 20  1  0
 20 21  1  0
 21 22  1  0
 22 23  1  0
 23 24  1  0
 24 25  1  0
 25 26  1  0
 26 27  1  0
 27 28  1  0
 28 29  1  0
 29 30  1  0
 30 31  1  0
 31 32  1  0
 32 33  1  0
 33 34  1  0
 34 35  1  0
 35 36  1  0
 36 37  1  0
 37 38  1  0
 38 39  1  0
 39 40  1  0
 40 41  1  0
 41 42  1  0
 42 43  1  0
 43 44  1  0
 44 45  1  0
 45 46  1  0
 46 47  1  0
 47 48  1  0
 48 49  1  0
 49 50  1  0
 50 51  1  0
 51 52  1  0
 52 53  1  0
 53 54  1  0
 54 55  1  0
 55 56  1  0
  6  1  1  0
 56 46  1  0
 56  4  1  0
M  END
>  <Title>  (775) 
idABBWgen13

$$$$

     RDKit          2D

 60 61  0  0  0  0  0  0  0  0999 V2000
   -2.2838   -1.0350    0.0000 C   0  0  0  0  0  0  0  0  0  0  0  0
   -2.5018    0.4491    0.0000 C   0  0  0  0  0  0  0  0  0  0  0  0
   -3.9958    0.3147    0.0000 C   0  0  0  0  0  0  0  0  0  0  0  0
   -5.4954    0.3483    0.0000 C   0  0  0  0  0  0  0  0  0  0  0  0
   -6.9818    0.5497    0.0000 C   0  0  0  0  0  0  0  0  0  0  0  0
   -8.4363    0.9162    0.0000 C   0  0  0  0  0  0  0  0  0  0  0  0
   -9.8407    1.4432    0.0000 C   0  0  0  0  0  0  0  0  0  0  0  0
  -11.1772    2.1242    0.0000 C   0  0  0  0  0  0  0  0  0  0  0  0
  -12.4291    2.9506    0.0000 C   0  0  0  0  0  0  0  0  0  0  0  0
  -13.5805    3.9119    0.0000 C   0  0  0  0  0  0  0  0  0  0  0  0
  -14.6171    4.9961    0.0000 C   0  0  0  0  0  0  0  0  0  0  0  0
  -15.5258    6.1895    0.0000 C   0  0  0  0  0  0  0  0  0  0  0  0
  -16.2952    7.4772    0.0000 C   0  0  0  0  0  0  0  0  0  0  0  0
  -16.9155    8.8429    0.0000 C   0  0  0  0  0  0  0  0  0  0  0  0
  -17.3790   10.2695    0.0000 C   0  0  0  0  0  0  0  0  0  0  0  0
  -17.6799   11.7390    0.0000 C   0  0  0  0  0  0  0  0  0  0  0  0
  -17.8144   13.2330    0.0000 C   0  0  0  0  0  0  0  0  0  0  0  0
  -17.7807   14.7326    0.0000 C   0  0  0  0  0  0  0  0  0  0  0  0
  -17.5794   16.2190    0.0000 C   0  0  0  0  0  0  0  0  0  0  0  0
  -17.2128   17.6735    0.0000 C   0  0  0  0  0  0  0  0  0  0  0  0
  -16.6858   19.0779    0.0000 C   0  0  0  0  0  0  0  0  0  0  0  0
  -16.0048   20.4144    0.0000 C   0  0  0  0  0  0  0  0  0  0  0  0
  -15.1785   21.6663    0.0000 C   0  0  0  0  0  0  0  0  0  0  0  0
  -14.2171   22.8177    0.0000 C   0  0  0  0  0  0  0  0  0  0  0  0
  -13.1329   23.8543    0.0000 C   0  0  0  0  0  0  0  0  0  0  0  0
  -11.9395   24.7630    0.0000 C   0  0  0  0  0  0  0  0  0  0  0  0
  -10.6518   25.5324    0.0000 C   0  0  0  0  0  0  0  0  0  0  0  0
   -9.2861   26.1527    0.0000 C   0  0  0  0  0  0  0  0  0  0  0  0
   -7.8595   26.6162    0.0000 C   0  0  0  0  0  0  0  0  0  0  0  0
   -6.3900   26.9171    0.0000 C   0  0  0  0  0  0  0  0  0  0  0  0
   -4.8961   27.0516    0.0000 C   0  0  0  0  0  0  0  0  0  0  0  0
   -3.3964   27.0179    0.0000 C   0  0  0  0  0  0  0  0  0  0  0  0
   -1.9100   26.8166    0.0000 C   0  0  0  0  0  0  0  0  0  0  0  0
   -0.4555   26.4500    0.0000 C   0  0  0  0  0  0  0  0  0  0  0  0
    0.9489   25.9230    0.0000 C   0  0  0  0  0  0  0  0  0  0  0  0
    2.2854   25.2420    0.0000 C   0  0  0  0  0  0  0  0  0  0  0  0
    3.5372   24.4157    0.0000 C   0  0  0  0  0  0  0  0  0  0  0  0
    4.6887   23.4543    0.0000 C   0  0  0  0  0  0  0  0  0  0  0  0
    5.7253   22.3701    0.0000 C   0  0  0  0  0  0  0  0  0  0  0  0
    6.6340   21.1767    0.0000 C   0  0  0  0  0  0  0  0  0  0  0  0
    7.4033   19.8890    0.0000 C   0  0  0  0  0  0  0  0  0  0  0  0
    8.0237   18.5233    0.0000 C   0  0  0  0  0  0  0  0  0  0  0  0
    8.4872   17.0967    0.0000 C   0  0  0  0  0  0  0  0  0  0  0  0
    8.7881   15.6272    0.0000 C   0  0  0  0  0  0  0  0  0  0  0  0
    8.9225   14.1333    0.0000 C   0  0  0  0  0  0  0  0  0  0  0  0
    8.8889   12.6336    0.0000 C   0  0  0  0  0  0  0  0  0  0  0  0
    8.6875   11.1472    0.0000 C   0  0  0  0  0  0  0  0  0  0  0  0
    8.3210    9.6927    0.0000 C   0  0  0  0  0  0  0  0  0  0  0  0
    7.7940    8.2883    0.0000 C   0  0  0  0  0  0  0  0  0  0  0  0
    7.1130    6.9518    0.0000 C   0  0  0  0  0  0  0  0  0  0  0  0
    6.2866    5.7000    0.0000 C   0  0  0  0  0  0  0  0  0  0  0  0
    5.3253    4.5485    0.0000 C   0  0  0  0  0  0  0  0  0  0  0  0
    4.2411    3.5119    0.0000 C   0  0  0  0  0  0  0  0  0  0  0  0
    3.0477    2.6032    0.0000 C   0  0  0  0  0  0  0  0  0  0  0  0
    1.7600    1.8339    0.0000 C   0  0  0  0  0  0  0  0  0  0  0  0
    0.3943    1.2135    0.0000 C   0  0  0  0  0  0  0  0  0  0  0  0
    1.2760    0.0000    0.0000 C   0  0  0  0  0  0  0  0  0  0  0  0
    0.3943   -1.2135    0.0000 C   0  0  0  0  0  0  0  0  0  0  0  0
   -1.0323   -0.7500    0.0000 C   0  0  0  0  0  0  0  0  0  0  0  0
   -1.0323    0.7500    0.0000 C   0  0  0  0  0  0  0  0  0  0  0  0
  1  2  1  0
  2  3  1  0
  3  4  1  0
  4  5  1  0
  5  6  1  0
  6  7  1  0
  7  8  1  0
  8  9  1  0
  9 10  1  0
 10 11  1  0
 11 12  2  0
 12 13  1  0
 13 14  2  0
 14 15  1  0
 15 16  2  0
 16 17  1  0
 17 18  2  0
 18 19  1  0
 19 20  2  0
 20 21  1  0
 21 22  2  0
 22 23  1  0
 23 24  2  0
 24 25  1  0
 25 26  2  0
 26 27  1  0
 27 28  2  0
 28 29  1  0
 29 30  2  0
 30 31  1  0
 31 32  2  0
 32 33  1  0
 33 34  2  0
 34 35  1  0
 35 36  2  0
 36 37  1  0
 37 38  2  0
 38 39  1  0
 39 40  2  0
 40 41  1  0
 41 42  2  0
 42 43  1  0
 43 44  2  0
 44 45  1  0
 45 46  2  0
 46 47  1  0
 47 48  2  0
 48 49  1  0
 49 50  2  0
 50 51  1  0
 51 52  2  0
 52 53  1  0
 53 54  2  0
 54 55  1  0
 55 56  2  0
 56 57  1  0
 57 58  2  0
 58 59  1  0
 59 60  2  0
 60  2  1  0
 60 56  1  0
M  END
>  <Title>  (776) 
idABBXgen13

$$$$

     RDKit          2D

 37 42  0  0  0  0  0  0  0  0999 V2000
   -1.3240   -6.3062    0.0000 C   0  0  0  0  0  0  0  0  0  0  0  0
   -0.7500   -4.9204    0.0000 C   0  0  0  0  0  0  0  0  0  0  0  0
    0.7500   -4.9204    0.0000 C   0  0  0  0  0  0  0  0  0  0  0  0
    1.8107   -3.8597    0.0000 C   0  0  0  0  0  0  0  0  0  0  0  0
    1.8107   -2.3597    0.0000 C   0  0  0  0  0  0  0  0  0  0  0  0
    3.1965   -1.7857    0.0000 N   0  0  0  0  0  0  0  0  0  0  0  0
    3.5466   -0.3271    0.0000 N   0  0  0  0  0  0  0  0  0  0  0  0
    5.0420   -0.2094    0.0000 C   0  0  0  0  0  0  0  0  0  0  0  0
    5.6160   -1.5952    0.0000 N   0  0  0  0  0  0  0  0  0  0  0  0
    4.4754   -2.5694    0.0000 N   0  0  0  0  0  0  0  0  0  0  0  0
    4.5931   -4.0648    0.0000 C   0  0  0  0  0  0  0  0  0  0  0  0
    5.8721   -4.8485    0.0000 C   0  0  0  0  0  0  0  0  0  0  0  0
    5.5219   -6.3071    0.0000 C   0  0  0  0  0  0  0  0  0  0  0  0
    4.0265   -6.4248    0.0000 C   0  0  0  0  0  0  0  0  0  0  0  0
    3.2428   -7.7037    0.0000 C   0  0  0  0  0  0  0  0  0  0  0  0
    1.7433   -7.6645    0.0000 O   0  0  0  0  0  0  0  0  0  0  0  0
    3.9585   -9.0220    0.0000 N   0  0  0  0  0  0  0  0  0  0  0  0
    3.1748  -10.3009    0.0000 C   0  0  0  0  0  0  0  0  0  0  0  0
    1.6753  -10.2617    0.0000 N   0  0  0  0  0  0  0  0  0  0  0  0
    0.8916  -11.5406    0.0000 N   0  0  0  0  0  0  0  0  0  0  0  0
    1.6073  -12.8589    0.0000 N   0  0  0  0  0  0  0  0  0  0  0  0
    3.1068  -12.8981    0.0000 N   0  0  0  0  0  0  0  0  0  0  0  0
    3.8905  -11.6192    0.0000 N   0  0  0  0  0  0  0  0  0  0  0  0
    3.4525   -5.0390    0.0000 C   0  0  0  0  0  0  0  0  0  0  0  0
    1.9940   -4.6888    0.0000 O   0  0  0  0  0  0  0  0  0  0  0  0
    0.7500   -1.2990    0.0000 C   0  0  0  0  0  0  0  0  0  0  0  0
    1.5000    0.0000    0.0000 C   0  0  0  0  0  0  0  0  0  0  0  0
    0.7500    1.2990    0.0000 C   0  0  0  0  0  0  0  0  0  0  0  0
   -0.7500    1.2990    0.0000 C   0  0  0  0  0  0  0  0  0  0  0  0
   -1.5000    0.0000    0.0000 C   0  0  0  0  0  0  0  0  0  0  0  0
   -0.7500   -1.2990    0.0000 C   0  0  0  0  0  0  0  0  0  0  0  0
   -1.8107   -2.3597    0.0000 C   0  0  0  0  0  0  0  0  0  0  0  0
   -3.1097   -1.6097    0.0000 C   0  0  0  0  0  0  0  0  0  0  0  0
   -4.4087   -2.3597    0.0000 C   0  0  0  0  0  0  0  0  0  0  0  0
   -4.4087   -3.8597    0.0000 C   0  0  0  0  0  0  0  0  0  0  0  0
   -3.1097   -4.6097    0.0000 C   0  0  0  0  0  0  0  0  0  0  0  0
   -1.8107   -3.8597    0.0000 C   0  0  0  0  0  0  0  0  0  0  0  0
  1  2  1  0
  2  3  2  0
  3  4  1  0
  4  5  2  0
  5  6  1  0
  6  7  1  0
  7  8  1  0
  8  9  1  0
  9 10  1  0
 10 11  1  0
 11 12  2  0
 12 13  1  0
 13 14  2  0
 14 15  1  0
 15 16  2  0
 15 17  1  0
 17 18  1  0
 18 19  2  0
 19 20  1  0
 20 21  2  0
 21 22  1  0
 22 23  2  0
 14 24  1  0
 24 25  2  0
  5 26  1  0
 26 27  2  0
 27 28  1  0
 28 29  2  0
 29 30  1  0
 30 31  2  0
 31 32  1  0
 32 33  2  0
 33 34  1  0
 34 35  2  0
 35 36  1  0
 36 37  2  0
 37  2  1  0
 10  6  1  0
 24 11  1  0
 31 26  1  0
 37 32  1  0
 23 18  1  0
M  END
>  <Title>  (777) 
idABBYgen13

$$$$

     RDKit          2D

 64 65  0  0  0  0  0  0  0  0999 V2000
    0.9951    3.5916    0.0000 C   0  0  0  0  0  0  0  0  0  0  0  0
    2.3999    4.1173    0.0000 C   0  0  0  0  0  0  0  0  0  0  0  0
    1.9673    5.5535    0.0000 C   0  0  0  0  0  0  0  0  0  0  0  0
    1.7258    7.0339    0.0000 C   0  0  0  0  0  0  0  0  0  0  0  0
    1.6796    8.5332    0.0000 C   0  0  0  0  0  0  0  0  0  0  0  0
    1.8295   10.0257    0.0000 C   0  0  0  0  0  0  0  0  0  0  0  0
    2.1729   11.4859    0.0000 C   0  0  0  0  0  0  0  0  0  0  0  0
    2.7040   12.8887    0.0000 C   0  0  0  0  0  0  0  0  0  0  0  0
    3.4136   14.2102    0.0000 C   0  0  0  0  0  0  0  0  0  0  0  0
    4.2897   15.4278    0.0000 C   0  0  0  0  0  0  0  0  0  0  0  0
    5.3172   16.5206    0.0000 C   0  0  0  0  0  0  0  0  0  0  0  0
    6.4785   17.4700    0.0000 C   0  0  0  0  0  0  0  0  0  0  0  0
    7.7539   18.2597    0.0000 C   0  0  0  0  0  0  0  0  0  0  0  0
    9.1213   18.8761    0.0000 C   0  0  0  0  0  0  0  0  0  0  0  0
   10.5576   19.3087    0.0000 C   0  0  0  0  0  0  0  0  0  0  0  0
   12.0380   19.5502    0.0000 C   0  0  0  0  0  0  0  0  0  0  0  0
   13.5373   19.5964    0.0000 C   0  0  0  0  0  0  0  0  0  0  0  0
   15.0298   19.4465    0.0000 C   0  0  0  0  0  0  0  0  0  0  0  0
   16.4900   19.1031    0.0000 C   0  0  0  0  0  0  0  0  0  0  0  0
   17.8928   18.5720    0.0000 C   0  0  0  0  0  0  0  0  0  0  0  0
   19.2143   17.8624    0.0000 C   0  0  0  0  0  0  0  0  0  0  0  0
   20.4319   16.9863    0.0000 C   0  0  0  0  0  0  0  0  0  0  0  0
   21.5247   15.9588    0.0000 C   0  0  0  0  0  0  0  0  0  0  0  0
   22.4741   14.7975    0.0000 C   0  0  0  0  0  0  0  0  0  0  0  0
   23.2637   13.5222    0.0000 C   0  0  0  0  0  0  0  0  0  0  0  0
   23.8802   12.1547    0.0000 C   0  0  0  0  0  0  0  0  0  0  0  0
   24.3128   10.7184    0.0000 C   0  0  0  0  0  0  0  0  0  0  0  0
   24.5543    9.2380    0.0000 C   0  0  0  0  0  0  0  0  0  0  0  0
   24.6005    7.7387    0.0000 C   0  0  0  0  0  0  0  0  0  0  0  0
   24.4506    6.2462    0.0000 C   0  0  0  0  0  0  0  0  0  0  0  0
   24.1072    4.7861    0.0000 C   0  0  0  0  0  0  0  0  0  0  0  0
   23.5761    3.3832    0.0000 C   0  0  0  0  0  0  0  0  0  0  0  0
   22.8665    2.0617    0.0000 C   0  0  0  0  0  0  0  0  0  0  0  0
   21.9904    0.8441    0.0000 C   0  0  0  0  0  0  0  0  0  0  0  0
   20.9629   -0.2487    0.0000 C   0  0  0  0  0  0  0  0  0  0  0  0
   19.8016   -1.1981    0.0000 C   0  0  0  0  0  0  0  0  0  0  0  0
   18.5262   -1.9877    0.0000 C   0  0  0  0  0  0  0  0  0  0  0  0
   17.1588   -2.6041    0.0000 C   0  0  0  0  0  0  0  0  0  0  0  0
   15.7225   -3.0368    0.0000 C   0  0  0  0  0  0  0  0  0  0  0  0
   14.2421   -3.2783    0.0000 C   0  0  0  0  0  0  0  0  0  0  0  0
   12.7428   -3.3245    0.0000 C   0  0  0  0  0  0  0  0  0  0  0  0
   11.2503   -3.1746    0.0000 C   0  0  0  0  0  0  0  0  0  0  0  0
    9.7901   -2.8312    0.0000 C   0  0  0  0  0  0  0  0  0  0  0  0
    8.3873   -2.3001    0.0000 C   0  0  0  0  0  0  0  0  0  0  0  0
    7.0658   -1.5904    0.0000 C   0  0  0  0  0  0  0  0  0  0  0  0
    5.8482   -0.7144    0.0000 C   0  0  0  0  0  0  0  0  0  0  0  0
    4.7554    0.3131    0.0000 C   0  0  0  0  0  0  0  0  0  0  0  0
    3.8060    1.4745    0.0000 C   0  0  0  0  0  0  0  0  0  0  0  0
    4.0816    0.0000    0.0000 C   0  0  0  0  0  0  0  0  0  0  0  0
    3.8060   -1.4745    0.0000 C   0  0  0  0  0  0  0  0  0  0  0  0
    3.0164   -2.7498    0.0000 C   0  0  0  0  0  0  0  0  0  0  0  0
    1.8193   -3.6537    0.0000 C   0  0  0  0  0  0  0  0  0  0  0  0
    0.3766   -4.0642    0.0000 C   0  0  0  0  0  0  0  0  0  0  0  0
   -1.1170   -3.9258    0.0000 C   0  0  0  0  0  0  0  0  0  0  0  0
   -2.4597   -3.2572    0.0000 C   0  0  0  0  0  0  0  0  0  0  0  0
   -3.4703   -2.1487    0.0000 C   0  0  0  0  0  0  0  0  0  0  0  0
   -4.0121   -0.7500    0.0000 C   0  0  0  0  0  0  0  0  0  0  0  0
   -4.0121    0.7500    0.0000 C   0  0  0  0  0  0  0  0  0  0  0  0
   -3.4703    2.1487    0.0000 C   0  0  0  0  0  0  0  0  0  0  0  0
   -2.4597    3.2572    0.0000 C   0  0  0  0  0  0  0  0  0  0  0  0
   -1.1170    3.9258    0.0000 C   0  0  0  0  0  0  0  0  0  0  0  0
    0.3766    4.0642    0.0000 C   0  0  0  0  0  0  0  0  0  0  0  0
    1.8193    3.6537    0.0000 C   0  0  0  0  0  0  0  0  0  0  0  0
    3.0164    2.7498    0.0000 C   0  0  0  0  0  0  0  0  0  0  0  0
  1  2  1  0
  2  3  1  0
  3  4  1  0
  4  5  1  0
  5  6  1  0
  6  7  1  0
  7  8  1  0
  8  9  1  0
  9 10  1  0
 10 11  1  0
 11 12  1  0
 12 13  1  0
 13 14  1  0
 14 15  1  0
 15 16  1  0
 16 17  1  0
 17 18  1  0
 18 19  1  0
 19 20  1  0
 20 21  1  0
 21 22  1  0
 22 23  1  0
 23 24  1  0
 24 25  1  0
 25 26  1  0
 26 27  1  0
 27 28  1  0
 28 29  1  0
 29 30  1  0
 30 31  1  0
 31 32  1  0
 32 33  1  0
 33 34  1  0
 34 35  1  0
 35 36  1  0
 36 37  1  0
 37 38  1  0
 38 39  1  0
 39 40  1  0
 40 41  1  0
 41 42  1  0
 42 43  1  0
 43 44  1  0
 44 45  1  0
 45 46  1  0
 46 47  1  0
 47 48  1  0
 48 49  1  0
 49 50  2  0
 50 51  1  0
 51 52  2  0
 52 53  1  0
 53 54  2  0
 54 55  1  0
 55 56  2  0
 56 57  1  0
 57 58  2  0
 58 59  1  0
 59 60  2  0
 60 61  1  0
 61 62  2  0
 62 63  1  0
 63 64  2  0
 64  2  1  0
 64 48  1  0
M  END
>  <Title>  (778) 
idABBZgen13

$$$$

     RDKit          2D

  8  9  0  0  0  0  0  0  0  0999 V2000
   -0.0000   -4.0981    0.0000 C   0  0  0  0  0  0  0  0  0  0  0  0
   -0.0000   -2.5981    0.0000 C   0  0  0  0  0  0  0  0  0  0  0  0
    0.7500   -1.2990    0.0000 C   0  0  0  0  0  0  0  0  0  0  0  0
    1.5000    0.0000    0.0000 C   0  0  0  0  0  0  0  0  0  0  0  0
    0.7500    1.2990    0.0000 C   0  0  0  0  0  0  0  0  0  0  0  0
   -0.7500    1.2990    0.0000 C   0  0  0  0  0  0  0  0  0  0  0  0
   -1.5000    0.0000    0.0000 C   0  0  0  0  0  0  0  0  0  0  0  0
   -0.7500   -1.2990    0.0000 C   0  0  0  0  0  0  0  0  0  0  0  0
  1  2  1  0
  2  3  1  0
  3  4  2  0
  4  5  1  0
  5  6  2  0
  6  7  1  0
  7  8  2  0
  8  2  1  0
  8  3  1  0
M  END
>  <Title>  (779) 
idABCAgen13

$$$$

     RDKit          2D

 20 21  0  0  0  0  0  0  0  0999 V2000
   -4.9023   -9.1838    0.0000 C   0  0  0  0  0  0  0  0  0  0  0  0
   -4.4388   -7.7572    0.0000 C   0  0  0  0  0  0  0  0  0  0  0  0
   -2.9716   -7.4453    0.0000 C   0  0  0  0  0  0  0  0  0  0  0  0
   -2.5081   -6.0187    0.0000 C   0  0  0  0  0  0  0  0  0  0  0  0
   -1.0409   -5.7068    0.0000 C   0  0  0  0  0  0  0  0  0  0  0  0
   -0.0372   -6.8216    0.0000 O   0  0  0  0  0  0  0  0  0  0  0  0
   -0.5773   -4.2803    0.0000 N   0  0  0  0  0  0  0  0  0  0  0  0
    0.8899   -3.9684    0.0000 C   0  0  0  0  0  0  0  0  0  0  0  0
    2.0046   -4.9721    0.0000 N   0  0  0  0  0  0  0  0  0  0  0  0
    3.3037   -4.2221    0.0000 N   0  0  0  0  0  0  0  0  0  0  0  0
    2.9918   -2.7549    0.0000 N   0  0  0  0  0  0  0  0  0  0  0  0
    1.5000   -2.5981    0.0000 N   0  0  0  0  0  0  0  0  0  0  0  0
    0.7500   -1.2990    0.0000 C   0  0  0  0  0  0  0  0  0  0  0  0
    1.5000    0.0000    0.0000 C   0  0  0  0  0  0  0  0  0  0  0  0
    0.7500    1.2990    0.0000 C   0  0  0  0  0  0  0  0  0  0  0  0
   -0.7500    1.2990    0.0000 C   0  0  0  0  0  0  0  0  0  0  0  0
   -1.5000    2.5981    0.0000 C   0  0  0  0  0  0  0  0  0  0  0  0
   -1.5000    0.0000    0.0000 C   0  0  0  0  0  0  0  0  0  0  0  0
   -3.0000    0.0000    0.0000 O   0  0  0  0  0  0  0  0  0  0  0  0
   -0.7500   -1.2990    0.0000 C   0  0  0  0  0  0  0  0  0  0  0  0
  1  2  2  0
  2  3  1  0
  3  4  1  0
  4  5  1  0
  5  6  2  0
  5  7  1  0
  7  8  1  0
  8  9  2  0
  9 10  1  0
 10 11  2  0
 11 12  1  0
 12 13  1  0
 13 14  2  0
 14 15  1  0
 15 16  1  0
 16 17  1  0
 16 18  1  0
 18 19  1  0
 18 20  1  0
 12  8  1  0
 20 13  1  0
M  END
>  <Title>  (780) 
idABCBgen13

$$$$

     RDKit          2D

 17 18  0  0  0  0  0  0  0  0999 V2000
   -4.4388   -7.7572    0.0000 C   0  0  0  0  0  0  0  0  0  0  0  0
   -2.9716   -7.4453    0.0000 C   0  0  0  0  0  0  0  0  0  0  0  0
   -2.5081   -6.0187    0.0000 C   0  0  0  0  0  0  0  0  0  0  0  0
   -1.0409   -5.7068    0.0000 C   0  0  0  0  0  0  0  0  0  0  0  0
   -0.0372   -6.8216    0.0000 O   0  0  0  0  0  0  0  0  0  0  0  0
   -0.5773   -4.2803    0.0000 N   0  0  0  0  0  0  0  0  0  0  0  0
    0.8899   -3.9684    0.0000 C   0  0  0  0  0  0  0  0  0  0  0  0
    2.0046   -4.9721    0.0000 N   0  0  0  0  0  0  0  0  0  0  0  0
    3.3037   -4.2221    0.0000 N   0  0  0  0  0  0  0  0  0  0  0  0
    2.9918   -2.7549    0.0000 N   0  0  0  0  0  0  0  0  0  0  0  0
    1.5000   -2.5981    0.0000 N   0  0  0  0  0  0  0  0  0  0  0  0
    0.7500   -1.2990    0.0000 C   0  0  0  0  0  0  0  0  0  0  0  0
    1.5000    0.0000    0.0000 C   0  0  0  0  0  0  0  0  0  0  0  0
    0.7500    1.2990    0.0000 C   0  0  0  0  0  0  0  0  0  0  0  0
   -0.7500    1.2990    0.0000 C   0  0  0  0  0  0  0  0  0  0  0  0
   -1.5000    0.0000    0.0000 C   0  0  0  0  0  0  0  0  0  0  0  0
   -0.7500   -1.2990    0.0000 C   0  0  0  0  0  0  0  0  0  0  0  0
  1  2  1  0
  2  3  1  0
  3  4  1  0
  4  5  2  0
  4  6  1  0
  6  7  1  0
  7  8  2  0
  8  9  1  0
  9 10  2  0
 10 11  1  0
 11 12  1  0
 12 13  2  0
 13 14  1  0
 14 15  2  0
 15 16  1  0
 16 17  2  0
 11  7  1  0
 17 12  1  0
M  END
>  <Title>  (781) 
idABCCgen13

$$$$

     RDKit          2D

 17 19  0  0  0  0  0  0  0  0999 V2000
    3.9821   -7.4141    0.0000 C   0  0  0  0  0  0  0  0  0  0  0  0
    4.9858   -6.2994    0.0000 C   0  0  0  0  0  0  0  0  0  0  0  0
    6.4776   -6.4562    0.0000 C   0  0  0  0  0  0  0  0  0  0  0  0
    7.0877   -5.0859    0.0000 C   0  0  0  0  0  0  0  0  0  0  0  0
    5.9730   -4.0822    0.0000 N   0  0  0  0  0  0  0  0  0  0  0  0
    4.6740   -4.8322    0.0000 N   0  0  0  0  0  0  0  0  0  0  0  0
    3.3037   -4.2221    0.0000 C   0  0  0  0  0  0  0  0  0  0  0  0
    2.0046   -4.9721    0.0000 C   0  0  0  0  0  0  0  0  0  0  0  0
    0.8899   -3.9684    0.0000 C   0  0  0  0  0  0  0  0  0  0  0  0
    1.5000   -2.5981    0.0000 C   0  0  0  0  0  0  0  0  0  0  0  0
    0.7500   -1.2990    0.0000 N   0  0  0  0  0  0  0  0  0  0  0  0
    1.5000    0.0000    0.0000 C   0  0  0  0  0  0  0  0  0  0  0  0
    0.7500    1.2990    0.0000 C   0  0  0  0  0  0  0  0  0  0  0  0
   -0.7500    1.2990    0.0000 N   0  0  0  0  0  0  0  0  0  0  0  0
   -1.5000    0.0000    0.0000 N   0  0  0  0  0  0  0  0  0  0  0  0
   -0.7500   -1.2990    0.0000 N   0  0  0  0  0  0  0  0  0  0  0  0
    2.9918   -2.7549    0.0000 C   0  0  0  0  0  0  0  0  0  0  0  0
  1  2  1  0
  2  3  2  0
  3  4  1  0
  4  5  2  0
  5  6  1  0
  6  7  1  0
  7  8  2  0
  8  9  1  0
  9 10  2  0
 10 11  1  0
 11 12  1  0
 12 13  1  0
 13 14  2  0
 14 15  1  0
 15 16  2  0
 10 17  1  0
  6  2  1  0
 17  7  1  0
 16 11  1  0
M  END
>  <Title>  (782) 
idABCDgen13

$$$$

     RDKit          2D

 74 76  0  0  0  0  0  0  0  0999 V2000
   -4.1266    4.1800    0.0000 C   0  0  0  0  0  0  0  0  0  0  0  0
   -2.9721    5.1377    0.0000 C   0  0  0  0  0  0  0  0  0  0  0  0
   -3.8701    6.3392    0.0000 C   0  0  0  0  0  0  0  0  0  0  0  0
   -4.6420    7.6254    0.0000 C   0  0  0  0  0  0  0  0  0  0  0  0
   -5.2797    8.9831    0.0000 C   0  0  0  0  0  0  0  0  0  0  0  0
   -5.7768   10.3983    0.0000 C   0  0  0  0  0  0  0  0  0  0  0  0
   -6.1282   11.8566    0.0000 C   0  0  0  0  0  0  0  0  0  0  0  0
   -6.3303   13.3429    0.0000 C   0  0  0  0  0  0  0  0  0  0  0  0
   -6.3810   14.8421    0.0000 C   0  0  0  0  0  0  0  0  0  0  0  0
   -6.2797   16.3386    0.0000 C   0  0  0  0  0  0  0  0  0  0  0  0
   -6.0275   17.8173    0.0000 C   0  0  0  0  0  0  0  0  0  0  0  0
   -5.6271   19.2628    0.0000 C   0  0  0  0  0  0  0  0  0  0  0  0
   -5.0825   20.6605    0.0000 C   0  0  0  0  0  0  0  0  0  0  0  0
   -4.3992   21.9958    0.0000 C   0  0  0  0  0  0  0  0  0  0  0  0
   -3.5844   23.2552    0.0000 C   0  0  0  0  0  0  0  0  0  0  0  0
   -2.6463   24.4257    0.0000 C   0  0  0  0  0  0  0  0  0  0  0  0
   -1.5947   25.4953    0.0000 C   0  0  0  0  0  0  0  0  0  0  0  0
   -0.4402   26.4530    0.0000 C   0  0  0  0  0  0  0  0  0  0  0  0
    0.8053   27.2890    0.0000 C   0  0  0  0  0  0  0  0  0  0  0  0
    2.1289   27.9947    0.0000 C   0  0  0  0  0  0  0  0  0  0  0  0
    3.5171   28.5628    0.0000 C   0  0  0  0  0  0  0  0  0  0  0  0
    4.9557   28.9876    0.0000 C   0  0  0  0  0  0  0  0  0  0  0  0
    6.4299   29.2647    0.0000 C   0  0  0  0  0  0  0  0  0  0  0  0
    7.9246   29.3913    0.0000 C   0  0  0  0  0  0  0  0  0  0  0  0
    9.4243   29.3659    0.0000 C   0  0  0  0  0  0  0  0  0  0  0  0
   10.9139   29.1890    0.0000 C   0  0  0  0  0  0  0  0  0  0  0  0
   12.3779   28.8623    0.0000 C   0  0  0  0  0  0  0  0  0  0  0  0
   13.8013   28.3891    0.0000 C   0  0  0  0  0  0  0  0  0  0  0  0
   15.1695   27.7744    0.0000 C   0  0  0  0  0  0  0  0  0  0  0  0
   16.4686   27.0244    0.0000 C   0  0  0  0  0  0  0  0  0  0  0  0
   17.6851   26.1468    0.0000 C   0  0  0  0  0  0  0  0  0  0  0  0
   18.8065   25.1507    0.0000 C   0  0  0  0  0  0  0  0  0  0  0  0
   19.8215   24.0462    0.0000 C   0  0  0  0  0  0  0  0  0  0  0  0
   20.7195   22.8447    0.0000 C   0  0  0  0  0  0  0  0  0  0  0  0
   21.4913   21.5585    0.0000 C   0  0  0  0  0  0  0  0  0  0  0  0
   22.1291   20.2008    0.0000 C   0  0  0  0  0  0  0  0  0  0  0  0
   22.6262   18.7856    0.0000 C   0  0  0  0  0  0  0  0  0  0  0  0
   22.9776   17.3273    0.0000 C   0  0  0  0  0  0  0  0  0  0  0  0
   23.1796   15.8410    0.0000 C   0  0  0  0  0  0  0  0  0  0  0  0
   23.2303   14.3419    0.0000 C   0  0  0  0  0  0  0  0  0  0  0  0
   23.1290   12.8453    0.0000 C   0  0  0  0  0  0  0  0  0  0  0  0
   22.8769   11.3666    0.0000 C   0  0  0  0  0  0  0  0  0  0  0  0
   22.4764    9.9211    0.0000 C   0  0  0  0  0  0  0  0  0  0  0  0
   21.9318    8.5234    0.0000 C   0  0  0  0  0  0  0  0  0  0  0  0
   21.2486    7.1881    0.0000 C   0  0  0  0  0  0  0  0  0  0  0  0
   20.4337    5.9287    0.0000 C   0  0  0  0  0  0  0  0  0  0  0  0
   19.4957    4.7582    0.0000 C   0  0  0  0  0  0  0  0  0  0  0  0
   18.4440    3.6886    0.0000 C   0  0  0  0  0  0  0  0  0  0  0  0
   17.2895    2.7309    0.0000 C   0  0  0  0  0  0  0  0  0  0  0  0
   16.0441    1.8950    0.0000 C   0  0  0  0  0  0  0  0  0  0  0  0
   14.7205    1.1893    0.0000 C   0  0  0  0  0  0  0  0  0  0  0  0
   13.3322    0.6211    0.0000 C   0  0  0  0  0  0  0  0  0  0  0  0
   11.8936    0.1963    0.0000 C   0  0  0  0  0  0  0  0  0  0  0  0
   10.4194   -0.0808    0.0000 C   0  0  0  0  0  0  0  0  0  0  0  0
    8.9248   -0.2073    0.0000 C   0  0  0  0  0  0  0  0  0  0  0  0
    7.4250   -0.1820    0.0000 C   0  0  0  0  0  0  0  0  0  0  0  0
    5.9355   -0.0051    0.0000 C   0  0  0  0  0  0  0  0  0  0  0  0
    4.4715    0.3217    0.0000 C   0  0  0  0  0  0  0  0  0  0  0  0
    3.0481    0.7948    0.0000 C   0  0  0  0  0  0  0  0  0  0  0  0
    1.6798    1.4095    0.0000 C   0  0  0  0  0  0  0  0  0  0  0  0
    2.1929    0.0000    0.0000 C   0  0  0  0  0  0  0  0  0  0  0  0
    1.6798   -1.4095    0.0000 C   0  0  0  0  0  0  0  0  0  0  0  0
    0.3808   -2.1595    0.0000 C   0  0  0  0  0  0  0  0  0  0  0  0
   -1.0964   -1.8991    0.0000 C   0  0  0  0  0  0  0  0  0  0  0  0
   -2.0606   -0.7500    0.0000 C   0  0  0  0  0  0  0  0  0  0  0  0
   -2.0606    0.7500    0.0000 C   0  0  0  0  0  0  0  0  0  0  0  0
   -1.0964    1.8991    0.0000 C   0  0  0  0  0  0  0  0  0  0  0  0
    0.3808    2.1595    0.0000 C   0  0  0  0  0  0  0  0  0  0  0  0
   -0.8357    3.0371    0.0000 C   0  0  0  0  0  0  0  0  0  0  0  0
    0.5877    3.5103    0.0000 C   0  0  0  0  0  0  0  0  0  0  0  0
    0.8897    4.9796    0.0000 C   0  0  0  0  0  0  0  0  0  0  0  0
   -0.2318    5.9757    0.0000 C   0  0  0  0  0  0  0  0  0  0  0  0
   -1.6552    5.5025    0.0000 C   0  0  0  0  0  0  0  0  0  0  0  0
   -1.9572    4.0333    0.0000 C   0  0  0  0  0  0  0  0  0  0  0  0
  1  2  1  0
  2  3  1  0
  3  4  1  0
  4  5  1  0
  5  6  1  0
  6  7  1  0
  7  8  1  0
  8  9  1  0
  9 10  1  0
 10 11  1  0
 11 12  1  0
 12 13  1  0
 13 14  1  0
 14 15  1  0
 15 16  1  0
 16 17  1  0
 17 18  1  0
 18 19  1  0
 19 20  1  0
 20 21  1  0
 21 22  1  0
 22 23  1  0
 23 24  1  0
 24 25  1  0
 25 26  1  0
 26 27  1  0
 27 28  1  0
 28 29  1  0
 29 30  1  0
 30 31  1  0
 31 32  1  0
 32 33  1  0
 33 34  1  0
 34 35  1  0
 35 36  1  0
 36 37  1  0
 37 38  1  0
 38 39  1  0
 39 40  1  0
 40 41  1  0
 41 42  1  0
 42 43  1  0
 43 44  1  0
 44 45  1  0
 45 46  1  0
 46 47  1  0
 47 48  1  0
 48 49  1  0
 49 50  1  0
 50 51  1  0
 51 52  1  0
 52 53  1  0
 53 54  1  0
 54 55  1  0
 55 56  1  0
 56 57  1  0
 57 58  1  0
 58 59  1  0
 59 60  1  0
 60 61  1  0
 61 62  1  0
 62 63  1  0
 63 64  2  0
 64 65  1  0
 65 66  2  0
 66 67  1  0
 67 68  2  0
 68 69  1  0
 69 70  2  0
 70 71  1  0
 71 72  2  0
 72 73  1  0
 73 74  2  0
 74  2  1  0
 68 60  1  0
 74 69  1  0
M  END
>  <Title>  (783) 
idABCEgen13

$$$$

     RDKit          2D

 35 39  0  0  0  0  0  0  0  0999 V2000
   -3.0000   -2.5981    0.0000 C   0  0  0  0  0  0  0  0  0  0  0  0
   -1.5000   -2.5981    0.0000 C   0  0  0  0  0  0  0  0  0  0  0  0
   -0.7500   -3.8971    0.0000 C   0  0  0  0  0  0  0  0  0  0  0  0
    0.7500   -3.8971    0.0000 C   0  0  0  0  0  0  0  0  0  0  0  0
    1.5000   -2.5981    0.0000 C   0  0  0  0  0  0  0  0  0  0  0  0
    3.0000   -2.5981    0.0000 C   0  0  0  0  0  0  0  0  0  0  0  0
    3.7500   -1.2990    0.0000 O   0  0  0  0  0  0  0  0  0  0  0  0
    3.7500   -3.8971    0.0000 N   0  0  0  0  0  0  0  0  0  0  0  0
    5.2500   -3.8971    0.0000 C   0  0  0  0  0  0  0  0  0  0  0  0
    6.1317   -2.6836    0.0000 N   0  0  0  0  0  0  0  0  0  0  0  0
    7.5583   -3.1471    0.0000 N   0  0  0  0  0  0  0  0  0  0  0  0
    7.5583   -4.6471    0.0000 N   0  0  0  0  0  0  0  0  0  0  0  0
    6.1317   -5.1106    0.0000 N   0  0  0  0  0  0  0  0  0  0  0  0
    5.6682   -6.5372    0.0000 C   0  0  0  0  0  0  0  0  0  0  0  0
    6.5498   -7.7508    0.0000 C   0  0  0  0  0  0  0  0  0  0  0  0
    5.6682   -8.9643    0.0000 C   0  0  0  0  0  0  0  0  0  0  0  0
    4.2416   -8.5008    0.0000 C   0  0  0  0  0  0  0  0  0  0  0  0
    3.0280   -9.3824    0.0000 N   0  0  0  0  0  0  0  0  0  0  0  0
    1.6577   -8.7723    0.0000 C   0  0  0  0  0  0  0  0  0  0  0  0
    1.5009   -7.2805    0.0000 O   0  0  0  0  0  0  0  0  0  0  0  0
    0.4442   -9.6540    0.0000 N   0  0  0  0  0  0  0  0  0  0  0  0
   -0.9261   -9.0439    0.0000 C   0  0  0  0  0  0  0  0  0  0  0  0
   -1.0829   -7.5521    0.0000 N   0  0  0  0  0  0  0  0  0  0  0  0
   -2.4532   -6.9420    0.0000 N   0  0  0  0  0  0  0  0  0  0  0  0
   -3.6668   -7.8237    0.0000 N   0  0  0  0  0  0  0  0  0  0  0  0
   -3.5100   -9.3155    0.0000 N   0  0  0  0  0  0  0  0  0  0  0  0
   -2.1396   -9.9256    0.0000 N   0  0  0  0  0  0  0  0  0  0  0  0
    4.2416   -7.0008    0.0000 C   0  0  0  0  0  0  0  0  0  0  0  0
    3.0280   -6.1191    0.0000 O   0  0  0  0  0  0  0  0  0  0  0  0
    0.7500   -1.2990    0.0000 C   0  0  0  0  0  0  0  0  0  0  0  0
    1.5000    0.0000    0.0000 C   0  0  0  0  0  0  0  0  0  0  0  0
    0.7500    1.2990    0.0000 C   0  0  0  0  0  0  0  0  0  0  0  0
   -0.7500    1.2990    0.0000 C   0  0  0  0  0  0  0  0  0  0  0  0
   -1.5000    0.0000    0.0000 C   0  0  0  0  0  0  0  0  0  0  0  0
   -0.7500   -1.2990    0.0000 C   0  0  0  0  0  0  0  0  0  0  0  0
  1  2  1  0
  2  3  2  0
  3  4  1  0
  4  5  2  0
  5  6  1  0
  6  7  2  0
  6  8  1  0
  8  9  1  0
  9 10  2  0
 10 11  1  0
 11 12  2  0
 12 13  1  0
 13 14  1  0
 14 15  2  0
 15 16  1  0
 16 17  2  0
 17 18  1  0
 18 19  1  0
 19 20  2  0
 19 21  1  0
 21 22  1  0
 22 23  2  0
 23 24  1  0
 24 25  2  0
 25 26  1  0
 26 27  2  0
 17 28  1  0
 28 29  2  0
  5 30  1  0
 30 31  2  0
 31 32  1  0
 32 33  2  0
 33 34  1  0
 34 35  2  0
 35  2  1  0
 13  9  1  0
 28 14  1  0
 35 30  1  0
 27 22  1  0
M  END
>  <Title>  (784) 
idABCFgen13

$$$$

     RDKit          2D

 41 46  0  0  0  0  0  0  0  0999 V2000
   -1.3240   -6.3062    0.0000 C   0  0  0  0  0  0  0  0  0  0  0  0
   -0.7500   -4.9204    0.0000 C   0  0  0  0  0  0  0  0  0  0  0  0
    0.7500   -4.9204    0.0000 C   0  0  0  0  0  0  0  0  0  0  0  0
    1.8107   -3.8597    0.0000 C   0  0  0  0  0  0  0  0  0  0  0  0
    1.8107   -2.3597    0.0000 C   0  0  0  0  0  0  0  0  0  0  0  0
    3.1965   -1.7857    0.0000 C   0  0  0  0  0  0  0  0  0  0  0  0
    3.3923   -0.2985    0.0000 O   0  0  0  0  0  0  0  0  0  0  0  0
    4.3865   -2.6988    0.0000 N   0  0  0  0  0  0  0  0  0  0  0  0
    5.7723   -2.1248    0.0000 C   0  0  0  0  0  0  0  0  0  0  0  0
    6.1225   -0.6662    0.0000 N   0  0  0  0  0  0  0  0  0  0  0  0
    7.6179   -0.5485    0.0000 N   0  0  0  0  0  0  0  0  0  0  0  0
    8.1919   -1.9344    0.0000 N   0  0  0  0  0  0  0  0  0  0  0  0
    7.0513   -2.9085    0.0000 N   0  0  0  0  0  0  0  0  0  0  0  0
    7.1690   -4.4039    0.0000 N   0  0  0  0  0  0  0  0  0  0  0  0
    6.1948   -5.5445    0.0000 C   0  0  0  0  0  0  0  0  0  0  0  0
    7.3354   -6.5187    0.0000 C   0  0  0  0  0  0  0  0  0  0  0  0
    7.4531   -8.0141    0.0000 C   0  0  0  0  0  0  0  0  0  0  0  0
    8.8070   -8.6598    0.0000 O   0  0  0  0  0  0  0  0  0  0  0  0
    6.2169   -8.8637    0.0000 N   0  0  0  0  0  0  0  0  0  0  0  0
    6.3346  -10.3591    0.0000 C   0  0  0  0  0  0  0  0  0  0  0  0
    5.0984  -11.2087    0.0000 N   0  0  0  0  0  0  0  0  0  0  0  0
    5.2161  -12.7040    0.0000 N   0  0  0  0  0  0  0  0  0  0  0  0
    6.5700  -13.3498    0.0000 N   0  0  0  0  0  0  0  0  0  0  0  0
    7.8062  -12.5002    0.0000 N   0  0  0  0  0  0  0  0  0  0  0  0
    7.6885  -11.0048    0.0000 N   0  0  0  0  0  0  0  0  0  0  0  0
    8.3096   -5.3781    0.0000 C   0  0  0  0  0  0  0  0  0  0  0  0
    9.8050   -5.2604    0.0000 O   0  0  0  0  0  0  0  0  0  0  0  0
    0.7500   -1.2990    0.0000 C   0  0  0  0  0  0  0  0  0  0  0  0
    1.5000    0.0000    0.0000 C   0  0  0  0  0  0  0  0  0  0  0  0
    0.7500    1.2990    0.0000 C   0  0  0  0  0  0  0  0  0  0  0  0
   -0.7500    1.2990    0.0000 C   0  0  0  0  0  0  0  0  0  0  0  0
   -1.5000    0.0000    0.0000 C   0  0  0  0  0  0  0  0  0  0  0  0
   -0.7500   -1.2990    0.0000 C   0  0  0  0  0  0  0  0  0  0  0  0
   -1.8107   -2.3597    0.0000 C   0  0  0  0  0  0  0  0  0  0  0  0
   -3.1097   -1.6097    0.0000 C   0  0  0  0  0  0  0  0  0  0  0  0
   -4.4087   -2.3597    0.0000 C   0  0  0  0  0  0  0  0  0  0  0  0
   -4.4087   -3.8597    0.0000 C   0  0  0  0  0  0  0  0  0  0  0  0
   -5.7078   -4.6097    0.0000 C   0  0  0  0  0  0  0  0  0  0  0  0
   -7.0068   -5.3597    0.0000 N   0  0  0  0  0  0  0  0  0  0  0  0
   -3.1097   -4.6097    0.0000 C   0  0  0  0  0  0  0  0  0  0  0  0
   -1.8107   -3.8597    0.0000 C   0  0  0  0  0  0  0  0  0  0  0  0
  1  2  1  0
  2  3  1  0
  3  4  2  0
  4  5  1  0
  5  6  1  0
  6  7  2  0
  6  8  1  0
  8  9  1  0
  9 10  2  0
 10 11  1  0
 11 12  2  0
 12 13  1  0
 13 14  1  0
 14 15  1  0
 15 16  2  0
 16 17  1  0
 17 18  2  0
 17 19  1  0
 19 20  1  0
 20 21  2  0
 21 22  1  0
 22 23  2  0
 23 24  1  0
 24 25  2  0
 16 26  1  0
 26 27  2  0
  5 28  1  0
 28 29  2  0
 29 30  1  0
 30 31  2  0
 31 32  1  0
 32 33  2  0
 33 34  1  0
 34 35  2  0
 35 36  1  0
 36 37  2  0
 37 38  1  0
 38 39  3  0
 37 40  1  0
 40 41  2  0
 41  2  1  0
 13  9  1  0
 26 14  1  0
 33 28  1  0
 41 34  1  0
 25 20  1  0
M  END
>  <Title>  (785) 
idABCGgen13

$$$$

     RDKit          2D

 29 28  0  0  0  0  0  0  0  0999 V2000
    0.0000    0.0000    0.0000 C   0  0  0  0  0  0  0  0  0  0  0  0
   -0.0000   -1.5000    0.0000 C   0  0  0  0  0  0  0  0  0  0  0  0
   -0.0000   -3.0000    0.0000 C   0  0  0  0  0  0  0  0  0  0  0  0
   -0.0000   -4.5000    0.0000 C   0  0  0  0  0  0  0  0  0  0  0  0
   -0.0000   -6.0000    0.0000 C   0  0  0  0  0  0  0  0  0  0  0  0
   -0.0000   -7.5000    0.0000 C   0  0  0  0  0  0  0  0  0  0  0  0
   -0.0000   -9.0000    0.0000 C   0  0  0  0  0  0  0  0  0  0  0  0
   -0.0000  -10.5000    0.0000 C   0  0  0  0  0  0  0  0  0  0  0  0
   -0.0000  -12.0000    0.0000 C   0  0  0  0  0  0  0  0  0  0  0  0
   -0.0000  -13.5000    0.0000 C   0  0  0  0  0  0  0  0  0  0  0  0
   -0.0000  -15.0000    0.0000 C   0  0  0  0  0  0  0  0  0  0  0  0
   -0.0000  -16.5000    0.0000 C   0  0  0  0  0  0  0  0  0  0  0  0
   -0.0000  -18.0000    0.0000 C   0  0  0  0  0  0  0  0  0  0  0  0
   -0.0000  -19.5000    0.0000 C   0  0  0  0  0  0  0  0  0  0  0  0
   -0.0000  -21.0000    0.0000 C   0  0  0  0  0  0  0  0  0  0  0  0
   -0.0000  -22.5000    0.0000 C   0  0  0  0  0  0  0  0  0  0  0  0
   -0.0000  -24.0000    0.0000 C   0  0  0  0  0  0  0  0  0  0  0  0
   -0.0000  -25.5000    0.0000 C   0  0  0  0  0  0  0  0  0  0  0  0
   -0.0000  -27.0000    0.0000 C   0  0  0  0  0  0  0  0  0  0  0  0
   -0.0000  -28.5000    0.0000 C   0  0  0  0  0  0  0  0  0  0  0  0
   -0.0000  -30.0000    0.0000 C   0  0  0  0  0  0  0  0  0  0  0  0
   -0.0000  -31.5000    0.0000 C   0  0  0  0  0  0  0  0  0  0  0  0
   -0.0000  -33.0000    0.0000 C   0  0  0  0  0  0  0  0  0  0  0  0
   -0.0000  -34.5000    0.0000 C   0  0  0  0  0  0  0  0  0  0  0  0
   -0.0000  -36.0000    0.0000 C   0  0  0  0  0  0  0  0  0  0  0  0
   -0.0000  -37.5000    0.0000 C   0  0  0  0  0  0  0  0  0  0  0  0
   -0.0000  -39.0000    0.0000 C   0  0  0  0  0  0  0  0  0  0  0  0
    1.2990  -39.7500    0.0000 C   0  0  0  0  0  0  0  0  0  0  0  0
    1.2990  -41.2500    0.0000 C   0  0  0  0  0  0  0  0  0  0  0  0
  1  2  3  0
  2  3  1  0
  3  4  3  0
  4  5  1  0
  5  6  3  0
  6  7  1  0
  7  8  3  0
  8  9  1  0
  9 10  3  0
 10 11  1  0
 11 12  3  0
 12 13  1  0
 13 14  3  0
 14 15  1  0
 15 16  3  0
 16 17  1  0
 17 18  3  0
 18 19  1  0
 19 20  3  0
 20 21  1  0
 21 22  3  0
 22 23  1  0
 23 24  3  0
 24 25  1  0
 25 26  3  0
 26 27  1  0
 27 28  1  0
 28 29  1  0
M  END
>  <Title>  (786) 
idABCHgen13

$$$$

     RDKit          2D

 97 98  0  0  0  0  0  0  0  0999 V2000
    9.1442   -4.4231    0.0000 C   0  0  0  0  0  0  0  0  0  0  0  0
    9.9408   -4.4547    0.0000 C   0  0  0  0  0  0  0  0  0  0  0  0
    9.9685   -5.9545    0.0000 C   0  0  0  0  0  0  0  0  0  0  0  0
   10.1702   -7.4408    0.0000 C   0  0  0  0  0  0  0  0  0  0  0  0
   10.5431   -8.8938    0.0000 C   0  0  0  0  0  0  0  0  0  0  0  0
   11.0821  -10.2936    0.0000 C   0  0  0  0  0  0  0  0  0  0  0  0
   11.7800  -11.6213    0.0000 C   0  0  0  0  0  0  0  0  0  0  0  0
   12.6273  -12.8591    0.0000 C   0  0  0  0  0  0  0  0  0  0  0  0
   13.6126  -13.9901    0.0000 C   0  0  0  0  0  0  0  0  0  0  0  0
   14.7226  -14.9991    0.0000 C   0  0  0  0  0  0  0  0  0  0  0  0
   15.9421  -15.8724    0.0000 C   0  0  0  0  0  0  0  0  0  0  0  0
   17.2548  -16.5982    0.0000 C   0  0  0  0  0  0  0  0  0  0  0  0
   18.6429  -17.1668    0.0000 C   0  0  0  0  0  0  0  0  0  0  0  0
   20.0876  -17.5703    0.0000 C   0  0  0  0  0  0  0  0  0  0  0  0
   21.5694  -17.8034    0.0000 C   0  0  0  0  0  0  0  0  0  0  0  0
   23.0682  -17.8629    0.0000 C   0  0  0  0  0  0  0  0  0  0  0  0
   24.5638  -17.7479    0.0000 C   0  0  0  0  0  0  0  0  0  0  0  0
   26.0359  -17.4602    0.0000 C   0  0  0  0  0  0  0  0  0  0  0  0
   27.4647  -17.0034    0.0000 C   0  0  0  0  0  0  0  0  0  0  0  0
   28.8308  -16.3839    0.0000 C   0  0  0  0  0  0  0  0  0  0  0  0
   30.1157  -15.6100    0.0000 C   0  0  0  0  0  0  0  0  0  0  0  0
   31.3021  -14.6922    0.0000 C   0  0  0  0  0  0  0  0  0  0  0  0
   32.3740  -13.6428    0.0000 C   0  0  0  0  0  0  0  0  0  0  0  0
   33.3167  -12.4761    0.0000 C   0  0  0  0  0  0  0  0  0  0  0  0
   34.1176  -11.2078    0.0000 C   0  0  0  0  0  0  0  0  0  0  0  0
   34.7659   -9.8551    0.0000 C   0  0  0  0  0  0  0  0  0  0  0  0
   35.2527   -8.4363    0.0000 C   0  0  0  0  0  0  0  0  0  0  0  0
   35.5716   -6.9706    0.0000 C   0  0  0  0  0  0  0  0  0  0  0  0
   35.7181   -5.4778    0.0000 C   0  0  0  0  0  0  0  0  0  0  0  0
   35.6904   -3.9780    0.0000 C   0  0  0  0  0  0  0  0  0  0  0  0
   35.4887   -2.4916    0.0000 C   0  0  0  0  0  0  0  0  0  0  0  0
   35.1158   -1.0387    0.0000 C   0  0  0  0  0  0  0  0  0  0  0  0
   34.5768    0.3611    0.0000 C   0  0  0  0  0  0  0  0  0  0  0  0
   33.8789    1.6888    0.0000 C   0  0  0  0  0  0  0  0  0  0  0  0
   33.0315    2.9266    0.0000 C   0  0  0  0  0  0  0  0  0  0  0  0
   32.0463    4.0576    0.0000 C   0  0  0  0  0  0  0  0  0  0  0  0
   30.9363    5.0666    0.0000 C   0  0  0  0  0  0  0  0  0  0  0  0
   29.7168    5.9399    0.0000 C   0  0  0  0  0  0  0  0  0  0  0  0
   28.4041    6.6657    0.0000 C   0  0  0  0  0  0  0  0  0  0  0  0
   27.0160    7.2343    0.0000 C   0  0  0  0  0  0  0  0  0  0  0  0
   25.5713    7.6378    0.0000 C   0  0  0  0  0  0  0  0  0  0  0  0
   24.0895    7.8709    0.0000 C   0  0  0  0  0  0  0  0  0  0  0  0
   22.5907    7.9304    0.0000 C   0  0  0  0  0  0  0  0  0  0  0  0
   21.0951    7.8155    0.0000 C   0  0  0  0  0  0  0  0  0  0  0  0
   19.6230    7.5277    0.0000 C   0  0  0  0  0  0  0  0  0  0  0  0
   18.1942    7.0710    0.0000 C   0  0  0  0  0  0  0  0  0  0  0  0
   16.8281    6.4514    0.0000 C   0  0  0  0  0  0  0  0  0  0  0  0
   15.5432    5.6775    0.0000 C   0  0  0  0  0  0  0  0  0  0  0  0
   14.3568    4.7597    0.0000 C   0  0  0  0  0  0  0  0  0  0  0  0
   13.2849    3.7103    0.0000 C   0  0  0  0  0  0  0  0  0  0  0  0
   12.3422    2.5436    0.0000 C   0  0  0  0  0  0  0  0  0  0  0  0
   11.5413    1.2753    0.0000 C   0  0  0  0  0  0  0  0  0  0  0  0
   10.8930   -0.0774    0.0000 C   0  0  0  0  0  0  0  0  0  0  0  0
   10.4061   -1.4962    0.0000 C   0  0  0  0  0  0  0  0  0  0  0  0
    9.8132   -0.0000    0.0000 C   0  0  0  0  0  0  0  0  0  0  0  0
    9.7133    1.3966    0.0000 C   0  0  0  0  0  0  0  0  0  0  0  0
    9.4157    2.7647    0.0000 C   0  0  0  0  0  0  0  0  0  0  0  0
    8.9264    4.0765    0.0000 C   0  0  0  0  0  0  0  0  0  0  0  0
    8.2554    5.3054    0.0000 C   0  0  0  0  0  0  0  0  0  0  0  0
    7.4163    6.4263    0.0000 C   0  0  0  0  0  0  0  0  0  0  0  0
    6.4263    7.4163    0.0000 C   0  0  0  0  0  0  0  0  0  0  0  0
    5.3054    8.2554    0.0000 C   0  0  0  0  0  0  0  0  0  0  0  0
    4.0765    8.9264    0.0000 C   0  0  0  0  0  0  0  0  0  0  0  0
    2.7647    9.4157    0.0000 C   0  0  0  0  0  0  0  0  0  0  0  0
    1.3966    9.7133    0.0000 C   0  0  0  0  0  0  0  0  0  0  0  0
    0.0000    9.8132    0.0000 C   0  0  0  0  0  0  0  0  0  0  0  0
   -1.3966    9.7133    0.0000 C   0  0  0  0  0  0  0  0  0  0  0  0
   -2.7647    9.4157    0.0000 C   0  0  0  0  0  0  0  0  0  0  0  0
   -4.0765    8.9264    0.0000 C   0  0  0  0  0  0  0  0  0  0  0  0
   -5.3054    8.2554    0.0000 C   0  0  0  0  0  0  0  0  0  0  0  0
   -6.4263    7.4163    0.0000 C   0  0  0  0  0  0  0  0  0  0  0  0
   -7.4163    6.4263    0.0000 C   0  0  0  0  0  0  0  0  0  0  0  0
   -8.2554    5.3054    0.0000 C   0  0  0  0  0  0  0  0  0  0  0  0
   -8.9264    4.0765    0.0000 C   0  0  0  0  0  0  0  0  0  0  0  0
   -9.4157    2.7647    0.0000 C   0  0  0  0  0  0  0  0  0  0  0  0
   -9.7133    1.3966    0.0000 C   0  0  0  0  0  0  0  0  0  0  0  0
   -9.8132    0.0000    0.0000 C   0  0  0  0  0  0  0  0  0  0  0  0
   -9.7133   -1.3966    0.0000 C   0  0  0  0  0  0  0  0  0  0  0  0
   -9.4157   -2.7647    0.0000 C   0  0  0  0  0  0  0  0  0  0  0  0
   -8.9264   -4.0765    0.0000 C   0  0  0  0  0  0  0  0  0  0  0  0
   -8.2554   -5.3054    0.0000 C   0  0  0  0  0  0  0  0  0  0  0  0
   -7.4163   -6.4263    0.0000 C   0  0  0  0  0  0  0  0  0  0  0  0
   -6.4263   -7.4163    0.0000 C   0  0  0  0  0  0  0  0  0  0  0  0
   -5.3054   -8.2554    0.0000 C   0  0  0  0  0  0  0  0  0  0  0  0
   -4.0765   -8.9264    0.0000 C   0  0  0  0  0  0  0  0  0  0  0  0
   -2.7647   -9.4157    0.0000 C   0  0  0  0  0  0  0  0  0  0  0  0
   -1.3966   -9.7133    0.0000 C   0  0  0  0  0  0  0  0  0  0  0  0
   -0.0000   -9.8132    0.0000 C   0  0  0  0  0  0  0  0  0  0  0  0
    1.3966   -9.7133    0.0000 C   0  0  0  0  0  0  0  0  0  0  0  0
    2.7647   -9.4157    0.0000 C   0  0  0  0  0  0  0  0  0  0  0  0
    4.0765   -8.9264    0.0000 C   0  0  0  0  0  0  0  0  0  0  0  0
    5.3054   -8.2554    0.0000 C   0  0  0  0  0  0  0  0  0  0  0  0
    6.4263   -7.4163    0.0000 C   0  0  0  0  0  0  0  0  0  0  0  0
    7.4163   -6.4263    0.0000 C   0  0  0  0  0  0  0  0  0  0  0  0
    8.2554   -5.3054    0.0000 C   0  0  0  0  0  0  0  0  0  0  0  0
    8.9264   -4.0765    0.0000 C   0  0  0  0  0  0  0  0  0  0  0  0
   10.0873   -2.9619    0.0000 C   0  0  0  0  0  0  0  0  0  0  0  0
  1  2  1  0
  2  3  1  0
  3  4  1  0
  4  5  1  0
  5  6  1  0
  6  7  1  0
  7  8  1  0
  8  9  1  0
  9 10  1  0
 10 11  1  0
 11 12  1  0
 12 13  1  0
 13 14  1  0
 14 15  1  0
 15 16  1  0
 16 17  1  0
 17 18  1  0
 18 19  1  0
 19 20  1  0
 20 21  1  0
 21 22  1  0
 22 23  1  0
 23 24  1  0
 24 25  1  0
 25 26  1  0
 26 27  1  0
 27 28  1  0
 28 29  1  0
 29 30  1  0
 30 31  1  0
 31 32  1  0
 32 33  1  0
 33 34  1  0
 34 35  1  0
 35 36  1  0
 36 37  1  0
 37 38  1  0
 38 39  1  0
 39 40  1  0
 40 41  1  0
 41 42  1  0
 42 43  1  0
 43 44  1  0
 44 45  1  0
 45 46  1  0
 46 47  1  0
 47 48  1  0
 48 49  1  0
 49 50  1  0
 50 51  1  0
 51 52  1  0
 52 53  1  0
 53 54  1  0
 54 55  1  0
 55 56  1  0
 56 57  1  0
 57 58  1  0
 58 59  2  0
 59 60  1  0
 60 61  2  0
 61 62  1  0
 62 63  2  0
 63 64  1  0
 64 65  2  0
 65 66  1  0
 66 67  2  0
 67 68  1  0
 68 69  2  0
 69 70  1  0
 70 71  2  0
 71 72  1  0
 72 73  2  0
 73 74  1  0
 74 75  2  0
 75 76  1  0
 76 77  2  0
 77 78  1  0
 78 79  2  0
 79 80  1  0
 80 81  2  0
 81 82  1  0
 82 83  2  0
 83 84  1  0
 84 85  2  0
 85 86  1  0
 86 87  2  0
 87 88  1  0
 88 89  2  0
 89 90  1  0
 90 91  2  0
 91 92  1  0
 92 93  2  0
 93 94  1  0
 94 95  2  0
 95 96  1  0
 96 97  2  0
 97  2  1  0
 97 54  1  0
M  END
>  <Title>  (787) 
idABCIgen13

$$$$

     RDKit          2D

 37 41  0  0  0  0  0  0  0  0999 V2000
   10.5000    5.1962    0.0000 C   0  0  0  0  0  0  0  0  0  0  0  0
    9.7500    3.8971    0.0000 C   0  0  0  0  0  0  0  0  0  0  0  0
    8.2500    3.8971    0.0000 C   0  0  0  0  0  0  0  0  0  0  0  0
    7.5000    2.5981    0.0000 C   0  0  0  0  0  0  0  0  0  0  0  0
    8.2500    1.2990    0.0000 C   0  0  0  0  0  0  0  0  0  0  0  0
    7.5000    0.0000    0.0000 C   0  0  0  0  0  0  0  0  0  0  0  0
    6.0000    0.0000    0.0000 C   0  0  0  0  0  0  0  0  0  0  0  0
    5.2500   -1.2990    0.0000 O   0  0  0  0  0  0  0  0  0  0  0  0
    6.0000   -2.5981    0.0000 C   0  0  0  0  0  0  0  0  0  0  0  0
    7.5000   -2.5981    0.0000 O   0  0  0  0  0  0  0  0  0  0  0  0
    5.2500   -3.8971    0.0000 N   0  0  0  0  0  0  0  0  0  0  0  0
    6.0000   -5.1962    0.0000 C   0  0  0  0  0  0  0  0  0  0  0  0
    7.4918   -5.3529    0.0000 N   0  0  0  0  0  0  0  0  0  0  0  0
    7.8037   -6.8202    0.0000 N   0  0  0  0  0  0  0  0  0  0  0  0
    6.5046   -7.5702    0.0000 N   0  0  0  0  0  0  0  0  0  0  0  0
    5.3899   -6.5665    0.0000 N   0  0  0  0  0  0  0  0  0  0  0  0
    3.9227   -6.8783    0.0000 N   0  0  0  0  0  0  0  0  0  0  0  0
    2.8080   -5.8746    0.0000 C   0  0  0  0  0  0  0  0  0  0  0  0
    1.5089   -6.6246    0.0000 C   0  0  0  0  0  0  0  0  0  0  0  0
    1.8208   -8.0919    0.0000 N   0  0  0  0  0  0  0  0  0  0  0  0
    0.8171   -9.2066    0.0000 C   0  0  0  0  0  0  0  0  0  0  0  0
    1.2806  -10.6332    0.0000 O   0  0  0  0  0  0  0  0  0  0  0  0
   -0.6501   -8.8947    0.0000 N   0  0  0  0  0  0  0  0  0  0  0  0
   -1.1137   -7.4681    0.0000 C   0  0  0  0  0  0  0  0  0  0  0  0
   -2.5809   -7.1563    0.0000 N   0  0  0  0  0  0  0  0  0  0  0  0
   -3.0444   -5.7297    0.0000 N   0  0  0  0  0  0  0  0  0  0  0  0
   -2.0407   -4.6150    0.0000 N   0  0  0  0  0  0  0  0  0  0  0  0
   -0.5735   -4.9268    0.0000 N   0  0  0  0  0  0  0  0  0  0  0  0
   -0.1100   -6.3534    0.0000 N   0  0  0  0  0  0  0  0  0  0  0  0
    3.3126   -8.2487    0.0000 C   0  0  0  0  0  0  0  0  0  0  0  0
    4.0626   -9.5477    0.0000 O   0  0  0  0  0  0  0  0  0  0  0  0
    5.2500    1.2990    0.0000 C   0  0  0  0  0  0  0  0  0  0  0  0
    3.7500    1.2990    0.0000 C   0  0  0  0  0  0  0  0  0  0  0  0
    3.0000    2.5981    0.0000 C   0  0  0  0  0  0  0  0  0  0  0  0
    3.7500    3.8971    0.0000 C   0  0  0  0  0  0  0  0  0  0  0  0
    5.2500    3.8971    0.0000 C   0  0  0  0  0  0  0  0  0  0  0  0
    6.0000    2.5981    0.0000 C   0  0  0  0  0  0  0  0  0  0  0  0
  1  2  2  0
  2  3  1  0
  3  4  1  0
  4  5  2  0
  5  6  1  0
  6  7  2  0
  7  8  1  0
  8  9  1  0
  9 10  2  0
  9 11  1  0
 11 12  1  0
 12 13  2  0
 13 14  1  0
 14 15  2  0
 15 16  1  0
 16 17  1  0
 17 18  1  0
 18 19  1  0
 19 20  1  0
 20 21  1  0
 21 22  2  0
 21 23  1  0
 23 24  1  0
 24 25  2  0
 25 26  1  0
 26 27  2  0
 27 28  1  0
 28 29  2  0
 20 30  1  0
 30 31  2  0
  7 32  1  0
 32 33  2  0
 33 34  1  0
 34 35  2  0
 35 36  1  0
 36 37  2  0
 37  4  1  0
 16 12  1  0
 30 17  1  0
 37 32  1  0
 29 24  1  0
M  END
>  <Title>  (788) 
idABCJgen13

$$$$

     RDKit          2D

 32 35  0  0  0  0  0  0  0  0999 V2000
    3.2286   -0.0000    0.0000 C   0  0  0  0  0  0  0  0  0  0  0  0
    1.7286    0.0000    0.0000 C   0  0  0  0  0  0  0  0  0  0  0  0
    1.0777    1.3515    0.0000 C   0  0  0  0  0  0  0  0  0  0  0  0
   -0.3846    1.6852    0.0000 C   0  0  0  0  0  0  0  0  0  0  0  0
   -1.5574    0.7500    0.0000 C   0  0  0  0  0  0  0  0  0  0  0  0
   -1.5574   -0.7500    0.0000 C   0  0  0  0  0  0  0  0  0  0  0  0
   -2.9088   -1.4008    0.0000 C   0  0  0  0  0  0  0  0  0  0  0  0
   -3.0209   -2.8966    0.0000 O   0  0  0  0  0  0  0  0  0  0  0  0
   -4.1482   -0.5558    0.0000 N   0  0  0  0  0  0  0  0  0  0  0  0
   -5.4997   -1.2067    0.0000 C   0  0  0  0  0  0  0  0  0  0  0  0
   -5.7675   -2.6826    0.0000 N   0  0  0  0  0  0  0  0  0  0  0  0
   -7.2539   -2.8839    0.0000 N   0  0  0  0  0  0  0  0  0  0  0  0
   -7.9047   -1.5325    0.0000 N   0  0  0  0  0  0  0  0  0  0  0  0
   -6.8205   -0.4959    0.0000 N   0  0  0  0  0  0  0  0  0  0  0  0
   -7.0219    0.9906    0.0000 N   0  0  0  0  0  0  0  0  0  0  0  0
   -8.3428    1.7014    0.0000 C   0  0  0  0  0  0  0  0  0  0  0  0
   -8.0750    3.1773    0.0000 C   0  0  0  0  0  0  0  0  0  0  0  0
   -6.5885    3.3786    0.0000 N   0  0  0  0  0  0  0  0  0  0  0  0
   -5.8777    4.6995    0.0000 C   0  0  0  0  0  0  0  0  0  0  0  0
   -6.6663    5.9755    0.0000 O   0  0  0  0  0  0  0  0  0  0  0  0
   -4.3784    4.7444    0.0000 N   0  0  0  0  0  0  0  0  0  0  0  0
   -3.6676    6.0653    0.0000 C   0  0  0  0  0  0  0  0  0  0  0  0
   -2.1683    6.1101    0.0000 N   0  0  0  0  0  0  0  0  0  0  0  0
   -1.4575    7.4310    0.0000 N   0  0  0  0  0  0  0  0  0  0  0  0
   -2.2460    8.7071    0.0000 N   0  0  0  0  0  0  0  0  0  0  0  0
   -3.7453    8.6622    0.0000 N   0  0  0  0  0  0  0  0  0  0  0  0
   -4.4561    7.3413    0.0000 N   0  0  0  0  0  0  0  0  0  0  0  0
   -5.9377    2.0272    0.0000 C   0  0  0  0  0  0  0  0  0  0  0  0
   -4.4618    1.7593    0.0000 O   0  0  0  0  0  0  0  0  0  0  0  0
   -0.3846   -1.6852    0.0000 C   0  0  0  0  0  0  0  0  0  0  0  0
   -0.7184   -3.1476    0.0000 O   0  0  0  0  0  0  0  0  0  0  0  0
    1.0777   -1.3515    0.0000 N   0  0  0  0  0  0  0  0  0  0  0  0
  1  2  1  0
  2  3  1  0
  3  4  2  0
  4  5  1  0
  5  6  1  0
  6  7  1  0
  7  8  2  0
  7  9  1  0
  9 10  1  0
 10 11  2  0
 11 12  1  0
 12 13  2  0
 13 14  1  0
 14 15  1  0
 15 16  1  0
 16 17  1  0
 17 18  1  0
 18 19  1  0
 19 20  2  0
 19 21  1  0
 21 22  1  0
 22 23  2  0
 23 24  1  0
 24 25  2  0
 25 26  1  0
 26 27  2  0
 18 28  1  0
 28 29  2  0
  6 30  1  0
 30 31  2  0
 30 32  1  0
 32  2  1  0
 14 10  1  0
 28 15  1  0
 27 22  1  0
M  END
>  <Title>  (789) 
idABCKgen13

$$$$

     RDKit          2D

 27 30  0  0  0  0  0  0  0  0999 V2000
   -7.5989  -10.7027    0.0000 C   0  0  0  0  0  0  0  0  0  0  0  0
   -6.1317  -10.3909    0.0000 O   0  0  0  0  0  0  0  0  0  0  0  0
   -5.6682   -8.9643    0.0000 C   0  0  0  0  0  0  0  0  0  0  0  0
   -4.2416   -8.5008    0.0000 C   0  0  0  0  0  0  0  0  0  0  0  0
   -4.2416   -7.0008    0.0000 C   0  0  0  0  0  0  0  0  0  0  0  0
   -5.6682   -6.5372    0.0000 C   0  0  0  0  0  0  0  0  0  0  0  0
   -6.1317   -5.1106    0.0000 N   0  0  0  0  0  0  0  0  0  0  0  0
   -7.5583   -4.6471    0.0000 N   0  0  0  0  0  0  0  0  0  0  0  0
   -7.5583   -3.1471    0.0000 N   0  0  0  0  0  0  0  0  0  0  0  0
   -6.1317   -2.6836    0.0000 N   0  0  0  0  0  0  0  0  0  0  0  0
   -5.2500   -3.8971    0.0000 C   0  0  0  0  0  0  0  0  0  0  0  0
   -3.7500   -3.8971    0.0000 N   0  0  0  0  0  0  0  0  0  0  0  0
   -3.0000   -2.5981    0.0000 C   0  0  0  0  0  0  0  0  0  0  0  0
   -3.7500   -1.2990    0.0000 O   0  0  0  0  0  0  0  0  0  0  0  0
   -1.5000   -2.5981    0.0000 C   0  0  0  0  0  0  0  0  0  0  0  0
   -0.7500   -3.8971    0.0000 C   0  0  0  0  0  0  0  0  0  0  0  0
    0.7500   -3.8971    0.0000 C   0  0  0  0  0  0  0  0  0  0  0  0
    1.5000   -2.5981    0.0000 C   0  0  0  0  0  0  0  0  0  0  0  0
    3.0000   -2.5981    0.0000 C   0  0  0  0  0  0  0  0  0  0  0  0
    0.7500   -1.2990    0.0000 C   0  0  0  0  0  0  0  0  0  0  0  0
    1.5000    0.0000    0.0000 C   0  0  0  0  0  0  0  0  0  0  0  0
    0.7500    1.2990    0.0000 C   0  0  0  0  0  0  0  0  0  0  0  0
   -0.7500    1.2990    0.0000 C   0  0  0  0  0  0  0  0  0  0  0  0
   -1.5000    0.0000    0.0000 C   0  0  0  0  0  0  0  0  0  0  0  0
   -0.7500   -1.2990    0.0000 C   0  0  0  0  0  0  0  0  0  0  0  0
   -6.5498   -7.7508    0.0000 C   0  0  0  0  0  0  0  0  0  0  0  0
   -8.0498   -7.7508    0.0000 O   0  0  0  0  0  0  0  0  0  0  0  0
  1  2  1  0
  2  3  1  0
  3  4  2  0
  4  5  1  0
  5  6  2  0
  6  7  1  0
  7  8  1  0
  8  9  2  0
  9 10  1  0
 10 11  2  0
 11 12  1  0
 12 13  1  0
 13 14  2  0
 13 15  1  0
 15 16  1  0
 16 17  1  0
 17 18  1  0
 18 19  1  0
 18 20  1  0
 20 21  2  0
 21 22  1  0
 22 23  2  0
 23 24  1  0
 24 25  2  0
  6 26  1  0
 26 27  2  0
 26  3  1  0
 11  7  1  0
 25 15  1  0
 25 20  1  0
M  END
>  <Title>  (790) 
idABCLgen13

$$$$

     RDKit          2D

 33 36  0  0  0  0  0  0  0  0999 V2000
    3.4598   -0.0000    0.0000 C   0  0  0  0  0  0  0  0  0  0  0  0
    1.9598    0.0000    0.0000 C   0  0  0  0  0  0  0  0  0  0  0  0
    1.3858   -1.3858    0.0000 C   0  0  0  0  0  0  0  0  0  0  0  0
   -0.0000   -1.9598    0.0000 C   0  0  0  0  0  0  0  0  0  0  0  0
   -1.3858   -1.3858    0.0000 C   0  0  0  0  0  0  0  0  0  0  0  0
   -1.9598    0.0000    0.0000 C   0  0  0  0  0  0  0  0  0  0  0  0
   -1.3858    1.3858    0.0000 C   0  0  0  0  0  0  0  0  0  0  0  0
   -2.4465    2.4465    0.0000 C   0  0  0  0  0  0  0  0  0  0  0  0
   -3.8954    2.0583    0.0000 O   0  0  0  0  0  0  0  0  0  0  0  0
   -2.0583    3.8954    0.0000 N   0  0  0  0  0  0  0  0  0  0  0  0
   -3.1189    4.9560    0.0000 C   0  0  0  0  0  0  0  0  0  0  0  0
   -4.6004    4.7214    0.0000 N   0  0  0  0  0  0  0  0  0  0  0  0
   -5.2814    6.0579    0.0000 N   0  0  0  0  0  0  0  0  0  0  0  0
   -4.2208    7.1185    0.0000 N   0  0  0  0  0  0  0  0  0  0  0  0
   -2.8843    6.4376    0.0000 N   0  0  0  0  0  0  0  0  0  0  0  0
   -1.5477    7.1185    0.0000 N   0  0  0  0  0  0  0  0  0  0  0  0
   -1.3131    8.6001    0.0000 C   0  0  0  0  0  0  0  0  0  0  0  0
    0.1684    8.8347    0.0000 C   0  0  0  0  0  0  0  0  0  0  0  0
    0.8494    7.4982    0.0000 N   0  0  0  0  0  0  0  0  0  0  0  0
    2.3310    7.2636    0.0000 C   0  0  0  0  0  0  0  0  0  0  0  0
    3.2749    8.4293    0.0000 O   0  0  0  0  0  0  0  0  0  0  0  0
    2.8685    5.8632    0.0000 N   0  0  0  0  0  0  0  0  0  0  0  0
    4.3500    5.6285    0.0000 C   0  0  0  0  0  0  0  0  0  0  0  0
    4.8876    4.2282    0.0000 N   0  0  0  0  0  0  0  0  0  0  0  0
    6.3691    3.9935    0.0000 N   0  0  0  0  0  0  0  0  0  0  0  0
    7.3131    5.1592    0.0000 N   0  0  0  0  0  0  0  0  0  0  0  0
    6.7756    6.5596    0.0000 N   0  0  0  0  0  0  0  0  0  0  0  0
    5.2940    6.7943    0.0000 N   0  0  0  0  0  0  0  0  0  0  0  0
   -0.2112    6.4376    0.0000 C   0  0  0  0  0  0  0  0  0  0  0  0
    0.0234    4.9560    0.0000 O   0  0  0  0  0  0  0  0  0  0  0  0
    0.0000    1.9598    0.0000 C   0  0  0  0  0  0  0  0  0  0  0  0
    0.0000    3.4598    0.0000 O   0  0  0  0  0  0  0  0  0  0  0  0
    1.3858    1.3858    0.0000 N   0  0  0  0  0  0  0  0  0  0  0  0
  1  2  1  0
  2  3  1  0
  3  4  2  0
  4  5  1  0
  5  6  1  0
  6  7  1  0
  7  8  1  0
  8  9  2  0
  8 10  1  0
 10 11  1  0
 11 12  2  0
 12 13  1  0
 13 14  2  0
 14 15  1  0
 15 16  1  0
 16 17  1  0
 17 18  1  0
 18 19  1  0
 19 20  1  0
 20 21  2  0
 20 22  1  0
 22 23  1  0
 23 24  2  0
 24 25  1  0
 25 26  2  0
 26 27  1  0
 27 28  2  0
 19 29  1  0
 29 30  2  0
  7 31  1  0
 31 32  2  0
 31 33  1  0
 33  2  1  0
 15 11  1  0
 29 16  1  0
 28 23  1  0
M  END
>  <Title>  (791) 
idABCMgen13

$$$$

     RDKit          2D

 39 44  0  0  0  0  0  0  0  0999 V2000
   -3.4182    0.0420    0.0000 C   0  0  0  0  0  0  0  0  0  0  0  0
   -3.8817   -1.3846    0.0000 C   0  0  0  0  0  0  0  0  0  0  0  0
   -5.3083   -1.8481    0.0000 C   0  0  0  0  0  0  0  0  0  0  0  0
   -5.3083   -3.3481    0.0000 C   0  0  0  0  0  0  0  0  0  0  0  0
   -3.8817   -3.8116    0.0000 N   0  0  0  0  0  0  0  0  0  0  0  0
   -3.0000   -2.5981    0.0000 N   0  0  0  0  0  0  0  0  0  0  0  0
   -1.5000   -2.5981    0.0000 C   0  0  0  0  0  0  0  0  0  0  0  0
   -0.7500   -3.8971    0.0000 C   0  0  0  0  0  0  0  0  0  0  0  0
    0.7500   -3.8971    0.0000 C   0  0  0  0  0  0  0  0  0  0  0  0
    1.5000   -2.5981    0.0000 C   0  0  0  0  0  0  0  0  0  0  0  0
    3.0000   -2.5981    0.0000 C   0  0  0  0  0  0  0  0  0  0  0  0
    3.7500   -1.2990    0.0000 O   0  0  0  0  0  0  0  0  0  0  0  0
    3.7500   -3.8971    0.0000 N   0  0  0  0  0  0  0  0  0  0  0  0
    5.2500   -3.8971    0.0000 C   0  0  0  0  0  0  0  0  0  0  0  0
    6.1317   -2.6836    0.0000 N   0  0  0  0  0  0  0  0  0  0  0  0
    7.5583   -3.1471    0.0000 N   0  0  0  0  0  0  0  0  0  0  0  0
    7.5583   -4.6471    0.0000 N   0  0  0  0  0  0  0  0  0  0  0  0
    6.1317   -5.1106    0.0000 N   0  0  0  0  0  0  0  0  0  0  0  0
    5.6682   -6.5372    0.0000 C   0  0  0  0  0  0  0  0  0  0  0  0
    6.5498   -7.7508    0.0000 C   0  0  0  0  0  0  0  0  0  0  0  0
    5.6682   -8.9643    0.0000 C   0  0  0  0  0  0  0  0  0  0  0  0
    4.2416   -8.5008    0.0000 C   0  0  0  0  0  0  0  0  0  0  0  0
    3.0280   -9.3824    0.0000 C   0  0  0  0  0  0  0  0  0  0  0  0
    3.1848  -10.8742    0.0000 O   0  0  0  0  0  0  0  0  0  0  0  0
    1.6577   -8.7723    0.0000 N   0  0  0  0  0  0  0  0  0  0  0  0
    0.4442   -9.6540    0.0000 C   0  0  0  0  0  0  0  0  0  0  0  0
   -0.9261   -9.0439    0.0000 N   0  0  0  0  0  0  0  0  0  0  0  0
   -2.1396   -9.9256    0.0000 N   0  0  0  0  0  0  0  0  0  0  0  0
   -1.9829  -11.4174    0.0000 N   0  0  0  0  0  0  0  0  0  0  0  0
   -0.6125  -12.0275    0.0000 N   0  0  0  0  0  0  0  0  0  0  0  0
    0.6010  -11.1458    0.0000 N   0  0  0  0  0  0  0  0  0  0  0  0
    4.2416   -7.0008    0.0000 C   0  0  0  0  0  0  0  0  0  0  0  0
    3.0280   -6.1191    0.0000 O   0  0  0  0  0  0  0  0  0  0  0  0
    0.7500   -1.2990    0.0000 C   0  0  0  0  0  0  0  0  0  0  0  0
    1.5000    0.0000    0.0000 C   0  0  0  0  0  0  0  0  0  0  0  0
    0.7500    1.2990    0.0000 C   0  0  0  0  0  0  0  0  0  0  0  0
   -0.7500    1.2990    0.0000 C   0  0  0  0  0  0  0  0  0  0  0  0
   -1.5000    0.0000    0.0000 C   0  0  0  0  0  0  0  0  0  0  0  0
   -0.7500   -1.2990    0.0000 C   0  0  0  0  0  0  0  0  0  0  0  0
  1  2  1  0
  2  3  2  0
  3  4  1  0
  4  5  2  0
  5  6  1  0
  6  7  1  0
  7  8  2  0
  8  9  1  0
  9 10  2  0
 10 11  1  0
 11 12  2  0
 11 13  1  0
 13 14  1  0
 14 15  2  0
 15 16  1  0
 16 17  2  0
 17 18  1  0
 18 19  1  0
 19 20  2  0
 20 21  1  0
 21 22  2  0
 22 23  1  0
 23 24  2  0
 23 25  1  0
 25 26  1  0
 26 27  2  0
 27 28  1  0
 28 29  2  0
 29 30  1  0
 30 31  2  0
 22 32  1  0
 32 33  2  0
 10 34  1  0
 34 35  2  0
 35 36  1  0
 36 37  2  0
 37 38  1  0
 38 39  2  0
  6  2  1  0
 39  7  1  0
 18 14  1  0
 32 19  1  0
 39 34  1  0
 31 26  1  0
M  END
>  <Title>  (792) 
idABCNgen13

$$$$

     RDKit          2D

  8  7  0  0  0  0  0  0  0  0999 V2000
    0.0000    0.0000    0.0000 C   0  0  0  0  0  0  0  0  0  0  0  0
   -0.0000   -1.5000    0.0000 C   0  0  0  0  0  0  0  0  0  0  0  0
   -0.0000   -3.0000    0.0000 C   0  0  0  0  0  0  0  0  0  0  0  0
   -0.0000   -4.5000    0.0000 C   0  0  0  0  0  0  0  0  0  0  0  0
   -0.0000   -6.0000    0.0000 C   0  0  0  0  0  0  0  0  0  0  0  0
   -0.0000   -7.5000    0.0000 C   0  0  0  0  0  0  0  0  0  0  0  0
   -0.0000   -9.0000    0.0000 C   0  0  0  0  0  0  0  0  0  0  0  0
   -0.0000  -10.5000    0.0000 N   0  0  0  0  0  0  0  0  0  0  0  0
  1  2  3  0
  2  3  1  0
  3  4  3  0
  4  5  1  0
  5  6  3  0
  6  7  1  0
  7  8  3  0
M  END
>  <Title>  (793) 
idABCOgen13

$$$$

     RDKit          2D

 11 12  0  0  0  0  0  0  0  0999 V2000
   -3.5718    0.8070    0.0000 O   0  0  0  0  0  0  0  0  0  0  0  0
   -2.2841    1.5763    0.0000 C   0  0  0  0  0  0  0  0  0  0  0  0
   -2.4186    3.0703    0.0000 C   0  0  0  0  0  0  0  0  0  0  0  0
   -1.3344    4.1069    0.0000 C   0  0  0  0  0  0  0  0  0  0  0  0
    0.1520    3.9056    0.0000 O   0  0  0  0  0  0  0  0  0  0  0  0
    0.9214    2.6179    0.0000 C   0  0  0  0  0  0  0  0  0  0  0  0
    0.3943    1.2135    0.0000 C   0  0  0  0  0  0  0  0  0  0  0  0
    1.2760    0.0000    0.0000 N   0  0  0  0  0  0  0  0  0  0  0  0
    0.3943   -1.2135    0.0000 C   0  0  0  0  0  0  0  0  0  0  0  0
   -1.0323   -0.7500    0.0000 N   0  0  0  0  0  0  0  0  0  0  0  0
   -1.0323    0.7500    0.0000 N   0  0  0  0  0  0  0  0  0  0  0  0
  1  2  2  0
  2  3  1  0
  3  4  2  0
  4  5  1  0
  5  6  1  0
  6  7  1  0
  7  8  2  0
  8  9  1  0
  9 10  2  0
 10 11  1  0
 11  2  1  0
 11  7  1  0
M  END
>  <Title>  (794) 
idABCPgen13

$$$$

     RDKit          2D

 84 85  0  0  0  0  0  0  0  0999 V2000
    6.5557   -4.3450    0.0000 C   0  0  0  0  0  0  0  0  0  0  0  0
    7.3495   -4.4186    0.0000 C   0  0  0  0  0  0  0  0  0  0  0  0
    7.3033   -5.9179    0.0000 C   0  0  0  0  0  0  0  0  0  0  0  0
    7.4417   -7.4115    0.0000 C   0  0  0  0  0  0  0  0  0  0  0  0
    7.7626   -8.8768    0.0000 C   0  0  0  0  0  0  0  0  0  0  0  0
    8.2611  -10.2915    0.0000 C   0  0  0  0  0  0  0  0  0  0  0  0
    8.9297  -11.6342    0.0000 C   0  0  0  0  0  0  0  0  0  0  0  0
    9.7583  -12.8846    0.0000 C   0  0  0  0  0  0  0  0  0  0  0  0
   10.7342  -14.0237    0.0000 C   0  0  0  0  0  0  0  0  0  0  0  0
   11.8427  -15.0343    0.0000 C   0  0  0  0  0  0  0  0  0  0  0  0
   13.0670  -15.9009    0.0000 C   0  0  0  0  0  0  0  0  0  0  0  0
   14.3885  -16.6106    0.0000 C   0  0  0  0  0  0  0  0  0  0  0  0
   15.7872  -17.1524    0.0000 C   0  0  0  0  0  0  0  0  0  0  0  0
   17.2419  -17.5183    0.0000 C   0  0  0  0  0  0  0  0  0  0  0  0
   18.7306  -17.7026    0.0000 C   0  0  0  0  0  0  0  0  0  0  0  0
   20.2306  -17.7026    0.0000 C   0  0  0  0  0  0  0  0  0  0  0  0
   21.7192  -17.5183    0.0000 C   0  0  0  0  0  0  0  0  0  0  0  0
   23.1739  -17.1524    0.0000 C   0  0  0  0  0  0  0  0  0  0  0  0
   24.5726  -16.6106    0.0000 C   0  0  0  0  0  0  0  0  0  0  0  0
   25.8941  -15.9009    0.0000 C   0  0  0  0  0  0  0  0  0  0  0  0
   27.1184  -15.0343    0.0000 C   0  0  0  0  0  0  0  0  0  0  0  0
   28.2269  -14.0237    0.0000 C   0  0  0  0  0  0  0  0  0  0  0  0
   29.2029  -12.8846    0.0000 C   0  0  0  0  0  0  0  0  0  0  0  0
   30.0314  -11.6342    0.0000 C   0  0  0  0  0  0  0  0  0  0  0  0
   30.7000  -10.2915    0.0000 C   0  0  0  0  0  0  0  0  0  0  0  0
   31.1985   -8.8768    0.0000 C   0  0  0  0  0  0  0  0  0  0  0  0
   31.5194   -7.4115    0.0000 C   0  0  0  0  0  0  0  0  0  0  0  0
   31.6578   -5.9179    0.0000 C   0  0  0  0  0  0  0  0  0  0  0  0
   31.6117   -4.4186    0.0000 C   0  0  0  0  0  0  0  0  0  0  0  0
   31.3816   -2.9363    0.0000 C   0  0  0  0  0  0  0  0  0  0  0  0
   30.9711   -1.4936    0.0000 C   0  0  0  0  0  0  0  0  0  0  0  0
   30.3864   -0.1122    0.0000 C   0  0  0  0  0  0  0  0  0  0  0  0
   29.6364    1.1868    0.0000 C   0  0  0  0  0  0  0  0  0  0  0  0
   28.7324    2.3838    0.0000 C   0  0  0  0  0  0  0  0  0  0  0  0
   27.6882    3.4607    0.0000 C   0  0  0  0  0  0  0  0  0  0  0  0
   26.5196    4.4011    0.0000 C   0  0  0  0  0  0  0  0  0  0  0  0
   25.2443    5.1907    0.0000 C   0  0  0  0  0  0  0  0  0  0  0  0
   23.8816    5.8177    0.0000 C   0  0  0  0  0  0  0  0  0  0  0  0
   22.4522    6.2724    0.0000 C   0  0  0  0  0  0  0  0  0  0  0  0
   20.9777    6.5480    0.0000 C   0  0  0  0  0  0  0  0  0  0  0  0
   19.4806    6.6404    0.0000 C   0  0  0  0  0  0  0  0  0  0  0  0
   17.9834    6.5480    0.0000 C   0  0  0  0  0  0  0  0  0  0  0  0
   16.5090    6.2724    0.0000 C   0  0  0  0  0  0  0  0  0  0  0  0
   15.0795    5.8177    0.0000 C   0  0  0  0  0  0  0  0  0  0  0  0
   13.7168    5.1907    0.0000 C   0  0  0  0  0  0  0  0  0  0  0  0
   12.4415    4.4011    0.0000 C   0  0  0  0  0  0  0  0  0  0  0  0
   11.2729    3.4607    0.0000 C   0  0  0  0  0  0  0  0  0  0  0  0
   10.2287    2.3838    0.0000 C   0  0  0  0  0  0  0  0  0  0  0  0
    9.3247    1.1868    0.0000 C   0  0  0  0  0  0  0  0  0  0  0  0
    8.5747   -0.1122    0.0000 C   0  0  0  0  0  0  0  0  0  0  0  0
    7.9901   -1.4936    0.0000 C   0  0  0  0  0  0  0  0  0  0  0  0
    7.4285    0.0000    0.0000 C   0  0  0  0  0  0  0  0  0  0  0  0
    7.3020    1.3650    0.0000 C   0  0  0  0  0  0  0  0  0  0  0  0
    6.9268    2.6835    0.0000 C   0  0  0  0  0  0  0  0  0  0  0  0
    6.3158    3.9106    0.0000 C   0  0  0  0  0  0  0  0  0  0  0  0
    5.4897    5.0045    0.0000 C   0  0  0  0  0  0  0  0  0  0  0  0
    4.4766    5.9280    0.0000 C   0  0  0  0  0  0  0  0  0  0  0  0
    3.3112    6.6497    0.0000 C   0  0  0  0  0  0  0  0  0  0  0  0
    2.0329    7.1449    0.0000 C   0  0  0  0  0  0  0  0  0  0  0  0
    0.6854    7.3968    0.0000 C   0  0  0  0  0  0  0  0  0  0  0  0
   -0.6854    7.3968    0.0000 C   0  0  0  0  0  0  0  0  0  0  0  0
   -2.0329    7.1449    0.0000 C   0  0  0  0  0  0  0  0  0  0  0  0
   -3.3112    6.6497    0.0000 C   0  0  0  0  0  0  0  0  0  0  0  0
   -4.4766    5.9280    0.0000 C   0  0  0  0  0  0  0  0  0  0  0  0
   -5.4897    5.0045    0.0000 C   0  0  0  0  0  0  0  0  0  0  0  0
   -6.3158    3.9106    0.0000 C   0  0  0  0  0  0  0  0  0  0  0  0
   -6.9268    2.6835    0.0000 C   0  0  0  0  0  0  0  0  0  0  0  0
   -7.3020    1.3650    0.0000 C   0  0  0  0  0  0  0  0  0  0  0  0
   -7.4285    0.0000    0.0000 C   0  0  0  0  0  0  0  0  0  0  0  0
   -7.3020   -1.3650    0.0000 C   0  0  0  0  0  0  0  0  0  0  0  0
   -6.9268   -2.6835    0.0000 C   0  0  0  0  0  0  0  0  0  0  0  0
   -6.3158   -3.9106    0.0000 C   0  0  0  0  0  0  0  0  0  0  0  0
   -5.4897   -5.0045    0.0000 C   0  0  0  0  0  0  0  0  0  0  0  0
   -4.4766   -5.9280    0.0000 C   0  0  0  0  0  0  0  0  0  0  0  0
   -3.3112   -6.6497    0.0000 C   0  0  0  0  0  0  0  0  0  0  0  0
   -2.0329   -7.1449    0.0000 C   0  0  0  0  0  0  0  0  0  0  0  0
   -0.6854   -7.3968    0.0000 C   0  0  0  0  0  0  0  0  0  0  0  0
    0.6854   -7.3968    0.0000 C   0  0  0  0  0  0  0  0  0  0  0  0
    2.0329   -7.1449    0.0000 C   0  0  0  0  0  0  0  0  0  0  0  0
    3.3112   -6.6497    0.0000 C   0  0  0  0  0  0  0  0  0  0  0  0
    4.4766   -5.9280    0.0000 C   0  0  0  0  0  0  0  0  0  0  0  0
    5.4897   -5.0045    0.0000 C   0  0  0  0  0  0  0  0  0  0  0  0
    6.3158   -3.9106    0.0000 C   0  0  0  0  0  0  0  0  0  0  0  0
    7.5796   -2.9363    0.0000 C   0  0  0  0  0  0  0  0  0  0  0  0
  1  2  1  0
  2  3  1  0
  3  4  1  0
  4  5  1  0
  5  6  1  0
  6  7  1  0
  7  8  1  0
  8  9  1  0
  9 10  1  0
 10 11  1  0
 11 12  1  0
 12 13  1  0
 13 14  1  0
 14 15  1  0
 15 16  1  0
 16 17  1  0
 17 18  1  0
 18 19  1  0
 19 20  1  0
 20 21  1  0
 21 22  1  0
 22 23  1  0
 23 24  1  0
 24 25  1  0
 25 26  1  0
 26 27  1  0
 27 28  1  0
 28 29  1  0
 29 30  1  0
 30 31  1  0
 31 32  1  0
 32 33  1  0
 33 34  1  0
 34 35  1  0
 35 36  1  0
 36 37  1  0
 37 38  1  0
 38 39  1  0
 39 40  1  0
 40 41  1  0
 41 42  1  0
 42 43  1  0
 43 44  1  0
 44 45  1  0
 45 46  1  0
 46 47  1  0
 47 48  1  0
 48 49  1  0
 49 50  1  0
 50 51  1  0
 51 52  1  0
 52 53  1  0
 53 54  1  0
 54 55  1  0
 55 56  1  0
 56 57  1  0
 57 58  1  0
 58 59  1  0
 59 60  1  0
 60 61  1  0
 61 62  1  0
 62 63  1  0
 63 64  1  0
 64 65  1  0
 65 66  1  0
 66 67  1  0
 67 68  1  0
 68 69  1  0
 69 70  1  0
 70 71  1  0
 71 72  1  0
 72 73  1  0
 73 74  1  0
 74 75  1  0
 75 76  2  0
 76 77  1  0
 77 78  2  0
 78 79  1  0
 79 80  2  0
 80 81  1  0
 81 82  2  0
 82 83  1  0
 83 84  2  0
 84  2  1  0
 84 51  1  0
M  END
>  <Title>  (795) 
idABCQgen13

$$$$

     RDKit          2D

 14 13  0  0  0  0  0  0  0  0999 V2000
    0.0000    0.0000    0.0000 C   0  0  0  0  0  0  0  0  0  0  0  0
   -0.0000   -1.5000    0.0000 C   0  0  0  0  0  0  0  0  0  0  0  0
   -0.0000   -3.0000    0.0000 C   0  0  0  0  0  0  0  0  0  0  0  0
   -0.0000   -4.5000    0.0000 C   0  0  0  0  0  0  0  0  0  0  0  0
   -0.0000   -6.0000    0.0000 C   0  0  0  0  0  0  0  0  0  0  0  0
   -0.0000   -7.5000    0.0000 C   0  0  0  0  0  0  0  0  0  0  0  0
   -0.0000   -9.0000    0.0000 C   0  0  0  0  0  0  0  0  0  0  0  0
   -0.0000  -10.5000    0.0000 C   0  0  0  0  0  0  0  0  0  0  0  0
   -0.0000  -12.0000    0.0000 C   0  0  0  0  0  0  0  0  0  0  0  0
   -0.0000  -13.5000    0.0000 C   0  0  0  0  0  0  0  0  0  0  0  0
   -0.0000  -15.0000    0.0000 C   0  0  0  0  0  0  0  0  0  0  0  0
   -0.0000  -16.5000    0.0000 C   0  0  0  0  0  0  0  0  0  0  0  0
   -0.0000  -18.0000    0.0000 C   0  0  0  0  0  0  0  0  0  0  0  0
    1.2990  -18.7500    0.0000 C   0  0  0  0  0  0  0  0  0  0  0  0
  1  2  3  0
  2  3  1  0
  3  4  3  0
  4  5  1  0
  5  6  3  0
  6  7  1  0
  7  8  3  0
  8  9  1  0
  9 10  3  0
 10 11  1  0
 11 12  3  0
 12 13  1  0
 13 14  1  0
M  END
>  <Title>  (796) 
idABCRgen13

$$$$

     RDKit          2D

 80 81  0  0  0  0  0  0  0  0999 V2000
    2.2686    3.9146    0.0000 C   0  0  0  0  0  0  0  0  0  0  0  0
    3.0190    4.1834    0.0000 C   0  0  0  0  0  0  0  0  0  0  0  0
    2.5853    5.6193    0.0000 C   0  0  0  0  0  0  0  0  0  0  0  0
    2.2990    7.0918    0.0000 C   0  0  0  0  0  0  0  0  0  0  0  0
    2.1632    8.5856    0.0000 C   0  0  0  0  0  0  0  0  0  0  0  0
    2.1792   10.0855    0.0000 C   0  0  0  0  0  0  0  0  0  0  0  0
    2.3469   11.5761    0.0000 C   0  0  0  0  0  0  0  0  0  0  0  0
    2.6645   13.0421    0.0000 C   0  0  0  0  0  0  0  0  0  0  0  0
    3.1288   14.4685    0.0000 C   0  0  0  0  0  0  0  0  0  0  0  0
    3.7350   15.8405    0.0000 C   0  0  0  0  0  0  0  0  0  0  0  0
    4.4769   17.1442    0.0000 C   0  0  0  0  0  0  0  0  0  0  0  0
    5.3469   18.3661    0.0000 C   0  0  0  0  0  0  0  0  0  0  0  0
    6.3360   19.4938    0.0000 C   0  0  0  0  0  0  0  0  0  0  0  0
    7.4342   20.5156    0.0000 C   0  0  0  0  0  0  0  0  0  0  0  0
    8.6300   21.4210    0.0000 C   0  0  0  0  0  0  0  0  0  0  0  0
    9.9114   22.2008    0.0000 C   0  0  0  0  0  0  0  0  0  0  0  0
   11.2651   22.8470    0.0000 C   0  0  0  0  0  0  0  0  0  0  0  0
   12.6772   23.3529    0.0000 C   0  0  0  0  0  0  0  0  0  0  0  0
   14.1332   23.7134    0.0000 C   0  0  0  0  0  0  0  0  0  0  0  0
   15.6183   23.9247    0.0000 C   0  0  0  0  0  0  0  0  0  0  0  0
   17.1171   23.9847    0.0000 C   0  0  0  0  0  0  0  0  0  0  0  0
   18.6142   23.8928    0.0000 C   0  0  0  0  0  0  0  0  0  0  0  0
   20.0944   23.6498    0.0000 C   0  0  0  0  0  0  0  0  0  0  0  0
   21.5425   23.2584    0.0000 C   0  0  0  0  0  0  0  0  0  0  0  0
   22.9435   22.7224    0.0000 C   0  0  0  0  0  0  0  0  0  0  0  0
   24.2830   22.0475    0.0000 C   0  0  0  0  0  0  0  0  0  0  0  0
   25.5475   21.2405    0.0000 C   0  0  0  0  0  0  0  0  0  0  0  0
   26.7238   20.3098    0.0000 C   0  0  0  0  0  0  0  0  0  0  0  0
   27.7999   19.2648    0.0000 C   0  0  0  0  0  0  0  0  0  0  0  0
   28.7647   18.1163    0.0000 C   0  0  0  0  0  0  0  0  0  0  0  0
   29.6085   16.8761    0.0000 C   0  0  0  0  0  0  0  0  0  0  0  0
   30.3224   15.5569    0.0000 C   0  0  0  0  0  0  0  0  0  0  0  0
   30.8992   14.1722    0.0000 C   0  0  0  0  0  0  0  0  0  0  0  0
   31.3329   12.7363    0.0000 C   0  0  0  0  0  0  0  0  0  0  0  0
   31.6192   11.2638    0.0000 C   0  0  0  0  0  0  0  0  0  0  0  0
   31.7550    9.7700    0.0000 C   0  0  0  0  0  0  0  0  0  0  0  0
   31.7390    8.2701    0.0000 C   0  0  0  0  0  0  0  0  0  0  0  0
   31.5713    6.7795    0.0000 C   0  0  0  0  0  0  0  0  0  0  0  0
   31.2537    5.3135    0.0000 C   0  0  0  0  0  0  0  0  0  0  0  0
   30.7895    3.8872    0.0000 C   0  0  0  0  0  0  0  0  0  0  0  0
   30.1832    2.5151    0.0000 C   0  0  0  0  0  0  0  0  0  0  0  0
   29.4413    1.2114    0.0000 C   0  0  0  0  0  0  0  0  0  0  0  0
   28.5714   -0.0105    0.0000 C   0  0  0  0  0  0  0  0  0  0  0  0
   27.5822   -1.1381    0.0000 C   0  0  0  0  0  0  0  0  0  0  0  0
   26.4841   -2.1599    0.0000 C   0  0  0  0  0  0  0  0  0  0  0  0
   25.2882   -3.0654    0.0000 C   0  0  0  0  0  0  0  0  0  0  0  0
   24.0068   -3.8452    0.0000 C   0  0  0  0  0  0  0  0  0  0  0  0
   22.6531   -4.4914    0.0000 C   0  0  0  0  0  0  0  0  0  0  0  0
   21.2410   -4.9973    0.0000 C   0  0  0  0  0  0  0  0  0  0  0  0
   19.7850   -5.3578    0.0000 C   0  0  0  0  0  0  0  0  0  0  0  0
   18.2999   -5.5691    0.0000 C   0  0  0  0  0  0  0  0  0  0  0  0
   16.8011   -5.6291    0.0000 C   0  0  0  0  0  0  0  0  0  0  0  0
   15.3040   -5.5371    0.0000 C   0  0  0  0  0  0  0  0  0  0  0  0
   13.8238   -5.2942    0.0000 C   0  0  0  0  0  0  0  0  0  0  0  0
   12.3758   -4.9028    0.0000 C   0  0  0  0  0  0  0  0  0  0  0  0
   10.9748   -4.3668    0.0000 C   0  0  0  0  0  0  0  0  0  0  0  0
    9.6352   -3.6919    0.0000 C   0  0  0  0  0  0  0  0  0  0  0  0
    8.3707   -2.8849    0.0000 C   0  0  0  0  0  0  0  0  0  0  0  0
    7.1944   -1.9542    0.0000 C   0  0  0  0  0  0  0  0  0  0  0  0
    6.1183   -0.9092    0.0000 C   0  0  0  0  0  0  0  0  0  0  0  0
    5.1535    0.2393    0.0000 C   0  0  0  0  0  0  0  0  0  0  0  0
    4.3098    1.4795    0.0000 C   0  0  0  0  0  0  0  0  0  0  0  0
    3.8567   -0.0000    0.0000 C   0  0  0  0  0  0  0  0  0  0  0  0
    3.6477   -1.2523    0.0000 C   0  0  0  0  0  0  0  0  0  0  0  0
    3.0434   -2.3688    0.0000 C   0  0  0  0  0  0  0  0  0  0  0  0
    2.1094   -3.2287    0.0000 C   0  0  0  0  0  0  0  0  0  0  0  0
    0.9468   -3.7386    0.0000 C   0  0  0  0  0  0  0  0  0  0  0  0
   -0.3185   -3.8435    0.0000 C   0  0  0  0  0  0  0  0  0  0  0  0
   -1.5492   -3.5318    0.0000 C   0  0  0  0  0  0  0  0  0  0  0  0
   -2.6120   -2.8374    0.0000 C   0  0  0  0  0  0  0  0  0  0  0  0
   -3.3918   -1.8356    0.0000 C   0  0  0  0  0  0  0  0  0  0  0  0
   -3.8041   -0.6348    0.0000 C   0  0  0  0  0  0  0  0  0  0  0  0
   -3.8041    0.6348    0.0000 C   0  0  0  0  0  0  0  0  0  0  0  0
   -3.3918    1.8356    0.0000 C   0  0  0  0  0  0  0  0  0  0  0  0
   -2.6120    2.8374    0.0000 C   0  0  0  0  0  0  0  0  0  0  0  0
   -1.5492    3.5318    0.0000 C   0  0  0  0  0  0  0  0  0  0  0  0
   -0.3185    3.8435    0.0000 C   0  0  0  0  0  0  0  0  0  0  0  0
    0.9468    3.7386    0.0000 C   0  0  0  0  0  0  0  0  0  0  0  0
    2.1094    3.2287    0.0000 C   0  0  0  0  0  0  0  0  0  0  0  0
    3.5958    2.7988    0.0000 C   0  0  0  0  0  0  0  0  0  0  0  0
  1  2  1  0
  2  3  1  0
  3  4  1  0
  4  5  1  0
  5  6  1  0
  6  7  1  0
  7  8  1  0
  8  9  1  0
  9 10  1  0
 10 11  1  0
 11 12  1  0
 12 13  1  0
 13 14  1  0
 14 15  1  0
 15 16  1  0
 16 17  1  0
 17 18  1  0
 18 19  1  0
 19 20  1  0
 20 21  1  0
 21 22  1  0
 22 23  1  0
 23 24  1  0
 24 25  1  0
 25 26  1  0
 26 27  1  0
 27 28  1  0
 28 29  1  0
 29 30  1  0
 30 31  1  0
 31 32  1  0
 32 33  1  0
 33 34  1  0
 34 35  1  0
 35 36  1  0
 36 37  1  0
 37 38  1  0
 38 39  1  0
 39 40  1  0
 40 41  1  0
 41 42  1  0
 42 43  1  0
 43 44  1  0
 44 45  1  0
 45 46  1  0
 46 47  1  0
 47 48  1  0
 48 49  1  0
 49 50  1  0
 50 51  1  0
 51 52  1  0
 52 53  1  0
 53 54  1  0
 54 55  1  0
 55 56  1  0
 56 57  1  0
 57 58  2  0
 58 59  1  0
 59 60  2  0
 60 61  1  0
 61 62  2  0
 62 63  1  0
 63 64  2  0
 64 65  1  0
 65 66  2  0
 66 67  1  0
 67 68  2  0
 68 69  1  0
 69 70  2  0
 70 71  1  0
 71 72  2  0
 72 73  1  0
 73 74  2  0
 74 75  1  0
 75 76  2  0
 76 77  1  0
 77 78  2  0
 78 79  1  0
 79 80  2  0
 80  2  1  0
 80 62  1  0
M  END
>  <Title>  (797) 
idABCSgen13

$$$$

     RDKit          2D

 11 11  0  0  0  0  0  0  0  0999 V2000
    7.2760   -2.5981    0.0000 C   0  0  0  0  0  0  0  0  0  0  0  0
    5.7760   -2.5981    0.0000 C   0  0  0  0  0  0  0  0  0  0  0  0
    5.0260   -1.2990    0.0000 C   0  0  0  0  0  0  0  0  0  0  0  0
    3.5260   -1.2990    0.0000 C   0  0  0  0  0  0  0  0  0  0  0  0
    2.7760    0.0000    0.0000 C   0  0  0  0  0  0  0  0  0  0  0  0
    3.5260    1.2990    0.0000 O   0  0  0  0  0  0  0  0  0  0  0  0
    1.2760    0.0000    0.0000 C   0  0  0  0  0  0  0  0  0  0  0  0
    0.3943    1.2135    0.0000 C   0  0  0  0  0  0  0  0  0  0  0  0
   -1.0323    0.7500    0.0000 C   0  0  0  0  0  0  0  0  0  0  0  0
   -1.0323   -0.7500    0.0000 C   0  0  0  0  0  0  0  0  0  0  0  0
    0.3943   -1.2135    0.0000 C   0  0  0  0  0  0  0  0  0  0  0  0
  1  2  2  0
  2  3  1  0
  3  4  1  0
  4  5  1  0
  5  6  2  0
  5  7  1  0
  7  8  2  0
  8  9  1  0
  9 10  1  0
 10 11  1  0
 11  7  1  0
M  END
>  <Title>  (798) 
idABCTgen13

$$$$

     RDKit          2D

  9 10  0  0  0  0  0  0  0  0999 V2000
    1.5000    0.0000    0.0000 C   0  0  0  0  0  0  0  0  0  0  0  0
    0.7500   -1.2990    0.0000 C   0  0  0  0  0  0  0  0  0  0  0  0
   -0.7500   -1.2990    0.0000 C   0  0  0  0  0  0  0  0  0  0  0  0
   -1.5000    0.0000    0.0000 C   0  0  0  0  0  0  0  0  0  0  0  0
   -0.7500    1.2990    0.0000 C   0  0  0  0  0  0  0  0  0  0  0  0
    0.7500    1.2990    0.0000 C   0  0  0  0  0  0  0  0  0  0  0  0
   -1.7537    2.4138    0.0000 C   0  0  0  0  0  0  0  0  0  0  0  0
   -3.1240    1.8037    0.0000 C   0  0  0  0  0  0  0  0  0  0  0  0
   -2.9672    0.3119    0.0000 C   0  0  0  0  0  0  0  0  0  0  0  0
  1  2  2  0
  2  3  1  0
  3  4  2  0
  4  5  1  0
  5  6  2  0
  5  7  1  0
  7  8  1  0
  8  9  1  0
  6  1  1  0
  9  4  1  0
M  END
>  <Title>  (799) 
idABCUgen13

$$$$

     RDKit          2D

 17 18  0  0  0  0  0  0  0  0999 V2000
   -4.4388   -7.7572    0.0000 C   0  0  0  0  0  0  0  0  0  0  0  0
   -2.9716   -7.4453    0.0000 C   0  0  0  0  0  0  0  0  0  0  0  0
   -2.5081   -6.0187    0.0000 C   0  0  0  0  0  0  0  0  0  0  0  0
   -1.0409   -5.7068    0.0000 C   0  0  0  0  0  0  0  0  0  0  0  0
   -0.0372   -6.8216    0.0000 O   0  0  0  0  0  0  0  0  0  0  0  0
   -0.5773   -4.2803    0.0000 N   0  0  0  0  0  0  0  0  0  0  0  0
    0.8899   -3.9684    0.0000 C   0  0  0  0  0  0  0  0  0  0  0  0
    2.0046   -4.9721    0.0000 N   0  0  0  0  0  0  0  0  0  0  0  0
    3.3037   -4.2221    0.0000 N   0  0  0  0  0  0  0  0  0  0  0  0
    2.9918   -2.7549    0.0000 N   0  0  0  0  0  0  0  0  0  0  0  0
    1.5000   -2.5981    0.0000 N   0  0  0  0  0  0  0  0  0  0  0  0
    0.7500   -1.2990    0.0000 C   0  0  0  0  0  0  0  0  0  0  0  0
    1.5000    0.0000    0.0000 C   0  0  0  0  0  0  0  0  0  0  0  0
    0.7500    1.2990    0.0000 C   0  0  0  0  0  0  0  0  0  0  0  0
   -0.7500    1.2990    0.0000 C   0  0  0  0  0  0  0  0  0  0  0  0
   -1.5000    0.0000    0.0000 C   0  0  0  0  0  0  0  0  0  0  0  0
   -0.7500   -1.2990    0.0000 C   0  0  0  0  0  0  0  0  0  0  0  0
  1  2  1  0
  2  3  1  0
  3  4  1  0
  4  5  2  0
  4  6  1  0
  6  7  1  0
  7  8  2  0
  8  9  1  0
  9 10  2  0
 10 11  1  0
 11 12  1  0
 12 13  2  0
 13 14  1  0
 14 15  2  0
 15 16  1  0
 16 17  1  0
 11  7  1  0
 17 12  1  0
M  END
>  <Title>  (800) 
idABCVgen13

$$$$

     RDKit          2D

 31 34  0  0  0  0  0  0  0  0999 V2000
    3.0000    0.0000    0.0000 C   0  0  0  0  0  0  0  0  0  0  0  0
    1.5000    0.0000    0.0000 C   0  0  0  0  0  0  0  0  0  0  0  0
    0.7500   -1.2990    0.0000 C   0  0  0  0  0  0  0  0  0  0  0  0
   -0.7500   -1.2990    0.0000 C   0  0  0  0  0  0  0  0  0  0  0  0
   -1.5000    0.0000    0.0000 C   0  0  0  0  0  0  0  0  0  0  0  0
   -3.0000    0.0000    0.0000 C   0  0  0  0  0  0  0  0  0  0  0  0
   -3.7500   -1.2990    0.0000 O   0  0  0  0  0  0  0  0  0  0  0  0
   -3.7500    1.2990    0.0000 N   0  0  0  0  0  0  0  0  0  0  0  0
   -5.2500    1.2990    0.0000 C   0  0  0  0  0  0  0  0  0  0  0  0
   -6.1317    0.0855    0.0000 N   0  0  0  0  0  0  0  0  0  0  0  0
   -7.5583    0.5490    0.0000 N   0  0  0  0  0  0  0  0  0  0  0  0
   -7.5583    2.0490    0.0000 N   0  0  0  0  0  0  0  0  0  0  0  0
   -6.1317    2.5126    0.0000 N   0  0  0  0  0  0  0  0  0  0  0  0
   -5.6682    3.9391    0.0000 C   0  0  0  0  0  0  0  0  0  0  0  0
   -6.5498    5.1527    0.0000 C   0  0  0  0  0  0  0  0  0  0  0  0
   -5.6682    6.3662    0.0000 C   0  0  0  0  0  0  0  0  0  0  0  0
   -4.2416    5.9027    0.0000 C   0  0  0  0  0  0  0  0  0  0  0  0
   -3.0280    6.7844    0.0000 C   0  0  0  0  0  0  0  0  0  0  0  0
   -3.1848    8.2761    0.0000 O   0  0  0  0  0  0  0  0  0  0  0  0
   -1.6577    6.1742    0.0000 N   0  0  0  0  0  0  0  0  0  0  0  0
   -0.4442    7.0559    0.0000 C   0  0  0  0  0  0  0  0  0  0  0  0
    0.9261    6.4458    0.0000 N   0  0  0  0  0  0  0  0  0  0  0  0
    2.1396    7.3275    0.0000 N   0  0  0  0  0  0  0  0  0  0  0  0
    1.9829    8.8193    0.0000 N   0  0  0  0  0  0  0  0  0  0  0  0
    0.6125    9.4294    0.0000 N   0  0  0  0  0  0  0  0  0  0  0  0
   -0.6010    8.5477    0.0000 N   0  0  0  0  0  0  0  0  0  0  0  0
   -4.2416    4.4027    0.0000 C   0  0  0  0  0  0  0  0  0  0  0  0
   -3.0280    3.5210    0.0000 O   0  0  0  0  0  0  0  0  0  0  0  0
   -0.7500    1.2990    0.0000 C   0  0  0  0  0  0  0  0  0  0  0  0
   -1.5000    2.5981    0.0000 O   0  0  0  0  0  0  0  0  0  0  0  0
    0.7500    1.2990    0.0000 O   0  0  0  0  0  0  0  0  0  0  0  0
  1  2  1  0
  2  3  1  0
  3  4  1  0
  4  5  1  0
  5  6  1  0
  6  7  2  0
  6  8  1  0
  8  9  1  0
  9 10  2  0
 10 11  1  0
 11 12  2  0
 12 13  1  0
 13 14  1  0
 14 15  2  0
 15 16  1  0
 16 17  2  0
 17 18  1  0
 18 19  2  0
 18 20  1  0
 20 21  1  0
 21 22  2  0
 22 23  1  0
 23 24  2  0
 24 25  1  0
 25 26  2  0
 17 27  1  0
 27 28  2  0
  5 29  1  0
 29 30  2  0
 29 31  1  0
 31  2  1  0
 13  9  1  0
 27 14  1  0
 26 21  1  0
M  END
>  <Title>  (801) 
idABCWgen13

$$$$

     RDKit          2D

 41 46  0  0  0  0  0  0  0  0999 V2000
   -1.3240   -6.3062    0.0000 C   0  0  0  0  0  0  0  0  0  0  0  0
   -0.7500   -4.9204    0.0000 C   0  0  0  0  0  0  0  0  0  0  0  0
    0.7500   -4.9204    0.0000 C   0  0  0  0  0  0  0  0  0  0  0  0
    1.8107   -3.8597    0.0000 C   0  0  0  0  0  0  0  0  0  0  0  0
    1.8107   -2.3597    0.0000 C   0  0  0  0  0  0  0  0  0  0  0  0
    3.1965   -1.7857    0.0000 C   0  0  0  0  0  0  0  0  0  0  0  0
    3.3923   -0.2985    0.0000 O   0  0  0  0  0  0  0  0  0  0  0  0
    4.3865   -2.6988    0.0000 N   0  0  0  0  0  0  0  0  0  0  0  0
    5.7723   -2.1248    0.0000 C   0  0  0  0  0  0  0  0  0  0  0  0
    6.1225   -0.6662    0.0000 N   0  0  0  0  0  0  0  0  0  0  0  0
    7.6179   -0.5485    0.0000 N   0  0  0  0  0  0  0  0  0  0  0  0
    8.1919   -1.9344    0.0000 N   0  0  0  0  0  0  0  0  0  0  0  0
    7.0513   -2.9085    0.0000 N   0  0  0  0  0  0  0  0  0  0  0  0
    7.1690   -4.4039    0.0000 C   0  0  0  0  0  0  0  0  0  0  0  0
    8.4479   -5.1877    0.0000 C   0  0  0  0  0  0  0  0  0  0  0  0
    8.0978   -6.6462    0.0000 C   0  0  0  0  0  0  0  0  0  0  0  0
    6.6024   -6.7639    0.0000 C   0  0  0  0  0  0  0  0  0  0  0  0
    5.8186   -8.0429    0.0000 O   0  0  0  0  0  0  0  0  0  0  0  0
    4.3192   -8.0036    0.0000 C   0  0  0  0  0  0  0  0  0  0  0  0
    3.6034   -6.6854    0.0000 O   0  0  0  0  0  0  0  0  0  0  0  0
    3.5354   -9.2826    0.0000 N   0  0  0  0  0  0  0  0  0  0  0  0
    2.0359   -9.2433    0.0000 C   0  0  0  0  0  0  0  0  0  0  0  0
    1.3202   -7.9251    0.0000 N   0  0  0  0  0  0  0  0  0  0  0  0
   -0.1793   -7.8858    0.0000 N   0  0  0  0  0  0  0  0  0  0  0  0
   -0.9630   -9.1648    0.0000 N   0  0  0  0  0  0  0  0  0  0  0  0
   -0.2473  -10.4830    0.0000 N   0  0  0  0  0  0  0  0  0  0  0  0
    1.2522  -10.5223    0.0000 N   0  0  0  0  0  0  0  0  0  0  0  0
    6.0284   -5.3781    0.0000 C   0  0  0  0  0  0  0  0  0  0  0  0
    4.5698   -5.0279    0.0000 O   0  0  0  0  0  0  0  0  0  0  0  0
    0.7500   -1.2990    0.0000 C   0  0  0  0  0  0  0  0  0  0  0  0
    1.5000    0.0000    0.0000 C   0  0  0  0  0  0  0  0  0  0  0  0
    0.7500    1.2990    0.0000 C   0  0  0  0  0  0  0  0  0  0  0  0
   -0.7500    1.2990    0.0000 C   0  0  0  0  0  0  0  0  0  0  0  0
   -1.5000    0.0000    0.0000 C   0  0  0  0  0  0  0  0  0  0  0  0
   -0.7500   -1.2990    0.0000 C   0  0  0  0  0  0  0  0  0  0  0  0
   -1.8107   -2.3597    0.0000 C   0  0  0  0  0  0  0  0  0  0  0  0
   -3.1097   -1.6097    0.0000 C   0  0  0  0  0  0  0  0  0  0  0  0
   -4.4087   -2.3597    0.0000 C   0  0  0  0  0  0  0  0  0  0  0  0
   -4.4087   -3.8597    0.0000 C   0  0  0  0  0  0  0  0  0  0  0  0
   -3.1097   -4.6097    0.0000 C   0  0  0  0  0  0  0  0  0  0  0  0
   -1.8107   -3.8597    0.0000 C   0  0  0  0  0  0  0  0  0  0  0  0
  1  2  1  0
  2  3  1  0
  3  4  1  0
  4  5  1  0
  5  6  1  0
  6  7  2  0
  6  8  1  0
  8  9  1  0
  9 10  2  0
 10 11  1  0
 11 12  2  0
 12 13  1  0
 13 14  1  0
 14 15  2  0
 15 16  1  0
 16 17  2  0
 17 18  1  0
 18 19  1  0
 19 20  2  0
 19 21  1  0
 21 22  1  0
 22 23  2  0
 23 24  1  0
 24 25  2  0
 25 26  1  0
 26 27  2  0
 17 28  1  0
 28 29  2  0
  5 30  1  0
 30 31  2  0
 31 32  1  0
 32 33  2  0
 33 34  1  0
 34 35  2  0
 35 36  1  0
 36 37  2  0
 37 38  1  0
 38 39  2  0
 39 40  1  0
 40 41  2  0
 41  2  1  0
 13  9  1  0
 28 14  1  0
 35 30  1  0
 41 36  1  0
 27 22  1  0
M  END
>  <Title>  (802) 
idABCXgen13

$$$$

     RDKit          2D

 11 11  0  0  0  0  0  0  0  0999 V2000
    8.0260   -3.8971    0.0000 C   0  0  0  0  0  0  0  0  0  0  0  0
    7.2760   -2.5981    0.0000 C   0  0  0  0  0  0  0  0  0  0  0  0
    5.7760   -2.5981    0.0000 C   0  0  0  0  0  0  0  0  0  0  0  0
    5.0260   -1.2990    0.0000 C   0  0  0  0  0  0  0  0  0  0  0  0
    3.5260   -1.2990    0.0000 C   0  0  0  0  0  0  0  0  0  0  0  0
    2.7760    0.0000    0.0000 C   0  0  0  0  0  0  0  0  0  0  0  0
    1.2760    0.0000    0.0000 N   0  0  0  0  0  0  0  0  0  0  0  0
    0.3943    1.2135    0.0000 C   0  0  0  0  0  0  0  0  0  0  0  0
   -1.0323    0.7500    0.0000 C   0  0  0  0  0  0  0  0  0  0  0  0
   -1.0323   -0.7500    0.0000 C   0  0  0  0  0  0  0  0  0  0  0  0
    0.3943   -1.2135    0.0000 C   0  0  0  0  0  0  0  0  0  0  0  0
  1  2  2  0
  2  3  1  0
  3  4  1  0
  4  5  1  0
  5  6  1  0
  6  7  1  0
  7  8  1  0
  8  9  1  0
  9 10  1  0
 10 11  1  0
 11  7  1  0
M  END
>  <Title>  (803) 
idABCYgen13

$$$$

     RDKit          2D

 78 77  0  0  0  0  0  0  0  0999 V2000
    0.0000    0.0000    0.0000 C   0  0  0  0  0  0  0  0  0  0  0  0
   -0.0000   -1.5000    0.0000 C   0  0  0  0  0  0  0  0  0  0  0  0
   -0.0000   -3.0000    0.0000 C   0  0  0  0  0  0  0  0  0  0  0  0
   -0.0000   -4.5000    0.0000 C   0  0  0  0  0  0  0  0  0  0  0  0
   -0.0000   -6.0000    0.0000 C   0  0  0  0  0  0  0  0  0  0  0  0
   -0.0000   -7.5000    0.0000 C   0  0  0  0  0  0  0  0  0  0  0  0
   -0.0000   -9.0000    0.0000 C   0  0  0  0  0  0  0  0  0  0  0  0
   -0.0000  -10.5000    0.0000 C   0  0  0  0  0  0  0  0  0  0  0  0
   -0.0000  -12.0000    0.0000 C   0  0  0  0  0  0  0  0  0  0  0  0
   -0.0000  -13.5000    0.0000 C   0  0  0  0  0  0  0  0  0  0  0  0
   -0.0000  -15.0000    0.0000 C   0  0  0  0  0  0  0  0  0  0  0  0
   -0.0000  -16.5000    0.0000 C   0  0  0  0  0  0  0  0  0  0  0  0
   -0.0000  -18.0000    0.0000 C   0  0  0  0  0  0  0  0  0  0  0  0
   -0.0000  -19.5000    0.0000 C   0  0  0  0  0  0  0  0  0  0  0  0
   -0.0000  -21.0000    0.0000 C   0  0  0  0  0  0  0  0  0  0  0  0
   -0.0000  -22.5000    0.0000 C   0  0  0  0  0  0  0  0  0  0  0  0
   -0.0000  -24.0000    0.0000 C   0  0  0  0  0  0  0  0  0  0  0  0
   -0.0000  -25.5000    0.0000 C   0  0  0  0  0  0  0  0  0  0  0  0
   -0.0000  -27.0000    0.0000 C   0  0  0  0  0  0  0  0  0  0  0  0
   -0.0000  -28.5000    0.0000 C   0  0  0  0  0  0  0  0  0  0  0  0
   -0.0000  -30.0000    0.0000 C   0  0  0  0  0  0  0  0  0  0  0  0
   -0.0000  -31.5000    0.0000 C   0  0  0  0  0  0  0  0  0  0  0  0
   -0.0000  -33.0000    0.0000 C   0  0  0  0  0  0  0  0  0  0  0  0
   -0.0000  -34.5000    0.0000 C   0  0  0  0  0  0  0  0  0  0  0  0
   -0.0000  -36.0000    0.0000 C   0  0  0  0  0  0  0  0  0  0  0  0
   -0.0000  -37.5000    0.0000 C   0  0  0  0  0  0  0  0  0  0  0  0
   -0.0000  -39.0000    0.0000 C   0  0  0  0  0  0  0  0  0  0  0  0
   -0.0000  -40.5000    0.0000 C   0  0  0  0  0  0  0  0  0  0  0  0
   -0.0000  -42.0000    0.0000 C   0  0  0  0  0  0  0  0  0  0  0  0
   -0.0000  -43.5000    0.0000 C   0  0  0  0  0  0  0  0  0  0  0  0
   -0.0000  -45.0000    0.0000 C   0  0  0  0  0  0  0  0  0  0  0  0
   -0.0000  -46.5000    0.0000 C   0  0  0  0  0  0  0  0  0  0  0  0
   -0.0000  -48.0000    0.0000 C   0  0  0  0  0  0  0  0  0  0  0  0
   -0.0000  -49.5000    0.0000 C   0  0  0  0  0  0  0  0  0  0  0  0
   -0.0000  -51.0000    0.0000 C   0  0  0  0  0  0  0  0  0  0  0  0
   -0.0000  -52.5000    0.0000 C   0  0  0  0  0  0  0  0  0  0  0  0
   -0.0000  -54.0000    0.0000 C   0  0  0  0  0  0  0  0  0  0  0  0
   -0.0000  -55.5000    0.0000 C   0  0  0  0  0  0  0  0  0  0  0  0
   -0.0000  -57.0000    0.0000 C   0  0  0  0  0  0  0  0  0  0  0  0
   -0.0000  -58.5000    0.0000 C   0  0  0  0  0  0  0  0  0  0  0  0
   -0.0000  -60.0000    0.0000 C   0  0  0  0  0  0  0  0  0  0  0  0
   -0.0000  -61.5000    0.0000 C   0  0  0  0  0  0  0  0  0  0  0  0
   -0.0000  -63.0000    0.0000 C   0  0  0  0  0  0  0  0  0  0  0  0
   -0.0000  -64.5000    0.0000 C   0  0  0  0  0  0  0  0  0  0  0  0
   -0.0000  -66.0000    0.0000 C   0  0  0  0  0  0  0  0  0  0  0  0
   -0.0000  -67.5000    0.0000 C   0  0  0  0  0  0  0  0  0  0  0  0
   -0.0000  -69.0000    0.0000 C   0  0  0  0  0  0  0  0  0  0  0  0
   -0.0000  -70.5000    0.0000 C   0  0  0  0  0  0  0  0  0  0  0  0
   -0.0000  -72.0000    0.0000 C   0  0  0  0  0  0  0  0  0  0  0  0
   -0.0000  -73.5000    0.0000 C   0  0  0  0  0  0  0  0  0  0  0  0
   -0.0000  -75.0000    0.0000 C   0  0  0  0  0  0  0  0  0  0  0  0
   -0.0000  -76.5000    0.0000 C   0  0  0  0  0  0  0  0  0  0  0  0
   -0.0000  -78.0000    0.0000 C   0  0  0  0  0  0  0  0  0  0  0  0
   -0.0000  -79.5000    0.0000 C   0  0  0  0  0  0  0  0  0  0  0  0
   -0.0000  -81.0000    0.0000 C   0  0  0  0  0  0  0  0  0  0  0  0
   -0.0000  -82.5000    0.0000 C   0  0  0  0  0  0  0  0  0  0  0  0
   -0.0000  -84.0000    0.0000 C   0  0  0  0  0  0  0  0  0  0  0  0
   -0.0000  -85.5000    0.0000 C   0  0  0  0  0  0  0  0  0  0  0  0
   -0.0000  -87.0000    0.0000 C   0  0  0  0  0  0  0  0  0  0  0  0
   -0.0000  -88.5000    0.0000 C   0  0  0  0  0  0  0  0  0  0  0  0
   -0.0000  -90.0000    0.0000 C   0  0  0  0  0  0  0  0  0  0  0  0
   -0.0000  -91.5000    0.0000 C   0  0  0  0  0  0  0  0  0  0  0  0
   -0.0000  -93.0000    0.0000 C   0  0  0  0  0  0  0  0  0  0  0  0
   -0.0000  -94.5000    0.0000 C   0  0  0  0  0  0  0  0  0  0  0  0
   -0.0000  -96.0000    0.0000 C   0  0  0  0  0  0  0  0  0  0  0  0
   -0.0000  -97.5000    0.0000 C   0  0  0  0  0  0  0  0  0  0  0  0
   -0.0000  -99.0000    0.0000 C   0  0  0  0  0  0  0  0  0  0  0  0
   -0.0000 -100.5000    0.0000 C   0  0  0  0  0  0  0  0  0  0  0  0
   -0.0000 -102.0000    0.0000 C   0  0  0  0  0  0  0  0  0  0  0  0
   -0.0000 -103.5000    0.0000 C   0  0  0  0  0  0  0  0  0  0  0  0
   -0.0000 -105.0000    0.0000 C   0  0  0  0  0  0  0  0  0  0  0  0
   -0.0000 -106.5000    0.0000 C   0  0  0  0  0  0  0  0  0  0  0  0
   -0.0000 -108.0000    0.0000 C   0  0  0  0  0  0  0  0  0  0  0  0
   -0.0000 -109.5000    0.0000 C   0  0  0  0  0  0  0  0  0  0  0  0
   -0.0000 -111.0000    0.0000 C   0  0  0  0  0  0  0  0  0  0  0  0
   -0.0000 -112.5000    0.0000 C   0  0  0  0  0  0  0  0  0  0  0  0
   -0.0000 -114.0000    0.0000 C   0  0  0  0  0  0  0  0  0  0  0  0
   -0.0000 -115.5000    0.0000 C   0  0  0  0  0  0  0  0  0  0  0  0
  1  2  3  0
  2  3  1  0
  3  4  3  0
  4  5  1  0
  5  6  3  0
  6  7  1  0
  7  8  3  0
  8  9  1  0
  9 10  3  0
 10 11  1  0
 11 12  3  0
 12 13  1  0
 13 14  3  0
 14 15  1  0
 15 16  3  0
 16 17  1  0
 17 18  3  0
 18 19  1  0
 19 20  3  0
 20 21  1  0
 21 22  3  0
 22 23  1  0
 23 24  3  0
 24 25  1  0
 25 26  3  0
 26 27  1  0
 27 28  3  0
 28 29  1  0
 29 30  3  0
 30 31  1  0
 31 32  3  0
 32 33  1  0
 33 34  3  0
 34 35  1  0
 35 36  3  0
 36 37  1  0
 37 38  3  0
 38 39  1  0
 39 40  3  0
 40 41  1  0
 41 42  3  0
 42 43  1  0
 43 44  3  0
 44 45  1  0
 45 46  3  0
 46 47  1  0
 47 48  3  0
 48 49  1  0
 49 50  3  0
 50 51  1  0
 51 52  3  0
 52 53  1  0
 53 54  3  0
 54 55  1  0
 55 56  3  0
 56 57  1  0
 57 58  3  0
 58 59  1  0
 59 60  3  0
 60 61  1  0
 61 62  3  0
 62 63  1  0
 63 64  3  0
 64 65  1  0
 65 66  3  0
 66 67  1  0
 67 68  3  0
 68 69  1  0
 69 70  3  0
 70 71  1  0
 71 72  3  0
 72 73  1  0
 73 74  3  0
 74 75  1  0
 75 76  3  0
 76 77  1  0
 77 78  3  0
M  END
>  <Title>  (804) 
idABCZgen13

$$$$

     RDKit          2D

 23 26  0  0  0  0  0  0  0  0999 V2000
   -2.6401   -3.1891    0.0000 C   0  0  0  0  0  0  0  0  0  0  0  0
   -1.2135   -2.7256    0.0000 C   0  0  0  0  0  0  0  0  0  0  0  0
   -0.0000   -3.6073    0.0000 C   0  0  0  0  0  0  0  0  0  0  0  0
    1.2135   -2.7256    0.0000 C   0  0  0  0  0  0  0  0  0  0  0  0
    2.6401   -3.1891    0.0000 C   0  0  0  0  0  0  0  0  0  0  0  0
    3.7548   -2.1855    0.0000 O   0  0  0  0  0  0  0  0  0  0  0  0
    2.9520   -4.6564    0.0000 N   0  0  0  0  0  0  0  0  0  0  0  0
    4.3786   -5.1199    0.0000 C   0  0  0  0  0  0  0  0  0  0  0  0
    5.5921   -4.2382    0.0000 N   0  0  0  0  0  0  0  0  0  0  0  0
    6.8056   -5.1199    0.0000 N   0  0  0  0  0  0  0  0  0  0  0  0
    6.3421   -6.5465    0.0000 N   0  0  0  0  0  0  0  0  0  0  0  0
    4.8421   -6.5465    0.0000 N   0  0  0  0  0  0  0  0  0  0  0  0
    3.9604   -7.7600    0.0000 N   0  0  0  0  0  0  0  0  0  0  0  0
    4.4239   -9.1866    0.0000 C   0  0  0  0  0  0  0  0  0  0  0  0
    3.2104  -10.0683    0.0000 C   0  0  0  0  0  0  0  0  0  0  0  0
    1.9969   -9.1866    0.0000 N   0  0  0  0  0  0  0  0  0  0  0  0
    2.4604   -7.7600    0.0000 N   0  0  0  0  0  0  0  0  0  0  0  0
    0.7500   -1.2990    0.0000 C   0  0  0  0  0  0  0  0  0  0  0  0
    1.5000    0.0000    0.0000 C   0  0  0  0  0  0  0  0  0  0  0  0
    0.7500    1.2990    0.0000 C   0  0  0  0  0  0  0  0  0  0  0  0
   -0.7500    1.2990    0.0000 C   0  0  0  0  0  0  0  0  0  0  0  0
   -1.5000    0.0000    0.0000 C   0  0  0  0  0  0  0  0  0  0  0  0
   -0.7500   -1.2990    0.0000 C   0  0  0  0  0  0  0  0  0  0  0  0
  1  2  1  0
  2  3  2  0
  3  4  1  0
  4  5  1  0
  5  6  2  0
  5  7  1  0
  7  8  1  0
  8  9  2  0
  9 10  1  0
 10 11  2  0
 11 12  1  0
 12 13  1  0
 13 14  1  0
 14 15  2  0
 15 16  1  0
 16 17  2  0
  4 18  1  0
 18 19  2  0
 19 20  1  0
 20 21  2  0
 21 22  1  0
 22 23  2  0
 23  2  1  0
 12  8  1  0
 17 13  1  0
 23 18  1  0
M  END
>  <Title>  (805) 
idABDAgen13

$$$$

     RDKit          2D

 34 37  0  0  0  0  0  0  0  0999 V2000
   -8.2500   -6.4952    0.0000 C   0  0  0  0  0  0  0  0  0  0  0  0
   -7.5000   -5.1962    0.0000 C   0  0  0  0  0  0  0  0  0  0  0  0
   -6.0000   -5.1962    0.0000 C   0  0  0  0  0  0  0  0  0  0  0  0
   -5.2500   -3.8971    0.0000 C   0  0  0  0  0  0  0  0  0  0  0  0
   -3.7500   -3.8971    0.0000 C   0  0  0  0  0  0  0  0  0  0  0  0
   -3.0000   -5.1962    0.0000 O   0  0  0  0  0  0  0  0  0  0  0  0
   -3.0000   -2.5981    0.0000 N   0  0  0  0  0  0  0  0  0  0  0  0
   -1.5000   -2.5981    0.0000 C   0  0  0  0  0  0  0  0  0  0  0  0
   -0.7500   -3.8971    0.0000 C   0  0  0  0  0  0  0  0  0  0  0  0
    0.7500   -3.8971    0.0000 C   0  0  0  0  0  0  0  0  0  0  0  0
    1.5000   -2.5981    0.0000 C   0  0  0  0  0  0  0  0  0  0  0  0
    3.0000   -2.5981    0.0000 C   0  0  0  0  0  0  0  0  0  0  0  0
    3.7500   -3.8971    0.0000 N   0  0  0  0  0  0  0  0  0  0  0  0
    5.2500   -3.8971    0.0000 C   0  0  0  0  0  0  0  0  0  0  0  0
    6.0000   -2.5981    0.0000 O   0  0  0  0  0  0  0  0  0  0  0  0
    6.0000   -5.1962    0.0000 C   0  0  0  0  0  0  0  0  0  0  0  0
    7.2990   -5.9462    0.0000 C   0  0  0  0  0  0  0  0  0  0  0  0
    8.7990   -5.9462    0.0000 C   0  0  0  0  0  0  0  0  0  0  0  0
    9.5490   -4.6471    0.0000 O   0  0  0  0  0  0  0  0  0  0  0  0
    9.5490   -7.2452    0.0000 N   0  0  0  0  0  0  0  0  0  0  0  0
   11.0490   -7.2452    0.0000 C   0  0  0  0  0  0  0  0  0  0  0  0
   11.7990   -8.5442    0.0000 N   0  0  0  0  0  0  0  0  0  0  0  0
   13.2990   -8.5442    0.0000 N   0  0  0  0  0  0  0  0  0  0  0  0
   14.0490   -7.2452    0.0000 N   0  0  0  0  0  0  0  0  0  0  0  0
   13.2990   -5.9462    0.0000 N   0  0  0  0  0  0  0  0  0  0  0  0
   11.7990   -5.9462    0.0000 N   0  0  0  0  0  0  0  0  0  0  0  0
    6.0000   -6.6962    0.0000 C   0  0  0  0  0  0  0  0  0  0  0  0
    5.2500   -7.9952    0.0000 O   0  0  0  0  0  0  0  0  0  0  0  0
    0.7500   -1.2990    0.0000 C   0  0  0  0  0  0  0  0  0  0  0  0
    1.5000    0.0000    0.0000 C   0  0  0  0  0  0  0  0  0  0  0  0
    0.7500    1.2990    0.0000 C   0  0  0  0  0  0  0  0  0  0  0  0
   -0.7500    1.2990    0.0000 C   0  0  0  0  0  0  0  0  0  0  0  0
   -1.5000    0.0000    0.0000 C   0  0  0  0  0  0  0  0  0  0  0  0
   -0.7500   -1.2990    0.0000 C   0  0  0  0  0  0  0  0  0  0  0  0
  1  2  2  0
  2  3  1  0
  3  4  1  0
  4  5  1  0
  5  6  2  0
  5  7  1  0
  7  8  1  0
  8  9  2  0
  9 10  1  0
 10 11  2  0
 11 12  1  0
 12 13  1  0
 13 14  1  0
 14 15  2  0
 14 16  1  0
 16 17  2  0
 17 18  1  0
 18 19  2  0
 18 20  1  0
 20 21  1  0
 21 22  2  0
 22 23  1  0
 23 24  2  0
 24 25  1  0
 25 26  2  0
 17 27  1  0
 27 28  2  0
 11 29  1  0
 29 30  2  0
 30 31  1  0
 31 32  2  0
 32 33  1  0
 33 34  2  0
 34  8  1  0
 27 16  1  0
 34 29  1  0
 26 21  1  0
M  END
>  <Title>  (806) 
idABDBgen13

$$$$

     RDKit          2D

 11 12  0  0  0  0  0  0  0  0999 V2000
   -0.4921    5.7184    0.0000 C   0  0  0  0  0  0  0  0  0  0  0  0
   -1.4958    4.6036    0.0000 C   0  0  0  0  0  0  0  0  0  0  0  0
   -2.9630    4.9155    0.0000 O   0  0  0  0  0  0  0  0  0  0  0  0
   -1.0323    3.1771    0.0000 N   0  0  0  0  0  0  0  0  0  0  0  0
    0.3943    2.7135    0.0000 C   0  0  0  0  0  0  0  0  0  0  0  0
    0.3943    1.2135    0.0000 C   0  0  0  0  0  0  0  0  0  0  0  0
    1.2760    0.0000    0.0000 C   0  0  0  0  0  0  0  0  0  0  0  0
    0.3943   -1.2135    0.0000 C   0  0  0  0  0  0  0  0  0  0  0  0
   -1.0323   -0.7500    0.0000 C   0  0  0  0  0  0  0  0  0  0  0  0
   -1.0323    0.7500    0.0000 C   0  0  0  0  0  0  0  0  0  0  0  0
   -1.9140    1.9635    0.0000 O   0  0  0  0  0  0  0  0  0  0  0  0
  1  2  1  0
  2  3  2  0
  2  4  1  0
  4  5  1  0
  5  6  1  0
  6  7  1  0
  7  8  2  0
  8  9  1  0
  9 10  2  0
 10 11  1  0
 11  4  1  0
 10  6  1  0
M  END
>  <Title>  (807) 
idABDCgen13

$$$$

     RDKit          2D

 34 38  0  0  0  0  0  0  0  0999 V2000
   -3.0000   -2.5981    0.0000 C   0  0  0  0  0  0  0  0  0  0  0  0
   -1.5000   -2.5981    0.0000 C   0  0  0  0  0  0  0  0  0  0  0  0
   -0.7500   -3.8971    0.0000 C   0  0  0  0  0  0  0  0  0  0  0  0
    0.7500   -3.8971    0.0000 C   0  0  0  0  0  0  0  0  0  0  0  0
    1.5000   -2.5981    0.0000 C   0  0  0  0  0  0  0  0  0  0  0  0
    3.0000   -2.5981    0.0000 O   0  0  0  0  0  0  0  0  0  0  0  0
    3.7500   -3.8971    0.0000 C   0  0  0  0  0  0  0  0  0  0  0  0
    3.0000   -5.1962    0.0000 O   0  0  0  0  0  0  0  0  0  0  0  0
    5.2500   -3.8971    0.0000 N   0  0  0  0  0  0  0  0  0  0  0  0
    6.1317   -2.6836    0.0000 C   0  0  0  0  0  0  0  0  0  0  0  0
    7.5583   -3.1471    0.0000 C   0  0  0  0  0  0  0  0  0  0  0  0
    7.5583   -4.6471    0.0000 C   0  0  0  0  0  0  0  0  0  0  0  0
    6.1317   -5.1106    0.0000 N   0  0  0  0  0  0  0  0  0  0  0  0
    5.6682   -6.5372    0.0000 C   0  0  0  0  0  0  0  0  0  0  0  0
    6.5498   -7.7508    0.0000 C   0  0  0  0  0  0  0  0  0  0  0  0
    5.6682   -8.9643    0.0000 C   0  0  0  0  0  0  0  0  0  0  0  0
    4.2416   -8.5008    0.0000 C   0  0  0  0  0  0  0  0  0  0  0  0
    3.0280   -9.3824    0.0000 C   0  0  0  0  0  0  0  0  0  0  0  0
    3.1848  -10.8742    0.0000 O   0  0  0  0  0  0  0  0  0  0  0  0
    1.6577   -8.7723    0.0000 N   0  0  0  0  0  0  0  0  0  0  0  0
    0.4442   -9.6540    0.0000 C   0  0  0  0  0  0  0  0  0  0  0  0
   -0.9261   -9.0439    0.0000 N   0  0  0  0  0  0  0  0  0  0  0  0
   -2.1396   -9.9256    0.0000 N   0  0  0  0  0  0  0  0  0  0  0  0
   -1.9829  -11.4174    0.0000 N   0  0  0  0  0  0  0  0  0  0  0  0
   -0.6125  -12.0275    0.0000 N   0  0  0  0  0  0  0  0  0  0  0  0
    0.6010  -11.1458    0.0000 N   0  0  0  0  0  0  0  0  0  0  0  0
    4.2416   -7.0008    0.0000 C   0  0  0  0  0  0  0  0  0  0  0  0
    3.0280   -6.1191    0.0000 O   0  0  0  0  0  0  0  0  0  0  0  0
    0.7500   -1.2990    0.0000 C   0  0  0  0  0  0  0  0  0  0  0  0
    1.5000    0.0000    0.0000 C   0  0  0  0  0  0  0  0  0  0  0  0
    0.7500    1.2990    0.0000 C   0  0  0  0  0  0  0  0  0  0  0  0
   -0.7500    1.2990    0.0000 C   0  0  0  0  0  0  0  0  0  0  0  0
   -1.5000    0.0000    0.0000 C   0  0  0  0  0  0  0  0  0  0  0  0
   -0.7500   -1.2990    0.0000 C   0  0  0  0  0  0  0  0  0  0  0  0
  1  2  1  0
  2  3  1  0
  3  4  2  0
  4  5  1  0
  5  6  1  0
  6  7  1  0
  7  8  2  0
  7  9  1  0
  9 10  1  0
 10 11  1  0
 11 12  2  0
 12 13  1  0
 13 14  1  0
 14 15  2  0
 15 16  1  0
 16 17  2  0
 17 18  1  0
 18 19  2  0
 18 20  1  0
 20 21  1  0
 21 22  2  0
 22 23  1  0
 23 24  2  0
 24 25  1  0
 25 26  2  0
 17 27  1  0
 27 28  2  0
  5 29  1  0
 29 30  2  0
 30 31  1  0
 31 32  2  0
 32 33  1  0
 33 34  2  0
 34  2  1  0
 13  9  1  0
 27 14  1  0
 34 29  1  0
 26 21  1  0
M  END
>  <Title>  (808) 
idABDDgen13

$$$$

     RDKit          2D

 66 68  0  0  0  0  0  0  0  0999 V2000
   -2.4839    0.0190    0.0000 C   0  0  0  0  0  0  0  0  0  0  0  0
   -2.2412   -1.4612    0.0000 C   0  0  0  0  0  0  0  0  0  0  0  0
   -3.7061   -1.7837    0.0000 C   0  0  0  0  0  0  0  0  0  0  0  0
   -5.1276   -2.2626    0.0000 C   0  0  0  0  0  0  0  0  0  0  0  0
   -6.4890   -2.8925    0.0000 C   0  0  0  0  0  0  0  0  0  0  0  0
   -7.7743   -3.6658    0.0000 C   0  0  0  0  0  0  0  0  0  0  0  0
   -8.9684   -4.5736    0.0000 C   0  0  0  0  0  0  0  0  0  0  0  0
  -10.0574   -5.6051    0.0000 C   0  0  0  0  0  0  0  0  0  0  0  0
  -11.0285   -6.7483    0.0000 C   0  0  0  0  0  0  0  0  0  0  0  0
  -11.8703   -7.9899    0.0000 C   0  0  0  0  0  0  0  0  0  0  0  0
  -12.5729   -9.3151    0.0000 C   0  0  0  0  0  0  0  0  0  0  0  0
  -13.1281  -10.7086    0.0000 C   0  0  0  0  0  0  0  0  0  0  0  0
  -13.5294  -12.1539    0.0000 C   0  0  0  0  0  0  0  0  0  0  0  0
  -13.7720  -13.6342    0.0000 C   0  0  0  0  0  0  0  0  0  0  0  0
  -13.8533  -15.1320    0.0000 C   0  0  0  0  0  0  0  0  0  0  0  0
  -13.7720  -16.6298    0.0000 C   0  0  0  0  0  0  0  0  0  0  0  0
  -13.5294  -18.1100    0.0000 C   0  0  0  0  0  0  0  0  0  0  0  0
  -13.1281  -19.5553    0.0000 C   0  0  0  0  0  0  0  0  0  0  0  0
  -12.5729  -20.9488    0.0000 C   0  0  0  0  0  0  0  0  0  0  0  0
  -11.8703  -22.2741    0.0000 C   0  0  0  0  0  0  0  0  0  0  0  0
  -11.0285  -23.5156    0.0000 C   0  0  0  0  0  0  0  0  0  0  0  0
  -10.0574  -24.6588    0.0000 C   0  0  0  0  0  0  0  0  0  0  0  0
   -8.9684  -25.6904    0.0000 C   0  0  0  0  0  0  0  0  0  0  0  0
   -7.7743  -26.5982    0.0000 C   0  0  0  0  0  0  0  0  0  0  0  0
   -6.4890  -27.3715    0.0000 C   0  0  0  0  0  0  0  0  0  0  0  0
   -5.1276  -28.0013    0.0000 C   0  0  0  0  0  0  0  0  0  0  0  0
   -3.7061  -28.4803    0.0000 C   0  0  0  0  0  0  0  0  0  0  0  0
   -2.2412  -28.8027    0.0000 C   0  0  0  0  0  0  0  0  0  0  0  0
   -0.7500  -28.9649    0.0000 C   0  0  0  0  0  0  0  0  0  0  0  0
    0.7500  -28.9649    0.0000 C   0  0  0  0  0  0  0  0  0  0  0  0
    2.2412  -28.8027    0.0000 C   0  0  0  0  0  0  0  0  0  0  0  0
    3.7061  -28.4803    0.0000 C   0  0  0  0  0  0  0  0  0  0  0  0
    5.1276  -28.0013    0.0000 C   0  0  0  0  0  0  0  0  0  0  0  0
    6.4890  -27.3715    0.0000 C   0  0  0  0  0  0  0  0  0  0  0  0
    7.7743  -26.5982    0.0000 C   0  0  0  0  0  0  0  0  0  0  0  0
    8.9684  -25.6904    0.0000 C   0  0  0  0  0  0  0  0  0  0  0  0
   10.0574  -24.6588    0.0000 C   0  0  0  0  0  0  0  0  0  0  0  0
   11.0285  -23.5156    0.0000 C   0  0  0  0  0  0  0  0  0  0  0  0
   11.8703  -22.2741    0.0000 C   0  0  0  0  0  0  0  0  0  0  0  0
   12.5729  -20.9488    0.0000 C   0  0  0  0  0  0  0  0  0  0  0  0
   13.1281  -19.5553    0.0000 C   0  0  0  0  0  0  0  0  0  0  0  0
   13.5294  -18.1100    0.0000 C   0  0  0  0  0  0  0  0  0  0  0  0
   13.7720  -16.6298    0.0000 C   0  0  0  0  0  0  0  0  0  0  0  0
   13.8533  -15.1320    0.0000 C   0  0  0  0  0  0  0  0  0  0  0  0
   13.7720  -13.6342    0.0000 C   0  0  0  0  0  0  0  0  0  0  0  0
   13.5294  -12.1539    0.0000 C   0  0  0  0  0  0  0  0  0  0  0  0
   13.1281  -10.7086    0.0000 C   0  0  0  0  0  0  0  0  0  0  0  0
   12.5729   -9.3151    0.0000 C   0  0  0  0  0  0  0  0  0  0  0  0
   11.8703   -7.9899    0.0000 C   0  0  0  0  0  0  0  0  0  0  0  0
   11.0285   -6.7483    0.0000 C   0  0  0  0  0  0  0  0  0  0  0  0
   10.0574   -5.6051    0.0000 C   0  0  0  0  0  0  0  0  0  0  0  0
    8.9684   -4.5736    0.0000 C   0  0  0  0  0  0  0  0  0  0  0  0
    7.7743   -3.6658    0.0000 C   0  0  0  0  0  0  0  0  0  0  0  0
    6.4890   -2.8925    0.0000 C   0  0  0  0  0  0  0  0  0  0  0  0
    5.1276   -2.2626    0.0000 C   0  0  0  0  0  0  0  0  0  0  0  0
    3.7061   -1.7837    0.0000 C   0  0  0  0  0  0  0  0  0  0  0  0
    3.8522   -3.2765    0.0000 C   0  0  0  0  0  0  0  0  0  0  0  0
    2.4775   -3.8767    0.0000 C   0  0  0  0  0  0  0  0  0  0  0  0
    1.4818   -2.7548    0.0000 C   0  0  0  0  0  0  0  0  0  0  0  0
    2.2412   -1.4612    0.0000 C   0  0  0  0  0  0  0  0  0  0  0  0
    0.7500   -1.2990    0.0000 C   0  0  0  0  0  0  0  0  0  0  0  0
    1.5000    0.0000    0.0000 C   0  0  0  0  0  0  0  0  0  0  0  0
    0.7500    1.2990    0.0000 C   0  0  0  0  0  0  0  0  0  0  0  0
   -0.7500    1.2990    0.0000 C   0  0  0  0  0  0  0  0  0  0  0  0
   -1.5000    0.0000    0.0000 C   0  0  0  0  0  0  0  0  0  0  0  0
   -0.7500   -1.2990    0.0000 C   0  0  0  0  0  0  0  0  0  0  0  0
  1  2  1  0
  2  3  1  0
  3  4  1  0
  4  5  1  0
  5  6  1  0
  6  7  1  0
  7  8  1  0
  8  9  1  0
  9 10  1  0
 10 11  1  0
 11 12  1  0
 12 13  1  0
 13 14  1  0
 14 15  1  0
 15 16  1  0
 16 17  1  0
 17 18  1  0
 18 19  1  0
 19 20  1  0
 20 21  1  0
 21 22  1  0
 22 23  1  0
 23 24  1  0
 24 25  1  0
 25 26  1  0
 26 27  1  0
 27 28  1  0
 28 29  1  0
 29 30  1  0
 30 31  1  0
 31 32  1  0
 32 33  1  0
 33 34  1  0
 34 35  1  0
 35 36  1  0
 36 37  1  0
 37 38  1  0
 38 39  1  0
 39 40  1  0
 40 41  1  0
 41 42  1  0
 42 43  1  0
 43 44  1  0
 44 45  1  0
 45 46  1  0
 46 47  1  0
 47 48  1  0
 48 49  1  0
 49 50  1  0
 50 51  1  0
 51 52  1  0
 52 53  1  0
 53 54  1  0
 54 55  1  0
 55 56  1  0
 56 57  1  0
 57 58  2  0
 58 59  1  0
 59 60  2  0
 60 61  1  0
 61 62  2  0
 62 63  1  0
 63 64  2  0
 64 65  1  0
 65 66  2  0
 66  2  1  0
 60 56  1  0
 66 61  1  0
M  END
>  <Title>  (809) 
idABDEgen13

$$$$

     RDKit          2D

 11 10  0  0  0  0  0  0  0  0999 V2000
    0.0000    0.0000    0.0000 C   0  0  0  0  0  0  0  0  0  0  0  0
   -0.0000   -1.5000    0.0000 C   0  0  0  0  0  0  0  0  0  0  0  0
   -0.0000   -3.0000    0.0000 C   0  0  0  0  0  0  0  0  0  0  0  0
   -0.0000   -4.5000    0.0000 C   0  0  0  0  0  0  0  0  0  0  0  0
   -0.0000   -6.0000    0.0000 C   0  0  0  0  0  0  0  0  0  0  0  0
   -0.0000   -7.5000    0.0000 C   0  0  0  0  0  0  0  0  0  0  0  0
   -0.0000   -9.0000    0.0000 C   0  0  0  0  0  0  0  0  0  0  0  0
    1.2990   -9.7500    0.0000 C   0  0  0  0  0  0  0  0  0  0  0  0
    1.2990  -11.2500    0.0000 C   0  0  0  0  0  0  0  0  0  0  0  0
    2.5981  -12.0000    0.0000 C   0  0  0  0  0  0  0  0  0  0  0  0
   -0.0000  -12.0000    0.0000 C   0  0  0  0  0  0  0  0  0  0  0  0
  1  2  3  0
  2  3  1  0
  3  4  3  0
  4  5  1  0
  5  6  3  0
  6  7  1  0
  7  8  1  0
  8  9  2  3
  9 10  1  0
  9 11  1  0
M  END
>  <Title>  (810) 
idABDFgen13

$$$$

     RDKit          2D

 88 90  0  0  0  0  0  0  0  0999 V2000
   -2.4217    0.0729    0.0000 C   0  0  0  0  0  0  0  0  0  0  0  0
   -2.2454   -1.4167    0.0000 C   0  0  0  0  0  0  0  0  0  0  0  0
   -3.7269   -1.6514    0.0000 C   0  0  0  0  0  0  0  0  0  0  0  0
   -5.1855   -2.0015    0.0000 C   0  0  0  0  0  0  0  0  0  0  0  0
   -6.6120   -2.4651    0.0000 C   0  0  0  0  0  0  0  0  0  0  0  0
   -7.9979   -3.0391    0.0000 C   0  0  0  0  0  0  0  0  0  0  0  0
   -9.3344   -3.7201    0.0000 C   0  0  0  0  0  0  0  0  0  0  0  0
  -10.6133   -4.5038    0.0000 C   0  0  0  0  0  0  0  0  0  0  0  0
  -11.8269   -5.3855    0.0000 C   0  0  0  0  0  0  0  0  0  0  0  0
  -12.9675   -6.3597    0.0000 C   0  0  0  0  0  0  0  0  0  0  0  0
  -14.0281   -7.4203    0.0000 C   0  0  0  0  0  0  0  0  0  0  0  0
  -15.0023   -8.5609    0.0000 C   0  0  0  0  0  0  0  0  0  0  0  0
  -15.8840   -9.7745    0.0000 C   0  0  0  0  0  0  0  0  0  0  0  0
  -16.6677  -11.0534    0.0000 C   0  0  0  0  0  0  0  0  0  0  0  0
  -17.3487  -12.3899    0.0000 C   0  0  0  0  0  0  0  0  0  0  0  0
  -17.9227  -13.7758    0.0000 C   0  0  0  0  0  0  0  0  0  0  0  0
  -18.3863  -15.2023    0.0000 C   0  0  0  0  0  0  0  0  0  0  0  0
  -18.7364  -16.6609    0.0000 C   0  0  0  0  0  0  0  0  0  0  0  0
  -18.9711  -18.1424    0.0000 C   0  0  0  0  0  0  0  0  0  0  0  0
  -19.0888  -19.6378    0.0000 C   0  0  0  0  0  0  0  0  0  0  0  0
  -19.0888  -21.1378    0.0000 C   0  0  0  0  0  0  0  0  0  0  0  0
  -18.9711  -22.6332    0.0000 C   0  0  0  0  0  0  0  0  0  0  0  0
  -18.7364  -24.1147    0.0000 C   0  0  0  0  0  0  0  0  0  0  0  0
  -18.3863  -25.5733    0.0000 C   0  0  0  0  0  0  0  0  0  0  0  0
  -17.9227  -26.9999    0.0000 C   0  0  0  0  0  0  0  0  0  0  0  0
  -17.3487  -28.3857    0.0000 C   0  0  0  0  0  0  0  0  0  0  0  0
  -16.6677  -29.7222    0.0000 C   0  0  0  0  0  0  0  0  0  0  0  0
  -15.8840  -31.0012    0.0000 C   0  0  0  0  0  0  0  0  0  0  0  0
  -15.0023  -32.2147    0.0000 C   0  0  0  0  0  0  0  0  0  0  0  0
  -14.0281  -33.3553    0.0000 C   0  0  0  0  0  0  0  0  0  0  0  0
  -12.9675  -34.4159    0.0000 C   0  0  0  0  0  0  0  0  0  0  0  0
  -11.8269  -35.3901    0.0000 C   0  0  0  0  0  0  0  0  0  0  0  0
  -10.6133  -36.2718    0.0000 C   0  0  0  0  0  0  0  0  0  0  0  0
   -9.3344  -37.0555    0.0000 C   0  0  0  0  0  0  0  0  0  0  0  0
   -7.9979  -37.7365    0.0000 C   0  0  0  0  0  0  0  0  0  0  0  0
   -6.6120  -38.3106    0.0000 C   0  0  0  0  0  0  0  0  0  0  0  0
   -5.1855  -38.7741    0.0000 C   0  0  0  0  0  0  0  0  0  0  0  0
   -3.7269  -39.1242    0.0000 C   0  0  0  0  0  0  0  0  0  0  0  0
   -2.2454  -39.3589    0.0000 C   0  0  0  0  0  0  0  0  0  0  0  0
   -0.7500  -39.4766    0.0000 C   0  0  0  0  0  0  0  0  0  0  0  0
    0.7500  -39.4766    0.0000 C   0  0  0  0  0  0  0  0  0  0  0  0
    2.2454  -39.3589    0.0000 C   0  0  0  0  0  0  0  0  0  0  0  0
    3.7269  -39.1242    0.0000 C   0  0  0  0  0  0  0  0  0  0  0  0
    5.1855  -38.7741    0.0000 C   0  0  0  0  0  0  0  0  0  0  0  0
    6.6120  -38.3106    0.0000 C   0  0  0  0  0  0  0  0  0  0  0  0
    7.9979  -37.7365    0.0000 C   0  0  0  0  0  0  0  0  0  0  0  0
    9.3344  -37.0555    0.0000 C   0  0  0  0  0  0  0  0  0  0  0  0
   10.6133  -36.2718    0.0000 C   0  0  0  0  0  0  0  0  0  0  0  0
   11.8269  -35.3901    0.0000 C   0  0  0  0  0  0  0  0  0  0  0  0
   12.9675  -34.4159    0.0000 C   0  0  0  0  0  0  0  0  0  0  0  0
   14.0281  -33.3553    0.0000 C   0  0  0  0  0  0  0  0  0  0  0  0
   15.0023  -32.2147    0.0000 C   0  0  0  0  0  0  0  0  0  0  0  0
   15.8840  -31.0012    0.0000 C   0  0  0  0  0  0  0  0  0  0  0  0
   16.6677  -29.7222    0.0000 C   0  0  0  0  0  0  0  0  0  0  0  0
   17.3487  -28.3857    0.0000 C   0  0  0  0  0  0  0  0  0  0  0  0
   17.9227  -26.9999    0.0000 C   0  0  0  0  0  0  0  0  0  0  0  0
   18.3863  -25.5733    0.0000 C   0  0  0  0  0  0  0  0  0  0  0  0
   18.7364  -24.1147    0.0000 C   0  0  0  0  0  0  0  0  0  0  0  0
   18.9711  -22.6332    0.0000 C   0  0  0  0  0  0  0  0  0  0  0  0
   19.0888  -21.1378    0.0000 C   0  0  0  0  0  0  0  0  0  0  0  0
   19.0888  -19.6378    0.0000 C   0  0  0  0  0  0  0  0  0  0  0  0
   18.9711  -18.1424    0.0000 C   0  0  0  0  0  0  0  0  0  0  0  0
   18.7364  -16.6609    0.0000 C   0  0  0  0  0  0  0  0  0  0  0  0
   18.3863  -15.2023    0.0000 C   0  0  0  0  0  0  0  0  0  0  0  0
   17.9227  -13.7758    0.0000 C   0  0  0  0  0  0  0  0  0  0  0  0
   17.3487  -12.3899    0.0000 C   0  0  0  0  0  0  0  0  0  0  0  0
   16.6677  -11.0534    0.0000 C   0  0  0  0  0  0  0  0  0  0  0  0
   15.8840   -9.7745    0.0000 C   0  0  0  0  0  0  0  0  0  0  0  0
   15.0023   -8.5609    0.0000 C   0  0  0  0  0  0  0  0  0  0  0  0
   14.0281   -7.4203    0.0000 C   0  0  0  0  0  0  0  0  0  0  0  0
   12.9675   -6.3597    0.0000 C   0  0  0  0  0  0  0  0  0  0  0  0
   11.8269   -5.3855    0.0000 C   0  0  0  0  0  0  0  0  0  0  0  0
   10.6133   -4.5038    0.0000 C   0  0  0  0  0  0  0  0  0  0  0  0
    9.3344   -3.7201    0.0000 C   0  0  0  0  0  0  0  0  0  0  0  0
    7.9979   -3.0391    0.0000 C   0  0  0  0  0  0  0  0  0  0  0  0
    6.6120   -2.4651    0.0000 C   0  0  0  0  0  0  0  0  0  0  0  0
    5.1855   -2.0015    0.0000 C   0  0  0  0  0  0  0  0  0  0  0  0
    3.7269   -1.6514    0.0000 C   0  0  0  0  0  0  0  0  0  0  0  0
    3.9616   -3.1329    0.0000 C   0  0  0  0  0  0  0  0  0  0  0  0
    2.6251   -3.8139    0.0000 C   0  0  0  0  0  0  0  0  0  0  0  0
    1.5644   -2.7532    0.0000 C   0  0  0  0  0  0  0  0  0  0  0  0
    2.2454   -1.4167    0.0000 C   0  0  0  0  0  0  0  0  0  0  0  0
    0.7500   -1.2990    0.0000 C   0  0  0  0  0  0  0  0  0  0  0  0
    1.5000    0.0000    0.0000 C   0  0  0  0  0  0  0  0  0  0  0  0
    0.7500    1.2990    0.0000 C   0  0  0  0  0  0  0  0  0  0  0  0
   -0.7500    1.2990    0.0000 C   0  0  0  0  0  0  0  0  0  0  0  0
   -1.5000    0.0000    0.0000 C   0  0  0  0  0  0  0  0  0  0  0  0
   -0.7500   -1.2990    0.0000 C   0  0  0  0  0  0  0  0  0  0  0  0
  1  2  1  0
  2  3  1  0
  3  4  1  0
  4  5  1  0
  5  6  1  0
  6  7  1  0
  7  8  1  0
  8  9  1  0
  9 10  1  0
 10 11  1  0
 11 12  1  0
 12 13  1  0
 13 14  1  0
 14 15  1  0
 15 16  1  0
 16 17  1  0
 17 18  1  0
 18 19  1  0
 19 20  1  0
 20 21  1  0
 21 22  1  0
 22 23  1  0
 23 24  1  0
 24 25  1  0
 25 26  1  0
 26 27  1  0
 27 28  1  0
 28 29  1  0
 29 30  1  0
 30 31  1  0
 31 32  1  0
 32 33  1  0
 33 34  1  0
 34 35  1  0
 35 36  1  0
 36 37  1  0
 37 38  1  0
 38 39  1  0
 39 40  1  0
 40 41  1  0
 41 42  1  0
 42 43  1  0
 43 44  1  0
 44 45  1  0
 45 46  1  0
 46 47  1  0
 47 48  1  0
 48 49  1  0
 49 50  1  0
 50 51  1  0
 51 52  1  0
 52 53  1  0
 53 54  1  0
 54 55  1  0
 55 56  1  0
 56 57  1  0
 57 58  1  0
 58 59  1  0
 59 60  1  0
 60 61  1  0
 61 62  1  0
 62 63  1  0
 63 64  1  0
 64 65  1  0
 65 66  1  0
 66 67  1  0
 67 68  1  0
 68 69  1  0
 69 70  1  0
 70 71  1  0
 71 72  2  0
 72 73  1  0
 73 74  2  0
 74 75  1  0
 75 76  2  0
 76 77  1  0
 77 78  2  0
 78 79  1  0
 79 80  2  0
 80 81  1  0
 81 82  2  0
 82 83  1  0
 83 84  2  0
 84 85  1  0
 85 86  2  0
 86 87  1  0
 87 88  2  0
 88  2  1  0
 82 78  1  0
 88 83  1  0
M  END
>  <Title>  (811) 
idABDGgen13

$$$$

     RDKit          2D

 77 78  0  0  0  0  0  0  0  0999 V2000
   -2.0239    2.0975    0.0000 C   0  0  0  0  0  0  0  0  0  0  0  0
   -0.8447    3.0246    0.0000 C   0  0  0  0  0  0  0  0  0  0  0  0
   -1.9864    3.9974    0.0000 C   0  0  0  0  0  0  0  0  0  0  0  0
   -3.0349    5.0701    0.0000 C   0  0  0  0  0  0  0  0  0  0  0  0
   -3.9815    6.2337    0.0000 C   0  0  0  0  0  0  0  0  0  0  0  0
   -4.8184    7.4785    0.0000 C   0  0  0  0  0  0  0  0  0  0  0  0
   -5.5387    8.7943    0.0000 C   0  0  0  0  0  0  0  0  0  0  0  0
   -6.1363   10.1701    0.0000 C   0  0  0  0  0  0  0  0  0  0  0  0
   -6.6063   11.5945    0.0000 C   0  0  0  0  0  0  0  0  0  0  0  0
   -6.9448   13.0558    0.0000 C   0  0  0  0  0  0  0  0  0  0  0  0
   -7.1491   14.5419    0.0000 C   0  0  0  0  0  0  0  0  0  0  0  0
   -7.2173   16.0403    0.0000 C   0  0  0  0  0  0  0  0  0  0  0  0
   -7.1491   17.5388    0.0000 C   0  0  0  0  0  0  0  0  0  0  0  0
   -6.9448   19.0248    0.0000 C   0  0  0  0  0  0  0  0  0  0  0  0
   -6.6063   20.4861    0.0000 C   0  0  0  0  0  0  0  0  0  0  0  0
   -6.1363   21.9105    0.0000 C   0  0  0  0  0  0  0  0  0  0  0  0
   -5.5387   23.2864    0.0000 C   0  0  0  0  0  0  0  0  0  0  0  0
   -4.8184   24.6021    0.0000 C   0  0  0  0  0  0  0  0  0  0  0  0
   -3.9815   25.8470    0.0000 C   0  0  0  0  0  0  0  0  0  0  0  0
   -3.0349   27.0105    0.0000 C   0  0  0  0  0  0  0  0  0  0  0  0
   -1.9864   28.0832    0.0000 C   0  0  0  0  0  0  0  0  0  0  0  0
   -0.8447   29.0561    0.0000 C   0  0  0  0  0  0  0  0  0  0  0  0
    0.3808   29.9211    0.0000 C   0  0  0  0  0  0  0  0  0  0  0  0
    1.6798   30.6711    0.0000 C   0  0  0  0  0  0  0  0  0  0  0  0
    3.0417   31.2999    0.0000 C   0  0  0  0  0  0  0  0  0  0  0  0
    4.4551   31.8022    0.0000 C   0  0  0  0  0  0  0  0  0  0  0  0
    5.9083   32.1739    0.0000 C   0  0  0  0  0  0  0  0  0  0  0  0
    7.3893   32.4119    0.0000 C   0  0  0  0  0  0  0  0  0  0  0  0
    8.8858   32.5143    0.0000 C   0  0  0  0  0  0  0  0  0  0  0  0
   10.3854   32.4801    0.0000 C   0  0  0  0  0  0  0  0  0  0  0  0
   11.8757   32.3098    0.0000 C   0  0  0  0  0  0  0  0  0  0  0  0
   13.3443   32.0046    0.0000 C   0  0  0  0  0  0  0  0  0  0  0  0
   14.7791   31.5671    0.0000 C   0  0  0  0  0  0  0  0  0  0  0  0
   16.1682   31.0010    0.0000 C   0  0  0  0  0  0  0  0  0  0  0  0
   17.5000   30.3109    0.0000 C   0  0  0  0  0  0  0  0  0  0  0  0
   18.7636   29.5025    0.0000 C   0  0  0  0  0  0  0  0  0  0  0  0
   19.9484   28.5826    0.0000 C   0  0  0  0  0  0  0  0  0  0  0  0
   21.0446   27.5588    0.0000 C   0  0  0  0  0  0  0  0  0  0  0  0
   22.0432   26.4395    0.0000 C   0  0  0  0  0  0  0  0  0  0  0  0
   22.9359   25.2341    0.0000 C   0  0  0  0  0  0  0  0  0  0  0  0
   23.7153   23.9525    0.0000 C   0  0  0  0  0  0  0  0  0  0  0  0
   24.3749   22.6053    0.0000 C   0  0  0  0  0  0  0  0  0  0  0  0
   24.9093   21.2037    0.0000 C   0  0  0  0  0  0  0  0  0  0  0  0
   25.3140   19.7593    0.0000 C   0  0  0  0  0  0  0  0  0  0  0  0
   25.5856   18.2841    0.0000 C   0  0  0  0  0  0  0  0  0  0  0  0
   25.7220   16.7903    0.0000 C   0  0  0  0  0  0  0  0  0  0  0  0
   25.7220   15.2903    0.0000 C   0  0  0  0  0  0  0  0  0  0  0  0
   25.5856   13.7965    0.0000 C   0  0  0  0  0  0  0  0  0  0  0  0
   25.3140   12.3213    0.0000 C   0  0  0  0  0  0  0  0  0  0  0  0
   24.9093   10.8770    0.0000 C   0  0  0  0  0  0  0  0  0  0  0  0
   24.3749    9.4754    0.0000 C   0  0  0  0  0  0  0  0  0  0  0  0
   23.7153    8.1282    0.0000 C   0  0  0  0  0  0  0  0  0  0  0  0
   22.9359    6.8465    0.0000 C   0  0  0  0  0  0  0  0  0  0  0  0
   22.0432    5.6411    0.0000 C   0  0  0  0  0  0  0  0  0  0  0  0
   21.0446    4.5218    0.0000 C   0  0  0  0  0  0  0  0  0  0  0  0
   19.9484    3.4980    0.0000 C   0  0  0  0  0  0  0  0  0  0  0  0
   18.7636    2.5781    0.0000 C   0  0  0  0  0  0  0  0  0  0  0  0
   17.5000    1.7697    0.0000 C   0  0  0  0  0  0  0  0  0  0  0  0
   16.1682    1.0797    0.0000 C   0  0  0  0  0  0  0  0  0  0  0  0
   14.7791    0.5135    0.0000 C   0  0  0  0  0  0  0  0  0  0  0  0
   13.3443    0.0761    0.0000 C   0  0  0  0  0  0  0  0  0  0  0  0
   11.8757   -0.2291    0.0000 C   0  0  0  0  0  0  0  0  0  0  0  0
   10.3854   -0.3995    0.0000 C   0  0  0  0  0  0  0  0  0  0  0  0
    8.8858   -0.4336    0.0000 C   0  0  0  0  0  0  0  0  0  0  0  0
    7.3893   -0.3313    0.0000 C   0  0  0  0  0  0  0  0  0  0  0  0
    5.9083   -0.0933    0.0000 C   0  0  0  0  0  0  0  0  0  0  0  0
    4.4551    0.2785    0.0000 C   0  0  0  0  0  0  0  0  0  0  0  0
    3.0417    0.7808    0.0000 C   0  0  0  0  0  0  0  0  0  0  0  0
    1.6798    1.4095    0.0000 C   0  0  0  0  0  0  0  0  0  0  0  0
    2.1929    0.0000    0.0000 C   0  0  0  0  0  0  0  0  0  0  0  0
    1.6798   -1.4095    0.0000 C   0  0  0  0  0  0  0  0  0  0  0  0
    0.3808   -2.1595    0.0000 C   0  0  0  0  0  0  0  0  0  0  0  0
   -1.0964   -1.8991    0.0000 C   0  0  0  0  0  0  0  0  0  0  0  0
   -2.0606   -0.7500    0.0000 C   0  0  0  0  0  0  0  0  0  0  0  0
   -2.0606    0.7500    0.0000 C   0  0  0  0  0  0  0  0  0  0  0  0
   -1.0964    1.8991    0.0000 C   0  0  0  0  0  0  0  0  0  0  0  0
    0.3808    2.1595    0.0000 C   0  0  0  0  0  0  0  0  0  0  0  0
  1  2  1  0
  2  3  1  0
  3  4  1  0
  4  5  1  0
  5  6  1  0
  6  7  1  0
  7  8  1  0
  8  9  1  0
  9 10  1  0
 10 11  1  0
 11 12  1  0
 12 13  1  0
 13 14  1  0
 14 15  1  0
 15 16  1  0
 16 17  1  0
 17 18  1  0
 18 19  1  0
 19 20  1  0
 20 21  1  0
 21 22  1  0
 22 23  1  0
 23 24  1  0
 24 25  1  0
 25 26  1  0
 26 27  1  0
 27 28  1  0
 28 29  1  0
 29 30  1  0
 30 31  1  0
 31 32  1  0
 32 33  1  0
 33 34  1  0
 34 35  1  0
 35 36  1  0
 36 37  1  0
 37 38  1  0
 38 39  1  0
 39 40  1  0
 40 41  1  0
 41 42  1  0
 42 43  1  0
 43 44  1  0
 44 45  1  0
 45 46  1  0
 46 47  1  0
 47 48  1  0
 48 49  1  0
 49 50  1  0
 50 51  1  0
 51 52  1  0
 52 53  1  0
 53 54  1  0
 54 55  1  0
 55 56  1  0
 56 57  1  0
 57 58  1  0
 58 59  1  0
 59 60  1  0
 60 61  1  0
 61 62  1  0
 62 63  1  0
 63 64  1  0
 64 65  1  0
 65 66  1  0
 66 67  1  0
 67 68  1  0
 68 69  1  0
 69 70  1  0
 70 71  1  0
 71 72  1  0
 72 73  2  0
 73 74  1  0
 74 75  2  0
 75 76  1  0
 76 77  2  0
 77  2  1  0
 77 69  1  0
M  END
>  <Title>  (812) 
idABDHgen13

$$$$

     RDKit          2D

  7  6  0  0  0  0  0  0  0  0999 V2000
    0.0000    0.0000    0.0000 C   0  0  0  0  0  0  0  0  0  0  0  0
    1.2990    0.7500    0.0000 C   0  0  0  0  0  0  0  0  0  0  0  0
    2.5981   -0.0000    0.0000 C   0  0  0  0  0  0  0  0  0  0  0  0
    3.8971    0.7500    0.0000 C   0  0  0  0  0  0  0  0  0  0  0  0
    5.1962   -0.0000    0.0000 C   0  0  0  0  0  0  0  0  0  0  0  0
    6.4952    0.7500    0.0000 C   0  0  0  0  0  0  0  0  0  0  0  0
    5.1962   -1.5000    0.0000 C   0  0  0  0  0  0  0  0  0  0  0  0
  1  2  2  0
  2  3  1  0
  3  4  1  0
  4  5  2  3
  5  6  1  0
  5  7  1  0
M  END
>  <Title>  (813) 
idABDIgen13

$$$$

     RDKit          2D

 37 41  0  0  0  0  0  0  0  0999 V2000
   -7.5000   -2.5981    0.0000 C   0  0  0  0  0  0  0  0  0  0  0  0
   -6.0000   -2.5981    0.0000 C   0  0  0  0  0  0  0  0  0  0  0  0
   -4.5000   -2.5981    0.0000 C   0  0  0  0  0  0  0  0  0  0  0  0
   -3.0000   -2.5981    0.0000 C   0  0  0  0  0  0  0  0  0  0  0  0
   -1.5000   -2.5981    0.0000 C   0  0  0  0  0  0  0  0  0  0  0  0
   -0.7500   -3.8971    0.0000 C   0  0  0  0  0  0  0  0  0  0  0  0
    0.7500   -3.8971    0.0000 C   0  0  0  0  0  0  0  0  0  0  0  0
    1.5000   -2.5981    0.0000 C   0  0  0  0  0  0  0  0  0  0  0  0
    3.0000   -2.5981    0.0000 C   0  0  0  0  0  0  0  0  0  0  0  0
    3.7500   -1.2990    0.0000 O   0  0  0  0  0  0  0  0  0  0  0  0
    3.7500   -3.8971    0.0000 N   0  0  0  0  0  0  0  0  0  0  0  0
    5.2500   -3.8971    0.0000 C   0  0  0  0  0  0  0  0  0  0  0  0
    6.1317   -2.6836    0.0000 N   0  0  0  0  0  0  0  0  0  0  0  0
    7.5583   -3.1471    0.0000 N   0  0  0  0  0  0  0  0  0  0  0  0
    7.5583   -4.6471    0.0000 N   0  0  0  0  0  0  0  0  0  0  0  0
    6.1317   -5.1106    0.0000 N   0  0  0  0  0  0  0  0  0  0  0  0
    5.6682   -6.5372    0.0000 N   0  0  0  0  0  0  0  0  0  0  0  0
    6.5498   -7.7508    0.0000 C   0  0  0  0  0  0  0  0  0  0  0  0
    5.6682   -8.9643    0.0000 C   0  0  0  0  0  0  0  0  0  0  0  0
    4.2416   -8.5008    0.0000 N   0  0  0  0  0  0  0  0  0  0  0  0
    3.0280   -9.3824    0.0000 C   0  0  0  0  0  0  0  0  0  0  0  0
    3.1848  -10.8742    0.0000 O   0  0  0  0  0  0  0  0  0  0  0  0
    1.6577   -8.7723    0.0000 N   0  0  0  0  0  0  0  0  0  0  0  0
    0.4442   -9.6540    0.0000 C   0  0  0  0  0  0  0  0  0  0  0  0
   -0.9261   -9.0439    0.0000 N   0  0  0  0  0  0  0  0  0  0  0  0
   -2.1396   -9.9256    0.0000 N   0  0  0  0  0  0  0  0  0  0  0  0
   -1.9829  -11.4174    0.0000 N   0  0  0  0  0  0  0  0  0  0  0  0
   -0.6125  -12.0275    0.0000 N   0  0  0  0  0  0  0  0  0  0  0  0
    0.6010  -11.1458    0.0000 N   0  0  0  0  0  0  0  0  0  0  0  0
    4.2416   -7.0008    0.0000 C   0  0  0  0  0  0  0  0  0  0  0  0
    3.0280   -6.1191    0.0000 O   0  0  0  0  0  0  0  0  0  0  0  0
    0.7500   -1.2990    0.0000 C   0  0  0  0  0  0  0  0  0  0  0  0
    1.5000    0.0000    0.0000 C   0  0  0  0  0  0  0  0  0  0  0  0
    0.7500    1.2990    0.0000 C   0  0  0  0  0  0  0  0  0  0  0  0
   -0.7500    1.2990    0.0000 C   0  0  0  0  0  0  0  0  0  0  0  0
   -1.5000    0.0000    0.0000 C   0  0  0  0  0  0  0  0  0  0  0  0
   -0.7500   -1.2990    0.0000 C   0  0  0  0  0  0  0  0  0  0  0  0
  1  2  3  0
  2  3  1  0
  3  4  3  0
  4  5  1  0
  5  6  1  0
  6  7  2  0
  7  8  1  0
  8  9  1  0
  9 10  2  0
  9 11  1  0
 11 12  1  0
 12 13  2  0
 13 14  1  0
 14 15  2  0
 15 16  1  0
 16 17  1  0
 17 18  1  0
 18 19  1  0
 19 20  1  0
 20 21  1  0
 21 22  2  0
 21 23  1  0
 23 24  1  0
 24 25  2  0
 25 26  1  0
 26 27  2  0
 27 28  1  0
 28 29  2  0
 20 30  1  0
 30 31  2  0
  8 32  1  0
 32 33  2  0
 33 34  1  0
 34 35  2  0
 35 36  1  0
 36 37  2  0
 37  5  1  0
 16 12  1  0
 30 17  1  0
 37 32  1  0
 29 24  1  0
M  END
>  <Title>  (814) 
idABDJgen13

$$$$

     RDKit          2D

 12 13  0  0  0  0  0  0  0  0999 V2000
    1.8478   -6.4639    0.0000 C   0  0  0  0  0  0  0  0  0  0  0  0
    2.0046   -4.9721    0.0000 C   0  0  0  0  0  0  0  0  0  0  0  0
    3.3037   -4.2221    0.0000 C   0  0  0  0  0  0  0  0  0  0  0  0
    2.9918   -2.7549    0.0000 C   0  0  0  0  0  0  0  0  0  0  0  0
    1.5000   -2.5981    0.0000 C   0  0  0  0  0  0  0  0  0  0  0  0
    0.7500   -1.2990    0.0000 N   0  0  0  0  0  0  0  0  0  0  0  0
    1.5000    0.0000    0.0000 C   0  0  0  0  0  0  0  0  0  0  0  0
    0.7500    1.2990    0.0000 C   0  0  0  0  0  0  0  0  0  0  0  0
   -0.7500    1.2990    0.0000 N   0  0  0  0  0  0  0  0  0  0  0  0
   -1.5000    0.0000    0.0000 N   0  0  0  0  0  0  0  0  0  0  0  0
   -0.7500   -1.2990    0.0000 N   0  0  0  0  0  0  0  0  0  0  0  0
    0.8899   -3.9684    0.0000 C   0  0  0  0  0  0  0  0  0  0  0  0
  1  2  1  0
  2  3  2  0
  3  4  1  0
  4  5  2  0
  5  6  1  0
  6  7  1  0
  7  8  1  0
  8  9  2  0
  9 10  1  0
 10 11  2  0
  5 12  1  0
 12  2  1  0
 11  6  1  0
M  END
>  <Title>  (815) 
idABDKgen13

$$$$

     RDKit          2D

 16 17  0  0  0  0  0  0  0  0999 V2000
    7.2760    2.5981    0.0000 C   0  0  0  0  0  0  0  0  0  0  0  0
    5.7760    2.5981    0.0000 C   0  0  0  0  0  0  0  0  0  0  0  0
    5.0260    1.2990    0.0000 C   0  0  0  0  0  0  0  0  0  0  0  0
    3.5260    1.2990    0.0000 C   0  0  0  0  0  0  0  0  0  0  0  0
    2.7760    2.5981    0.0000 O   0  0  0  0  0  0  0  0  0  0  0  0
    2.7760    0.0000    0.0000 N   0  0  0  0  0  0  0  0  0  0  0  0
    1.2760    0.0000    0.0000 C   0  0  0  0  0  0  0  0  0  0  0  0
    0.3943    1.2135    0.0000 N   0  0  0  0  0  0  0  0  0  0  0  0
   -1.0323    0.7500    0.0000 N   0  0  0  0  0  0  0  0  0  0  0  0
   -1.0323   -0.7500    0.0000 N   0  0  0  0  0  0  0  0  0  0  0  0
    0.3943   -1.2135    0.0000 N   0  0  0  0  0  0  0  0  0  0  0  0
    0.8578   -2.6401    0.0000 C   0  0  0  0  0  0  0  0  0  0  0  0
   -0.0239   -3.8536    0.0000 C   0  0  0  0  0  0  0  0  0  0  0  0
    0.8578   -5.0672    0.0000 C   0  0  0  0  0  0  0  0  0  0  0  0
    2.2844   -4.6036    0.0000 C   0  0  0  0  0  0  0  0  0  0  0  0
    2.2844   -3.1036    0.0000 C   0  0  0  0  0  0  0  0  0  0  0  0
  1  2  1  0
  2  3  1  0
  3  4  1  0
  4  5  2  0
  4  6  1  0
  6  7  1  0
  7  8  2  0
  8  9  1  0
  9 10  2  0
 10 11  1  0
 11 12  1  0
 12 13  2  0
 13 14  1  0
 14 15  2  0
 15 16  1  0
 11  7  1  0
 16 12  1  0
M  END
>  <Title>  (816) 
idABDLgen13

$$$$

     RDKit          2D

 54 61  0  0  0  0  0  0  0  0999 V2000
    1.0838   -9.3334    0.0000 C   0  0  0  0  0  0  0  0  0  0  0  0
    0.7500   -7.8710    0.0000 C   0  0  0  0  0  0  0  0  0  0  0  0
    2.1015   -7.2201    0.0000 C   0  0  0  0  0  0  0  0  0  0  0  0
    3.0367   -6.0474    0.0000 C   0  0  0  0  0  0  0  0  0  0  0  0
    3.3705   -4.5850    0.0000 C   0  0  0  0  0  0  0  0  0  0  0  0
    3.0367   -3.1226    0.0000 C   0  0  0  0  0  0  0  0  0  0  0  0
    2.1015   -1.9499    0.0000 C   0  0  0  0  0  0  0  0  0  0  0  0
    3.0367   -0.7771    0.0000 C   0  0  0  0  0  0  0  0  0  0  0  0
    2.4887    0.6192    0.0000 O   0  0  0  0  0  0  0  0  0  0  0  0
    4.5199   -1.0007    0.0000 N   0  0  0  0  0  0  0  0  0  0  0  0
    5.4552    0.1721    0.0000 C   0  0  0  0  0  0  0  0  0  0  0  0
    5.0561    1.6180    0.0000 N   0  0  0  0  0  0  0  0  0  0  0  0
    6.3080    2.4444    0.0000 N   0  0  0  0  0  0  0  0  0  0  0  0
    7.4807    1.5091    0.0000 N   0  0  0  0  0  0  0  0  0  0  0  0
    6.9537    0.1048    0.0000 N   0  0  0  0  0  0  0  0  0  0  0  0
    7.7800   -1.1471    0.0000 N   0  0  0  0  0  0  0  0  0  0  0  0
    9.2785   -1.2144    0.0000 C   0  0  0  0  0  0  0  0  0  0  0  0
    9.6775   -2.6603    0.0000 C   0  0  0  0  0  0  0  0  0  0  0  0
    8.4257   -3.4867    0.0000 N   0  0  0  0  0  0  0  0  0  0  0  0
    8.3584   -4.9852    0.0000 C   0  0  0  0  0  0  0  0  0  0  0  0
    9.6225   -5.7927    0.0000 O   0  0  0  0  0  0  0  0  0  0  0  0
    7.0270   -5.6761    0.0000 N   0  0  0  0  0  0  0  0  0  0  0  0
    6.9597   -7.1746    0.0000 C   0  0  0  0  0  0  0  0  0  0  0  0
    5.6283   -7.8656    0.0000 N   0  0  0  0  0  0  0  0  0  0  0  0
    5.5610   -9.3641    0.0000 N   0  0  0  0  0  0  0  0  0  0  0  0
    6.8251  -10.1716    0.0000 N   0  0  0  0  0  0  0  0  0  0  0  0
    8.1565   -9.4806    0.0000 N   0  0  0  0  0  0  0  0  0  0  0  0
    8.2238   -7.9821    0.0000 N   0  0  0  0  0  0  0  0  0  0  0  0
    7.2529   -2.5514    0.0000 C   0  0  0  0  0  0  0  0  0  0  0  0
    5.8070   -2.9505    0.0000 O   0  0  0  0  0  0  0  0  0  0  0  0
    0.7500   -1.2990    0.0000 C   0  0  0  0  0  0  0  0  0  0  0  0
    1.5000    0.0000    0.0000 C   0  0  0  0  0  0  0  0  0  0  0  0
    0.7500    1.2990    0.0000 C   0  0  0  0  0  0  0  0  0  0  0  0
   -0.7500    1.2990    0.0000 C   0  0  0  0  0  0  0  0  0  0  0  0
   -1.5000    0.0000    0.0000 C   0  0  0  0  0  0  0  0  0  0  0  0
   -0.7500   -1.2990    0.0000 C   0  0  0  0  0  0  0  0  0  0  0  0
   -2.1015   -1.9499    0.0000 C   0  0  0  0  0  0  0  0  0  0  0  0
   -2.6495   -0.5536    0.0000 C   0  0  0  0  0  0  0  0  0  0  0  0
   -4.1327   -0.3300    0.0000 C   0  0  0  0  0  0  0  0  0  0  0  0
   -5.0679   -1.5027    0.0000 C   0  0  0  0  0  0  0  0  0  0  0  0
   -4.5199   -2.8990    0.0000 C   0  0  0  0  0  0  0  0  0  0  0  0
   -3.0367   -3.1226    0.0000 C   0  0  0  0  0  0  0  0  0  0  0  0
   -3.3705   -4.5850    0.0000 C   0  0  0  0  0  0  0  0  0  0  0  0
   -4.8038   -4.1429    0.0000 C   0  0  0  0  0  0  0  0  0  0  0  0
   -5.9034   -5.1631    0.0000 C   0  0  0  0  0  0  0  0  0  0  0  0
   -5.5696   -6.6255    0.0000 C   0  0  0  0  0  0  0  0  0  0  0  0
   -4.1363   -7.0677    0.0000 C   0  0  0  0  0  0  0  0  0  0  0  0
   -3.0367   -6.0474    0.0000 C   0  0  0  0  0  0  0  0  0  0  0  0
   -2.1015   -7.2201    0.0000 C   0  0  0  0  0  0  0  0  0  0  0  0
   -3.3408   -8.0651    0.0000 C   0  0  0  0  0  0  0  0  0  0  0  0
   -3.2287   -9.5609    0.0000 C   0  0  0  0  0  0  0  0  0  0  0  0
   -1.8773  -10.2118    0.0000 C   0  0  0  0  0  0  0  0  0  0  0  0
   -0.6379   -9.3668    0.0000 C   0  0  0  0  0  0  0  0  0  0  0  0
   -0.7500   -7.8710    0.0000 C   0  0  0  0  0  0  0  0  0  0  0  0
  1  2  1  0
  2  3  1  0
  3  4  2  0
  4  5  1  0
  5  6  1  0
  6  7  1  0
  7  8  1  0
  8  9  2  0
  8 10  1  0
 10 11  1  0
 11 12  2  0
 12 13  1  0
 13 14  2  0
 14 15  1  0
 15 16  1  0
 16 17  1  0
 17 18  1  0
 18 19  1  0
 19 20  1  0
 20 21  2  0
 20 22  1  0
 22 23  1  0
 23 24  2  0
 24 25  1  0
 25 26  2  0
 26 27  1  0
 27 28  2  0
 19 29  1  0
 29 30  2  0
  7 31  1  0
 31 32  2  0
 32 33  1  0
 33 34  2  0
 34 35  1  0
 35 36  2  0
 36 37  1  0
 37 38  2  0
 38 39  1  0
 39 40  2  0
 40 41  1  0
 41 42  2  0
 42 43  1  0
 43 44  2  0
 44 45  1  0
 45 46  2  0
 46 47  1  0
 47 48  2  0
 48 49  1  0
 49 50  2  0
 50 51  1  0
 51 52  2  0
 52 53  1  0
 53 54  2  0
 54  2  1  0
 15 11  1  0
 29 16  1  0
 36 31  1  0
 42 37  1  0
 48 43  1  0
 54 49  1  0
 28 23  1  0
M  END
>  <Title>  (817) 
idABDMgen13

$$$$

     RDKit          2D

 25 28  0  0  0  0  0  0  0  0999 V2000
   -3.1476   -2.1380    0.0000 C   0  0  0  0  0  0  0  0  0  0  0  0
   -1.6852   -2.4718    0.0000 C   0  0  0  0  0  0  0  0  0  0  0  0
   -1.3515   -3.9342    0.0000 C   0  0  0  0  0  0  0  0  0  0  0  0
   -0.0000   -4.5850    0.0000 C   0  0  0  0  0  0  0  0  0  0  0  0
    1.3515   -3.9342    0.0000 C   0  0  0  0  0  0  0  0  0  0  0  0
    1.6852   -2.4718    0.0000 C   0  0  0  0  0  0  0  0  0  0  0  0
    3.1476   -2.1380    0.0000 C   0  0  0  0  0  0  0  0  0  0  0  0
    3.5898   -0.7046    0.0000 O   0  0  0  0  0  0  0  0  0  0  0  0
    4.1679   -3.2376    0.0000 N   0  0  0  0  0  0  0  0  0  0  0  0
    5.6303   -2.9038    0.0000 C   0  0  0  0  0  0  0  0  0  0  0  0
    6.2198   -1.5245    0.0000 N   0  0  0  0  0  0  0  0  0  0  0  0
    7.7138   -1.6590    0.0000 N   0  0  0  0  0  0  0  0  0  0  0  0
    8.0476   -3.1214    0.0000 N   0  0  0  0  0  0  0  0  0  0  0  0
    6.7599   -3.8907    0.0000 N   0  0  0  0  0  0  0  0  0  0  0  0
    6.6254   -5.3847    0.0000 N   0  0  0  0  0  0  0  0  0  0  0  0
    7.7550   -6.3716    0.0000 C   0  0  0  0  0  0  0  0  0  0  0  0
    7.1655   -7.7509    0.0000 N   0  0  0  0  0  0  0  0  0  0  0  0
    5.6715   -7.6164    0.0000 N   0  0  0  0  0  0  0  0  0  0  0  0
    5.3378   -6.1540    0.0000 N   0  0  0  0  0  0  0  0  0  0  0  0
    0.7500   -1.2990    0.0000 C   0  0  0  0  0  0  0  0  0  0  0  0
    1.5000    0.0000    0.0000 C   0  0  0  0  0  0  0  0  0  0  0  0
    0.7500    1.2990    0.0000 C   0  0  0  0  0  0  0  0  0  0  0  0
   -0.7500    1.2990    0.0000 C   0  0  0  0  0  0  0  0  0  0  0  0
   -1.5000    0.0000    0.0000 C   0  0  0  0  0  0  0  0  0  0  0  0
   -0.7500   -1.2990    0.0000 C   0  0  0  0  0  0  0  0  0  0  0  0
  1  2  1  0
  2  3  1  0
  3  4  2  0
  4  5  1  0
  5  6  1  0
  6  7  1  0
  7  8  2  0
  7  9  1  0
  9 10  1  0
 10 11  2  0
 11 12  1  0
 12 13  2  0
 13 14  1  0
 14 15  1  0
 15 16  1  0
 16 17  2  0
 17 18  1  0
 18 19  2  0
  6 20  1  0
 20 21  2  0
 21 22  1  0
 22 23  2  0
 23 24  1  0
 24 25  2  0
 25  2  1  0
 14 10  1  0
 19 15  1  0
 25 20  1  0
M  END
>  <Title>  (818) 
idABDNgen13

$$$$

     RDKit          2D

 82 85  0  0  0  0  0  0  0  0999 V2000
   -7.9080    4.1456    0.0000 C   0  0  0  0  0  0  0  0  0  0  0  0
   -6.9047    5.2607    0.0000 C   0  0  0  0  0  0  0  0  0  0  0  0
   -7.9724    6.3144    0.0000 C   0  0  0  0  0  0  0  0  0  0  0  0
   -8.9382    7.4620    0.0000 C   0  0  0  0  0  0  0  0  0  0  0  0
   -9.7941    8.6939    0.0000 C   0  0  0  0  0  0  0  0  0  0  0  0
  -10.5326    9.9995    0.0000 C   0  0  0  0  0  0  0  0  0  0  0  0
  -11.1476   11.3676    0.0000 C   0  0  0  0  0  0  0  0  0  0  0  0
  -11.6336   12.7867    0.0000 C   0  0  0  0  0  0  0  0  0  0  0  0
  -11.9867   14.2446    0.0000 C   0  0  0  0  0  0  0  0  0  0  0  0
  -12.2037   15.7288    0.0000 C   0  0  0  0  0  0  0  0  0  0  0  0
  -12.2829   17.2267    0.0000 C   0  0  0  0  0  0  0  0  0  0  0  0
  -12.2235   18.7255    0.0000 C   0  0  0  0  0  0  0  0  0  0  0  0
  -12.0261   20.2125    0.0000 C   0  0  0  0  0  0  0  0  0  0  0  0
  -11.6923   21.6749    0.0000 C   0  0  0  0  0  0  0  0  0  0  0  0
  -11.2250   23.1002    0.0000 C   0  0  0  0  0  0  0  0  0  0  0  0
  -10.6282   24.4764    0.0000 C   0  0  0  0  0  0  0  0  0  0  0  0
   -9.9069   25.7916    0.0000 C   0  0  0  0  0  0  0  0  0  0  0  0
   -9.0674   27.0347    0.0000 C   0  0  0  0  0  0  0  0  0  0  0  0
   -8.1168   28.1950    0.0000 C   0  0  0  0  0  0  0  0  0  0  0  0
   -7.0632   29.2626    0.0000 C   0  0  0  0  0  0  0  0  0  0  0  0
   -5.9155   30.2285    0.0000 C   0  0  0  0  0  0  0  0  0  0  0  0
   -4.6836   31.0843    0.0000 C   0  0  0  0  0  0  0  0  0  0  0  0
   -3.3780   31.8229    0.0000 C   0  0  0  0  0  0  0  0  0  0  0  0
   -2.0099   32.4378    0.0000 C   0  0  0  0  0  0  0  0  0  0  0  0
   -0.5908   32.9238    0.0000 C   0  0  0  0  0  0  0  0  0  0  0  0
    0.8670   33.2769    0.0000 C   0  0  0  0  0  0  0  0  0  0  0  0
    2.3513   33.4939    0.0000 C   0  0  0  0  0  0  0  0  0  0  0  0
    3.8492   33.5731    0.0000 C   0  0  0  0  0  0  0  0  0  0  0  0
    5.3480   33.5137    0.0000 C   0  0  0  0  0  0  0  0  0  0  0  0
    6.8349   33.3163    0.0000 C   0  0  0  0  0  0  0  0  0  0  0  0
    8.2973   32.9825    0.0000 C   0  0  0  0  0  0  0  0  0  0  0  0
    9.7227   32.5152    0.0000 C   0  0  0  0  0  0  0  0  0  0  0  0
   11.0988   31.9184    0.0000 C   0  0  0  0  0  0  0  0  0  0  0  0
   12.4141   31.1972    0.0000 C   0  0  0  0  0  0  0  0  0  0  0  0
   13.6571   30.3576    0.0000 C   0  0  0  0  0  0  0  0  0  0  0  0
   14.8174   29.4070    0.0000 C   0  0  0  0  0  0  0  0  0  0  0  0
   15.8851   28.3534    0.0000 C   0  0  0  0  0  0  0  0  0  0  0  0
   16.8509   27.2057    0.0000 C   0  0  0  0  0  0  0  0  0  0  0  0
   17.7068   25.9738    0.0000 C   0  0  0  0  0  0  0  0  0  0  0  0
   18.4453   24.6683    0.0000 C   0  0  0  0  0  0  0  0  0  0  0  0
   19.0603   23.3001    0.0000 C   0  0  0  0  0  0  0  0  0  0  0  0
   19.5463   21.8810    0.0000 C   0  0  0  0  0  0  0  0  0  0  0  0
   19.8994   20.4232    0.0000 C   0  0  0  0  0  0  0  0  0  0  0  0
   20.1164   18.9390    0.0000 C   0  0  0  0  0  0  0  0  0  0  0  0
   20.1956   17.4411    0.0000 C   0  0  0  0  0  0  0  0  0  0  0  0
   20.1362   15.9422    0.0000 C   0  0  0  0  0  0  0  0  0  0  0  0
   19.9388   14.4553    0.0000 C   0  0  0  0  0  0  0  0  0  0  0  0
   19.6050   12.9929    0.0000 C   0  0  0  0  0  0  0  0  0  0  0  0
   19.1377   11.5675    0.0000 C   0  0  0  0  0  0  0  0  0  0  0  0
   18.5409   10.1914    0.0000 C   0  0  0  0  0  0  0  0  0  0  0  0
   17.8196    8.8761    0.0000 C   0  0  0  0  0  0  0  0  0  0  0  0
   16.9801    7.6331    0.0000 C   0  0  0  0  0  0  0  0  0  0  0  0
   16.0295    6.4728    0.0000 C   0  0  0  0  0  0  0  0  0  0  0  0
   14.9758    5.4051    0.0000 C   0  0  0  0  0  0  0  0  0  0  0  0
   13.8282    4.4393    0.0000 C   0  0  0  0  0  0  0  0  0  0  0  0
   12.5963    3.5834    0.0000 C   0  0  0  0  0  0  0  0  0  0  0  0
   11.2907    2.8449    0.0000 C   0  0  0  0  0  0  0  0  0  0  0  0
    9.9226    2.2300    0.0000 C   0  0  0  0  0  0  0  0  0  0  0  0
    8.5035    1.7439    0.0000 C   0  0  0  0  0  0  0  0  0  0  0  0
    7.0456    1.3908    0.0000 C   0  0  0  0  0  0  0  0  0  0  0  0
    5.5614    1.1738    0.0000 C   0  0  0  0  0  0  0  0  0  0  0  0
    4.0635    1.0946    0.0000 C   0  0  0  0  0  0  0  0  0  0  0  0
    2.5647    1.1540    0.0000 C   0  0  0  0  0  0  0  0  0  0  0  0
    1.0777    1.3515    0.0000 C   0  0  0  0  0  0  0  0  0  0  0  0
    1.7286    0.0000    0.0000 C   0  0  0  0  0  0  0  0  0  0  0  0
    1.0777   -1.3515    0.0000 C   0  0  0  0  0  0  0  0  0  0  0  0
   -0.3846   -1.6852    0.0000 C   0  0  0  0  0  0  0  0  0  0  0  0
   -1.5574   -0.7500    0.0000 C   0  0  0  0  0  0  0  0  0  0  0  0
   -1.5574    0.7500    0.0000 C   0  0  0  0  0  0  0  0  0  0  0  0
   -0.3846    1.6852    0.0000 C   0  0  0  0  0  0  0  0  0  0  0  0
   -1.8100    2.1525    0.0000 C   0  0  0  0  0  0  0  0  0  0  0  0
   -0.6051    3.0459    0.0000 C   0  0  0  0  0  0  0  0  0  0  0  0
   -0.7763    4.5361    0.0000 C   0  0  0  0  0  0  0  0  0  0  0  0
   -2.1525    5.1329    0.0000 C   0  0  0  0  0  0  0  0  0  0  0  0
   -3.3574    4.2395    0.0000 C   0  0  0  0  0  0  0  0  0  0  0  0
   -3.1862    2.7493    0.0000 C   0  0  0  0  0  0  0  0  0  0  0  0
   -4.5014    3.4706    0.0000 C   0  0  0  0  0  0  0  0  0  0  0  0
   -4.6069    1.9743    0.0000 C   0  0  0  0  0  0  0  0  0  0  0  0
   -5.9555    1.3175    0.0000 C   0  0  0  0  0  0  0  0  0  0  0  0
   -7.1985    2.1570    0.0000 C   0  0  0  0  0  0  0  0  0  0  0  0
   -7.0930    3.6533    0.0000 C   0  0  0  0  0  0  0  0  0  0  0  0
   -5.7444    4.3101    0.0000 C   0  0  0  0  0  0  0  0  0  0  0  0
  1  2  1  0
  2  3  1  0
  3  4  1  0
  4  5  1  0
  5  6  1  0
  6  7  1  0
  7  8  1  0
  8  9  1  0
  9 10  1  0
 10 11  1  0
 11 12  1  0
 12 13  1  0
 13 14  1  0
 14 15  1  0
 15 16  1  0
 16 17  1  0
 17 18  1  0
 18 19  1  0
 19 20  1  0
 20 21  1  0
 21 22  1  0
 22 23  1  0
 23 24  1  0
 24 25  1  0
 25 26  1  0
 26 27  1  0
 27 28  1  0
 28 29  1  0
 29 30  1  0
 30 31  1  0
 31 32  1  0
 32 33  1  0
 33 34  1  0
 34 35  1  0
 35 36  1  0
 36 37  1  0
 37 38  1  0
 38 39  1  0
 39 40  1  0
 40 41  1  0
 41 42  1  0
 42 43  1  0
 43 44  1  0
 44 45  1  0
 45 46  1  0
 46 47  1  0
 47 48  1  0
 48 49  1  0
 49 50  1  0
 50 51  1  0
 51 52  1  0
 52 53  1  0
 53 54  1  0
 54 55  1  0
 55 56  1  0
 56 57  1  0
 57 58  1  0
 58 59  1  0
 59 60  1  0
 60 61  1  0
 61 62  1  0
 62 63  1  0
 63 64  1  0
 64 65  1  0
 65 66  2  0
 66 67  1  0
 67 68  2  0
 68 69  1  0
 69 70  2  0
 70 71  1  0
 71 72  2  0
 72 73  1  0
 73 74  2  0
 74 75  1  0
 75 76  2  0
 76 77  1  0
 77 78  2  0
 78 79  1  0
 79 80  2  0
 80 81  1  0
 81 82  2  0
 82  2  1  0
 70 64  1  0
 76 71  1  0
 82 77  1  0
M  END
>  <Title>  (819) 
idABDOgen13

$$$$

     RDKit          2D

 77 78  0  0  0  0  0  0  0  0999 V2000
   -2.2174   -1.0636    0.0000 C   0  0  0  0  0  0  0  0  0  0  0  0
   -2.4934    0.4108    0.0000 C   0  0  0  0  0  0  0  0  0  0  0  0
   -3.9783    0.1985    0.0000 C   0  0  0  0  0  0  0  0  0  0  0  0
   -5.4760    0.1146    0.0000 C   0  0  0  0  0  0  0  0  0  0  0  0
   -6.9753    0.1598    0.0000 C   0  0  0  0  0  0  0  0  0  0  0  0
   -8.4652    0.3337    0.0000 C   0  0  0  0  0  0  0  0  0  0  0  0
   -9.9346    0.6351    0.0000 C   0  0  0  0  0  0  0  0  0  0  0  0
  -11.3727    1.0616    0.0000 C   0  0  0  0  0  0  0  0  0  0  0  0
  -12.7688    1.6102    0.0000 C   0  0  0  0  0  0  0  0  0  0  0  0
  -14.1125    2.2767    0.0000 C   0  0  0  0  0  0  0  0  0  0  0  0
  -15.3940    3.0564    0.0000 C   0  0  0  0  0  0  0  0  0  0  0  0
  -16.6037    3.9433    0.0000 C   0  0  0  0  0  0  0  0  0  0  0  0
  -17.7327    4.9309    0.0000 C   0  0  0  0  0  0  0  0  0  0  0  0
  -18.7727    6.0119    0.0000 C   0  0  0  0  0  0  0  0  0  0  0  0
  -19.7158    7.1783    0.0000 C   0  0  0  0  0  0  0  0  0  0  0  0
  -20.5552    8.4214    0.0000 C   0  0  0  0  0  0  0  0  0  0  0  0
  -21.2846    9.7321    0.0000 C   0  0  0  0  0  0  0  0  0  0  0  0
  -21.8986   11.1007    0.0000 C   0  0  0  0  0  0  0  0  0  0  0  0
  -22.3927   12.5170    0.0000 C   0  0  0  0  0  0  0  0  0  0  0  0
  -22.7633   13.9705    0.0000 C   0  0  0  0  0  0  0  0  0  0  0  0
  -23.0075   15.4505    0.0000 C   0  0  0  0  0  0  0  0  0  0  0  0
  -23.1236   16.9460    0.0000 C   0  0  0  0  0  0  0  0  0  0  0  0
  -23.1107   18.4459    0.0000 C   0  0  0  0  0  0  0  0  0  0  0  0
  -22.9689   19.9392    0.0000 C   0  0  0  0  0  0  0  0  0  0  0  0
  -22.6992   21.4148    0.0000 C   0  0  0  0  0  0  0  0  0  0  0  0
  -22.3037   22.8617    0.0000 C   0  0  0  0  0  0  0  0  0  0  0  0
  -21.7853   24.2692    0.0000 C   0  0  0  0  0  0  0  0  0  0  0  0
  -21.1478   25.6270    0.0000 C   0  0  0  0  0  0  0  0  0  0  0  0
  -20.3959   26.9250    0.0000 C   0  0  0  0  0  0  0  0  0  0  0  0
  -19.5353   28.1535    0.0000 C   0  0  0  0  0  0  0  0  0  0  0  0
  -18.5722   29.3035    0.0000 C   0  0  0  0  0  0  0  0  0  0  0  0
  -17.5138   30.3664    0.0000 C   0  0  0  0  0  0  0  0  0  0  0  0
  -16.3680   31.3345    0.0000 C   0  0  0  0  0  0  0  0  0  0  0  0
  -15.1432   32.2004    0.0000 C   0  0  0  0  0  0  0  0  0  0  0  0
  -13.8485   32.9578    0.0000 C   0  0  0  0  0  0  0  0  0  0  0  0
  -12.4934   33.6012    0.0000 C   0  0  0  0  0  0  0  0  0  0  0  0
  -11.0881   34.1257    0.0000 C   0  0  0  0  0  0  0  0  0  0  0  0
   -9.6429   34.5274    0.0000 C   0  0  0  0  0  0  0  0  0  0  0  0
   -8.1685   34.8034    0.0000 C   0  0  0  0  0  0  0  0  0  0  0  0
   -6.6758   34.9516    0.0000 C   0  0  0  0  0  0  0  0  0  0  0  0
   -5.1760   34.9710    0.0000 C   0  0  0  0  0  0  0  0  0  0  0  0
   -3.6800   34.8613    0.0000 C   0  0  0  0  0  0  0  0  0  0  0  0
   -2.1990   34.6235    0.0000 C   0  0  0  0  0  0  0  0  0  0  0  0
   -0.7439   34.2592    0.0000 C   0  0  0  0  0  0  0  0  0  0  0  0
    0.6745   33.7712    0.0000 C   0  0  0  0  0  0  0  0  0  0  0  0
    2.0457   33.1631    0.0000 C   0  0  0  0  0  0  0  0  0  0  0  0
    3.3596   32.4393    0.0000 C   0  0  0  0  0  0  0  0  0  0  0  0
    4.6063   31.6053    0.0000 C   0  0  0  0  0  0  0  0  0  0  0  0
    5.7768   30.6672    0.0000 C   0  0  0  0  0  0  0  0  0  0  0  0
    6.8622   29.6319    0.0000 C   0  0  0  0  0  0  0  0  0  0  0  0
    7.8547   28.5072    0.0000 C   0  0  0  0  0  0  0  0  0  0  0  0
    8.7468   27.3013    0.0000 C   0  0  0  0  0  0  0  0  0  0  0  0
    9.5319   26.0232    0.0000 C   0  0  0  0  0  0  0  0  0  0  0  0
   10.2042   24.6823    0.0000 C   0  0  0  0  0  0  0  0  0  0  0  0
   10.7588   23.2886    0.0000 C   0  0  0  0  0  0  0  0  0  0  0  0
   11.1915   21.8523    0.0000 C   0  0  0  0  0  0  0  0  0  0  0  0
   11.4992   20.3842    0.0000 C   0  0  0  0  0  0  0  0  0  0  0  0
   11.6795   18.8951    0.0000 C   0  0  0  0  0  0  0  0  0  0  0  0
   11.7311   17.3960    0.0000 C   0  0  0  0  0  0  0  0  0  0  0  0
   11.6537   15.8980    0.0000 C   0  0  0  0  0  0  0  0  0  0  0  0
   11.4478   14.4122    0.0000 C   0  0  0  0  0  0  0  0  0  0  0  0
   11.1149   12.9496    0.0000 C   0  0  0  0  0  0  0  0  0  0  0  0
   10.6575   11.5210    0.0000 C   0  0  0  0  0  0  0  0  0  0  0  0
   10.0790   10.1371    0.0000 C   0  0  0  0  0  0  0  0  0  0  0  0
    9.3837    8.8080    0.0000 C   0  0  0  0  0  0  0  0  0  0  0  0
    8.5767    7.5436    0.0000 C   0  0  0  0  0  0  0  0  0  0  0  0
    7.6640    6.3532    0.0000 C   0  0  0  0  0  0  0  0  0  0  0  0
    6.6523    5.2457    0.0000 C   0  0  0  0  0  0  0  0  0  0  0  0
    5.5492    4.2293    0.0000 C   0  0  0  0  0  0  0  0  0  0  0  0
    4.3628    3.3115    0.0000 C   0  0  0  0  0  0  0  0  0  0  0  0
    3.1019    2.4990    0.0000 C   0  0  0  0  0  0  0  0  0  0  0  0
    1.7758    1.7980    0.0000 C   0  0  0  0  0  0  0  0  0  0  0  0
    0.3943    1.2135    0.0000 C   0  0  0  0  0  0  0  0  0  0  0  0
    1.2760    0.0000    0.0000 C   0  0  0  0  0  0  0  0  0  0  0  0
    0.3943   -1.2135    0.0000 C   0  0  0  0  0  0  0  0  0  0  0  0
   -1.0323   -0.7500    0.0000 C   0  0  0  0  0  0  0  0  0  0  0  0
   -1.0323    0.7500    0.0000 C   0  0  0  0  0  0  0  0  0  0  0  0
  1  2  1  0
  2  3  1  0
  3  4  1  0
  4  5  1  0
  5  6  1  0
  6  7  1  0
  7  8  1  0
  8  9  1  0
  9 10  1  0
 10 11  1  0
 11 12  1  0
 12 13  1  0
 13 14  1  0
 14 15  1  0
 15 16  1  0
 16 17  1  0
 17 18  1  0
 18 19  1  0
 19 20  1  0
 20 21  1  0
 21 22  1  0
 22 23  1  0
 23 24  1  0
 24 25  1  0
 25 26  1  0
 26 27  1  0
 27 28  1  0
 28 29  1  0
 29 30  1  0
 30 31  1  0
 31 32  1  0
 32 33  1  0
 33 34  1  0
 34 35  2  0
 35 36  1  0
 36 37  2  0
 37 38  1  0
 38 39  2  0
 39 40  1  0
 40 41  2  0
 41 42  1  0
 42 43  2  0
 43 44  1  0
 44 45  2  0
 45 46  1  0
 46 47  2  0
 47 48  1  0
 48 49  2  0
 49 50  1  0
 50 51  2  0
 51 52  1  0
 52 53  2  0
 53 54  1  0
 54 55  2  0
 55 56  1  0
 56 57  2  0
 57 58  1  0
 58 59  2  0
 59 60  1  0
 60 61  2  0
 61 62  1  0
 62 63  2  0
 63 64  1  0
 64 65  2  0
 65 66  1  0
 66 67  2  0
 67 68  1  0
 68 69  2  0
 69 70  1  0
 70 71  2  0
 71 72  1  0
 72 73  2  0
 73 74  1  0
 74 75  2  0
 75 76  1  0
 76 77  2  0
 77  2  1  0
 77 73  1  0
M  END
>  <Title>  (820) 
idABDPgen13

$$$$

     RDKit          2D

  7  7  0  0  0  0  0  0  0  0999 V2000
    3.5260   -1.2990    0.0000 C   0  0  0  0  0  0  0  0  0  0  0  0
    2.7760    0.0000    0.0000 C   0  0  0  0  0  0  0  0  0  0  0  0
    1.2760    0.0000    0.0000 C   0  0  0  0  0  0  0  0  0  0  0  0
    0.3943    1.2135    0.0000 C   0  0  0  0  0  0  0  0  0  0  0  0
   -1.0323    0.7500    0.0000 C   0  0  0  0  0  0  0  0  0  0  0  0
   -1.0323   -0.7500    0.0000 C   0  0  0  0  0  0  0  0  0  0  0  0
    0.3943   -1.2135    0.0000 N   0  0  0  0  0  0  0  0  0  0  0  0
  1  2  2  0
  2  3  1  0
  3  4  2  0
  4  5  1  0
  5  6  2  0
  6  7  1  0
  7  3  1  0
M  END
>  <Title>  (821) 
idABDQgen13

$$$$

     RDKit          2D

 84 83  0  0  0  0  0  0  0  0999 V2000
    0.0000    0.0000    0.0000 C   0  0  0  0  0  0  0  0  0  0  0  0
   -0.0000   -1.5000    0.0000 C   0  0  0  0  0  0  0  0  0  0  0  0
   -0.0000   -3.0000    0.0000 C   0  0  0  0  0  0  0  0  0  0  0  0
   -0.0000   -4.5000    0.0000 C   0  0  0  0  0  0  0  0  0  0  0  0
   -0.0000   -6.0000    0.0000 C   0  0  0  0  0  0  0  0  0  0  0  0
   -0.0000   -7.5000    0.0000 C   0  0  0  0  0  0  0  0  0  0  0  0
   -0.0000   -9.0000    0.0000 C   0  0  0  0  0  0  0  0  0  0  0  0
   -0.0000  -10.5000    0.0000 C   0  0  0  0  0  0  0  0  0  0  0  0
   -0.0000  -12.0000    0.0000 C   0  0  0  0  0  0  0  0  0  0  0  0
   -0.0000  -13.5000    0.0000 C   0  0  0  0  0  0  0  0  0  0  0  0
   -0.0000  -15.0000    0.0000 C   0  0  0  0  0  0  0  0  0  0  0  0
   -0.0000  -16.5000    0.0000 C   0  0  0  0  0  0  0  0  0  0  0  0
   -0.0000  -18.0000    0.0000 C   0  0  0  0  0  0  0  0  0  0  0  0
   -0.0000  -19.5000    0.0000 C   0  0  0  0  0  0  0  0  0  0  0  0
   -0.0000  -21.0000    0.0000 C   0  0  0  0  0  0  0  0  0  0  0  0
   -0.0000  -22.5000    0.0000 C   0  0  0  0  0  0  0  0  0  0  0  0
   -0.0000  -24.0000    0.0000 C   0  0  0  0  0  0  0  0  0  0  0  0
   -0.0000  -25.5000    0.0000 C   0  0  0  0  0  0  0  0  0  0  0  0
   -0.0000  -27.0000    0.0000 C   0  0  0  0  0  0  0  0  0  0  0  0
   -0.0000  -28.5000    0.0000 C   0  0  0  0  0  0  0  0  0  0  0  0
   -0.0000  -30.0000    0.0000 C   0  0  0  0  0  0  0  0  0  0  0  0
   -0.0000  -31.5000    0.0000 C   0  0  0  0  0  0  0  0  0  0  0  0
   -0.0000  -33.0000    0.0000 C   0  0  0  0  0  0  0  0  0  0  0  0
   -0.0000  -34.5000    0.0000 C   0  0  0  0  0  0  0  0  0  0  0  0
   -0.0000  -36.0000    0.0000 C   0  0  0  0  0  0  0  0  0  0  0  0
   -0.0000  -37.5000    0.0000 C   0  0  0  0  0  0  0  0  0  0  0  0
   -0.0000  -39.0000    0.0000 C   0  0  0  0  0  0  0  0  0  0  0  0
   -0.0000  -40.5000    0.0000 C   0  0  0  0  0  0  0  0  0  0  0  0
   -0.0000  -42.0000    0.0000 C   0  0  0  0  0  0  0  0  0  0  0  0
   -0.0000  -43.5000    0.0000 C   0  0  0  0  0  0  0  0  0  0  0  0
   -0.0000  -45.0000    0.0000 C   0  0  0  0  0  0  0  0  0  0  0  0
   -0.0000  -46.5000    0.0000 C   0  0  0  0  0  0  0  0  0  0  0  0
   -0.0000  -48.0000    0.0000 C   0  0  0  0  0  0  0  0  0  0  0  0
   -0.0000  -49.5000    0.0000 C   0  0  0  0  0  0  0  0  0  0  0  0
   -0.0000  -51.0000    0.0000 C   0  0  0  0  0  0  0  0  0  0  0  0
   -0.0000  -52.5000    0.0000 C   0  0  0  0  0  0  0  0  0  0  0  0
   -0.0000  -54.0000    0.0000 C   0  0  0  0  0  0  0  0  0  0  0  0
   -0.0000  -55.5000    0.0000 C   0  0  0  0  0  0  0  0  0  0  0  0
   -0.0000  -57.0000    0.0000 C   0  0  0  0  0  0  0  0  0  0  0  0
   -0.0000  -58.5000    0.0000 C   0  0  0  0  0  0  0  0  0  0  0  0
   -0.0000  -60.0000    0.0000 C   0  0  0  0  0  0  0  0  0  0  0  0
   -0.0000  -61.5000    0.0000 C   0  0  0  0  0  0  0  0  0  0  0  0
   -0.0000  -63.0000    0.0000 C   0  0  0  0  0  0  0  0  0  0  0  0
   -0.0000  -64.5000    0.0000 C   0  0  0  0  0  0  0  0  0  0  0  0
   -0.0000  -66.0000    0.0000 C   0  0  0  0  0  0  0  0  0  0  0  0
   -0.0000  -67.5000    0.0000 C   0  0  0  0  0  0  0  0  0  0  0  0
   -0.0000  -69.0000    0.0000 C   0  0  0  0  0  0  0  0  0  0  0  0
   -0.0000  -70.5000    0.0000 C   0  0  0  0  0  0  0  0  0  0  0  0
   -0.0000  -72.0000    0.0000 C   0  0  0  0  0  0  0  0  0  0  0  0
   -0.0000  -73.5000    0.0000 C   0  0  0  0  0  0  0  0  0  0  0  0
   -0.0000  -75.0000    0.0000 C   0  0  0  0  0  0  0  0  0  0  0  0
   -0.0000  -76.5000    0.0000 C   0  0  0  0  0  0  0  0  0  0  0  0
   -0.0000  -78.0000    0.0000 C   0  0  0  0  0  0  0  0  0  0  0  0
   -0.0000  -79.5000    0.0000 C   0  0  0  0  0  0  0  0  0  0  0  0
   -0.0000  -81.0000    0.0000 C   0  0  0  0  0  0  0  0  0  0  0  0
   -0.0000  -82.5000    0.0000 C   0  0  0  0  0  0  0  0  0  0  0  0
   -0.0000  -84.0000    0.0000 C   0  0  0  0  0  0  0  0  0  0  0  0
   -0.0000  -85.5000    0.0000 C   0  0  0  0  0  0  0  0  0  0  0  0
   -0.0000  -87.0000    0.0000 C   0  0  0  0  0  0  0  0  0  0  0  0
   -0.0000  -88.5000    0.0000 C   0  0  0  0  0  0  0  0  0  0  0  0
   -0.0000  -90.0000    0.0000 C   0  0  0  0  0  0  0  0  0  0  0  0
   -0.0000  -91.5000    0.0000 C   0  0  0  0  0  0  0  0  0  0  0  0
   -0.0000  -93.0000    0.0000 C   0  0  0  0  0  0  0  0  0  0  0  0
   -0.0000  -94.5000    0.0000 C   0  0  0  0  0  0  0  0  0  0  0  0
   -0.0000  -96.0000    0.0000 C   0  0  0  0  0  0  0  0  0  0  0  0
   -0.0000  -97.5000    0.0000 C   0  0  0  0  0  0  0  0  0  0  0  0
   -0.0000  -99.0000    0.0000 C   0  0  0  0  0  0  0  0  0  0  0  0
   -0.0000 -100.5000    0.0000 C   0  0  0  0  0  0  0  0  0  0  0  0
   -0.0000 -102.0000    0.0000 C   0  0  0  0  0  0  0  0  0  0  0  0
   -0.0000 -103.5000    0.0000 C   0  0  0  0  0  0  0  0  0  0  0  0
   -0.0000 -105.0000    0.0000 C   0  0  0  0  0  0  0  0  0  0  0  0
   -0.0000 -106.5000    0.0000 C   0  0  0  0  0  0  0  0  0  0  0  0
   -0.0000 -108.0000    0.0000 C   0  0  0  0  0  0  0  0  0  0  0  0
   -0.0000 -109.5000    0.0000 C   0  0  0  0  0  0  0  0  0  0  0  0
   -0.0000 -111.0000    0.0000 C   0  0  0  0  0  0  0  0  0  0  0  0
   -0.0000 -112.5000    0.0000 C   0  0  0  0  0  0  0  0  0  0  0  0
   -0.0000 -114.0000    0.0000 C   0  0  0  0  0  0  0  0  0  0  0  0
   -0.0000 -115.5000    0.0000 C   0  0  0  0  0  0  0  0  0  0  0  0
   -0.0000 -117.0000    0.0000 C   0  0  0  0  0  0  0  0  0  0  0  0
   -0.0000 -118.5000    0.0000 C   0  0  0  0  0  0  0  0  0  0  0  0
   -0.0000 -120.0000    0.0000 C   0  0  0  0  0  0  0  0  0  0  0  0
   -0.0000 -121.5000    0.0000 C   0  0  0  0  0  0  0  0  0  0  0  0
   -0.0000 -123.0000    0.0000 C   0  0  0  0  0  0  0  0  0  0  0  0
   -0.0000 -124.5000    0.0000 C   0  0  0  0  0  0  0  0  0  0  0  0
  1  2  3  0
  2  3  1  0
  3  4  3  0
  4  5  1  0
  5  6  3  0
  6  7  1  0
  7  8  3  0
  8  9  1  0
  9 10  3  0
 10 11  1  0
 11 12  3  0
 12 13  1  0
 13 14  3  0
 14 15  1  0
 15 16  3  0
 16 17  1  0
 17 18  3  0
 18 19  1  0
 19 20  3  0
 20 21  1  0
 21 22  3  0
 22 23  1  0
 23 24  3  0
 24 25  1  0
 25 26  3  0
 26 27  1  0
 27 28  3  0
 28 29  1  0
 29 30  3  0
 30 31  1  0
 31 32  3  0
 32 33  1  0
 33 34  3  0
 34 35  1  0
 35 36  3  0
 36 37  1  0
 37 38  3  0
 38 39  1  0
 39 40  3  0
 40 41  1  0
 41 42  3  0
 42 43  1  0
 43 44  3  0
 44 45  1  0
 45 46  3  0
 46 47  1  0
 47 48  3  0
 48 49  1  0
 49 50  3  0
 50 51  1  0
 51 52  3  0
 52 53  1  0
 53 54  3  0
 54 55  1  0
 55 56  3  0
 56 57  1  0
 57 58  3  0
 58 59  1  0
 59 60  3  0
 60 61  1  0
 61 62  3  0
 62 63  1  0
 63 64  3  0
 64 65  1  0
 65 66  3  0
 66 67  1  0
 67 68  3  0
 68 69  1  0
 69 70  3  0
 70 71  1  0
 71 72  3  0
 72 73  1  0
 73 74  3  0
 74 75  1  0
 75 76  3  0
 76 77  1  0
 77 78  3  0
 78 79  1  0
 79 80  3  0
 80 81  1  0
 81 82  3  0
 82 83  1  0
 83 84  3  0
M  END
>  <Title>  (822) 
idABDRgen13

$$$$

     RDKit          2D

 39 44  0  0  0  0  0  0  0  0999 V2000
   -3.4182    0.0420    0.0000 C   0  0  0  0  0  0  0  0  0  0  0  0
   -3.8817   -1.3846    0.0000 C   0  0  0  0  0  0  0  0  0  0  0  0
   -5.3083   -1.8481    0.0000 C   0  0  0  0  0  0  0  0  0  0  0  0
   -5.3083   -3.3481    0.0000 C   0  0  0  0  0  0  0  0  0  0  0  0
   -3.8817   -3.8116    0.0000 N   0  0  0  0  0  0  0  0  0  0  0  0
   -3.0000   -2.5981    0.0000 N   0  0  0  0  0  0  0  0  0  0  0  0
   -1.5000   -2.5981    0.0000 C   0  0  0  0  0  0  0  0  0  0  0  0
   -0.7500   -3.8971    0.0000 C   0  0  0  0  0  0  0  0  0  0  0  0
    0.7500   -3.8971    0.0000 C   0  0  0  0  0  0  0  0  0  0  0  0
    1.5000   -2.5981    0.0000 C   0  0  0  0  0  0  0  0  0  0  0  0
    3.0000   -2.5981    0.0000 C   0  0  0  0  0  0  0  0  0  0  0  0
    3.7500   -1.2990    0.0000 O   0  0  0  0  0  0  0  0  0  0  0  0
    3.7500   -3.8971    0.0000 N   0  0  0  0  0  0  0  0  0  0  0  0
    5.2500   -3.8971    0.0000 C   0  0  0  0  0  0  0  0  0  0  0  0
    6.1317   -2.6836    0.0000 N   0  0  0  0  0  0  0  0  0  0  0  0
    7.5583   -3.1471    0.0000 N   0  0  0  0  0  0  0  0  0  0  0  0
    7.5583   -4.6471    0.0000 N   0  0  0  0  0  0  0  0  0  0  0  0
    6.1317   -5.1106    0.0000 N   0  0  0  0  0  0  0  0  0  0  0  0
    5.6682   -6.5372    0.0000 N   0  0  0  0  0  0  0  0  0  0  0  0
    6.5498   -7.7508    0.0000 C   0  0  0  0  0  0  0  0  0  0  0  0
    5.6682   -8.9643    0.0000 C   0  0  0  0  0  0  0  0  0  0  0  0
    4.2416   -8.5008    0.0000 N   0  0  0  0  0  0  0  0  0  0  0  0
    3.0280   -9.3824    0.0000 C   0  0  0  0  0  0  0  0  0  0  0  0
    3.1848  -10.8742    0.0000 O   0  0  0  0  0  0  0  0  0  0  0  0
    1.6577   -8.7723    0.0000 N   0  0  0  0  0  0  0  0  0  0  0  0
    0.4442   -9.6540    0.0000 C   0  0  0  0  0  0  0  0  0  0  0  0
   -0.9261   -9.0439    0.0000 N   0  0  0  0  0  0  0  0  0  0  0  0
   -2.1396   -9.9256    0.0000 N   0  0  0  0  0  0  0  0  0  0  0  0
   -1.9829  -11.4174    0.0000 N   0  0  0  0  0  0  0  0  0  0  0  0
   -0.6125  -12.0275    0.0000 N   0  0  0  0  0  0  0  0  0  0  0  0
    0.6010  -11.1458    0.0000 N   0  0  0  0  0  0  0  0  0  0  0  0
    4.2416   -7.0008    0.0000 C   0  0  0  0  0  0  0  0  0  0  0  0
    3.0280   -6.1191    0.0000 O   0  0  0  0  0  0  0  0  0  0  0  0
    0.7500   -1.2990    0.0000 C   0  0  0  0  0  0  0  0  0  0  0  0
    1.5000    0.0000    0.0000 C   0  0  0  0  0  0  0  0  0  0  0  0
    0.7500    1.2990    0.0000 C   0  0  0  0  0  0  0  0  0  0  0  0
   -0.7500    1.2990    0.0000 C   0  0  0  0  0  0  0  0  0  0  0  0
   -1.5000    0.0000    0.0000 C   0  0  0  0  0  0  0  0  0  0  0  0
   -0.7500   -1.2990    0.0000 C   0  0  0  0  0  0  0  0  0  0  0  0
  1  2  1  0
  2  3  2  0
  3  4  1  0
  4  5  2  0
  5  6  1  0
  6  7  1  0
  7  8  2  0
  8  9  1  0
  9 10  2  0
 10 11  1  0
 11 12  2  0
 11 13  1  0
 13 14  1  0
 14 15  2  0
 15 16  1  0
 16 17  2  0
 17 18  1  0
 18 19  1  0
 19 20  1  0
 20 21  1  0
 21 22  1  0
 22 23  1  0
 23 24  2  0
 23 25  1  0
 25 26  1  0
 26 27  2  0
 27 28  1  0
 28 29  2  0
 29 30  1  0
 30 31  2  0
 22 32  1  0
 32 33  2  0
 10 34  1  0
 34 35  2  0
 35 36  1  0
 36 37  2  0
 37 38  1  0
 38 39  2  0
  6  2  1  0
 39  7  1  0
 18 14  1  0
 32 19  1  0
 39 34  1  0
 31 26  1  0
M  END
>  <Title>  (823) 
idABDSgen13

$$$$

     RDKit          2D

 17 19  0  0  0  0  0  0  0  0999 V2000
   -5.0933   -5.2566    0.0000 C   0  0  0  0  0  0  0  0  0  0  0  0
   -3.9205   -4.3214    0.0000 C   0  0  0  0  0  0  0  0  0  0  0  0
   -2.5242   -4.8694    0.0000 C   0  0  0  0  0  0  0  0  0  0  0  0
   -1.3515   -3.9342    0.0000 N   0  0  0  0  0  0  0  0  0  0  0  0
   -0.0000   -4.5850    0.0000 C   0  0  0  0  0  0  0  0  0  0  0  0
    1.3515   -3.9342    0.0000 C   0  0  0  0  0  0  0  0  0  0  0  0
    2.6391   -4.7035    0.0000 N   0  0  0  0  0  0  0  0  0  0  0  0
    3.7687   -3.7166    0.0000 N   0  0  0  0  0  0  0  0  0  0  0  0
    3.1792   -2.3373    0.0000 N   0  0  0  0  0  0  0  0  0  0  0  0
    1.6852   -2.4718    0.0000 N   0  0  0  0  0  0  0  0  0  0  0  0
    0.7500   -1.2990    0.0000 C   0  0  0  0  0  0  0  0  0  0  0  0
    1.5000    0.0000    0.0000 C   0  0  0  0  0  0  0  0  0  0  0  0
    0.7500    1.2990    0.0000 C   0  0  0  0  0  0  0  0  0  0  0  0
   -0.7500    1.2990    0.0000 C   0  0  0  0  0  0  0  0  0  0  0  0
   -1.5000    0.0000    0.0000 C   0  0  0  0  0  0  0  0  0  0  0  0
   -0.7500   -1.2990    0.0000 C   0  0  0  0  0  0  0  0  0  0  0  0
   -1.6852   -2.4718    0.0000 N   0  0  0  0  0  0  0  0  0  0  0  0
  1  2  1  0
  2  3  2  3
  3  4  1  0
  4  5  1  0
  5  6  1  0
  6  7  2  0
  7  8  1  0
  8  9  2  0
  9 10  1  0
 10 11  1  0
 11 12  2  0
 12 13  1  0
 13 14  2  0
 14 15  1  0
 15 16  2  0
 16 17  1  0
 17  4  1  0
 10  6  1  0
 16 11  1  0
M  END
>  <Title>  (824) 
idABDTgen13

$$$$

     RDKit          2D

 89 90  0  0  0  0  0  0  0  0999 V2000
   -2.0165    2.0573    0.0000 C   0  0  0  0  0  0  0  0  0  0  0  0
   -0.8562    3.0079    0.0000 C   0  0  0  0  0  0  0  0  0  0  0  0
   -2.0238    3.9497    0.0000 C   0  0  0  0  0  0  0  0  0  0  0  0
   -3.1148    4.9790    0.0000 C   0  0  0  0  0  0  0  0  0  0  0  0
   -4.1228    6.0898    0.0000 C   0  0  0  0  0  0  0  0  0  0  0  0
   -5.0417    7.2754    0.0000 C   0  0  0  0  0  0  0  0  0  0  0  0
   -5.8660    8.5287    0.0000 C   0  0  0  0  0  0  0  0  0  0  0  0
   -6.5907    9.8420    0.0000 C   0  0  0  0  0  0  0  0  0  0  0  0
   -7.2114   11.2075    0.0000 C   0  0  0  0  0  0  0  0  0  0  0  0
   -7.7244   12.6171    0.0000 C   0  0  0  0  0  0  0  0  0  0  0  0
   -8.1267   14.0621    0.0000 C   0  0  0  0  0  0  0  0  0  0  0  0
   -8.4158   15.5340    0.0000 C   0  0  0  0  0  0  0  0  0  0  0  0
   -8.5899   17.0239    0.0000 C   0  0  0  0  0  0  0  0  0  0  0  0
   -8.6481   18.5228    0.0000 C   0  0  0  0  0  0  0  0  0  0  0  0
   -8.5899   20.0216    0.0000 C   0  0  0  0  0  0  0  0  0  0  0  0
   -8.4158   21.5115    0.0000 C   0  0  0  0  0  0  0  0  0  0  0  0
   -8.1267   22.9834    0.0000 C   0  0  0  0  0  0  0  0  0  0  0  0
   -7.7244   24.4284    0.0000 C   0  0  0  0  0  0  0  0  0  0  0  0
   -7.2114   25.8380    0.0000 C   0  0  0  0  0  0  0  0  0  0  0  0
   -6.5907   27.2035    0.0000 C   0  0  0  0  0  0  0  0  0  0  0  0
   -5.8660   28.5168    0.0000 C   0  0  0  0  0  0  0  0  0  0  0  0
   -5.0417   29.7701    0.0000 C   0  0  0  0  0  0  0  0  0  0  0  0
   -4.1228   30.9557    0.0000 C   0  0  0  0  0  0  0  0  0  0  0  0
   -3.1148   32.0665    0.0000 C   0  0  0  0  0  0  0  0  0  0  0  0
   -2.0238   33.0958    0.0000 C   0  0  0  0  0  0  0  0  0  0  0  0
   -0.8562   34.0376    0.0000 C   0  0  0  0  0  0  0  0  0  0  0  0
    0.3808   34.8860    0.0000 C   0  0  0  0  0  0  0  0  0  0  0  0
    1.6798   35.6360    0.0000 C   0  0  0  0  0  0  0  0  0  0  0  0
    3.0331   36.2831    0.0000 C   0  0  0  0  0  0  0  0  0  0  0  0
    4.4324   36.8233    0.0000 C   0  0  0  0  0  0  0  0  0  0  0  0
    5.8694   37.2535    0.0000 C   0  0  0  0  0  0  0  0  0  0  0  0
    7.3354   37.5711    0.0000 C   0  0  0  0  0  0  0  0  0  0  0  0
    8.8216   37.7741    0.0000 C   0  0  0  0  0  0  0  0  0  0  0  0
   10.3190   37.8613    0.0000 C   0  0  0  0  0  0  0  0  0  0  0  0
   11.8188   37.8322    0.0000 C   0  0  0  0  0  0  0  0  0  0  0  0
   13.3117   37.6870    0.0000 C   0  0  0  0  0  0  0  0  0  0  0  0
   14.7889   37.4265    0.0000 C   0  0  0  0  0  0  0  0  0  0  0  0
   16.2415   37.0524    0.0000 C   0  0  0  0  0  0  0  0  0  0  0  0
   17.6607   36.5668    0.0000 C   0  0  0  0  0  0  0  0  0  0  0  0
   19.0381   35.9726    0.0000 C   0  0  0  0  0  0  0  0  0  0  0  0
   20.3652   35.2736    0.0000 C   0  0  0  0  0  0  0  0  0  0  0  0
   21.6342   34.4738    0.0000 C   0  0  0  0  0  0  0  0  0  0  0  0
   22.8374   33.5780    0.0000 C   0  0  0  0  0  0  0  0  0  0  0  0
   23.9675   32.5917    0.0000 C   0  0  0  0  0  0  0  0  0  0  0  0
   25.0178   31.5208    0.0000 C   0  0  0  0  0  0  0  0  0  0  0  0
   25.9820   30.3718    0.0000 C   0  0  0  0  0  0  0  0  0  0  0  0
   26.8543   29.1515    0.0000 C   0  0  0  0  0  0  0  0  0  0  0  0
   27.6293   27.8672    0.0000 C   0  0  0  0  0  0  0  0  0  0  0  0
   28.3025   26.5268    0.0000 C   0  0  0  0  0  0  0  0  0  0  0  0
   28.8698   25.1382    0.0000 C   0  0  0  0  0  0  0  0  0  0  0  0
   29.3278   23.7098    0.0000 C   0  0  0  0  0  0  0  0  0  0  0  0
   29.6737   22.2502    0.0000 C   0  0  0  0  0  0  0  0  0  0  0  0
   29.9055   20.7682    0.0000 C   0  0  0  0  0  0  0  0  0  0  0  0
   30.0217   19.2728    0.0000 C   0  0  0  0  0  0  0  0  0  0  0  0
   30.0217   17.7728    0.0000 C   0  0  0  0  0  0  0  0  0  0  0  0
   29.9055   16.2773    0.0000 C   0  0  0  0  0  0  0  0  0  0  0  0
   29.6737   14.7953    0.0000 C   0  0  0  0  0  0  0  0  0  0  0  0
   29.3278   13.3357    0.0000 C   0  0  0  0  0  0  0  0  0  0  0  0
   28.8698   11.9073    0.0000 C   0  0  0  0  0  0  0  0  0  0  0  0
   28.3025   10.5188    0.0000 C   0  0  0  0  0  0  0  0  0  0  0  0
   27.6293    9.1783    0.0000 C   0  0  0  0  0  0  0  0  0  0  0  0
   26.8543    7.8941    0.0000 C   0  0  0  0  0  0  0  0  0  0  0  0
   25.9820    6.6737    0.0000 C   0  0  0  0  0  0  0  0  0  0  0  0
   25.0178    5.5247    0.0000 C   0  0  0  0  0  0  0  0  0  0  0  0
   23.9675    4.4538    0.0000 C   0  0  0  0  0  0  0  0  0  0  0  0
   22.8374    3.4675    0.0000 C   0  0  0  0  0  0  0  0  0  0  0  0
   21.6342    2.5717    0.0000 C   0  0  0  0  0  0  0  0  0  0  0  0
   20.3652    1.7719    0.0000 C   0  0  0  0  0  0  0  0  0  0  0  0
   19.0381    1.0729    0.0000 C   0  0  0  0  0  0  0  0  0  0  0  0
   17.6607    0.4788    0.0000 C   0  0  0  0  0  0  0  0  0  0  0  0
   16.2415   -0.0068    0.0000 C   0  0  0  0  0  0  0  0  0  0  0  0
   14.7889   -0.3810    0.0000 C   0  0  0  0  0  0  0  0  0  0  0  0
   13.3117   -0.6415    0.0000 C   0  0  0  0  0  0  0  0  0  0  0  0
   11.8188   -0.7867    0.0000 C   0  0  0  0  0  0  0  0  0  0  0  0
   10.3190   -0.8158    0.0000 C   0  0  0  0  0  0  0  0  0  0  0  0
    8.8216   -0.7286    0.0000 C   0  0  0  0  0  0  0  0  0  0  0  0
    7.3354   -0.5256    0.0000 C   0  0  0  0  0  0  0  0  0  0  0  0
    5.8694   -0.2080    0.0000 C   0  0  0  0  0  0  0  0  0  0  0  0
    4.4324    0.2222    0.0000 C   0  0  0  0  0  0  0  0  0  0  0  0
    3.0331    0.7625    0.0000 C   0  0  0  0  0  0  0  0  0  0  0  0
    1.6798    1.4095    0.0000 C   0  0  0  0  0  0  0  0  0  0  0  0
    2.1929    0.0000    0.0000 C   0  0  0  0  0  0  0  0  0  0  0  0
    1.6798   -1.4095    0.0000 C   0  0  0  0  0  0  0  0  0  0  0  0
    0.3808   -2.1595    0.0000 C   0  0  0  0  0  0  0  0  0  0  0  0
   -1.0964   -1.8991    0.0000 C   0  0  0  0  0  0  0  0  0  0  0  0
   -2.0606   -0.7500    0.0000 C   0  0  0  0  0  0  0  0  0  0  0  0
   -2.0606    0.7500    0.0000 C   0  0  0  0  0  0  0  0  0  0  0  0
   -1.0964    1.8991    0.0000 C   0  0  0  0  0  0  0  0  0  0  0  0
    0.3808    2.1595    0.0000 C   0  0  0  0  0  0  0  0  0  0  0  0
  1  2  1  0
  2  3  1  0
  3  4  1  0
  4  5  1  0
  5  6  1  0
  6  7  1  0
  7  8  1  0
  8  9  1  0
  9 10  1  0
 10 11  1  0
 11 12  1  0
 12 13  1  0
 13 14  1  0
 14 15  1  0
 15 16  1  0
 16 17  1  0
 17 18  1  0
 18 19  1  0
 19 20  1  0
 20 21  1  0
 21 22  1  0
 22 23  1  0
 23 24  1  0
 24 25  1  0
 25 26  1  0
 26 27  1  0
 27 28  1  0
 28 29  1  0
 29 30  1  0
 30 31  1  0
 31 32  1  0
 32 33  1  0
 33 34  1  0
 34 35  1  0
 35 36  1  0
 36 37  1  0
 37 38  1  0
 38 39  1  0
 39 40  1  0
 40 41  1  0
 41 42  1  0
 42 43  1  0
 43 44  1  0
 44 45  1  0
 45 46  1  0
 46 47  1  0
 47 48  1  0
 48 49  1  0
 49 50  1  0
 50 51  1  0
 51 52  1  0
 52 53  1  0
 53 54  1  0
 54 55  1  0
 55 56  1  0
 56 57  1  0
 57 58  1  0
 58 59  1  0
 59 60  1  0
 60 61  1  0
 61 62  1  0
 62 63  1  0
 63 64  1  0
 64 65  1  0
 65 66  1  0
 66 67  1  0
 67 68  1  0
 68 69  1  0
 69 70  1  0
 70 71  1  0
 71 72  1  0
 72 73  1  0
 73 74  1  0
 74 75  1  0
 75 76  1  0
 76 77  1  0
 77 78  1  0
 78 79  1  0
 79 80  1  0
 80 81  1  0
 81 82  1  0
 82 83  1  0
 83 84  1  0
 84 85  2  0
 85 86  1  0
 86 87  2  0
 87 88  1  0
 88 89  2  0
 89  2  1  0
 89 81  1  0
M  END
>  <Title>  (825) 
idABDUgen13

$$$$

     RDKit          2D

  4  3  0  0  0  0  0  0  0  0999 V2000
    0.0000    0.0000    0.0000 C   0  0  0  0  0  0  0  0  0  0  0  0
    1.2990    0.7500    0.0000 C   0  0  0  0  0  0  0  0  0  0  0  0
    2.5981   -0.0000    0.0000 C   0  0  0  0  0  0  0  0  0  0  0  0
    1.2990    2.2500    0.0000 C   0  0  0  0  0  0  0  0  0  0  0  0
  1  2  1  0
  2  3  1  0
  2  4  1  0
M  END
>  <Title>  (826) 
idABDVgen13

$$$$

     RDKit          2D

  4  3  0  0  0  0  0  0  0  0999 V2000
    0.0000    0.0000    0.0000 C   0  0  0  0  0  0  0  0  0  0  0  0
    1.2990    0.7500    0.0000 N   0  0  0  0  0  0  0  0  0  0  0  0
    2.5981   -0.0000    0.0000 C   0  0  0  0  0  0  0  0  0  0  0  0
    1.2990    2.2500    0.0000 C   0  0  0  0  0  0  0  0  0  0  0  0
  1  2  1  0
  2  3  1  0
  2  4  1  0
M  END
>  <Title>  (827) 
idABDWgen13

$$$$

     RDKit          2D

 47 46  0  0  0  0  0  0  0  0999 V2000
    0.0000    0.0000    0.0000 C   0  0  0  0  0  0  0  0  0  0  0  0
   -0.0000   -1.5000    0.0000 C   0  0  0  0  0  0  0  0  0  0  0  0
   -0.0000   -3.0000    0.0000 C   0  0  0  0  0  0  0  0  0  0  0  0
   -0.0000   -4.5000    0.0000 C   0  0  0  0  0  0  0  0  0  0  0  0
   -0.0000   -6.0000    0.0000 C   0  0  0  0  0  0  0  0  0  0  0  0
   -0.0000   -7.5000    0.0000 C   0  0  0  0  0  0  0  0  0  0  0  0
   -0.0000   -9.0000    0.0000 C   0  0  0  0  0  0  0  0  0  0  0  0
   -0.0000  -10.5000    0.0000 C   0  0  0  0  0  0  0  0  0  0  0  0
   -0.0000  -12.0000    0.0000 C   0  0  0  0  0  0  0  0  0  0  0  0
   -0.0000  -13.5000    0.0000 C   0  0  0  0  0  0  0  0  0  0  0  0
   -0.0000  -15.0000    0.0000 C   0  0  0  0  0  0  0  0  0  0  0  0
   -0.0000  -16.5000    0.0000 C   0  0  0  0  0  0  0  0  0  0  0  0
   -0.0000  -18.0000    0.0000 C   0  0  0  0  0  0  0  0  0  0  0  0
   -0.0000  -19.5000    0.0000 C   0  0  0  0  0  0  0  0  0  0  0  0
   -0.0000  -21.0000    0.0000 C   0  0  0  0  0  0  0  0  0  0  0  0
   -0.0000  -22.5000    0.0000 C   0  0  0  0  0  0  0  0  0  0  0  0
   -0.0000  -24.0000    0.0000 C   0  0  0  0  0  0  0  0  0  0  0  0
   -0.0000  -25.5000    0.0000 C   0  0  0  0  0  0  0  0  0  0  0  0
   -0.0000  -27.0000    0.0000 C   0  0  0  0  0  0  0  0  0  0  0  0
   -0.0000  -28.5000    0.0000 C   0  0  0  0  0  0  0  0  0  0  0  0
   -0.0000  -30.0000    0.0000 C   0  0  0  0  0  0  0  0  0  0  0  0
   -0.0000  -31.5000    0.0000 C   0  0  0  0  0  0  0  0  0  0  0  0
   -0.0000  -33.0000    0.0000 C   0  0  0  0  0  0  0  0  0  0  0  0
   -0.0000  -34.5000    0.0000 C   0  0  0  0  0  0  0  0  0  0  0  0
   -0.0000  -36.0000    0.0000 C   0  0  0  0  0  0  0  0  0  0  0  0
   -0.0000  -37.5000    0.0000 C   0  0  0  0  0  0  0  0  0  0  0  0
   -0.0000  -39.0000    0.0000 C   0  0  0  0  0  0  0  0  0  0  0  0
   -0.0000  -40.5000    0.0000 C   0  0  0  0  0  0  0  0  0  0  0  0
   -0.0000  -42.0000    0.0000 C   0  0  0  0  0  0  0  0  0  0  0  0
   -0.0000  -43.5000    0.0000 C   0  0  0  0  0  0  0  0  0  0  0  0
   -0.0000  -45.0000    0.0000 C   0  0  0  0  0  0  0  0  0  0  0  0
   -0.0000  -46.5000    0.0000 C   0  0  0  0  0  0  0  0  0  0  0  0
   -0.0000  -48.0000    0.0000 C   0  0  0  0  0  0  0  0  0  0  0  0
   -0.0000  -49.5000    0.0000 C   0  0  0  0  0  0  0  0  0  0  0  0
   -0.0000  -51.0000    0.0000 C   0  0  0  0  0  0  0  0  0  0  0  0
   -0.0000  -52.5000    0.0000 C   0  0  0  0  0  0  0  0  0  0  0  0
   -0.0000  -54.0000    0.0000 C   0  0  0  0  0  0  0  0  0  0  0  0
   -0.0000  -55.5000    0.0000 C   0  0  0  0  0  0  0  0  0  0  0  0
   -0.0000  -57.0000    0.0000 C   0  0  0  0  0  0  0  0  0  0  0  0
   -0.0000  -58.5000    0.0000 C   0  0  0  0  0  0  0  0  0  0  0  0
   -0.0000  -60.0000    0.0000 C   0  0  0  0  0  0  0  0  0  0  0  0
   -0.0000  -61.5000    0.0000 C   0  0  0  0  0  0  0  0  0  0  0  0
   -0.0000  -63.0000    0.0000 C   0  0  0  0  0  0  0  0  0  0  0  0
   -0.0000  -64.5000    0.0000 C   0  0  0  0  0  0  0  0  0  0  0  0
   -0.0000  -66.0000    0.0000 C   0  0  0  0  0  0  0  0  0  0  0  0
    1.2990  -66.7500    0.0000 C   0  0  0  0  0  0  0  0  0  0  0  0
   -1.2990  -66.7500    0.0000 C   0  0  0  0  0  0  0  0  0  0  0  0
  1  2  3  0
  2  3  1  0
  3  4  3  0
  4  5  1  0
  5  6  3  0
  6  7  1  0
  7  8  3  0
  8  9  1  0
  9 10  3  0
 10 11  1  0
 11 12  3  0
 12 13  1  0
 13 14  3  0
 14 15  1  0
 15 16  3  0
 16 17  1  0
 17 18  3  0
 18 19  1  0
 19 20  3  0
 20 21  1  0
 21 22  3  0
 22 23  1  0
 23 24  3  0
 24 25  1  0
 25 26  3  0
 26 27  1  0
 27 28  3  0
 28 29  1  0
 29 30  3  0
 30 31  1  0
 31 32  3  0
 32 33  1  0
 33 34  3  0
 34 35  1  0
 35 36  3  0
 36 37  1  0
 37 38  3  0
 38 39  1  0
 39 40  3  0
 40 41  1  0
 41 42  3  0
 42 43  1  0
 43 44  3  0
 44 45  1  0
 45 46  1  0
 45 47  1  0
M  END
>  <Title>  (828) 
idABDXgen13

$$$$

     RDKit          2D

 44 50  0  0  0  0  0  0  0  0999 V2000
   -1.3240   -6.3062    0.0000 C   0  0  0  0  0  0  0  0  0  0  0  0
   -0.7500   -4.9204    0.0000 C   0  0  0  0  0  0  0  0  0  0  0  0
    0.7500   -4.9204    0.0000 C   0  0  0  0  0  0  0  0  0  0  0  0
    1.8107   -3.8597    0.0000 C   0  0  0  0  0  0  0  0  0  0  0  0
    1.8107   -2.3597    0.0000 C   0  0  0  0  0  0  0  0  0  0  0  0
    3.1965   -1.7857    0.0000 C   0  0  0  0  0  0  0  0  0  0  0  0
    3.3923   -0.2985    0.0000 O   0  0  0  0  0  0  0  0  0  0  0  0
    4.3865   -2.6988    0.0000 N   0  0  0  0  0  0  0  0  0  0  0  0
    5.7723   -2.1248    0.0000 C   0  0  0  0  0  0  0  0  0  0  0  0
    6.1225   -0.6662    0.0000 N   0  0  0  0  0  0  0  0  0  0  0  0
    7.6179   -0.5485    0.0000 N   0  0  0  0  0  0  0  0  0  0  0  0
    8.1919   -1.9344    0.0000 N   0  0  0  0  0  0  0  0  0  0  0  0
    7.0513   -2.9085    0.0000 N   0  0  0  0  0  0  0  0  0  0  0  0
    7.1690   -4.4039    0.0000 N   0  0  0  0  0  0  0  0  0  0  0  0
    5.9328   -5.2535    0.0000 C   0  0  0  0  0  0  0  0  0  0  0  0
    6.0505   -6.7489    0.0000 C   0  0  0  0  0  0  0  0  0  0  0  0
    7.4044   -7.3947    0.0000 N   0  0  0  0  0  0  0  0  0  0  0  0
    7.5220   -8.8900    0.0000 C   0  0  0  0  0  0  0  0  0  0  0  0
    8.8759   -9.5358    0.0000 O   0  0  0  0  0  0  0  0  0  0  0  0
    6.2859   -9.7397    0.0000 N   0  0  0  0  0  0  0  0  0  0  0  0
    6.4035  -11.2350    0.0000 C   0  0  0  0  0  0  0  0  0  0  0  0
    5.1674  -12.0846    0.0000 N   0  0  0  0  0  0  0  0  0  0  0  0
    5.2850  -13.5800    0.0000 N   0  0  0  0  0  0  0  0  0  0  0  0
    6.6389  -14.2258    0.0000 N   0  0  0  0  0  0  0  0  0  0  0  0
    7.8751  -13.3762    0.0000 N   0  0  0  0  0  0  0  0  0  0  0  0
    7.7574  -11.8808    0.0000 N   0  0  0  0  0  0  0  0  0  0  0  0
    8.6405   -6.5451    0.0000 C   0  0  0  0  0  0  0  0  0  0  0  0
    9.9944   -7.1908    0.0000 C   0  0  0  0  0  0  0  0  0  0  0  0
   11.2306   -6.3412    0.0000 C   0  0  0  0  0  0  0  0  0  0  0  0
   11.1129   -4.8458    0.0000 C   0  0  0  0  0  0  0  0  0  0  0  0
    9.7590   -4.2001    0.0000 C   0  0  0  0  0  0  0  0  0  0  0  0
    8.5229   -5.0497    0.0000 C   0  0  0  0  0  0  0  0  0  0  0  0
    0.7500   -1.2990    0.0000 C   0  0  0  0  0  0  0  0  0  0  0  0
    1.5000    0.0000    0.0000 C   0  0  0  0  0  0  0  0  0  0  0  0
    0.7500    1.2990    0.0000 C   0  0  0  0  0  0  0  0  0  0  0  0
   -0.7500    1.2990    0.0000 C   0  0  0  0  0  0  0  0  0  0  0  0
   -1.5000    0.0000    0.0000 C   0  0  0  0  0  0  0  0  0  0  0  0
   -0.7500   -1.2990    0.0000 C   0  0  0  0  0  0  0  0  0  0  0  0
   -1.8107   -2.3597    0.0000 C   0  0  0  0  0  0  0  0  0  0  0  0
   -3.1097   -1.6097    0.0000 C   0  0  0  0  0  0  0  0  0  0  0  0
   -4.4087   -2.3597    0.0000 C   0  0  0  0  0  0  0  0  0  0  0  0
   -4.4087   -3.8597    0.0000 C   0  0  0  0  0  0  0  0  0  0  0  0
   -3.1097   -4.6097    0.0000 C   0  0  0  0  0  0  0  0  0  0  0  0
   -1.8107   -3.8597    0.0000 C   0  0  0  0  0  0  0  0  0  0  0  0
  1  2  1  0
  2  3  2  0
  3  4  1  0
  4  5  2  0
  5  6  1  0
  6  7  2  0
  6  8  1  0
  8  9  1  0
  9 10  2  0
 10 11  1  0
 11 12  2  0
 12 13  1  0
 13 14  1  0
 14 15  1  0
 15 16  1  0
 16 17  1  0
 17 18  1  0
 18 19  2  0
 18 20  1  0
 20 21  1  0
 21 22  2  0
 22 23  1  0
 23 24  2  0
 24 25  1  0
 25 26  2  0
 17 27  1  0
 27 28  2  0
 28 29  1  0
 29 30  2  0
 30 31  1  0
 31 32  2  0
  5 33  1  0
 33 34  2  0
 34 35  1  0
 35 36  2  0
 36 37  1  0
 37 38  2  0
 38 39  1  0
 39 40  2  0
 40 41  1  0
 41 42  2  0
 42 43  1  0
 43 44  2  0
 44  2  1  0
 13  9  1  0
 32 14  1  0
 38 33  1  0
 44 39  1  0
 26 21  1  0
 32 27  1  0
M  END
>  <Title>  (829) 
idABDYgen13

$$$$

     RDKit          2D

 99103  0  0  0  0  0  0  0  0999 V2000
  -11.4589   -3.1710    0.0000 C   0  0  0  0  0  0  0  0  0  0  0  0
  -10.6435   -4.4300    0.0000 C   0  0  0  0  0  0  0  0  0  0  0  0
  -11.8704   -5.2930    0.0000 C   0  0  0  0  0  0  0  0  0  0  0  0
  -13.0276   -6.2474    0.0000 C   0  0  0  0  0  0  0  0  0  0  0  0
  -14.1084   -7.2875    0.0000 C   0  0  0  0  0  0  0  0  0  0  0  0
  -15.1064   -8.4074    0.0000 C   0  0  0  0  0  0  0  0  0  0  0  0
  -16.0158   -9.6003    0.0000 C   0  0  0  0  0  0  0  0  0  0  0  0
  -16.8311  -10.8593    0.0000 C   0  0  0  0  0  0  0  0  0  0  0  0
  -17.5477  -12.1771    0.0000 C   0  0  0  0  0  0  0  0  0  0  0  0
  -18.1613  -13.5459    0.0000 C   0  0  0  0  0  0  0  0  0  0  0  0
  -18.6683  -14.9576    0.0000 C   0  0  0  0  0  0  0  0  0  0  0  0
  -19.0658  -16.4040    0.0000 C   0  0  0  0  0  0  0  0  0  0  0  0
  -19.3514  -17.8765    0.0000 C   0  0  0  0  0  0  0  0  0  0  0  0
  -19.5234  -19.3666    0.0000 C   0  0  0  0  0  0  0  0  0  0  0  0
  -19.5808  -20.8655    0.0000 C   0  0  0  0  0  0  0  0  0  0  0  0
  -19.5234  -22.3644    0.0000 C   0  0  0  0  0  0  0  0  0  0  0  0
  -19.3514  -23.8545    0.0000 C   0  0  0  0  0  0  0  0  0  0  0  0
  -19.0658  -25.3271    0.0000 C   0  0  0  0  0  0  0  0  0  0  0  0
  -18.6683  -26.7735    0.0000 C   0  0  0  0  0  0  0  0  0  0  0  0
  -18.1613  -28.1852    0.0000 C   0  0  0  0  0  0  0  0  0  0  0  0
  -17.5477  -29.5539    0.0000 C   0  0  0  0  0  0  0  0  0  0  0  0
  -16.8311  -30.8717    0.0000 C   0  0  0  0  0  0  0  0  0  0  0  0
  -16.0158  -32.1307    0.0000 C   0  0  0  0  0  0  0  0  0  0  0  0
  -15.1064  -33.3237    0.0000 C   0  0  0  0  0  0  0  0  0  0  0  0
  -14.1084  -34.4435    0.0000 C   0  0  0  0  0  0  0  0  0  0  0  0
  -13.0276  -35.4837    0.0000 C   0  0  0  0  0  0  0  0  0  0  0  0
  -11.8704  -36.4380    0.0000 C   0  0  0  0  0  0  0  0  0  0  0  0
  -10.6435  -37.3010    0.0000 C   0  0  0  0  0  0  0  0  0  0  0  0
   -9.3542  -38.0675    0.0000 C   0  0  0  0  0  0  0  0  0  0  0  0
   -8.0099  -38.7331    0.0000 C   0  0  0  0  0  0  0  0  0  0  0  0
   -6.6187  -39.2938    0.0000 C   0  0  0  0  0  0  0  0  0  0  0  0
   -5.1886  -39.7464    0.0000 C   0  0  0  0  0  0  0  0  0  0  0  0
   -3.7280  -40.0882    0.0000 C   0  0  0  0  0  0  0  0  0  0  0  0
   -2.2456  -40.3172    0.0000 C   0  0  0  0  0  0  0  0  0  0  0  0
   -0.7500  -40.4320    0.0000 C   0  0  0  0  0  0  0  0  0  0  0  0
    0.7500  -40.4320    0.0000 C   0  0  0  0  0  0  0  0  0  0  0  0
    2.2456  -40.3172    0.0000 C   0  0  0  0  0  0  0  0  0  0  0  0
    3.7280  -40.0882    0.0000 C   0  0  0  0  0  0  0  0  0  0  0  0
    5.1886  -39.7464    0.0000 C   0  0  0  0  0  0  0  0  0  0  0  0
    6.6187  -39.2938    0.0000 C   0  0  0  0  0  0  0  0  0  0  0  0
    8.0099  -38.7331    0.0000 C   0  0  0  0  0  0  0  0  0  0  0  0
    9.3542  -38.0675    0.0000 C   0  0  0  0  0  0  0  0  0  0  0  0
   10.6435  -37.3010    0.0000 C   0  0  0  0  0  0  0  0  0  0  0  0
   11.8704  -36.4380    0.0000 C   0  0  0  0  0  0  0  0  0  0  0  0
   13.0276  -35.4837    0.0000 C   0  0  0  0  0  0  0  0  0  0  0  0
   14.1084  -34.4435    0.0000 C   0  0  0  0  0  0  0  0  0  0  0  0
   15.1064  -33.3237    0.0000 C   0  0  0  0  0  0  0  0  0  0  0  0
   16.0158  -32.1307    0.0000 C   0  0  0  0  0  0  0  0  0  0  0  0
   16.8311  -30.8717    0.0000 C   0  0  0  0  0  0  0  0  0  0  0  0
   17.5477  -29.5539    0.0000 C   0  0  0  0  0  0  0  0  0  0  0  0
   18.1613  -28.1852    0.0000 C   0  0  0  0  0  0  0  0  0  0  0  0
   18.6683  -26.7735    0.0000 C   0  0  0  0  0  0  0  0  0  0  0  0
   19.0658  -25.3271    0.0000 C   0  0  0  0  0  0  0  0  0  0  0  0
   19.3514  -23.8545    0.0000 C   0  0  0  0  0  0  0  0  0  0  0  0
   19.5234  -22.3644    0.0000 C   0  0  0  0  0  0  0  0  0  0  0  0
   19.5808  -20.8655    0.0000 C   0  0  0  0  0  0  0  0  0  0  0  0
   19.5234  -19.3666    0.0000 C   0  0  0  0  0  0  0  0  0  0  0  0
   19.3514  -17.8765    0.0000 C   0  0  0  0  0  0  0  0  0  0  0  0
   19.0658  -16.4040    0.0000 C   0  0  0  0  0  0  0  0  0  0  0  0
   18.6683  -14.9576    0.0000 C   0  0  0  0  0  0  0  0  0  0  0  0
   18.1613  -13.5459    0.0000 C   0  0  0  0  0  0  0  0  0  0  0  0
   17.5477  -12.1771    0.0000 C   0  0  0  0  0  0  0  0  0  0  0  0
   16.8311  -10.8593    0.0000 C   0  0  0  0  0  0  0  0  0  0  0  0
   16.0158   -9.6003    0.0000 C   0  0  0  0  0  0  0  0  0  0  0  0
   15.1064   -8.4074    0.0000 C   0  0  0  0  0  0  0  0  0  0  0  0
   14.1084   -7.2875    0.0000 C   0  0  0  0  0  0  0  0  0  0  0  0
   13.0276   -6.2474    0.0000 C   0  0  0  0  0  0  0  0  0  0  0  0
   11.8704   -5.2930    0.0000 C   0  0  0  0  0  0  0  0  0  0  0  0
   10.6435   -4.4300    0.0000 C   0  0  0  0  0  0  0  0  0  0  0  0
    9.3542   -3.6635    0.0000 C   0  0  0  0  0  0  0  0  0  0  0  0
    8.0099   -2.9979    0.0000 C   0  0  0  0  0  0  0  0  0  0  0  0
    6.6187   -2.4372    0.0000 C   0  0  0  0  0  0  0  0  0  0  0  0
    5.1886   -1.9846    0.0000 C   0  0  0  0  0  0  0  0  0  0  0  0
    3.7280   -1.6428    0.0000 C   0  0  0  0  0  0  0  0  0  0  0  0
    2.2456   -1.4139    0.0000 C   0  0  0  0  0  0  0  0  0  0  0  0
    0.7500   -1.2990    0.0000 C   0  0  0  0  0  0  0  0  0  0  0  0
    1.5000    0.0000    0.0000 C   0  0  0  0  0  0  0  0  0  0  0  0
    0.7500    1.2990    0.0000 C   0  0  0  0  0  0  0  0  0  0  0  0
   -0.7500    1.2990    0.0000 C   0  0  0  0  0  0  0  0  0  0  0  0
   -1.5000    0.0000    0.0000 C   0  0  0  0  0  0  0  0  0  0  0  0
   -0.7500   -1.2990    0.0000 C   0  0  0  0  0  0  0  0  0  0  0  0
   -2.2456   -1.4139    0.0000 C   0  0  0  0  0  0  0  0  0  0  0  0
   -1.3061   -2.5832    0.0000 C   0  0  0  0  0  0  0  0  0  0  0  0
   -1.8490   -3.9815    0.0000 C   0  0  0  0  0  0  0  0  0  0  0  0
   -3.3314   -4.2105    0.0000 C   0  0  0  0  0  0  0  0  0  0  0  0
   -4.2709   -3.0411    0.0000 C   0  0  0  0  0  0  0  0  0  0  0  0
   -3.7280   -1.6428    0.0000 C   0  0  0  0  0  0  0  0  0  0  0  0
   -5.1886   -1.9846    0.0000 C   0  0  0  0  0  0  0  0  0  0  0  0
   -4.8655   -0.5198    0.0000 C   0  0  0  0  0  0  0  0  0  0  0  0
   -5.9725    0.4924    0.0000 C   0  0  0  0  0  0  0  0  0  0  0  0
   -7.4026    0.0398    0.0000 C   0  0  0  0  0  0  0  0  0  0  0  0
   -7.7257   -1.4250    0.0000 C   0  0  0  0  0  0  0  0  0  0  0  0
   -6.6187   -2.4372    0.0000 C   0  0  0  0  0  0  0  0  0  0  0  0
   -8.0099   -2.9979    0.0000 C   0  0  0  0  0  0  0  0  0  0  0  0
   -6.7614   -3.8293    0.0000 C   0  0  0  0  0  0  0  0  0  0  0  0
   -6.8571   -5.3262    0.0000 C   0  0  0  0  0  0  0  0  0  0  0  0
   -8.2013   -5.9918    0.0000 C   0  0  0  0  0  0  0  0  0  0  0  0
   -9.4499   -5.1604    0.0000 C   0  0  0  0  0  0  0  0  0  0  0  0
   -9.3542   -3.6635    0.0000 C   0  0  0  0  0  0  0  0  0  0  0  0
  1  2  1  0
  2  3  1  0
  3  4  1  0
  4  5  1  0
  5  6  1  0
  6  7  1  0
  7  8  1  0
  8  9  1  0
  9 10  1  0
 10 11  1  0
 11 12  1  0
 12 13  1  0
 13 14  1  0
 14 15  1  0
 15 16  1  0
 16 17  1  0
 17 18  1  0
 18 19  1  0
 19 20  1  0
 20 21  1  0
 21 22  1  0
 22 23  1  0
 23 24  1  0
 24 25  1  0
 25 26  1  0
 26 27  1  0
 27 28  1  0
 28 29  1  0
 29 30  1  0
 30 31  1  0
 31 32  1  0
 32 33  1  0
 33 34  1  0
 34 35  1  0
 35 36  1  0
 36 37  1  0
 37 38  1  0
 38 39  1  0
 39 40  1  0
 40 41  1  0
 41 42  1  0
 42 43  1  0
 43 44  1  0
 44 45  1  0
 45 46  1  0
 46 47  1  0
 47 48  1  0
 48 49  1  0
 49 50  1  0
 50 51  1  0
 51 52  1  0
 52 53  1  0
 53 54  1  0
 54 55  1  0
 55 56  1  0
 56 57  1  0
 57 58  1  0
 58 59  1  0
 59 60  1  0
 60 61  1  0
 61 62  1  0
 62 63  1  0
 63 64  1  0
 64 65  1  0
 65 66  1  0
 66 67  1  0
 67 68  1  0
 68 69  1  0
 69 70  1  0
 70 71  1  0
 71 72  1  0
 72 73  1  0
 73 74  1  0
 74 75  1  0
 75 76  1  0
 76 77  1  0
 77 78  1  0
 78 79  2  0
 79 80  1  0
 80 81  2  0
 81 82  1  0
 82 83  2  0
 83 84  1  0
 84 85  2  0
 85 86  1  0
 86 87  2  0
 87 88  1  0
 88 89  2  0
 89 90  1  0
 90 91  2  0
 91 92  1  0
 92 93  2  0
 93 94  1  0
 94 95  2  0
 95 96  1  0
 96 97  2  0
 97 98  1  0
 98 99  2  0
 99  2  1  0
 81 76  1  0
 87 82  1  0
 93 88  1  0
 99 94  1  0
M  END
>  <Title>  (830) 
idABDZgen13

$$$$

     RDKit          2D

 85 86  0  0  0  0  0  0  0  0999 V2000
   -2.1957   -1.0723    0.0000 C   0  0  0  0  0  0  0  0  0  0  0  0
   -2.4905    0.3984    0.0000 C   0  0  0  0  0  0  0  0  0  0  0  0
   -3.9716    0.1609    0.0000 C   0  0  0  0  0  0  0  0  0  0  0  0
   -5.4666    0.0389    0.0000 C   0  0  0  0  0  0  0  0  0  0  0  0
   -6.9666    0.0330    0.0000 C   0  0  0  0  0  0  0  0  0  0  0  0
   -8.4625    0.1435    0.0000 C   0  0  0  0  0  0  0  0  0  0  0  0
   -9.9454    0.3695    0.0000 C   0  0  0  0  0  0  0  0  0  0  0  0
  -11.4063    0.7098    0.0000 C   0  0  0  0  0  0  0  0  0  0  0  0
  -12.8364    1.1622    0.0000 C   0  0  0  0  0  0  0  0  0  0  0  0
  -14.2272    1.7241    0.0000 C   0  0  0  0  0  0  0  0  0  0  0  0
  -15.5703    2.3921    0.0000 C   0  0  0  0  0  0  0  0  0  0  0  0
  -16.8575    3.1622    0.0000 C   0  0  0  0  0  0  0  0  0  0  0  0
  -18.0812    4.0297    0.0000 C   0  0  0  0  0  0  0  0  0  0  0  0
  -19.2340    4.9894    0.0000 C   0  0  0  0  0  0  0  0  0  0  0  0
  -20.3090    6.0356    0.0000 C   0  0  0  0  0  0  0  0  0  0  0  0
  -21.2996    7.1619    0.0000 C   0  0  0  0  0  0  0  0  0  0  0  0
  -22.2000    8.3616    0.0000 C   0  0  0  0  0  0  0  0  0  0  0  0
  -23.0047    9.6274    0.0000 C   0  0  0  0  0  0  0  0  0  0  0  0
  -23.7089   10.9519    0.0000 C   0  0  0  0  0  0  0  0  0  0  0  0
  -24.3084   12.3269    0.0000 C   0  0  0  0  0  0  0  0  0  0  0  0
  -24.7995   13.7442    0.0000 C   0  0  0  0  0  0  0  0  0  0  0  0
  -25.1793   15.1953    0.0000 C   0  0  0  0  0  0  0  0  0  0  0  0
  -25.4455   16.6715    0.0000 C   0  0  0  0  0  0  0  0  0  0  0  0
  -25.5965   18.1639    0.0000 C   0  0  0  0  0  0  0  0  0  0  0  0
  -25.6314   19.6635    0.0000 C   0  0  0  0  0  0  0  0  0  0  0  0
  -25.5500   21.1613    0.0000 C   0  0  0  0  0  0  0  0  0  0  0  0
  -25.3528   22.6483    0.0000 C   0  0  0  0  0  0  0  0  0  0  0  0
  -25.0409   24.1155    0.0000 C   0  0  0  0  0  0  0  0  0  0  0  0
  -24.6163   25.5541    0.0000 C   0  0  0  0  0  0  0  0  0  0  0  0
  -24.0814   26.9555    0.0000 C   0  0  0  0  0  0  0  0  0  0  0  0
  -23.4396   28.3113    0.0000 C   0  0  0  0  0  0  0  0  0  0  0  0
  -22.6947   29.6132    0.0000 C   0  0  0  0  0  0  0  0  0  0  0  0
  -21.8510   30.8535    0.0000 C   0  0  0  0  0  0  0  0  0  0  0  0
  -20.9139   32.0247    0.0000 C   0  0  0  0  0  0  0  0  0  0  0  0
  -19.8887   33.1197    0.0000 C   0  0  0  0  0  0  0  0  0  0  0  0
  -18.7818   34.1321    0.0000 C   0  0  0  0  0  0  0  0  0  0  0  0
  -17.5998   35.0556    0.0000 C   0  0  0  0  0  0  0  0  0  0  0  0
  -16.3498   35.8847    0.0000 C   0  0  0  0  0  0  0  0  0  0  0  0
  -15.0393   36.6144    0.0000 C   0  0  0  0  0  0  0  0  0  0  0  0
  -13.6762   37.2404    0.0000 C   0  0  0  0  0  0  0  0  0  0  0  0
  -12.2686   37.7589    0.0000 C   0  0  0  0  0  0  0  0  0  0  0  0
  -10.8251   38.1668    0.0000 C   0  0  0  0  0  0  0  0  0  0  0  0
   -9.3544   38.4616    0.0000 C   0  0  0  0  0  0  0  0  0  0  0  0
   -7.8652   38.6415    0.0000 C   0  0  0  0  0  0  0  0  0  0  0  0
   -6.3666   38.7055    0.0000 C   0  0  0  0  0  0  0  0  0  0  0  0
   -4.8675   38.6531    0.0000 C   0  0  0  0  0  0  0  0  0  0  0  0
   -3.3770   38.4847    0.0000 C   0  0  0  0  0  0  0  0  0  0  0  0
   -1.9040   38.2014    0.0000 C   0  0  0  0  0  0  0  0  0  0  0  0
   -0.4574   37.8047    0.0000 C   0  0  0  0  0  0  0  0  0  0  0  0
    0.9541   37.2972    0.0000 C   0  0  0  0  0  0  0  0  0  0  0  0
    2.3221   36.6818    0.0000 C   0  0  0  0  0  0  0  0  0  0  0  0
    3.6382   35.9622    0.0000 C   0  0  0  0  0  0  0  0  0  0  0  0
    4.8946   35.1428    0.0000 C   0  0  0  0  0  0  0  0  0  0  0  0
    6.0838   34.2285    0.0000 C   0  0  0  0  0  0  0  0  0  0  0  0
    7.1985   33.2248    0.0000 C   0  0  0  0  0  0  0  0  0  0  0  0
    8.2321   32.1377    0.0000 C   0  0  0  0  0  0  0  0  0  0  0  0
    9.1783   30.9739    0.0000 C   0  0  0  0  0  0  0  0  0  0  0  0
   10.0315   29.7402    0.0000 C   0  0  0  0  0  0  0  0  0  0  0  0
   10.7866   28.4440    0.0000 C   0  0  0  0  0  0  0  0  0  0  0  0
   11.4389   27.0933    0.0000 C   0  0  0  0  0  0  0  0  0  0  0  0
   11.9846   25.6961    0.0000 C   0  0  0  0  0  0  0  0  0  0  0  0
   12.4204   24.2608    0.0000 C   0  0  0  0  0  0  0  0  0  0  0  0
   12.7436   22.7960    0.0000 C   0  0  0  0  0  0  0  0  0  0  0  0
   12.9524   21.3106    0.0000 C   0  0  0  0  0  0  0  0  0  0  0  0
   13.0454   19.8135    0.0000 C   0  0  0  0  0  0  0  0  0  0  0  0
   13.0221   18.3137    0.0000 C   0  0  0  0  0  0  0  0  0  0  0  0
   12.8827   16.8202    0.0000 C   0  0  0  0  0  0  0  0  0  0  0  0
   12.6279   15.3420    0.0000 C   0  0  0  0  0  0  0  0  0  0  0  0
   12.2594   13.8879    0.0000 C   0  0  0  0  0  0  0  0  0  0  0  0
   11.7793   12.4668    0.0000 C   0  0  0  0  0  0  0  0  0  0  0  0
   11.1906   11.0872    0.0000 C   0  0  0  0  0  0  0  0  0  0  0  0
   10.4966    9.7574    0.0000 C   0  0  0  0  0  0  0  0  0  0  0  0
    9.7018    8.4853    0.0000 C   0  0  0  0  0  0  0  0  0  0  0  0
    8.8107    7.2787    0.0000 C   0  0  0  0  0  0  0  0  0  0  0  0
    7.8288    6.1447    0.0000 C   0  0  0  0  0  0  0  0  0  0  0  0
    6.7620    5.0902    0.0000 C   0  0  0  0  0  0  0  0  0  0  0  0
    5.6167    4.1216    0.0000 C   0  0  0  0  0  0  0  0  0  0  0  0
    4.3997    3.2446    0.0000 C   0  0  0  0  0  0  0  0  0  0  0  0
    3.1185    2.4646    0.0000 C   0  0  0  0  0  0  0  0  0  0  0  0
    1.7807    1.7862    0.0000 C   0  0  0  0  0  0  0  0  0  0  0  0
    0.3943    1.2135    0.0000 C   0  0  0  0  0  0  0  0  0  0  0  0
    1.2760    0.0000    0.0000 C   0  0  0  0  0  0  0  0  0  0  0  0
    0.3943   -1.2135    0.0000 C   0  0  0  0  0  0  0  0  0  0  0  0
   -1.0323   -0.7500    0.0000 C   0  0  0  0  0  0  0  0  0  0  0  0
   -1.0323    0.7500    0.0000 C   0  0  0  0  0  0  0  0  0  0  0  0
  1  2  1  0
  2  3  1  0
  3  4  2  0
  4  5  1  0
  5  6  1  0
  6  7  1  0
  7  8  1  0
  8  9  1  0
  9 10  1  0
 10 11  1  0
 11 12  1  0
 12 13  1  0
 13 14  1  0
 14 15  1  0
 15 16  1  0
 16 17  1  0
 17 18  1  0
 18 19  1  0
 19 20  1  0
 20 21  1  0
 21 22  1  0
 22 23  1  0
 23 24  1  0
 24 25  1  0
 25 26  1  0
 26 27  1  0
 27 28  1  0
 28 29  1  0
 29 30  1  0
 30 31  1  0
 31 32  1  0
 32 33  1  0
 33 34  1  0
 34 35  1  0
 35 36  1  0
 36 37  1  0
 37 38  1  0
 38 39  1  0
 39 40  1  0
 40 41  1  0
 41 42  1  0
 42 43  1  0
 43 44  1  0
 44 45  1  0
 45 46  1  0
 46 47  1  0
 47 48  1  0
 48 49  1  0
 49 50  1  0
 50 51  1  0
 51 52  1  0
 52 53  1  0
 53 54  1  0
 54 55  1  0
 55 56  1  0
 56 57  1  0
 57 58  1  0
 58 59  1  0
 59 60  1  0
 60 61  1  0
 61 62  1  0
 62 63  1  0
 63 64  1  0
 64 65  1  0
 65 66  1  0
 66 67  1  0
 67 68  1  0
 68 69  1  0
 69 70  1  0
 70 71  1  0
 71 72  1  0
 72 73  1  0
 73 74  1  0
 74 75  1  0
 75 76  1  0
 76 77  2  0
 77 78  1  0
 78 79  2  0
 79 80  1  0
 80 81  2  0
 81 82  1  0
 82 83  2  0
 83 84  1  0
 84 85  2  0
 85  2  1  0
 85 81  1  0
M  END
>  <Title>  (831) 
idABEAgen13

$$$$

     RDKit          2D

 37 41  0  0  0  0  0  0  0  0999 V2000
   -3.1771   -1.2990    0.0000 C   0  0  0  0  0  0  0  0  0  0  0  0
   -1.9635   -2.1807    0.0000 C   0  0  0  0  0  0  0  0  0  0  0  0
   -2.4271   -3.6073    0.0000 C   0  0  0  0  0  0  0  0  0  0  0  0
   -1.9635   -5.0339    0.0000 C   0  0  0  0  0  0  0  0  0  0  0  0
   -0.7500   -5.9156    0.0000 C   0  0  0  0  0  0  0  0  0  0  0  0
    0.7500   -5.9156    0.0000 C   0  0  0  0  0  0  0  0  0  0  0  0
    1.9635   -5.0339    0.0000 C   0  0  0  0  0  0  0  0  0  0  0  0
    2.4271   -3.6073    0.0000 C   0  0  0  0  0  0  0  0  0  0  0  0
    1.9635   -2.1807    0.0000 C   0  0  0  0  0  0  0  0  0  0  0  0
    3.1771   -1.2990    0.0000 C   0  0  0  0  0  0  0  0  0  0  0  0
    3.0203    0.1927    0.0000 O   0  0  0  0  0  0  0  0  0  0  0  0
    4.5474   -1.9091    0.0000 N   0  0  0  0  0  0  0  0  0  0  0  0
    5.7609   -1.0275    0.0000 C   0  0  0  0  0  0  0  0  0  0  0  0
    5.7609    0.4725    0.0000 N   0  0  0  0  0  0  0  0  0  0  0  0
    7.1875    0.9361    0.0000 N   0  0  0  0  0  0  0  0  0  0  0  0
    8.0692   -0.2775    0.0000 N   0  0  0  0  0  0  0  0  0  0  0  0
    7.1875   -1.4910    0.0000 N   0  0  0  0  0  0  0  0  0  0  0  0
    7.6510   -2.9176    0.0000 C   0  0  0  0  0  0  0  0  0  0  0  0
    9.0776   -3.3811    0.0000 C   0  0  0  0  0  0  0  0  0  0  0  0
    9.0776   -4.8811    0.0000 C   0  0  0  0  0  0  0  0  0  0  0  0
    7.6510   -5.3446    0.0000 C   0  0  0  0  0  0  0  0  0  0  0  0
    7.1875   -6.7712    0.0000 O   0  0  0  0  0  0  0  0  0  0  0  0
    5.7203   -7.0831    0.0000 C   0  0  0  0  0  0  0  0  0  0  0  0
    4.7166   -5.9684    0.0000 O   0  0  0  0  0  0  0  0  0  0  0  0
    5.2567   -8.5097    0.0000 N   0  0  0  0  0  0  0  0  0  0  0  0
    6.1384   -9.7232    0.0000 C   0  0  0  0  0  0  0  0  0  0  0  0
    5.2567  -10.9367    0.0000 C   0  0  0  0  0  0  0  0  0  0  0  0
    3.8301  -10.4732    0.0000 C   0  0  0  0  0  0  0  0  0  0  0  0
    3.8301   -8.9732    0.0000 C   0  0  0  0  0  0  0  0  0  0  0  0
    6.7693   -4.1311    0.0000 C   0  0  0  0  0  0  0  0  0  0  0  0
    5.2693   -4.1311    0.0000 O   0  0  0  0  0  0  0  0  0  0  0  0
    0.7500   -1.2990    0.0000 C   0  0  0  0  0  0  0  0  0  0  0  0
    1.5000    0.0000    0.0000 C   0  0  0  0  0  0  0  0  0  0  0  0
    0.7500    1.2990    0.0000 C   0  0  0  0  0  0  0  0  0  0  0  0
   -0.7500    1.2990    0.0000 C   0  0  0  0  0  0  0  0  0  0  0  0
   -1.5000    0.0000    0.0000 C   0  0  0  0  0  0  0  0  0  0  0  0
   -0.7500   -1.2990    0.0000 C   0  0  0  0  0  0  0  0  0  0  0  0
  1  2  1  0
  2  3  1  0
  3  4  1  0
  4  5  1  0
  5  6  1  0
  6  7  1  0
  7  8  1  0
  8  9  1  0
  9 10  1  0
 10 11  2  0
 10 12  1  0
 12 13  1  0
 13 14  2  0
 14 15  1  0
 15 16  2  0
 16 17  1  0
 17 18  1  0
 18 19  2  0
 19 20  1  0
 20 21  2  0
 21 22  1  0
 22 23  1  0
 23 24  2  0
 23 25  1  0
 25 26  1  0
 26 27  2  0
 27 28  1  0
 28 29  2  0
 21 30  1  0
 30 31  2  0
  9 32  1  0
 32 33  2  0
 33 34  1  0
 34 35  2  0
 35 36  1  0
 36 37  2  0
 37  2  1  0
 17 13  1  0
 30 18  1  0
 37 32  1  0
 29 25  1  0
M  END
>  <Title>  (832) 
idABEBgen13

$$$$

     RDKit          2D

 34 38  0  0  0  0  0  0  0  0999 V2000
   -3.0000   -2.5981    0.0000 C   0  0  0  0  0  0  0  0  0  0  0  0
   -1.5000   -2.5981    0.0000 C   0  0  0  0  0  0  0  0  0  0  0  0
   -0.7500   -3.8971    0.0000 C   0  0  0  0  0  0  0  0  0  0  0  0
    0.7500   -3.8971    0.0000 N   0  0  0  0  0  0  0  0  0  0  0  0
    1.5000   -2.5981    0.0000 C   0  0  0  0  0  0  0  0  0  0  0  0
    3.0000   -2.5981    0.0000 C   0  0  0  0  0  0  0  0  0  0  0  0
    3.7500   -1.2990    0.0000 O   0  0  0  0  0  0  0  0  0  0  0  0
    3.7500   -3.8971    0.0000 N   0  0  0  0  0  0  0  0  0  0  0  0
    5.2500   -3.8971    0.0000 C   0  0  0  0  0  0  0  0  0  0  0  0
    6.1317   -2.6836    0.0000 N   0  0  0  0  0  0  0  0  0  0  0  0
    7.5583   -3.1471    0.0000 N   0  0  0  0  0  0  0  0  0  0  0  0
    7.5583   -4.6471    0.0000 N   0  0  0  0  0  0  0  0  0  0  0  0
    6.1317   -5.1106    0.0000 N   0  0  0  0  0  0  0  0  0  0  0  0
    5.6682   -6.5372    0.0000 N   0  0  0  0  0  0  0  0  0  0  0  0
    6.5498   -7.7508    0.0000 C   0  0  0  0  0  0  0  0  0  0  0  0
    5.6682   -8.9643    0.0000 C   0  0  0  0  0  0  0  0  0  0  0  0
    4.2416   -8.5008    0.0000 C   0  0  0  0  0  0  0  0  0  0  0  0
    3.0280   -9.3824    0.0000 C   0  0  0  0  0  0  0  0  0  0  0  0
    3.1848  -10.8742    0.0000 O   0  0  0  0  0  0  0  0  0  0  0  0
    1.6577   -8.7723    0.0000 N   0  0  0  0  0  0  0  0  0  0  0  0
    0.4442   -9.6540    0.0000 C   0  0  0  0  0  0  0  0  0  0  0  0
   -0.9261   -9.0439    0.0000 N   0  0  0  0  0  0  0  0  0  0  0  0
   -2.1396   -9.9256    0.0000 N   0  0  0  0  0  0  0  0  0  0  0  0
   -1.9829  -11.4174    0.0000 N   0  0  0  0  0  0  0  0  0  0  0  0
   -0.6125  -12.0275    0.0000 N   0  0  0  0  0  0  0  0  0  0  0  0
    0.6010  -11.1458    0.0000 N   0  0  0  0  0  0  0  0  0  0  0  0
    4.2416   -7.0008    0.0000 C   0  0  0  0  0  0  0  0  0  0  0  0
    3.0280   -6.1191    0.0000 O   0  0  0  0  0  0  0  0  0  0  0  0
    0.7500   -1.2990    0.0000 C   0  0  0  0  0  0  0  0  0  0  0  0
    1.5000    0.0000    0.0000 C   0  0  0  0  0  0  0  0  0  0  0  0
    0.7500    1.2990    0.0000 C   0  0  0  0  0  0  0  0  0  0  0  0
   -0.7500    1.2990    0.0000 C   0  0  0  0  0  0  0  0  0  0  0  0
   -1.5000    0.0000    0.0000 C   0  0  0  0  0  0  0  0  0  0  0  0
   -0.7500   -1.2990    0.0000 C   0  0  0  0  0  0  0  0  0  0  0  0
  1  2  1  0
  2  3  2  0
  3  4  1  0
  4  5  2  0
  5  6  1  0
  6  7  2  0
  6  8  1  0
  8  9  1  0
  9 10  2  0
 10 11  1  0
 11 12  2  0
 12 13  1  0
 13 14  1  0
 14 15  1  0
 15 16  1  0
 16 17  2  0
 17 18  1  0
 18 19  2  0
 18 20  1  0
 20 21  1  0
 21 22  2  0
 22 23  1  0
 23 24  2  0
 24 25  1  0
 25 26  2  0
 17 27  1  0
 27 28  2  0
  5 29  1  0
 29 30  2  0
 30 31  1  0
 31 32  2  0
 32 33  1  0
 33 34  2  0
 34  2  1  0
 13  9  1  0
 27 14  1  0
 34 29  1  0
 26 21  1  0
M  END
>  <Title>  (833) 
idABECgen13

$$$$

     RDKit          2D

 16 16  0  0  0  0  0  0  0  0999 V2000
   12.0000   -5.1962    0.0000 C   0  0  0  0  0  0  0  0  0  0  0  0
   10.5000   -5.1962    0.0000 C   0  0  0  0  0  0  0  0  0  0  0  0
    9.7500   -3.8971    0.0000 C   0  0  0  0  0  0  0  0  0  0  0  0
    8.2500   -3.8971    0.0000 C   0  0  0  0  0  0  0  0  0  0  0  0
    7.5000   -2.5981    0.0000 N   0  0  0  0  0  0  0  0  0  0  0  0
    6.0000   -2.5981    0.0000 C   0  0  0  0  0  0  0  0  0  0  0  0
    5.2500   -3.8971    0.0000 O   0  0  0  0  0  0  0  0  0  0  0  0
    5.2500   -1.2990    0.0000 N   0  0  0  0  0  0  0  0  0  0  0  0
    3.7500   -1.2990    0.0000 C   0  0  0  0  0  0  0  0  0  0  0  0
    3.0000    0.0000    0.0000 C   0  0  0  0  0  0  0  0  0  0  0  0
    1.5000    0.0000    0.0000 C   0  0  0  0  0  0  0  0  0  0  0  0
    0.7500   -1.2990    0.0000 C   0  0  0  0  0  0  0  0  0  0  0  0
   -0.7500   -1.2990    0.0000 C   0  0  0  0  0  0  0  0  0  0  0  0
   -1.5000    0.0000    0.0000 C   0  0  0  0  0  0  0  0  0  0  0  0
   -0.7500    1.2990    0.0000 C   0  0  0  0  0  0  0  0  0  0  0  0
    0.7500    1.2990    0.0000 C   0  0  0  0  0  0  0  0  0  0  0  0
  1  2  2  0
  2  3  1  0
  3  4  1  0
  4  5  1  0
  5  6  1  0
  6  7  2  0
  6  8  1  0
  8  9  1  0
  9 10  1  0
 10 11  1  0
 11 12  2  0
 12 13  1  0
 13 14  2  0
 14 15  1  0
 15 16  2  0
 16 11  1  0
M  END
>  <Title>  (834) 
idABEDgen13

$$$$

     RDKit          2D

 11 10  0  0  0  0  0  0  0  0999 V2000
    0.0000    0.0000    0.0000 C   0  0  0  0  0  0  0  0  0  0  0  0
    1.2990    0.7500    0.0000 C   0  0  0  0  0  0  0  0  0  0  0  0
    2.5981   -0.0000    0.0000 C   0  0  0  0  0  0  0  0  0  0  0  0
    3.8971    0.7500    0.0000 C   0  0  0  0  0  0  0  0  0  0  0  0
    5.1962   -0.0000    0.0000 N   0  0  0  0  0  0  0  0  0  0  0  0
    6.4952    0.7500    0.0000 C   0  0  0  0  0  0  0  0  0  0  0  0
    5.1962   -1.5000    0.0000 C   0  0  0  0  0  0  0  0  0  0  0  0
    3.8971   -2.2500    0.0000 O   0  0  0  0  0  0  0  0  0  0  0  0
    6.4952   -2.2500    0.0000 C   0  0  0  0  0  0  0  0  0  0  0  0
    6.4952   -3.7500    0.0000 C   0  0  0  0  0  0  0  0  0  0  0  0
    7.7942   -4.5000    0.0000 C   0  0  0  0  0  0  0  0  0  0  0  0
  1  2  2  0
  2  3  1  0
  3  4  1  0
  4  5  1  0
  5  6  1  0
  5  7  1  0
  7  8  2  0
  7  9  1  0
  9 10  1  0
 10 11  1  0
M  END
>  <Title>  (835) 
idABEEgen13

$$$$

     RDKit          2D

 82 84  0  0  0  0  0  0  0  0999 V2000
   -2.4351    0.0616    0.0000 C   0  0  0  0  0  0  0  0  0  0  0  0
   -2.2446   -1.4262    0.0000 C   0  0  0  0  0  0  0  0  0  0  0  0
   -3.7230   -1.6797    0.0000 C   0  0  0  0  0  0  0  0  0  0  0  0
   -5.1746   -2.0577    0.0000 C   0  0  0  0  0  0  0  0  0  0  0  0
   -6.5889   -2.5574    0.0000 C   0  0  0  0  0  0  0  0  0  0  0  0
   -7.9558   -3.1753    0.0000 C   0  0  0  0  0  0  0  0  0  0  0  0
   -9.2653   -3.9068    0.0000 C   0  0  0  0  0  0  0  0  0  0  0  0
  -10.5081   -4.7468    0.0000 C   0  0  0  0  0  0  0  0  0  0  0  0
  -11.6751   -5.6891    0.0000 C   0  0  0  0  0  0  0  0  0  0  0  0
  -12.7581   -6.7270    0.0000 C   0  0  0  0  0  0  0  0  0  0  0  0
  -13.7491   -7.8530    0.0000 C   0  0  0  0  0  0  0  0  0  0  0  0
  -14.6410   -9.0590    0.0000 C   0  0  0  0  0  0  0  0  0  0  0  0
  -15.4275  -10.3363    0.0000 C   0  0  0  0  0  0  0  0  0  0  0  0
  -16.1028  -11.6757    0.0000 C   0  0  0  0  0  0  0  0  0  0  0  0
  -16.6621  -13.0675    0.0000 C   0  0  0  0  0  0  0  0  0  0  0  0
  -17.1013  -14.5018    0.0000 C   0  0  0  0  0  0  0  0  0  0  0  0
  -17.4173  -15.9681    0.0000 C   0  0  0  0  0  0  0  0  0  0  0  0
  -17.6078  -17.4560    0.0000 C   0  0  0  0  0  0  0  0  0  0  0  0
  -17.6715  -18.9546    0.0000 C   0  0  0  0  0  0  0  0  0  0  0  0
  -17.6078  -20.4533    0.0000 C   0  0  0  0  0  0  0  0  0  0  0  0
  -17.4173  -21.9411    0.0000 C   0  0  0  0  0  0  0  0  0  0  0  0
  -17.1013  -23.4075    0.0000 C   0  0  0  0  0  0  0  0  0  0  0  0
  -16.6621  -24.8417    0.0000 C   0  0  0  0  0  0  0  0  0  0  0  0
  -16.1028  -26.2335    0.0000 C   0  0  0  0  0  0  0  0  0  0  0  0
  -15.4275  -27.5729    0.0000 C   0  0  0  0  0  0  0  0  0  0  0  0
  -14.6410  -28.8502    0.0000 C   0  0  0  0  0  0  0  0  0  0  0  0
  -13.7491  -30.0562    0.0000 C   0  0  0  0  0  0  0  0  0  0  0  0
  -12.7581  -31.1822    0.0000 C   0  0  0  0  0  0  0  0  0  0  0  0
  -11.6751  -32.2201    0.0000 C   0  0  0  0  0  0  0  0  0  0  0  0
  -10.5081  -33.1625    0.0000 C   0  0  0  0  0  0  0  0  0  0  0  0
   -9.2653  -34.0024    0.0000 C   0  0  0  0  0  0  0  0  0  0  0  0
   -7.9558  -34.7340    0.0000 C   0  0  0  0  0  0  0  0  0  0  0  0
   -6.5889  -35.3518    0.0000 C   0  0  0  0  0  0  0  0  0  0  0  0
   -5.1746  -35.8515    0.0000 C   0  0  0  0  0  0  0  0  0  0  0  0
   -3.7230  -36.2295    0.0000 C   0  0  0  0  0  0  0  0  0  0  0  0
   -2.2446  -36.4830    0.0000 C   0  0  0  0  0  0  0  0  0  0  0  0
   -0.7500  -36.6102    0.0000 C   0  0  0  0  0  0  0  0  0  0  0  0
    0.7500  -36.6102    0.0000 C   0  0  0  0  0  0  0  0  0  0  0  0
    2.2446  -36.4830    0.0000 C   0  0  0  0  0  0  0  0  0  0  0  0
    3.7230  -36.2295    0.0000 C   0  0  0  0  0  0  0  0  0  0  0  0
    5.1746  -35.8515    0.0000 C   0  0  0  0  0  0  0  0  0  0  0  0
    6.5889  -35.3518    0.0000 C   0  0  0  0  0  0  0  0  0  0  0  0
    7.9558  -34.7340    0.0000 C   0  0  0  0  0  0  0  0  0  0  0  0
    9.2653  -34.0024    0.0000 C   0  0  0  0  0  0  0  0  0  0  0  0
   10.5081  -33.1625    0.0000 C   0  0  0  0  0  0  0  0  0  0  0  0
   11.6751  -32.2201    0.0000 C   0  0  0  0  0  0  0  0  0  0  0  0
   12.7581  -31.1822    0.0000 C   0  0  0  0  0  0  0  0  0  0  0  0
   13.7491  -30.0562    0.0000 C   0  0  0  0  0  0  0  0  0  0  0  0
   14.6410  -28.8502    0.0000 C   0  0  0  0  0  0  0  0  0  0  0  0
   15.4275  -27.5729    0.0000 C   0  0  0  0  0  0  0  0  0  0  0  0
   16.1028  -26.2335    0.0000 C   0  0  0  0  0  0  0  0  0  0  0  0
   16.6621  -24.8417    0.0000 C   0  0  0  0  0  0  0  0  0  0  0  0
   17.1013  -23.4075    0.0000 C   0  0  0  0  0  0  0  0  0  0  0  0
   17.4173  -21.9411    0.0000 C   0  0  0  0  0  0  0  0  0  0  0  0
   17.6078  -20.4533    0.0000 C   0  0  0  0  0  0  0  0  0  0  0  0
   17.6715  -18.9546    0.0000 C   0  0  0  0  0  0  0  0  0  0  0  0
   17.6078  -17.4560    0.0000 C   0  0  0  0  0  0  0  0  0  0  0  0
   17.4173  -15.9681    0.0000 C   0  0  0  0  0  0  0  0  0  0  0  0
   17.1013  -14.5018    0.0000 C   0  0  0  0  0  0  0  0  0  0  0  0
   16.6621  -13.0675    0.0000 C   0  0  0  0  0  0  0  0  0  0  0  0
   16.1028  -11.6757    0.0000 C   0  0  0  0  0  0  0  0  0  0  0  0
   15.4275  -10.3363    0.0000 C   0  0  0  0  0  0  0  0  0  0  0  0
   14.6410   -9.0590    0.0000 C   0  0  0  0  0  0  0  0  0  0  0  0
   13.7491   -7.8530    0.0000 C   0  0  0  0  0  0  0  0  0  0  0  0
   12.7581   -6.7270    0.0000 C   0  0  0  0  0  0  0  0  0  0  0  0
   11.6751   -5.6891    0.0000 C   0  0  0  0  0  0  0  0  0  0  0  0
   10.5081   -4.7468    0.0000 C   0  0  0  0  0  0  0  0  0  0  0  0
    9.2653   -3.9068    0.0000 C   0  0  0  0  0  0  0  0  0  0  0  0
    7.9558   -3.1753    0.0000 C   0  0  0  0  0  0  0  0  0  0  0  0
    6.5889   -2.5574    0.0000 C   0  0  0  0  0  0  0  0  0  0  0  0
    5.1746   -2.0577    0.0000 C   0  0  0  0  0  0  0  0  0  0  0  0
    3.7230   -1.6797    0.0000 C   0  0  0  0  0  0  0  0  0  0  0  0
    3.9388   -3.1641    0.0000 C   0  0  0  0  0  0  0  0  0  0  0  0
    2.5937   -3.8281    0.0000 C   0  0  0  0  0  0  0  0  0  0  0  0
    1.5466   -2.7540    0.0000 C   0  0  0  0  0  0  0  0  0  0  0  0
    2.2446   -1.4262    0.0000 C   0  0  0  0  0  0  0  0  0  0  0  0
    0.7500   -1.2990    0.0000 C   0  0  0  0  0  0  0  0  0  0  0  0
    1.5000    0.0000    0.0000 C   0  0  0  0  0  0  0  0  0  0  0  0
    0.7500    1.2990    0.0000 C   0  0  0  0  0  0  0  0  0  0  0  0
   -0.7500    1.2990    0.0000 C   0  0  0  0  0  0  0  0  0  0  0  0
   -1.5000    0.0000    0.0000 C   0  0  0  0  0  0  0  0  0  0  0  0
   -0.7500   -1.2990    0.0000 C   0  0  0  0  0  0  0  0  0  0  0  0
  1  2  1  0
  2  3  1  0
  3  4  1  0
  4  5  1  0
  5  6  1  0
  6  7  1  0
  7  8  1  0
  8  9  1  0
  9 10  1  0
 10 11  1  0
 11 12  1  0
 12 13  1  0
 13 14  1  0
 14 15  1  0
 15 16  1  0
 16 17  1  0
 17 18  1  0
 18 19  1  0
 19 20  1  0
 20 21  1  0
 21 22  1  0
 22 23  1  0
 23 24  1  0
 24 25  1  0
 25 26  1  0
 26 27  1  0
 27 28  1  0
 28 29  1  0
 29 30  2  0
 30 31  1  0
 31 32  2  0
 32 33  1  0
 33 34  2  0
 34 35  1  0
 35 36  2  0
 36 37  1  0
 37 38  2  0
 38 39  1  0
 39 40  2  0
 40 41  1  0
 41 42  2  0
 42 43  1  0
 43 44  2  0
 44 45  1  0
 45 46  2  0
 46 47  1  0
 47 48  2  0
 48 49  1  0
 49 50  2  0
 50 51  1  0
 51 52  2  0
 52 53  1  0
 53 54  2  0
 54 55  1  0
 55 56  2  0
 56 57  1  0
 57 58  2  0
 58 59  1  0
 59 60  2  0
 60 61  1  0
 61 62  2  0
 62 63  1  0
 63 64  2  0
 64 65  1  0
 65 66  2  0
 66 67  1  0
 67 68  2  0
 68 69  1  0
 69 70  2  0
 70 71  1  0
 71 72  2  0
 72 73  1  0
 73 74  2  0
 74 75  1  0
 75 76  2  0
 76 77  1  0
 77 78  2  0
 78 79  1  0
 79 80  2  0
 80 81  1  0
 81 82  2  0
 82  2  1  0
 76 72  1  0
 82 77  1  0
M  END
>  <Title>  (836) 
idABEFgen13

$$$$

     RDKit          2D

 30 34  0  0  0  0  0  0  0  0999 V2000
   -3.0000   -2.5981    0.0000 C   0  0  0  0  0  0  0  0  0  0  0  0
   -1.5000   -2.5981    0.0000 C   0  0  0  0  0  0  0  0  0  0  0  0
   -0.7500   -3.8971    0.0000 C   0  0  0  0  0  0  0  0  0  0  0  0
    0.7500   -3.8971    0.0000 C   0  0  0  0  0  0  0  0  0  0  0  0
    1.5000   -2.5981    0.0000 C   0  0  0  0  0  0  0  0  0  0  0  0
    3.0000   -2.5981    0.0000 N   0  0  0  0  0  0  0  0  0  0  0  0
    3.8817   -1.3846    0.0000 C   0  0  0  0  0  0  0  0  0  0  0  0
    5.3083   -1.8481    0.0000 C   0  0  0  0  0  0  0  0  0  0  0  0
    5.3083   -3.3481    0.0000 N   0  0  0  0  0  0  0  0  0  0  0  0
    3.8817   -3.8116    0.0000 N   0  0  0  0  0  0  0  0  0  0  0  0
    3.4182   -5.2382    0.0000 N   0  0  0  0  0  0  0  0  0  0  0  0
    2.0816   -5.9192    0.0000 C   0  0  0  0  0  0  0  0  0  0  0  0
    2.7626   -7.2557    0.0000 C   0  0  0  0  0  0  0  0  0  0  0  0
    2.2991   -8.6823    0.0000 C   0  0  0  0  0  0  0  0  0  0  0  0
    3.3028   -9.7970    0.0000 O   0  0  0  0  0  0  0  0  0  0  0  0
    0.8319   -8.9941    0.0000 N   0  0  0  0  0  0  0  0  0  0  0  0
    0.3684  -10.4207    0.0000 C   0  0  0  0  0  0  0  0  0  0  0  0
   -1.0989  -10.7326    0.0000 N   0  0  0  0  0  0  0  0  0  0  0  0
   -1.5624  -12.1592    0.0000 N   0  0  0  0  0  0  0  0  0  0  0  0
   -0.5587  -13.2739    0.0000 N   0  0  0  0  0  0  0  0  0  0  0  0
    0.9085  -12.9620    0.0000 N   0  0  0  0  0  0  0  0  0  0  0  0
    1.3721  -11.5354    0.0000 N   0  0  0  0  0  0  0  0  0  0  0  0
    4.0991   -6.5747    0.0000 C   0  0  0  0  0  0  0  0  0  0  0  0
    5.5257   -7.0382    0.0000 O   0  0  0  0  0  0  0  0  0  0  0  0
    0.7500   -1.2990    0.0000 C   0  0  0  0  0  0  0  0  0  0  0  0
    1.5000    0.0000    0.0000 C   0  0  0  0  0  0  0  0  0  0  0  0
    0.7500    1.2990    0.0000 C   0  0  0  0  0  0  0  0  0  0  0  0
   -0.7500    1.2990    0.0000 C   0  0  0  0  0  0  0  0  0  0  0  0
   -1.5000    0.0000    0.0000 C   0  0  0  0  0  0  0  0  0  0  0  0
   -0.7500   -1.2990    0.0000 C   0  0  0  0  0  0  0  0  0  0  0  0
  1  2  1  0
  2  3  2  0
  3  4  1  0
  4  5  2  0
  5  6  1  0
  6  7  1  0
  7  8  1  0
  8  9  2  0
  9 10  1  0
 10 11  1  0
 11 12  1  0
 12 13  2  0
 13 14  1  0
 14 15  2  0
 14 16  1  0
 16 17  1  0
 17 18  2  0
 18 19  1  0
 19 20  2  0
 20 21  1  0
 21 22  2  0
 13 23  1  0
 23 24  2  0
  5 25  1  0
 25 26  2  0
 26 27  1  0
 27 28  2  0
 28 29  1  0
 29 30  2  0
 30  2  1  0
 10  6  1  0
 23 11  1  0
 30 25  1  0
 22 17  1  0
M  END
>  <Title>  (837) 
idABEGgen13

$$$$

     RDKit          2D

 47 53  0  0  0  0  0  0  0  0999 V2000
   -6.3400   -8.9930    0.0000 C   0  0  0  0  0  0  0  0  0  0  0  0
   -4.8400   -8.9930    0.0000 C   0  0  0  0  0  0  0  0  0  0  0  0
   -3.9583  -10.2065    0.0000 C   0  0  0  0  0  0  0  0  0  0  0  0
   -2.5317   -9.7430    0.0000 C   0  0  0  0  0  0  0  0  0  0  0  0
   -2.5317   -8.2430    0.0000 C   0  0  0  0  0  0  0  0  0  0  0  0
   -3.9583   -7.7795    0.0000 C   0  0  0  0  0  0  0  0  0  0  0  0
   -4.4218   -6.3529    0.0000 C   0  0  0  0  0  0  0  0  0  0  0  0
   -5.8891   -6.0410    0.0000 O   0  0  0  0  0  0  0  0  0  0  0  0
   -3.4182   -5.2382    0.0000 N   0  0  0  0  0  0  0  0  0  0  0  0
   -3.8817   -3.8116    0.0000 C   0  0  0  0  0  0  0  0  0  0  0  0
   -5.3083   -3.3481    0.0000 N   0  0  0  0  0  0  0  0  0  0  0  0
   -5.3083   -1.8481    0.0000 N   0  0  0  0  0  0  0  0  0  0  0  0
   -3.8817   -1.3846    0.0000 N   0  0  0  0  0  0  0  0  0  0  0  0
   -3.0000   -2.5981    0.0000 N   0  0  0  0  0  0  0  0  0  0  0  0
   -1.5000   -2.5981    0.0000 C   0  0  0  0  0  0  0  0  0  0  0  0
   -0.7500   -3.8971    0.0000 C   0  0  0  0  0  0  0  0  0  0  0  0
    0.7500   -3.8971    0.0000 C   0  0  0  0  0  0  0  0  0  0  0  0
    1.5000   -2.5981    0.0000 C   0  0  0  0  0  0  0  0  0  0  0  0
    3.0000   -2.5981    0.0000 C   0  0  0  0  0  0  0  0  0  0  0  0
    3.7500   -1.2990    0.0000 O   0  0  0  0  0  0  0  0  0  0  0  0
    3.7500   -3.8971    0.0000 N   0  0  0  0  0  0  0  0  0  0  0  0
    5.2500   -3.8971    0.0000 C   0  0  0  0  0  0  0  0  0  0  0  0
    6.1317   -2.6836    0.0000 N   0  0  0  0  0  0  0  0  0  0  0  0
    7.5583   -3.1471    0.0000 N   0  0  0  0  0  0  0  0  0  0  0  0
    7.5583   -4.6471    0.0000 N   0  0  0  0  0  0  0  0  0  0  0  0
    6.1317   -5.1106    0.0000 N   0  0  0  0  0  0  0  0  0  0  0  0
    5.6682   -6.5372    0.0000 N   0  0  0  0  0  0  0  0  0  0  0  0
    6.5498   -7.7508    0.0000 C   0  0  0  0  0  0  0  0  0  0  0  0
    5.6682   -8.9643    0.0000 C   0  0  0  0  0  0  0  0  0  0  0  0
    4.2416   -8.5008    0.0000 N   0  0  0  0  0  0  0  0  0  0  0  0
    3.0280   -9.3824    0.0000 C   0  0  0  0  0  0  0  0  0  0  0  0
    1.6577   -8.7723    0.0000 O   0  0  0  0  0  0  0  0  0  0  0  0
    3.1848  -10.8742    0.0000 N   0  0  0  0  0  0  0  0  0  0  0  0
    1.9713  -11.7559    0.0000 C   0  0  0  0  0  0  0  0  0  0  0  0
    0.6010  -11.1458    0.0000 N   0  0  0  0  0  0  0  0  0  0  0  0
   -0.6125  -12.0275    0.0000 N   0  0  0  0  0  0  0  0  0  0  0  0
   -0.4557  -13.5192    0.0000 N   0  0  0  0  0  0  0  0  0  0  0  0
    0.9146  -14.1293    0.0000 N   0  0  0  0  0  0  0  0  0  0  0  0
    2.1281  -13.2477    0.0000 N   0  0  0  0  0  0  0  0  0  0  0  0
    4.2416   -7.0008    0.0000 C   0  0  0  0  0  0  0  0  0  0  0  0
    3.0280   -6.1191    0.0000 O   0  0  0  0  0  0  0  0  0  0  0  0
    0.7500   -1.2990    0.0000 C   0  0  0  0  0  0  0  0  0  0  0  0
    1.5000    0.0000    0.0000 C   0  0  0  0  0  0  0  0  0  0  0  0
    0.7500    1.2990    0.0000 C   0  0  0  0  0  0  0  0  0  0  0  0
   -0.7500    1.2990    0.0000 C   0  0  0  0  0  0  0  0  0  0  0  0
   -1.5000    0.0000    0.0000 C   0  0  0  0  0  0  0  0  0  0  0  0
   -0.7500   -1.2990    0.0000 C   0  0  0  0  0  0  0  0  0  0  0  0
  1  2  1  0
  2  3  1  0
  3  4  1  0
  4  5  1  0
  5  6  1  0
  6  7  1  0
  7  8  2  0
  7  9  1  0
  9 10  1  0
 10 11  2  0
 11 12  1  0
 12 13  2  0
 13 14  1  0
 14 15  1  0
 15 16  2  0
 16 17  1  0
 17 18  2  0
 18 19  1  0
 19 20  2  0
 19 21  1  0
 21 22  1  0
 22 23  2  0
 23 24  1  0
 24 25  2  0
 25 26  1  0
 26 27  1  0
 27 28  1  0
 28 29  1  0
 29 30  1  0
 30 31  1  0
 31 32  2  0
 31 33  1  0
 33 34  1  0
 34 35  2  0
 35 36  1  0
 36 37  2  0
 37 38  1  0
 38 39  2  0
 30 40  1  0
 40 41  2  0
 18 42  1  0
 42 43  2  0
 43 44  1  0
 44 45  2  0
 45 46  1  0
 46 47  2  0
  6  2  1  0
 14 10  1  0
 47 15  1  0
 26 22  1  0
 40 27  1  0
 47 42  1  0
 39 34  1  0
M  END
>  <Title>  (838) 
idABEHgen13

$$$$

     RDKit          2D

 70 71  0  0  0  0  0  0  0  0999 V2000
   -2.2407   -1.0539    0.0000 C   0  0  0  0  0  0  0  0  0  0  0  0
   -2.4965    0.4242    0.0000 C   0  0  0  0  0  0  0  0  0  0  0  0
   -3.9850    0.2390    0.0000 C   0  0  0  0  0  0  0  0  0  0  0  0
   -5.4844    0.1962    0.0000 C   0  0  0  0  0  0  0  0  0  0  0  0
   -6.9811    0.2961    0.0000 C   0  0  0  0  0  0  0  0  0  0  0  0
   -8.4615    0.5378    0.0000 C   0  0  0  0  0  0  0  0  0  0  0  0
   -9.9122    0.9191    0.0000 C   0  0  0  0  0  0  0  0  0  0  0  0
  -11.3201    1.4366    0.0000 C   0  0  0  0  0  0  0  0  0  0  0  0
  -12.6724    2.0856    0.0000 C   0  0  0  0  0  0  0  0  0  0  0  0
  -13.9569    2.8602    0.0000 C   0  0  0  0  0  0  0  0  0  0  0  0
  -15.1620    3.7534    0.0000 C   0  0  0  0  0  0  0  0  0  0  0  0
  -16.2767    4.7571    0.0000 C   0  0  0  0  0  0  0  0  0  0  0  0
  -17.2910    5.8622    0.0000 C   0  0  0  0  0  0  0  0  0  0  0  0
  -18.1956    7.0587    0.0000 C   0  0  0  0  0  0  0  0  0  0  0  0
  -18.9824    8.3358    0.0000 C   0  0  0  0  0  0  0  0  0  0  0  0
  -19.6442    9.6819    0.0000 C   0  0  0  0  0  0  0  0  0  0  0  0
  -20.1751   11.0848    0.0000 C   0  0  0  0  0  0  0  0  0  0  0  0
  -20.5702   12.5318    0.0000 C   0  0  0  0  0  0  0  0  0  0  0  0
  -20.8260   14.0099    0.0000 C   0  0  0  0  0  0  0  0  0  0  0  0
  -20.9402   15.5055    0.0000 C   0  0  0  0  0  0  0  0  0  0  0  0
  -20.9116   17.0052    0.0000 C   0  0  0  0  0  0  0  0  0  0  0  0
  -20.7406   18.4955    0.0000 C   0  0  0  0  0  0  0  0  0  0  0  0
  -20.4287   19.9627    0.0000 C   0  0  0  0  0  0  0  0  0  0  0  0
  -19.9788   21.3936    0.0000 C   0  0  0  0  0  0  0  0  0  0  0  0
  -19.3949   22.7753    0.0000 C   0  0  0  0  0  0  0  0  0  0  0  0
  -18.6823   24.0952    0.0000 C   0  0  0  0  0  0  0  0  0  0  0  0
  -17.8475   25.3414    0.0000 C   0  0  0  0  0  0  0  0  0  0  0  0
  -16.8980   26.5026    0.0000 C   0  0  0  0  0  0  0  0  0  0  0  0
  -15.8424   27.5683    0.0000 C   0  0  0  0  0  0  0  0  0  0  0  0
  -14.6902   28.5289    0.0000 C   0  0  0  0  0  0  0  0  0  0  0  0
  -13.4520   29.3755    0.0000 C   0  0  0  0  0  0  0  0  0  0  0  0
  -12.1389   30.1007    0.0000 C   0  0  0  0  0  0  0  0  0  0  0  0
  -10.7629   30.6977    0.0000 C   0  0  0  0  0  0  0  0  0  0  0  0
   -9.3363   31.1612    0.0000 C   0  0  0  0  0  0  0  0  0  0  0  0
   -7.8721   31.4870    0.0000 C   0  0  0  0  0  0  0  0  0  0  0  0
   -6.3836   31.6722    0.0000 C   0  0  0  0  0  0  0  0  0  0  0  0
   -4.8842   31.7150    0.0000 C   0  0  0  0  0  0  0  0  0  0  0  0
   -3.3875   31.6152    0.0000 C   0  0  0  0  0  0  0  0  0  0  0  0
   -1.9071   31.3735    0.0000 C   0  0  0  0  0  0  0  0  0  0  0  0
   -0.4564   30.9921    0.0000 C   0  0  0  0  0  0  0  0  0  0  0  0
    0.9515   30.4746    0.0000 C   0  0  0  0  0  0  0  0  0  0  0  0
    2.3038   29.8256    0.0000 C   0  0  0  0  0  0  0  0  0  0  0  0
    3.5884   29.0510    0.0000 C   0  0  0  0  0  0  0  0  0  0  0  0
    4.7934   28.1579    0.0000 C   0  0  0  0  0  0  0  0  0  0  0  0
    5.9082   27.1542    0.0000 C   0  0  0  0  0  0  0  0  0  0  0  0
    6.9224   26.0491    0.0000 C   0  0  0  0  0  0  0  0  0  0  0  0
    7.8270   24.8525    0.0000 C   0  0  0  0  0  0  0  0  0  0  0  0
    8.6138   23.5754    0.0000 C   0  0  0  0  0  0  0  0  0  0  0  0
    9.2757   22.2293    0.0000 C   0  0  0  0  0  0  0  0  0  0  0  0
    9.8065   20.8264    0.0000 C   0  0  0  0  0  0  0  0  0  0  0  0
   10.2017   19.3794    0.0000 C   0  0  0  0  0  0  0  0  0  0  0  0
   10.4574   17.9014    0.0000 C   0  0  0  0  0  0  0  0  0  0  0  0
   10.5716   16.4057    0.0000 C   0  0  0  0  0  0  0  0  0  0  0  0
   10.5430   14.9060    0.0000 C   0  0  0  0  0  0  0  0  0  0  0  0
   10.3720   13.4158    0.0000 C   0  0  0  0  0  0  0  0  0  0  0  0
   10.0602   11.9485    0.0000 C   0  0  0  0  0  0  0  0  0  0  0  0
    9.6102   10.5176    0.0000 C   0  0  0  0  0  0  0  0  0  0  0  0
    9.0263    9.1359    0.0000 C   0  0  0  0  0  0  0  0  0  0  0  0
    8.3137    7.8160    0.0000 C   0  0  0  0  0  0  0  0  0  0  0  0
    7.4789    6.5698    0.0000 C   0  0  0  0  0  0  0  0  0  0  0  0
    6.5294    5.4086    0.0000 C   0  0  0  0  0  0  0  0  0  0  0  0
    5.4738    4.3429    0.0000 C   0  0  0  0  0  0  0  0  0  0  0  0
    4.3217    3.3824    0.0000 C   0  0  0  0  0  0  0  0  0  0  0  0
    3.0834    2.5357    0.0000 C   0  0  0  0  0  0  0  0  0  0  0  0
    1.7704    1.8106    0.0000 C   0  0  0  0  0  0  0  0  0  0  0  0
    0.3943    1.2135    0.0000 C   0  0  0  0  0  0  0  0  0  0  0  0
    1.2760    0.0000    0.0000 C   0  0  0  0  0  0  0  0  0  0  0  0
    0.3943   -1.2135    0.0000 C   0  0  0  0  0  0  0  0  0  0  0  0
   -1.0323   -0.7500    0.0000 C   0  0  0  0  0  0  0  0  0  0  0  0
   -1.0323    0.7500    0.0000 C   0  0  0  0  0  0  0  0  0  0  0  0
  1  2  1  0
  2  3  1  0
  3  4  1  0
  4  5  1  0
  5  6  1  0
  6  7  1  0
  7  8  1  0
  8  9  1  0
  9 10  1  0
 10 11  1  0
 11 12  1  0
 12 13  1  0
 13 14  1  0
 14 15  1  0
 15 16  1  0
 16 17  1  0
 17 18  1  0
 18 19  1  0
 19 20  1  0
 20 21  1  0
 21 22  1  0
 22 23  1  0
 23 24  1  0
 24 25  1  0
 25 26  1  0
 26 27  1  0
 27 28  1  0
 28 29  1  0
 29 30  1  0
 30 31  1  0
 31 32  1  0
 32 33  1  0
 33 34  1  0
 34 35  1  0
 35 36  1  0
 36 37  1  0
 37 38  1  0
 38 39  1  0
 39 40  1  0
 40 41  1  0
 41 42  1  0
 42 43  1  0
 43 44  1  0
 44 45  1  0
 45 46  1  0
 46 47  1  0
 47 48  1  0
 48 49  1  0
 49 50  1  0
 50 51  1  0
 51 52  1  0
 52 53  1  0
 53 54  1  0
 54 55  1  0
 55 56  1  0
 56 57  1  0
 57 58  1  0
 58 59  1  0
 59 60  1  0
 60 61  1  0
 61 62  2  0
 62 63  1  0
 63 64  2  0
 64 65  1  0
 65 66  2  0
 66 67  1  0
 67 68  2  0
 68 69  1  0
 69 70  2  0
 70  2  1  0
 70 66  1  0
M  END
>  <Title>  (839) 
idABEIgen13

$$$$

     RDKit          2D

 64 65  0  0  0  0  0  0  0  0999 V2000
   -2.2649   -1.0434    0.0000 C   0  0  0  0  0  0  0  0  0  0  0  0
   -2.4995    0.4381    0.0000 C   0  0  0  0  0  0  0  0  0  0  0  0
   -3.9913    0.2813    0.0000 C   0  0  0  0  0  0  0  0  0  0  0  0
   -5.4913    0.2813    0.0000 C   0  0  0  0  0  0  0  0  0  0  0  0
   -6.9831    0.4381    0.0000 C   0  0  0  0  0  0  0  0  0  0  0  0
   -8.4503    0.7500    0.0000 C   0  0  0  0  0  0  0  0  0  0  0  0
   -9.8769    1.2135    0.0000 C   0  0  0  0  0  0  0  0  0  0  0  0
  -11.2472    1.8236    0.0000 C   0  0  0  0  0  0  0  0  0  0  0  0
  -12.5462    2.5736    0.0000 C   0  0  0  0  0  0  0  0  0  0  0  0
  -13.7598    3.4553    0.0000 C   0  0  0  0  0  0  0  0  0  0  0  0
  -14.8745    4.4590    0.0000 C   0  0  0  0  0  0  0  0  0  0  0  0
  -15.8782    5.5737    0.0000 C   0  0  0  0  0  0  0  0  0  0  0  0
  -16.7599    6.7872    0.0000 C   0  0  0  0  0  0  0  0  0  0  0  0
  -17.5099    8.0863    0.0000 C   0  0  0  0  0  0  0  0  0  0  0  0
  -18.1200    9.4566    0.0000 C   0  0  0  0  0  0  0  0  0  0  0  0
  -18.5835   10.8832    0.0000 C   0  0  0  0  0  0  0  0  0  0  0  0
  -18.8954   12.3504    0.0000 C   0  0  0  0  0  0  0  0  0  0  0  0
  -19.0521   13.8422    0.0000 C   0  0  0  0  0  0  0  0  0  0  0  0
  -19.0521   15.3422    0.0000 C   0  0  0  0  0  0  0  0  0  0  0  0
  -18.8954   16.8340    0.0000 C   0  0  0  0  0  0  0  0  0  0  0  0
  -18.5835   18.3012    0.0000 C   0  0  0  0  0  0  0  0  0  0  0  0
  -18.1200   19.7278    0.0000 C   0  0  0  0  0  0  0  0  0  0  0  0
  -17.5099   21.0981    0.0000 C   0  0  0  0  0  0  0  0  0  0  0  0
  -16.7599   22.3971    0.0000 C   0  0  0  0  0  0  0  0  0  0  0  0
  -15.8782   23.6107    0.0000 C   0  0  0  0  0  0  0  0  0  0  0  0
  -14.8745   24.7254    0.0000 C   0  0  0  0  0  0  0  0  0  0  0  0
  -13.7598   25.7291    0.0000 C   0  0  0  0  0  0  0  0  0  0  0  0
  -12.5462   26.6108    0.0000 C   0  0  0  0  0  0  0  0  0  0  0  0
  -11.2472   27.3608    0.0000 C   0  0  0  0  0  0  0  0  0  0  0  0
   -9.8769   27.9709    0.0000 C   0  0  0  0  0  0  0  0  0  0  0  0
   -8.4503   28.4344    0.0000 C   0  0  0  0  0  0  0  0  0  0  0  0
   -6.9831   28.7463    0.0000 C   0  0  0  0  0  0  0  0  0  0  0  0
   -5.4913   28.9030    0.0000 C   0  0  0  0  0  0  0  0  0  0  0  0
   -3.9913   28.9030    0.0000 C   0  0  0  0  0  0  0  0  0  0  0  0
   -2.4995   28.7463    0.0000 C   0  0  0  0  0  0  0  0  0  0  0  0
   -1.0323   28.4344    0.0000 C   0  0  0  0  0  0  0  0  0  0  0  0
    0.3943   27.9709    0.0000 C   0  0  0  0  0  0  0  0  0  0  0  0
    1.7646   27.3608    0.0000 C   0  0  0  0  0  0  0  0  0  0  0  0
    3.0637   26.6108    0.0000 C   0  0  0  0  0  0  0  0  0  0  0  0
    4.2772   25.7291    0.0000 C   0  0  0  0  0  0  0  0  0  0  0  0
    5.3919   24.7254    0.0000 C   0  0  0  0  0  0  0  0  0  0  0  0
    6.3956   23.6107    0.0000 C   0  0  0  0  0  0  0  0  0  0  0  0
    7.2773   22.3971    0.0000 C   0  0  0  0  0  0  0  0  0  0  0  0
    8.0273   21.0981    0.0000 C   0  0  0  0  0  0  0  0  0  0  0  0
    8.6374   19.7278    0.0000 C   0  0  0  0  0  0  0  0  0  0  0  0
    9.1009   18.3012    0.0000 C   0  0  0  0  0  0  0  0  0  0  0  0
    9.4128   16.8340    0.0000 C   0  0  0  0  0  0  0  0  0  0  0  0
    9.5696   15.3422    0.0000 C   0  0  0  0  0  0  0  0  0  0  0  0
    9.5696   13.8422    0.0000 C   0  0  0  0  0  0  0  0  0  0  0  0
    9.4128   12.3504    0.0000 C   0  0  0  0  0  0  0  0  0  0  0  0
    9.1009   10.8832    0.0000 C   0  0  0  0  0  0  0  0  0  0  0  0
    8.6374    9.4566    0.0000 C   0  0  0  0  0  0  0  0  0  0  0  0
    8.0273    8.0863    0.0000 C   0  0  0  0  0  0  0  0  0  0  0  0
    7.2773    6.7872    0.0000 C   0  0  0  0  0  0  0  0  0  0  0  0
    6.3956    5.5737    0.0000 C   0  0  0  0  0  0  0  0  0  0  0  0
    5.3919    4.4590    0.0000 C   0  0  0  0  0  0  0  0  0  0  0  0
    4.2772    3.4553    0.0000 C   0  0  0  0  0  0  0  0  0  0  0  0
    3.0637    2.5736    0.0000 C   0  0  0  0  0  0  0  0  0  0  0  0
    1.7646    1.8236    0.0000 C   0  0  0  0  0  0  0  0  0  0  0  0
    0.3943    1.2135    0.0000 C   0  0  0  0  0  0  0  0  0  0  0  0
    1.2760    0.0000    0.0000 C   0  0  0  0  0  0  0  0  0  0  0  0
    0.3943   -1.2135    0.0000 C   0  0  0  0  0  0  0  0  0  0  0  0
   -1.0323   -0.7500    0.0000 C   0  0  0  0  0  0  0  0  0  0  0  0
   -1.0323    0.7500    0.0000 C   0  0  0  0  0  0  0  0  0  0  0  0
  1  2  1  0
  2  3  1  0
  3  4  1  0
  4  5  1  0
  5  6  1  0
  6  7  1  0
  7  8  1  0
  8  9  1  0
  9 10  1  0
 10 11  1  0
 11 12  1  0
 12 13  1  0
 13 14  1  0
 14 15  1  0
 15 16  1  0
 16 17  1  0
 17 18  1  0
 18 19  1  0
 19 20  1  0
 20 21  1  0
 21 22  1  0
 22 23  1  0
 23 24  1  0
 24 25  1  0
 25 26  1  0
 26 27  1  0
 27 28  1  0
 28 29  1  0
 29 30  1  0
 30 31  1  0
 31 32  1  0
 32 33  1  0
 33 34  2  0
 34 35  1  0
 35 36  2  0
 36 37  1  0
 37 38  2  0
 38 39  1  0
 39 40  2  0
 40 41  1  0
 41 42  2  0
 42 43  1  0
 43 44  2  0
 44 45  1  0
 45 46  2  0
 46 47  1  0
 47 48  2  0
 48 49  1  0
 49 50  2  0
 50 51  1  0
 51 52  2  0
 52 53  1  0
 53 54  2  0
 54 55  1  0
 55 56  2  0
 56 57  1  0
 57 58  2  0
 58 59  1  0
 59 60  2  0
 60 61  1  0
 61 62  2  0
 62 63  1  0
 63 64  2  0
 64  2  1  0
 64 60  1  0
M  END
>  <Title>  (840) 
idABEJgen13

$$$$

     RDKit          2D

 31 35  0  0  0  0  0  0  0  0999 V2000
   -3.1476   -2.1380    0.0000 C   0  0  0  0  0  0  0  0  0  0  0  0
   -1.6852   -2.4718    0.0000 C   0  0  0  0  0  0  0  0  0  0  0  0
   -1.3515   -3.9342    0.0000 C   0  0  0  0  0  0  0  0  0  0  0  0
   -0.0000   -4.5850    0.0000 C   0  0  0  0  0  0  0  0  0  0  0  0
    1.3515   -3.9342    0.0000 C   0  0  0  0  0  0  0  0  0  0  0  0
    1.6852   -2.4718    0.0000 C   0  0  0  0  0  0  0  0  0  0  0  0
    3.1476   -2.1380    0.0000 C   0  0  0  0  0  0  0  0  0  0  0  0
    3.5898   -0.7046    0.0000 O   0  0  0  0  0  0  0  0  0  0  0  0
    4.1679   -3.2376    0.0000 N   0  0  0  0  0  0  0  0  0  0  0  0
    5.6303   -2.9038    0.0000 C   0  0  0  0  0  0  0  0  0  0  0  0
    6.2198   -1.5245    0.0000 N   0  0  0  0  0  0  0  0  0  0  0  0
    7.7138   -1.6590    0.0000 N   0  0  0  0  0  0  0  0  0  0  0  0
    8.0476   -3.1214    0.0000 N   0  0  0  0  0  0  0  0  0  0  0  0
    6.7599   -3.8907    0.0000 N   0  0  0  0  0  0  0  0  0  0  0  0
    6.6254   -5.3847    0.0000 C   0  0  0  0  0  0  0  0  0  0  0  0
    7.7550   -6.3716    0.0000 C   0  0  0  0  0  0  0  0  0  0  0  0
    7.1655   -7.7509    0.0000 C   0  0  0  0  0  0  0  0  0  0  0  0
    5.6715   -7.6164    0.0000 C   0  0  0  0  0  0  0  0  0  0  0  0
    4.6846   -8.7460    0.0000 N   0  0  0  0  0  0  0  0  0  0  0  0
    5.0184  -10.2084    0.0000 C   0  0  0  0  0  0  0  0  0  0  0  0
    3.7307  -10.9778    0.0000 C   0  0  0  0  0  0  0  0  0  0  0  0
    2.6011   -9.9909    0.0000 C   0  0  0  0  0  0  0  0  0  0  0  0
    3.1907   -8.6116    0.0000 C   0  0  0  0  0  0  0  0  0  0  0  0
    5.3378   -6.1540    0.0000 C   0  0  0  0  0  0  0  0  0  0  0  0
    3.9585   -5.5645    0.0000 O   0  0  0  0  0  0  0  0  0  0  0  0
    0.7500   -1.2990    0.0000 C   0  0  0  0  0  0  0  0  0  0  0  0
    1.5000    0.0000    0.0000 C   0  0  0  0  0  0  0  0  0  0  0  0
    0.7500    1.2990    0.0000 C   0  0  0  0  0  0  0  0  0  0  0  0
   -0.7500    1.2990    0.0000 C   0  0  0  0  0  0  0  0  0  0  0  0
   -1.5000    0.0000    0.0000 C   0  0  0  0  0  0  0  0  0  0  0  0
   -0.7500   -1.2990    0.0000 C   0  0  0  0  0  0  0  0  0  0  0  0
  1  2  1  0
  2  3  1  0
  3  4  2  0
  4  5  1  0
  5  6  1  0
  6  7  1  0
  7  8  2  0
  7  9  1  0
  9 10  1  0
 10 11  2  0
 11 12  1  0
 12 13  2  0
 13 14  1  0
 14 15  1  0
 15 16  2  0
 16 17  1  0
 17 18  2  0
 18 19  1  0
 19 20  1  0
 20 21  2  0
 21 22  1  0
 22 23  2  0
 18 24  1  0
 24 25  2  0
  6 26  1  0
 26 27  2  0
 27 28  1  0
 28 29  2  0
 29 30  1  0
 30 31  2  0
 31  2  1  0
 14 10  1  0
 24 15  1  0
 31 26  1  0
 23 19  1  0
M  END
>  <Title>  (841) 
idABEKgen13

$$$$

     RDKit          2D

 15 16  0  0  0  0  0  0  0  0999 V2000
   -7.8904   -6.2652    0.0000 C   0  0  0  0  0  0  0  0  0  0  0  0
   -6.8298   -5.2046    0.0000 C   0  0  0  0  0  0  0  0  0  0  0  0
   -5.7691   -4.1439    0.0000 C   0  0  0  0  0  0  0  0  0  0  0  0
   -4.3202   -4.5321    0.0000 C   0  0  0  0  0  0  0  0  0  0  0  0
   -3.2595   -3.4715    0.0000 C   0  0  0  0  0  0  0  0  0  0  0  0
   -1.8107   -3.8597    0.0000 C   0  0  0  0  0  0  0  0  0  0  0  0
   -1.4224   -5.3086    0.0000 O   0  0  0  0  0  0  0  0  0  0  0  0
   -0.7500   -2.7990    0.0000 N   0  0  0  0  0  0  0  0  0  0  0  0
    0.7500   -2.7990    0.0000 C   0  0  0  0  0  0  0  0  0  0  0  0
    0.7500   -1.2990    0.0000 C   0  0  0  0  0  0  0  0  0  0  0  0
    1.5000    0.0000    0.0000 C   0  0  0  0  0  0  0  0  0  0  0  0
    0.7500    1.2990    0.0000 C   0  0  0  0  0  0  0  0  0  0  0  0
   -0.7500    1.2990    0.0000 C   0  0  0  0  0  0  0  0  0  0  0  0
   -1.5000    0.0000    0.0000 C   0  0  0  0  0  0  0  0  0  0  0  0
   -0.7500   -1.2990    0.0000 C   0  0  0  0  0  0  0  0  0  0  0  0
  1  2  3  0
  2  3  1  0
  3  4  1  0
  4  5  1  0
  5  6  1  0
  6  7  2  0
  6  8  1  0
  8  9  1  0
  9 10  1  0
 10 11  2  0
 11 12  1  0
 12 13  2  0
 13 14  1  0
 14 15  2  0
 15  8  1  0
 15 10  1  0
M  END
>  <Title>  (842) 
idABELgen13

$$$$

     RDKit          2D

 10  9  0  0  0  0  0  0  0  0999 V2000
    0.0000    0.0000    0.0000 C   0  0  0  0  0  0  0  0  0  0  0  0
    1.2990    0.7500    0.0000 C   0  0  0  0  0  0  0  0  0  0  0  0
    2.5981   -0.0000    0.0000 C   0  0  0  0  0  0  0  0  0  0  0  0
    3.8971    0.7500    0.0000 C   0  0  0  0  0  0  0  0  0  0  0  0
    5.1962   -0.0000    0.0000 C   0  0  0  0  0  0  0  0  0  0  0  0
    5.1962   -1.5000    0.0000 O   0  0  0  0  0  0  0  0  0  0  0  0
    6.4952    0.7500    0.0000 N   0  0  0  0  0  0  0  0  0  0  0  0
    7.7942   -0.0000    0.0000 C   0  0  0  0  0  0  0  0  0  0  0  0
    9.0933    0.7500    0.0000 C   0  0  0  0  0  0  0  0  0  0  0  0
    7.7942   -1.5000    0.0000 C   0  0  0  0  0  0  0  0  0  0  0  0
  1  2  2  0
  2  3  1  0
  3  4  1  0
  4  5  1  0
  5  6  2  0
  5  7  1  0
  7  8  1  0
  8  9  1  0
  8 10  1  0
M  END
>  <Title>  (843) 
idABEMgen13

$$$$

     RDKit          2D

 28 31  0  0  0  0  0  0  0  0999 V2000
   -3.1981   -1.5132    0.0000 C   0  0  0  0  0  0  0  0  0  0  0  0
   -1.8991   -2.2632    0.0000 C   0  0  0  0  0  0  0  0  0  0  0  0
   -2.1595   -3.7404    0.0000 C   0  0  0  0  0  0  0  0  0  0  0  0
   -1.4095   -5.0395    0.0000 C   0  0  0  0  0  0  0  0  0  0  0  0
   -0.0000   -5.5525    0.0000 C   0  0  0  0  0  0  0  0  0  0  0  0
    1.4095   -5.0395    0.0000 C   0  0  0  0  0  0  0  0  0  0  0  0
    2.1595   -3.7404    0.0000 C   0  0  0  0  0  0  0  0  0  0  0  0
    1.8991   -2.2632    0.0000 C   0  0  0  0  0  0  0  0  0  0  0  0
    3.1981   -1.5132    0.0000 C   0  0  0  0  0  0  0  0  0  0  0  0
    3.1981   -0.0132    0.0000 O   0  0  0  0  0  0  0  0  0  0  0  0
    4.4971   -2.2632    0.0000 N   0  0  0  0  0  0  0  0  0  0  0  0
    5.7962   -1.5132    0.0000 C   0  0  0  0  0  0  0  0  0  0  0  0
    5.9530   -0.0214    0.0000 N   0  0  0  0  0  0  0  0  0  0  0  0
    7.4202    0.2904    0.0000 N   0  0  0  0  0  0  0  0  0  0  0  0
    8.1702   -1.0086    0.0000 N   0  0  0  0  0  0  0  0  0  0  0  0
    7.1665   -2.1233    0.0000 N   0  0  0  0  0  0  0  0  0  0  0  0
    7.4784   -3.5905    0.0000 N   0  0  0  0  0  0  0  0  0  0  0  0
    6.3636   -4.5942    0.0000 C   0  0  0  0  0  0  0  0  0  0  0  0
    6.6755   -6.0615    0.0000 C   0  0  0  0  0  0  0  0  0  0  0  0
    8.1021   -6.5250    0.0000 N   0  0  0  0  0  0  0  0  0  0  0  0
    9.2168   -5.5213    0.0000 N   0  0  0  0  0  0  0  0  0  0  0  0
    8.9050   -4.0541    0.0000 N   0  0  0  0  0  0  0  0  0  0  0  0
    0.7500   -1.2990    0.0000 C   0  0  0  0  0  0  0  0  0  0  0  0
    1.5000    0.0000    0.0000 C   0  0  0  0  0  0  0  0  0  0  0  0
    0.7500    1.2990    0.0000 C   0  0  0  0  0  0  0  0  0  0  0  0
   -0.7500    1.2990    0.0000 C   0  0  0  0  0  0  0  0  0  0  0  0
   -1.5000    0.0000    0.0000 C   0  0  0  0  0  0  0  0  0  0  0  0
   -0.7500   -1.2990    0.0000 C   0  0  0  0  0  0  0  0  0  0  0  0
  1  2  1  0
  2  3  1  0
  3  4  1  0
  4  5  1  0
  5  6  1  0
  6  7  1  0
  7  8  1  0
  8  9  1  0
  9 10  2  0
  9 11  1  0
 11 12  1  0
 12 13  2  0
 13 14  1  0
 14 15  2  0
 15 16  1  0
 16 17  1  0
 17 18  1  0
 18 19  1  0
 19 20  2  0
 20 21  1  0
 21 22  2  0
  8 23  1  0
 23 24  2  0
 24 25  1  0
 25 26  2  0
 26 27  1  0
 27 28  2  0
 28  2  1  0
 16 12  1  0
 22 17  1  0
 28 23  1  0
M  END
>  <Title>  (844) 
idABENgen13

$$$$

     RDKit          2D

 34 38  0  0  0  0  0  0  0  0999 V2000
   -3.0000   -2.5981    0.0000 C   0  0  0  0  0  0  0  0  0  0  0  0
   -1.5000   -2.5981    0.0000 C   0  0  0  0  0  0  0  0  0  0  0  0
   -0.7500   -3.8971    0.0000 C   0  0  0  0  0  0  0  0  0  0  0  0
    0.7500   -3.8971    0.0000 C   0  0  0  0  0  0  0  0  0  0  0  0
    1.5000   -2.5981    0.0000 C   0  0  0  0  0  0  0  0  0  0  0  0
    3.0000   -2.5981    0.0000 C   0  0  0  0  0  0  0  0  0  0  0  0
    3.7500   -1.2990    0.0000 O   0  0  0  0  0  0  0  0  0  0  0  0
    3.7500   -3.8971    0.0000 N   0  0  0  0  0  0  0  0  0  0  0  0
    5.2500   -3.8971    0.0000 C   0  0  0  0  0  0  0  0  0  0  0  0
    6.1317   -2.6836    0.0000 N   0  0  0  0  0  0  0  0  0  0  0  0
    7.5583   -3.1471    0.0000 N   0  0  0  0  0  0  0  0  0  0  0  0
    7.5583   -4.6471    0.0000 N   0  0  0  0  0  0  0  0  0  0  0  0
    6.1317   -5.1106    0.0000 N   0  0  0  0  0  0  0  0  0  0  0  0
    5.6682   -6.5372    0.0000 N   0  0  0  0  0  0  0  0  0  0  0  0
    6.5498   -7.7508    0.0000 C   0  0  0  0  0  0  0  0  0  0  0  0
    5.6682   -8.9643    0.0000 C   0  0  0  0  0  0  0  0  0  0  0  0
    4.2416   -8.5008    0.0000 N   0  0  0  0  0  0  0  0  0  0  0  0
    3.0280   -9.3824    0.0000 C   0  0  0  0  0  0  0  0  0  0  0  0
    3.1848  -10.8742    0.0000 O   0  0  0  0  0  0  0  0  0  0  0  0
    1.6577   -8.7723    0.0000 N   0  0  0  0  0  0  0  0  0  0  0  0
    0.4442   -9.6540    0.0000 C   0  0  0  0  0  0  0  0  0  0  0  0
   -0.9261   -9.0439    0.0000 N   0  0  0  0  0  0  0  0  0  0  0  0
   -2.1396   -9.9256    0.0000 N   0  0  0  0  0  0  0  0  0  0  0  0
   -1.9829  -11.4174    0.0000 N   0  0  0  0  0  0  0  0  0  0  0  0
   -0.6125  -12.0275    0.0000 N   0  0  0  0  0  0  0  0  0  0  0  0
    0.6010  -11.1458    0.0000 N   0  0  0  0  0  0  0  0  0  0  0  0
    4.2416   -7.0008    0.0000 C   0  0  0  0  0  0  0  0  0  0  0  0
    3.0280   -6.1191    0.0000 O   0  0  0  0  0  0  0  0  0  0  0  0
    0.7500   -1.2990    0.0000 C   0  0  0  0  0  0  0  0  0  0  0  0
    1.5000    0.0000    0.0000 C   0  0  0  0  0  0  0  0  0  0  0  0
    0.7500    1.2990    0.0000 C   0  0  0  0  0  0  0  0  0  0  0  0
   -0.7500    1.2990    0.0000 C   0  0  0  0  0  0  0  0  0  0  0  0
   -1.5000    0.0000    0.0000 C   0  0  0  0  0  0  0  0  0  0  0  0
   -0.7500   -1.2990    0.0000 C   0  0  0  0  0  0  0  0  0  0  0  0
  1  2  1  0
  2  3  2  0
  3  4  1  0
  4  5  2  0
  5  6  1  0
  6  7  2  0
  6  8  1  0
  8  9  1  0
  9 10  2  0
 10 11  1  0
 11 12  2  0
 12 13  1  0
 13 14  1  0
 14 15  1  0
 15 16  1  0
 16 17  1  0
 17 18  1  0
 18 19  2  0
 18 20  1  0
 20 21  1  0
 21 22  2  0
 22 23  1  0
 23 24  2  0
 24 25  1  0
 25 26  2  0
 17 27  1  0
 27 28  2  0
  5 29  1  0
 29 30  2  0
 30 31  1  0
 31 32  2  0
 32 33  1  0
 33 34  2  0
 34  2  1  0
 13  9  1  0
 27 14  1  0
 34 29  1  0
 26 21  1  0
M  END
>  <Title>  (845) 
idABEOgen13

$$$$

     RDKit          2D

 44 49  0  0  0  0  0  0  0  0999 V2000
   -3.7860   -5.5823    0.0000 C   0  0  0  0  0  0  0  0  0  0  0  0
   -2.4215   -4.9592    0.0000 C   0  0  0  0  0  0  0  0  0  0  0  0
   -1.4392   -6.0928    0.0000 C   0  0  0  0  0  0  0  0  0  0  0  0
   -0.0000   -6.5154    0.0000 C   0  0  0  0  0  0  0  0  0  0  0  0
    1.4392   -6.0928    0.0000 C   0  0  0  0  0  0  0  0  0  0  0  0
    2.4215   -4.9592    0.0000 C   0  0  0  0  0  0  0  0  0  0  0  0
    3.7860   -5.5823    0.0000 C   0  0  0  0  0  0  0  0  0  0  0  0
    5.0078   -4.7122    0.0000 O   0  0  0  0  0  0  0  0  0  0  0  0
    3.9286   -7.0755    0.0000 N   0  0  0  0  0  0  0  0  0  0  0  0
    5.2930   -7.6986    0.0000 C   0  0  0  0  0  0  0  0  0  0  0  0
    6.5991   -6.9610    0.0000 N   0  0  0  0  0  0  0  0  0  0  0  0
    7.7042   -7.9753    0.0000 N   0  0  0  0  0  0  0  0  0  0  0  0
    7.0811   -9.3397    0.0000 N   0  0  0  0  0  0  0  0  0  0  0  0
    5.5909   -9.1688    0.0000 N   0  0  0  0  0  0  0  0  0  0  0  0
    4.5766  -10.2739    0.0000 C   0  0  0  0  0  0  0  0  0  0  0  0
    4.8745  -11.7440    0.0000 C   0  0  0  0  0  0  0  0  0  0  0  0
    3.5684  -12.4816    0.0000 C   0  0  0  0  0  0  0  0  0  0  0  0
    2.4633  -11.4673    0.0000 C   0  0  0  0  0  0  0  0  0  0  0  0
    0.9932  -11.7652    0.0000 C   0  0  0  0  0  0  0  0  0  0  0  0
    0.5161  -13.1873    0.0000 O   0  0  0  0  0  0  0  0  0  0  0  0
    0.0001  -10.6410    0.0000 N   0  0  0  0  0  0  0  0  0  0  0  0
   -1.4700  -10.9389    0.0000 C   0  0  0  0  0  0  0  0  0  0  0  0
   -2.4630   -9.8147    0.0000 N   0  0  0  0  0  0  0  0  0  0  0  0
   -3.9332  -10.1125    0.0000 N   0  0  0  0  0  0  0  0  0  0  0  0
   -4.4102  -11.5346    0.0000 N   0  0  0  0  0  0  0  0  0  0  0  0
   -3.4172  -12.6589    0.0000 N   0  0  0  0  0  0  0  0  0  0  0  0
   -1.9471  -12.3610    0.0000 N   0  0  0  0  0  0  0  0  0  0  0  0
    3.0864  -10.1029    0.0000 C   0  0  0  0  0  0  0  0  0  0  0  0
    2.3488   -8.7968    0.0000 O   0  0  0  0  0  0  0  0  0  0  0  0
    2.6350   -3.4744    0.0000 C   0  0  0  0  0  0  0  0  0  0  0  0
    4.1197   -3.2610    0.0000 O   0  0  0  0  0  0  0  0  0  0  0  0
    2.0119   -2.1100    0.0000 O   0  0  0  0  0  0  0  0  0  0  0  0
    0.7500   -1.2990    0.0000 C   0  0  0  0  0  0  0  0  0  0  0  0
    1.5000    0.0000    0.0000 C   0  0  0  0  0  0  0  0  0  0  0  0
    0.7500    1.2990    0.0000 C   0  0  0  0  0  0  0  0  0  0  0  0
   -0.7500    1.2990    0.0000 C   0  0  0  0  0  0  0  0  0  0  0  0
   -1.5000    0.0000    0.0000 C   0  0  0  0  0  0  0  0  0  0  0  0
   -0.7500   -1.2990    0.0000 C   0  0  0  0  0  0  0  0  0  0  0  0
   -2.0119   -2.1100    0.0000 C   0  0  0  0  0  0  0  0  0  0  0  0
   -2.8820   -0.8881    0.0000 C   0  0  0  0  0  0  0  0  0  0  0  0
   -4.3752   -1.0307    0.0000 C   0  0  0  0  0  0  0  0  0  0  0  0
   -4.9983   -2.3952    0.0000 C   0  0  0  0  0  0  0  0  0  0  0  0
   -4.1282   -3.6170    0.0000 C   0  0  0  0  0  0  0  0  0  0  0  0
   -2.6350   -3.4744    0.0000 C   0  0  0  0  0  0  0  0  0  0  0  0
  1  2  1  0
  2  3  2  0
  3  4  1  0
  4  5  2  0
  5  6  1  0
  6  7  1  0
  7  8  2  0
  7  9  1  0
  9 10  1  0
 10 11  2  0
 11 12  1  0
 12 13  2  0
 13 14  1  0
 14 15  1  0
 15 16  2  0
 16 17  1  0
 17 18  2  0
 18 19  1  0
 19 20  2  0
 19 21  1  0
 21 22  1  0
 22 23  2  0
 23 24  1  0
 24 25  2  0
 25 26  1  0
 26 27  2  0
 18 28  1  0
 28 29  2  0
  6 30  1  0
 30 31  2  0
 30 32  1  0
 32 33  1  0
 33 34  2  0
 34 35  1  0
 35 36  2  0
 36 37  1  0
 37 38  2  0
 38 39  1  0
 39 40  2  0
 40 41  1  0
 41 42  2  0
 42 43  1  0
 43 44  2  0
 44  2  1  0
 14 10  1  0
 28 15  1  0
 38 33  1  0
 44 39  1  0
 27 22  1  0
M  END
>  <Title>  (846) 
idABEPgen13

$$$$

     RDKit          2D

  6  5  0  0  0  0  0  0  0  0999 V2000
    0.0000    0.0000    0.0000 C   0  0  0  0  0  0  0  0  0  0  0  0
    1.2990    0.7500    0.0000 C   0  0  0  0  0  0  0  0  0  0  0  0
    2.5981   -0.0000    0.0000 C   0  0  0  0  0  0  0  0  0  0  0  0
    3.8971    0.7500    0.0000 C   0  0  0  0  0  0  0  0  0  0  0  0
    5.1962   -0.0000    0.0000 C   0  0  0  0  0  0  0  0  0  0  0  0
    3.8971    2.2500    0.0000 O   0  0  0  0  0  0  0  0  0  0  0  0
  1  2  2  0
  2  3  1  0
  3  4  1  0
  4  5  1  0
  4  6  2  0
M  END
>  <Title>  (847) 
idABEQgen13

$$$$

     RDKit          2D

 32 32  0  0  0  0  0  0  0  0999 V2000
   40.5000    0.0000    0.0000 C   0  0  0  0  0  0  0  0  0  0  0  0
   39.0000    0.0000    0.0000 C   0  0  0  0  0  0  0  0  0  0  0  0
   37.5000    0.0000    0.0000 C   0  0  0  0  0  0  0  0  0  0  0  0
   36.0000    0.0000    0.0000 C   0  0  0  0  0  0  0  0  0  0  0  0
   34.5000    0.0000    0.0000 C   0  0  0  0  0  0  0  0  0  0  0  0
   33.0000    0.0000    0.0000 C   0  0  0  0  0  0  0  0  0  0  0  0
   31.5000    0.0000    0.0000 C   0  0  0  0  0  0  0  0  0  0  0  0
   30.0000    0.0000    0.0000 C   0  0  0  0  0  0  0  0  0  0  0  0
   28.5000    0.0000    0.0000 C   0  0  0  0  0  0  0  0  0  0  0  0
   27.0000    0.0000    0.0000 C   0  0  0  0  0  0  0  0  0  0  0  0
   25.5000    0.0000    0.0000 C   0  0  0  0  0  0  0  0  0  0  0  0
   24.0000    0.0000    0.0000 C   0  0  0  0  0  0  0  0  0  0  0  0
   22.5000    0.0000    0.0000 C   0  0  0  0  0  0  0  0  0  0  0  0
   21.0000    0.0000    0.0000 C   0  0  0  0  0  0  0  0  0  0  0  0
   19.5000    0.0000    0.0000 C   0  0  0  0  0  0  0  0  0  0  0  0
   18.0000    0.0000    0.0000 C   0  0  0  0  0  0  0  0  0  0  0  0
   16.5000    0.0000    0.0000 C   0  0  0  0  0  0  0  0  0  0  0  0
   15.0000    0.0000    0.0000 C   0  0  0  0  0  0  0  0  0  0  0  0
   13.5000    0.0000    0.0000 C   0  0  0  0  0  0  0  0  0  0  0  0
   12.0000    0.0000    0.0000 C   0  0  0  0  0  0  0  0  0  0  0  0
   10.5000    0.0000    0.0000 C   0  0  0  0  0  0  0  0  0  0  0  0
    9.0000    0.0000    0.0000 C   0  0  0  0  0  0  0  0  0  0  0  0
    7.5000    0.0000    0.0000 C   0  0  0  0  0  0  0  0  0  0  0  0
    6.0000    0.0000    0.0000 C   0  0  0  0  0  0  0  0  0  0  0  0
    4.5000    0.0000    0.0000 C   0  0  0  0  0  0  0  0  0  0  0  0
    3.0000    0.0000    0.0000 C   0  0  0  0  0  0  0  0  0  0  0  0
    1.5000    0.0000    0.0000 C   0  0  0  0  0  0  0  0  0  0  0  0
    0.7500   -1.2990    0.0000 C   0  0  0  0  0  0  0  0  0  0  0  0
   -0.7500   -1.2990    0.0000 C   0  0  0  0  0  0  0  0  0  0  0  0
   -1.5000    0.0000    0.0000 C   0  0  0  0  0  0  0  0  0  0  0  0
   -0.7500    1.2990    0.0000 C   0  0  0  0  0  0  0  0  0  0  0  0
    0.7500    1.2990    0.0000 C   0  0  0  0  0  0  0  0  0  0  0  0
  1  2  3  0
  2  3  1  0
  3  4  3  0
  4  5  1  0
  5  6  3  0
  6  7  1  0
  7  8  3  0
  8  9  1  0
  9 10  3  0
 10 11  1  0
 11 12  3  0
 12 13  1  0
 13 14  3  0
 14 15  1  0
 15 16  3  0
 16 17  1  0
 17 18  3  0
 18 19  1  0
 19 20  3  0
 20 21  1  0
 21 22  3  0
 22 23  1  0
 23 24  3  0
 24 25  1  0
 25 26  3  0
 26 27  1  0
 27 28  2  0
 28 29  1  0
 29 30  2  0
 30 31  1  0
 31 32  2  0
 32 27  1  0
M  END
>  <Title>  (848) 
idABERgen13

$$$$

     RDKit          2D

 97100  0  0  0  0  0  0  0  0999 V2000
   -5.5766   -0.5106    0.0000 C   0  0  0  0  0  0  0  0  0  0  0  0
   -5.1928   -1.9607    0.0000 C   0  0  0  0  0  0  0  0  0  0  0  0
   -6.6277   -2.3978    0.0000 C   0  0  0  0  0  0  0  0  0  0  0  0
   -8.0264   -2.9396    0.0000 C   0  0  0  0  0  0  0  0  0  0  0  0
   -9.3813   -3.5833    0.0000 C   0  0  0  0  0  0  0  0  0  0  0  0
  -10.6849   -4.3253    0.0000 C   0  0  0  0  0  0  0  0  0  0  0  0
  -11.9302   -5.1615    0.0000 C   0  0  0  0  0  0  0  0  0  0  0  0
  -13.1103   -6.0875    0.0000 C   0  0  0  0  0  0  0  0  0  0  0  0
  -14.2188   -7.0980    0.0000 C   0  0  0  0  0  0  0  0  0  0  0  0
  -15.2497   -8.1876    0.0000 C   0  0  0  0  0  0  0  0  0  0  0  0
  -16.1973   -9.3505    0.0000 C   0  0  0  0  0  0  0  0  0  0  0  0
  -17.0564  -10.5801    0.0000 C   0  0  0  0  0  0  0  0  0  0  0  0
  -17.8223  -11.8698    0.0000 C   0  0  0  0  0  0  0  0  0  0  0  0
  -18.4909  -13.2125    0.0000 C   0  0  0  0  0  0  0  0  0  0  0  0
  -19.0585  -14.6010    0.0000 C   0  0  0  0  0  0  0  0  0  0  0  0
  -19.5221  -16.0275    0.0000 C   0  0  0  0  0  0  0  0  0  0  0  0
  -19.8790  -17.4845    0.0000 C   0  0  0  0  0  0  0  0  0  0  0  0
  -20.1273  -18.9638    0.0000 C   0  0  0  0  0  0  0  0  0  0  0  0
  -20.2657  -20.4574    0.0000 C   0  0  0  0  0  0  0  0  0  0  0  0
  -20.2934  -21.9571    0.0000 C   0  0  0  0  0  0  0  0  0  0  0  0
  -20.2103  -23.4548    0.0000 C   0  0  0  0  0  0  0  0  0  0  0  0
  -20.0168  -24.9423    0.0000 C   0  0  0  0  0  0  0  0  0  0  0  0
  -19.7140  -26.4114    0.0000 C   0  0  0  0  0  0  0  0  0  0  0  0
  -19.3035  -27.8541    0.0000 C   0  0  0  0  0  0  0  0  0  0  0  0
  -18.7876  -29.2626    0.0000 C   0  0  0  0  0  0  0  0  0  0  0  0
  -18.1690  -30.6291    0.0000 C   0  0  0  0  0  0  0  0  0  0  0  0
  -17.4513  -31.9463    0.0000 C   0  0  0  0  0  0  0  0  0  0  0  0
  -16.6382  -33.2068    0.0000 C   0  0  0  0  0  0  0  0  0  0  0  0
  -15.7342  -34.4038    0.0000 C   0  0  0  0  0  0  0  0  0  0  0  0
  -14.7443  -35.5308    0.0000 C   0  0  0  0  0  0  0  0  0  0  0  0
  -13.6739  -36.5816    0.0000 C   0  0  0  0  0  0  0  0  0  0  0  0
  -12.5288  -37.5505    0.0000 C   0  0  0  0  0  0  0  0  0  0  0  0
  -11.3153  -38.4322    0.0000 C   0  0  0  0  0  0  0  0  0  0  0  0
  -10.0400  -39.2218    0.0000 C   0  0  0  0  0  0  0  0  0  0  0  0
   -8.7098  -39.9151    0.0000 C   0  0  0  0  0  0  0  0  0  0  0  0
   -7.3321  -40.5083    0.0000 C   0  0  0  0  0  0  0  0  0  0  0  0
   -5.9143  -40.9981    0.0000 C   0  0  0  0  0  0  0  0  0  0  0  0
   -4.4642  -41.3819    0.0000 C   0  0  0  0  0  0  0  0  0  0  0  0
   -2.9898  -41.6575    0.0000 C   0  0  0  0  0  0  0  0  0  0  0  0
   -1.4990  -41.8235    0.0000 C   0  0  0  0  0  0  0  0  0  0  0  0
   -0.0000  -41.8789    0.0000 C   0  0  0  0  0  0  0  0  0  0  0  0
    1.4990  -41.8235    0.0000 C   0  0  0  0  0  0  0  0  0  0  0  0
    2.9898  -41.6575    0.0000 C   0  0  0  0  0  0  0  0  0  0  0  0
    4.4642  -41.3819    0.0000 C   0  0  0  0  0  0  0  0  0  0  0  0
    5.9143  -40.9981    0.0000 C   0  0  0  0  0  0  0  0  0  0  0  0
    7.3321  -40.5083    0.0000 C   0  0  0  0  0  0  0  0  0  0  0  0
    8.7098  -39.9151    0.0000 C   0  0  0  0  0  0  0  0  0  0  0  0
   10.0400  -39.2218    0.0000 C   0  0  0  0  0  0  0  0  0  0  0  0
   11.3153  -38.4322    0.0000 C   0  0  0  0  0  0  0  0  0  0  0  0
   12.5288  -37.5505    0.0000 C   0  0  0  0  0  0  0  0  0  0  0  0
   13.6739  -36.5816    0.0000 C   0  0  0  0  0  0  0  0  0  0  0  0
   14.7443  -35.5308    0.0000 C   0  0  0  0  0  0  0  0  0  0  0  0
   15.7342  -34.4038    0.0000 C   0  0  0  0  0  0  0  0  0  0  0  0
   16.6382  -33.2068    0.0000 C   0  0  0  0  0  0  0  0  0  0  0  0
   17.4513  -31.9463    0.0000 C   0  0  0  0  0  0  0  0  0  0  0  0
   18.1690  -30.6291    0.0000 C   0  0  0  0  0  0  0  0  0  0  0  0
   18.7876  -29.2626    0.0000 C   0  0  0  0  0  0  0  0  0  0  0  0
   19.3035  -27.8541    0.0000 C   0  0  0  0  0  0  0  0  0  0  0  0
   19.7140  -26.4114    0.0000 C   0  0  0  0  0  0  0  0  0  0  0  0
   20.0168  -24.9423    0.0000 C   0  0  0  0  0  0  0  0  0  0  0  0
   20.2103  -23.4548    0.0000 C   0  0  0  0  0  0  0  0  0  0  0  0
   20.2934  -21.9571    0.0000 C   0  0  0  0  0  0  0  0  0  0  0  0
   20.2657  -20.4574    0.0000 C   0  0  0  0  0  0  0  0  0  0  0  0
   20.1273  -18.9638    0.0000 C   0  0  0  0  0  0  0  0  0  0  0  0
   19.8790  -17.4845    0.0000 C   0  0  0  0  0  0  0  0  0  0  0  0
   19.5221  -16.0275    0.0000 C   0  0  0  0  0  0  0  0  0  0  0  0
   19.0585  -14.6010    0.0000 C   0  0  0  0  0  0  0  0  0  0  0  0
   18.4909  -13.2125    0.0000 C   0  0  0  0  0  0  0  0  0  0  0  0
   17.8223  -11.8698    0.0000 C   0  0  0  0  0  0  0  0  0  0  0  0
   17.0564  -10.5801    0.0000 C   0  0  0  0  0  0  0  0  0  0  0  0
   16.1973   -9.3505    0.0000 C   0  0  0  0  0  0  0  0  0  0  0  0
   15.2497   -8.1876    0.0000 C   0  0  0  0  0  0  0  0  0  0  0  0
   14.2188   -7.0980    0.0000 C   0  0  0  0  0  0  0  0  0  0  0  0
   13.1103   -6.0875    0.0000 C   0  0  0  0  0  0  0  0  0  0  0  0
   11.9302   -5.1615    0.0000 C   0  0  0  0  0  0  0  0  0  0  0  0
   10.6849   -4.3253    0.0000 C   0  0  0  0  0  0  0  0  0  0  0  0
    9.3813   -3.5833    0.0000 C   0  0  0  0  0  0  0  0  0  0  0  0
    8.0264   -2.9396    0.0000 C   0  0  0  0  0  0  0  0  0  0  0  0
    6.6277   -2.3978    0.0000 C   0  0  0  0  0  0  0  0  0  0  0  0
    5.1928   -1.9607    0.0000 C   0  0  0  0  0  0  0  0  0  0  0  0
    3.7295   -1.6308    0.0000 C   0  0  0  0  0  0  0  0  0  0  0  0
    3.9779   -3.1101    0.0000 C   0  0  0  0  0  0  0  0  0  0  0  0
    2.6477   -3.8034    0.0000 C   0  0  0  0  0  0  0  0  0  0  0  0
    1.5773   -2.7526    0.0000 C   0  0  0  0  0  0  0  0  0  0  0  0
    2.2459   -1.4098    0.0000 C   0  0  0  0  0  0  0  0  0  0  0  0
    0.7500   -1.2990    0.0000 C   0  0  0  0  0  0  0  0  0  0  0  0
    1.5000    0.0000    0.0000 C   0  0  0  0  0  0  0  0  0  0  0  0
    0.7500    1.2990    0.0000 C   0  0  0  0  0  0  0  0  0  0  0  0
   -0.7500    1.2990    0.0000 C   0  0  0  0  0  0  0  0  0  0  0  0
   -1.5000    0.0000    0.0000 C   0  0  0  0  0  0  0  0  0  0  0  0
   -0.7500   -1.2990    0.0000 C   0  0  0  0  0  0  0  0  0  0  0  0
   -2.2459   -1.4098    0.0000 C   0  0  0  0  0  0  0  0  0  0  0  0
   -1.3127   -2.5842    0.0000 C   0  0  0  0  0  0  0  0  0  0  0  0
   -1.8632   -3.9796    0.0000 C   0  0  0  0  0  0  0  0  0  0  0  0
   -3.3468   -4.2005    0.0000 C   0  0  0  0  0  0  0  0  0  0  0  0
   -4.2800   -3.0261    0.0000 C   0  0  0  0  0  0  0  0  0  0  0  0
   -3.7295   -1.6308    0.0000 C   0  0  0  0  0  0  0  0  0  0  0  0
  1  2  1  0
  2  3  1  0
  3  4  1  0
  4  5  1  0
  5  6  1  0
  6  7  1  0
  7  8  1  0
  8  9  1  0
  9 10  1  0
 10 11  1  0
 11 12  1  0
 12 13  1  0
 13 14  1  0
 14 15  1  0
 15 16  1  0
 16 17  1  0
 17 18  1  0
 18 19  1  0
 19 20  1  0
 20 21  1  0
 21 22  1  0
 22 23  1  0
 23 24  1  0
 24 25  1  0
 25 26  1  0
 26 27  1  0
 27 28  1  0
 28 29  1  0
 29 30  1  0
 30 31  1  0
 31 32  1  0
 32 33  1  0
 33 34  1  0
 34 35  1  0
 35 36  1  0
 36 37  1  0
 37 38  1  0
 38 39  1  0
 39 40  1  0
 40 41  1  0
 41 42  1  0
 42 43  1  0
 43 44  1  0
 44 45  1  0
 45 46  1  0
 46 47  1  0
 47 48  1  0
 48 49  1  0
 49 50  1  0
 50 51  1  0
 51 52  1  0
 52 53  1  0
 53 54  1  0
 54 55  1  0
 55 56  1  0
 56 57  2  0
 57 58  1  0
 58 59  2  0
 59 60  1  0
 60 61  2  0
 61 62  1  0
 62 63  2  0
 63 64  1  0
 64 65  2  0
 65 66  1  0
 66 67  2  0
 67 68  1  0
 68 69  2  0
 69 70  1  0
 70 71  2  0
 71 72  1  0
 72 73  2  0
 73 74  1  0
 74 75  2  0
 75 76  1  0
 76 77  2  0
 77 78  1  0
 78 79  2  0
 79 80  1  0
 80 81  2  0
 81 82  1  0
 82 83  2  0
 83 84  1  0
 84 85  2  0
 85 86  1  0
 86 87  2  0
 87 88  1  0
 88 89  2  0
 89 90  1  0
 90 91  2  0
 91 92  1  0
 92 93  2  0
 93 94  1  0
 94 95  2  0
 95 96  1  0
 96 97  2  0
 97  2  1  0
 85 81  1  0
 91 86  1  0
 97 92  1  0
M  END
>  <Title>  (849) 
idABESgen13

$$$$

     RDKit          2D

 96 97  0  0  0  0  0  0  0  0999 V2000
   -2.1720   -1.0816    0.0000 C   0  0  0  0  0  0  0  0  0  0  0  0
   -2.4872    0.3849    0.0000 C   0  0  0  0  0  0  0  0  0  0  0  0
   -3.9636    0.1200    0.0000 C   0  0  0  0  0  0  0  0  0  0  0  0
   -5.4546   -0.0436    0.0000 C   0  0  0  0  0  0  0  0  0  0  0  0
   -6.9534   -0.1051    0.0000 C   0  0  0  0  0  0  0  0  0  0  0  0
   -8.4528   -0.0641    0.0000 C   0  0  0  0  0  0  0  0  0  0  0  0
   -9.9460    0.0791    0.0000 C   0  0  0  0  0  0  0  0  0  0  0  0
  -11.4259    0.3239    0.0000 C   0  0  0  0  0  0  0  0  0  0  0  0
  -12.8856    0.6690    0.0000 C   0  0  0  0  0  0  0  0  0  0  0  0
  -14.3184    1.1130    0.0000 C   0  0  0  0  0  0  0  0  0  0  0  0
  -15.7175    1.6538    0.0000 C   0  0  0  0  0  0  0  0  0  0  0  0
  -17.0765    2.2887    0.0000 C   0  0  0  0  0  0  0  0  0  0  0  0
  -18.3890    3.0150    0.0000 C   0  0  0  0  0  0  0  0  0  0  0  0
  -19.6489    3.8291    0.0000 C   0  0  0  0  0  0  0  0  0  0  0  0
  -20.8502    4.7272    0.0000 C   0  0  0  0  0  0  0  0  0  0  0  0
  -21.9875    5.7053    0.0000 C   0  0  0  0  0  0  0  0  0  0  0  0
  -23.0554    6.7587    0.0000 C   0  0  0  0  0  0  0  0  0  0  0  0
  -24.0489    7.8825    0.0000 C   0  0  0  0  0  0  0  0  0  0  0  0
  -24.9634    9.0715    0.0000 C   0  0  0  0  0  0  0  0  0  0  0  0
  -25.7946   10.3201    0.0000 C   0  0  0  0  0  0  0  0  0  0  0  0
  -26.5387   11.6225    0.0000 C   0  0  0  0  0  0  0  0  0  0  0  0
  -27.1922   12.9727    0.0000 C   0  0  0  0  0  0  0  0  0  0  0  0
  -27.7519   14.3643    0.0000 C   0  0  0  0  0  0  0  0  0  0  0  0
  -28.2155   15.7909    0.0000 C   0  0  0  0  0  0  0  0  0  0  0  0
  -28.5806   17.2458    0.0000 C   0  0  0  0  0  0  0  0  0  0  0  0
  -28.8455   18.7222    0.0000 C   0  0  0  0  0  0  0  0  0  0  0  0
  -29.0091   20.2133    0.0000 C   0  0  0  0  0  0  0  0  0  0  0  0
  -29.0706   21.7120    0.0000 C   0  0  0  0  0  0  0  0  0  0  0  0
  -29.0296   23.2115    0.0000 C   0  0  0  0  0  0  0  0  0  0  0  0
  -28.8864   24.7046    0.0000 C   0  0  0  0  0  0  0  0  0  0  0  0
  -28.6416   26.1845    0.0000 C   0  0  0  0  0  0  0  0  0  0  0  0
  -28.2964   27.6443    0.0000 C   0  0  0  0  0  0  0  0  0  0  0  0
  -27.8524   29.0770    0.0000 C   0  0  0  0  0  0  0  0  0  0  0  0
  -27.3117   30.4762    0.0000 C   0  0  0  0  0  0  0  0  0  0  0  0
  -26.6767   31.8352    0.0000 C   0  0  0  0  0  0  0  0  0  0  0  0
  -25.9505   33.1476    0.0000 C   0  0  0  0  0  0  0  0  0  0  0  0
  -25.1364   34.4075    0.0000 C   0  0  0  0  0  0  0  0  0  0  0  0
  -24.2383   35.6089    0.0000 C   0  0  0  0  0  0  0  0  0  0  0  0
  -23.2602   36.7462    0.0000 C   0  0  0  0  0  0  0  0  0  0  0  0
  -22.2068   37.8140    0.0000 C   0  0  0  0  0  0  0  0  0  0  0  0
  -21.0830   38.8075    0.0000 C   0  0  0  0  0  0  0  0  0  0  0  0
  -19.8940   39.7220    0.0000 C   0  0  0  0  0  0  0  0  0  0  0  0
  -18.6454   40.5533    0.0000 C   0  0  0  0  0  0  0  0  0  0  0  0
  -17.3429   41.2973    0.0000 C   0  0  0  0  0  0  0  0  0  0  0  0
  -15.9928   41.9508    0.0000 C   0  0  0  0  0  0  0  0  0  0  0  0
  -14.6011   42.5106    0.0000 C   0  0  0  0  0  0  0  0  0  0  0  0
  -13.1745   42.9741    0.0000 C   0  0  0  0  0  0  0  0  0  0  0  0
  -11.7197   43.3392    0.0000 C   0  0  0  0  0  0  0  0  0  0  0  0
  -10.2432   43.6042    0.0000 C   0  0  0  0  0  0  0  0  0  0  0  0
   -8.7522   43.7678    0.0000 C   0  0  0  0  0  0  0  0  0  0  0  0
   -7.2534   43.8292    0.0000 C   0  0  0  0  0  0  0  0  0  0  0  0
   -5.7540   43.7882    0.0000 C   0  0  0  0  0  0  0  0  0  0  0  0
   -4.2609   43.6450    0.0000 C   0  0  0  0  0  0  0  0  0  0  0  0
   -2.7810   43.4003    0.0000 C   0  0  0  0  0  0  0  0  0  0  0  0
   -1.3212   43.0551    0.0000 C   0  0  0  0  0  0  0  0  0  0  0  0
    0.1116   42.6111    0.0000 C   0  0  0  0  0  0  0  0  0  0  0  0
    1.5107   42.0703    0.0000 C   0  0  0  0  0  0  0  0  0  0  0  0
    2.8697   41.4354    0.0000 C   0  0  0  0  0  0  0  0  0  0  0  0
    4.1822   40.7092    0.0000 C   0  0  0  0  0  0  0  0  0  0  0  0
    5.4420   39.8951    0.0000 C   0  0  0  0  0  0  0  0  0  0  0  0
    6.6434   38.9969    0.0000 C   0  0  0  0  0  0  0  0  0  0  0  0
    7.7807   38.0188    0.0000 C   0  0  0  0  0  0  0  0  0  0  0  0
    8.8486   36.9654    0.0000 C   0  0  0  0  0  0  0  0  0  0  0  0
    9.8421   35.8416    0.0000 C   0  0  0  0  0  0  0  0  0  0  0  0
   10.7566   34.6526    0.0000 C   0  0  0  0  0  0  0  0  0  0  0  0
   11.5878   33.4040    0.0000 C   0  0  0  0  0  0  0  0  0  0  0  0
   12.3319   32.1016    0.0000 C   0  0  0  0  0  0  0  0  0  0  0  0
   12.9853   30.7514    0.0000 C   0  0  0  0  0  0  0  0  0  0  0  0
   13.5451   29.3598    0.0000 C   0  0  0  0  0  0  0  0  0  0  0  0
   14.0086   27.9332    0.0000 C   0  0  0  0  0  0  0  0  0  0  0  0
   14.3737   26.4783    0.0000 C   0  0  0  0  0  0  0  0  0  0  0  0
   14.6387   25.0019    0.0000 C   0  0  0  0  0  0  0  0  0  0  0  0
   14.8023   23.5108    0.0000 C   0  0  0  0  0  0  0  0  0  0  0  0
   14.8637   22.0121    0.0000 C   0  0  0  0  0  0  0  0  0  0  0  0
   14.8228   20.5126    0.0000 C   0  0  0  0  0  0  0  0  0  0  0  0
   14.6796   19.0195    0.0000 C   0  0  0  0  0  0  0  0  0  0  0  0
   14.4348   17.5396    0.0000 C   0  0  0  0  0  0  0  0  0  0  0  0
   14.0896   16.0799    0.0000 C   0  0  0  0  0  0  0  0  0  0  0  0
   13.6456   14.6471    0.0000 C   0  0  0  0  0  0  0  0  0  0  0  0
   13.1049   13.2479    0.0000 C   0  0  0  0  0  0  0  0  0  0  0  0
   12.4699   11.8890    0.0000 C   0  0  0  0  0  0  0  0  0  0  0  0
   11.7437   10.5765    0.0000 C   0  0  0  0  0  0  0  0  0  0  0  0
   10.9296    9.3166    0.0000 C   0  0  0  0  0  0  0  0  0  0  0  0
   10.0314    8.1152    0.0000 C   0  0  0  0  0  0  0  0  0  0  0  0
    9.0534    6.9780    0.0000 C   0  0  0  0  0  0  0  0  0  0  0  0
    8.0000    5.9101    0.0000 C   0  0  0  0  0  0  0  0  0  0  0  0
    6.8762    4.9166    0.0000 C   0  0  0  0  0  0  0  0  0  0  0  0
    5.6872    4.0021    0.0000 C   0  0  0  0  0  0  0  0  0  0  0  0
    4.4385    3.1709    0.0000 C   0  0  0  0  0  0  0  0  0  0  0  0
    3.1361    2.4268    0.0000 C   0  0  0  0  0  0  0  0  0  0  0  0
    1.7859    1.7733    0.0000 C   0  0  0  0  0  0  0  0  0  0  0  0
    0.3943    1.2135    0.0000 C   0  0  0  0  0  0  0  0  0  0  0  0
    1.2760    0.0000    0.0000 C   0  0  0  0  0  0  0  0  0  0  0  0
    0.3943   -1.2135    0.0000 C   0  0  0  0  0  0  0  0  0  0  0  0
   -1.0323   -0.7500    0.0000 C   0  0  0  0  0  0  0  0  0  0  0  0
   -1.0323    0.7500    0.0000 C   0  0  0  0  0  0  0  0  0  0  0  0
  1  2  1  0
  2  3  1  0
  3  4  1  0
  4  5  1  0
  5  6  1  0
  6  7  1  0
  7  8  1  0
  8  9  1  0
  9 10  1  0
 10 11  1  0
 11 12  1  0
 12 13  1  0
 13 14  1  0
 14 15  1  0
 15 16  1  0
 16 17  1  0
 17 18  1  0
 18 19  1  0
 19 20  1  0
 20 21  1  0
 21 22  1  0
 22 23  1  0
 23 24  1  0
 24 25  1  0
 25 26  1  0
 26 27  1  0
 27 28  1  0
 28 29  1  0
 29 30  1  0
 30 31  1  0
 31 32  1  0
 32 33  1  0
 33 34  1  0
 34 35  1  0
 35 36  1  0
 36 37  1  0
 37 38  1  0
 38 39  1  0
 39 40  1  0
 40 41  1  0
 41 42  1  0
 42 43  1  0
 43 44  1  0
 44 45  1  0
 45 46  1  0
 46 47  1  0
 47 48  1  0
 48 49  1  0
 49 50  1  0
 50 51  1  0
 51 52  1  0
 52 53  1  0
 53 54  1  0
 54 55  1  0
 55 56  1  0
 56 57  1  0
 57 58  1  0
 58 59  1  0
 59 60  1  0
 60 61  1  0
 61 62  1  0
 62 63  1  0
 63 64  1  0
 64 65  1  0
 65 66  1  0
 66 67  1  0
 67 68  1  0
 68 69  1  0
 69 70  1  0
 70 71  1  0
 71 72  1  0
 72 73  1  0
 73 74  1  0
 74 75  1  0
 75 76  1  0
 76 77  1  0
 77 78  1  0
 78 79  1  0
 79 80  1  0
 80 81  1  0
 81 82  1  0
 82 83  1  0
 83 84  1  0
 84 85  1  0
 85 86  1  0
 86 87  1  0
 87 88  1  0
 88 89  1  0
 89 90  1  0
 90 91  1  0
 91 92  1  0
 92 93  1  0
 93 94  2  0
 94 95  1  0
 95 96  2  0
 96  2  1  0
 96 92  1  0
M  END
>  <Title>  (850) 
idABETgen13

$$$$

     RDKit          2D

  8  8  0  0  0  0  0  0  0  0999 V2000
    3.7500   -1.2990    0.0000 C   0  0  0  0  0  0  0  0  0  0  0  0
    3.0000    0.0000    0.0000 C   0  0  0  0  0  0  0  0  0  0  0  0
    1.5000    0.0000    0.0000 C   0  0  0  0  0  0  0  0  0  0  0  0
    0.7500   -1.2990    0.0000 C   0  0  0  0  0  0  0  0  0  0  0  0
   -0.7500   -1.2990    0.0000 C   0  0  0  0  0  0  0  0  0  0  0  0
   -1.5000    0.0000    0.0000 C   0  0  0  0  0  0  0  0  0  0  0  0
   -0.7500    1.2990    0.0000 C   0  0  0  0  0  0  0  0  0  0  0  0
    0.7500    1.2990    0.0000 C   0  0  0  0  0  0  0  0  0  0  0  0
  1  2  1  0
  2  3  1  0
  3  4  2  0
  4  5  1  0
  5  6  2  0
  6  7  1  0
  7  8  2  0
  8  3  1  0
M  END
>  <Title>  (851) 
idABEUgen13

$$$$

     RDKit          2D

 80 83  0  0  0  0  0  0  0  0999 V2000
   -5.6375   -0.7013    0.0000 C   0  0  0  0  0  0  0  0  0  0  0  0
   -5.1608   -2.1236    0.0000 C   0  0  0  0  0  0  0  0  0  0  0  0
   -6.5595   -2.6654    0.0000 C   0  0  0  0  0  0  0  0  0  0  0  0
   -7.9023   -3.3340    0.0000 C   0  0  0  0  0  0  0  0  0  0  0  0
   -9.1776   -4.1237    0.0000 C   0  0  0  0  0  0  0  0  0  0  0  0
  -10.3746   -5.0276    0.0000 C   0  0  0  0  0  0  0  0  0  0  0  0
  -11.4831   -6.0382    0.0000 C   0  0  0  0  0  0  0  0  0  0  0  0
  -12.4937   -7.1467    0.0000 C   0  0  0  0  0  0  0  0  0  0  0  0
  -13.3976   -8.3437    0.0000 C   0  0  0  0  0  0  0  0  0  0  0  0
  -14.1873   -9.6190    0.0000 C   0  0  0  0  0  0  0  0  0  0  0  0
  -14.8559  -10.9618    0.0000 C   0  0  0  0  0  0  0  0  0  0  0  0
  -15.3977  -12.3605    0.0000 C   0  0  0  0  0  0  0  0  0  0  0  0
  -15.8082  -13.8032    0.0000 C   0  0  0  0  0  0  0  0  0  0  0  0
  -16.0839  -15.2777    0.0000 C   0  0  0  0  0  0  0  0  0  0  0  0
  -16.2223  -16.7713    0.0000 C   0  0  0  0  0  0  0  0  0  0  0  0
  -16.2223  -18.2713    0.0000 C   0  0  0  0  0  0  0  0  0  0  0  0
  -16.0839  -19.7649    0.0000 C   0  0  0  0  0  0  0  0  0  0  0  0
  -15.8082  -21.2394    0.0000 C   0  0  0  0  0  0  0  0  0  0  0  0
  -15.3977  -22.6821    0.0000 C   0  0  0  0  0  0  0  0  0  0  0  0
  -14.8559  -24.0808    0.0000 C   0  0  0  0  0  0  0  0  0  0  0  0
  -14.1873  -25.4235    0.0000 C   0  0  0  0  0  0  0  0  0  0  0  0
  -13.3976  -26.6989    0.0000 C   0  0  0  0  0  0  0  0  0  0  0  0
  -12.4937  -27.8959    0.0000 C   0  0  0  0  0  0  0  0  0  0  0  0
  -11.4831  -29.0044    0.0000 C   0  0  0  0  0  0  0  0  0  0  0  0
  -10.3746  -30.0150    0.0000 C   0  0  0  0  0  0  0  0  0  0  0  0
   -9.1776  -30.9189    0.0000 C   0  0  0  0  0  0  0  0  0  0  0  0
   -7.9023  -31.7086    0.0000 C   0  0  0  0  0  0  0  0  0  0  0  0
   -6.5595  -32.3772    0.0000 C   0  0  0  0  0  0  0  0  0  0  0  0
   -5.1608  -32.9190    0.0000 C   0  0  0  0  0  0  0  0  0  0  0  0
   -3.7181  -33.3295    0.0000 C   0  0  0  0  0  0  0  0  0  0  0  0
   -2.2436  -33.6051    0.0000 C   0  0  0  0  0  0  0  0  0  0  0  0
   -0.7500  -33.7435    0.0000 C   0  0  0  0  0  0  0  0  0  0  0  0
    0.7500  -33.7435    0.0000 C   0  0  0  0  0  0  0  0  0  0  0  0
    2.2436  -33.6051    0.0000 C   0  0  0  0  0  0  0  0  0  0  0  0
    3.7181  -33.3295    0.0000 C   0  0  0  0  0  0  0  0  0  0  0  0
    5.1608  -32.9190    0.0000 C   0  0  0  0  0  0  0  0  0  0  0  0
    6.5595  -32.3772    0.0000 C   0  0  0  0  0  0  0  0  0  0  0  0
    7.9023  -31.7086    0.0000 C   0  0  0  0  0  0  0  0  0  0  0  0
    9.1776  -30.9189    0.0000 C   0  0  0  0  0  0  0  0  0  0  0  0
   10.3746  -30.0150    0.0000 C   0  0  0  0  0  0  0  0  0  0  0  0
   11.4831  -29.0044    0.0000 C   0  0  0  0  0  0  0  0  0  0  0  0
   12.4937  -27.8959    0.0000 C   0  0  0  0  0  0  0  0  0  0  0  0
   13.3976  -26.6989    0.0000 C   0  0  0  0  0  0  0  0  0  0  0  0
   14.1873  -25.4235    0.0000 C   0  0  0  0  0  0  0  0  0  0  0  0
   14.8559  -24.0808    0.0000 C   0  0  0  0  0  0  0  0  0  0  0  0
   15.3977  -22.6821    0.0000 C   0  0  0  0  0  0  0  0  0  0  0  0
   15.8082  -21.2394    0.0000 C   0  0  0  0  0  0  0  0  0  0  0  0
   16.0839  -19.7649    0.0000 C   0  0  0  0  0  0  0  0  0  0  0  0
   16.2223  -18.2713    0.0000 C   0  0  0  0  0  0  0  0  0  0  0  0
   16.2223  -16.7713    0.0000 C   0  0  0  0  0  0  0  0  0  0  0  0
   16.0839  -15.2777    0.0000 C   0  0  0  0  0  0  0  0  0  0  0  0
   15.8082  -13.8032    0.0000 C   0  0  0  0  0  0  0  0  0  0  0  0
   15.3977  -12.3605    0.0000 C   0  0  0  0  0  0  0  0  0  0  0  0
   14.8559  -10.9618    0.0000 C   0  0  0  0  0  0  0  0  0  0  0  0
   14.1873   -9.6190    0.0000 C   0  0  0  0  0  0  0  0  0  0  0  0
   13.3976   -8.3437    0.0000 C   0  0  0  0  0  0  0  0  0  0  0  0
   12.4937   -7.1467    0.0000 C   0  0  0  0  0  0  0  0  0  0  0  0
   11.4831   -6.0382    0.0000 C   0  0  0  0  0  0  0  0  0  0  0  0
   10.3746   -5.0276    0.0000 C   0  0  0  0  0  0  0  0  0  0  0  0
    9.1776   -4.1237    0.0000 C   0  0  0  0  0  0  0  0  0  0  0  0
    7.9023   -3.3340    0.0000 C   0  0  0  0  0  0  0  0  0  0  0  0
    6.5595   -2.6654    0.0000 C   0  0  0  0  0  0  0  0  0  0  0  0
    5.1608   -2.1236    0.0000 C   0  0  0  0  0  0  0  0  0  0  0  0
    3.7181   -1.7131    0.0000 C   0  0  0  0  0  0  0  0  0  0  0  0
    3.9116   -3.2005    0.0000 C   0  0  0  0  0  0  0  0  0  0  0  0
    2.5567   -3.8442    0.0000 C   0  0  0  0  0  0  0  0  0  0  0  0
    1.5258   -2.7546    0.0000 C   0  0  0  0  0  0  0  0  0  0  0  0
    2.2436   -1.4374    0.0000 C   0  0  0  0  0  0  0  0  0  0  0  0
    0.7500   -1.2990    0.0000 C   0  0  0  0  0  0  0  0  0  0  0  0
    1.5000    0.0000    0.0000 C   0  0  0  0  0  0  0  0  0  0  0  0
    0.7500    1.2990    0.0000 C   0  0  0  0  0  0  0  0  0  0  0  0
   -0.7500    1.2990    0.0000 C   0  0  0  0  0  0  0  0  0  0  0  0
   -1.5000    0.0000    0.0000 C   0  0  0  0  0  0  0  0  0  0  0  0
   -0.7500   -1.2990    0.0000 C   0  0  0  0  0  0  0  0  0  0  0  0
   -2.2436   -1.4374    0.0000 C   0  0  0  0  0  0  0  0  0  0  0  0
   -1.2677   -2.5765    0.0000 C   0  0  0  0  0  0  0  0  0  0  0  0
   -1.7662   -3.9913    0.0000 C   0  0  0  0  0  0  0  0  0  0  0  0
   -3.2407   -4.2669    0.0000 C   0  0  0  0  0  0  0  0  0  0  0  0
   -4.2166   -3.1278    0.0000 C   0  0  0  0  0  0  0  0  0  0  0  0
   -3.7181   -1.7131    0.0000 C   0  0  0  0  0  0  0  0  0  0  0  0
  1  2  1  0
  2  3  1  0
  3  4  1  0
  4  5  1  0
  5  6  1  0
  6  7  1  0
  7  8  1  0
  8  9  1  0
  9 10  1  0
 10 11  1  0
 11 12  1  0
 12 13  1  0
 13 14  1  0
 14 15  1  0
 15 16  1  0
 16 17  1  0
 17 18  1  0
 18 19  1  0
 19 20  1  0
 20 21  1  0
 21 22  1  0
 22 23  1  0
 23 24  1  0
 24 25  1  0
 25 26  1  0
 26 27  1  0
 27 28  1  0
 28 29  1  0
 29 30  1  0
 30 31  1  0
 31 32  1  0
 32 33  1  0
 33 34  1  0
 34 35  1  0
 35 36  1  0
 36 37  1  0
 37 38  1  0
 38 39  1  0
 39 40  1  0
 40 41  1  0
 41 42  1  0
 42 43  1  0
 43 44  1  0
 44 45  1  0
 45 46  1  0
 46 47  1  0
 47 48  1  0
 48 49  1  0
 49 50  1  0
 50 51  1  0
 51 52  1  0
 52 53  1  0
 53 54  1  0
 54 55  1  0
 55 56  1  0
 56 57  1  0
 57 58  1  0
 58 59  1  0
 59 60  2  0
 60 61  1  0
 61 62  2  0
 62 63  1  0
 63 64  2  0
 64 65  1  0
 65 66  2  0
 66 67  1  0
 67 68  2  0
 68 69  1  0
 69 70  2  0
 70 71  1  0
 71 72  2  0
 72 73  1  0
 73 74  2  0
 74 75  1  0
 75 76  2  0
 76 77  1  0
 77 78  2  0
 78 79  1  0
 79 80  2  0
 80  2  1  0
 68 64  1  0
 74 69  1  0
 80 75  1  0
M  END
>  <Title>  (852) 
idABEVgen13

$$$$

     RDKit          2D

 40 39  0  0  0  0  0  0  0  0999 V2000
    0.0000    0.0000    0.0000 C   0  0  0  0  0  0  0  0  0  0  0  0
   -0.0000   -1.5000    0.0000 C   0  0  0  0  0  0  0  0  0  0  0  0
   -0.0000   -3.0000    0.0000 C   0  0  0  0  0  0  0  0  0  0  0  0
   -0.0000   -4.5000    0.0000 C   0  0  0  0  0  0  0  0  0  0  0  0
   -0.0000   -6.0000    0.0000 C   0  0  0  0  0  0  0  0  0  0  0  0
   -0.0000   -7.5000    0.0000 C   0  0  0  0  0  0  0  0  0  0  0  0
   -0.0000   -9.0000    0.0000 C   0  0  0  0  0  0  0  0  0  0  0  0
   -0.0000  -10.5000    0.0000 C   0  0  0  0  0  0  0  0  0  0  0  0
   -0.0000  -12.0000    0.0000 C   0  0  0  0  0  0  0  0  0  0  0  0
   -0.0000  -13.5000    0.0000 C   0  0  0  0  0  0  0  0  0  0  0  0
   -0.0000  -15.0000    0.0000 C   0  0  0  0  0  0  0  0  0  0  0  0
   -0.0000  -16.5000    0.0000 C   0  0  0  0  0  0  0  0  0  0  0  0
   -0.0000  -18.0000    0.0000 C   0  0  0  0  0  0  0  0  0  0  0  0
   -0.0000  -19.5000    0.0000 C   0  0  0  0  0  0  0  0  0  0  0  0
   -0.0000  -21.0000    0.0000 C   0  0  0  0  0  0  0  0  0  0  0  0
   -0.0000  -22.5000    0.0000 C   0  0  0  0  0  0  0  0  0  0  0  0
   -0.0000  -24.0000    0.0000 C   0  0  0  0  0  0  0  0  0  0  0  0
   -0.0000  -25.5000    0.0000 C   0  0  0  0  0  0  0  0  0  0  0  0
   -0.0000  -27.0000    0.0000 C   0  0  0  0  0  0  0  0  0  0  0  0
   -0.0000  -28.5000    0.0000 C   0  0  0  0  0  0  0  0  0  0  0  0
   -0.0000  -30.0000    0.0000 C   0  0  0  0  0  0  0  0  0  0  0  0
   -0.0000  -31.5000    0.0000 C   0  0  0  0  0  0  0  0  0  0  0  0
   -0.0000  -33.0000    0.0000 C   0  0  0  0  0  0  0  0  0  0  0  0
   -0.0000  -34.5000    0.0000 C   0  0  0  0  0  0  0  0  0  0  0  0
   -0.0000  -36.0000    0.0000 C   0  0  0  0  0  0  0  0  0  0  0  0
   -0.0000  -37.5000    0.0000 C   0  0  0  0  0  0  0  0  0  0  0  0
   -0.0000  -39.0000    0.0000 C   0  0  0  0  0  0  0  0  0  0  0  0
   -0.0000  -40.5000    0.0000 C   0  0  0  0  0  0  0  0  0  0  0  0
   -0.0000  -42.0000    0.0000 C   0  0  0  0  0  0  0  0  0  0  0  0
   -0.0000  -43.5000    0.0000 C   0  0  0  0  0  0  0  0  0  0  0  0
   -0.0000  -45.0000    0.0000 C   0  0  0  0  0  0  0  0  0  0  0  0
   -0.0000  -46.5000    0.0000 C   0  0  0  0  0  0  0  0  0  0  0  0
   -0.0000  -48.0000    0.0000 C   0  0  0  0  0  0  0  0  0  0  0  0
   -0.0000  -49.5000    0.0000 C   0  0  0  0  0  0  0  0  0  0  0  0
   -0.0000  -51.0000    0.0000 C   0  0  0  0  0  0  0  0  0  0  0  0
   -0.0000  -52.5000    0.0000 C   0  0  0  0  0  0  0  0  0  0  0  0
   -0.0000  -54.0000    0.0000 C   0  0  0  0  0  0  0  0  0  0  0  0
   -0.0000  -55.5000    0.0000 C   0  0  0  0  0  0  0  0  0  0  0  0
   -0.0000  -57.0000    0.0000 C   0  0  0  0  0  0  0  0  0  0  0  0
    1.2990  -57.7500    0.0000 C   0  0  0  0  0  0  0  0  0  0  0  0
  1  2  3  0
  2  3  1  0
  3  4  3  0
  4  5  1  0
  5  6  3  0
  6  7  1  0
  7  8  3  0
  8  9  1  0
  9 10  3  0
 10 11  1  0
 11 12  3  0
 12 13  1  0
 13 14  3  0
 14 15  1  0
 15 16  3  0
 16 17  1  0
 17 18  3  0
 18 19  1  0
 19 20  3  0
 20 21  1  0
 21 22  3  0
 22 23  1  0
 23 24  3  0
 24 25  1  0
 25 26  3  0
 26 27  1  0
 27 28  3  0
 28 29  1  0
 29 30  3  0
 30 31  1  0
 31 32  3  0
 32 33  1  0
 33 34  3  0
 34 35  1  0
 35 36  3  0
 36 37  1  0
 37 38  3  0
 38 39  1  0
 39 40  2  0
M  END
>  <Title>  (853) 
idABEWgen13

$$$$

     RDKit          2D

 20 22  0  0  0  0  0  0  0  0999 V2000
   -3.0000   -2.5981    0.0000 C   0  0  0  0  0  0  0  0  0  0  0  0
   -1.5000   -2.5981    0.0000 C   0  0  0  0  0  0  0  0  0  0  0  0
   -0.7500   -3.8971    0.0000 C   0  0  0  0  0  0  0  0  0  0  0  0
    0.7500   -3.8971    0.0000 C   0  0  0  0  0  0  0  0  0  0  0  0
    1.5000   -2.5981    0.0000 C   0  0  0  0  0  0  0  0  0  0  0  0
    3.0000   -2.5981    0.0000 C   0  0  0  0  0  0  0  0  0  0  0  0
    3.7500   -1.2990    0.0000 O   0  0  0  0  0  0  0  0  0  0  0  0
    3.7500   -3.8971    0.0000 N   0  0  0  0  0  0  0  0  0  0  0  0
    5.2500   -3.8971    0.0000 C   0  0  0  0  0  0  0  0  0  0  0  0
    6.1317   -2.6836    0.0000 N   0  0  0  0  0  0  0  0  0  0  0  0
    7.5583   -3.1471    0.0000 N   0  0  0  0  0  0  0  0  0  0  0  0
    7.5583   -4.6471    0.0000 N   0  0  0  0  0  0  0  0  0  0  0  0
    6.1317   -5.1106    0.0000 N   0  0  0  0  0  0  0  0  0  0  0  0
    5.6682   -6.5372    0.0000 C   0  0  0  0  0  0  0  0  0  0  0  0
    0.7500   -1.2990    0.0000 C   0  0  0  0  0  0  0  0  0  0  0  0
    1.5000    0.0000    0.0000 C   0  0  0  0  0  0  0  0  0  0  0  0
    0.7500    1.2990    0.0000 C   0  0  0  0  0  0  0  0  0  0  0  0
   -0.7500    1.2990    0.0000 C   0  0  0  0  0  0  0  0  0  0  0  0
   -1.5000    0.0000    0.0000 C   0  0  0  0  0  0  0  0  0  0  0  0
   -0.7500   -1.2990    0.0000 C   0  0  0  0  0  0  0  0  0  0  0  0
  1  2  1  0
  2  3  2  0
  3  4  1  0
  4  5  1  0
  5  6  1  0
  6  7  2  0
  6  8  1  0
  8  9  1  0
  9 10  2  0
 10 11  1  0
 11 12  2  0
 12 13  1  0
 13 14  1  0
  5 15  1  0
 15 16  2  0
 16 17  1  0
 17 18  2  0
 18 19  1  0
 19 20  2  0
 20  2  1  0
 13  9  1  0
 20 15  1  0
M  END
>  <Title>  (854) 
idABEXgen13

$$$$

     RDKit          2D

 96 99  0  0  0  0  0  0  0  0999 V2000
   11.7865  -10.9440    0.0000 C   0  0  0  0  0  0  0  0  0  0  0  0
   12.9838  -10.0404    0.0000 C   0  0  0  0  0  0  0  0  0  0  0  0
   13.9764  -11.1650    0.0000 C   0  0  0  0  0  0  0  0  0  0  0  0
   15.1290  -12.1249    0.0000 C   0  0  0  0  0  0  0  0  0  0  0  0
   16.4147  -12.8976    0.0000 C   0  0  0  0  0  0  0  0  0  0  0  0
   17.8032  -13.4649    0.0000 C   0  0  0  0  0  0  0  0  0  0  0  0
   19.2621  -13.8137    0.0000 C   0  0  0  0  0  0  0  0  0  0  0  0
   20.7572  -13.9357    0.0000 C   0  0  0  0  0  0  0  0  0  0  0  0
   22.2533  -13.8280    0.0000 C   0  0  0  0  0  0  0  0  0  0  0  0
   23.7155  -13.4932    0.0000 C   0  0  0  0  0  0  0  0  0  0  0  0
   25.1094  -12.9392    0.0000 C   0  0  0  0  0  0  0  0  0  0  0  0
   26.4024  -12.1788    0.0000 C   0  0  0  0  0  0  0  0  0  0  0  0
   27.5642  -11.2300    0.0000 C   0  0  0  0  0  0  0  0  0  0  0  0
   28.5675  -10.1150    0.0000 C   0  0  0  0  0  0  0  0  0  0  0  0
   29.3889   -8.8599    0.0000 C   0  0  0  0  0  0  0  0  0  0  0  0
   30.0090   -7.4941    0.0000 C   0  0  0  0  0  0  0  0  0  0  0  0
   30.4134   -6.0496    0.0000 C   0  0  0  0  0  0  0  0  0  0  0  0
   30.5926   -4.5603    0.0000 C   0  0  0  0  0  0  0  0  0  0  0  0
   30.5423   -3.0612    0.0000 C   0  0  0  0  0  0  0  0  0  0  0  0
   30.2638   -1.5873    0.0000 C   0  0  0  0  0  0  0  0  0  0  0  0
   29.7635   -0.1732    0.0000 C   0  0  0  0  0  0  0  0  0  0  0  0
   29.0533    1.1480    0.0000 C   0  0  0  0  0  0  0  0  0  0  0  0
   28.1497    2.3453    0.0000 C   0  0  0  0  0  0  0  0  0  0  0  0
   27.0739    3.3906    0.0000 C   0  0  0  0  0  0  0  0  0  0  0  0
   25.8511    4.2595    0.0000 C   0  0  0  0  0  0  0  0  0  0  0  0
   24.5101    4.9315    0.0000 C   0  0  0  0  0  0  0  0  0  0  0  0
   23.0822    5.3909    0.0000 C   0  0  0  0  0  0  0  0  0  0  0  0
   21.6009    5.6270    0.0000 C   0  0  0  0  0  0  0  0  0  0  0  0
   20.1009    5.6342    0.0000 C   0  0  0  0  0  0  0  0  0  0  0  0
   18.6174    5.4123    0.0000 C   0  0  0  0  0  0  0  0  0  0  0  0
   17.1851    4.9666    0.0000 C   0  0  0  0  0  0  0  0  0  0  0  0
   15.8377    4.3074    0.0000 C   0  0  0  0  0  0  0  0  0  0  0  0
   14.6067    3.4503    0.0000 C   0  0  0  0  0  0  0  0  0  0  0  0
   13.5209    2.4154    0.0000 C   0  0  0  0  0  0  0  0  0  0  0  0
   12.6059    1.2268    0.0000 C   0  0  0  0  0  0  0  0  0  0  0  0
   11.8830   -0.0875    0.0000 C   0  0  0  0  0  0  0  0  0  0  0  0
   11.3692   -1.4968    0.0000 C   0  0  0  0  0  0  0  0  0  0  0  0
   10.7673   -0.0000    0.0000 C   0  0  0  0  0  0  0  0  0  0  0  0
   10.6752    1.4054    0.0000 C   0  0  0  0  0  0  0  0  0  0  0  0
   10.4005    2.7868    0.0000 C   0  0  0  0  0  0  0  0  0  0  0  0
    9.9477    4.1205    0.0000 C   0  0  0  0  0  0  0  0  0  0  0  0
    9.3248    5.3837    0.0000 C   0  0  0  0  0  0  0  0  0  0  0  0
    8.5423    6.5547    0.0000 C   0  0  0  0  0  0  0  0  0  0  0  0
    7.6137    7.6137    0.0000 C   0  0  0  0  0  0  0  0  0  0  0  0
    6.5547    8.5423    0.0000 C   0  0  0  0  0  0  0  0  0  0  0  0
    5.3837    9.3248    0.0000 C   0  0  0  0  0  0  0  0  0  0  0  0
    4.1205    9.9477    0.0000 C   0  0  0  0  0  0  0  0  0  0  0  0
    2.7868   10.4005    0.0000 C   0  0  0  0  0  0  0  0  0  0  0  0
    1.4054   10.6752    0.0000 C   0  0  0  0  0  0  0  0  0  0  0  0
    0.0000   10.7673    0.0000 C   0  0  0  0  0  0  0  0  0  0  0  0
   -1.4054   10.6752    0.0000 C   0  0  0  0  0  0  0  0  0  0  0  0
   -2.7868   10.4005    0.0000 C   0  0  0  0  0  0  0  0  0  0  0  0
   -4.1205    9.9477    0.0000 C   0  0  0  0  0  0  0  0  0  0  0  0
   -5.3837    9.3248    0.0000 C   0  0  0  0  0  0  0  0  0  0  0  0
   -6.5547    8.5423    0.0000 C   0  0  0  0  0  0  0  0  0  0  0  0
   -7.6137    7.6137    0.0000 C   0  0  0  0  0  0  0  0  0  0  0  0
   -8.5423    6.5547    0.0000 C   0  0  0  0  0  0  0  0  0  0  0  0
   -9.3248    5.3837    0.0000 C   0  0  0  0  0  0  0  0  0  0  0  0
   -9.9477    4.1205    0.0000 C   0  0  0  0  0  0  0  0  0  0  0  0
  -10.4005    2.7868    0.0000 C   0  0  0  0  0  0  0  0  0  0  0  0
  -10.6752    1.4054    0.0000 C   0  0  0  0  0  0  0  0  0  0  0  0
  -10.7673    0.0000    0.0000 C   0  0  0  0  0  0  0  0  0  0  0  0
  -10.6752   -1.4054    0.0000 C   0  0  0  0  0  0  0  0  0  0  0  0
  -10.4005   -2.7868    0.0000 C   0  0  0  0  0  0  0  0  0  0  0  0
   -9.9477   -4.1205    0.0000 C   0  0  0  0  0  0  0  0  0  0  0  0
   -9.3248   -5.3837    0.0000 C   0  0  0  0  0  0  0  0  0  0  0  0
   -8.5423   -6.5547    0.0000 C   0  0  0  0  0  0  0  0  0  0  0  0
   -7.6137   -7.6137    0.0000 C   0  0  0  0  0  0  0  0  0  0  0  0
   -6.5547   -8.5423    0.0000 C   0  0  0  0  0  0  0  0  0  0  0  0
   -5.3837   -9.3248    0.0000 C   0  0  0  0  0  0  0  0  0  0  0  0
   -4.1205   -9.9477    0.0000 C   0  0  0  0  0  0  0  0  0  0  0  0
   -2.7868  -10.4005    0.0000 C   0  0  0  0  0  0  0  0  0  0  0  0
   -1.4054  -10.6752    0.0000 C   0  0  0  0  0  0  0  0  0  0  0  0
   -0.0000  -10.7673    0.0000 C   0  0  0  0  0  0  0  0  0  0  0  0
    1.4054  -10.6752    0.0000 C   0  0  0  0  0  0  0  0  0  0  0  0
    2.7868  -10.4005    0.0000 C   0  0  0  0  0  0  0  0  0  0  0  0
    4.1205   -9.9477    0.0000 C   0  0  0  0  0  0  0  0  0  0  0  0
    5.3837   -9.3248    0.0000 C   0  0  0  0  0  0  0  0  0  0  0  0
    6.5547   -8.5423    0.0000 C   0  0  0  0  0  0  0  0  0  0  0  0
    7.6137   -7.6137    0.0000 C   0  0  0  0  0  0  0  0  0  0  0  0
    8.5423   -6.5547    0.0000 C   0  0  0  0  0  0  0  0  0  0  0  0
    9.3248   -5.3837    0.0000 C   0  0  0  0  0  0  0  0  0  0  0  0
    9.9477   -4.1205    0.0000 C   0  0  0  0  0  0  0  0  0  0  0  0
   11.0766   -2.9680    0.0000 C   0  0  0  0  0  0  0  0  0  0  0  0
   11.0120   -4.4666    0.0000 C   0  0  0  0  0  0  0  0  0  0  0  0
   12.2207   -3.5783    0.0000 C   0  0  0  0  0  0  0  0  0  0  0  0
   13.5943   -4.1810    0.0000 C   0  0  0  0  0  0  0  0  0  0  0  0
   13.7592   -5.6719    0.0000 N   0  0  0  0  0  0  0  0  0  0  0  0
   12.5505   -6.5601    0.0000 C   0  0  0  0  0  0  0  0  0  0  0  0
   11.1769   -5.9575    0.0000 C   0  0  0  0  0  0  0  0  0  0  0  0
   11.5674   -7.4058    0.0000 C   0  0  0  0  0  0  0  0  0  0  0  0
   10.0760   -7.2456    0.0000 C   0  0  0  0  0  0  0  0  0  0  0  0
    9.1916   -8.4572    0.0000 C   0  0  0  0  0  0  0  0  0  0  0  0
    9.7986   -9.8289    0.0000 C   0  0  0  0  0  0  0  0  0  0  0  0
   11.2901   -9.9890    0.0000 C   0  0  0  0  0  0  0  0  0  0  0  0
   12.1744   -8.7774    0.0000 C   0  0  0  0  0  0  0  0  0  0  0  0
  1  2  1  0
  2  3  1  0
  3  4  1  0
  4  5  1  0
  5  6  1  0
  6  7  1  0
  7  8  1  0
  8  9  1  0
  9 10  1  0
 10 11  1  0
 11 12  1  0
 12 13  1  0
 13 14  1  0
 14 15  1  0
 15 16  1  0
 16 17  1  0
 17 18  1  0
 18 19  1  0
 19 20  1  0
 20 21  1  0
 21 22  1  0
 22 23  1  0
 23 24  1  0
 24 25  1  0
 25 26  1  0
 26 27  1  0
 27 28  1  0
 28 29  1  0
 29 30  1  0
 30 31  1  0
 31 32  1  0
 32 33  1  0
 33 34  1  0
 34 35  1  0
 35 36  1  0
 36 37  1  0
 37 38  1  0
 38 39  1  0
 39 40  1  0
 40 41  1  0
 41 42  1  0
 42 43  1  0
 43 44  1  0
 44 45  1  0
 45 46  1  0
 46 47  1  0
 47 48  1  0
 48 49  1  0
 49 50  1  0
 50 51  1  0
 51 52  1  0
 52 53  1  0
 53 54  1  0
 54 55  1  0
 55 56  1  0
 56 57  1  0
 57 58  1  0
 58 59  1  0
 59 60  1  0
 60 61  1  0
 61 62  1  0
 62 63  1  0
 63 64  1  0
 64 65  1  0
 65 66  1  0
 66 67  1  0
 67 68  1  0
 68 69  1  0
 69 70  1  0
 70 71  1  0
 71 72  1  0
 72 73  1  0
 73 74  1  0
 74 75  1  0
 75 76  1  0
 76 77  1  0
 77 78  1  0
 78 79  1  0
 79 80  2  0
 80 81  1  0
 81 82  2  0
 82 83  1  0
 83 84  2  0
 84 85  1  0
 85 86  2  0
 86 87  1  0
 87 88  2  0
 88 89  1  0
 89 90  2  0
 90 91  1  0
 91 92  2  0
 92 93  1  0
 93 94  2  0
 94 95  1  0
 95 96  2  0
 96  2  1  0
 84 37  1  0
 90 85  1  0
 96 91  1  0
M  END
>  <Title>  (855) 
idABEYgen13

$$$$

     RDKit          2D

 68 67  0  0  0  0  0  0  0  0999 V2000
    0.0000    0.0000    0.0000 C   0  0  0  0  0  0  0  0  0  0  0  0
   -0.0000   -1.5000    0.0000 C   0  0  0  0  0  0  0  0  0  0  0  0
   -0.0000   -3.0000    0.0000 C   0  0  0  0  0  0  0  0  0  0  0  0
   -0.0000   -4.5000    0.0000 C   0  0  0  0  0  0  0  0  0  0  0  0
   -0.0000   -6.0000    0.0000 C   0  0  0  0  0  0  0  0  0  0  0  0
   -0.0000   -7.5000    0.0000 C   0  0  0  0  0  0  0  0  0  0  0  0
   -0.0000   -9.0000    0.0000 C   0  0  0  0  0  0  0  0  0  0  0  0
   -0.0000  -10.5000    0.0000 C   0  0  0  0  0  0  0  0  0  0  0  0
   -0.0000  -12.0000    0.0000 C   0  0  0  0  0  0  0  0  0  0  0  0
   -0.0000  -13.5000    0.0000 C   0  0  0  0  0  0  0  0  0  0  0  0
   -0.0000  -15.0000    0.0000 C   0  0  0  0  0  0  0  0  0  0  0  0
   -0.0000  -16.5000    0.0000 C   0  0  0  0  0  0  0  0  0  0  0  0
   -0.0000  -18.0000    0.0000 C   0  0  0  0  0  0  0  0  0  0  0  0
   -0.0000  -19.5000    0.0000 C   0  0  0  0  0  0  0  0  0  0  0  0
   -0.0000  -21.0000    0.0000 C   0  0  0  0  0  0  0  0  0  0  0  0
   -0.0000  -22.5000    0.0000 C   0  0  0  0  0  0  0  0  0  0  0  0
   -0.0000  -24.0000    0.0000 C   0  0  0  0  0  0  0  0  0  0  0  0
   -0.0000  -25.5000    0.0000 C   0  0  0  0  0  0  0  0  0  0  0  0
   -0.0000  -27.0000    0.0000 C   0  0  0  0  0  0  0  0  0  0  0  0
   -0.0000  -28.5000    0.0000 C   0  0  0  0  0  0  0  0  0  0  0  0
   -0.0000  -30.0000    0.0000 C   0  0  0  0  0  0  0  0  0  0  0  0
   -0.0000  -31.5000    0.0000 C   0  0  0  0  0  0  0  0  0  0  0  0
   -0.0000  -33.0000    0.0000 C   0  0  0  0  0  0  0  0  0  0  0  0
   -0.0000  -34.5000    0.0000 C   0  0  0  0  0  0  0  0  0  0  0  0
   -0.0000  -36.0000    0.0000 C   0  0  0  0  0  0  0  0  0  0  0  0
   -0.0000  -37.5000    0.0000 C   0  0  0  0  0  0  0  0  0  0  0  0
   -0.0000  -39.0000    0.0000 C   0  0  0  0  0  0  0  0  0  0  0  0
   -0.0000  -40.5000    0.0000 C   0  0  0  0  0  0  0  0  0  0  0  0
   -0.0000  -42.0000    0.0000 C   0  0  0  0  0  0  0  0  0  0  0  0
   -0.0000  -43.5000    0.0000 C   0  0  0  0  0  0  0  0  0  0  0  0
   -0.0000  -45.0000    0.0000 C   0  0  0  0  0  0  0  0  0  0  0  0
   -0.0000  -46.5000    0.0000 C   0  0  0  0  0  0  0  0  0  0  0  0
   -0.0000  -48.0000    0.0000 C   0  0  0  0  0  0  0  0  0  0  0  0
   -0.0000  -49.5000    0.0000 C   0  0  0  0  0  0  0  0  0  0  0  0
   -0.0000  -51.0000    0.0000 C   0  0  0  0  0  0  0  0  0  0  0  0
   -0.0000  -52.5000    0.0000 C   0  0  0  0  0  0  0  0  0  0  0  0
   -0.0000  -54.0000    0.0000 C   0  0  0  0  0  0  0  0  0  0  0  0
   -0.0000  -55.5000    0.0000 C   0  0  0  0  0  0  0  0  0  0  0  0
   -0.0000  -57.0000    0.0000 C   0  0  0  0  0  0  0  0  0  0  0  0
   -0.0000  -58.5000    0.0000 C   0  0  0  0  0  0  0  0  0  0  0  0
   -0.0000  -60.0000    0.0000 C   0  0  0  0  0  0  0  0  0  0  0  0
   -0.0000  -61.5000    0.0000 C   0  0  0  0  0  0  0  0  0  0  0  0
   -0.0000  -63.0000    0.0000 C   0  0  0  0  0  0  0  0  0  0  0  0
   -0.0000  -64.5000    0.0000 C   0  0  0  0  0  0  0  0  0  0  0  0
   -0.0000  -66.0000    0.0000 C   0  0  0  0  0  0  0  0  0  0  0  0
   -0.0000  -67.5000    0.0000 C   0  0  0  0  0  0  0  0  0  0  0  0
   -0.0000  -69.0000    0.0000 C   0  0  0  0  0  0  0  0  0  0  0  0
   -0.0000  -70.5000    0.0000 C   0  0  0  0  0  0  0  0  0  0  0  0
   -0.0000  -72.0000    0.0000 C   0  0  0  0  0  0  0  0  0  0  0  0
   -0.0000  -73.5000    0.0000 C   0  0  0  0  0  0  0  0  0  0  0  0
   -0.0000  -75.0000    0.0000 C   0  0  0  0  0  0  0  0  0  0  0  0
   -0.0000  -76.5000    0.0000 C   0  0  0  0  0  0  0  0  0  0  0  0
   -0.0000  -78.0000    0.0000 C   0  0  0  0  0  0  0  0  0  0  0  0
   -0.0000  -79.5000    0.0000 C   0  0  0  0  0  0  0  0  0  0  0  0
   -0.0000  -81.0000    0.0000 C   0  0  0  0  0  0  0  0  0  0  0  0
   -0.0000  -82.5000    0.0000 C   0  0  0  0  0  0  0  0  0  0  0  0
   -0.0000  -84.0000    0.0000 C   0  0  0  0  0  0  0  0  0  0  0  0
   -0.0000  -85.5000    0.0000 C   0  0  0  0  0  0  0  0  0  0  0  0
   -0.0000  -87.0000    0.0000 C   0  0  0  0  0  0  0  0  0  0  0  0
   -0.0000  -88.5000    0.0000 C   0  0  0  0  0  0  0  0  0  0  0  0
   -0.0000  -90.0000    0.0000 C   0  0  0  0  0  0  0  0  0  0  0  0
   -0.0000  -91.5000    0.0000 C   0  0  0  0  0  0  0  0  0  0  0  0
   -0.0000  -93.0000    0.0000 C   0  0  0  0  0  0  0  0  0  0  0  0
   -0.0000  -94.5000    0.0000 C   0  0  0  0  0  0  0  0  0  0  0  0
   -0.0000  -96.0000    0.0000 C   0  0  0  0  0  0  0  0  0  0  0  0
   -0.0000  -97.5000    0.0000 C   0  0  0  0  0  0  0  0  0  0  0  0
   -0.0000  -99.0000    0.0000 C   0  0  0  0  0  0  0  0  0  0  0  0
   -0.0000 -100.5000    0.0000 C   0  0  0  0  0  0  0  0  0  0  0  0
  1  2  3  0
  2  3  1  0
  3  4  3  0
  4  5  1  0
  5  6  3  0
  6  7  1  0
  7  8  3  0
  8  9  1  0
  9 10  3  0
 10 11  1  0
 11 12  3  0
 12 13  1  0
 13 14  3  0
 14 15  1  0
 15 16  3  0
 16 17  1  0
 17 18  3  0
 18 19  1  0
 19 20  3  0
 20 21  1  0
 21 22  3  0
 22 23  1  0
 23 24  3  0
 24 25  1  0
 25 26  3  0
 26 27  1  0
 27 28  3  0
 28 29  1  0
 29 30  3  0
 30 31  1  0
 31 32  3  0
 32 33  1  0
 33 34  3  0
 34 35  1  0
 35 36  3  0
 36 37  1  0
 37 38  3  0
 38 39  1  0
 39 40  3  0
 40 41  1  0
 41 42  3  0
 42 43  1  0
 43 44  3  0
 44 45  1  0
 45 46  3  0
 46 47  1  0
 47 48  3  0
 48 49  1  0
 49 50  3  0
 50 51  1  0
 51 52  3  0
 52 53  1  0
 53 54  3  0
 54 55  1  0
 55 56  3  0
 56 57  1  0
 57 58  3  0
 58 59  1  0
 59 60  3  0
 60 61  1  0
 61 62  3  0
 62 63  1  0
 63 64  3  0
 64 65  1  0
 65 66  3  0
 66 67  1  0
 67 68  3  0
M  END
>  <Title>  (856) 
idABEZgen13

$$$$

     RDKit          2D

 15 16  0  0  0  0  0  0  0  0999 V2000
    1.5000   -5.1962    0.0000 C   0  0  0  0  0  0  0  0  0  0  0  0
    0.7500   -3.8971    0.0000 C   0  0  0  0  0  0  0  0  0  0  0  0
    1.5000   -2.5981    0.0000 N   0  0  0  0  0  0  0  0  0  0  0  0
    0.7500   -1.2990    0.0000 C   0  0  0  0  0  0  0  0  0  0  0  0
    1.5000    0.0000    0.0000 C   0  0  0  0  0  0  0  0  0  0  0  0
    0.7500    1.2990    0.0000 C   0  0  0  0  0  0  0  0  0  0  0  0
   -0.7500    1.2990    0.0000 C   0  0  0  0  0  0  0  0  0  0  0  0
   -1.5000    0.0000    0.0000 C   0  0  0  0  0  0  0  0  0  0  0  0
   -0.7500   -1.2990    0.0000 C   0  0  0  0  0  0  0  0  0  0  0  0
   -0.7500   -3.8971    0.0000 C   0  0  0  0  0  0  0  0  0  0  0  0
   -1.5000   -2.5981    0.0000 C   0  0  0  0  0  0  0  0  0  0  0  0
   -3.0000   -2.5981    0.0000 C   0  0  0  0  0  0  0  0  0  0  0  0
   -3.7500   -3.8971    0.0000 C   0  0  0  0  0  0  0  0  0  0  0  0
   -3.0000   -5.1962    0.0000 C   0  0  0  0  0  0  0  0  0  0  0  0
   -1.5000   -5.1962    0.0000 C   0  0  0  0  0  0  0  0  0  0  0  0
  1  2  1  0
  2  3  1  0
  3  4  1  0
  4  5  2  0
  5  6  1  0
  6  7  2  0
  7  8  1  0
  8  9  2  0
  2 10  1  0
 10 11  2  0
 11 12  1  0
 12 13  2  0
 13 14  1  0
 14 15  2  0
  9  4  1  0
 15 10  1  0
M  END
>  <Title>  (857) 
idABFAgen13

$$$$

     RDKit          2D

 38 42  0  0  0  0  0  0  0  0999 V2000
   -3.1771   -1.2990    0.0000 C   0  0  0  0  0  0  0  0  0  0  0  0
   -1.9635   -2.1807    0.0000 C   0  0  0  0  0  0  0  0  0  0  0  0
   -2.4271   -3.6073    0.0000 C   0  0  0  0  0  0  0  0  0  0  0  0
   -1.9635   -5.0339    0.0000 C   0  0  0  0  0  0  0  0  0  0  0  0
   -0.7500   -5.9156    0.0000 C   0  0  0  0  0  0  0  0  0  0  0  0
    0.7500   -5.9156    0.0000 C   0  0  0  0  0  0  0  0  0  0  0  0
    1.9635   -5.0339    0.0000 C   0  0  0  0  0  0  0  0  0  0  0  0
    2.4271   -3.6073    0.0000 C   0  0  0  0  0  0  0  0  0  0  0  0
    1.9635   -2.1807    0.0000 C   0  0  0  0  0  0  0  0  0  0  0  0
    3.1771   -1.2990    0.0000 C   0  0  0  0  0  0  0  0  0  0  0  0
    3.0203    0.1927    0.0000 O   0  0  0  0  0  0  0  0  0  0  0  0
    4.5474   -1.9091    0.0000 N   0  0  0  0  0  0  0  0  0  0  0  0
    5.7609   -1.0275    0.0000 C   0  0  0  0  0  0  0  0  0  0  0  0
    5.7609    0.4725    0.0000 N   0  0  0  0  0  0  0  0  0  0  0  0
    7.1875    0.9361    0.0000 N   0  0  0  0  0  0  0  0  0  0  0  0
    8.0692   -0.2775    0.0000 N   0  0  0  0  0  0  0  0  0  0  0  0
    7.1875   -1.4910    0.0000 N   0  0  0  0  0  0  0  0  0  0  0  0
    7.6510   -2.9176    0.0000 N   0  0  0  0  0  0  0  0  0  0  0  0
    9.0776   -3.3811    0.0000 C   0  0  0  0  0  0  0  0  0  0  0  0
    9.0776   -4.8811    0.0000 C   0  0  0  0  0  0  0  0  0  0  0  0
    7.6510   -5.3446    0.0000 C   0  0  0  0  0  0  0  0  0  0  0  0
    7.1875   -6.7712    0.0000 C   0  0  0  0  0  0  0  0  0  0  0  0
    8.1912   -7.8859    0.0000 O   0  0  0  0  0  0  0  0  0  0  0  0
    5.7203   -7.0831    0.0000 N   0  0  0  0  0  0  0  0  0  0  0  0
    5.2567   -8.5097    0.0000 C   0  0  0  0  0  0  0  0  0  0  0  0
    3.7895   -8.8215    0.0000 N   0  0  0  0  0  0  0  0  0  0  0  0
    3.3260  -10.2481    0.0000 N   0  0  0  0  0  0  0  0  0  0  0  0
    4.3297  -11.3628    0.0000 N   0  0  0  0  0  0  0  0  0  0  0  0
    5.7969  -11.0510    0.0000 N   0  0  0  0  0  0  0  0  0  0  0  0
    6.2604   -9.6244    0.0000 N   0  0  0  0  0  0  0  0  0  0  0  0
    6.7693   -4.1311    0.0000 C   0  0  0  0  0  0  0  0  0  0  0  0
    5.2693   -4.1311    0.0000 O   0  0  0  0  0  0  0  0  0  0  0  0
    0.7500   -1.2990    0.0000 C   0  0  0  0  0  0  0  0  0  0  0  0
    1.5000    0.0000    0.0000 C   0  0  0  0  0  0  0  0  0  0  0  0
    0.7500    1.2990    0.0000 C   0  0  0  0  0  0  0  0  0  0  0  0
   -0.7500    1.2990    0.0000 C   0  0  0  0  0  0  0  0  0  0  0  0
   -1.5000    0.0000    0.0000 C   0  0  0  0  0  0  0  0  0  0  0  0
   -0.7500   -1.2990    0.0000 C   0  0  0  0  0  0  0  0  0  0  0  0
  1  2  1  0
  2  3  1  0
  3  4  1  0
  4  5  1  0
  5  6  1  0
  6  7  1  0
  7  8  1  0
  8  9  1  0
  9 10  1  0
 10 11  2  0
 10 12  1  0
 12 13  1  0
 13 14  2  0
 14 15  1  0
 15 16  2  0
 16 17  1  0
 17 18  1  0
 18 19  1  0
 19 20  1  0
 20 21  1  0
 21 22  1  0
 22 23  2  0
 22 24  1  0
 24 25  1  0
 25 26  2  0
 26 27  1  0
 27 28  2  0
 28 29  1  0
 29 30  2  0
 21 31  1  0
 31 32  2  0
  9 33  1  0
 33 34  2  0
 34 35  1  0
 35 36  2  0
 36 37  1  0
 37 38  2  0
 38  2  1  0
 17 13  1  0
 31 18  1  0
 38 33  1  0
 30 25  1  0
M  END
>  <Title>  (858) 
idABFBgen13

$$$$

     RDKit          2D

 40 45  0  0  0  0  0  0  0  0999 V2000
    1.3240   -6.3062    0.0000 C   0  0  0  0  0  0  0  0  0  0  0  0
    0.7500   -4.9204    0.0000 C   0  0  0  0  0  0  0  0  0  0  0  0
    1.8107   -3.8597    0.0000 C   0  0  0  0  0  0  0  0  0  0  0  0
    1.8107   -2.3597    0.0000 C   0  0  0  0  0  0  0  0  0  0  0  0
    0.7500   -1.2990    0.0000 C   0  0  0  0  0  0  0  0  0  0  0  0
    1.5000    0.0000    0.0000 C   0  0  0  0  0  0  0  0  0  0  0  0
    0.7500    1.2990    0.0000 C   0  0  0  0  0  0  0  0  0  0  0  0
   -0.7500    1.2990    0.0000 C   0  0  0  0  0  0  0  0  0  0  0  0
   -1.5000    0.0000    0.0000 C   0  0  0  0  0  0  0  0  0  0  0  0
   -0.7500   -1.2990    0.0000 C   0  0  0  0  0  0  0  0  0  0  0  0
   -1.8107   -2.3597    0.0000 C   0  0  0  0  0  0  0  0  0  0  0  0
   -3.1965   -1.7857    0.0000 C   0  0  0  0  0  0  0  0  0  0  0  0
   -4.3865   -2.6988    0.0000 O   0  0  0  0  0  0  0  0  0  0  0  0
   -3.3923   -0.2985    0.0000 N   0  0  0  0  0  0  0  0  0  0  0  0
   -4.7781    0.2755    0.0000 C   0  0  0  0  0  0  0  0  0  0  0  0
   -6.0570   -0.5082    0.0000 N   0  0  0  0  0  0  0  0  0  0  0  0
   -7.1977    0.4659    0.0000 N   0  0  0  0  0  0  0  0  0  0  0  0
   -6.6236    1.8518    0.0000 N   0  0  0  0  0  0  0  0  0  0  0  0
   -5.1283    1.7341    0.0000 N   0  0  0  0  0  0  0  0  0  0  0  0
   -4.1541    2.8747    0.0000 N   0  0  0  0  0  0  0  0  0  0  0  0
   -4.5043    4.3332    0.0000 C   0  0  0  0  0  0  0  0  0  0  0  0
   -3.2253    5.1170    0.0000 C   0  0  0  0  0  0  0  0  0  0  0  0
   -2.0847    4.1428    0.0000 N   0  0  0  0  0  0  0  0  0  0  0  0
   -0.6261    4.4930    0.0000 C   0  0  0  0  0  0  0  0  0  0  0  0
    0.4064    3.4049    0.0000 O   0  0  0  0  0  0  0  0  0  0  0  0
   -0.2001    5.9312    0.0000 N   0  0  0  0  0  0  0  0  0  0  0  0
    1.2584    6.2814    0.0000 C   0  0  0  0  0  0  0  0  0  0  0  0
    2.2910    5.1933    0.0000 N   0  0  0  0  0  0  0  0  0  0  0  0
    3.7495    5.5435    0.0000 N   0  0  0  0  0  0  0  0  0  0  0  0
    4.1756    6.9817    0.0000 N   0  0  0  0  0  0  0  0  0  0  0  0
    3.1430    8.0698    0.0000 N   0  0  0  0  0  0  0  0  0  0  0  0
    1.6845    7.7196    0.0000 N   0  0  0  0  0  0  0  0  0  0  0  0
   -2.6587    2.7570    0.0000 C   0  0  0  0  0  0  0  0  0  0  0  0
   -1.8750    1.4780    0.0000 O   0  0  0  0  0  0  0  0  0  0  0  0
   -1.8107   -3.8597    0.0000 C   0  0  0  0  0  0  0  0  0  0  0  0
   -3.2595   -4.2479    0.0000 C   0  0  0  0  0  0  0  0  0  0  0  0
   -3.6478   -5.6968    0.0000 C   0  0  0  0  0  0  0  0  0  0  0  0
   -2.5871   -6.7575    0.0000 C   0  0  0  0  0  0  0  0  0  0  0  0
   -1.1382   -6.3692    0.0000 C   0  0  0  0  0  0  0  0  0  0  0  0
   -0.7500   -4.9204    0.0000 C   0  0  0  0  0  0  0  0  0  0  0  0
  1  2  1  0
  2  3  1  0
  3  4  1  0
  4  5  1  0
  5  6  1  0
  6  7  1  0
  7  8  1  0
  8  9  1  0
  9 10  1  0
 10 11  1  0
 11 12  1  0
 12 13  2  0
 12 14  1  0
 14 15  1  0
 15 16  2  0
 16 17  1  0
 17 18  2  0
 18 19  1  0
 19 20  1  0
 20 21  1  0
 21 22  1  0
 22 23  1  0
 23 24  1  0
 24 25  2  0
 24 26  1  0
 26 27  1  0
 27 28  2  0
 28 29  1  0
 29 30  2  0
 30 31  1  0
 31 32  2  0
 23 33  1  0
 33 34  2  0
 11 35  1  0
 35 36  2  0
 36 37  1  0
 37 38  2  0
 38 39  1  0
 39 40  2  0
 40  2  1  0
 10  5  1  0
 19 15  1  0
 33 20  1  0
 40 35  1  0
 32 27  1  0
M  END
>  <Title>  (859) 
idABFCgen13

$$$$

     RDKit          2D

  9  8  0  0  0  0  0  0  0  0999 V2000
    0.0000    0.0000    0.0000 C   0  0  0  0  0  0  0  0  0  0  0  0
    1.2990    0.7500    0.0000 C   0  0  0  0  0  0  0  0  0  0  0  0
    2.5981   -0.0000    0.0000 C   0  0  0  0  0  0  0  0  0  0  0  0
    3.8971    0.7500    0.0000 C   0  0  0  0  0  0  0  0  0  0  0  0
    5.1962   -0.0000    0.0000 N   0  0  0  0  0  0  0  0  0  0  0  0
    6.4952    0.7500    0.0000 C   0  0  0  0  0  0  0  0  0  0  0  0
    7.7942   -0.0000    0.0000 C   0  0  0  0  0  0  0  0  0  0  0  0
    6.4952    2.2500    0.0000 C   0  0  0  0  0  0  0  0  0  0  0  0
    7.7942    3.0000    0.0000 C   0  0  0  0  0  0  0  0  0  0  0  0
  1  2  2  0
  2  3  1  0
  3  4  1  0
  4  5  1  0
  5  6  1  0
  6  7  1  0
  6  8  1  0
  8  9  1  0
M  END
>  <Title>  (860) 
idABFDgen13

$$$$

     RDKit          2D

 11 12  0  0  0  0  0  0  0  0999 V2000
   -0.4921    5.7184    0.0000 C   0  0  0  0  0  0  0  0  0  0  0  0
   -1.4958    4.6036    0.0000 C   0  0  0  0  0  0  0  0  0  0  0  0
   -2.9630    4.9155    0.0000 O   0  0  0  0  0  0  0  0  0  0  0  0
   -1.0323    3.1771    0.0000 N   0  0  0  0  0  0  0  0  0  0  0  0
    0.3943    2.7135    0.0000 C   0  0  0  0  0  0  0  0  0  0  0  0
    0.3943    1.2135    0.0000 C   0  0  0  0  0  0  0  0  0  0  0  0
    1.2760    0.0000    0.0000 C   0  0  0  0  0  0  0  0  0  0  0  0
    0.3943   -1.2135    0.0000 C   0  0  0  0  0  0  0  0  0  0  0  0
   -1.0323   -0.7500    0.0000 N   0  0  0  0  0  0  0  0  0  0  0  0
   -1.0323    0.7500    0.0000 N   0  0  0  0  0  0  0  0  0  0  0  0
   -1.9140    1.9635    0.0000 N   0  0  0  0  0  0  0  0  0  0  0  0
  1  2  1  0
  2  3  2  0
  2  4  1  0
  4  5  1  0
  5  6  1  0
  6  7  2  0
  7  8  1  0
  8  9  2  0
  9 10  1  0
 10 11  1  0
 11  4  1  0
 10  6  1  0
M  END
>  <Title>  (861) 
idABFEgen13

$$$$

     RDKit          2D

 66 67  0  0  0  0  0  0  0  0999 V2000
   -2.2563   -1.0471    0.0000 C   0  0  0  0  0  0  0  0  0  0  0  0
   -2.4984    0.4332    0.0000 C   0  0  0  0  0  0  0  0  0  0  0  0
   -3.9891    0.2663    0.0000 C   0  0  0  0  0  0  0  0  0  0  0  0
   -5.4891    0.2511    0.0000 C   0  0  0  0  0  0  0  0  0  0  0  0
   -6.9828    0.3877    0.0000 C   0  0  0  0  0  0  0  0  0  0  0  0
   -8.4551    0.6748    0.0000 C   0  0  0  0  0  0  0  0  0  0  0  0
   -9.8908    1.1093    0.0000 C   0  0  0  0  0  0  0  0  0  0  0  0
  -11.2751    1.6868    0.0000 C   0  0  0  0  0  0  0  0  0  0  0  0
  -12.5940    2.4015    0.0000 C   0  0  0  0  0  0  0  0  0  0  0  0
  -13.8337    3.2458    0.0000 C   0  0  0  0  0  0  0  0  0  0  0  0
  -14.9817    4.2113    0.0000 C   0  0  0  0  0  0  0  0  0  0  0  0
  -16.0261    5.2880    0.0000 C   0  0  0  0  0  0  0  0  0  0  0  0
  -16.9563    6.4648    0.0000 C   0  0  0  0  0  0  0  0  0  0  0  0
  -17.7626    7.7296    0.0000 C   0  0  0  0  0  0  0  0  0  0  0  0
  -18.4368    9.0696    0.0000 C   0  0  0  0  0  0  0  0  0  0  0  0
  -18.9720   10.4708    0.0000 C   0  0  0  0  0  0  0  0  0  0  0  0
  -19.3626   11.9191    0.0000 C   0  0  0  0  0  0  0  0  0  0  0  0
  -19.6048   13.3994    0.0000 C   0  0  0  0  0  0  0  0  0  0  0  0
  -19.6960   14.8966    0.0000 C   0  0  0  0  0  0  0  0  0  0  0  0
  -19.6352   16.3954    0.0000 C   0  0  0  0  0  0  0  0  0  0  0  0
  -19.4231   17.8803    0.0000 C   0  0  0  0  0  0  0  0  0  0  0  0
  -19.0618   19.3362    0.0000 C   0  0  0  0  0  0  0  0  0  0  0  0
  -18.5551   20.7480    0.0000 C   0  0  0  0  0  0  0  0  0  0  0  0
  -17.9082   22.1013    0.0000 C   0  0  0  0  0  0  0  0  0  0  0  0
  -17.1277   23.3823    0.0000 C   0  0  0  0  0  0  0  0  0  0  0  0
  -16.2216   24.5777    0.0000 C   0  0  0  0  0  0  0  0  0  0  0  0
  -15.1993   25.6753    0.0000 C   0  0  0  0  0  0  0  0  0  0  0  0
  -14.0711   26.6638    0.0000 C   0  0  0  0  0  0  0  0  0  0  0  0
  -12.8487   27.5332    0.0000 C   0  0  0  0  0  0  0  0  0  0  0  0
  -11.5446   28.2744    0.0000 C   0  0  0  0  0  0  0  0  0  0  0  0
  -10.1722   28.8799    0.0000 C   0  0  0  0  0  0  0  0  0  0  0  0
   -8.7456   29.3434    0.0000 C   0  0  0  0  0  0  0  0  0  0  0  0
   -7.2795   29.6602    0.0000 C   0  0  0  0  0  0  0  0  0  0  0  0
   -5.7888   29.8271    0.0000 C   0  0  0  0  0  0  0  0  0  0  0  0
   -4.2889   29.8423    0.0000 C   0  0  0  0  0  0  0  0  0  0  0  0
   -2.7951   29.7056    0.0000 C   0  0  0  0  0  0  0  0  0  0  0  0
   -1.3228   29.4186    0.0000 C   0  0  0  0  0  0  0  0  0  0  0  0
    0.1129   28.9841    0.0000 C   0  0  0  0  0  0  0  0  0  0  0  0
    1.4972   28.4066    0.0000 C   0  0  0  0  0  0  0  0  0  0  0  0
    2.8160   27.6919    0.0000 C   0  0  0  0  0  0  0  0  0  0  0  0
    4.0558   26.8475    0.0000 C   0  0  0  0  0  0  0  0  0  0  0  0
    5.2038   25.8821    0.0000 C   0  0  0  0  0  0  0  0  0  0  0  0
    6.2482   24.8054    0.0000 C   0  0  0  0  0  0  0  0  0  0  0  0
    7.1783   23.6286    0.0000 C   0  0  0  0  0  0  0  0  0  0  0  0
    7.9846   22.3638    0.0000 C   0  0  0  0  0  0  0  0  0  0  0  0
    8.6589   21.0238    0.0000 C   0  0  0  0  0  0  0  0  0  0  0  0
    9.1940   19.6225    0.0000 C   0  0  0  0  0  0  0  0  0  0  0  0
    9.5847   18.1743    0.0000 C   0  0  0  0  0  0  0  0  0  0  0  0
    9.8269   16.6940    0.0000 C   0  0  0  0  0  0  0  0  0  0  0  0
    9.9180   15.1968    0.0000 C   0  0  0  0  0  0  0  0  0  0  0  0
    9.8572   13.6980    0.0000 C   0  0  0  0  0  0  0  0  0  0  0  0
    9.6451   12.2131    0.0000 C   0  0  0  0  0  0  0  0  0  0  0  0
    9.2839   10.7572    0.0000 C   0  0  0  0  0  0  0  0  0  0  0  0
    8.7772    9.3454    0.0000 C   0  0  0  0  0  0  0  0  0  0  0  0
    8.1303    7.9920    0.0000 C   0  0  0  0  0  0  0  0  0  0  0  0
    7.3498    6.7111    0.0000 C   0  0  0  0  0  0  0  0  0  0  0  0
    6.4437    5.5157    0.0000 C   0  0  0  0  0  0  0  0  0  0  0  0
    5.4213    4.4181    0.0000 C   0  0  0  0  0  0  0  0  0  0  0  0
    4.2931    3.4295    0.0000 C   0  0  0  0  0  0  0  0  0  0  0  0
    3.0707    2.5602    0.0000 C   0  0  0  0  0  0  0  0  0  0  0  0
    1.7667    1.8190    0.0000 C   0  0  0  0  0  0  0  0  0  0  0  0
    0.3943    1.2135    0.0000 C   0  0  0  0  0  0  0  0  0  0  0  0
    1.2760    0.0000    0.0000 C   0  0  0  0  0  0  0  0  0  0  0  0
    0.3943   -1.2135    0.0000 C   0  0  0  0  0  0  0  0  0  0  0  0
   -1.0323   -0.7500    0.0000 C   0  0  0  0  0  0  0  0  0  0  0  0
   -1.0323    0.7500    0.0000 C   0  0  0  0  0  0  0  0  0  0  0  0
  1  2  1  0
  2  3  1  0
  3  4  1  0
  4  5  1  0
  5  6  1  0
  6  7  1  0
  7  8  1  0
  8  9  1  0
  9 10  1  0
 10 11  1  0
 11 12  1  0
 12 13  1  0
 13 14  1  0
 14 15  1  0
 15 16  1  0
 16 17  1  0
 17 18  1  0
 18 19  1  0
 19 20  1  0
 20 21  1  0
 21 22  1  0
 22 23  1  0
 23 24  1  0
 24 25  1  0
 25 26  1  0
 26 27  1  0
 27 28  1  0
 28 29  1  0
 29 30  1  0
 30 31  1  0
 31 32  1  0
 32 33  1  0
 33 34  1  0
 34 35  1  0
 35 36  1  0
 36 37  1  0
 37 38  1  0
 38 39  1  0
 39 40  1  0
 40 41  1  0
 41 42  1  0
 42 43  1  0
 43 44  1  0
 44 45  1  0
 45 46  2  0
 46 47  1  0
 47 48  2  0
 48 49  1  0
 49 50  2  0
 50 51  1  0
 51 52  2  0
 52 53  1  0
 53 54  2  0
 54 55  1  0
 55 56  2  0
 56 57  1  0
 57 58  2  0
 58 59  1  0
 59 60  2  0
 60 61  1  0
 61 62  2  0
 62 63  1  0
 63 64  2  0
 64 65  1  0
 65 66  2  0
 66  2  1  0
 66 62  1  0
M  END
>  <Title>  (862) 
idABFFgen13

$$$$

     RDKit          2D

 76 75  0  0  0  0  0  0  0  0999 V2000
    0.0000    0.0000    0.0000 C   0  0  0  0  0  0  0  0  0  0  0  0
   -0.0000   -1.5000    0.0000 C   0  0  0  0  0  0  0  0  0  0  0  0
   -0.0000   -3.0000    0.0000 C   0  0  0  0  0  0  0  0  0  0  0  0
   -0.0000   -4.5000    0.0000 C   0  0  0  0  0  0  0  0  0  0  0  0
   -0.0000   -6.0000    0.0000 C   0  0  0  0  0  0  0  0  0  0  0  0
   -0.0000   -7.5000    0.0000 C   0  0  0  0  0  0  0  0  0  0  0  0
   -0.0000   -9.0000    0.0000 C   0  0  0  0  0  0  0  0  0  0  0  0
   -0.0000  -10.5000    0.0000 C   0  0  0  0  0  0  0  0  0  0  0  0
   -0.0000  -12.0000    0.0000 C   0  0  0  0  0  0  0  0  0  0  0  0
   -0.0000  -13.5000    0.0000 C   0  0  0  0  0  0  0  0  0  0  0  0
   -0.0000  -15.0000    0.0000 C   0  0  0  0  0  0  0  0  0  0  0  0
   -0.0000  -16.5000    0.0000 C   0  0  0  0  0  0  0  0  0  0  0  0
   -0.0000  -18.0000    0.0000 C   0  0  0  0  0  0  0  0  0  0  0  0
   -0.0000  -19.5000    0.0000 C   0  0  0  0  0  0  0  0  0  0  0  0
   -0.0000  -21.0000    0.0000 C   0  0  0  0  0  0  0  0  0  0  0  0
   -0.0000  -22.5000    0.0000 C   0  0  0  0  0  0  0  0  0  0  0  0
   -0.0000  -24.0000    0.0000 C   0  0  0  0  0  0  0  0  0  0  0  0
   -0.0000  -25.5000    0.0000 C   0  0  0  0  0  0  0  0  0  0  0  0
   -0.0000  -27.0000    0.0000 C   0  0  0  0  0  0  0  0  0  0  0  0
   -0.0000  -28.5000    0.0000 C   0  0  0  0  0  0  0  0  0  0  0  0
   -0.0000  -30.0000    0.0000 C   0  0  0  0  0  0  0  0  0  0  0  0
   -0.0000  -31.5000    0.0000 C   0  0  0  0  0  0  0  0  0  0  0  0
   -0.0000  -33.0000    0.0000 C   0  0  0  0  0  0  0  0  0  0  0  0
   -0.0000  -34.5000    0.0000 C   0  0  0  0  0  0  0  0  0  0  0  0
   -0.0000  -36.0000    0.0000 C   0  0  0  0  0  0  0  0  0  0  0  0
   -0.0000  -37.5000    0.0000 C   0  0  0  0  0  0  0  0  0  0  0  0
   -0.0000  -39.0000    0.0000 C   0  0  0  0  0  0  0  0  0  0  0  0
   -0.0000  -40.5000    0.0000 C   0  0  0  0  0  0  0  0  0  0  0  0
   -0.0000  -42.0000    0.0000 C   0  0  0  0  0  0  0  0  0  0  0  0
   -0.0000  -43.5000    0.0000 C   0  0  0  0  0  0  0  0  0  0  0  0
   -0.0000  -45.0000    0.0000 C   0  0  0  0  0  0  0  0  0  0  0  0
   -0.0000  -46.5000    0.0000 C   0  0  0  0  0  0  0  0  0  0  0  0
   -0.0000  -48.0000    0.0000 C   0  0  0  0  0  0  0  0  0  0  0  0
   -0.0000  -49.5000    0.0000 C   0  0  0  0  0  0  0  0  0  0  0  0
   -0.0000  -51.0000    0.0000 C   0  0  0  0  0  0  0  0  0  0  0  0
   -0.0000  -52.5000    0.0000 C   0  0  0  0  0  0  0  0  0  0  0  0
   -0.0000  -54.0000    0.0000 C   0  0  0  0  0  0  0  0  0  0  0  0
   -0.0000  -55.5000    0.0000 C   0  0  0  0  0  0  0  0  0  0  0  0
   -0.0000  -57.0000    0.0000 C   0  0  0  0  0  0  0  0  0  0  0  0
   -0.0000  -58.5000    0.0000 C   0  0  0  0  0  0  0  0  0  0  0  0
   -0.0000  -60.0000    0.0000 C   0  0  0  0  0  0  0  0  0  0  0  0
   -0.0000  -61.5000    0.0000 C   0  0  0  0  0  0  0  0  0  0  0  0
   -0.0000  -63.0000    0.0000 C   0  0  0  0  0  0  0  0  0  0  0  0
   -0.0000  -64.5000    0.0000 C   0  0  0  0  0  0  0  0  0  0  0  0
   -0.0000  -66.0000    0.0000 C   0  0  0  0  0  0  0  0  0  0  0  0
   -0.0000  -67.5000    0.0000 C   0  0  0  0  0  0  0  0  0  0  0  0
   -0.0000  -69.0000    0.0000 C   0  0  0  0  0  0  0  0  0  0  0  0
   -0.0000  -70.5000    0.0000 C   0  0  0  0  0  0  0  0  0  0  0  0
   -0.0000  -72.0000    0.0000 C   0  0  0  0  0  0  0  0  0  0  0  0
   -0.0000  -73.5000    0.0000 C   0  0  0  0  0  0  0  0  0  0  0  0
   -0.0000  -75.0000    0.0000 C   0  0  0  0  0  0  0  0  0  0  0  0
   -0.0000  -76.5000    0.0000 C   0  0  0  0  0  0  0  0  0  0  0  0
   -0.0000  -78.0000    0.0000 C   0  0  0  0  0  0  0  0  0  0  0  0
   -0.0000  -79.5000    0.0000 C   0  0  0  0  0  0  0  0  0  0  0  0
   -0.0000  -81.0000    0.0000 C   0  0  0  0  0  0  0  0  0  0  0  0
   -0.0000  -82.5000    0.0000 C   0  0  0  0  0  0  0  0  0  0  0  0
   -0.0000  -84.0000    0.0000 C   0  0  0  0  0  0  0  0  0  0  0  0
   -0.0000  -85.5000    0.0000 C   0  0  0  0  0  0  0  0  0  0  0  0
   -0.0000  -87.0000    0.0000 C   0  0  0  0  0  0  0  0  0  0  0  0
   -0.0000  -88.5000    0.0000 C   0  0  0  0  0  0  0  0  0  0  0  0
   -0.0000  -90.0000    0.0000 C   0  0  0  0  0  0  0  0  0  0  0  0
   -0.0000  -91.5000    0.0000 C   0  0  0  0  0  0  0  0  0  0  0  0
   -0.0000  -93.0000    0.0000 C   0  0  0  0  0  0  0  0  0  0  0  0
   -0.0000  -94.5000    0.0000 C   0  0  0  0  0  0  0  0  0  0  0  0
   -0.0000  -96.0000    0.0000 C   0  0  0  0  0  0  0  0  0  0  0  0
   -0.0000  -97.5000    0.0000 C   0  0  0  0  0  0  0  0  0  0  0  0
   -0.0000  -99.0000    0.0000 C   0  0  0  0  0  0  0  0  0  0  0  0
   -0.0000 -100.5000    0.0000 C   0  0  0  0  0  0  0  0  0  0  0  0
   -0.0000 -102.0000    0.0000 C   0  0  0  0  0  0  0  0  0  0  0  0
   -0.0000 -103.5000    0.0000 C   0  0  0  0  0  0  0  0  0  0  0  0
   -0.0000 -105.0000    0.0000 C   0  0  0  0  0  0  0  0  0  0  0  0
   -0.0000 -106.5000    0.0000 C   0  0  0  0  0  0  0  0  0  0  0  0
   -0.0000 -108.0000    0.0000 C   0  0  0  0  0  0  0  0  0  0  0  0
   -0.0000 -109.5000    0.0000 C   0  0  0  0  0  0  0  0  0  0  0  0
   -0.0000 -111.0000    0.0000 C   0  0  0  0  0  0  0  0  0  0  0  0
   -0.0000 -112.5000    0.0000 C   0  0  0  0  0  0  0  0  0  0  0  0
  1  2  3  0
  2  3  1  0
  3  4  3  0
  4  5  1  0
  5  6  3  0
  6  7  1  0
  7  8  3  0
  8  9  1  0
  9 10  3  0
 10 11  1  0
 11 12  3  0
 12 13  1  0
 13 14  3  0
 14 15  1  0
 15 16  3  0
 16 17  1  0
 17 18  3  0
 18 19  1  0
 19 20  3  0
 20 21  1  0
 21 22  3  0
 22 23  1  0
 23 24  3  0
 24 25  1  0
 25 26  3  0
 26 27  1  0
 27 28  3  0
 28 29  1  0
 29 30  3  0
 30 31  1  0
 31 32  3  0
 32 33  1  0
 33 34  3  0
 34 35  1  0
 35 36  3  0
 36 37  1  0
 37 38  3  0
 38 39  1  0
 39 40  3  0
 40 41  1  0
 41 42  3  0
 42 43  1  0
 43 44  3  0
 44 45  1  0
 45 46  3  0
 46 47  1  0
 47 48  3  0
 48 49  1  0
 49 50  3  0
 50 51  1  0
 51 52  3  0
 52 53  1  0
 53 54  3  0
 54 55  1  0
 55 56  3  0
 56 57  1  0
 57 58  3  0
 58 59  1  0
 59 60  3  0
 60 61  1  0
 61 62  3  0
 62 63  1  0
 63 64  3  0
 64 65  1  0
 65 66  3  0
 66 67  1  0
 67 68  3  0
 68 69  1  0
 69 70  3  0
 70 71  1  0
 71 72  3  0
 72 73  1  0
 73 74  3  0
 74 75  1  0
 75 76  3  0
M  END
>  <Title>  (863) 
idABFGgen13

$$$$

     RDKit          2D

  6  5  0  0  0  0  0  0  0  0999 V2000
    0.0000    0.0000    0.0000 C   0  0  0  0  0  0  0  0  0  0  0  0
   -0.0000   -1.5000    0.0000 C   0  0  0  0  0  0  0  0  0  0  0  0
   -0.0000   -3.0000    0.0000 C   0  0  0  0  0  0  0  0  0  0  0  0
    1.2990   -3.7500    0.0000 C   0  0  0  0  0  0  0  0  0  0  0  0
    1.2990   -5.2500    0.0000 C   0  0  0  0  0  0  0  0  0  0  0  0
    2.5981   -3.0000    0.0000 C   0  0  0  0  0  0  0  0  0  0  0  0
  1  2  3  0
  2  3  1  0
  3  4  2  3
  4  5  1  0
  4  6  1  0
M  END
>  <Title>  (864) 
idABFHgen13

$$$$

     RDKit          2D

 20 21  0  0  0  0  0  0  0  0999 V2000
  -14.3584   -7.2219    0.0000 C   0  0  0  0  0  0  0  0  0  0  0  0
  -13.2977   -6.1612    0.0000 C   0  0  0  0  0  0  0  0  0  0  0  0
  -11.8489   -6.5494    0.0000 C   0  0  0  0  0  0  0  0  0  0  0  0
  -10.7882   -5.4888    0.0000 C   0  0  0  0  0  0  0  0  0  0  0  0
   -9.3393   -5.8770    0.0000 C   0  0  0  0  0  0  0  0  0  0  0  0
   -8.9511   -7.3259    0.0000 O   0  0  0  0  0  0  0  0  0  0  0  0
   -8.2786   -4.8163    0.0000 C   0  0  0  0  0  0  0  0  0  0  0  0
   -6.8298   -5.2046    0.0000 C   0  0  0  0  0  0  0  0  0  0  0  0
   -5.7691   -4.1439    0.0000 C   0  0  0  0  0  0  0  0  0  0  0  0
   -4.3202   -4.5321    0.0000 C   0  0  0  0  0  0  0  0  0  0  0  0
   -3.2595   -3.4715    0.0000 N   0  0  0  0  0  0  0  0  0  0  0  0
   -1.8107   -3.8597    0.0000 N   0  0  0  0  0  0  0  0  0  0  0  0
   -0.7500   -2.7990    0.0000 N   0  0  0  0  0  0  0  0  0  0  0  0
    0.7500   -2.7990    0.0000 C   0  0  0  0  0  0  0  0  0  0  0  0
    0.7500   -1.2990    0.0000 C   0  0  0  0  0  0  0  0  0  0  0  0
    1.5000    0.0000    0.0000 C   0  0  0  0  0  0  0  0  0  0  0  0
    0.7500    1.2990    0.0000 C   0  0  0  0  0  0  0  0  0  0  0  0
   -0.7500    1.2990    0.0000 C   0  0  0  0  0  0  0  0  0  0  0  0
   -1.5000    0.0000    0.0000 C   0  0  0  0  0  0  0  0  0  0  0  0
   -0.7500   -1.2990    0.0000 C   0  0  0  0  0  0  0  0  0  0  0  0
  1  2  2  0
  2  3  1  0
  3  4  1  0
  4  5  1  0
  5  6  2  0
  5  7  1  0
  7  8  1  0
  8  9  1  0
  9 10  2  3
 10 11  1  0
 11 12  2  3
 12 13  1  0
 13 14  1  0
 14 15  1  0
 15 16  2  0
 16 17  1  0
 17 18  2  0
 18 19  1  0
 19 20  2  0
 20 13  1  0
 20 15  1  0
M  END
>  <Title>  (865) 
idABFIgen13

$$$$

     RDKit          2D

 35 39  0  0  0  0  0  0  0  0999 V2000
   -3.1476   -2.1380    0.0000 C   0  0  0  0  0  0  0  0  0  0  0  0
   -1.6852   -2.4718    0.0000 C   0  0  0  0  0  0  0  0  0  0  0  0
   -1.3515   -3.9342    0.0000 C   0  0  0  0  0  0  0  0  0  0  0  0
   -0.0000   -4.5850    0.0000 C   0  0  0  0  0  0  0  0  0  0  0  0
    1.3515   -3.9342    0.0000 C   0  0  0  0  0  0  0  0  0  0  0  0
    1.6852   -2.4718    0.0000 C   0  0  0  0  0  0  0  0  0  0  0  0
    3.1476   -2.1380    0.0000 C   0  0  0  0  0  0  0  0  0  0  0  0
    3.5898   -0.7046    0.0000 O   0  0  0  0  0  0  0  0  0  0  0  0
    4.1679   -3.2376    0.0000 N   0  0  0  0  0  0  0  0  0  0  0  0
    5.6303   -2.9038    0.0000 C   0  0  0  0  0  0  0  0  0  0  0  0
    6.2198   -1.5245    0.0000 N   0  0  0  0  0  0  0  0  0  0  0  0
    7.7138   -1.6590    0.0000 N   0  0  0  0  0  0  0  0  0  0  0  0
    8.0476   -3.1214    0.0000 N   0  0  0  0  0  0  0  0  0  0  0  0
    6.7599   -3.8907    0.0000 N   0  0  0  0  0  0  0  0  0  0  0  0
    6.6254   -5.3847    0.0000 N   0  0  0  0  0  0  0  0  0  0  0  0
    7.7550   -6.3716    0.0000 C   0  0  0  0  0  0  0  0  0  0  0  0
    7.1655   -7.7509    0.0000 C   0  0  0  0  0  0  0  0  0  0  0  0
    5.6715   -7.6164    0.0000 C   0  0  0  0  0  0  0  0  0  0  0  0
    4.6846   -8.7460    0.0000 C   0  0  0  0  0  0  0  0  0  0  0  0
    5.1694  -10.1655    0.0000 O   0  0  0  0  0  0  0  0  0  0  0  0
    3.2129   -8.4561    0.0000 N   0  0  0  0  0  0  0  0  0  0  0  0
    2.2260   -9.5857    0.0000 C   0  0  0  0  0  0  0  0  0  0  0  0
    0.7543   -9.2959    0.0000 N   0  0  0  0  0  0  0  0  0  0  0  0
   -0.2326  -10.4255    0.0000 N   0  0  0  0  0  0  0  0  0  0  0  0
    0.2522  -11.8450    0.0000 N   0  0  0  0  0  0  0  0  0  0  0  0
    1.7239  -12.1348    0.0000 N   0  0  0  0  0  0  0  0  0  0  0  0
    2.7108  -11.0052    0.0000 N   0  0  0  0  0  0  0  0  0  0  0  0
    5.3378   -6.1540    0.0000 C   0  0  0  0  0  0  0  0  0  0  0  0
    3.9585   -5.5645    0.0000 O   0  0  0  0  0  0  0  0  0  0  0  0
    0.7500   -1.2990    0.0000 C   0  0  0  0  0  0  0  0  0  0  0  0
    1.5000    0.0000    0.0000 C   0  0  0  0  0  0  0  0  0  0  0  0
    0.7500    1.2990    0.0000 C   0  0  0  0  0  0  0  0  0  0  0  0
   -0.7500    1.2990    0.0000 C   0  0  0  0  0  0  0  0  0  0  0  0
   -1.5000    0.0000    0.0000 C   0  0  0  0  0  0  0  0  0  0  0  0
   -0.7500   -1.2990    0.0000 C   0  0  0  0  0  0  0  0  0  0  0  0
  1  2  1  0
  2  3  1  0
  3  4  2  0
  4  5  1  0
  5  6  1  0
  6  7  1  0
  7  8  2  0
  7  9  1  0
  9 10  1  0
 10 11  2  0
 11 12  1  0
 12 13  2  0
 13 14  1  0
 14 15  1  0
 15 16  1  0
 16 17  1  0
 17 18  2  0
 18 19  1  0
 19 20  2  0
 19 21  1  0
 21 22  1  0
 22 23  2  0
 23 24  1  0
 24 25  2  0
 25 26  1  0
 26 27  2  0
 18 28  1  0
 28 29  2  0
  6 30  1  0
 30 31  2  0
 31 32  1  0
 32 33  2  0
 33 34  1  0
 34 35  2  0
 35  2  1  0
 14 10  1  0
 28 15  1  0
 35 30  1  0
 27 22  1  0
M  END
>  <Title>  (866) 
idABFJgen13

$$$$

     RDKit          2D

  7  7  0  0  0  0  0  0  0  0999 V2000
    3.0000    0.0000    0.0000 C   0  0  0  0  0  0  0  0  0  0  0  0
    1.5000    0.0000    0.0000 C   0  0  0  0  0  0  0  0  0  0  0  0
    0.7500   -1.2990    0.0000 C   0  0  0  0  0  0  0  0  0  0  0  0
   -0.7500   -1.2990    0.0000 C   0  0  0  0  0  0  0  0  0  0  0  0
   -1.5000    0.0000    0.0000 C   0  0  0  0  0  0  0  0  0  0  0  0
   -0.7500    1.2990    0.0000 C   0  0  0  0  0  0  0  0  0  0  0  0
    0.7500    1.2990    0.0000 C   0  0  0  0  0  0  0  0  0  0  0  0
  1  2  1  0
  2  3  1  0
  3  4  1  0
  4  5  2  0
  5  6  1  0
  6  7  1  0
  7  2  1  0
M  END
>  <Title>  (867) 
idABFKgen13

$$$$

     RDKit          2D

 16 18  0  0  0  0  0  0  0  0999 V2000
   -3.2595   -3.4715    0.0000 C   0  0  0  0  0  0  0  0  0  0  0  0
   -1.8107   -3.8597    0.0000 C   0  0  0  0  0  0  0  0  0  0  0  0
   -1.4224   -5.3086    0.0000 O   0  0  0  0  0  0  0  0  0  0  0  0
   -0.7500   -2.7990    0.0000 N   0  0  0  0  0  0  0  0  0  0  0  0
    0.7500   -2.7990    0.0000 C   0  0  0  0  0  0  0  0  0  0  0  0
    0.7500   -1.2990    0.0000 C   0  0  0  0  0  0  0  0  0  0  0  0
    1.5000    0.0000    0.0000 C   0  0  0  0  0  0  0  0  0  0  0  0
    0.7500    1.2990    0.0000 C   0  0  0  0  0  0  0  0  0  0  0  0
   -0.7500    1.2990    0.0000 C   0  0  0  0  0  0  0  0  0  0  0  0
   -1.5000    2.5981    0.0000 N   0  0  0  0  0  0  0  0  0  0  0  0
   -2.9918    2.7549    0.0000 C   0  0  0  0  0  0  0  0  0  0  0  0
   -3.3037    4.2221    0.0000 C   0  0  0  0  0  0  0  0  0  0  0  0
   -2.0046    4.9721    0.0000 C   0  0  0  0  0  0  0  0  0  0  0  0
   -0.8899    3.9684    0.0000 C   0  0  0  0  0  0  0  0  0  0  0  0
   -1.5000    0.0000    0.0000 C   0  0  0  0  0  0  0  0  0  0  0  0
   -0.7500   -1.2990    0.0000 C   0  0  0  0  0  0  0  0  0  0  0  0
  1  2  1  0
  2  3  2  0
  2  4  1  0
  4  5  1  0
  5  6  1  0
  6  7  2  0
  7  8  1  0
  8  9  2  0
  9 10  1  0
 10 11  1  0
 11 12  1  0
 12 13  1  0
 13 14  1  0
  9 15  1  0
 15 16  1  0
 16  4  1  0
 16  6  1  0
 14 10  1  0
M  END
>  <Title>  (868) 
idABFLgen13

$$$$

     RDKit          2D

 36 40  0  0  0  0  0  0  0  0999 V2000
   -3.1965   -1.7857    0.0000 C   0  0  0  0  0  0  0  0  0  0  0  0
   -1.8107   -2.3597    0.0000 C   0  0  0  0  0  0  0  0  0  0  0  0
   -1.8107   -3.8597    0.0000 C   0  0  0  0  0  0  0  0  0  0  0  0
   -0.7500   -4.9204    0.0000 C   0  0  0  0  0  0  0  0  0  0  0  0
    0.7500   -4.9204    0.0000 C   0  0  0  0  0  0  0  0  0  0  0  0
    1.8107   -3.8597    0.0000 C   0  0  0  0  0  0  0  0  0  0  0  0
    1.8107   -2.3597    0.0000 C   0  0  0  0  0  0  0  0  0  0  0  0
    3.1965   -1.7857    0.0000 C   0  0  0  0  0  0  0  0  0  0  0  0
    3.3923   -0.2985    0.0000 O   0  0  0  0  0  0  0  0  0  0  0  0
    4.3865   -2.6988    0.0000 N   0  0  0  0  0  0  0  0  0  0  0  0
    5.7723   -2.1248    0.0000 C   0  0  0  0  0  0  0  0  0  0  0  0
    6.1225   -0.6662    0.0000 N   0  0  0  0  0  0  0  0  0  0  0  0
    7.6179   -0.5485    0.0000 N   0  0  0  0  0  0  0  0  0  0  0  0
    8.1919   -1.9344    0.0000 N   0  0  0  0  0  0  0  0  0  0  0  0
    7.0513   -2.9085    0.0000 N   0  0  0  0  0  0  0  0  0  0  0  0
    7.1690   -4.4039    0.0000 C   0  0  0  0  0  0  0  0  0  0  0  0
    8.4479   -5.1877    0.0000 C   0  0  0  0  0  0  0  0  0  0  0  0
    8.0978   -6.6462    0.0000 C   0  0  0  0  0  0  0  0  0  0  0  0
    6.6024   -6.7639    0.0000 C   0  0  0  0  0  0  0  0  0  0  0  0
    5.8186   -8.0429    0.0000 C   0  0  0  0  0  0  0  0  0  0  0  0
    6.5344   -9.3611    0.0000 O   0  0  0  0  0  0  0  0  0  0  0  0
    4.3192   -8.0036    0.0000 N   0  0  0  0  0  0  0  0  0  0  0  0
    3.5354   -9.2826    0.0000 C   0  0  0  0  0  0  0  0  0  0  0  0
    2.0359   -9.2433    0.0000 N   0  0  0  0  0  0  0  0  0  0  0  0
    1.2522  -10.5223    0.0000 N   0  0  0  0  0  0  0  0  0  0  0  0
    1.9679  -11.8405    0.0000 N   0  0  0  0  0  0  0  0  0  0  0  0
    3.4674  -11.8797    0.0000 N   0  0  0  0  0  0  0  0  0  0  0  0
    4.2512  -10.6008    0.0000 N   0  0  0  0  0  0  0  0  0  0  0  0
    6.0284   -5.3781    0.0000 C   0  0  0  0  0  0  0  0  0  0  0  0
    4.5698   -5.0279    0.0000 O   0  0  0  0  0  0  0  0  0  0  0  0
    0.7500   -1.2990    0.0000 C   0  0  0  0  0  0  0  0  0  0  0  0
    1.5000    0.0000    0.0000 C   0  0  0  0  0  0  0  0  0  0  0  0
    0.7500    1.2990    0.0000 C   0  0  0  0  0  0  0  0  0  0  0  0
   -0.7500    1.2990    0.0000 C   0  0  0  0  0  0  0  0  0  0  0  0
   -1.5000    0.0000    0.0000 C   0  0  0  0  0  0  0  0  0  0  0  0
   -0.7500   -1.2990    0.0000 C   0  0  0  0  0  0  0  0  0  0  0  0
  1  2  1  0
  2  3  1  0
  3  4  1  0
  4  5  1  0
  5  6  1  0
  6  7  1  0
  7  8  1  0
  8  9  2  0
  8 10  1  0
 10 11  1  0
 11 12  2  0
 12 13  1  0
 13 14  2  0
 14 15  1  0
 15 16  1  0
 16 17  2  0
 17 18  1  0
 18 19  2  0
 19 20  1  0
 20 21  2  0
 20 22  1  0
 22 23  1  0
 23 24  2  0
 24 25  1  0
 25 26  2  0
 26 27  1  0
 27 28  2  0
 19 29  1  0
 29 30  2  0
  7 31  1  0
 31 32  2  0
 32 33  1  0
 33 34  2  0
 34 35  1  0
 35 36  2  0
 36  2  1  0
 15 11  1  0
 29 16  1  0
 36 31  1  0
 28 23  1  0
M  END
>  <Title>  (869) 
idABFMgen13

$$$$

     RDKit          2D

 16 15  0  0  0  0  0  0  0  0999 V2000
    0.0000    0.0000    0.0000 C   0  0  0  0  0  0  0  0  0  0  0  0
   -0.0000   -1.5000    0.0000 C   0  0  0  0  0  0  0  0  0  0  0  0
   -0.0000   -3.0000    0.0000 C   0  0  0  0  0  0  0  0  0  0  0  0
   -0.0000   -4.5000    0.0000 C   0  0  0  0  0  0  0  0  0  0  0  0
   -0.0000   -6.0000    0.0000 C   0  0  0  0  0  0  0  0  0  0  0  0
   -0.0000   -7.5000    0.0000 C   0  0  0  0  0  0  0  0  0  0  0  0
   -0.0000   -9.0000    0.0000 C   0  0  0  0  0  0  0  0  0  0  0  0
   -0.0000  -10.5000    0.0000 C   0  0  0  0  0  0  0  0  0  0  0  0
   -0.0000  -12.0000    0.0000 C   0  0  0  0  0  0  0  0  0  0  0  0
   -0.0000  -13.5000    0.0000 C   0  0  0  0  0  0  0  0  0  0  0  0
   -0.0000  -15.0000    0.0000 C   0  0  0  0  0  0  0  0  0  0  0  0
   -0.0000  -16.5000    0.0000 C   0  0  0  0  0  0  0  0  0  0  0  0
   -0.0000  -18.0000    0.0000 C   0  0  0  0  0  0  0  0  0  0  0  0
   -0.0000  -19.5000    0.0000 C   0  0  0  0  0  0  0  0  0  0  0  0
   -0.0000  -21.0000    0.0000 C   0  0  0  0  0  0  0  0  0  0  0  0
   -0.0000  -22.5000    0.0000 C   0  0  0  0  0  0  0  0  0  0  0  0
  1  2  3  0
  2  3  1  0
  3  4  3  0
  4  5  1  0
  5  6  3  0
  6  7  1  0
  7  8  3  0
  8  9  1  0
  9 10  3  0
 10 11  1  0
 11 12  3  0
 12 13  1  0
 13 14  3  0
 14 15  1  0
 15 16  3  0
M  END
>  <Title>  (870) 
idABFNgen13

$$$$

     RDKit          2D

 32 36  0  0  0  0  0  0  0  0999 V2000
   -3.1965   -1.7857    0.0000 C   0  0  0  0  0  0  0  0  0  0  0  0
   -1.8107   -2.3597    0.0000 C   0  0  0  0  0  0  0  0  0  0  0  0
   -1.8107   -3.8597    0.0000 C   0  0  0  0  0  0  0  0  0  0  0  0
   -0.7500   -4.9204    0.0000 C   0  0  0  0  0  0  0  0  0  0  0  0
    0.7500   -4.9204    0.0000 C   0  0  0  0  0  0  0  0  0  0  0  0
    1.8107   -3.8597    0.0000 C   0  0  0  0  0  0  0  0  0  0  0  0
    1.8107   -2.3597    0.0000 C   0  0  0  0  0  0  0  0  0  0  0  0
    3.1965   -1.7857    0.0000 C   0  0  0  0  0  0  0  0  0  0  0  0
    3.3923   -0.2985    0.0000 O   0  0  0  0  0  0  0  0  0  0  0  0
    4.3865   -2.6988    0.0000 N   0  0  0  0  0  0  0  0  0  0  0  0
    5.7723   -2.1248    0.0000 C   0  0  0  0  0  0  0  0  0  0  0  0
    6.1225   -0.6662    0.0000 N   0  0  0  0  0  0  0  0  0  0  0  0
    7.6179   -0.5485    0.0000 N   0  0  0  0  0  0  0  0  0  0  0  0
    8.1919   -1.9344    0.0000 N   0  0  0  0  0  0  0  0  0  0  0  0
    7.0513   -2.9085    0.0000 N   0  0  0  0  0  0  0  0  0  0  0  0
    7.1690   -4.4039    0.0000 N   0  0  0  0  0  0  0  0  0  0  0  0
    8.4479   -5.1877    0.0000 C   0  0  0  0  0  0  0  0  0  0  0  0
    8.0978   -6.6462    0.0000 C   0  0  0  0  0  0  0  0  0  0  0  0
    6.6024   -6.7639    0.0000 C   0  0  0  0  0  0  0  0  0  0  0  0
    5.8186   -8.0429    0.0000 C   0  0  0  0  0  0  0  0  0  0  0  0
    4.3192   -8.0036    0.0000 N   0  0  0  0  0  0  0  0  0  0  0  0
    3.2866   -6.9155    0.0000 C   0  0  0  0  0  0  0  0  0  0  0  0
    2.1986   -7.9481    0.0000 C   0  0  0  0  0  0  0  0  0  0  0  0
    3.2311   -9.0361    0.0000 C   0  0  0  0  0  0  0  0  0  0  0  0
    6.0284   -5.3781    0.0000 C   0  0  0  0  0  0  0  0  0  0  0  0
    4.5698   -5.0279    0.0000 O   0  0  0  0  0  0  0  0  0  0  0  0
    0.7500   -1.2990    0.0000 C   0  0  0  0  0  0  0  0  0  0  0  0
    1.5000    0.0000    0.0000 C   0  0  0  0  0  0  0  0  0  0  0  0
    0.7500    1.2990    0.0000 C   0  0  0  0  0  0  0  0  0  0  0  0
   -0.7500    1.2990    0.0000 C   0  0  0  0  0  0  0  0  0  0  0  0
   -1.5000    0.0000    0.0000 C   0  0  0  0  0  0  0  0  0  0  0  0
   -0.7500   -1.2990    0.0000 C   0  0  0  0  0  0  0  0  0  0  0  0
  1  2  1  0
  2  3  1  0
  3  4  2  0
  4  5  1  0
  5  6  1  0
  6  7  1  0
  7  8  1  0
  8  9  2  0
  8 10  1  0
 10 11  1  0
 11 12  2  0
 12 13  1  0
 13 14  2  0
 14 15  1  0
 15 16  1  0
 16 17  1  0
 17 18  1  0
 18 19  1  0
 19 20  1  0
 20 21  1  0
 21 22  1  0
 22 23  2  0
 23 24  1  0
 19 25  1  0
 25 26  2  0
  7 27  1  0
 27 28  2  0
 28 29  1  0
 29 30  2  0
 30 31  1  0
 31 32  2  0
 32  2  1  0
 15 11  1  0
 25 16  1  0
 32 27  1  0
 24 21  1  0
M  END
>  <Title>  (871) 
idABFOgen13

$$$$

     RDKit          2D

 20 20  0  0  0  0  0  0  0  0999 V2000
   22.5000    0.0000    0.0000 C   0  0  0  0  0  0  0  0  0  0  0  0
   21.0000    0.0000    0.0000 C   0  0  0  0  0  0  0  0  0  0  0  0
   19.5000    0.0000    0.0000 C   0  0  0  0  0  0  0  0  0  0  0  0
   18.0000    0.0000    0.0000 C   0  0  0  0  0  0  0  0  0  0  0  0
   16.5000    0.0000    0.0000 C   0  0  0  0  0  0  0  0  0  0  0  0
   15.0000    0.0000    0.0000 C   0  0  0  0  0  0  0  0  0  0  0  0
   13.5000    0.0000    0.0000 C   0  0  0  0  0  0  0  0  0  0  0  0
   12.0000    0.0000    0.0000 C   0  0  0  0  0  0  0  0  0  0  0  0
   10.5000    0.0000    0.0000 C   0  0  0  0  0  0  0  0  0  0  0  0
    9.0000    0.0000    0.0000 C   0  0  0  0  0  0  0  0  0  0  0  0
    7.5000    0.0000    0.0000 C   0  0  0  0  0  0  0  0  0  0  0  0
    6.0000    0.0000    0.0000 C   0  0  0  0  0  0  0  0  0  0  0  0
    4.5000    0.0000    0.0000 C   0  0  0  0  0  0  0  0  0  0  0  0
    3.0000    0.0000    0.0000 C   0  0  0  0  0  0  0  0  0  0  0  0
    1.5000    0.0000    0.0000 C   0  0  0  0  0  0  0  0  0  0  0  0
    0.7500   -1.2990    0.0000 C   0  0  0  0  0  0  0  0  0  0  0  0
   -0.7500   -1.2990    0.0000 C   0  0  0  0  0  0  0  0  0  0  0  0
   -1.5000    0.0000    0.0000 C   0  0  0  0  0  0  0  0  0  0  0  0
   -0.7500    1.2990    0.0000 C   0  0  0  0  0  0  0  0  0  0  0  0
    0.7500    1.2990    0.0000 C   0  0  0  0  0  0  0  0  0  0  0  0
  1  2  3  0
  2  3  1  0
  3  4  3  0
  4  5  1  0
  5  6  3  0
  6  7  1  0
  7  8  3  0
  8  9  1  0
  9 10  3  0
 10 11  1  0
 11 12  3  0
 12 13  1  0
 13 14  3  0
 14 15  1  0
 15 16  2  0
 16 17  1  0
 17 18  2  0
 18 19  1  0
 19 20  2  0
 20 15  1  0
M  END
>  <Title>  (872) 
idABFPgen13

$$$$

     RDKit          2D

 32 35  0  0  0  0  0  0  0  0999 V2000
    3.2286   -0.0000    0.0000 C   0  0  0  0  0  0  0  0  0  0  0  0
    1.7286    0.0000    0.0000 C   0  0  0  0  0  0  0  0  0  0  0  0
    1.0777    1.3515    0.0000 C   0  0  0  0  0  0  0  0  0  0  0  0
   -0.3846    1.6852    0.0000 C   0  0  0  0  0  0  0  0  0  0  0  0
   -1.5574    0.7500    0.0000 C   0  0  0  0  0  0  0  0  0  0  0  0
   -1.5574   -0.7500    0.0000 C   0  0  0  0  0  0  0  0  0  0  0  0
   -2.9088   -1.4008    0.0000 C   0  0  0  0  0  0  0  0  0  0  0  0
   -3.0209   -2.8966    0.0000 O   0  0  0  0  0  0  0  0  0  0  0  0
   -4.1482   -0.5558    0.0000 N   0  0  0  0  0  0  0  0  0  0  0  0
   -5.4997   -1.2067    0.0000 C   0  0  0  0  0  0  0  0  0  0  0  0
   -5.7675   -2.6826    0.0000 N   0  0  0  0  0  0  0  0  0  0  0  0
   -7.2539   -2.8839    0.0000 N   0  0  0  0  0  0  0  0  0  0  0  0
   -7.9047   -1.5325    0.0000 N   0  0  0  0  0  0  0  0  0  0  0  0
   -6.8205   -0.4959    0.0000 N   0  0  0  0  0  0  0  0  0  0  0  0
   -7.0219    0.9906    0.0000 N   0  0  0  0  0  0  0  0  0  0  0  0
   -8.3428    1.7014    0.0000 C   0  0  0  0  0  0  0  0  0  0  0  0
   -8.0750    3.1773    0.0000 C   0  0  0  0  0  0  0  0  0  0  0  0
   -6.5885    3.3786    0.0000 C   0  0  0  0  0  0  0  0  0  0  0  0
   -5.8777    4.6995    0.0000 C   0  0  0  0  0  0  0  0  0  0  0  0
   -6.6663    5.9755    0.0000 O   0  0  0  0  0  0  0  0  0  0  0  0
   -4.3784    4.7444    0.0000 N   0  0  0  0  0  0  0  0  0  0  0  0
   -3.6676    6.0653    0.0000 C   0  0  0  0  0  0  0  0  0  0  0  0
   -2.1683    6.1101    0.0000 N   0  0  0  0  0  0  0  0  0  0  0  0
   -1.4575    7.4310    0.0000 N   0  0  0  0  0  0  0  0  0  0  0  0
   -2.2460    8.7071    0.0000 N   0  0  0  0  0  0  0  0  0  0  0  0
   -3.7453    8.6622    0.0000 N   0  0  0  0  0  0  0  0  0  0  0  0
   -4.4561    7.3413    0.0000 N   0  0  0  0  0  0  0  0  0  0  0  0
   -5.9377    2.0272    0.0000 C   0  0  0  0  0  0  0  0  0  0  0  0
   -4.4618    1.7593    0.0000 O   0  0  0  0  0  0  0  0  0  0  0  0
   -0.3846   -1.6852    0.0000 C   0  0  0  0  0  0  0  0  0  0  0  0
   -0.7184   -3.1476    0.0000 O   0  0  0  0  0  0  0  0  0  0  0  0
    1.0777   -1.3515    0.0000 N   0  0  0  0  0  0  0  0  0  0  0  0
  1  2  1  0
  2  3  2  0
  3  4  1  0
  4  5  1  0
  5  6  2  0
  6  7  1  0
  7  8  2  0
  7  9  1  0
  9 10  1  0
 10 11  2  0
 11 12  1  0
 12 13  2  0
 13 14  1  0
 14 15  1  0
 15 16  1  0
 16 17  1  0
 17 18  1  0
 18 19  1  0
 19 20  2  0
 19 21  1  0
 21 22  1  0
 22 23  2  0
 23 24  1  0
 24 25  2  0
 25 26  1  0
 26 27  2  0
 18 28  1  0
 28 29  2  0
  6 30  1  0
 30 31  2  0
 30 32  1  0
 32  2  1  0
 14 10  1  0
 28 15  1  0
 27 22  1  0
M  END
>  <Title>  (873) 
idABFQgen13

$$$$

     RDKit          2D

 43 48  0  0  0  0  0  0  0  0999 V2000
   -3.1771   -5.9156    0.0000 C   0  0  0  0  0  0  0  0  0  0  0  0
   -1.9635   -5.0339    0.0000 C   0  0  0  0  0  0  0  0  0  0  0  0
   -0.7500   -5.9156    0.0000 C   0  0  0  0  0  0  0  0  0  0  0  0
    0.7500   -5.9156    0.0000 C   0  0  0  0  0  0  0  0  0  0  0  0
    1.9635   -5.0339    0.0000 C   0  0  0  0  0  0  0  0  0  0  0  0
    2.4271   -3.6073    0.0000 C   0  0  0  0  0  0  0  0  0  0  0  0
    1.9635   -2.1807    0.0000 C   0  0  0  0  0  0  0  0  0  0  0  0
    3.1771   -1.2990    0.0000 C   0  0  0  0  0  0  0  0  0  0  0  0
    3.0203    0.1927    0.0000 O   0  0  0  0  0  0  0  0  0  0  0  0
    4.5474   -1.9091    0.0000 N   0  0  0  0  0  0  0  0  0  0  0  0
    5.7609   -1.0275    0.0000 C   0  0  0  0  0  0  0  0  0  0  0  0
    5.7609    0.4725    0.0000 N   0  0  0  0  0  0  0  0  0  0  0  0
    7.1875    0.9361    0.0000 N   0  0  0  0  0  0  0  0  0  0  0  0
    8.0692   -0.2775    0.0000 N   0  0  0  0  0  0  0  0  0  0  0  0
    7.1875   -1.4910    0.0000 N   0  0  0  0  0  0  0  0  0  0  0  0
    7.6510   -2.9176    0.0000 C   0  0  0  0  0  0  0  0  0  0  0  0
    9.0776   -3.3811    0.0000 C   0  0  0  0  0  0  0  0  0  0  0  0
    9.0776   -4.8811    0.0000 C   0  0  0  0  0  0  0  0  0  0  0  0
    7.6510   -5.3446    0.0000 C   0  0  0  0  0  0  0  0  0  0  0  0
    7.1875   -6.7712    0.0000 C   0  0  0  0  0  0  0  0  0  0  0  0
    8.1912   -7.8859    0.0000 O   0  0  0  0  0  0  0  0  0  0  0  0
    5.7203   -7.0831    0.0000 N   0  0  0  0  0  0  0  0  0  0  0  0
    5.2567   -8.5097    0.0000 C   0  0  0  0  0  0  0  0  0  0  0  0
    3.7895   -8.8215    0.0000 N   0  0  0  0  0  0  0  0  0  0  0  0
    3.3260  -10.2481    0.0000 N   0  0  0  0  0  0  0  0  0  0  0  0
    4.3297  -11.3628    0.0000 N   0  0  0  0  0  0  0  0  0  0  0  0
    5.7969  -11.0510    0.0000 N   0  0  0  0  0  0  0  0  0  0  0  0
    6.2604   -9.6244    0.0000 N   0  0  0  0  0  0  0  0  0  0  0  0
    6.7693   -4.1311    0.0000 C   0  0  0  0  0  0  0  0  0  0  0  0
    5.2693   -4.1311    0.0000 C   0  0  0  0  0  0  0  0  0  0  0  0
    4.5193   -5.4301    0.0000 O   0  0  0  0  0  0  0  0  0  0  0  0
    0.7500   -1.2990    0.0000 C   0  0  0  0  0  0  0  0  0  0  0  0
    1.5000    0.0000    0.0000 C   0  0  0  0  0  0  0  0  0  0  0  0
    0.7500    1.2990    0.0000 C   0  0  0  0  0  0  0  0  0  0  0  0
   -0.7500    1.2990    0.0000 C   0  0  0  0  0  0  0  0  0  0  0  0
   -1.5000    0.0000    0.0000 C   0  0  0  0  0  0  0  0  0  0  0  0
   -0.7500   -1.2990    0.0000 C   0  0  0  0  0  0  0  0  0  0  0  0
   -1.9635   -2.1807    0.0000 C   0  0  0  0  0  0  0  0  0  0  0  0
   -2.9672   -1.0660    0.0000 C   0  0  0  0  0  0  0  0  0  0  0  0
   -4.4344   -1.3779    0.0000 C   0  0  0  0  0  0  0  0  0  0  0  0
   -4.8980   -2.8045    0.0000 C   0  0  0  0  0  0  0  0  0  0  0  0
   -3.8943   -3.9192    0.0000 C   0  0  0  0  0  0  0  0  0  0  0  0
   -2.4271   -3.6073    0.0000 C   0  0  0  0  0  0  0  0  0  0  0  0
  1  2  1  0
  2  3  1  0
  3  4  2  0
  4  5  1  0
  5  6  1  0
  6  7  1  0
  7  8  1  0
  8  9  2  0
  8 10  1  0
 10 11  1  0
 11 12  2  0
 12 13  1  0
 13 14  2  0
 14 15  1  0
 15 16  1  0
 16 17  2  0
 17 18  1  0
 18 19  2  0
 19 20  1  0
 20 21  2  0
 20 22  1  0
 22 23  1  0
 23 24  2  0
 24 25  1  0
 25 26  2  0
 26 27  1  0
 27 28  2  0
 19 29  1  0
 29 30  1  0
 30 31  1  0
  7 32  1  0
 32 33  2  0
 33 34  1  0
 34 35  2  0
 35 36  1  0
 36 37  2  0
 37 38  1  0
 38 39  2  0
 39 40  1  0
 40 41  2  0
 41 42  1  0
 42 43  2  0
 43  2  1  0
 15 11  1  0
 29 16  1  0
 37 32  1  0
 43 38  1  0
 28 23  1  0
M  END
>  <Title>  (874) 
idABFRgen13

$$$$

     RDKit          2D

 17 19  0  0  0  0  0  0  0  0999 V2000
   -0.1480    5.7439    0.0000 C   0  0  0  0  0  0  0  0  0  0  0  0
   -0.8489    4.4177    0.0000 C   0  0  0  0  0  0  0  0  0  0  0  0
   -2.3479    4.3616    0.0000 O   0  0  0  0  0  0  0  0  0  0  0  0
   -0.0509    3.1476    0.0000 N   0  0  0  0  0  0  0  0  0  0  0  0
    1.4115    2.8138    0.0000 C   0  0  0  0  0  0  0  0  0  0  0  0
    1.0777    1.3515    0.0000 C   0  0  0  0  0  0  0  0  0  0  0  0
    1.7286    0.0000    0.0000 C   0  0  0  0  0  0  0  0  0  0  0  0
    1.0777   -1.3515    0.0000 C   0  0  0  0  0  0  0  0  0  0  0  0
   -0.3846   -1.6852    0.0000 C   0  0  0  0  0  0  0  0  0  0  0  0
   -1.5574   -0.7500    0.0000 C   0  0  0  0  0  0  0  0  0  0  0  0
   -2.9088   -1.4008    0.0000 C   0  0  0  0  0  0  0  0  0  0  0  0
   -3.1767   -2.8767    0.0000 C   0  0  0  0  0  0  0  0  0  0  0  0
   -4.6631   -3.0781    0.0000 C   0  0  0  0  0  0  0  0  0  0  0  0
   -5.3139   -1.7266    0.0000 C   0  0  0  0  0  0  0  0  0  0  0  0
   -4.2297   -0.6900    0.0000 C   0  0  0  0  0  0  0  0  0  0  0  0
   -1.5574    0.7500    0.0000 C   0  0  0  0  0  0  0  0  0  0  0  0
   -0.3846    1.6852    0.0000 C   0  0  0  0  0  0  0  0  0  0  0  0
  1  2  1  0
  2  3  2  0
  2  4  1  0
  4  5  1  0
  5  6  1  0
  6  7  1  0
  7  8  1  0
  8  9  1  0
  9 10  1  0
 10 11  1  0
 11 12  1  0
 12 13  1  0
 13 14  1  0
 14 15  1  0
 10 16  1  0
 16 17  1  0
 17  4  1  0
 17  6  1  0
 15 11  1  0
M  END
>  <Title>  (875) 
idABFSgen13

$$$$

     RDKit          2D

 12 11  0  0  0  0  0  0  0  0999 V2000
    0.0000    0.0000    0.0000 C   0  0  0  0  0  0  0  0  0  0  0  0
   -0.0000   -1.5000    0.0000 C   0  0  0  0  0  0  0  0  0  0  0  0
   -0.0000   -3.0000    0.0000 C   0  0  0  0  0  0  0  0  0  0  0  0
   -0.0000   -4.5000    0.0000 C   0  0  0  0  0  0  0  0  0  0  0  0
   -0.0000   -6.0000    0.0000 C   0  0  0  0  0  0  0  0  0  0  0  0
   -0.0000   -7.5000    0.0000 C   0  0  0  0  0  0  0  0  0  0  0  0
   -0.0000   -9.0000    0.0000 C   0  0  0  0  0  0  0  0  0  0  0  0
   -0.0000  -10.5000    0.0000 C   0  0  0  0  0  0  0  0  0  0  0  0
   -0.0000  -12.0000    0.0000 C   0  0  0  0  0  0  0  0  0  0  0  0
   -0.0000  -13.5000    0.0000 C   0  0  0  0  0  0  0  0  0  0  0  0
   -0.0000  -15.0000    0.0000 C   0  0  0  0  0  0  0  0  0  0  0  0
   -0.0000  -16.5000    0.0000 C   0  0  0  0  0  0  0  0  0  0  0  0
  1  2  3  0
  2  3  1  0
  3  4  3  0
  4  5  1  0
  5  6  3  0
  6  7  1  0
  7  8  3  0
  8  9  1  0
  9 10  3  0
 10 11  1  0
 11 12  3  0
M  END
>  <Title>  (876) 
idABFTgen13

$$$$

     RDKit          2D

 35 39  0  0  0  0  0  0  0  0999 V2000
   -3.0000   -2.5981    0.0000 C   0  0  0  0  0  0  0  0  0  0  0  0
   -1.5000   -2.5981    0.0000 C   0  0  0  0  0  0  0  0  0  0  0  0
   -0.7500   -3.8971    0.0000 C   0  0  0  0  0  0  0  0  0  0  0  0
    0.7500   -3.8971    0.0000 C   0  0  0  0  0  0  0  0  0  0  0  0
    1.5000   -2.5981    0.0000 C   0  0  0  0  0  0  0  0  0  0  0  0
    3.0000   -2.5981    0.0000 C   0  0  0  0  0  0  0  0  0  0  0  0
    3.7500   -1.2990    0.0000 O   0  0  0  0  0  0  0  0  0  0  0  0
    3.7500   -3.8971    0.0000 N   0  0  0  0  0  0  0  0  0  0  0  0
    5.2500   -3.8971    0.0000 C   0  0  0  0  0  0  0  0  0  0  0  0
    6.1317   -2.6836    0.0000 N   0  0  0  0  0  0  0  0  0  0  0  0
    7.5583   -3.1471    0.0000 N   0  0  0  0  0  0  0  0  0  0  0  0
    7.5583   -4.6471    0.0000 N   0  0  0  0  0  0  0  0  0  0  0  0
    6.1317   -5.1106    0.0000 N   0  0  0  0  0  0  0  0  0  0  0  0
    5.6682   -6.5372    0.0000 C   0  0  0  0  0  0  0  0  0  0  0  0
    6.5498   -7.7508    0.0000 C   0  0  0  0  0  0  0  0  0  0  0  0
    5.6682   -8.9643    0.0000 C   0  0  0  0  0  0  0  0  0  0  0  0
    4.2416   -8.5008    0.0000 C   0  0  0  0  0  0  0  0  0  0  0  0
    3.0280   -9.3824    0.0000 O   0  0  0  0  0  0  0  0  0  0  0  0
    1.6577   -8.7723    0.0000 C   0  0  0  0  0  0  0  0  0  0  0  0
    1.5009   -7.2805    0.0000 O   0  0  0  0  0  0  0  0  0  0  0  0
    0.4442   -9.6540    0.0000 N   0  0  0  0  0  0  0  0  0  0  0  0
   -0.9261   -9.0439    0.0000 C   0  0  0  0  0  0  0  0  0  0  0  0
   -1.0829   -7.5521    0.0000 N   0  0  0  0  0  0  0  0  0  0  0  0
   -2.4532   -6.9420    0.0000 N   0  0  0  0  0  0  0  0  0  0  0  0
   -3.6668   -7.8237    0.0000 N   0  0  0  0  0  0  0  0  0  0  0  0
   -3.5100   -9.3155    0.0000 N   0  0  0  0  0  0  0  0  0  0  0  0
   -2.1396   -9.9256    0.0000 N   0  0  0  0  0  0  0  0  0  0  0  0
    4.2416   -7.0008    0.0000 C   0  0  0  0  0  0  0  0  0  0  0  0
    3.0280   -6.1191    0.0000 O   0  0  0  0  0  0  0  0  0  0  0  0
    0.7500   -1.2990    0.0000 C   0  0  0  0  0  0  0  0  0  0  0  0
    1.5000    0.0000    0.0000 C   0  0  0  0  0  0  0  0  0  0  0  0
    0.7500    1.2990    0.0000 C   0  0  0  0  0  0  0  0  0  0  0  0
   -0.7500    1.2990    0.0000 C   0  0  0  0  0  0  0  0  0  0  0  0
   -1.5000    0.0000    0.0000 C   0  0  0  0  0  0  0  0  0  0  0  0
   -0.7500   -1.2990    0.0000 C   0  0  0  0  0  0  0  0  0  0  0  0
  1  2  1  0
  2  3  1  0
  3  4  1  0
  4  5  1  0
  5  6  1  0
  6  7  2  0
  6  8  1  0
  8  9  1  0
  9 10  2  0
 10 11  1  0
 11 12  2  0
 12 13  1  0
 13 14  1  0
 14 15  2  0
 15 16  1  0
 16 17  2  0
 17 18  1  0
 18 19  1  0
 19 20  2  0
 19 21  1  0
 21 22  1  0
 22 23  2  0
 23 24  1  0
 24 25  2  0
 25 26  1  0
 26 27  2  0
 17 28  1  0
 28 29  2  0
  5 30  1  0
 30 31  2  0
 31 32  1  0
 32 33  2  0
 33 34  1  0
 34 35  2  0
 35  2  1  0
 13  9  1  0
 28 14  1  0
 35 30  1  0
 27 22  1  0
M  END
>  <Title>  (877) 
idABFUgen13

$$$$

     RDKit          2D

 77 80  0  0  0  0  0  0  0  0999 V2000
    1.7201  -10.4946    0.0000 C   0  0  0  0  0  0  0  0  0  0  0  0
    3.1840  -10.1674    0.0000 C   0  0  0  0  0  0  0  0  0  0  0  0
    3.6025  -11.6078    0.0000 C   0  0  0  0  0  0  0  0  0  0  0  0
    4.1982  -12.9844    0.0000 C   0  0  0  0  0  0  0  0  0  0  0  0
    4.9618  -14.2756    0.0000 C   0  0  0  0  0  0  0  0  0  0  0  0
    5.8811  -15.4608    0.0000 C   0  0  0  0  0  0  0  0  0  0  0  0
    6.9418  -16.5215    0.0000 C   0  0  0  0  0  0  0  0  0  0  0  0
    8.1270  -17.4408    0.0000 C   0  0  0  0  0  0  0  0  0  0  0  0
    9.4181  -18.2044    0.0000 C   0  0  0  0  0  0  0  0  0  0  0  0
   10.7948  -18.8001    0.0000 C   0  0  0  0  0  0  0  0  0  0  0  0
   12.2352  -19.2186    0.0000 C   0  0  0  0  0  0  0  0  0  0  0  0
   13.7167  -19.4532    0.0000 C   0  0  0  0  0  0  0  0  0  0  0  0
   15.2160  -19.5004    0.0000 C   0  0  0  0  0  0  0  0  0  0  0  0
   16.7093  -19.3592    0.0000 C   0  0  0  0  0  0  0  0  0  0  0  0
   18.1732  -19.0320    0.0000 C   0  0  0  0  0  0  0  0  0  0  0  0
   19.5845  -18.5239    0.0000 C   0  0  0  0  0  0  0  0  0  0  0  0
   20.9210  -17.8429    0.0000 C   0  0  0  0  0  0  0  0  0  0  0  0
   22.1617  -16.9998    0.0000 C   0  0  0  0  0  0  0  0  0  0  0  0
   23.2868  -16.0078    0.0000 C   0  0  0  0  0  0  0  0  0  0  0  0
   24.2788  -14.8826    0.0000 C   0  0  0  0  0  0  0  0  0  0  0  0
   25.1219  -13.6420    0.0000 C   0  0  0  0  0  0  0  0  0  0  0  0
   25.8029  -12.3055    0.0000 C   0  0  0  0  0  0  0  0  0  0  0  0
   26.3110  -10.8942    0.0000 C   0  0  0  0  0  0  0  0  0  0  0  0
   26.6382   -9.4303    0.0000 C   0  0  0  0  0  0  0  0  0  0  0  0
   26.7794   -7.9370    0.0000 C   0  0  0  0  0  0  0  0  0  0  0  0
   26.7323   -6.4377    0.0000 C   0  0  0  0  0  0  0  0  0  0  0  0
   26.4976   -4.9562    0.0000 C   0  0  0  0  0  0  0  0  0  0  0  0
   26.0791   -3.5157    0.0000 C   0  0  0  0  0  0  0  0  0  0  0  0
   25.4834   -2.1391    0.0000 C   0  0  0  0  0  0  0  0  0  0  0  0
   24.7198   -0.8480    0.0000 C   0  0  0  0  0  0  0  0  0  0  0  0
   23.8005    0.3373    0.0000 C   0  0  0  0  0  0  0  0  0  0  0  0
   22.7398    1.3979    0.0000 C   0  0  0  0  0  0  0  0  0  0  0  0
   21.5546    2.3173    0.0000 C   0  0  0  0  0  0  0  0  0  0  0  0
   20.2635    3.0808    0.0000 C   0  0  0  0  0  0  0  0  0  0  0  0
   18.8869    3.6766    0.0000 C   0  0  0  0  0  0  0  0  0  0  0  0
   17.4464    4.0950    0.0000 C   0  0  0  0  0  0  0  0  0  0  0  0
   15.9649    4.3297    0.0000 C   0  0  0  0  0  0  0  0  0  0  0  0
   14.4656    4.3768    0.0000 C   0  0  0  0  0  0  0  0  0  0  0  0
   12.9723    4.2357    0.0000 C   0  0  0  0  0  0  0  0  0  0  0  0
   11.5084    3.9084    0.0000 C   0  0  0  0  0  0  0  0  0  0  0  0
   10.0971    3.4003    0.0000 C   0  0  0  0  0  0  0  0  0  0  0  0
    8.7606    2.7193    0.0000 C   0  0  0  0  0  0  0  0  0  0  0  0
    7.5199    1.8762    0.0000 C   0  0  0  0  0  0  0  0  0  0  0  0
    6.3948    0.8843    0.0000 C   0  0  0  0  0  0  0  0  0  0  0  0
    5.4028   -0.2409    0.0000 C   0  0  0  0  0  0  0  0  0  0  0  0
    4.5597   -1.4815    0.0000 C   0  0  0  0  0  0  0  0  0  0  0  0
    4.0943   -0.0000    0.0000 C   0  0  0  0  0  0  0  0  0  0  0  0
    3.8939    1.2652    0.0000 C   0  0  0  0  0  0  0  0  0  0  0  0
    3.3124    2.4066    0.0000 C   0  0  0  0  0  0  0  0  0  0  0  0
    2.4066    3.3124    0.0000 C   0  0  0  0  0  0  0  0  0  0  0  0
    1.2652    3.8939    0.0000 C   0  0  0  0  0  0  0  0  0  0  0  0
    0.0000    4.0943    0.0000 C   0  0  0  0  0  0  0  0  0  0  0  0
   -1.2652    3.8939    0.0000 C   0  0  0  0  0  0  0  0  0  0  0  0
   -2.4066    3.3124    0.0000 C   0  0  0  0  0  0  0  0  0  0  0  0
   -3.3124    2.4066    0.0000 C   0  0  0  0  0  0  0  0  0  0  0  0
   -3.8939    1.2652    0.0000 C   0  0  0  0  0  0  0  0  0  0  0  0
   -4.0943    0.0000    0.0000 C   0  0  0  0  0  0  0  0  0  0  0  0
   -3.8939   -1.2652    0.0000 C   0  0  0  0  0  0  0  0  0  0  0  0
   -3.3124   -2.4066    0.0000 C   0  0  0  0  0  0  0  0  0  0  0  0
   -2.4066   -3.3124    0.0000 C   0  0  0  0  0  0  0  0  0  0  0  0
   -1.2652   -3.8939    0.0000 C   0  0  0  0  0  0  0  0  0  0  0  0
   -0.0000   -4.0943    0.0000 C   0  0  0  0  0  0  0  0  0  0  0  0
    1.2652   -3.8939    0.0000 C   0  0  0  0  0  0  0  0  0  0  0  0
    2.4066   -3.3124    0.0000 C   0  0  0  0  0  0  0  0  0  0  0  0
    3.8787   -2.8180    0.0000 C   0  0  0  0  0  0  0  0  0  0  0  0
    3.3706   -4.2294    0.0000 C   0  0  0  0  0  0  0  0  0  0  0  0
    4.8020   -3.7808    0.0000 C   0  0  0  0  0  0  0  0  0  0  0  0
    5.9061   -4.7961    0.0000 C   0  0  0  0  0  0  0  0  0  0  0  0
    5.5789   -6.2600    0.0000 C   0  0  0  0  0  0  0  0  0  0  0  0
    4.1475   -6.7086    0.0000 C   0  0  0  0  0  0  0  0  0  0  0  0
    3.0434   -5.6932    0.0000 C   0  0  0  0  0  0  0  0  0  0  0  0
    2.9022   -7.1866    0.0000 C   0  0  0  0  0  0  0  0  0  0  0  0
    1.5803   -6.4778    0.0000 C   0  0  0  0  0  0  0  0  0  0  0  0
    0.3054   -7.2682    0.0000 C   0  0  0  0  0  0  0  0  0  0  0  0
    0.3525   -8.7674    0.0000 C   0  0  0  0  0  0  0  0  0  0  0  0
    1.6745   -9.4763    0.0000 C   0  0  0  0  0  0  0  0  0  0  0  0
    2.9493   -8.6858    0.0000 C   0  0  0  0  0  0  0  0  0  0  0  0
  1  2  1  0
  2  3  1  0
  3  4  1  0
  4  5  1  0
  5  6  1  0
  6  7  1  0
  7  8  1  0
  8  9  1  0
  9 10  1  0
 10 11  1  0
 11 12  1  0
 12 13  1  0
 13 14  1  0
 14 15  1  0
 15 16  1  0
 16 17  1  0
 17 18  1  0
 18 19  1  0
 19 20  1  0
 20 21  1  0
 21 22  1  0
 22 23  1  0
 23 24  1  0
 24 25  1  0
 25 26  1  0
 26 27  1  0
 27 28  1  0
 28 29  1  0
 29 30  1  0
 30 31  1  0
 31 32  1  0
 32 33  1  0
 33 34  1  0
 34 35  1  0
 35 36  1  0
 36 37  1  0
 37 38  1  0
 38 39  1  0
 39 40  1  0
 40 41  1  0
 41 42  1  0
 42 43  1  0
 43 44  1  0
 44 45  1  0
 45 46  1  0
 46 47  1  0
 47 48  1  0
 48 49  1  0
 49 50  1  0
 50 51  2  0
 51 52  1  0
 52 53  2  0
 53 54  1  0
 54 55  2  0
 55 56  1  0
 56 57  2  0
 57 58  1  0
 58 59  2  0
 59 60  1  0
 60 61  2  0
 61 62  1  0
 62 63  2  0
 63 64  1  0
 64 65  2  0
 65 66  1  0
 66 67  2  0
 67 68  1  0
 68 69  2  0
 69 70  1  0
 70 71  2  0
 71 72  1  0
 72 73  2  0
 73 74  1  0
 74 75  2  0
 75 76  1  0
 76 77  2  0
 77  2  1  0
 65 46  1  0
 71 66  1  0
 77 72  1  0
M  END
>  <Title>  (878) 
idABFVgen13

$$$$

     RDKit          2D

 11 12  0  0  0  0  0  0  0  0999 V2000
    2.7760    0.0000    0.0000 C   0  0  0  0  0  0  0  0  0  0  0  0
    1.2760    0.0000    0.0000 C   0  0  0  0  0  0  0  0  0  0  0  0
    0.3943    1.2135    0.0000 C   0  0  0  0  0  0  0  0  0  0  0  0
   -1.0323    0.7500    0.0000 C   0  0  0  0  0  0  0  0  0  0  0  0
   -1.0323   -0.7500    0.0000 N   0  0  0  0  0  0  0  0  0  0  0  0
    0.3943   -1.2135    0.0000 N   0  0  0  0  0  0  0  0  0  0  0  0
    0.8578   -2.6401    0.0000 C   0  0  0  0  0  0  0  0  0  0  0  0
    2.2844   -3.1036    0.0000 C   0  0  0  0  0  0  0  0  0  0  0  0
    2.2844   -4.6036    0.0000 C   0  0  0  0  0  0  0  0  0  0  0  0
    0.8578   -5.0672    0.0000 C   0  0  0  0  0  0  0  0  0  0  0  0
   -0.0239   -3.8536    0.0000 C   0  0  0  0  0  0  0  0  0  0  0  0
  1  2  1  0
  2  3  2  0
  3  4  1  0
  4  5  2  0
  5  6  1  0
  6  7  1  0
  7  8  2  0
  8  9  1  0
  9 10  1  0
 10 11  1  0
  6  2  1  0
 11  7  1  0
M  END
>  <Title>  (879) 
idABFWgen13

$$$$

     RDKit          2D

 95 96  0  0  0  0  0  0  0  0999 V2000
    6.7932    4.3279    0.0000 C   0  0  0  0  0  0  0  0  0  0  0  0
    7.5851    4.4192    0.0000 C   0  0  0  0  0  0  0  0  0  0  0  0
    7.4902    5.9162    0.0000 C   0  0  0  0  0  0  0  0  0  0  0  0
    7.5498    7.4150    0.0000 C   0  0  0  0  0  0  0  0  0  0  0  0
    7.7632    8.8998    0.0000 C   0  0  0  0  0  0  0  0  0  0  0  0
    8.1281   10.3547    0.0000 C   0  0  0  0  0  0  0  0  0  0  0  0
    8.6407   11.7644    0.0000 C   0  0  0  0  0  0  0  0  0  0  0  0
    9.2955   13.1140    0.0000 C   0  0  0  0  0  0  0  0  0  0  0  0
   10.0856   14.3890    0.0000 C   0  0  0  0  0  0  0  0  0  0  0  0
   11.0026   15.5761    0.0000 C   0  0  0  0  0  0  0  0  0  0  0  0
   12.0368   16.6625    0.0000 C   0  0  0  0  0  0  0  0  0  0  0  0
   13.1772   17.6369    0.0000 C   0  0  0  0  0  0  0  0  0  0  0  0
   14.4118   18.4889    0.0000 C   0  0  0  0  0  0  0  0  0  0  0  0
   15.7274   19.2094    0.0000 C   0  0  0  0  0  0  0  0  0  0  0  0
   17.1101   19.7908    0.0000 C   0  0  0  0  0  0  0  0  0  0  0  0
   18.5453   20.2269    0.0000 C   0  0  0  0  0  0  0  0  0  0  0  0
   20.0177   20.5132    0.0000 C   0  0  0  0  0  0  0  0  0  0  0  0
   21.5118   20.6466    0.0000 C   0  0  0  0  0  0  0  0  0  0  0  0
   23.0117   20.6256    0.0000 C   0  0  0  0  0  0  0  0  0  0  0  0
   24.5014   20.4505    0.0000 C   0  0  0  0  0  0  0  0  0  0  0  0
   25.9653   20.1232    0.0000 C   0  0  0  0  0  0  0  0  0  0  0  0
   27.3877   19.6471    0.0000 C   0  0  0  0  0  0  0  0  0  0  0  0
   28.7536   19.0273    0.0000 C   0  0  0  0  0  0  0  0  0  0  0  0
   30.0486   18.2703    0.0000 C   0  0  0  0  0  0  0  0  0  0  0  0
   31.2589   17.3841    0.0000 C   0  0  0  0  0  0  0  0  0  0  0  0
   32.3716   16.3783    0.0000 C   0  0  0  0  0  0  0  0  0  0  0  0
   33.3751   15.2633    0.0000 C   0  0  0  0  0  0  0  0  0  0  0  0
   34.2585   14.0511    0.0000 C   0  0  0  0  0  0  0  0  0  0  0  0
   35.0127   12.7544    0.0000 C   0  0  0  0  0  0  0  0  0  0  0  0
   35.6295   11.3871    0.0000 C   0  0  0  0  0  0  0  0  0  0  0  0
   36.1024    9.9636    0.0000 C   0  0  0  0  0  0  0  0  0  0  0  0
   36.4265    8.4991    0.0000 C   0  0  0  0  0  0  0  0  0  0  0  0
   36.5983    7.0089    0.0000 C   0  0  0  0  0  0  0  0  0  0  0  0
   36.6160    5.5090    0.0000 C   0  0  0  0  0  0  0  0  0  0  0  0
   36.4793    4.0153    0.0000 C   0  0  0  0  0  0  0  0  0  0  0  0
   36.1898    2.5435    0.0000 C   0  0  0  0  0  0  0  0  0  0  0  0
   35.7505    1.1093    0.0000 C   0  0  0  0  0  0  0  0  0  0  0  0
   35.1660   -0.2722    0.0000 C   0  0  0  0  0  0  0  0  0  0  0  0
   34.4426   -1.5862    0.0000 C   0  0  0  0  0  0  0  0  0  0  0  0
   33.5879   -2.8189    0.0000 C   0  0  0  0  0  0  0  0  0  0  0  0
   32.6110   -3.9572    0.0000 C   0  0  0  0  0  0  0  0  0  0  0  0
   31.5223   -4.9890    0.0000 C   0  0  0  0  0  0  0  0  0  0  0  0
   30.3332   -5.9034    0.0000 C   0  0  0  0  0  0  0  0  0  0  0  0
   29.0564   -6.6906    0.0000 C   0  0  0  0  0  0  0  0  0  0  0  0
   27.7054   -7.3425    0.0000 C   0  0  0  0  0  0  0  0  0  0  0  0
   26.2946   -7.8519    0.0000 C   0  0  0  0  0  0  0  0  0  0  0  0
   24.8388   -8.2136    0.0000 C   0  0  0  0  0  0  0  0  0  0  0  0
   23.3536   -8.4237    0.0000 C   0  0  0  0  0  0  0  0  0  0  0  0
   21.8547   -8.4800    0.0000 C   0  0  0  0  0  0  0  0  0  0  0  0
   20.3579   -8.3818    0.0000 C   0  0  0  0  0  0  0  0  0  0  0  0
   18.8791   -8.1303    0.0000 C   0  0  0  0  0  0  0  0  0  0  0  0
   17.4341   -7.7280    0.0000 C   0  0  0  0  0  0  0  0  0  0  0  0
   16.0380   -7.1794    0.0000 C   0  0  0  0  0  0  0  0  0  0  0  0
   14.7058   -6.4900    0.0000 C   0  0  0  0  0  0  0  0  0  0  0  0
   13.4515   -5.6674    0.0000 C   0  0  0  0  0  0  0  0  0  0  0  0
   12.2885   -4.7201    0.0000 C   0  0  0  0  0  0  0  0  0  0  0  0
   11.2290   -3.6583    0.0000 C   0  0  0  0  0  0  0  0  0  0  0  0
   10.2843   -2.4931    0.0000 C   0  0  0  0  0  0  0  0  0  0  0  0
    9.4644   -1.2370    0.0000 C   0  0  0  0  0  0  0  0  0  0  0  0
    8.7780    0.0967    0.0000 C   0  0  0  0  0  0  0  0  0  0  0  0
    8.2324    1.4940    0.0000 C   0  0  0  0  0  0  0  0  0  0  0  0
    7.6669   -0.0000    0.0000 C   0  0  0  0  0  0  0  0  0  0  0  0
    7.5437   -1.3690    0.0000 C   0  0  0  0  0  0  0  0  0  0  0  0
    7.1780   -2.6939    0.0000 C   0  0  0  0  0  0  0  0  0  0  0  0
    6.5816   -3.9323    0.0000 C   0  0  0  0  0  0  0  0  0  0  0  0
    5.7737   -5.0443    0.0000 C   0  0  0  0  0  0  0  0  0  0  0  0
    4.7802   -5.9942    0.0000 C   0  0  0  0  0  0  0  0  0  0  0  0
    3.6331   -6.7514    0.0000 C   0  0  0  0  0  0  0  0  0  0  0  0
    2.3692   -7.2916    0.0000 C   0  0  0  0  0  0  0  0  0  0  0  0
    1.0291   -7.5975    0.0000 C   0  0  0  0  0  0  0  0  0  0  0  0
   -0.3440   -7.6591    0.0000 C   0  0  0  0  0  0  0  0  0  0  0  0
   -1.7060   -7.4746    0.0000 C   0  0  0  0  0  0  0  0  0  0  0  0
   -3.0133   -7.0499    0.0000 C   0  0  0  0  0  0  0  0  0  0  0  0
   -4.2237   -6.3986    0.0000 C   0  0  0  0  0  0  0  0  0  0  0  0
   -5.2983   -5.5416    0.0000 C   0  0  0  0  0  0  0  0  0  0  0  0
   -6.2026   -4.5065    0.0000 C   0  0  0  0  0  0  0  0  0  0  0  0
   -6.9076   -3.3265    0.0000 C   0  0  0  0  0  0  0  0  0  0  0  0
   -7.3906   -2.0397    0.0000 C   0  0  0  0  0  0  0  0  0  0  0  0
   -7.6360   -0.6873    0.0000 C   0  0  0  0  0  0  0  0  0  0  0  0
   -7.6360    0.6873    0.0000 C   0  0  0  0  0  0  0  0  0  0  0  0
   -7.3906    2.0397    0.0000 C   0  0  0  0  0  0  0  0  0  0  0  0
   -6.9076    3.3265    0.0000 C   0  0  0  0  0  0  0  0  0  0  0  0
   -6.2026    4.5065    0.0000 C   0  0  0  0  0  0  0  0  0  0  0  0
   -5.2983    5.5416    0.0000 C   0  0  0  0  0  0  0  0  0  0  0  0
   -4.2237    6.3986    0.0000 C   0  0  0  0  0  0  0  0  0  0  0  0
   -3.0133    7.0499    0.0000 C   0  0  0  0  0  0  0  0  0  0  0  0
   -1.7060    7.4746    0.0000 C   0  0  0  0  0  0  0  0  0  0  0  0
   -0.3440    7.6591    0.0000 C   0  0  0  0  0  0  0  0  0  0  0  0
    1.0291    7.5975    0.0000 C   0  0  0  0  0  0  0  0  0  0  0  0
    2.3692    7.2916    0.0000 C   0  0  0  0  0  0  0  0  0  0  0  0
    3.6331    6.7514    0.0000 C   0  0  0  0  0  0  0  0  0  0  0  0
    4.7802    5.9942    0.0000 C   0  0  0  0  0  0  0  0  0  0  0  0
    5.7737    5.0443    0.0000 C   0  0  0  0  0  0  0  0  0  0  0  0
    6.5816    3.9323    0.0000 C   0  0  0  0  0  0  0  0  0  0  0  0
    7.8334    2.9399    0.0000 C   0  0  0  0  0  0  0  0  0  0  0  0
  1  2  1  0
  2  3  1  0
  3  4  1  0
  4  5  1  0
  5  6  1  0
  6  7  1  0
  7  8  1  0
  8  9  1  0
  9 10  1  0
 10 11  1  0
 11 12  1  0
 12 13  1  0
 13 14  1  0
 14 15  1  0
 15 16  1  0
 16 17  1  0
 17 18  1  0
 18 19  1  0
 19 20  1  0
 20 21  1  0
 21 22  1  0
 22 23  1  0
 23 24  1  0
 24 25  1  0
 25 26  1  0
 26 27  1  0
 27 28  1  0
 28 29  1  0
 29 30  1  0
 30 31  1  0
 31 32  1  0
 32 33  1  0
 33 34  1  0
 34 35  1  0
 35 36  1  0
 36 37  1  0
 37 38  1  0
 38 39  1  0
 39 40  1  0
 40 41  1  0
 41 42  1  0
 42 43  1  0
 43 44  1  0
 44 45  1  0
 45 46  1  0
 46 47  1  0
 47 48  1  0
 48 49  1  0
 49 50  1  0
 50 51  1  0
 51 52  1  0
 52 53  1  0
 53 54  1  0
 54 55  1  0
 55 56  1  0
 56 57  1  0
 57 58  1  0
 58 59  1  0
 59 60  1  0
 60 61  1  0
 61 62  1  0
 62 63  1  0
 63 64  1  0
 64 65  1  0
 65 66  1  0
 66 67  2  0
 67 68  1  0
 68 69  2  0
 69 70  1  0
 70 71  2  0
 71 72  1  0
 72 73  2  0
 73 74  1  0
 74 75  2  0
 75 76  1  0
 76 77  2  0
 77 78  1  0
 78 79  2  0
 79 80  1  0
 80 81  2  0
 81 82  1  0
 82 83  2  0
 83 84  1  0
 84 85  2  0
 85 86  1  0
 86 87  2  0
 87 88  1  0
 88 89  2  0
 89 90  1  0
 90 91  2  0
 91 92  1  0
 92 93  2  0
 93 94  1  0
 94 95  2  0
 95  2  1  0
 95 61  1  0
M  END
>  <Title>  (880) 
idABFXgen13

$$$$

     RDKit          2D

 84 87  0  0  0  0  0  0  0  0999 V2000
   -7.0179   -5.6147    0.0000 C   0  0  0  0  0  0  0  0  0  0  0  0
   -5.8490   -6.5547    0.0000 C   0  0  0  0  0  0  0  0  0  0  0  0
   -6.7348   -7.7652    0.0000 C   0  0  0  0  0  0  0  0  0  0  0  0
   -7.5069   -9.0512    0.0000 C   0  0  0  0  0  0  0  0  0  0  0  0
   -8.1588  -10.4021    0.0000 C   0  0  0  0  0  0  0  0  0  0  0  0
   -8.6852  -11.8067    0.0000 C   0  0  0  0  0  0  0  0  0  0  0  0
   -9.0817  -13.2534    0.0000 C   0  0  0  0  0  0  0  0  0  0  0  0
   -9.3449  -14.7301    0.0000 C   0  0  0  0  0  0  0  0  0  0  0  0
   -9.4728  -16.2247    0.0000 C   0  0  0  0  0  0  0  0  0  0  0  0
   -9.4643  -17.7246    0.0000 C   0  0  0  0  0  0  0  0  0  0  0  0
   -9.3194  -19.2176    0.0000 C   0  0  0  0  0  0  0  0  0  0  0  0
   -9.0393  -20.6912    0.0000 C   0  0  0  0  0  0  0  0  0  0  0  0
   -8.6264  -22.1333    0.0000 C   0  0  0  0  0  0  0  0  0  0  0  0
   -8.0841  -23.5318    0.0000 C   0  0  0  0  0  0  0  0  0  0  0  0
   -7.4168  -24.8752    0.0000 C   0  0  0  0  0  0  0  0  0  0  0  0
   -6.6302  -26.1524    0.0000 C   0  0  0  0  0  0  0  0  0  0  0  0
   -5.7306  -27.3527    0.0000 C   0  0  0  0  0  0  0  0  0  0  0  0
   -4.7257  -28.4663    0.0000 C   0  0  0  0  0  0  0  0  0  0  0  0
   -3.6236  -29.4839    0.0000 C   0  0  0  0  0  0  0  0  0  0  0  0
   -2.4336  -30.3970    0.0000 C   0  0  0  0  0  0  0  0  0  0  0  0
   -1.1654  -31.1982    0.0000 C   0  0  0  0  0  0  0  0  0  0  0  0
    0.1703  -31.8807    0.0000 C   0  0  0  0  0  0  0  0  0  0  0  0
    1.5626  -32.4389    0.0000 C   0  0  0  0  0  0  0  0  0  0  0  0
    2.9998  -32.8682    0.0000 C   0  0  0  0  0  0  0  0  0  0  0  0
    4.4701  -33.1650    0.0000 C   0  0  0  0  0  0  0  0  0  0  0  0
    5.9614  -33.3269    0.0000 C   0  0  0  0  0  0  0  0  0  0  0  0
    7.4612  -33.3525    0.0000 C   0  0  0  0  0  0  0  0  0  0  0  0
    8.9571  -33.2416    0.0000 C   0  0  0  0  0  0  0  0  0  0  0  0
   10.4367  -32.9952    0.0000 C   0  0  0  0  0  0  0  0  0  0  0  0
   11.8878  -32.6152    0.0000 C   0  0  0  0  0  0  0  0  0  0  0  0
   13.2983  -32.1049    0.0000 C   0  0  0  0  0  0  0  0  0  0  0  0
   14.6565  -31.4683    0.0000 C   0  0  0  0  0  0  0  0  0  0  0  0
   15.9513  -30.7110    0.0000 C   0  0  0  0  0  0  0  0  0  0  0  0
   17.1718  -29.8390    0.0000 C   0  0  0  0  0  0  0  0  0  0  0  0
   18.3079  -28.8596    0.0000 C   0  0  0  0  0  0  0  0  0  0  0  0
   19.3503  -27.7810    0.0000 C   0  0  0  0  0  0  0  0  0  0  0  0
   20.2903  -26.6121    0.0000 C   0  0  0  0  0  0  0  0  0  0  0  0
   21.1201  -25.3625    0.0000 C   0  0  0  0  0  0  0  0  0  0  0  0
   21.8329  -24.0427    0.0000 C   0  0  0  0  0  0  0  0  0  0  0  0
   22.4226  -22.6635    0.0000 C   0  0  0  0  0  0  0  0  0  0  0  0
   22.8845  -21.2364    0.0000 C   0  0  0  0  0  0  0  0  0  0  0  0
   23.2148  -19.7731    0.0000 C   0  0  0  0  0  0  0  0  0  0  0  0
   23.4105  -18.2860    0.0000 C   0  0  0  0  0  0  0  0  0  0  0  0
   23.4703  -16.7872    0.0000 C   0  0  0  0  0  0  0  0  0  0  0  0
   23.3935  -15.2891    0.0000 C   0  0  0  0  0  0  0  0  0  0  0  0
   23.1808  -13.8043    0.0000 C   0  0  0  0  0  0  0  0  0  0  0  0
   22.8339  -12.3449    0.0000 C   0  0  0  0  0  0  0  0  0  0  0  0
   22.3558  -10.9232    0.0000 C   0  0  0  0  0  0  0  0  0  0  0  0
   21.7504   -9.5508    0.0000 C   0  0  0  0  0  0  0  0  0  0  0  0
   21.0227   -8.2391    0.0000 C   0  0  0  0  0  0  0  0  0  0  0  0
   20.1787   -6.9991    0.0000 C   0  0  0  0  0  0  0  0  0  0  0  0
   19.2255   -5.8409    0.0000 C   0  0  0  0  0  0  0  0  0  0  0  0
   18.1709   -4.7743    0.0000 C   0  0  0  0  0  0  0  0  0  0  0  0
   17.0236   -3.8079    0.0000 C   0  0  0  0  0  0  0  0  0  0  0  0
   15.7933   -2.9499    0.0000 C   0  0  0  0  0  0  0  0  0  0  0  0
   14.4900   -2.2073    0.0000 C   0  0  0  0  0  0  0  0  0  0  0  0
   13.1246   -1.5863    0.0000 C   0  0  0  0  0  0  0  0  0  0  0  0
   11.7083   -1.0920    0.0000 C   0  0  0  0  0  0  0  0  0  0  0  0
   10.2530   -0.7286    0.0000 C   0  0  0  0  0  0  0  0  0  0  0  0
    8.7707   -0.4990    0.0000 C   0  0  0  0  0  0  0  0  0  0  0  0
    7.2737   -0.4051    0.0000 C   0  0  0  0  0  0  0  0  0  0  0  0
    5.7743   -0.4478    0.0000 C   0  0  0  0  0  0  0  0  0  0  0  0
    4.2850   -0.6267    0.0000 C   0  0  0  0  0  0  0  0  0  0  0  0
    2.8181   -0.9402    0.0000 C   0  0  0  0  0  0  0  0  0  0  0  0
    1.3858   -1.3858    0.0000 C   0  0  0  0  0  0  0  0  0  0  0  0
    1.9598    0.0000    0.0000 C   0  0  0  0  0  0  0  0  0  0  0  0
    1.3858    1.3858    0.0000 C   0  0  0  0  0  0  0  0  0  0  0  0
    0.0000    1.9598    0.0000 C   0  0  0  0  0  0  0  0  0  0  0  0
   -1.3858    1.3858    0.0000 C   0  0  0  0  0  0  0  0  0  0  0  0
   -1.9598    0.0000    0.0000 C   0  0  0  0  0  0  0  0  0  0  0  0
   -1.3858   -1.3858    0.0000 C   0  0  0  0  0  0  0  0  0  0  0  0
   -0.0000   -1.9598    0.0000 C   0  0  0  0  0  0  0  0  0  0  0  0
   -1.3279   -2.6575    0.0000 C   0  0  0  0  0  0  0  0  0  0  0  0
    0.0079   -3.3400    0.0000 C   0  0  0  0  0  0  0  0  0  0  0  0
    0.0847   -4.8380    0.0000 C   0  0  0  0  0  0  0  0  0  0  0  0
   -1.1743   -5.6536    0.0000 C   0  0  0  0  0  0  0  0  0  0  0  0
   -2.5100   -4.9711    0.0000 C   0  0  0  0  0  0  0  0  0  0  0  0
   -2.5868   -3.4730    0.0000 C   0  0  0  0  0  0  0  0  0  0  0  0
   -3.7664   -4.3997    0.0000 C   0  0  0  0  0  0  0  0  0  0  0  0
   -4.1132   -2.9403    0.0000 C   0  0  0  0  0  0  0  0  0  0  0  0
   -5.5505   -2.5110    0.0000 C   0  0  0  0  0  0  0  0  0  0  0  0
   -6.6409   -3.5411    0.0000 C   0  0  0  0  0  0  0  0  0  0  0  0
   -6.2940   -5.0004    0.0000 C   0  0  0  0  0  0  0  0  0  0  0  0
   -4.8568   -5.4297    0.0000 C   0  0  0  0  0  0  0  0  0  0  0  0
  1  2  1  0
  2  3  1  0
  3  4  1  0
  4  5  1  0
  5  6  1  0
  6  7  1  0
  7  8  1  0
  8  9  1  0
  9 10  1  0
 10 11  1  0
 11 12  1  0
 12 13  1  0
 13 14  1  0
 14 15  1  0
 15 16  1  0
 16 17  1  0
 17 18  1  0
 18 19  1  0
 19 20  1  0
 20 21  1  0
 21 22  1  0
 22 23  1  0
 23 24  1  0
 24 25  1  0
 25 26  1  0
 26 27  1  0
 27 28  1  0
 28 29  1  0
 29 30  1  0
 30 31  1  0
 31 32  1  0
 32 33  1  0
 33 34  1  0
 34 35  1  0
 35 36  1  0
 36 37  1  0
 37 38  1  0
 38 39  1  0
 39 40  1  0
 40 41  1  0
 41 42  1  0
 42 43  1  0
 43 44  1  0
 44 45  1  0
 45 46  1  0
 46 47  1  0
 47 48  1  0
 48 49  1  0
 49 50  1  0
 50 51  1  0
 51 52  1  0
 52 53  1  0
 53 54  1  0
 54 55  1  0
 55 56  1  0
 56 57  1  0
 57 58  1  0
 58 59  1  0
 59 60  1  0
 60 61  1  0
 61 62  1  0
 62 63  1  0
 63 64  1  0
 64 65  1  0
 65 66  1  0
 66 67  1  0
 67 68  1  0
 68 69  1  0
 69 70  1  0
 70 71  1  0
 71 72  1  0
 72 73  1  0
 73 74  2  0
 74 75  1  0
 75 76  2  0
 76 77  1  0
 77 78  2  0
 78 79  1  0
 79 80  2  0
 80 81  1  0
 81 82  2  0
 82 83  1  0
 83 84  2  0
 84  2  1  0
 72 65  1  0
 78 73  1  0
 84 79  1  0
M  END
>  <Title>  (881) 
idABFYgen13

$$$$

     RDKit          2D

 68 70  0  0  0  0  0  0  0  0999 V2000
   -2.4764    0.0257    0.0000 C   0  0  0  0  0  0  0  0  0  0  0  0
   -2.2418   -1.4558    0.0000 C   0  0  0  0  0  0  0  0  0  0  0  0
   -3.7090   -1.7677    0.0000 C   0  0  0  0  0  0  0  0  0  0  0  0
   -5.1356   -2.2312    0.0000 C   0  0  0  0  0  0  0  0  0  0  0  0
   -6.5059   -2.8413    0.0000 C   0  0  0  0  0  0  0  0  0  0  0  0
   -7.8049   -3.5913    0.0000 C   0  0  0  0  0  0  0  0  0  0  0  0
   -9.0185   -4.4730    0.0000 C   0  0  0  0  0  0  0  0  0  0  0  0
  -10.1332   -5.4767    0.0000 C   0  0  0  0  0  0  0  0  0  0  0  0
  -11.1369   -6.5914    0.0000 C   0  0  0  0  0  0  0  0  0  0  0  0
  -12.0186   -7.8049    0.0000 C   0  0  0  0  0  0  0  0  0  0  0  0
  -12.7686   -9.1040    0.0000 C   0  0  0  0  0  0  0  0  0  0  0  0
  -13.3787  -10.4743    0.0000 C   0  0  0  0  0  0  0  0  0  0  0  0
  -13.8422  -11.9009    0.0000 C   0  0  0  0  0  0  0  0  0  0  0  0
  -14.1541  -13.3681    0.0000 C   0  0  0  0  0  0  0  0  0  0  0  0
  -14.3109  -14.8599    0.0000 C   0  0  0  0  0  0  0  0  0  0  0  0
  -14.3109  -16.3599    0.0000 C   0  0  0  0  0  0  0  0  0  0  0  0
  -14.1541  -17.8517    0.0000 C   0  0  0  0  0  0  0  0  0  0  0  0
  -13.8422  -19.3189    0.0000 C   0  0  0  0  0  0  0  0  0  0  0  0
  -13.3787  -20.7455    0.0000 C   0  0  0  0  0  0  0  0  0  0  0  0
  -12.7686  -22.1158    0.0000 C   0  0  0  0  0  0  0  0  0  0  0  0
  -12.0186  -23.4148    0.0000 C   0  0  0  0  0  0  0  0  0  0  0  0
  -11.1369  -24.6284    0.0000 C   0  0  0  0  0  0  0  0  0  0  0  0
  -10.1332  -25.7431    0.0000 C   0  0  0  0  0  0  0  0  0  0  0  0
   -9.0185  -26.7468    0.0000 C   0  0  0  0  0  0  0  0  0  0  0  0
   -7.8049  -27.6285    0.0000 C   0  0  0  0  0  0  0  0  0  0  0  0
   -6.5059  -28.3785    0.0000 C   0  0  0  0  0  0  0  0  0  0  0  0
   -5.1356  -28.9886    0.0000 C   0  0  0  0  0  0  0  0  0  0  0  0
   -3.7090  -29.4521    0.0000 C   0  0  0  0  0  0  0  0  0  0  0  0
   -2.2418  -29.7640    0.0000 C   0  0  0  0  0  0  0  0  0  0  0  0
   -0.7500  -29.9207    0.0000 C   0  0  0  0  0  0  0  0  0  0  0  0
    0.7500  -29.9207    0.0000 C   0  0  0  0  0  0  0  0  0  0  0  0
    2.2418  -29.7640    0.0000 C   0  0  0  0  0  0  0  0  0  0  0  0
    3.7090  -29.4521    0.0000 C   0  0  0  0  0  0  0  0  0  0  0  0
    5.1356  -28.9886    0.0000 C   0  0  0  0  0  0  0  0  0  0  0  0
    6.5059  -28.3785    0.0000 C   0  0  0  0  0  0  0  0  0  0  0  0
    7.8049  -27.6285    0.0000 C   0  0  0  0  0  0  0  0  0  0  0  0
    9.0185  -26.7468    0.0000 C   0  0  0  0  0  0  0  0  0  0  0  0
   10.1332  -25.7431    0.0000 C   0  0  0  0  0  0  0  0  0  0  0  0
   11.1369  -24.6284    0.0000 C   0  0  0  0  0  0  0  0  0  0  0  0
   12.0186  -23.4148    0.0000 C   0  0  0  0  0  0  0  0  0  0  0  0
   12.7686  -22.1158    0.0000 C   0  0  0  0  0  0  0  0  0  0  0  0
   13.3787  -20.7455    0.0000 C   0  0  0  0  0  0  0  0  0  0  0  0
   13.8422  -19.3189    0.0000 C   0  0  0  0  0  0  0  0  0  0  0  0
   14.1541  -17.8517    0.0000 C   0  0  0  0  0  0  0  0  0  0  0  0
   14.3109  -16.3599    0.0000 C   0  0  0  0  0  0  0  0  0  0  0  0
   14.3109  -14.8599    0.0000 C   0  0  0  0  0  0  0  0  0  0  0  0
   14.1541  -13.3681    0.0000 C   0  0  0  0  0  0  0  0  0  0  0  0
   13.8422  -11.9009    0.0000 C   0  0  0  0  0  0  0  0  0  0  0  0
   13.3787  -10.4743    0.0000 C   0  0  0  0  0  0  0  0  0  0  0  0
   12.7686   -9.1040    0.0000 C   0  0  0  0  0  0  0  0  0  0  0  0
   12.0186   -7.8049    0.0000 C   0  0  0  0  0  0  0  0  0  0  0  0
   11.1369   -6.5914    0.0000 C   0  0  0  0  0  0  0  0  0  0  0  0
   10.1332   -5.4767    0.0000 C   0  0  0  0  0  0  0  0  0  0  0  0
    9.0185   -4.4730    0.0000 C   0  0  0  0  0  0  0  0  0  0  0  0
    7.8049   -3.5913    0.0000 C   0  0  0  0  0  0  0  0  0  0  0  0
    6.5059   -2.8413    0.0000 C   0  0  0  0  0  0  0  0  0  0  0  0
    5.1356   -2.2312    0.0000 C   0  0  0  0  0  0  0  0  0  0  0  0
    3.7090   -1.7677    0.0000 C   0  0  0  0  0  0  0  0  0  0  0  0
    3.8658   -3.2595    0.0000 C   0  0  0  0  0  0  0  0  0  0  0  0
    2.4955   -3.8696    0.0000 C   0  0  0  0  0  0  0  0  0  0  0  0
    1.4918   -2.7549    0.0000 C   0  0  0  0  0  0  0  0  0  0  0  0
    2.2418   -1.4558    0.0000 C   0  0  0  0  0  0  0  0  0  0  0  0
    0.7500   -1.2990    0.0000 C   0  0  0  0  0  0  0  0  0  0  0  0
    1.5000    0.0000    0.0000 C   0  0  0  0  0  0  0  0  0  0  0  0
    0.7500    1.2990    0.0000 C   0  0  0  0  0  0  0  0  0  0  0  0
   -0.7500    1.2990    0.0000 C   0  0  0  0  0  0  0  0  0  0  0  0
   -1.5000    0.0000    0.0000 C   0  0  0  0  0  0  0  0  0  0  0  0
   -0.7500   -1.2990    0.0000 C   0  0  0  0  0  0  0  0  0  0  0  0
  1  2  1  0
  2  3  1  0
  3  4  1  0
  4  5  1  0
  5  6  1  0
  6  7  1  0
  7  8  1  0
  8  9  1  0
  9 10  1  0
 10 11  1  0
 11 12  1  0
 12 13  1  0
 13 14  1  0
 14 15  1  0
 15 16  1  0
 16 17  1  0
 17 18  1  0
 18 19  1  0
 19 20  1  0
 20 21  1  0
 21 22  1  0
 22 23  1  0
 23 24  1  0
 24 25  1  0
 25 26  1  0
 26 27  1  0
 27 28  1  0
 28 29  1  0
 29 30  1  0
 30 31  1  0
 31 32  1  0
 32 33  1  0
 33 34  1  0
 34 35  1  0
 35 36  1  0
 36 37  1  0
 37 38  1  0
 38 39  1  0
 39 40  1  0
 40 41  1  0
 41 42  1  0
 42 43  1  0
 43 44  1  0
 44 45  1  0
 45 46  1  0
 46 47  1  0
 47 48  1  0
 48 49  1  0
 49 50  1  0
 50 51  1  0
 51 52  1  0
 52 53  1  0
 53 54  2  0
 54 55  1  0
 55 56  2  0
 56 57  1  0
 57 58  2  0
 58 59  1  0
 59 60  2  0
 60 61  1  0
 61 62  2  0
 62 63  1  0
 63 64  2  0
 64 65  1  0
 65 66  2  0
 66 67  1  0
 67 68  2  0
 68  2  1  0
 62 58  1  0
 68 63  1  0
M  END
>  <Title>  (882) 
idABFZgen13

$$$$

     RDKit          2D

 28 27  0  0  0  0  0  0  0  0999 V2000
    0.0000    0.0000    0.0000 C   0  0  0  0  0  0  0  0  0  0  0  0
   -0.0000   -1.5000    0.0000 C   0  0  0  0  0  0  0  0  0  0  0  0
   -0.0000   -3.0000    0.0000 C   0  0  0  0  0  0  0  0  0  0  0  0
   -0.0000   -4.5000    0.0000 C   0  0  0  0  0  0  0  0  0  0  0  0
   -0.0000   -6.0000    0.0000 C   0  0  0  0  0  0  0  0  0  0  0  0
   -0.0000   -7.5000    0.0000 C   0  0  0  0  0  0  0  0  0  0  0  0
   -0.0000   -9.0000    0.0000 C   0  0  0  0  0  0  0  0  0  0  0  0
   -0.0000  -10.5000    0.0000 C   0  0  0  0  0  0  0  0  0  0  0  0
   -0.0000  -12.0000    0.0000 C   0  0  0  0  0  0  0  0  0  0  0  0
   -0.0000  -13.5000    0.0000 C   0  0  0  0  0  0  0  0  0  0  0  0
   -0.0000  -15.0000    0.0000 C   0  0  0  0  0  0  0  0  0  0  0  0
   -0.0000  -16.5000    0.0000 C   0  0  0  0  0  0  0  0  0  0  0  0
   -0.0000  -18.0000    0.0000 C   0  0  0  0  0  0  0  0  0  0  0  0
   -0.0000  -19.5000    0.0000 C   0  0  0  0  0  0  0  0  0  0  0  0
   -0.0000  -21.0000    0.0000 C   0  0  0  0  0  0  0  0  0  0  0  0
   -0.0000  -22.5000    0.0000 C   0  0  0  0  0  0  0  0  0  0  0  0
   -0.0000  -24.0000    0.0000 C   0  0  0  0  0  0  0  0  0  0  0  0
   -0.0000  -25.5000    0.0000 C   0  0  0  0  0  0  0  0  0  0  0  0
   -0.0000  -27.0000    0.0000 C   0  0  0  0  0  0  0  0  0  0  0  0
   -0.0000  -28.5000    0.0000 C   0  0  0  0  0  0  0  0  0  0  0  0
   -0.0000  -30.0000    0.0000 C   0  0  0  0  0  0  0  0  0  0  0  0
   -0.0000  -31.5000    0.0000 C   0  0  0  0  0  0  0  0  0  0  0  0
   -0.0000  -33.0000    0.0000 C   0  0  0  0  0  0  0  0  0  0  0  0
   -0.0000  -34.5000    0.0000 C   0  0  0  0  0  0  0  0  0  0  0  0
   -0.0000  -36.0000    0.0000 C   0  0  0  0  0  0  0  0  0  0  0  0
   -0.0000  -37.5000    0.0000 C   0  0  0  0  0  0  0  0  0  0  0  0
   -0.0000  -39.0000    0.0000 C   0  0  0  0  0  0  0  0  0  0  0  0
   -0.0000  -40.5000    0.0000 C   0  0  0  0  0  0  0  0  0  0  0  0
  1  2  3  0
  2  3  1  0
  3  4  3  0
  4  5  1  0
  5  6  3  0
  6  7  1  0
  7  8  3  0
  8  9  1  0
  9 10  3  0
 10 11  1  0
 11 12  3  0
 12 13  1  0
 13 14  3  0
 14 15  1  0
 15 16  3  0
 16 17  1  0
 17 18  3  0
 18 19  1  0
 19 20  3  0
 20 21  1  0
 21 22  3  0
 22 23  1  0
 23 24  3  0
 24 25  1  0
 25 26  3  0
 26 27  1  0
 27 28  3  0
M  END
>  <Title>  (883) 
idABGAgen13

$$$$

     RDKit          2D

 40 44  0  0  0  0  0  0  0  0999 V2000
   -8.2500   -6.4952    0.0000 C   0  0  0  0  0  0  0  0  0  0  0  0
   -7.5000   -5.1962    0.0000 C   0  0  0  0  0  0  0  0  0  0  0  0
   -6.0000   -5.1962    0.0000 C   0  0  0  0  0  0  0  0  0  0  0  0
   -5.2500   -3.8971    0.0000 C   0  0  0  0  0  0  0  0  0  0  0  0
   -3.7500   -3.8971    0.0000 C   0  0  0  0  0  0  0  0  0  0  0  0
   -3.0000   -5.1962    0.0000 O   0  0  0  0  0  0  0  0  0  0  0  0
   -3.0000   -2.5981    0.0000 N   0  0  0  0  0  0  0  0  0  0  0  0
   -1.5000   -2.5981    0.0000 C   0  0  0  0  0  0  0  0  0  0  0  0
   -0.7500   -3.8971    0.0000 C   0  0  0  0  0  0  0  0  0  0  0  0
    0.7500   -3.8971    0.0000 C   0  0  0  0  0  0  0  0  0  0  0  0
    1.5000   -2.5981    0.0000 C   0  0  0  0  0  0  0  0  0  0  0  0
    3.0000   -2.5981    0.0000 C   0  0  0  0  0  0  0  0  0  0  0  0
    3.7500   -1.2990    0.0000 O   0  0  0  0  0  0  0  0  0  0  0  0
    3.7500   -3.8971    0.0000 N   0  0  0  0  0  0  0  0  0  0  0  0
    5.2500   -3.8971    0.0000 C   0  0  0  0  0  0  0  0  0  0  0  0
    6.1317   -2.6836    0.0000 N   0  0  0  0  0  0  0  0  0  0  0  0
    7.5583   -3.1471    0.0000 N   0  0  0  0  0  0  0  0  0  0  0  0
    7.5583   -4.6471    0.0000 N   0  0  0  0  0  0  0  0  0  0  0  0
    6.1317   -5.1106    0.0000 N   0  0  0  0  0  0  0  0  0  0  0  0
    5.6682   -6.5372    0.0000 C   0  0  0  0  0  0  0  0  0  0  0  0
    6.5498   -7.7508    0.0000 C   0  0  0  0  0  0  0  0  0  0  0  0
    5.6682   -8.9643    0.0000 C   0  0  0  0  0  0  0  0  0  0  0  0
    4.2416   -8.5008    0.0000 C   0  0  0  0  0  0  0  0  0  0  0  0
    3.0280   -9.3824    0.0000 C   0  0  0  0  0  0  0  0  0  0  0  0
    3.1848  -10.8742    0.0000 O   0  0  0  0  0  0  0  0  0  0  0  0
    1.6577   -8.7723    0.0000 N   0  0  0  0  0  0  0  0  0  0  0  0
    0.4442   -9.6540    0.0000 C   0  0  0  0  0  0  0  0  0  0  0  0
   -0.9261   -9.0439    0.0000 N   0  0  0  0  0  0  0  0  0  0  0  0
   -2.1396   -9.9256    0.0000 N   0  0  0  0  0  0  0  0  0  0  0  0
   -1.9829  -11.4174    0.0000 N   0  0  0  0  0  0  0  0  0  0  0  0
   -0.6125  -12.0275    0.0000 N   0  0  0  0  0  0  0  0  0  0  0  0
    0.6010  -11.1458    0.0000 N   0  0  0  0  0  0  0  0  0  0  0  0
    4.2416   -7.0008    0.0000 C   0  0  0  0  0  0  0  0  0  0  0  0
    3.0280   -6.1191    0.0000 O   0  0  0  0  0  0  0  0  0  0  0  0
    0.7500   -1.2990    0.0000 C   0  0  0  0  0  0  0  0  0  0  0  0
    1.5000    0.0000    0.0000 C   0  0  0  0  0  0  0  0  0  0  0  0
    0.7500    1.2990    0.0000 C   0  0  0  0  0  0  0  0  0  0  0  0
   -0.7500    1.2990    0.0000 C   0  0  0  0  0  0  0  0  0  0  0  0
   -1.5000    0.0000    0.0000 C   0  0  0  0  0  0  0  0  0  0  0  0
   -0.7500   -1.2990    0.0000 C   0  0  0  0  0  0  0  0  0  0  0  0
  1  2  2  0
  2  3  1  0
  3  4  1  0
  4  5  1  0
  5  6  2  0
  5  7  1  0
  7  8  1  0
  8  9  2  0
  9 10  1  0
 10 11  2  0
 11 12  1  0
 12 13  2  0
 12 14  1  0
 14 15  1  0
 15 16  2  0
 16 17  1  0
 17 18  2  0
 18 19  1  0
 19 20  1  0
 20 21  2  0
 21 22  1  0
 22 23  2  0
 23 24  1  0
 24 25  2  0
 24 26  1  0
 26 27  1  0
 27 28  2  0
 28 29  1  0
 29 30  2  0
 30 31  1  0
 31 32  2  0
 23 33  1  0
 33 34  2  0
 11 35  1  0
 35 36  2  0
 36 37  1  0
 37 38  2  0
 38 39  1  0
 39 40  2  0
 40  8  1  0
 19 15  1  0
 33 20  1  0
 40 35  1  0
 32 27  1  0
M  END
>  <Title>  (884) 
idABGBgen13

$$$$

     RDKit          2D

 37 41  0  0  0  0  0  0  0  0999 V2000
   -3.1981   -1.5132    0.0000 C   0  0  0  0  0  0  0  0  0  0  0  0
   -1.8991   -2.2632    0.0000 C   0  0  0  0  0  0  0  0  0  0  0  0
   -2.1595   -3.7404    0.0000 C   0  0  0  0  0  0  0  0  0  0  0  0
   -1.4095   -5.0395    0.0000 C   0  0  0  0  0  0  0  0  0  0  0  0
   -0.0000   -5.5525    0.0000 C   0  0  0  0  0  0  0  0  0  0  0  0
    1.4095   -5.0395    0.0000 C   0  0  0  0  0  0  0  0  0  0  0  0
    2.1595   -3.7404    0.0000 C   0  0  0  0  0  0  0  0  0  0  0  0
    1.8991   -2.2632    0.0000 C   0  0  0  0  0  0  0  0  0  0  0  0
    3.1981   -1.5132    0.0000 C   0  0  0  0  0  0  0  0  0  0  0  0
    3.1981   -0.0132    0.0000 O   0  0  0  0  0  0  0  0  0  0  0  0
    4.4971   -2.2632    0.0000 N   0  0  0  0  0  0  0  0  0  0  0  0
    5.7962   -1.5132    0.0000 C   0  0  0  0  0  0  0  0  0  0  0  0
    5.9530   -0.0214    0.0000 N   0  0  0  0  0  0  0  0  0  0  0  0
    7.4202    0.2904    0.0000 N   0  0  0  0  0  0  0  0  0  0  0  0
    8.1702   -1.0086    0.0000 N   0  0  0  0  0  0  0  0  0  0  0  0
    7.1665   -2.1233    0.0000 N   0  0  0  0  0  0  0  0  0  0  0  0
    7.4784   -3.5905    0.0000 C   0  0  0  0  0  0  0  0  0  0  0  0
    8.8487   -4.2007    0.0000 C   0  0  0  0  0  0  0  0  0  0  0  0
    8.6919   -5.6924    0.0000 C   0  0  0  0  0  0  0  0  0  0  0  0
    7.2247   -6.0043    0.0000 C   0  0  0  0  0  0  0  0  0  0  0  0
    6.6146   -7.3746    0.0000 C   0  0  0  0  0  0  0  0  0  0  0  0
    7.4962   -8.5881    0.0000 O   0  0  0  0  0  0  0  0  0  0  0  0
    5.1228   -7.5314    0.0000 N   0  0  0  0  0  0  0  0  0  0  0  0
    4.5127   -8.9017    0.0000 C   0  0  0  0  0  0  0  0  0  0  0  0
    3.0209   -9.0585    0.0000 N   0  0  0  0  0  0  0  0  0  0  0  0
    2.4108  -10.4288    0.0000 N   0  0  0  0  0  0  0  0  0  0  0  0
    3.2925  -11.6424    0.0000 N   0  0  0  0  0  0  0  0  0  0  0  0
    4.7843  -11.4856    0.0000 N   0  0  0  0  0  0  0  0  0  0  0  0
    5.3944  -10.1153    0.0000 N   0  0  0  0  0  0  0  0  0  0  0  0
    6.4747   -4.7053    0.0000 C   0  0  0  0  0  0  0  0  0  0  0  0
    4.9829   -4.5485    0.0000 O   0  0  0  0  0  0  0  0  0  0  0  0
    0.7500   -1.2990    0.0000 C   0  0  0  0  0  0  0  0  0  0  0  0
    1.5000    0.0000    0.0000 C   0  0  0  0  0  0  0  0  0  0  0  0
    0.7500    1.2990    0.0000 C   0  0  0  0  0  0  0  0  0  0  0  0
   -0.7500    1.2990    0.0000 C   0  0  0  0  0  0  0  0  0  0  0  0
   -1.5000    0.0000    0.0000 C   0  0  0  0  0  0  0  0  0  0  0  0
   -0.7500   -1.2990    0.0000 C   0  0  0  0  0  0  0  0  0  0  0  0
  1  2  1  0
  2  3  1  0
  3  4  2  0
  4  5  1  0
  5  6  1  0
  6  7  1  0
  7  8  1  0
  8  9  1  0
  9 10  2  0
  9 11  1  0
 11 12  1  0
 12 13  2  0
 13 14  1  0
 14 15  2  0
 15 16  1  0
 16 17  1  0
 17 18  2  0
 18 19  1  0
 19 20  2  0
 20 21  1  0
 21 22  2  0
 21 23  1  0
 23 24  1  0
 24 25  2  0
 25 26  1  0
 26 27  2  0
 27 28  1  0
 28 29  2  0
 20 30  1  0
 30 31  2  0
  8 32  1  0
 32 33  2  0
 33 34  1  0
 34 35  2  0
 35 36  1  0
 36 37  2  0
 37  2  1  0
 16 12  1  0
 30 17  1  0
 37 32  1  0
 29 24  1  0
M  END
>  <Title>  (885) 
idABGCgen13

$$$$

     RDKit          2D

 34 38  0  0  0  0  0  0  0  0999 V2000
   -3.0000   -2.5981    0.0000 C   0  0  0  0  0  0  0  0  0  0  0  0
   -1.5000   -2.5981    0.0000 C   0  0  0  0  0  0  0  0  0  0  0  0
   -0.7500   -3.8971    0.0000 C   0  0  0  0  0  0  0  0  0  0  0  0
    0.7500   -3.8971    0.0000 C   0  0  0  0  0  0  0  0  0  0  0  0
    1.5000   -2.5981    0.0000 C   0  0  0  0  0  0  0  0  0  0  0  0
    3.0000   -2.5981    0.0000 C   0  0  0  0  0  0  0  0  0  0  0  0
    3.7500   -1.2990    0.0000 O   0  0  0  0  0  0  0  0  0  0  0  0
    3.7500   -3.8971    0.0000 N   0  0  0  0  0  0  0  0  0  0  0  0
    5.2500   -3.8971    0.0000 C   0  0  0  0  0  0  0  0  0  0  0  0
    6.1317   -2.6836    0.0000 N   0  0  0  0  0  0  0  0  0  0  0  0
    7.5583   -3.1471    0.0000 N   0  0  0  0  0  0  0  0  0  0  0  0
    7.5583   -4.6471    0.0000 N   0  0  0  0  0  0  0  0  0  0  0  0
    6.1317   -5.1106    0.0000 N   0  0  0  0  0  0  0  0  0  0  0  0
    5.6682   -6.5372    0.0000 C   0  0  0  0  0  0  0  0  0  0  0  0
    6.5498   -7.7508    0.0000 C   0  0  0  0  0  0  0  0  0  0  0  0
    5.6682   -8.9643    0.0000 C   0  0  0  0  0  0  0  0  0  0  0  0
    4.2416   -8.5008    0.0000 C   0  0  0  0  0  0  0  0  0  0  0  0
    3.0280   -9.3824    0.0000 C   0  0  0  0  0  0  0  0  0  0  0  0
    3.1848  -10.8742    0.0000 O   0  0  0  0  0  0  0  0  0  0  0  0
    1.6577   -8.7723    0.0000 N   0  0  0  0  0  0  0  0  0  0  0  0
    0.4442   -9.6540    0.0000 C   0  0  0  0  0  0  0  0  0  0  0  0
   -0.9261   -9.0439    0.0000 N   0  0  0  0  0  0  0  0  0  0  0  0
   -2.1396   -9.9256    0.0000 N   0  0  0  0  0  0  0  0  0  0  0  0
   -1.9829  -11.4174    0.0000 N   0  0  0  0  0  0  0  0  0  0  0  0
   -0.6125  -12.0275    0.0000 N   0  0  0  0  0  0  0  0  0  0  0  0
    0.6010  -11.1458    0.0000 N   0  0  0  0  0  0  0  0  0  0  0  0
    4.2416   -7.0008    0.0000 C   0  0  0  0  0  0  0  0  0  0  0  0
    3.0280   -6.1191    0.0000 O   0  0  0  0  0  0  0  0  0  0  0  0
    0.7500   -1.2990    0.0000 C   0  0  0  0  0  0  0  0  0  0  0  0
    1.5000    0.0000    0.0000 C   0  0  0  0  0  0  0  0  0  0  0  0
    0.7500    1.2990    0.0000 C   0  0  0  0  0  0  0  0  0  0  0  0
   -0.7500    1.2990    0.0000 C   0  0  0  0  0  0  0  0  0  0  0  0
   -1.5000    0.0000    0.0000 C   0  0  0  0  0  0  0  0  0  0  0  0
   -0.7500   -1.2990    0.0000 C   0  0  0  0  0  0  0  0  0  0  0  0
  1  2  1  0
  2  3  2  0
  3  4  1  0
  4  5  2  0
  5  6  1  0
  6  7  2  0
  6  8  1  0
  8  9  1  0
  9 10  2  0
 10 11  1  0
 11 12  2  0
 12 13  1  0
 13 14  1  0
 14 15  2  0
 15 16  1  0
 16 17  2  0
 17 18  1  0
 18 19  2  0
 18 20  1  0
 20 21  1  0
 21 22  2  0
 22 23  1  0
 23 24  2  0
 24 25  1  0
 25 26  2  0
 17 27  1  0
 27 28  2  0
  5 29  1  0
 29 30  2  0
 30 31  1  0
 31 32  2  0
 32 33  1  0
 33 34  2  0
 34  2  1  0
 13  9  1  0
 27 14  1  0
 34 29  1  0
 26 21  1  0
M  END
>  <Title>  (886) 
idABGDgen13

$$$$

     RDKit          2D

  5  5  0  0  0  0  0  0  0  0999 V2000
    1.2760    0.0000    0.0000 C   0  0  0  0  0  0  0  0  0  0  0  0
    0.3943    1.2135    0.0000 C   0  0  0  0  0  0  0  0  0  0  0  0
   -1.0323    0.7500    0.0000 C   0  0  0  0  0  0  0  0  0  0  0  0
   -1.0323   -0.7500    0.0000 C   0  0  0  0  0  0  0  0  0  0  0  0
    0.3943   -1.2135    0.0000 C   0  0  0  0  0  0  0  0  0  0  0  0
  1  2  2  0
  2  3  1  0
  3  4  1  0
  4  5  1  0
  5  1  1  0
M  END
>  <Title>  (887) 
idABGEgen13

$$$$

     RDKit          2D

 30 34  0  0  0  0  0  0  0  0999 V2000
   -3.0000   -2.5981    0.0000 C   0  0  0  0  0  0  0  0  0  0  0  0
   -1.5000   -2.5981    0.0000 C   0  0  0  0  0  0  0  0  0  0  0  0
   -0.7500   -1.2990    0.0000 C   0  0  0  0  0  0  0  0  0  0  0  0
    0.7500   -1.2990    0.0000 C   0  0  0  0  0  0  0  0  0  0  0  0
    1.5000   -2.5981    0.0000 C   0  0  0  0  0  0  0  0  0  0  0  0
    3.0000   -2.5981    0.0000 N   0  0  0  0  0  0  0  0  0  0  0  0
    3.7500   -3.8971    0.0000 N   0  0  0  0  0  0  0  0  0  0  0  0
    5.2500   -3.8971    0.0000 C   0  0  0  0  0  0  0  0  0  0  0  0
    6.0000   -2.5981    0.0000 N   0  0  0  0  0  0  0  0  0  0  0  0
    5.2500   -1.2990    0.0000 N   0  0  0  0  0  0  0  0  0  0  0  0
    3.7500   -1.2990    0.0000 N   0  0  0  0  0  0  0  0  0  0  0  0
    3.0000    0.0000    0.0000 N   0  0  0  0  0  0  0  0  0  0  0  0
    3.7500    1.2990    0.0000 C   0  0  0  0  0  0  0  0  0  0  0  0
    3.0000    2.5981    0.0000 C   0  0  0  0  0  0  0  0  0  0  0  0
    1.5000    2.5981    0.0000 C   0  0  0  0  0  0  0  0  0  0  0  0
    0.7500    3.8971    0.0000 C   0  0  0  0  0  0  0  0  0  0  0  0
    1.5000    5.1962    0.0000 C   0  0  0  0  0  0  0  0  0  0  0  0
    0.7500    6.4952    0.0000 C   0  0  0  0  0  0  0  0  0  0  0  0
   -0.7500    6.4952    0.0000 C   0  0  0  0  0  0  0  0  0  0  0  0
   -1.5000    5.1962    0.0000 C   0  0  0  0  0  0  0  0  0  0  0  0
   -0.7500    3.8971    0.0000 C   0  0  0  0  0  0  0  0  0  0  0  0
    0.7500    1.2990    0.0000 C   0  0  0  0  0  0  0  0  0  0  0  0
   -0.7500    1.2990    0.0000 O   0  0  0  0  0  0  0  0  0  0  0  0
    1.5000    0.0000    0.0000 N   0  0  0  0  0  0  0  0  0  0  0  0
    0.7500   -3.8971    0.0000 C   0  0  0  0  0  0  0  0  0  0  0  0
    1.5000   -5.1962    0.0000 C   0  0  0  0  0  0  0  0  0  0  0  0
    0.7500   -6.4952    0.0000 C   0  0  0  0  0  0  0  0  0  0  0  0
   -0.7500   -6.4952    0.0000 C   0  0  0  0  0  0  0  0  0  0  0  0
   -1.5000   -5.1962    0.0000 C   0  0  0  0  0  0  0  0  0  0  0  0
   -0.7500   -3.8971    0.0000 C   0  0  0  0  0  0  0  0  0  0  0  0
  1  2  1  0
  2  3  2  0
  3  4  1  0
  4  5  2  0
  5  6  1  0
  6  7  1  0
  7  8  1  0
  8  9  1  0
  9 10  2  0
 10 11  1  0
 11 12  1  0
 12 13  1  0
 13 14  1  0
 14 15  1  0
 15 16  1  0
 16 17  2  0
 17 18  1  0
 18 19  2  0
 19 20  1  0
 20 21  2  0
 15 22  1  0
 22 23  2  0
 22 24  1  0
  5 25  1  0
 25 26  2  0
 26 27  1  0
 27 28  2  0
 28 29  1  0
 29 30  2  0
 30  2  1  0
 11  6  1  0
 24 12  1  0
 30 25  1  0
 21 16  1  0
M  END
>  <Title>  (888) 
idABGFgen13

$$$$

     RDKit          2D

  3  2  0  0  0  0  0  0  0  0999 V2000
    0.0000    0.0000    0.0000 C   0  0  0  0  0  0  0  0  0  0  0  0
    1.2990    0.7500    0.0000 C   0  0  0  0  0  0  0  0  0  0  0  0
    2.5981   -0.0000    0.0000 N   0  0  0  0  0  0  0  0  0  0  0  0
  1  2  1  0
  2  3  1  0
M  END
>  <Title>  (889) 
idABGGgen13

$$$$

     RDKit          2D

 18 20  0  0  0  0  0  0  0  0999 V2000
   -3.2595   -3.4715    0.0000 C   0  0  0  0  0  0  0  0  0  0  0  0
   -1.8107   -3.8597    0.0000 C   0  0  0  0  0  0  0  0  0  0  0  0
   -1.4224   -5.3086    0.0000 O   0  0  0  0  0  0  0  0  0  0  0  0
   -0.7500   -2.7990    0.0000 N   0  0  0  0  0  0  0  0  0  0  0  0
    0.7500   -2.7990    0.0000 C   0  0  0  0  0  0  0  0  0  0  0  0
    0.7500   -1.2990    0.0000 C   0  0  0  0  0  0  0  0  0  0  0  0
    1.5000    0.0000    0.0000 C   0  0  0  0  0  0  0  0  0  0  0  0
    0.7500    1.2990    0.0000 C   0  0  0  0  0  0  0  0  0  0  0  0
   -0.7500    1.2990    0.0000 C   0  0  0  0  0  0  0  0  0  0  0  0
   -1.5000    2.5981    0.0000 O   0  0  0  0  0  0  0  0  0  0  0  0
   -0.7500    3.8971    0.0000 C   0  0  0  0  0  0  0  0  0  0  0  0
    0.7500    3.8971    0.0000 C   0  0  0  0  0  0  0  0  0  0  0  0
    1.5000    5.1962    0.0000 C   0  0  0  0  0  0  0  0  0  0  0  0
    0.7500    6.4952    0.0000 C   0  0  0  0  0  0  0  0  0  0  0  0
   -0.7500    6.4952    0.0000 C   0  0  0  0  0  0  0  0  0  0  0  0
   -1.5000    5.1962    0.0000 C   0  0  0  0  0  0  0  0  0  0  0  0
   -1.5000    0.0000    0.0000 C   0  0  0  0  0  0  0  0  0  0  0  0
   -0.7500   -1.2990    0.0000 C   0  0  0  0  0  0  0  0  0  0  0  0
  1  2  1  0
  2  3  2  0
  2  4  1  0
  4  5  1  0
  5  6  1  0
  6  7  2  0
  7  8  1  0
  8  9  2  0
  9 10  1  0
 10 11  1  0
 11 12  2  0
 12 13  1  0
 13 14  2  0
 14 15  1  0
 15 16  2  0
  9 17  1  0
 17 18  1  0
 18  4  1  0
 18  6  1  0
 16 11  1  0
M  END
>  <Title>  (890) 
idABGHgen13

$$$$

     RDKit          2D

 83 85  0  0  0  0  0  0  0  0999 V2000
   -5.2779    2.1215    0.0000 C   0  0  0  0  0  0  0  0  0  0  0  0
   -4.5252    3.4190    0.0000 C   0  0  0  0  0  0  0  0  0  0  0  0
   -5.7891    4.2268    0.0000 C   0  0  0  0  0  0  0  0  0  0  0  0
   -6.9789    5.1402    0.0000 C   0  0  0  0  0  0  0  0  0  0  0  0
   -8.0858    6.1526    0.0000 C   0  0  0  0  0  0  0  0  0  0  0  0
   -9.1015    7.2563    0.0000 C   0  0  0  0  0  0  0  0  0  0  0  0
  -10.0186    8.4433    0.0000 C   0  0  0  0  0  0  0  0  0  0  0  0
  -10.8303    9.7047    0.0000 C   0  0  0  0  0  0  0  0  0  0  0  0
  -11.5305   11.0313    0.0000 C   0  0  0  0  0  0  0  0  0  0  0  0
  -12.1141   12.4131    0.0000 C   0  0  0  0  0  0  0  0  0  0  0  0
  -12.5768   13.8399    0.0000 C   0  0  0  0  0  0  0  0  0  0  0  0
  -12.9150   15.3013    0.0000 C   0  0  0  0  0  0  0  0  0  0  0  0
  -13.1264   16.7863    0.0000 C   0  0  0  0  0  0  0  0  0  0  0  0
  -13.2094   18.2840    0.0000 C   0  0  0  0  0  0  0  0  0  0  0  0
  -13.1633   19.7833    0.0000 C   0  0  0  0  0  0  0  0  0  0  0  0
  -12.9885   21.2731    0.0000 C   0  0  0  0  0  0  0  0  0  0  0  0
  -12.6862   22.7423    0.0000 C   0  0  0  0  0  0  0  0  0  0  0  0
  -12.2588   24.1801    0.0000 C   0  0  0  0  0  0  0  0  0  0  0  0
  -11.7094   25.5759    0.0000 C   0  0  0  0  0  0  0  0  0  0  0  0
  -11.0420   26.9192    0.0000 C   0  0  0  0  0  0  0  0  0  0  0  0
  -10.2616   28.2003    0.0000 C   0  0  0  0  0  0  0  0  0  0  0  0
   -9.3739   29.4094    0.0000 C   0  0  0  0  0  0  0  0  0  0  0  0
   -8.3856   30.5378    0.0000 C   0  0  0  0  0  0  0  0  0  0  0  0
   -7.3040   31.5771    0.0000 C   0  0  0  0  0  0  0  0  0  0  0  0
   -6.1370   32.5195    0.0000 C   0  0  0  0  0  0  0  0  0  0  0  0
   -4.8934   33.3581    0.0000 C   0  0  0  0  0  0  0  0  0  0  0  0
   -3.5822   34.0867    0.0000 C   0  0  0  0  0  0  0  0  0  0  0  0
   -2.2133   34.6999    0.0000 C   0  0  0  0  0  0  0  0  0  0  0  0
   -0.7967   35.1932    0.0000 C   0  0  0  0  0  0  0  0  0  0  0  0
    0.6571   35.5628    0.0000 C   0  0  0  0  0  0  0  0  0  0  0  0
    2.1372   35.8061    0.0000 C   0  0  0  0  0  0  0  0  0  0  0  0
    3.6328   35.9213    0.0000 C   0  0  0  0  0  0  0  0  0  0  0  0
    5.1327   35.9074    0.0000 C   0  0  0  0  0  0  0  0  0  0  0  0
    6.6259   35.7647    0.0000 C   0  0  0  0  0  0  0  0  0  0  0  0
    8.1013   35.4941    0.0000 C   0  0  0  0  0  0  0  0  0  0  0  0
    9.5480   35.0978    0.0000 C   0  0  0  0  0  0  0  0  0  0  0  0
   10.9552   34.5785    0.0000 C   0  0  0  0  0  0  0  0  0  0  0  0
   12.3126   33.9401    0.0000 C   0  0  0  0  0  0  0  0  0  0  0  0
   13.6101   33.1875    0.0000 C   0  0  0  0  0  0  0  0  0  0  0  0
   14.8381   32.3261    0.0000 C   0  0  0  0  0  0  0  0  0  0  0  0
   15.9875   31.3623    0.0000 C   0  0  0  0  0  0  0  0  0  0  0  0
   17.0498   30.3032    0.0000 C   0  0  0  0  0  0  0  0  0  0  0  0
   18.0171   29.1568    0.0000 C   0  0  0  0  0  0  0  0  0  0  0  0
   18.8823   27.9315    0.0000 C   0  0  0  0  0  0  0  0  0  0  0  0
   19.6390   26.6363    0.0000 C   0  0  0  0  0  0  0  0  0  0  0  0
   20.2815   25.2809    0.0000 C   0  0  0  0  0  0  0  0  0  0  0  0
   20.8051   23.8752    0.0000 C   0  0  0  0  0  0  0  0  0  0  0  0
   21.2059   22.4298    0.0000 C   0  0  0  0  0  0  0  0  0  0  0  0
   21.4810   20.9552    0.0000 C   0  0  0  0  0  0  0  0  0  0  0  0
   21.6283   19.4625    0.0000 C   0  0  0  0  0  0  0  0  0  0  0  0
   21.6467   17.9626    0.0000 C   0  0  0  0  0  0  0  0  0  0  0  0
   21.5362   16.4667    0.0000 C   0  0  0  0  0  0  0  0  0  0  0  0
   21.2974   14.9858    0.0000 C   0  0  0  0  0  0  0  0  0  0  0  0
   20.9323   13.5309    0.0000 C   0  0  0  0  0  0  0  0  0  0  0  0
   20.4434   12.1128    0.0000 C   0  0  0  0  0  0  0  0  0  0  0  0
   19.8344   10.7420    0.0000 C   0  0  0  0  0  0  0  0  0  0  0  0
   19.1098    9.4286    0.0000 C   0  0  0  0  0  0  0  0  0  0  0  0
   18.2750    8.1824    0.0000 C   0  0  0  0  0  0  0  0  0  0  0  0
   17.3362    7.0125    0.0000 C   0  0  0  0  0  0  0  0  0  0  0  0
   16.3003    5.9277    0.0000 C   0  0  0  0  0  0  0  0  0  0  0  0
   15.1749    4.9359    0.0000 C   0  0  0  0  0  0  0  0  0  0  0  0
   13.9685    4.0446    0.0000 C   0  0  0  0  0  0  0  0  0  0  0  0
   12.6899    3.2602    0.0000 C   0  0  0  0  0  0  0  0  0  0  0  0
   11.3486    2.5887    0.0000 C   0  0  0  0  0  0  0  0  0  0  0  0
    9.9545    2.0350    0.0000 C   0  0  0  0  0  0  0  0  0  0  0  0
    8.5180    1.6031    0.0000 C   0  0  0  0  0  0  0  0  0  0  0  0
    7.0497    1.2964    0.0000 C   0  0  0  0  0  0  0  0  0  0  0  0
    5.5605    1.1170    0.0000 C   0  0  0  0  0  0  0  0  0  0  0  0
    4.0614    1.0663    0.0000 C   0  0  0  0  0  0  0  0  0  0  0  0
    2.5634    1.1446    0.0000 C   0  0  0  0  0  0  0  0  0  0  0  0
    1.0777    1.3515    0.0000 C   0  0  0  0  0  0  0  0  0  0  0  0
    1.7286    0.0000    0.0000 C   0  0  0  0  0  0  0  0  0  0  0  0
    1.0777   -1.3515    0.0000 C   0  0  0  0  0  0  0  0  0  0  0  0
   -0.3846   -1.6852    0.0000 C   0  0  0  0  0  0  0  0  0  0  0  0
   -1.5574   -0.7500    0.0000 C   0  0  0  0  0  0  0  0  0  0  0  0
   -1.5574    0.7500    0.0000 C   0  0  0  0  0  0  0  0  0  0  0  0
   -0.3846    1.6852    0.0000 C   0  0  0  0  0  0  0  0  0  0  0  0
   -1.8129    2.1435    0.0000 C   0  0  0  0  0  0  0  0  0  0  0  0
   -0.6194    3.0521    0.0000 C   0  0  0  0  0  0  0  0  0  0  0  0
   -0.8095    4.5400    0.0000 C   0  0  0  0  0  0  0  0  0  0  0  0
   -2.1931    5.1193    0.0000 C   0  0  0  0  0  0  0  0  0  0  0  0
   -3.3866    4.2107    0.0000 C   0  0  0  0  0  0  0  0  0  0  0  0
   -3.1965    2.7228    0.0000 C   0  0  0  0  0  0  0  0  0  0  0  0
  1  2  1  0
  2  3  1  0
  3  4  1  0
  4  5  1  0
  5  6  1  0
  6  7  1  0
  7  8  1  0
  8  9  1  0
  9 10  1  0
 10 11  1  0
 11 12  1  0
 12 13  1  0
 13 14  1  0
 14 15  1  0
 15 16  1  0
 16 17  1  0
 17 18  1  0
 18 19  1  0
 19 20  1  0
 20 21  1  0
 21 22  1  0
 22 23  1  0
 23 24  1  0
 24 25  1  0
 25 26  1  0
 26 27  1  0
 27 28  1  0
 28 29  1  0
 29 30  1  0
 30 31  1  0
 31 32  1  0
 32 33  1  0
 33 34  1  0
 34 35  1  0
 35 36  1  0
 36 37  1  0
 37 38  1  0
 38 39  1  0
 39 40  1  0
 40 41  1  0
 41 42  1  0
 42 43  1  0
 43 44  1  0
 44 45  2  0
 45 46  1  0
 46 47  2  0
 47 48  1  0
 48 49  2  0
 49 50  1  0
 50 51  2  0
 51 52  1  0
 52 53  2  0
 53 54  1  0
 54 55  2  0
 55 56  1  0
 56 57  2  0
 57 58  1  0
 58 59  2  0
 59 60  1  0
 60 61  2  0
 61 62  1  0
 62 63  2  0
 63 64  1  0
 64 65  2  0
 65 66  1  0
 66 67  2  0
 67 68  1  0
 68 69  2  0
 69 70  1  0
 70 71  2  0
 71 72  1  0
 72 73  2  0
 73 74  1  0
 74 75  2  0
 75 76  1  0
 76 77  2  0
 77 78  1  0
 78 79  2  0
 79 80  1  0
 80 81  2  0
 81 82  1  0
 82 83  2  0
 83  2  1  0
 77 71  1  0
 83 78  1  0
M  END
>  <Title>  (891) 
idABGIgen13

$$$$

     RDKit          2D

 46 52  0  0  0  0  0  0  0  0999 V2000
   -0.0000   -8.0154    0.0000 C   0  0  0  0  0  0  0  0  0  0  0  0
   -0.0000   -6.5154    0.0000 C   0  0  0  0  0  0  0  0  0  0  0  0
    1.4392   -6.0928    0.0000 C   0  0  0  0  0  0  0  0  0  0  0  0
    2.4215   -4.9592    0.0000 C   0  0  0  0  0  0  0  0  0  0  0  0
    2.6350   -3.4744    0.0000 C   0  0  0  0  0  0  0  0  0  0  0  0
    2.0119   -2.1100    0.0000 C   0  0  0  0  0  0  0  0  0  0  0  0
    3.1455   -1.1277    0.0000 C   0  0  0  0  0  0  0  0  0  0  0  0
    2.8616    0.3452    0.0000 O   0  0  0  0  0  0  0  0  0  0  0  0
    4.5630   -1.6183    0.0000 N   0  0  0  0  0  0  0  0  0  0  0  0
    5.6966   -0.6360    0.0000 C   0  0  0  0  0  0  0  0  0  0  0  0
    5.5683    0.8585    0.0000 N   0  0  0  0  0  0  0  0  0  0  0  0
    6.9500    1.4424    0.0000 N   0  0  0  0  0  0  0  0  0  0  0  0
    7.9322    0.3088    0.0000 N   0  0  0  0  0  0  0  0  0  0  0  0
    7.1576   -0.9758    0.0000 N   0  0  0  0  0  0  0  0  0  0  0  0
    7.7416   -2.3574    0.0000 C   0  0  0  0  0  0  0  0  0  0  0  0
    9.2026   -2.6972    0.0000 C   0  0  0  0  0  0  0  0  0  0  0  0
    9.3309   -4.1917    0.0000 C   0  0  0  0  0  0  0  0  0  0  0  0
    7.9492   -4.7756    0.0000 C   0  0  0  0  0  0  0  0  0  0  0  0
    7.6095   -6.2366    0.0000 O   0  0  0  0  0  0  0  0  0  0  0  0
    6.1744   -6.6729    0.0000 C   0  0  0  0  0  0  0  0  0  0  0  0
    5.0789   -5.6482    0.0000 O   0  0  0  0  0  0  0  0  0  0  0  0
    5.8346   -8.1339    0.0000 N   0  0  0  0  0  0  0  0  0  0  0  0
    6.8169   -9.2675    0.0000 C   0  0  0  0  0  0  0  0  0  0  0  0
    6.0423  -10.5521    0.0000 C   0  0  0  0  0  0  0  0  0  0  0  0
    4.5813  -10.2123    0.0000 C   0  0  0  0  0  0  0  0  0  0  0  0
    4.4529   -8.7178    0.0000 C   0  0  0  0  0  0  0  0  0  0  0  0
    6.9670   -3.6420    0.0000 C   0  0  0  0  0  0  0  0  0  0  0  0
    5.4725   -3.7703    0.0000 O   0  0  0  0  0  0  0  0  0  0  0  0
    0.7500   -1.2990    0.0000 C   0  0  0  0  0  0  0  0  0  0  0  0
    1.5000    0.0000    0.0000 C   0  0  0  0  0  0  0  0  0  0  0  0
    0.7500    1.2990    0.0000 C   0  0  0  0  0  0  0  0  0  0  0  0
   -0.7500    1.2990    0.0000 C   0  0  0  0  0  0  0  0  0  0  0  0
   -1.5000    0.0000    0.0000 C   0  0  0  0  0  0  0  0  0  0  0  0
   -0.7500   -1.2990    0.0000 C   0  0  0  0  0  0  0  0  0  0  0  0
   -2.0119   -2.1100    0.0000 C   0  0  0  0  0  0  0  0  0  0  0  0
   -2.8820   -0.8881    0.0000 C   0  0  0  0  0  0  0  0  0  0  0  0
   -4.3752   -1.0307    0.0000 C   0  0  0  0  0  0  0  0  0  0  0  0
   -4.9983   -2.3952    0.0000 C   0  0  0  0  0  0  0  0  0  0  0  0
   -4.1282   -3.6170    0.0000 C   0  0  0  0  0  0  0  0  0  0  0  0
   -2.6350   -3.4744    0.0000 C   0  0  0  0  0  0  0  0  0  0  0  0
   -2.4215   -4.9592    0.0000 C   0  0  0  0  0  0  0  0  0  0  0  0
   -3.8944   -5.2431    0.0000 C   0  0  0  0  0  0  0  0  0  0  0  0
   -4.3850   -6.6606    0.0000 C   0  0  0  0  0  0  0  0  0  0  0  0
   -3.4027   -7.7942    0.0000 C   0  0  0  0  0  0  0  0  0  0  0  0
   -1.9298   -7.5103    0.0000 C   0  0  0  0  0  0  0  0  0  0  0  0
   -1.4392   -6.0928    0.0000 C   0  0  0  0  0  0  0  0  0  0  0  0
  1  2  1  0
  2  3  1  0
  3  4  2  0
  4  5  1  0
  5  6  2  0
  6  7  1  0
  7  8  2  0
  7  9  1  0
  9 10  1  0
 10 11  2  0
 11 12  1  0
 12 13  2  0
 13 14  1  0
 14 15  1  0
 15 16  2  0
 16 17  1  0
 17 18  2  0
 18 19  1  0
 19 20  1  0
 20 21  2  0
 20 22  1  0
 22 23  1  0
 23 24  2  0
 24 25  1  0
 25 26  2  0
 18 27  1  0
 27 28  2  0
  6 29  1  0
 29 30  2  0
 30 31  1  0
 31 32  2  0
 32 33  1  0
 33 34  2  0
 34 35  1  0
 35 36  2  0
 36 37  1  0
 37 38  2  0
 38 39  1  0
 39 40  2  0
 40 41  1  0
 41 42  2  0
 42 43  1  0
 43 44  2  0
 44 45  1  0
 45 46  2  0
 46  2  1  0
 14 10  1  0
 27 15  1  0
 34 29  1  0
 40 35  1  0
 46 41  1  0
 26 22  1  0
M  END
>  <Title>  (892) 
idABGJgen13

$$$$

     RDKit          2D

 16 16  0  0  0  0  0  0  0  0999 V2000
   16.2760   -0.0000    0.0000 C   0  0  0  0  0  0  0  0  0  0  0  0
   14.7760   -0.0000    0.0000 C   0  0  0  0  0  0  0  0  0  0  0  0
   13.2760   -0.0000    0.0000 C   0  0  0  0  0  0  0  0  0  0  0  0
   11.7760   -0.0000    0.0000 C   0  0  0  0  0  0  0  0  0  0  0  0
   10.2760   -0.0000    0.0000 C   0  0  0  0  0  0  0  0  0  0  0  0
    8.7760   -0.0000    0.0000 C   0  0  0  0  0  0  0  0  0  0  0  0
    7.2760   -0.0000    0.0000 C   0  0  0  0  0  0  0  0  0  0  0  0
    5.7760   -0.0000    0.0000 C   0  0  0  0  0  0  0  0  0  0  0  0
    4.2760   -0.0000    0.0000 C   0  0  0  0  0  0  0  0  0  0  0  0
    2.7760    0.0000    0.0000 C   0  0  0  0  0  0  0  0  0  0  0  0
    1.2760    0.0000    0.0000 C   0  0  0  0  0  0  0  0  0  0  0  0
    0.3943    1.2135    0.0000 C   0  0  0  0  0  0  0  0  0  0  0  0
    0.8578    2.6401    0.0000 C   0  0  0  0  0  0  0  0  0  0  0  0
   -1.0323    0.7500    0.0000 C   0  0  0  0  0  0  0  0  0  0  0  0
   -1.0323   -0.7500    0.0000 C   0  0  0  0  0  0  0  0  0  0  0  0
    0.3943   -1.2135    0.0000 O   0  0  0  0  0  0  0  0  0  0  0  0
  1  2  3  0
  2  3  1  0
  3  4  3  0
  4  5  1  0
  5  6  3  0
  6  7  1  0
  7  8  3  0
  8  9  1  0
  9 10  3  0
 10 11  1  0
 11 12  2  0
 12 13  1  0
 12 14  1  0
 14 15  2  0
 15 16  1  0
 16 11  1  0
M  END
>  <Title>  (893) 
idABGKgen13

$$$$

     RDKit          2D

 35 39  0  0  0  0  0  0  0  0999 V2000
   -3.0000   -2.5981    0.0000 C   0  0  0  0  0  0  0  0  0  0  0  0
   -1.5000   -2.5981    0.0000 C   0  0  0  0  0  0  0  0  0  0  0  0
   -0.7500   -3.8971    0.0000 C   0  0  0  0  0  0  0  0  0  0  0  0
    0.7500   -3.8971    0.0000 C   0  0  0  0  0  0  0  0  0  0  0  0
    1.5000   -2.5981    0.0000 C   0  0  0  0  0  0  0  0  0  0  0  0
    3.0000   -2.5981    0.0000 C   0  0  0  0  0  0  0  0  0  0  0  0
    3.7500   -1.2990    0.0000 O   0  0  0  0  0  0  0  0  0  0  0  0
    3.7500   -3.8971    0.0000 N   0  0  0  0  0  0  0  0  0  0  0  0
    5.2500   -3.8971    0.0000 C   0  0  0  0  0  0  0  0  0  0  0  0
    6.1317   -2.6836    0.0000 N   0  0  0  0  0  0  0  0  0  0  0  0
    7.5583   -3.1471    0.0000 N   0  0  0  0  0  0  0  0  0  0  0  0
    7.5583   -4.6471    0.0000 N   0  0  0  0  0  0  0  0  0  0  0  0
    6.1317   -5.1106    0.0000 N   0  0  0  0  0  0  0  0  0  0  0  0
    5.6682   -6.5372    0.0000 C   0  0  0  0  0  0  0  0  0  0  0  0
    6.5498   -7.7508    0.0000 C   0  0  0  0  0  0  0  0  0  0  0  0
    5.6682   -8.9643    0.0000 C   0  0  0  0  0  0  0  0  0  0  0  0
    4.2416   -8.5008    0.0000 C   0  0  0  0  0  0  0  0  0  0  0  0
    3.0280   -9.3824    0.0000 O   0  0  0  0  0  0  0  0  0  0  0  0
    1.6577   -8.7723    0.0000 C   0  0  0  0  0  0  0  0  0  0  0  0
    1.5009   -7.2805    0.0000 O   0  0  0  0  0  0  0  0  0  0  0  0
    0.4442   -9.6540    0.0000 N   0  0  0  0  0  0  0  0  0  0  0  0
   -0.9261   -9.0439    0.0000 C   0  0  0  0  0  0  0  0  0  0  0  0
   -1.0829   -7.5521    0.0000 N   0  0  0  0  0  0  0  0  0  0  0  0
   -2.4532   -6.9420    0.0000 N   0  0  0  0  0  0  0  0  0  0  0  0
   -3.6668   -7.8237    0.0000 N   0  0  0  0  0  0  0  0  0  0  0  0
   -3.5100   -9.3155    0.0000 N   0  0  0  0  0  0  0  0  0  0  0  0
   -2.1396   -9.9256    0.0000 N   0  0  0  0  0  0  0  0  0  0  0  0
    4.2416   -7.0008    0.0000 C   0  0  0  0  0  0  0  0  0  0  0  0
    3.0280   -6.1191    0.0000 O   0  0  0  0  0  0  0  0  0  0  0  0
    0.7500   -1.2990    0.0000 C   0  0  0  0  0  0  0  0  0  0  0  0
    1.5000    0.0000    0.0000 C   0  0  0  0  0  0  0  0  0  0  0  0
    0.7500    1.2990    0.0000 C   0  0  0  0  0  0  0  0  0  0  0  0
   -0.7500    1.2990    0.0000 C   0  0  0  0  0  0  0  0  0  0  0  0
   -1.5000    0.0000    0.0000 C   0  0  0  0  0  0  0  0  0  0  0  0
   -0.7500   -1.2990    0.0000 C   0  0  0  0  0  0  0  0  0  0  0  0
  1  2  1  0
  2  3  2  0
  3  4  1  0
  4  5  2  0
  5  6  1  0
  6  7  2  0
  6  8  1  0
  8  9  1  0
  9 10  2  0
 10 11  1  0
 11 12  2  0
 12 13  1  0
 13 14  1  0
 14 15  2  0
 15 16  1  0
 16 17  2  0
 17 18  1  0
 18 19  1  0
 19 20  2  0
 19 21  1  0
 21 22  1  0
 22 23  2  0
 23 24  1  0
 24 25  2  0
 25 26  1  0
 26 27  2  0
 17 28  1  0
 28 29  2  0
  5 30  1  0
 30 31  2  0
 31 32  1  0
 32 33  2  0
 33 34  1  0
 34 35  2  0
 35  2  1  0
 13  9  1  0
 28 14  1  0
 35 30  1  0
 27 22  1  0
M  END
>  <Title>  (894) 
idABGLgen13

$$$$

     RDKit          2D

 34 34  0  0  0  0  0  0  0  0999 V2000
   43.5000    0.0000    0.0000 C   0  0  0  0  0  0  0  0  0  0  0  0
   42.0000    0.0000    0.0000 C   0  0  0  0  0  0  0  0  0  0  0  0
   40.5000    0.0000    0.0000 C   0  0  0  0  0  0  0  0  0  0  0  0
   39.0000    0.0000    0.0000 C   0  0  0  0  0  0  0  0  0  0  0  0
   37.5000    0.0000    0.0000 C   0  0  0  0  0  0  0  0  0  0  0  0
   36.0000    0.0000    0.0000 C   0  0  0  0  0  0  0  0  0  0  0  0
   34.5000    0.0000    0.0000 C   0  0  0  0  0  0  0  0  0  0  0  0
   33.0000    0.0000    0.0000 C   0  0  0  0  0  0  0  0  0  0  0  0
   31.5000    0.0000    0.0000 C   0  0  0  0  0  0  0  0  0  0  0  0
   30.0000    0.0000    0.0000 C   0  0  0  0  0  0  0  0  0  0  0  0
   28.5000    0.0000    0.0000 C   0  0  0  0  0  0  0  0  0  0  0  0
   27.0000    0.0000    0.0000 C   0  0  0  0  0  0  0  0  0  0  0  0
   25.5000    0.0000    0.0000 C   0  0  0  0  0  0  0  0  0  0  0  0
   24.0000    0.0000    0.0000 C   0  0  0  0  0  0  0  0  0  0  0  0
   22.5000    0.0000    0.0000 C   0  0  0  0  0  0  0  0  0  0  0  0
   21.0000    0.0000    0.0000 C   0  0  0  0  0  0  0  0  0  0  0  0
   19.5000    0.0000    0.0000 C   0  0  0  0  0  0  0  0  0  0  0  0
   18.0000    0.0000    0.0000 C   0  0  0  0  0  0  0  0  0  0  0  0
   16.5000    0.0000    0.0000 C   0  0  0  0  0  0  0  0  0  0  0  0
   15.0000    0.0000    0.0000 C   0  0  0  0  0  0  0  0  0  0  0  0
   13.5000    0.0000    0.0000 C   0  0  0  0  0  0  0  0  0  0  0  0
   12.0000    0.0000    0.0000 C   0  0  0  0  0  0  0  0  0  0  0  0
   10.5000    0.0000    0.0000 C   0  0  0  0  0  0  0  0  0  0  0  0
    9.0000    0.0000    0.0000 C   0  0  0  0  0  0  0  0  0  0  0  0
    7.5000    0.0000    0.0000 C   0  0  0  0  0  0  0  0  0  0  0  0
    6.0000    0.0000    0.0000 C   0  0  0  0  0  0  0  0  0  0  0  0
    4.5000    0.0000    0.0000 C   0  0  0  0  0  0  0  0  0  0  0  0
    3.0000    0.0000    0.0000 C   0  0  0  0  0  0  0  0  0  0  0  0
    1.5000    0.0000    0.0000 C   0  0  0  0  0  0  0  0  0  0  0  0
    0.7500   -1.2990    0.0000 C   0  0  0  0  0  0  0  0  0  0  0  0
   -0.7500   -1.2990    0.0000 C   0  0  0  0  0  0  0  0  0  0  0  0
   -1.5000    0.0000    0.0000 C   0  0  0  0  0  0  0  0  0  0  0  0
   -0.7500    1.2990    0.0000 C   0  0  0  0  0  0  0  0  0  0  0  0
    0.7500    1.2990    0.0000 C   0  0  0  0  0  0  0  0  0  0  0  0
  1  2  3  0
  2  3  1  0
  3  4  3  0
  4  5  1  0
  5  6  3  0
  6  7  1  0
  7  8  3  0
  8  9  1  0
  9 10  3  0
 10 11  1  0
 11 12  3  0
 12 13  1  0
 13 14  3  0
 14 15  1  0
 15 16  3  0
 16 17  1  0
 17 18  3  0
 18 19  1  0
 19 20  3  0
 20 21  1  0
 21 22  3  0
 22 23  1  0
 23 24  3  0
 24 25  1  0
 25 26  3  0
 26 27  1  0
 27 28  3  0
 28 29  1  0
 29 30  2  0
 30 31  1  0
 31 32  2  0
 32 33  1  0
 33 34  2  0
 34 29  1  0
M  END
>  <Title>  (895) 
idABGMgen13

$$$$

     RDKit          2D

 59 67  0  0  0  0  0  0  0  0999 V2000
    3.7955   -8.2450    0.0000 C   0  0  0  0  0  0  0  0  0  0  0  0
    2.6807   -7.2413    0.0000 C   0  0  0  0  0  0  0  0  0  0  0  0
    3.4307   -5.9422    0.0000 C   0  0  0  0  0  0  0  0  0  0  0  0
    3.5875   -4.4504    0.0000 C   0  0  0  0  0  0  0  0  0  0  0  0
    3.1240   -3.0239    0.0000 C   0  0  0  0  0  0  0  0  0  0  0  0
    2.1203   -1.9091    0.0000 C   0  0  0  0  0  0  0  0  0  0  0  0
    3.0020   -0.6956    0.0000 C   0  0  0  0  0  0  0  0  0  0  0  0
    2.3919    0.6747    0.0000 O   0  0  0  0  0  0  0  0  0  0  0  0
    4.4938   -0.8524    0.0000 N   0  0  0  0  0  0  0  0  0  0  0  0
    5.3755    0.3611    0.0000 C   0  0  0  0  0  0  0  0  0  0  0  0
    4.9119    1.7877    0.0000 N   0  0  0  0  0  0  0  0  0  0  0  0
    6.1255    2.6694    0.0000 N   0  0  0  0  0  0  0  0  0  0  0  0
    7.3390    1.7877    0.0000 N   0  0  0  0  0  0  0  0  0  0  0  0
    6.8755    0.3611    0.0000 N   0  0  0  0  0  0  0  0  0  0  0  0
    7.7571   -0.8524    0.0000 N   0  0  0  0  0  0  0  0  0  0  0  0
    9.2571   -0.8524    0.0000 C   0  0  0  0  0  0  0  0  0  0  0  0
    9.7207   -2.2790    0.0000 C   0  0  0  0  0  0  0  0  0  0  0  0
    8.5071   -3.1607    0.0000 C   0  0  0  0  0  0  0  0  0  0  0  0
    8.5071   -4.6607    0.0000 C   0  0  0  0  0  0  0  0  0  0  0  0
    9.8062   -5.4107    0.0000 O   0  0  0  0  0  0  0  0  0  0  0  0
    7.2081   -5.4107    0.0000 N   0  0  0  0  0  0  0  0  0  0  0  0
    7.2081   -6.9107    0.0000 C   0  0  0  0  0  0  0  0  0  0  0  0
    5.9091   -7.6607    0.0000 N   0  0  0  0  0  0  0  0  0  0  0  0
    5.9091   -9.1607    0.0000 N   0  0  0  0  0  0  0  0  0  0  0  0
    7.2081   -9.9107    0.0000 N   0  0  0  0  0  0  0  0  0  0  0  0
    8.5071   -9.1607    0.0000 N   0  0  0  0  0  0  0  0  0  0  0  0
    8.5071   -7.6607    0.0000 N   0  0  0  0  0  0  0  0  0  0  0  0
    7.2936   -2.2790    0.0000 C   0  0  0  0  0  0  0  0  0  0  0  0
    5.8670   -2.7425    0.0000 O   0  0  0  0  0  0  0  0  0  0  0  0
    0.7500   -1.2990    0.0000 C   0  0  0  0  0  0  0  0  0  0  0  0
    1.5000    0.0000    0.0000 C   0  0  0  0  0  0  0  0  0  0  0  0
    0.7500    1.2990    0.0000 C   0  0  0  0  0  0  0  0  0  0  0  0
   -0.7500    1.2990    0.0000 C   0  0  0  0  0  0  0  0  0  0  0  0
   -1.5000    0.0000    0.0000 C   0  0  0  0  0  0  0  0  0  0  0  0
   -0.7500   -1.2990    0.0000 C   0  0  0  0  0  0  0  0  0  0  0  0
   -2.1203   -1.9091    0.0000 C   0  0  0  0  0  0  0  0  0  0  0  0
   -2.5838   -0.4826    0.0000 C   0  0  0  0  0  0  0  0  0  0  0  0
   -4.0511   -0.1707    0.0000 C   0  0  0  0  0  0  0  0  0  0  0  0
   -5.0548   -1.2854    0.0000 C   0  0  0  0  0  0  0  0  0  0  0  0
   -4.5912   -2.7120    0.0000 C   0  0  0  0  0  0  0  0  0  0  0  0
   -3.1240   -3.0239    0.0000 C   0  0  0  0  0  0  0  0  0  0  0  0
   -3.5875   -4.4504    0.0000 C   0  0  0  0  0  0  0  0  0  0  0  0
   -4.9579   -3.8403    0.0000 C   0  0  0  0  0  0  0  0  0  0  0  0
   -6.1714   -4.7220    0.0000 C   0  0  0  0  0  0  0  0  0  0  0  0
   -6.0146   -6.2138    0.0000 C   0  0  0  0  0  0  0  0  0  0  0  0
   -4.6443   -6.8239    0.0000 C   0  0  0  0  0  0  0  0  0  0  0  0
   -3.4307   -5.9422    0.0000 C   0  0  0  0  0  0  0  0  0  0  0  0
   -2.6807   -7.2413    0.0000 C   0  0  0  0  0  0  0  0  0  0  0  0
   -4.0511   -7.8514    0.0000 C   0  0  0  0  0  0  0  0  0  0  0  0
   -4.2079   -9.3432    0.0000 C   0  0  0  0  0  0  0  0  0  0  0  0
   -2.9943  -10.2248    0.0000 C   0  0  0  0  0  0  0  0  0  0  0  0
   -1.6240   -9.6147    0.0000 C   0  0  0  0  0  0  0  0  0  0  0  0
   -1.4672   -8.1229    0.0000 C   0  0  0  0  0  0  0  0  0  0  0  0
   -0.0000   -8.4348    0.0000 C   0  0  0  0  0  0  0  0  0  0  0  0
   -0.4635   -9.8614    0.0000 C   0  0  0  0  0  0  0  0  0  0  0  0
    0.5402  -10.9761    0.0000 C   0  0  0  0  0  0  0  0  0  0  0  0
    2.0074  -10.6642    0.0000 C   0  0  0  0  0  0  0  0  0  0  0  0
    2.4709   -9.2377    0.0000 C   0  0  0  0  0  0  0  0  0  0  0  0
    1.4672   -8.1229    0.0000 C   0  0  0  0  0  0  0  0  0  0  0  0
  1  2  1  0
  2  3  1  0
  3  4  2  0
  4  5  1  0
  5  6  1  0
  6  7  1  0
  7  8  2  0
  7  9  1  0
  9 10  1  0
 10 11  2  0
 11 12  1  0
 12 13  2  0
 13 14  1  0
 14 15  1  0
 15 16  1  0
 16 17  1  0
 17 18  1  0
 18 19  1  0
 19 20  2  0
 19 21  1  0
 21 22  1  0
 22 23  2  0
 23 24  1  0
 24 25  2  0
 25 26  1  0
 26 27  2  0
 18 28  1  0
 28 29  2  0
  6 30  1  0
 30 31  2  0
 31 32  1  0
 32 33  2  0
 33 34  1  0
 34 35  2  0
 35 36  1  0
 36 37  2  0
 37 38  1  0
 38 39  2  0
 39 40  1  0
 40 41  2  0
 41 42  1  0
 42 43  2  0
 43 44  1  0
 44 45  2  0
 45 46  1  0
 46 47  2  0
 47 48  1  0
 48 49  2  0
 49 50  1  0
 50 51  2  0
 51 52  1  0
 52 53  2  0
 53 54  1  0
 54 55  2  0
 55 56  1  0
 56 57  2  0
 57 58  1  0
 58 59  2  0
 59  2  1  0
 14 10  1  0
 28 15  1  0
 35 30  1  0
 41 36  1  0
 47 42  1  0
 53 48  1  0
 59 54  1  0
 27 22  1  0
M  END
>  <Title>  (896) 
idABGNgen13

$$$$

     RDKit          2D

 13 14  0  0  0  0  0  0  0  0999 V2000
    3.0000    0.0000    0.0000 C   0  0  0  0  0  0  0  0  0  0  0  0
    1.5000    0.0000    0.0000 C   0  0  0  0  0  0  0  0  0  0  0  0
    0.7500   -1.2990    0.0000 C   0  0  0  0  0  0  0  0  0  0  0  0
   -0.7500   -1.2990    0.0000 C   0  0  0  0  0  0  0  0  0  0  0  0
   -1.5000    0.0000    0.0000 C   0  0  0  0  0  0  0  0  0  0  0  0
   -0.7500    1.2990    0.0000 C   0  0  0  0  0  0  0  0  0  0  0  0
   -1.5000    2.5981    0.0000 N   0  0  0  0  0  0  0  0  0  0  0  0
   -0.7500    3.8971    0.0000 C   0  0  0  0  0  0  0  0  0  0  0  0
   -1.5000    5.1962    0.0000 C   0  0  0  0  0  0  0  0  0  0  0  0
   -3.0000    5.1962    0.0000 N   0  0  0  0  0  0  0  0  0  0  0  0
   -3.7500    3.8971    0.0000 N   0  0  0  0  0  0  0  0  0  0  0  0
   -3.0000    2.5981    0.0000 N   0  0  0  0  0  0  0  0  0  0  0  0
    0.7500    1.2990    0.0000 C   0  0  0  0  0  0  0  0  0  0  0  0
  1  2  1  0
  2  3  1  0
  3  4  2  0
  4  5  1  0
  5  6  1  0
  6  7  1  0
  7  8  1  0
  8  9  1  0
  9 10  2  0
 10 11  1  0
 11 12  2  0
  6 13  1  0
 13  2  1  0
 12  7  1  0
M  END
>  <Title>  (897) 
idABGOgen13

$$$$

     RDKit          2D

 71 72  0  0  0  0  0  0  0  0999 V2000
   -2.2371   -1.0554    0.0000 C   0  0  0  0  0  0  0  0  0  0  0  0
   -2.4960    0.4221    0.0000 C   0  0  0  0  0  0  0  0  0  0  0  0
   -3.9840    0.2327    0.0000 C   0  0  0  0  0  0  0  0  0  0  0  0
   -5.4832    0.1835    0.0000 C   0  0  0  0  0  0  0  0  0  0  0  0
   -6.9804    0.2749    0.0000 C   0  0  0  0  0  0  0  0  0  0  0  0
   -8.4625    0.5060    0.0000 C   0  0  0  0  0  0  0  0  0  0  0  0
   -9.9164    0.8750    0.0000 C   0  0  0  0  0  0  0  0  0  0  0  0
  -11.3294    1.3785    0.0000 C   0  0  0  0  0  0  0  0  0  0  0  0
  -12.6890    2.0120    0.0000 C   0  0  0  0  0  0  0  0  0  0  0  0
  -13.9833    2.7701    0.0000 C   0  0  0  0  0  0  0  0  0  0  0  0
  -15.2010    3.6461    0.0000 C   0  0  0  0  0  0  0  0  0  0  0  0
  -16.3313    4.6323    0.0000 C   0  0  0  0  0  0  0  0  0  0  0  0
  -17.3642    5.7199    0.0000 C   0  0  0  0  0  0  0  0  0  0  0  0
  -18.2908    6.8995    0.0000 C   0  0  0  0  0  0  0  0  0  0  0  0
  -19.1028    8.1607    0.0000 C   0  0  0  0  0  0  0  0  0  0  0  0
  -19.7932    9.4924    0.0000 C   0  0  0  0  0  0  0  0  0  0  0  0
  -20.3558   10.8829    0.0000 C   0  0  0  0  0  0  0  0  0  0  0  0
  -20.7858   12.3199    0.0000 C   0  0  0  0  0  0  0  0  0  0  0  0
  -21.0793   13.7909    0.0000 C   0  0  0  0  0  0  0  0  0  0  0  0
  -21.2337   15.2830    0.0000 C   0  0  0  0  0  0  0  0  0  0  0  0
  -21.2478   16.7829    0.0000 C   0  0  0  0  0  0  0  0  0  0  0  0
  -21.1213   18.2776    0.0000 C   0  0  0  0  0  0  0  0  0  0  0  0
  -20.8555   19.7538    0.0000 C   0  0  0  0  0  0  0  0  0  0  0  0
  -20.4526   21.1987    0.0000 C   0  0  0  0  0  0  0  0  0  0  0  0
  -19.9161   22.5995    0.0000 C   0  0  0  0  0  0  0  0  0  0  0  0
  -19.2508   23.9439    0.0000 C   0  0  0  0  0  0  0  0  0  0  0  0
  -18.4626   25.2201    0.0000 C   0  0  0  0  0  0  0  0  0  0  0  0
  -17.5583   26.4169    0.0000 C   0  0  0  0  0  0  0  0  0  0  0  0
  -16.5459   27.5237    0.0000 C   0  0  0  0  0  0  0  0  0  0  0  0
  -15.4344   28.5309    0.0000 C   0  0  0  0  0  0  0  0  0  0  0  0
  -14.2334   29.4295    0.0000 C   0  0  0  0  0  0  0  0  0  0  0  0
  -12.9535   30.2118    0.0000 C   0  0  0  0  0  0  0  0  0  0  0  0
  -11.6060   30.8707    0.0000 C   0  0  0  0  0  0  0  0  0  0  0  0
  -10.2027   31.4006    0.0000 C   0  0  0  0  0  0  0  0  0  0  0  0
   -8.7559   31.7968    0.0000 C   0  0  0  0  0  0  0  0  0  0  0  0
   -7.2785   32.0557    0.0000 C   0  0  0  0  0  0  0  0  0  0  0  0
   -5.7832   32.1751    0.0000 C   0  0  0  0  0  0  0  0  0  0  0  0
   -4.2834   32.1540    0.0000 C   0  0  0  0  0  0  0  0  0  0  0  0
   -2.7921   31.9926    0.0000 C   0  0  0  0  0  0  0  0  0  0  0  0
   -1.3225   31.6922    0.0000 C   0  0  0  0  0  0  0  0  0  0  0  0
    0.1126   31.2555    0.0000 C   0  0  0  0  0  0  0  0  0  0  0  0
    1.5004   30.6864    0.0000 C   0  0  0  0  0  0  0  0  0  0  0  0
    2.8288   29.9898    0.0000 C   0  0  0  0  0  0  0  0  0  0  0  0
    4.0862   29.1718    0.0000 C   0  0  0  0  0  0  0  0  0  0  0  0
    5.2614   28.2397    0.0000 C   0  0  0  0  0  0  0  0  0  0  0  0
    6.3442   27.2017    0.0000 C   0  0  0  0  0  0  0  0  0  0  0  0
    7.3251   26.0668    0.0000 C   0  0  0  0  0  0  0  0  0  0  0  0
    8.1953   24.8451    0.0000 C   0  0  0  0  0  0  0  0  0  0  0  0
    8.9474   23.5472    0.0000 C   0  0  0  0  0  0  0  0  0  0  0  0
    9.5746   22.1846    0.0000 C   0  0  0  0  0  0  0  0  0  0  0  0
   10.0714   20.7693    0.0000 C   0  0  0  0  0  0  0  0  0  0  0  0
   10.4335   19.3137    0.0000 C   0  0  0  0  0  0  0  0  0  0  0  0
   10.6578   17.8305    0.0000 C   0  0  0  0  0  0  0  0  0  0  0  0
   10.7421   16.3329    0.0000 C   0  0  0  0  0  0  0  0  0  0  0  0
   10.6859   14.8339    0.0000 C   0  0  0  0  0  0  0  0  0  0  0  0
   10.4895   13.3468    0.0000 C   0  0  0  0  0  0  0  0  0  0  0  0
   10.1547   11.8847    0.0000 C   0  0  0  0  0  0  0  0  0  0  0  0
    9.6845   10.4603    0.0000 C   0  0  0  0  0  0  0  0  0  0  0  0
    9.0830    9.0862    0.0000 C   0  0  0  0  0  0  0  0  0  0  0  0
    8.3554    7.7744    0.0000 C   0  0  0  0  0  0  0  0  0  0  0  0
    7.5082    6.5366    0.0000 C   0  0  0  0  0  0  0  0  0  0  0  0
    6.5489    5.3835    0.0000 C   0  0  0  0  0  0  0  0  0  0  0  0
    5.4857    4.3253    0.0000 C   0  0  0  0  0  0  0  0  0  0  0  0
    4.3282    3.3714    0.0000 C   0  0  0  0  0  0  0  0  0  0  0  0
    3.0863    2.5300    0.0000 C   0  0  0  0  0  0  0  0  0  0  0  0
    1.7712    1.8086    0.0000 C   0  0  0  0  0  0  0  0  0  0  0  0
    0.3943    1.2135    0.0000 C   0  0  0  0  0  0  0  0  0  0  0  0
    1.2760    0.0000    0.0000 C   0  0  0  0  0  0  0  0  0  0  0  0
    0.3943   -1.2135    0.0000 C   0  0  0  0  0  0  0  0  0  0  0  0
   -1.0323   -0.7500    0.0000 C   0  0  0  0  0  0  0  0  0  0  0  0
   -1.0323    0.7500    0.0000 C   0  0  0  0  0  0  0  0  0  0  0  0
  1  2  1  0
  2  3  1  0
  3  4  1  0
  4  5  1  0
  5  6  1  0
  6  7  1  0
  7  8  1  0
  8  9  1  0
  9 10  1  0
 10 11  1  0
 11 12  1  0
 12 13  1  0
 13 14  1  0
 14 15  1  0
 15 16  1  0
 16 17  1  0
 17 18  1  0
 18 19  1  0
 19 20  1  0
 20 21  1  0
 21 22  1  0
 22 23  1  0
 23 24  1  0
 24 25  1  0
 25 26  1  0
 26 27  1  0
 27 28  1  0
 28 29  1  0
 29 30  1  0
 30 31  1  0
 31 32  1  0
 32 33  1  0
 33 34  1  0
 34 35  1  0
 35 36  1  0
 36 37  1  0
 37 38  1  0
 38 39  1  0
 39 40  1  0
 40 41  1  0
 41 42  1  0
 42 43  1  0
 43 44  1  0
 44 45  1  0
 45 46  1  0
 46 47  1  0
 47 48  1  0
 48 49  1  0
 49 50  1  0
 50 51  1  0
 51 52  1  0
 52 53  1  0
 53 54  1  0
 54 55  1  0
 55 56  1  0
 56 57  1  0
 57 58  1  0
 58 59  1  0
 59 60  1  0
 60 61  1  0
 61 62  1  0
 62 63  1  0
 63 64  1  0
 64 65  1  0
 65 66  1  0
 66 67  1  0
 67 68  1  0
 68 69  2  0
 69 70  1  0
 70 71  2  0
 71  2  1  0
 71 67  1  0
M  END
>  <Title>  (898) 
idABGPgen13

$$$$

     RDKit          2D

 94 95  0  0  0  0  0  0  0  0999 V2000
   -2.1759   -1.0801    0.0000 C   0  0  0  0  0  0  0  0  0  0  0  0
   -2.4877    0.3871    0.0000 C   0  0  0  0  0  0  0  0  0  0  0  0
   -3.9649    0.1266    0.0000 C   0  0  0  0  0  0  0  0  0  0  0  0
   -5.4567   -0.0301    0.0000 C   0  0  0  0  0  0  0  0  0  0  0  0
   -6.9558   -0.0825    0.0000 C   0  0  0  0  0  0  0  0  0  0  0  0
   -8.4549   -0.0301    0.0000 C   0  0  0  0  0  0  0  0  0  0  0  0
   -9.9467    0.1266    0.0000 C   0  0  0  0  0  0  0  0  0  0  0  0
  -11.4239    0.3871    0.0000 C   0  0  0  0  0  0  0  0  0  0  0  0
  -12.8793    0.7500    0.0000 C   0  0  0  0  0  0  0  0  0  0  0  0
  -14.3059    1.2135    0.0000 C   0  0  0  0  0  0  0  0  0  0  0  0
  -15.6967    1.7754    0.0000 C   0  0  0  0  0  0  0  0  0  0  0  0
  -17.0449    2.4330    0.0000 C   0  0  0  0  0  0  0  0  0  0  0  0
  -18.3439    3.1830    0.0000 C   0  0  0  0  0  0  0  0  0  0  0  0
  -19.5875    4.0218    0.0000 C   0  0  0  0  0  0  0  0  0  0  0  0
  -20.7695    4.9453    0.0000 C   0  0  0  0  0  0  0  0  0  0  0  0
  -21.8842    5.9490    0.0000 C   0  0  0  0  0  0  0  0  0  0  0  0
  -22.9262    7.0280    0.0000 C   0  0  0  0  0  0  0  0  0  0  0  0
  -23.8904    8.1770    0.0000 C   0  0  0  0  0  0  0  0  0  0  0  0
  -24.7721    9.3906    0.0000 C   0  0  0  0  0  0  0  0  0  0  0  0
  -25.5669   10.6626    0.0000 C   0  0  0  0  0  0  0  0  0  0  0  0
  -26.2711   11.9871    0.0000 C   0  0  0  0  0  0  0  0  0  0  0  0
  -26.8813   13.3574    0.0000 C   0  0  0  0  0  0  0  0  0  0  0  0
  -27.3943   14.7669    0.0000 C   0  0  0  0  0  0  0  0  0  0  0  0
  -27.8077   16.2088    0.0000 C   0  0  0  0  0  0  0  0  0  0  0  0
  -28.1196   17.6760    0.0000 C   0  0  0  0  0  0  0  0  0  0  0  0
  -28.3284   19.1614    0.0000 C   0  0  0  0  0  0  0  0  0  0  0  0
  -28.4330   20.6578    0.0000 C   0  0  0  0  0  0  0  0  0  0  0  0
  -28.4330   22.1578    0.0000 C   0  0  0  0  0  0  0  0  0  0  0  0
  -28.3284   23.6541    0.0000 C   0  0  0  0  0  0  0  0  0  0  0  0
  -28.1196   25.1395    0.0000 C   0  0  0  0  0  0  0  0  0  0  0  0
  -27.8077   26.6068    0.0000 C   0  0  0  0  0  0  0  0  0  0  0  0
  -27.3943   28.0486    0.0000 C   0  0  0  0  0  0  0  0  0  0  0  0
  -26.8813   29.4582    0.0000 C   0  0  0  0  0  0  0  0  0  0  0  0
  -26.2711   30.8285    0.0000 C   0  0  0  0  0  0  0  0  0  0  0  0
  -25.5669   32.1529    0.0000 C   0  0  0  0  0  0  0  0  0  0  0  0
  -24.7721   33.4250    0.0000 C   0  0  0  0  0  0  0  0  0  0  0  0
  -23.8904   34.6385    0.0000 C   0  0  0  0  0  0  0  0  0  0  0  0
  -22.9262   35.7876    0.0000 C   0  0  0  0  0  0  0  0  0  0  0  0
  -21.8842   36.8666    0.0000 C   0  0  0  0  0  0  0  0  0  0  0  0
  -20.7695   37.8703    0.0000 C   0  0  0  0  0  0  0  0  0  0  0  0
  -19.5875   38.7938    0.0000 C   0  0  0  0  0  0  0  0  0  0  0  0
  -18.3439   39.6326    0.0000 C   0  0  0  0  0  0  0  0  0  0  0  0
  -17.0449   40.3826    0.0000 C   0  0  0  0  0  0  0  0  0  0  0  0
  -15.6967   41.0401    0.0000 C   0  0  0  0  0  0  0  0  0  0  0  0
  -14.3059   41.6020    0.0000 C   0  0  0  0  0  0  0  0  0  0  0  0
  -12.8793   42.0656    0.0000 C   0  0  0  0  0  0  0  0  0  0  0  0
  -11.4239   42.4285    0.0000 C   0  0  0  0  0  0  0  0  0  0  0  0
   -9.9467   42.6889    0.0000 C   0  0  0  0  0  0  0  0  0  0  0  0
   -8.4549   42.8457    0.0000 C   0  0  0  0  0  0  0  0  0  0  0  0
   -6.9558   42.8981    0.0000 C   0  0  0  0  0  0  0  0  0  0  0  0
   -5.4567   42.8457    0.0000 C   0  0  0  0  0  0  0  0  0  0  0  0
   -3.9649   42.6889    0.0000 C   0  0  0  0  0  0  0  0  0  0  0  0
   -2.4877   42.4285    0.0000 C   0  0  0  0  0  0  0  0  0  0  0  0
   -1.0323   42.0656    0.0000 C   0  0  0  0  0  0  0  0  0  0  0  0
    0.3943   41.6020    0.0000 C   0  0  0  0  0  0  0  0  0  0  0  0
    1.7851   41.0401    0.0000 C   0  0  0  0  0  0  0  0  0  0  0  0
    3.1333   40.3826    0.0000 C   0  0  0  0  0  0  0  0  0  0  0  0
    4.4323   39.6326    0.0000 C   0  0  0  0  0  0  0  0  0  0  0  0
    5.6759   38.7938    0.0000 C   0  0  0  0  0  0  0  0  0  0  0  0
    6.8579   37.8703    0.0000 C   0  0  0  0  0  0  0  0  0  0  0  0
    7.9726   36.8666    0.0000 C   0  0  0  0  0  0  0  0  0  0  0  0
    9.0146   35.7876    0.0000 C   0  0  0  0  0  0  0  0  0  0  0  0
    9.9788   34.6385    0.0000 C   0  0  0  0  0  0  0  0  0  0  0  0
   10.8604   33.4250    0.0000 C   0  0  0  0  0  0  0  0  0  0  0  0
   11.6553   32.1529    0.0000 C   0  0  0  0  0  0  0  0  0  0  0  0
   12.3595   30.8285    0.0000 C   0  0  0  0  0  0  0  0  0  0  0  0
   12.9696   29.4582    0.0000 C   0  0  0  0  0  0  0  0  0  0  0  0
   13.4827   28.0486    0.0000 C   0  0  0  0  0  0  0  0  0  0  0  0
   13.8961   26.6068    0.0000 C   0  0  0  0  0  0  0  0  0  0  0  0
   14.2080   25.1395    0.0000 C   0  0  0  0  0  0  0  0  0  0  0  0
   14.4167   23.6541    0.0000 C   0  0  0  0  0  0  0  0  0  0  0  0
   14.5214   22.1578    0.0000 C   0  0  0  0  0  0  0  0  0  0  0  0
   14.5214   20.6578    0.0000 C   0  0  0  0  0  0  0  0  0  0  0  0
   14.4167   19.1614    0.0000 C   0  0  0  0  0  0  0  0  0  0  0  0
   14.2080   17.6760    0.0000 C   0  0  0  0  0  0  0  0  0  0  0  0
   13.8961   16.2088    0.0000 C   0  0  0  0  0  0  0  0  0  0  0  0
   13.4827   14.7669    0.0000 C   0  0  0  0  0  0  0  0  0  0  0  0
   12.9696   13.3574    0.0000 C   0  0  0  0  0  0  0  0  0  0  0  0
   12.3595   11.9871    0.0000 C   0  0  0  0  0  0  0  0  0  0  0  0
   11.6553   10.6626    0.0000 C   0  0  0  0  0  0  0  0  0  0  0  0
   10.8604    9.3906    0.0000 C   0  0  0  0  0  0  0  0  0  0  0  0
    9.9788    8.1770    0.0000 C   0  0  0  0  0  0  0  0  0  0  0  0
    9.0146    7.0280    0.0000 C   0  0  0  0  0  0  0  0  0  0  0  0
    7.9726    5.9490    0.0000 C   0  0  0  0  0  0  0  0  0  0  0  0
    6.8579    4.9453    0.0000 C   0  0  0  0  0  0  0  0  0  0  0  0
    5.6759    4.0218    0.0000 C   0  0  0  0  0  0  0  0  0  0  0  0
    4.4323    3.1830    0.0000 C   0  0  0  0  0  0  0  0  0  0  0  0
    3.1333    2.4330    0.0000 C   0  0  0  0  0  0  0  0  0  0  0  0
    1.7851    1.7754    0.0000 C   0  0  0  0  0  0  0  0  0  0  0  0
    0.3943    1.2135    0.0000 C   0  0  0  0  0  0  0  0  0  0  0  0
    1.2760    0.0000    0.0000 C   0  0  0  0  0  0  0  0  0  0  0  0
    0.3943   -1.2135    0.0000 C   0  0  0  0  0  0  0  0  0  0  0  0
   -1.0323   -0.7500    0.0000 C   0  0  0  0  0  0  0  0  0  0  0  0
   -1.0323    0.7500    0.0000 C   0  0  0  0  0  0  0  0  0  0  0  0
  1  2  1  0
  2  3  1  0
  3  4  1  0
  4  5  1  0
  5  6  1  0
  6  7  1  0
  7  8  1  0
  8  9  1  0
  9 10  1  0
 10 11  1  0
 11 12  1  0
 12 13  1  0
 13 14  1  0
 14 15  1  0
 15 16  1  0
 16 17  1  0
 17 18  1  0
 18 19  1  0
 19 20  1  0
 20 21  1  0
 21 22  1  0
 22 23  1  0
 23 24  1  0
 24 25  1  0
 25 26  1  0
 26 27  1  0
 27 28  1  0
 28 29  1  0
 29 30  1  0
 30 31  1  0
 31 32  1  0
 32 33  1  0
 33 34  1  0
 34 35  1  0
 35 36  1  0
 36 37  1  0
 37 38  1  0
 38 39  1  0
 39 40  1  0
 40 41  1  0
 41 42  1  0
 42 43  1  0
 43 44  1  0
 44 45  1  0
 45 46  1  0
 46 47  1  0
 47 48  1  0
 48 49  1  0
 49 50  1  0
 50 51  1  0
 51 52  1  0
 52 53  1  0
 53 54  1  0
 54 55  1  0
 55 56  1  0
 56 57  1  0
 57 58  1  0
 58 59  1  0
 59 60  1  0
 60 61  1  0
 61 62  1  0
 62 63  1  0
 63 64  1  0
 64 65  1  0
 65 66  1  0
 66 67  1  0
 67 68  1  0
 68 69  1  0
 69 70  1  0
 70 71  1  0
 71 72  1  0
 72 73  1  0
 73 74  1  0
 74 75  1  0
 75 76  1  0
 76 77  1  0
 77 78  1  0
 78 79  1  0
 79 80  1  0
 80 81  1  0
 81 82  1  0
 82 83  1  0
 83 84  1  0
 84 85  1  0
 85 86  2  0
 86 87  1  0
 87 88  2  0
 88 89  1  0
 89 90  2  0
 90 91  1  0
 91 92  2  0
 92 93  1  0
 93 94  2  0
 94  2  1  0
 94 90  1  0
M  END
>  <Title>  (899) 
idABGQgen13

$$$$

     RDKit          2D

  8  8  0  0  0  0  0  0  0  0999 V2000
    4.2760   -2.5981    0.0000 C   0  0  0  0  0  0  0  0  0  0  0  0
    3.5260   -1.2990    0.0000 C   0  0  0  0  0  0  0  0  0  0  0  0
    2.7760    0.0000    0.0000 C   0  0  0  0  0  0  0  0  0  0  0  0
    1.2760    0.0000    0.0000 C   0  0  0  0  0  0  0  0  0  0  0  0
    0.3943    1.2135    0.0000 C   0  0  0  0  0  0  0  0  0  0  0  0
   -1.0323    0.7500    0.0000 C   0  0  0  0  0  0  0  0  0  0  0  0
   -1.0323   -0.7500    0.0000 C   0  0  0  0  0  0  0  0  0  0  0  0
    0.3943   -1.2135    0.0000 O   0  0  0  0  0  0  0  0  0  0  0  0
  1  2  3  0
  2  3  1  0
  3  4  1  0
  4  5  2  0
  5  6  1  0
  6  7  2  0
  7  8  1  0
  8  4  1  0
M  END
>  <Title>  (900) 
idABGRgen13

$$$$

     RDKit          2D

 12 13  0  0  0  0  0  0  0  0999 V2000
    1.8478   -6.4639    0.0000 C   0  0  0  0  0  0  0  0  0  0  0  0
    2.0046   -4.9721    0.0000 C   0  0  0  0  0  0  0  0  0  0  0  0
    3.3037   -4.2221    0.0000 C   0  0  0  0  0  0  0  0  0  0  0  0
    2.9918   -2.7549    0.0000 C   0  0  0  0  0  0  0  0  0  0  0  0
    1.5000   -2.5981    0.0000 C   0  0  0  0  0  0  0  0  0  0  0  0
    0.7500   -1.2990    0.0000 N   0  0  0  0  0  0  0  0  0  0  0  0
    1.5000    0.0000    0.0000 C   0  0  0  0  0  0  0  0  0  0  0  0
    0.7500    1.2990    0.0000 C   0  0  0  0  0  0  0  0  0  0  0  0
   -0.7500    1.2990    0.0000 C   0  0  0  0  0  0  0  0  0  0  0  0
   -1.5000    0.0000    0.0000 N   0  0  0  0  0  0  0  0  0  0  0  0
   -0.7500   -1.2990    0.0000 N   0  0  0  0  0  0  0  0  0  0  0  0
    0.8899   -3.9684    0.0000 C   0  0  0  0  0  0  0  0  0  0  0  0
  1  2  1  0
  2  3  2  0
  3  4  1  0
  4  5  2  0
  5  6  1  0
  6  7  1  0
  7  8  1  0
  8  9  2  0
  9 10  1  0
 10 11  2  0
  5 12  1  0
 12  2  1  0
 11  6  1  0
M  END
>  <Title>  (901) 
idABGSgen13

$$$$

     RDKit          2D

 77 79  0  0  0  0  0  0  0  0999 V2000
   -2.4480    0.0506    0.0000 C   0  0  0  0  0  0  0  0  0  0  0  0
   -2.2438   -1.4354    0.0000 C   0  0  0  0  0  0  0  0  0  0  0  0
   -3.7190   -1.7071    0.0000 C   0  0  0  0  0  0  0  0  0  0  0  0
   -5.1634   -2.1118    0.0000 C   0  0  0  0  0  0  0  0  0  0  0  0
   -6.5649   -2.6462    0.0000 C   0  0  0  0  0  0  0  0  0  0  0  0
   -7.9121   -3.3058    0.0000 C   0  0  0  0  0  0  0  0  0  0  0  0
   -9.1938   -4.0852    0.0000 C   0  0  0  0  0  0  0  0  0  0  0  0
  -10.3992   -4.9778    0.0000 C   0  0  0  0  0  0  0  0  0  0  0  0
  -11.5185   -5.9765    0.0000 C   0  0  0  0  0  0  0  0  0  0  0  0
  -12.5423   -7.0727    0.0000 C   0  0  0  0  0  0  0  0  0  0  0  0
  -13.4622   -8.2575    0.0000 C   0  0  0  0  0  0  0  0  0  0  0  0
  -14.2706   -9.5211    0.0000 C   0  0  0  0  0  0  0  0  0  0  0  0
  -14.9607  -10.8529    0.0000 C   0  0  0  0  0  0  0  0  0  0  0  0
  -15.5268  -12.2420    0.0000 C   0  0  0  0  0  0  0  0  0  0  0  0
  -15.9643  -13.6768    0.0000 C   0  0  0  0  0  0  0  0  0  0  0  0
  -16.2694  -15.1454    0.0000 C   0  0  0  0  0  0  0  0  0  0  0  0
  -16.4398  -16.6357    0.0000 C   0  0  0  0  0  0  0  0  0  0  0  0
  -16.4740  -18.1353    0.0000 C   0  0  0  0  0  0  0  0  0  0  0  0
  -16.3716  -19.6318    0.0000 C   0  0  0  0  0  0  0  0  0  0  0  0
  -16.1336  -21.1128    0.0000 C   0  0  0  0  0  0  0  0  0  0  0  0
  -15.7619  -22.5660    0.0000 C   0  0  0  0  0  0  0  0  0  0  0  0
  -15.2595  -23.9794    0.0000 C   0  0  0  0  0  0  0  0  0  0  0  0
  -14.6308  -25.3412    0.0000 C   0  0  0  0  0  0  0  0  0  0  0  0
  -13.8808  -26.6403    0.0000 C   0  0  0  0  0  0  0  0  0  0  0  0
  -13.0158  -27.8657    0.0000 C   0  0  0  0  0  0  0  0  0  0  0  0
  -12.0429  -29.0075    0.0000 C   0  0  0  0  0  0  0  0  0  0  0  0
  -10.9702  -30.0560    0.0000 C   0  0  0  0  0  0  0  0  0  0  0  0
   -9.8067  -31.0026    0.0000 C   0  0  0  0  0  0  0  0  0  0  0  0
   -8.5618  -31.8395    0.0000 C   0  0  0  0  0  0  0  0  0  0  0  0
   -7.2460  -32.5597    0.0000 C   0  0  0  0  0  0  0  0  0  0  0  0
   -5.8702  -33.1573    0.0000 C   0  0  0  0  0  0  0  0  0  0  0  0
   -4.4458  -33.6274    0.0000 C   0  0  0  0  0  0  0  0  0  0  0  0
   -2.9845  -33.9659    0.0000 C   0  0  0  0  0  0  0  0  0  0  0  0
   -1.4984  -34.1701    0.0000 C   0  0  0  0  0  0  0  0  0  0  0  0
   -0.0000  -34.2384    0.0000 C   0  0  0  0  0  0  0  0  0  0  0  0
    1.4984  -34.1701    0.0000 C   0  0  0  0  0  0  0  0  0  0  0  0
    2.9845  -33.9659    0.0000 C   0  0  0  0  0  0  0  0  0  0  0  0
    4.4458  -33.6274    0.0000 C   0  0  0  0  0  0  0  0  0  0  0  0
    5.8702  -33.1573    0.0000 C   0  0  0  0  0  0  0  0  0  0  0  0
    7.2460  -32.5597    0.0000 C   0  0  0  0  0  0  0  0  0  0  0  0
    8.5618  -31.8395    0.0000 C   0  0  0  0  0  0  0  0  0  0  0  0
    9.8067  -31.0026    0.0000 C   0  0  0  0  0  0  0  0  0  0  0  0
   10.9702  -30.0560    0.0000 C   0  0  0  0  0  0  0  0  0  0  0  0
   12.0429  -29.0075    0.0000 C   0  0  0  0  0  0  0  0  0  0  0  0
   13.0158  -27.8657    0.0000 C   0  0  0  0  0  0  0  0  0  0  0  0
   13.8808  -26.6403    0.0000 C   0  0  0  0  0  0  0  0  0  0  0  0
   14.6308  -25.3412    0.0000 C   0  0  0  0  0  0  0  0  0  0  0  0
   15.2595  -23.9794    0.0000 C   0  0  0  0  0  0  0  0  0  0  0  0
   15.7619  -22.5660    0.0000 C   0  0  0  0  0  0  0  0  0  0  0  0
   16.1336  -21.1128    0.0000 C   0  0  0  0  0  0  0  0  0  0  0  0
   16.3716  -19.6318    0.0000 C   0  0  0  0  0  0  0  0  0  0  0  0
   16.4740  -18.1353    0.0000 C   0  0  0  0  0  0  0  0  0  0  0  0
   16.4398  -16.6357    0.0000 C   0  0  0  0  0  0  0  0  0  0  0  0
   16.2694  -15.1454    0.0000 C   0  0  0  0  0  0  0  0  0  0  0  0
   15.9643  -13.6768    0.0000 C   0  0  0  0  0  0  0  0  0  0  0  0
   15.5268  -12.2420    0.0000 C   0  0  0  0  0  0  0  0  0  0  0  0
   14.9607  -10.8529    0.0000 C   0  0  0  0  0  0  0  0  0  0  0  0
   14.2706   -9.5211    0.0000 C   0  0  0  0  0  0  0  0  0  0  0  0
   13.4622   -8.2575    0.0000 C   0  0  0  0  0  0  0  0  0  0  0  0
   12.5423   -7.0727    0.0000 C   0  0  0  0  0  0  0  0  0  0  0  0
   11.5185   -5.9765    0.0000 C   0  0  0  0  0  0  0  0  0  0  0  0
   10.3992   -4.9778    0.0000 C   0  0  0  0  0  0  0  0  0  0  0  0
    9.1938   -4.0852    0.0000 C   0  0  0  0  0  0  0  0  0  0  0  0
    7.9121   -3.3058    0.0000 C   0  0  0  0  0  0  0  0  0  0  0  0
    6.5649   -2.6462    0.0000 C   0  0  0  0  0  0  0  0  0  0  0  0
    5.1634   -2.1118    0.0000 C   0  0  0  0  0  0  0  0  0  0  0  0
    3.7190   -1.7071    0.0000 C   0  0  0  0  0  0  0  0  0  0  0  0
    3.9165   -3.1941    0.0000 C   0  0  0  0  0  0  0  0  0  0  0  0
    2.5633   -3.8414    0.0000 C   0  0  0  0  0  0  0  0  0  0  0  0
    1.5295   -2.7545    0.0000 C   0  0  0  0  0  0  0  0  0  0  0  0
    2.2438   -1.4354    0.0000 C   0  0  0  0  0  0  0  0  0  0  0  0
    0.7500   -1.2990    0.0000 C   0  0  0  0  0  0  0  0  0  0  0  0
    1.5000    0.0000    0.0000 C   0  0  0  0  0  0  0  0  0  0  0  0
    0.7500    1.2990    0.0000 C   0  0  0  0  0  0  0  0  0  0  0  0
   -0.7500    1.2990    0.0000 C   0  0  0  0  0  0  0  0  0  0  0  0
   -1.5000    0.0000    0.0000 C   0  0  0  0  0  0  0  0  0  0  0  0
   -0.7500   -1.2990    0.0000 C   0  0  0  0  0  0  0  0  0  0  0  0
  1  2  1  0
  2  3  1  0
  3  4  1  0
  4  5  1  0
  5  6  1  0
  6  7  1  0
  7  8  1  0
  8  9  1  0
  9 10  1  0
 10 11  1  0
 11 12  1  0
 12 13  1  0
 13 14  1  0
 14 15  1  0
 15 16  1  0
 16 17  1  0
 17 18  1  0
 18 19  1  0
 19 20  1  0
 20 21  1  0
 21 22  1  0
 22 23  1  0
 23 24  1  0
 24 25  1  0
 25 26  1  0
 26 27  1  0
 27 28  1  0
 28 29  1  0
 29 30  1  0
 30 31  1  0
 31 32  1  0
 32 33  1  0
 33 34  1  0
 34 35  1  0
 35 36  1  0
 36 37  1  0
 37 38  1  0
 38 39  1  0
 39 40  1  0
 40 41  1  0
 41 42  1  0
 42 43  1  0
 43 44  1  0
 44 45  1  0
 45 46  1  0
 46 47  1  0
 47 48  1  0
 48 49  1  0
 49 50  1  0
 50 51  2  0
 51 52  1  0
 52 53  2  0
 53 54  1  0
 54 55  2  0
 55 56  1  0
 56 57  2  0
 57 58  1  0
 58 59  2  0
 59 60  1  0
 60 61  2  0
 61 62  1  0
 62 63  2  0
 63 64  1  0
 64 65  2  0
 65 66  1  0
 66 67  2  0
 67 68  1  0
 68 69  2  0
 69 70  1  0
 70 71  2  0
 71 72  1  0
 72 73  2  0
 73 74  1  0
 74 75  2  0
 75 76  1  0
 76 77  2  0
 77  2  1  0
 71 67  1  0
 77 72  1  0
M  END
>  <Title>  (902) 
idABGTgen13

$$$$

     RDKit          2D

 47 52  0  0  0  0  0  0  0  0999 V2000
   -9.0498    8.1925    0.0000 C   0  0  0  0  0  0  0  0  0  0  0  0
   -9.0498    6.6925    0.0000 C   0  0  0  0  0  0  0  0  0  0  0  0
   -7.7508    5.9425    0.0000 C   0  0  0  0  0  0  0  0  0  0  0  0
   -7.7508    4.4425    0.0000 C   0  0  0  0  0  0  0  0  0  0  0  0
   -6.4517    3.6925    0.0000 C   0  0  0  0  0  0  0  0  0  0  0  0
   -6.4517    2.1925    0.0000 C   0  0  0  0  0  0  0  0  0  0  0  0
   -5.1527    1.4425    0.0000 O   0  0  0  0  0  0  0  0  0  0  0  0
   -5.1527   -0.0575    0.0000 C   0  0  0  0  0  0  0  0  0  0  0  0
   -6.4517   -0.8075    0.0000 O   0  0  0  0  0  0  0  0  0  0  0  0
   -3.8536   -0.8075    0.0000 N   0  0  0  0  0  0  0  0  0  0  0  0
   -3.8536   -2.3075    0.0000 C   0  0  0  0  0  0  0  0  0  0  0  0
   -5.0672   -3.1891    0.0000 N   0  0  0  0  0  0  0  0  0  0  0  0
   -4.6036   -4.6157    0.0000 N   0  0  0  0  0  0  0  0  0  0  0  0
   -3.1036   -4.6157    0.0000 N   0  0  0  0  0  0  0  0  0  0  0  0
   -2.6401   -3.1891    0.0000 N   0  0  0  0  0  0  0  0  0  0  0  0
   -1.2135   -2.7256    0.0000 N   0  0  0  0  0  0  0  0  0  0  0  0
   -0.0000   -3.6073    0.0000 C   0  0  0  0  0  0  0  0  0  0  0  0
    1.2135   -2.7256    0.0000 C   0  0  0  0  0  0  0  0  0  0  0  0
    2.6401   -3.1891    0.0000 C   0  0  0  0  0  0  0  0  0  0  0  0
    3.7548   -2.1855    0.0000 O   0  0  0  0  0  0  0  0  0  0  0  0
    2.9520   -4.6564    0.0000 N   0  0  0  0  0  0  0  0  0  0  0  0
    4.3786   -5.1199    0.0000 C   0  0  0  0  0  0  0  0  0  0  0  0
    5.5921   -4.2382    0.0000 N   0  0  0  0  0  0  0  0  0  0  0  0
    6.8056   -5.1199    0.0000 N   0  0  0  0  0  0  0  0  0  0  0  0
    6.3421   -6.5465    0.0000 N   0  0  0  0  0  0  0  0  0  0  0  0
    4.8421   -6.5465    0.0000 N   0  0  0  0  0  0  0  0  0  0  0  0
    3.9604   -7.7600    0.0000 N   0  0  0  0  0  0  0  0  0  0  0  0
    4.4239   -9.1866    0.0000 C   0  0  0  0  0  0  0  0  0  0  0  0
    3.2104  -10.0683    0.0000 C   0  0  0  0  0  0  0  0  0  0  0  0
    1.9969   -9.1866    0.0000 C   0  0  0  0  0  0  0  0  0  0  0  0
    0.5703   -9.6501    0.0000 C   0  0  0  0  0  0  0  0  0  0  0  0
    0.2584  -11.1173    0.0000 O   0  0  0  0  0  0  0  0  0  0  0  0
   -0.5444   -8.6464    0.0000 N   0  0  0  0  0  0  0  0  0  0  0  0
   -1.9710   -9.1099    0.0000 C   0  0  0  0  0  0  0  0  0  0  0  0
   -3.0857   -8.1062    0.0000 N   0  0  0  0  0  0  0  0  0  0  0  0
   -4.5123   -8.5698    0.0000 N   0  0  0  0  0  0  0  0  0  0  0  0
   -4.8242  -10.0370    0.0000 N   0  0  0  0  0  0  0  0  0  0  0  0
   -3.7095  -11.0407    0.0000 N   0  0  0  0  0  0  0  0  0  0  0  0
   -2.2829  -10.5772    0.0000 N   0  0  0  0  0  0  0  0  0  0  0  0
    2.4604   -7.7600    0.0000 C   0  0  0  0  0  0  0  0  0  0  0  0
    1.5787   -6.5465    0.0000 O   0  0  0  0  0  0  0  0  0  0  0  0
    0.7500   -1.2990    0.0000 C   0  0  0  0  0  0  0  0  0  0  0  0
    1.5000    0.0000    0.0000 C   0  0  0  0  0  0  0  0  0  0  0  0
    0.7500    1.2990    0.0000 C   0  0  0  0  0  0  0  0  0  0  0  0
   -0.7500    1.2990    0.0000 C   0  0  0  0  0  0  0  0  0  0  0  0
   -1.5000    0.0000    0.0000 C   0  0  0  0  0  0  0  0  0  0  0  0
   -0.7500   -1.2990    0.0000 C   0  0  0  0  0  0  0  0  0  0  0  0
  1  2  2  0
  2  3  1  0
  3  4  2  3
  4  5  1  0
  5  6  2  3
  6  7  1  0
  7  8  1  0
  8  9  2  0
  8 10  1  0
 10 11  1  0
 11 12  2  0
 12 13  1  0
 13 14  2  0
 14 15  1  0
 15 16  1  0
 16 17  1  0
 17 18  2  0
 18 19  1  0
 19 20  2  0
 19 21  1  0
 21 22  1  0
 22 23  2  0
 23 24  1  0
 24 25  2  0
 25 26  1  0
 26 27  1  0
 27 28  1  0
 28 29  1  0
 29 30  1  0
 30 31  1  0
 31 32  2  0
 31 33  1  0
 33 34  1  0
 34 35  2  0
 35 36  1  0
 36 37  2  0
 37 38  1  0
 38 39  2  0
 30 40  1  0
 40 41  2  0
 18 42  1  0
 42 43  2  0
 43 44  1  0
 44 45  2  0
 45 46  1  0
 46 47  2  0
 15 11  1  0
 47 16  1  0
 26 22  1  0
 40 27  1  0
 47 42  1  0
 39 34  1  0
M  END
>  <Title>  (903) 
idABGUgen13

$$$$

     RDKit          2D

  5  4  0  0  0  0  0  0  0  0999 V2000
    0.0000    0.0000    0.0000 C   0  0  0  0  0  0  0  0  0  0  0  0
    1.2990    0.7500    0.0000 C   0  0  0  0  0  0  0  0  0  0  0  0
    2.5981   -0.0000    0.0000 C   0  0  0  0  0  0  0  0  0  0  0  0
    3.8971    0.7500    0.0000 O   0  0  0  0  0  0  0  0  0  0  0  0
    2.5981   -1.5000    0.0000 F   0  0  0  0  0  0  0  0  0  0  0  0
  1  2  1  0
  2  3  1  0
  3  4  1  0
  3  5  1  0
M  END
>  <Title>  (904) 
idABGVgen13

$$$$

     RDKit          2D

 41 46  0  0  0  0  0  0  0  0999 V2000
   -3.9583    2.5833    0.0000 C   0  0  0  0  0  0  0  0  0  0  0  0
   -4.4218    1.1568    0.0000 C   0  0  0  0  0  0  0  0  0  0  0  0
   -3.4182    0.0420    0.0000 C   0  0  0  0  0  0  0  0  0  0  0  0
   -3.8817   -1.3846    0.0000 C   0  0  0  0  0  0  0  0  0  0  0  0
   -5.3083   -1.8481    0.0000 C   0  0  0  0  0  0  0  0  0  0  0  0
   -5.3083   -3.3481    0.0000 N   0  0  0  0  0  0  0  0  0  0  0  0
   -3.8817   -3.8116    0.0000 C   0  0  0  0  0  0  0  0  0  0  0  0
   -3.0000   -2.5981    0.0000 N   0  0  0  0  0  0  0  0  0  0  0  0
   -1.5000   -2.5981    0.0000 C   0  0  0  0  0  0  0  0  0  0  0  0
   -0.7500   -3.8971    0.0000 C   0  0  0  0  0  0  0  0  0  0  0  0
    0.7500   -3.8971    0.0000 C   0  0  0  0  0  0  0  0  0  0  0  0
    1.5000   -2.5981    0.0000 C   0  0  0  0  0  0  0  0  0  0  0  0
    3.0000   -2.5981    0.0000 C   0  0  0  0  0  0  0  0  0  0  0  0
    3.7500   -1.2990    0.0000 O   0  0  0  0  0  0  0  0  0  0  0  0
    3.7500   -3.8971    0.0000 N   0  0  0  0  0  0  0  0  0  0  0  0
    5.2500   -3.8971    0.0000 C   0  0  0  0  0  0  0  0  0  0  0  0
    6.1317   -2.6836    0.0000 N   0  0  0  0  0  0  0  0  0  0  0  0
    7.5583   -3.1471    0.0000 N   0  0  0  0  0  0  0  0  0  0  0  0
    7.5583   -4.6471    0.0000 N   0  0  0  0  0  0  0  0  0  0  0  0
    6.1317   -5.1106    0.0000 N   0  0  0  0  0  0  0  0  0  0  0  0
    5.6682   -6.5372    0.0000 N   0  0  0  0  0  0  0  0  0  0  0  0
    6.5498   -7.7508    0.0000 C   0  0  0  0  0  0  0  0  0  0  0  0
    5.6682   -8.9643    0.0000 C   0  0  0  0  0  0  0  0  0  0  0  0
    4.2416   -8.5008    0.0000 N   0  0  0  0  0  0  0  0  0  0  0  0
    3.0280   -9.3824    0.0000 C   0  0  0  0  0  0  0  0  0  0  0  0
    3.1848  -10.8742    0.0000 O   0  0  0  0  0  0  0  0  0  0  0  0
    1.6577   -8.7723    0.0000 N   0  0  0  0  0  0  0  0  0  0  0  0
    0.4442   -9.6540    0.0000 C   0  0  0  0  0  0  0  0  0  0  0  0
   -0.9261   -9.0439    0.0000 N   0  0  0  0  0  0  0  0  0  0  0  0
   -2.1396   -9.9256    0.0000 N   0  0  0  0  0  0  0  0  0  0  0  0
   -1.9829  -11.4174    0.0000 N   0  0  0  0  0  0  0  0  0  0  0  0
   -0.6125  -12.0275    0.0000 N   0  0  0  0  0  0  0  0  0  0  0  0
    0.6010  -11.1458    0.0000 N   0  0  0  0  0  0  0  0  0  0  0  0
    4.2416   -7.0008    0.0000 C   0  0  0  0  0  0  0  0  0  0  0  0
    3.0280   -6.1191    0.0000 O   0  0  0  0  0  0  0  0  0  0  0  0
    0.7500   -1.2990    0.0000 C   0  0  0  0  0  0  0  0  0  0  0  0
    1.5000    0.0000    0.0000 C   0  0  0  0  0  0  0  0  0  0  0  0
    0.7500    1.2990    0.0000 C   0  0  0  0  0  0  0  0  0  0  0  0
   -0.7500    1.2990    0.0000 C   0  0  0  0  0  0  0  0  0  0  0  0
   -1.5000    0.0000    0.0000 C   0  0  0  0  0  0  0  0  0  0  0  0
   -0.7500   -1.2990    0.0000 C   0  0  0  0  0  0  0  0  0  0  0  0
  1  2  2  0
  2  3  1  0
  3  4  1  0
  4  5  2  0
  5  6  1  0
  6  7  2  0
  7  8  1  0
  8  9  1  0
  9 10  2  0
 10 11  1  0
 11 12  2  0
 12 13  1  0
 13 14  2  0
 13 15  1  0
 15 16  1  0
 16 17  2  0
 17 18  1  0
 18 19  2  0
 19 20  1  0
 20 21  1  0
 21 22  1  0
 22 23  1  0
 23 24  1  0
 24 25  1  0
 25 26  2  0
 25 27  1  0
 27 28  1  0
 28 29  2  0
 29 30  1  0
 30 31  2  0
 31 32  1  0
 32 33  2  0
 24 34  1  0
 34 35  2  0
 12 36  1  0
 36 37  2  0
 37 38  1  0
 38 39  2  0
 39 40  1  0
 40 41  2  0
  8  4  1  0
 41  9  1  0
 20 16  1  0
 34 21  1  0
 41 36  1  0
 33 28  1  0
M  END
>  <Title>  (905) 
idABGWgen13

$$$$

     RDKit          2D

 46 52  0  0  0  0  0  0  0  0999 V2000
    1.2135   -7.3421    0.0000 C   0  0  0  0  0  0  0  0  0  0  0  0
    0.7500   -5.9156    0.0000 C   0  0  0  0  0  0  0  0  0  0  0  0
    1.9635   -5.0339    0.0000 C   0  0  0  0  0  0  0  0  0  0  0  0
    2.4271   -3.6073    0.0000 C   0  0  0  0  0  0  0  0  0  0  0  0
    1.9635   -2.1807    0.0000 C   0  0  0  0  0  0  0  0  0  0  0  0
    3.1771   -1.2990    0.0000 C   0  0  0  0  0  0  0  0  0  0  0  0
    3.0203    0.1927    0.0000 O   0  0  0  0  0  0  0  0  0  0  0  0
    4.5474   -1.9091    0.0000 N   0  0  0  0  0  0  0  0  0  0  0  0
    5.7609   -1.0275    0.0000 C   0  0  0  0  0  0  0  0  0  0  0  0
    5.7609    0.4725    0.0000 N   0  0  0  0  0  0  0  0  0  0  0  0
    7.1875    0.9361    0.0000 N   0  0  0  0  0  0  0  0  0  0  0  0
    8.0692   -0.2775    0.0000 N   0  0  0  0  0  0  0  0  0  0  0  0
    7.1875   -1.4910    0.0000 N   0  0  0  0  0  0  0  0  0  0  0  0
    7.6510   -2.9176    0.0000 N   0  0  0  0  0  0  0  0  0  0  0  0
    9.0776   -3.3811    0.0000 C   0  0  0  0  0  0  0  0  0  0  0  0
    9.0776   -4.8811    0.0000 C   0  0  0  0  0  0  0  0  0  0  0  0
    7.6510   -5.3446    0.0000 C   0  0  0  0  0  0  0  0  0  0  0  0
    7.1875   -6.7712    0.0000 C   0  0  0  0  0  0  0  0  0  0  0  0
    8.1912   -7.8859    0.0000 O   0  0  0  0  0  0  0  0  0  0  0  0
    5.7203   -7.0831    0.0000 N   0  0  0  0  0  0  0  0  0  0  0  0
    5.2567   -8.5097    0.0000 C   0  0  0  0  0  0  0  0  0  0  0  0
    3.7895   -8.8215    0.0000 N   0  0  0  0  0  0  0  0  0  0  0  0
    3.3260  -10.2481    0.0000 N   0  0  0  0  0  0  0  0  0  0  0  0
    4.3297  -11.3628    0.0000 N   0  0  0  0  0  0  0  0  0  0  0  0
    5.7969  -11.0510    0.0000 N   0  0  0  0  0  0  0  0  0  0  0  0
    6.2604   -9.6244    0.0000 N   0  0  0  0  0  0  0  0  0  0  0  0
    6.7693   -4.1311    0.0000 C   0  0  0  0  0  0  0  0  0  0  0  0
    5.2693   -4.1311    0.0000 O   0  0  0  0  0  0  0  0  0  0  0  0
    0.7500   -1.2990    0.0000 C   0  0  0  0  0  0  0  0  0  0  0  0
    1.5000    0.0000    0.0000 C   0  0  0  0  0  0  0  0  0  0  0  0
    0.7500    1.2990    0.0000 C   0  0  0  0  0  0  0  0  0  0  0  0
   -0.7500    1.2990    0.0000 C   0  0  0  0  0  0  0  0  0  0  0  0
   -1.5000    0.0000    0.0000 C   0  0  0  0  0  0  0  0  0  0  0  0
   -0.7500   -1.2990    0.0000 C   0  0  0  0  0  0  0  0  0  0  0  0
   -1.9635   -2.1807    0.0000 C   0  0  0  0  0  0  0  0  0  0  0  0
   -2.9672   -1.0660    0.0000 C   0  0  0  0  0  0  0  0  0  0  0  0
   -4.4344   -1.3779    0.0000 C   0  0  0  0  0  0  0  0  0  0  0  0
   -4.8980   -2.8045    0.0000 C   0  0  0  0  0  0  0  0  0  0  0  0
   -3.8943   -3.9192    0.0000 C   0  0  0  0  0  0  0  0  0  0  0  0
   -2.4271   -3.6073    0.0000 C   0  0  0  0  0  0  0  0  0  0  0  0
   -1.9635   -5.0339    0.0000 C   0  0  0  0  0  0  0  0  0  0  0  0
   -3.3338   -5.6440    0.0000 C   0  0  0  0  0  0  0  0  0  0  0  0
   -3.4906   -7.1358    0.0000 C   0  0  0  0  0  0  0  0  0  0  0  0
   -2.2771   -8.0175    0.0000 C   0  0  0  0  0  0  0  0  0  0  0  0
   -0.9068   -7.4073    0.0000 C   0  0  0  0  0  0  0  0  0  0  0  0
   -0.7500   -5.9156    0.0000 C   0  0  0  0  0  0  0  0  0  0  0  0
  1  2  1  0
  2  3  2  0
  3  4  1  0
  4  5  2  0
  5  6  1  0
  6  7  2  0
  6  8  1  0
  8  9  1  0
  9 10  2  0
 10 11  1  0
 11 12  2  0
 12 13  1  0
 13 14  1  0
 14 15  1  0
 15 16  1  0
 16 17  1  0
 17 18  1  0
 18 19  2  0
 18 20  1  0
 20 21  1  0
 21 22  2  0
 22 23  1  0
 23 24  2  0
 24 25  1  0
 25 26  2  0
 17 27  1  0
 27 28  2  0
  5 29  1  0
 29 30  2  0
 30 31  1  0
 31 32  2  0
 32 33  1  0
 33 34  2  0
 34 35  1  0
 35 36  2  0
 36 37  1  0
 37 38  2  0
 38 39  1  0
 39 40  2  0
 40 41  1  0
 41 42  2  0
 42 43  1  0
 43 44  2  0
 44 45  1  0
 45 46  2  0
 46  2  1  0
 13  9  1  0
 27 14  1  0
 34 29  1  0
 40 35  1  0
 46 41  1  0
 26 21  1  0
M  END
>  <Title>  (906) 
idABGXgen13

$$$$

     RDKit          2D

 35 39  0  0  0  0  0  0  0  0999 V2000
   -3.1476   -2.1380    0.0000 C   0  0  0  0  0  0  0  0  0  0  0  0
   -1.6852   -2.4718    0.0000 C   0  0  0  0  0  0  0  0  0  0  0  0
   -1.3515   -3.9342    0.0000 C   0  0  0  0  0  0  0  0  0  0  0  0
   -0.0000   -4.5850    0.0000 C   0  0  0  0  0  0  0  0  0  0  0  0
    1.3515   -3.9342    0.0000 C   0  0  0  0  0  0  0  0  0  0  0  0
    1.6852   -2.4718    0.0000 C   0  0  0  0  0  0  0  0  0  0  0  0
    3.1476   -2.1380    0.0000 C   0  0  0  0  0  0  0  0  0  0  0  0
    3.5898   -0.7046    0.0000 O   0  0  0  0  0  0  0  0  0  0  0  0
    4.1679   -3.2376    0.0000 N   0  0  0  0  0  0  0  0  0  0  0  0
    5.6303   -2.9038    0.0000 C   0  0  0  0  0  0  0  0  0  0  0  0
    6.2198   -1.5245    0.0000 N   0  0  0  0  0  0  0  0  0  0  0  0
    7.7138   -1.6590    0.0000 N   0  0  0  0  0  0  0  0  0  0  0  0
    8.0476   -3.1214    0.0000 N   0  0  0  0  0  0  0  0  0  0  0  0
    6.7599   -3.8907    0.0000 N   0  0  0  0  0  0  0  0  0  0  0  0
    6.6254   -5.3847    0.0000 N   0  0  0  0  0  0  0  0  0  0  0  0
    7.7550   -6.3716    0.0000 C   0  0  0  0  0  0  0  0  0  0  0  0
    7.1655   -7.7509    0.0000 C   0  0  0  0  0  0  0  0  0  0  0  0
    5.6715   -7.6164    0.0000 C   0  0  0  0  0  0  0  0  0  0  0  0
    4.6846   -8.7460    0.0000 C   0  0  0  0  0  0  0  0  0  0  0  0
    5.1694  -10.1655    0.0000 O   0  0  0  0  0  0  0  0  0  0  0  0
    3.2129   -8.4561    0.0000 N   0  0  0  0  0  0  0  0  0  0  0  0
    2.2260   -9.5857    0.0000 C   0  0  0  0  0  0  0  0  0  0  0  0
    0.7543   -9.2959    0.0000 N   0  0  0  0  0  0  0  0  0  0  0  0
   -0.2326  -10.4255    0.0000 N   0  0  0  0  0  0  0  0  0  0  0  0
    0.2522  -11.8450    0.0000 N   0  0  0  0  0  0  0  0  0  0  0  0
    1.7239  -12.1348    0.0000 N   0  0  0  0  0  0  0  0  0  0  0  0
    2.7108  -11.0052    0.0000 N   0  0  0  0  0  0  0  0  0  0  0  0
    5.3378   -6.1540    0.0000 C   0  0  0  0  0  0  0  0  0  0  0  0
    3.9585   -5.5645    0.0000 O   0  0  0  0  0  0  0  0  0  0  0  0
    0.7500   -1.2990    0.0000 C   0  0  0  0  0  0  0  0  0  0  0  0
    1.5000    0.0000    0.0000 C   0  0  0  0  0  0  0  0  0  0  0  0
    0.7500    1.2990    0.0000 C   0  0  0  0  0  0  0  0  0  0  0  0
   -0.7500    1.2990    0.0000 C   0  0  0  0  0  0  0  0  0  0  0  0
   -1.5000    0.0000    0.0000 C   0  0  0  0  0  0  0  0  0  0  0  0
   -0.7500   -1.2990    0.0000 C   0  0  0  0  0  0  0  0  0  0  0  0
  1  2  1  0
  2  3  1  0
  3  4  1  0
  4  5  1  0
  5  6  1  0
  6  7  1  0
  7  8  2  0
  7  9  1  0
  9 10  1  0
 10 11  2  0
 11 12  1  0
 12 13  2  0
 13 14  1  0
 14 15  1  0
 15 16  1  0
 16 17  1  0
 17 18  1  0
 18 19  1  0
 19 20  2  0
 19 21  1  0
 21 22  1  0
 22 23  2  0
 23 24  1  0
 24 25  2  0
 25 26  1  0
 26 27  2  0
 18 28  1  0
 28 29  2  0
  6 30  1  0
 30 31  2  0
 31 32  1  0
 32 33  2  0
 33 34  1  0
 34 35  2  0
 35  2  1  0
 14 10  1  0
 28 15  1  0
 35 30  1  0
 27 22  1  0
M  END
>  <Title>  (907) 
idABGYgen13

$$$$

     RDKit          2D

 81 85  0  0  0  0  0  0  0  0999 V2000
   -8.6303   -2.1307    0.0000 C   0  0  0  0  0  0  0  0  0  0  0  0
   -7.8699   -3.4236    0.0000 C   0  0  0  0  0  0  0  0  0  0  0  0
   -9.1246   -4.2457    0.0000 C   0  0  0  0  0  0  0  0  0  0  0  0
  -10.2941   -5.1849    0.0000 C   0  0  0  0  0  0  0  0  0  0  0  0
  -11.3675   -6.2327    0.0000 C   0  0  0  0  0  0  0  0  0  0  0  0
  -12.3347   -7.3792    0.0000 C   0  0  0  0  0  0  0  0  0  0  0  0
  -13.1868   -8.6137    0.0000 C   0  0  0  0  0  0  0  0  0  0  0  0
  -13.9158   -9.9246    0.0000 C   0  0  0  0  0  0  0  0  0  0  0  0
  -14.5149  -11.2998    0.0000 C   0  0  0  0  0  0  0  0  0  0  0  0
  -14.9784  -12.7264    0.0000 C   0  0  0  0  0  0  0  0  0  0  0  0
  -15.3021  -14.1910    0.0000 C   0  0  0  0  0  0  0  0  0  0  0  0
  -15.4829  -15.6801    0.0000 C   0  0  0  0  0  0  0  0  0  0  0  0
  -15.5191  -17.1797    0.0000 C   0  0  0  0  0  0  0  0  0  0  0  0
  -15.4105  -18.6757    0.0000 C   0  0  0  0  0  0  0  0  0  0  0  0
  -15.1579  -20.1543    0.0000 C   0  0  0  0  0  0  0  0  0  0  0  0
  -14.7639  -21.6016    0.0000 C   0  0  0  0  0  0  0  0  0  0  0  0
  -14.2320  -23.0042    0.0000 C   0  0  0  0  0  0  0  0  0  0  0  0
  -13.5672  -24.3488    0.0000 C   0  0  0  0  0  0  0  0  0  0  0  0
  -12.7757  -25.6230    0.0000 C   0  0  0  0  0  0  0  0  0  0  0  0
  -11.8650  -26.8149    0.0000 C   0  0  0  0  0  0  0  0  0  0  0  0
  -10.8434  -27.9133    0.0000 C   0  0  0  0  0  0  0  0  0  0  0  0
   -9.7207  -28.9080    0.0000 C   0  0  0  0  0  0  0  0  0  0  0  0
   -8.5072  -29.7896    0.0000 C   0  0  0  0  0  0  0  0  0  0  0  0
   -7.2142  -30.5501    0.0000 C   0  0  0  0  0  0  0  0  0  0  0  0
   -5.8539  -31.1822    0.0000 C   0  0  0  0  0  0  0  0  0  0  0  0
   -4.4389  -31.6800    0.0000 C   0  0  0  0  0  0  0  0  0  0  0  0
   -2.9825  -32.0390    0.0000 C   0  0  0  0  0  0  0  0  0  0  0  0
   -1.4982  -32.2557    0.0000 C   0  0  0  0  0  0  0  0  0  0  0  0
   -0.0000  -32.3282    0.0000 C   0  0  0  0  0  0  0  0  0  0  0  0
    1.4982  -32.2557    0.0000 C   0  0  0  0  0  0  0  0  0  0  0  0
    2.9825  -32.0390    0.0000 C   0  0  0  0  0  0  0  0  0  0  0  0
    4.4389  -31.6800    0.0000 C   0  0  0  0  0  0  0  0  0  0  0  0
    5.8539  -31.1822    0.0000 C   0  0  0  0  0  0  0  0  0  0  0  0
    7.2142  -30.5501    0.0000 C   0  0  0  0  0  0  0  0  0  0  0  0
    8.5072  -29.7896    0.0000 C   0  0  0  0  0  0  0  0  0  0  0  0
    9.7207  -28.9080    0.0000 C   0  0  0  0  0  0  0  0  0  0  0  0
   10.8434  -27.9133    0.0000 C   0  0  0  0  0  0  0  0  0  0  0  0
   11.8650  -26.8149    0.0000 C   0  0  0  0  0  0  0  0  0  0  0  0
   12.7757  -25.6230    0.0000 C   0  0  0  0  0  0  0  0  0  0  0  0
   13.5672  -24.3488    0.0000 C   0  0  0  0  0  0  0  0  0  0  0  0
   14.2320  -23.0042    0.0000 C   0  0  0  0  0  0  0  0  0  0  0  0
   14.7639  -21.6016    0.0000 C   0  0  0  0  0  0  0  0  0  0  0  0
   15.1579  -20.1543    0.0000 C   0  0  0  0  0  0  0  0  0  0  0  0
   15.4105  -18.6757    0.0000 C   0  0  0  0  0  0  0  0  0  0  0  0
   15.5191  -17.1797    0.0000 C   0  0  0  0  0  0  0  0  0  0  0  0
   15.4829  -15.6801    0.0000 C   0  0  0  0  0  0  0  0  0  0  0  0
   15.3021  -14.1910    0.0000 C   0  0  0  0  0  0  0  0  0  0  0  0
   14.9784  -12.7264    0.0000 C   0  0  0  0  0  0  0  0  0  0  0  0
   14.5149  -11.2998    0.0000 C   0  0  0  0  0  0  0  0  0  0  0  0
   13.9158   -9.9246    0.0000 C   0  0  0  0  0  0  0  0  0  0  0  0
   13.1868   -8.6137    0.0000 C   0  0  0  0  0  0  0  0  0  0  0  0
   12.3347   -7.3792    0.0000 C   0  0  0  0  0  0  0  0  0  0  0  0
   11.3675   -6.2327    0.0000 C   0  0  0  0  0  0  0  0  0  0  0  0
   10.2941   -5.1849    0.0000 C   0  0  0  0  0  0  0  0  0  0  0  0
    9.1246   -4.2457    0.0000 C   0  0  0  0  0  0  0  0  0  0  0  0
    7.8699   -3.4236    0.0000 C   0  0  0  0  0  0  0  0  0  0  0  0
    6.5417   -2.7266    0.0000 C   0  0  0  0  0  0  0  0  0  0  0  0
    5.1524   -2.1609    0.0000 C   0  0  0  0  0  0  0  0  0  0  0  0
    3.7151   -1.7320    0.0000 C   0  0  0  0  0  0  0  0  0  0  0  0
    3.8959   -3.2211    0.0000 C   0  0  0  0  0  0  0  0  0  0  0  0
    2.5355   -3.8532    0.0000 C   0  0  0  0  0  0  0  0  0  0  0  0
    1.5140   -2.7548    0.0000 C   0  0  0  0  0  0  0  0  0  0  0  0
    2.2430   -1.4438    0.0000 C   0  0  0  0  0  0  0  0  0  0  0  0
    0.7500   -1.2990    0.0000 C   0  0  0  0  0  0  0  0  0  0  0  0
    1.5000    0.0000    0.0000 C   0  0  0  0  0  0  0  0  0  0  0  0
    0.7500    1.2990    0.0000 C   0  0  0  0  0  0  0  0  0  0  0  0
   -0.7500    1.2990    0.0000 C   0  0  0  0  0  0  0  0  0  0  0  0
   -1.5000    0.0000    0.0000 C   0  0  0  0  0  0  0  0  0  0  0  0
   -0.7500   -1.2990    0.0000 C   0  0  0  0  0  0  0  0  0  0  0  0
   -2.2430   -1.4438    0.0000 C   0  0  0  0  0  0  0  0  0  0  0  0
   -1.2574   -2.5746    0.0000 C   0  0  0  0  0  0  0  0  0  0  0  0
   -1.7438   -3.9935    0.0000 C   0  0  0  0  0  0  0  0  0  0  0  0
   -3.2159   -4.2817    0.0000 C   0  0  0  0  0  0  0  0  0  0  0  0
   -4.2015   -3.1509    0.0000 C   0  0  0  0  0  0  0  0  0  0  0  0
   -3.7151   -1.7320    0.0000 C   0  0  0  0  0  0  0  0  0  0  0  0
   -5.1524   -2.1609    0.0000 C   0  0  0  0  0  0  0  0  0  0  0  0
   -4.9477   -0.6750    0.0000 C   0  0  0  0  0  0  0  0  0  0  0  0
   -6.1321    0.2454    0.0000 C   0  0  0  0  0  0  0  0  0  0  0  0
   -7.5214   -0.3203    0.0000 C   0  0  0  0  0  0  0  0  0  0  0  0
   -7.7262   -1.8062    0.0000 C   0  0  0  0  0  0  0  0  0  0  0  0
   -6.5417   -2.7266    0.0000 C   0  0  0  0  0  0  0  0  0  0  0  0
  1  2  1  0
  2  3  1  0
  3  4  1  0
  4  5  1  0
  5  6  1  0
  6  7  1  0
  7  8  1  0
  8  9  1  0
  9 10  1  0
 10 11  1  0
 11 12  1  0
 12 13  1  0
 13 14  1  0
 14 15  1  0
 15 16  1  0
 16 17  1  0
 17 18  1  0
 18 19  1  0
 19 20  1  0
 20 21  1  0
 21 22  1  0
 22 23  1  0
 23 24  1  0
 24 25  1  0
 25 26  1  0
 26 27  1  0
 27 28  1  0
 28 29  1  0
 29 30  1  0
 30 31  1  0
 31 32  1  0
 32 33  1  0
 33 34  1  0
 34 35  2  0
 35 36  1  0
 36 37  2  0
 37 38  1  0
 38 39  2  0
 39 40  1  0
 40 41  2  0
 41 42  1  0
 42 43  2  0
 43 44  1  0
 44 45  2  0
 45 46  1  0
 46 47  2  0
 47 48  1  0
 48 49  2  0
 49 50  1  0
 50 51  2  0
 51 52  1  0
 52 53  2  0
 53 54  1  0
 54 55  2  0
 55 56  1  0
 56 57  2  0
 57 58  1  0
 58 59  2  0
 59 60  1  0
 60 61  2  0
 61 62  1  0
 62 63  2  0
 63 64  1  0
 64 65  2  0
 65 66  1  0
 66 67  2  0
 67 68  1  0
 68 69  2  0
 69 70  1  0
 70 71  2  0
 71 72  1  0
 72 73  2  0
 73 74  1  0
 74 75  2  0
 75 76  1  0
 76 77  2  0
 77 78  1  0
 78 79  2  0
 79 80  1  0
 80 81  2  0
 81  2  1  0
 63 59  1  0
 69 64  1  0
 75 70  1  0
 81 76  1  0
M  END
>  <Title>  (908) 
idABGZgen13

$$$$

     RDKit          2D

 48 54  0  0  0  0  0  0  0  0999 V2000
   -1.1382   -8.3460    0.0000 C   0  0  0  0  0  0  0  0  0  0  0  0
   -0.7500   -6.8971    0.0000 C   0  0  0  0  0  0  0  0  0  0  0  0
    0.7500   -6.8971    0.0000 C   0  0  0  0  0  0  0  0  0  0  0  0
    2.0490   -6.1471    0.0000 C   0  0  0  0  0  0  0  0  0  0  0  0
    2.7990   -4.8481    0.0000 C   0  0  0  0  0  0  0  0  0  0  0  0
    2.7990   -3.3481    0.0000 C   0  0  0  0  0  0  0  0  0  0  0  0
    2.0490   -2.0490    0.0000 C   0  0  0  0  0  0  0  0  0  0  0  0
    3.1097   -0.9884    0.0000 C   0  0  0  0  0  0  0  0  0  0  0  0
    2.7215    0.4605    0.0000 O   0  0  0  0  0  0  0  0  0  0  0  0
    4.5586   -1.3766    0.0000 N   0  0  0  0  0  0  0  0  0  0  0  0
    5.6192   -0.3159    0.0000 C   0  0  0  0  0  0  0  0  0  0  0  0
    5.3846    1.1656    0.0000 N   0  0  0  0  0  0  0  0  0  0  0  0
    6.7211    1.8466    0.0000 N   0  0  0  0  0  0  0  0  0  0  0  0
    7.7818    0.7859    0.0000 N   0  0  0  0  0  0  0  0  0  0  0  0
    7.1008   -0.5506    0.0000 N   0  0  0  0  0  0  0  0  0  0  0  0
    7.7818   -1.8871    0.0000 N   0  0  0  0  0  0  0  0  0  0  0  0
    9.2633   -2.1218    0.0000 C   0  0  0  0  0  0  0  0  0  0  0  0
    9.4979   -3.6033    0.0000 C   0  0  0  0  0  0  0  0  0  0  0  0
    8.1614   -4.2843    0.0000 N   0  0  0  0  0  0  0  0  0  0  0  0
    7.9268   -5.7658    0.0000 C   0  0  0  0  0  0  0  0  0  0  0  0
    9.0925   -6.7098    0.0000 O   0  0  0  0  0  0  0  0  0  0  0  0
    6.5264   -6.3034    0.0000 N   0  0  0  0  0  0  0  0  0  0  0  0
    6.2918   -7.7849    0.0000 C   0  0  0  0  0  0  0  0  0  0  0  0
    4.8914   -8.3224    0.0000 N   0  0  0  0  0  0  0  0  0  0  0  0
    4.6567   -9.8040    0.0000 N   0  0  0  0  0  0  0  0  0  0  0  0
    5.8225  -10.7480    0.0000 N   0  0  0  0  0  0  0  0  0  0  0  0
    7.2228  -10.2104    0.0000 N   0  0  0  0  0  0  0  0  0  0  0  0
    7.4575   -8.7289    0.0000 N   0  0  0  0  0  0  0  0  0  0  0  0
    7.1008   -3.2236    0.0000 C   0  0  0  0  0  0  0  0  0  0  0  0
    5.6192   -3.4583    0.0000 O   0  0  0  0  0  0  0  0  0  0  0  0
    0.7500   -1.2990    0.0000 C   0  0  0  0  0  0  0  0  0  0  0  0
    1.5000    0.0000    0.0000 C   0  0  0  0  0  0  0  0  0  0  0  0
    0.7500    1.2990    0.0000 C   0  0  0  0  0  0  0  0  0  0  0  0
   -0.7500    1.2990    0.0000 C   0  0  0  0  0  0  0  0  0  0  0  0
   -1.5000    0.0000    0.0000 C   0  0  0  0  0  0  0  0  0  0  0  0
   -0.7500   -1.2990    0.0000 C   0  0  0  0  0  0  0  0  0  0  0  0
   -2.0490   -2.0490    0.0000 C   0  0  0  0  0  0  0  0  0  0  0  0
   -2.7990   -0.7500    0.0000 C   0  0  0  0  0  0  0  0  0  0  0  0
   -4.2990   -0.7500    0.0000 C   0  0  0  0  0  0  0  0  0  0  0  0
   -5.0490   -2.0490    0.0000 C   0  0  0  0  0  0  0  0  0  0  0  0
   -4.2990   -3.3481    0.0000 C   0  0  0  0  0  0  0  0  0  0  0  0
   -2.7990   -3.3481    0.0000 C   0  0  0  0  0  0  0  0  0  0  0  0
   -2.7990   -4.8481    0.0000 C   0  0  0  0  0  0  0  0  0  0  0  0
   -4.2990   -4.8481    0.0000 C   0  0  0  0  0  0  0  0  0  0  0  0
   -5.0490   -6.1471    0.0000 C   0  0  0  0  0  0  0  0  0  0  0  0
   -4.2990   -7.4462    0.0000 C   0  0  0  0  0  0  0  0  0  0  0  0
   -2.7990   -7.4462    0.0000 C   0  0  0  0  0  0  0  0  0  0  0  0
   -2.0490   -6.1471    0.0000 C   0  0  0  0  0  0  0  0  0  0  0  0
  1  2  1  0
  2  3  1  0
  3  4  2  0
  4  5  1  0
  5  6  1  0
  6  7  1  0
  7  8  1  0
  8  9  2  0
  8 10  1  0
 10 11  1  0
 11 12  2  0
 12 13  1  0
 13 14  2  0
 14 15  1  0
 15 16  1  0
 16 17  1  0
 17 18  1  0
 18 19  1  0
 19 20  1  0
 20 21  2  0
 20 22  1  0
 22 23  1  0
 23 24  2  0
 24 25  1  0
 25 26  2  0
 26 27  1  0
 27 28  2  0
 19 29  1  0
 29 30  2  0
  7 31  1  0
 31 32  2  0
 32 33  1  0
 33 34  2  0
 34 35  1  0
 35 36  2  0
 36 37  1  0
 37 38  2  0
 38 39  1  0
 39 40  2  0
 40 41  1  0
 41 42  2  0
 42 43  1  0
 43 44  2  0
 44 45  1  0
 45 46  2  0
 46 47  1  0
 47 48  2  0
 48  2  1  0
 15 11  1  0
 29 16  1  0
 36 31  1  0
 42 37  1  0
 48 43  1  0
 28 23  1  0
M  END
>  <Title>  (909) 
idABHAgen13

$$$$

     RDKit          2D

 78 79  0  0  0  0  0  0  0  0999 V2000
    1.5448    3.7516    0.0000 C   0  0  0  0  0  0  0  0  0  0  0  0
    2.3598    4.0985    0.0000 C   0  0  0  0  0  0  0  0  0  0  0  0
    1.8430    5.5066    0.0000 C   0  0  0  0  0  0  0  0  0  0  0  0
    1.4714    6.9599    0.0000 C   0  0  0  0  0  0  0  0  0  0  0  0
    1.2487    8.4432    0.0000 C   0  0  0  0  0  0  0  0  0  0  0  0
    1.1772    9.9415    0.0000 C   0  0  0  0  0  0  0  0  0  0  0  0
    1.2576   11.4394    0.0000 C   0  0  0  0  0  0  0  0  0  0  0  0
    1.4892   12.9214    0.0000 C   0  0  0  0  0  0  0  0  0  0  0  0
    1.8695   14.3724    0.0000 C   0  0  0  0  0  0  0  0  0  0  0  0
    2.3946   15.7774    0.0000 C   0  0  0  0  0  0  0  0  0  0  0  0
    3.0592   17.1222    0.0000 C   0  0  0  0  0  0  0  0  0  0  0  0
    3.8564   18.3928    0.0000 C   0  0  0  0  0  0  0  0  0  0  0  0
    4.7781   19.5762    0.0000 C   0  0  0  0  0  0  0  0  0  0  0  0
    5.8148   20.6603    0.0000 C   0  0  0  0  0  0  0  0  0  0  0  0
    6.9559   21.6340    0.0000 C   0  0  0  0  0  0  0  0  0  0  0  0
    8.1896   22.4872    0.0000 C   0  0  0  0  0  0  0  0  0  0  0  0
    9.5032   23.2112    0.0000 C   0  0  0  0  0  0  0  0  0  0  0  0
   10.8834   23.7987    0.0000 C   0  0  0  0  0  0  0  0  0  0  0  0
   12.3160   24.2434    0.0000 C   0  0  0  0  0  0  0  0  0  0  0  0
   13.7862   24.5410    0.0000 C   0  0  0  0  0  0  0  0  0  0  0  0
   15.2789   24.6883    0.0000 C   0  0  0  0  0  0  0  0  0  0  0  0
   16.7789   24.6838    0.0000 C   0  0  0  0  0  0  0  0  0  0  0  0
   18.2708   24.5276    0.0000 C   0  0  0  0  0  0  0  0  0  0  0  0
   19.7391   24.2213    0.0000 C   0  0  0  0  0  0  0  0  0  0  0  0
   21.1690   23.7680    0.0000 C   0  0  0  0  0  0  0  0  0  0  0  0
   22.5457   23.1724    0.0000 C   0  0  0  0  0  0  0  0  0  0  0  0
   23.8550   22.4405    0.0000 C   0  0  0  0  0  0  0  0  0  0  0  0
   25.0836   21.5799    0.0000 C   0  0  0  0  0  0  0  0  0  0  0  0
   26.2188   20.5995    0.0000 C   0  0  0  0  0  0  0  0  0  0  0  0
   27.2490   19.5092    0.0000 C   0  0  0  0  0  0  0  0  0  0  0  0
   28.1637   18.3203    0.0000 C   0  0  0  0  0  0  0  0  0  0  0  0
   28.9533   17.0450    0.0000 C   0  0  0  0  0  0  0  0  0  0  0  0
   29.6099   15.6963    0.0000 C   0  0  0  0  0  0  0  0  0  0  0  0
   30.1266   14.2882    0.0000 C   0  0  0  0  0  0  0  0  0  0  0  0
   30.4983   12.8349    0.0000 C   0  0  0  0  0  0  0  0  0  0  0  0
   30.7210   11.3515    0.0000 C   0  0  0  0  0  0  0  0  0  0  0  0
   30.7925    9.8533    0.0000 C   0  0  0  0  0  0  0  0  0  0  0  0
   30.7121    8.3554    0.0000 C   0  0  0  0  0  0  0  0  0  0  0  0
   30.4805    6.8734    0.0000 C   0  0  0  0  0  0  0  0  0  0  0  0
   30.1002    5.4224    0.0000 C   0  0  0  0  0  0  0  0  0  0  0  0
   29.5751    4.0173    0.0000 C   0  0  0  0  0  0  0  0  0  0  0  0
   28.9105    2.6726    0.0000 C   0  0  0  0  0  0  0  0  0  0  0  0
   28.1132    1.4020    0.0000 C   0  0  0  0  0  0  0  0  0  0  0  0
   27.1915    0.2186    0.0000 C   0  0  0  0  0  0  0  0  0  0  0  0
   26.1548   -0.8655    0.0000 C   0  0  0  0  0  0  0  0  0  0  0  0
   25.0138   -1.8392    0.0000 C   0  0  0  0  0  0  0  0  0  0  0  0
   23.7801   -2.6924    0.0000 C   0  0  0  0  0  0  0  0  0  0  0  0
   22.4664   -3.4164    0.0000 C   0  0  0  0  0  0  0  0  0  0  0  0
   21.0862   -4.0039    0.0000 C   0  0  0  0  0  0  0  0  0  0  0  0
   19.6537   -4.4486    0.0000 C   0  0  0  0  0  0  0  0  0  0  0  0
   18.1835   -4.7462    0.0000 C   0  0  0  0  0  0  0  0  0  0  0  0
   16.6908   -4.8935    0.0000 C   0  0  0  0  0  0  0  0  0  0  0  0
   15.1908   -4.8890    0.0000 C   0  0  0  0  0  0  0  0  0  0  0  0
   13.6989   -4.7328    0.0000 C   0  0  0  0  0  0  0  0  0  0  0  0
   12.2305   -4.4265    0.0000 C   0  0  0  0  0  0  0  0  0  0  0  0
   10.8007   -3.9732    0.0000 C   0  0  0  0  0  0  0  0  0  0  0  0
    9.4240   -3.3776    0.0000 C   0  0  0  0  0  0  0  0  0  0  0  0
    8.1146   -2.6457    0.0000 C   0  0  0  0  0  0  0  0  0  0  0  0
    6.8861   -1.7851    0.0000 C   0  0  0  0  0  0  0  0  0  0  0  0
    5.7508   -0.8047    0.0000 C   0  0  0  0  0  0  0  0  0  0  0  0
    4.7206    0.2856    0.0000 C   0  0  0  0  0  0  0  0  0  0  0  0
    3.8060    1.4745    0.0000 C   0  0  0  0  0  0  0  0  0  0  0  0
    3.3816   -0.0000    0.0000 C   0  0  0  0  0  0  0  0  0  0  0  0
    3.1533   -1.2216    0.0000 C   0  0  0  0  0  0  0  0  0  0  0  0
    2.4991   -2.2782    0.0000 C   0  0  0  0  0  0  0  0  0  0  0  0
    1.5073   -3.0271    0.0000 C   0  0  0  0  0  0  0  0  0  0  0  0
    0.3120   -3.3672    0.0000 C   0  0  0  0  0  0  0  0  0  0  0  0
   -0.9254   -3.2526    0.0000 C   0  0  0  0  0  0  0  0  0  0  0  0
   -2.0379   -2.6986    0.0000 C   0  0  0  0  0  0  0  0  0  0  0  0
   -2.8751   -1.7802    0.0000 C   0  0  0  0  0  0  0  0  0  0  0  0
   -3.3241   -0.6214    0.0000 C   0  0  0  0  0  0  0  0  0  0  0  0
   -3.3241    0.6214    0.0000 C   0  0  0  0  0  0  0  0  0  0  0  0
   -2.8751    1.7802    0.0000 C   0  0  0  0  0  0  0  0  0  0  0  0
   -2.0379    2.6986    0.0000 C   0  0  0  0  0  0  0  0  0  0  0  0
   -0.9254    3.2526    0.0000 C   0  0  0  0  0  0  0  0  0  0  0  0
    0.3120    3.3672    0.0000 C   0  0  0  0  0  0  0  0  0  0  0  0
    1.5073    3.0271    0.0000 C   0  0  0  0  0  0  0  0  0  0  0  0
    3.0164    2.7498    0.0000 C   0  0  0  0  0  0  0  0  0  0  0  0
  1  2  1  0
  2  3  1  0
  3  4  1  0
  4  5  1  0
  5  6  1  0
  6  7  1  0
  7  8  1  0
  8  9  1  0
  9 10  1  0
 10 11  1  0
 11 12  1  0
 12 13  1  0
 13 14  1  0
 14 15  1  0
 15 16  1  0
 16 17  1  0
 17 18  1  0
 18 19  1  0
 19 20  1  0
 20 21  1  0
 21 22  1  0
 22 23  1  0
 23 24  1  0
 24 25  1  0
 25 26  1  0
 26 27  1  0
 27 28  1  0
 28 29  1  0
 29 30  1  0
 30 31  1  0
 31 32  1  0
 32 33  1  0
 33 34  1  0
 34 35  1  0
 35 36  1  0
 36 37  1  0
 37 38  1  0
 38 39  1  0
 39 40  1  0
 40 41  1  0
 41 42  1  0
 42 43  1  0
 43 44  1  0
 44 45  1  0
 45 46  1  0
 46 47  1  0
 47 48  1  0
 48 49  1  0
 49 50  1  0
 50 51  1  0
 51 52  1  0
 52 53  1  0
 53 54  1  0
 54 55  1  0
 55 56  1  0
 56 57  1  0
 57 58  1  0
 58 59  1  0
 59 60  1  0
 60 61  1  0
 61 62  1  0
 62 63  1  0
 63 64  1  0
 64 65  1  0
 65 66  2  0
 66 67  1  0
 67 68  2  0
 68 69  1  0
 69 70  2  0
 70 71  1  0
 71 72  2  0
 72 73  1  0
 73 74  2  0
 74 75  1  0
 75 76  2  0
 76 77  1  0
 77 78  2  0
 78  2  1  0
 78 62  1  0
M  END
>  <Title>  (910) 
idABHBgen13

$$$$

     RDKit          2D

 77 79  0  0  0  0  0  0  0  0999 V2000
    1.3233   -7.0750    0.0000 C   0  0  0  0  0  0  0  0  0  0  0  0
    2.8203   -7.1709    0.0000 C   0  0  0  0  0  0  0  0  0  0  0  0
    2.8115   -8.6709    0.0000 C   0  0  0  0  0  0  0  0  0  0  0  0
    2.9770  -10.1617    0.0000 C   0  0  0  0  0  0  0  0  0  0  0  0
    3.3144  -11.6233    0.0000 C   0  0  0  0  0  0  0  0  0  0  0  0
    3.8193  -13.0358    0.0000 C   0  0  0  0  0  0  0  0  0  0  0  0
    4.4846  -14.3801    0.0000 C   0  0  0  0  0  0  0  0  0  0  0  0
    5.3016  -15.6381    0.0000 C   0  0  0  0  0  0  0  0  0  0  0  0
    6.2591  -16.7928    0.0000 C   0  0  0  0  0  0  0  0  0  0  0  0
    7.3441  -17.8285    0.0000 C   0  0  0  0  0  0  0  0  0  0  0  0
    8.5421  -18.7312    0.0000 C   0  0  0  0  0  0  0  0  0  0  0  0
    9.8367  -19.4888    0.0000 C   0  0  0  0  0  0  0  0  0  0  0  0
   11.2106  -20.0909    0.0000 C   0  0  0  0  0  0  0  0  0  0  0  0
   12.6450  -20.5294    0.0000 C   0  0  0  0  0  0  0  0  0  0  0  0
   14.1207  -20.7985    0.0000 C   0  0  0  0  0  0  0  0  0  0  0  0
   15.6176  -20.8944    0.0000 C   0  0  0  0  0  0  0  0  0  0  0  0
   17.1156  -20.8159    0.0000 C   0  0  0  0  0  0  0  0  0  0  0  0
   18.5943  -20.5641    0.0000 C   0  0  0  0  0  0  0  0  0  0  0  0
   20.0338  -20.1422    0.0000 C   0  0  0  0  0  0  0  0  0  0  0  0
   21.4145  -19.5561    0.0000 C   0  0  0  0  0  0  0  0  0  0  0  0
   22.7179  -18.8137    0.0000 C   0  0  0  0  0  0  0  0  0  0  0  0
   23.9263  -17.9250    0.0000 C   0  0  0  0  0  0  0  0  0  0  0  0
   25.0233  -16.9020    0.0000 C   0  0  0  0  0  0  0  0  0  0  0  0
   25.9941  -15.7585    0.0000 C   0  0  0  0  0  0  0  0  0  0  0  0
   26.8257  -14.5101    0.0000 C   0  0  0  0  0  0  0  0  0  0  0  0
   27.5067  -13.1736    0.0000 C   0  0  0  0  0  0  0  0  0  0  0  0
   28.0279  -11.7671    0.0000 C   0  0  0  0  0  0  0  0  0  0  0  0
   28.3823  -10.3095    0.0000 C   0  0  0  0  0  0  0  0  0  0  0  0
   28.5651   -8.8207    0.0000 C   0  0  0  0  0  0  0  0  0  0  0  0
   28.5738   -7.3208    0.0000 C   0  0  0  0  0  0  0  0  0  0  0  0
   28.4084   -5.8299    0.0000 C   0  0  0  0  0  0  0  0  0  0  0  0
   28.0709   -4.3684    0.0000 C   0  0  0  0  0  0  0  0  0  0  0  0
   27.5661   -2.9559    0.0000 C   0  0  0  0  0  0  0  0  0  0  0  0
   26.9007   -1.6115    0.0000 C   0  0  0  0  0  0  0  0  0  0  0  0
   26.0838   -0.3535    0.0000 C   0  0  0  0  0  0  0  0  0  0  0  0
   25.1263    0.8012    0.0000 C   0  0  0  0  0  0  0  0  0  0  0  0
   24.0412    1.8368    0.0000 C   0  0  0  0  0  0  0  0  0  0  0  0
   22.8433    2.7396    0.0000 C   0  0  0  0  0  0  0  0  0  0  0  0
   21.5486    3.4971    0.0000 C   0  0  0  0  0  0  0  0  0  0  0  0
   20.1748    4.0992    0.0000 C   0  0  0  0  0  0  0  0  0  0  0  0
   18.7403    4.5378    0.0000 C   0  0  0  0  0  0  0  0  0  0  0  0
   17.2647    4.8069    0.0000 C   0  0  0  0  0  0  0  0  0  0  0  0
   15.7677    4.9028    0.0000 C   0  0  0  0  0  0  0  0  0  0  0  0
   14.2698    4.8243    0.0000 C   0  0  0  0  0  0  0  0  0  0  0  0
   12.7911    4.5724    0.0000 C   0  0  0  0  0  0  0  0  0  0  0  0
   11.3516    4.1506    0.0000 C   0  0  0  0  0  0  0  0  0  0  0  0
    9.9709    3.5645    0.0000 C   0  0  0  0  0  0  0  0  0  0  0  0
    8.6675    2.8220    0.0000 C   0  0  0  0  0  0  0  0  0  0  0  0
    7.4591    1.9333    0.0000 C   0  0  0  0  0  0  0  0  0  0  0  0
    6.3621    0.9103    0.0000 C   0  0  0  0  0  0  0  0  0  0  0  0
    5.3912   -0.2331    0.0000 C   0  0  0  0  0  0  0  0  0  0  0  0
    4.5597   -1.4815    0.0000 C   0  0  0  0  0  0  0  0  0  0  0  0
    4.0943   -0.0000    0.0000 C   0  0  0  0  0  0  0  0  0  0  0  0
    3.8939    1.2652    0.0000 C   0  0  0  0  0  0  0  0  0  0  0  0
    3.3124    2.4066    0.0000 C   0  0  0  0  0  0  0  0  0  0  0  0
    2.4066    3.3124    0.0000 C   0  0  0  0  0  0  0  0  0  0  0  0
    1.2652    3.8939    0.0000 C   0  0  0  0  0  0  0  0  0  0  0  0
    0.0000    4.0943    0.0000 C   0  0  0  0  0  0  0  0  0  0  0  0
   -1.2652    3.8939    0.0000 C   0  0  0  0  0  0  0  0  0  0  0  0
   -2.4066    3.3124    0.0000 C   0  0  0  0  0  0  0  0  0  0  0  0
   -3.3124    2.4066    0.0000 C   0  0  0  0  0  0  0  0  0  0  0  0
   -3.8939    1.2652    0.0000 C   0  0  0  0  0  0  0  0  0  0  0  0
   -4.0943    0.0000    0.0000 C   0  0  0  0  0  0  0  0  0  0  0  0
   -3.8939   -1.2652    0.0000 C   0  0  0  0  0  0  0  0  0  0  0  0
   -3.3124   -2.4066    0.0000 C   0  0  0  0  0  0  0  0  0  0  0  0
   -2.4066   -3.3124    0.0000 C   0  0  0  0  0  0  0  0  0  0  0  0
   -1.2652   -3.8939    0.0000 C   0  0  0  0  0  0  0  0  0  0  0  0
   -0.0000   -4.0943    0.0000 C   0  0  0  0  0  0  0  0  0  0  0  0
    1.2652   -3.8939    0.0000 C   0  0  0  0  0  0  0  0  0  0  0  0
    2.4066   -3.3124    0.0000 C   0  0  0  0  0  0  0  0  0  0  0  0
    3.8787   -2.8180    0.0000 C   0  0  0  0  0  0  0  0  0  0  0  0
    3.3575   -4.2246    0.0000 C   0  0  0  0  0  0  0  0  0  0  0  0
    4.7969   -3.8027    0.0000 C   0  0  0  0  0  0  0  0  0  0  0  0
    5.8820   -4.8384    0.0000 C   0  0  0  0  0  0  0  0  0  0  0  0
    5.5276   -6.2960    0.0000 C   0  0  0  0  0  0  0  0  0  0  0  0
    4.0881   -6.7178    0.0000 C   0  0  0  0  0  0  0  0  0  0  0  0
    3.0031   -5.6821    0.0000 C   0  0  0  0  0  0  0  0  0  0  0  0
  1  2  1  0
  2  3  1  0
  3  4  1  0
  4  5  1  0
  5  6  1  0
  6  7  1  0
  7  8  1  0
  8  9  1  0
  9 10  1  0
 10 11  1  0
 11 12  1  0
 12 13  1  0
 13 14  1  0
 14 15  1  0
 15 16  1  0
 16 17  1  0
 17 18  1  0
 18 19  1  0
 19 20  1  0
 20 21  1  0
 21 22  1  0
 22 23  1  0
 23 24  1  0
 24 25  1  0
 25 26  1  0
 26 27  1  0
 27 28  1  0
 28 29  1  0
 29 30  1  0
 30 31  1  0
 31 32  1  0
 32 33  1  0
 33 34  1  0
 34 35  1  0
 35 36  1  0
 36 37  1  0
 37 38  1  0
 38 39  1  0
 39 40  1  0
 40 41  1  0
 41 42  1  0
 42 43  1  0
 43 44  1  0
 44 45  1  0
 45 46  1  0
 46 47  1  0
 47 48  1  0
 48 49  1  0
 49 50  1  0
 50 51  1  0
 51 52  1  0
 52 53  1  0
 53 54  1  0
 54 55  2  0
 55 56  1  0
 56 57  2  0
 57 58  1  0
 58 59  2  0
 59 60  1  0
 60 61  2  0
 61 62  1  0
 62 63  2  0
 63 64  1  0
 64 65  2  0
 65 66  1  0
 66 67  2  0
 67 68  1  0
 68 69  2  0
 69 70  1  0
 70 71  2  0
 71 72  1  0
 72 73  2  0
 73 74  1  0
 74 75  2  0
 75 76  1  0
 76 77  2  0
 77  2  1  0
 71 52  1  0
 77 72  1  0
M  END
>  <Title>  (911) 
idABHCgen13

$$$$

     RDKit          2D

 15 16  0  0  0  0  0  0  0  0999 V2000
    6.5260    1.2990    0.0000 C   0  0  0  0  0  0  0  0  0  0  0  0
    5.0260    1.2990    0.0000 C   0  0  0  0  0  0  0  0  0  0  0  0
    3.5260    1.2990    0.0000 C   0  0  0  0  0  0  0  0  0  0  0  0
    2.7760    2.5981    0.0000 O   0  0  0  0  0  0  0  0  0  0  0  0
    2.7760    0.0000    0.0000 N   0  0  0  0  0  0  0  0  0  0  0  0
    1.2760    0.0000    0.0000 C   0  0  0  0  0  0  0  0  0  0  0  0
    0.3943    1.2135    0.0000 N   0  0  0  0  0  0  0  0  0  0  0  0
   -1.0323    0.7500    0.0000 N   0  0  0  0  0  0  0  0  0  0  0  0
   -1.0323   -0.7500    0.0000 N   0  0  0  0  0  0  0  0  0  0  0  0
    0.3943   -1.2135    0.0000 N   0  0  0  0  0  0  0  0  0  0  0  0
    0.8578   -2.6401    0.0000 C   0  0  0  0  0  0  0  0  0  0  0  0
   -0.0239   -3.8536    0.0000 C   0  0  0  0  0  0  0  0  0  0  0  0
    0.8578   -5.0672    0.0000 C   0  0  0  0  0  0  0  0  0  0  0  0
    2.2844   -4.6036    0.0000 C   0  0  0  0  0  0  0  0  0  0  0  0
    2.2844   -3.1036    0.0000 C   0  0  0  0  0  0  0  0  0  0  0  0
  1  2  3  0
  2  3  1  0
  3  4  2  0
  3  5  1  0
  5  6  1  0
  6  7  2  0
  7  8  1  0
  8  9  2  0
  9 10  1  0
 10 11  1  0
 11 12  2  0
 12 13  1  0
 13 14  2  0
 14 15  1  0
 10  6  1  0
 15 11  1  0
M  END
>  <Title>  (912) 
idABHDgen13

$$$$

     RDKit          2D

 24 23  0  0  0  0  0  0  0  0999 V2000
    0.0000    0.0000    0.0000 C   0  0  0  0  0  0  0  0  0  0  0  0
    1.2990    0.7500    0.0000 C   0  0  0  0  0  0  0  0  0  0  0  0
    2.5981   -0.0000    0.0000 C   0  0  0  0  0  0  0  0  0  0  0  0
    3.8971    0.7500    0.0000 C   0  0  0  0  0  0  0  0  0  0  0  0
    5.1962   -0.0000    0.0000 C   0  0  0  0  0  0  0  0  0  0  0  0
    6.4952    0.7500    0.0000 C   0  0  0  0  0  0  0  0  0  0  0  0
    7.7942   -0.0000    0.0000 C   0  0  0  0  0  0  0  0  0  0  0  0
    9.0933    0.7500    0.0000 C   0  0  0  0  0  0  0  0  0  0  0  0
   10.3923   -0.0000    0.0000 C   0  0  0  0  0  0  0  0  0  0  0  0
   11.6913    0.7500    0.0000 C   0  0  0  0  0  0  0  0  0  0  0  0
   12.9904   -0.0000    0.0000 C   0  0  0  0  0  0  0  0  0  0  0  0
   14.2894    0.7500    0.0000 C   0  0  0  0  0  0  0  0  0  0  0  0
   15.5885   -0.0000    0.0000 C   0  0  0  0  0  0  0  0  0  0  0  0
   16.8875    0.7500    0.0000 C   0  0  0  0  0  0  0  0  0  0  0  0
   18.1865   -0.0000    0.0000 C   0  0  0  0  0  0  0  0  0  0  0  0
   19.4856    0.7500    0.0000 C   0  0  0  0  0  0  0  0  0  0  0  0
   20.7846   -0.0000    0.0000 C   0  0  0  0  0  0  0  0  0  0  0  0
   22.0836    0.7500    0.0000 C   0  0  0  0  0  0  0  0  0  0  0  0
   23.3827   -0.0000    0.0000 C   0  0  0  0  0  0  0  0  0  0  0  0
   24.6817    0.7500    0.0000 C   0  0  0  0  0  0  0  0  0  0  0  0
   25.9808   -0.0000    0.0000 C   0  0  0  0  0  0  0  0  0  0  0  0
   27.2798    0.7500    0.0000 C   0  0  0  0  0  0  0  0  0  0  0  0
   28.5788   -0.0000    0.0000 C   0  0  0  0  0  0  0  0  0  0  0  0
   29.8779    0.7500    0.0000 C   0  0  0  0  0  0  0  0  0  0  0  0
  1  2  2  0
  2  3  1  0
  3  4  1  0
  4  5  1  0
  5  6  1  0
  6  7  1  0
  7  8  1  0
  8  9  1  0
  9 10  1  0
 10 11  1  0
 11 12  1  0
 12 13  1  0
 13 14  1  0
 14 15  1  0
 15 16  1  0
 16 17  1  0
 17 18  1  0
 18 19  1  0
 19 20  1  0
 20 21  1  0
 21 22  1  0
 22 23  1  0
 23 24  1  0
M  END
>  <Title>  (913) 
idABHEgen13

$$$$

     RDKit          2D

 94 96  0  0  0  0  0  0  0  0999 V2000
   -2.4101    0.0825    0.0000 C   0  0  0  0  0  0  0  0  0  0  0  0
   -2.2460   -1.4085    0.0000 C   0  0  0  0  0  0  0  0  0  0  0  0
   -3.7300   -1.6269    0.0000 C   0  0  0  0  0  0  0  0  0  0  0  0
   -5.1941   -1.9531    0.0000 C   0  0  0  0  0  0  0  0  0  0  0  0
   -6.6305   -2.3852    0.0000 C   0  0  0  0  0  0  0  0  0  0  0  0
   -8.0316   -2.9211    0.0000 C   0  0  0  0  0  0  0  0  0  0  0  0
   -9.3897   -3.5578    0.0000 C   0  0  0  0  0  0  0  0  0  0  0  0
  -10.6978   -4.2919    0.0000 C   0  0  0  0  0  0  0  0  0  0  0  0
  -11.9488   -5.1195    0.0000 C   0  0  0  0  0  0  0  0  0  0  0  0
  -13.1360   -6.0363    0.0000 C   0  0  0  0  0  0  0  0  0  0  0  0
  -14.2532   -7.0373    0.0000 C   0  0  0  0  0  0  0  0  0  0  0  0
  -15.2943   -8.1171    0.0000 C   0  0  0  0  0  0  0  0  0  0  0  0
  -16.2538   -9.2701    0.0000 C   0  0  0  0  0  0  0  0  0  0  0  0
  -17.1266  -10.4900    0.0000 C   0  0  0  0  0  0  0  0  0  0  0  0
  -17.9080  -11.7704    0.0000 C   0  0  0  0  0  0  0  0  0  0  0  0
  -18.5939  -13.1044    0.0000 C   0  0  0  0  0  0  0  0  0  0  0  0
  -19.1805  -14.4850    0.0000 C   0  0  0  0  0  0  0  0  0  0  0  0
  -19.6649  -15.9046    0.0000 C   0  0  0  0  0  0  0  0  0  0  0  0
  -20.0443  -17.3558    0.0000 C   0  0  0  0  0  0  0  0  0  0  0  0
  -20.3167  -18.8309    0.0000 C   0  0  0  0  0  0  0  0  0  0  0  0
  -20.4808  -20.3219    0.0000 C   0  0  0  0  0  0  0  0  0  0  0  0
  -20.5356  -21.8209    0.0000 C   0  0  0  0  0  0  0  0  0  0  0  0
  -20.4808  -23.3199    0.0000 C   0  0  0  0  0  0  0  0  0  0  0  0
  -20.3167  -24.8109    0.0000 C   0  0  0  0  0  0  0  0  0  0  0  0
  -20.0443  -26.2859    0.0000 C   0  0  0  0  0  0  0  0  0  0  0  0
  -19.6649  -27.7372    0.0000 C   0  0  0  0  0  0  0  0  0  0  0  0
  -19.1805  -29.1568    0.0000 C   0  0  0  0  0  0  0  0  0  0  0  0
  -18.5939  -30.5373    0.0000 C   0  0  0  0  0  0  0  0  0  0  0  0
  -17.9080  -31.8714    0.0000 C   0  0  0  0  0  0  0  0  0  0  0  0
  -17.1266  -33.1517    0.0000 C   0  0  0  0  0  0  0  0  0  0  0  0
  -16.2538  -34.3717    0.0000 C   0  0  0  0  0  0  0  0  0  0  0  0
  -15.2943  -35.5247    0.0000 C   0  0  0  0  0  0  0  0  0  0  0  0
  -14.2532  -36.6045    0.0000 C   0  0  0  0  0  0  0  0  0  0  0  0
  -13.1360  -37.6055    0.0000 C   0  0  0  0  0  0  0  0  0  0  0  0
  -11.9488  -38.5222    0.0000 C   0  0  0  0  0  0  0  0  0  0  0  0
  -10.6978  -39.3499    0.0000 C   0  0  0  0  0  0  0  0  0  0  0  0
   -9.3897  -40.0840    0.0000 C   0  0  0  0  0  0  0  0  0  0  0  0
   -8.0316  -40.7207    0.0000 C   0  0  0  0  0  0  0  0  0  0  0  0
   -6.6305  -41.2566    0.0000 C   0  0  0  0  0  0  0  0  0  0  0  0
   -5.1941  -41.6887    0.0000 C   0  0  0  0  0  0  0  0  0  0  0  0
   -3.7300  -42.0149    0.0000 C   0  0  0  0  0  0  0  0  0  0  0  0
   -2.2460  -42.2333    0.0000 C   0  0  0  0  0  0  0  0  0  0  0  0
   -0.7500  -42.3427    0.0000 C   0  0  0  0  0  0  0  0  0  0  0  0
    0.7500  -42.3427    0.0000 C   0  0  0  0  0  0  0  0  0  0  0  0
    2.2460  -42.2333    0.0000 C   0  0  0  0  0  0  0  0  0  0  0  0
    3.7300  -42.0149    0.0000 C   0  0  0  0  0  0  0  0  0  0  0  0
    5.1941  -41.6887    0.0000 C   0  0  0  0  0  0  0  0  0  0  0  0
    6.6305  -41.2566    0.0000 C   0  0  0  0  0  0  0  0  0  0  0  0
    8.0316  -40.7207    0.0000 C   0  0  0  0  0  0  0  0  0  0  0  0
    9.3897  -40.0840    0.0000 C   0  0  0  0  0  0  0  0  0  0  0  0
   10.6978  -39.3499    0.0000 C   0  0  0  0  0  0  0  0  0  0  0  0
   11.9488  -38.5222    0.0000 C   0  0  0  0  0  0  0  0  0  0  0  0
   13.1360  -37.6055    0.0000 C   0  0  0  0  0  0  0  0  0  0  0  0
   14.2532  -36.6045    0.0000 C   0  0  0  0  0  0  0  0  0  0  0  0
   15.2943  -35.5247    0.0000 C   0  0  0  0  0  0  0  0  0  0  0  0
   16.2538  -34.3717    0.0000 C   0  0  0  0  0  0  0  0  0  0  0  0
   17.1266  -33.1517    0.0000 C   0  0  0  0  0  0  0  0  0  0  0  0
   17.9080  -31.8714    0.0000 C   0  0  0  0  0  0  0  0  0  0  0  0
   18.5939  -30.5373    0.0000 C   0  0  0  0  0  0  0  0  0  0  0  0
   19.1805  -29.1568    0.0000 C   0  0  0  0  0  0  0  0  0  0  0  0
   19.6649  -27.7372    0.0000 C   0  0  0  0  0  0  0  0  0  0  0  0
   20.0443  -26.2859    0.0000 C   0  0  0  0  0  0  0  0  0  0  0  0
   20.3167  -24.8109    0.0000 C   0  0  0  0  0  0  0  0  0  0  0  0
   20.4808  -23.3199    0.0000 C   0  0  0  0  0  0  0  0  0  0  0  0
   20.5356  -21.8209    0.0000 C   0  0  0  0  0  0  0  0  0  0  0  0
   20.4808  -20.3219    0.0000 C   0  0  0  0  0  0  0  0  0  0  0  0
   20.3167  -18.8309    0.0000 C   0  0  0  0  0  0  0  0  0  0  0  0
   20.0443  -17.3558    0.0000 C   0  0  0  0  0  0  0  0  0  0  0  0
   19.6649  -15.9046    0.0000 C   0  0  0  0  0  0  0  0  0  0  0  0
   19.1805  -14.4850    0.0000 C   0  0  0  0  0  0  0  0  0  0  0  0
   18.5939  -13.1044    0.0000 C   0  0  0  0  0  0  0  0  0  0  0  0
   17.9080  -11.7704    0.0000 C   0  0  0  0  0  0  0  0  0  0  0  0
   17.1266  -10.4900    0.0000 C   0  0  0  0  0  0  0  0  0  0  0  0
   16.2538   -9.2701    0.0000 C   0  0  0  0  0  0  0  0  0  0  0  0
   15.2943   -8.1171    0.0000 C   0  0  0  0  0  0  0  0  0  0  0  0
   14.2532   -7.0373    0.0000 C   0  0  0  0  0  0  0  0  0  0  0  0
   13.1360   -6.0363    0.0000 C   0  0  0  0  0  0  0  0  0  0  0  0
   11.9488   -5.1195    0.0000 C   0  0  0  0  0  0  0  0  0  0  0  0
   10.6978   -4.2919    0.0000 C   0  0  0  0  0  0  0  0  0  0  0  0
    9.3897   -3.5578    0.0000 C   0  0  0  0  0  0  0  0  0  0  0  0
    8.0316   -2.9211    0.0000 C   0  0  0  0  0  0  0  0  0  0  0  0
    6.6305   -2.3852    0.0000 C   0  0  0  0  0  0  0  0  0  0  0  0
    5.1941   -1.9531    0.0000 C   0  0  0  0  0  0  0  0  0  0  0  0
    3.7300   -1.6269    0.0000 C   0  0  0  0  0  0  0  0  0  0  0  0
    3.9809   -3.1058    0.0000 C   0  0  0  0  0  0  0  0  0  0  0  0
    2.6519   -3.8014    0.0000 C   0  0  0  0  0  0  0  0  0  0  0  0
    1.5797   -2.7524    0.0000 C   0  0  0  0  0  0  0  0  0  0  0  0
    2.2460   -1.4085    0.0000 C   0  0  0  0  0  0  0  0  0  0  0  0
    0.7500   -1.2990    0.0000 C   0  0  0  0  0  0  0  0  0  0  0  0
    1.5000    0.0000    0.0000 C   0  0  0  0  0  0  0  0  0  0  0  0
    0.7500    1.2990    0.0000 C   0  0  0  0  0  0  0  0  0  0  0  0
   -0.7500    1.2990    0.0000 C   0  0  0  0  0  0  0  0  0  0  0  0
   -1.5000    0.0000    0.0000 C   0  0  0  0  0  0  0  0  0  0  0  0
   -0.7500   -1.2990    0.0000 C   0  0  0  0  0  0  0  0  0  0  0  0
  1  2  1  0
  2  3  1  0
  3  4  1  0
  4  5  1  0
  5  6  1  0
  6  7  1  0
  7  8  1  0
  8  9  1  0
  9 10  1  0
 10 11  1  0
 11 12  1  0
 12 13  1  0
 13 14  1  0
 14 15  1  0
 15 16  1  0
 16 17  1  0
 17 18  1  0
 18 19  1  0
 19 20  1  0
 20 21  1  0
 21 22  1  0
 22 23  1  0
 23 24  1  0
 24 25  1  0
 25 26  1  0
 26 27  1  0
 27 28  1  0
 28 29  1  0
 29 30  1  0
 30 31  1  0
 31 32  1  0
 32 33  1  0
 33 34  1  0
 34 35  1  0
 35 36  1  0
 36 37  1  0
 37 38  1  0
 38 39  1  0
 39 40  1  0
 40 41  1  0
 41 42  1  0
 42 43  1  0
 43 44  1  0
 44 45  1  0
 45 46  1  0
 46 47  1  0
 47 48  1  0
 48 49  1  0
 49 50  1  0
 50 51  1  0
 51 52  1  0
 52 53  1  0
 53 54  2  0
 54 55  1  0
 55 56  2  0
 56 57  1  0
 57 58  2  0
 58 59  1  0
 59 60  2  0
 60 61  1  0
 61 62  2  0
 62 63  1  0
 63 64  2  0
 64 65  1  0
 65 66  2  0
 66 67  1  0
 67 68  2  0
 68 69  1  0
 69 70  2  0
 70 71  1  0
 71 72  2  0
 72 73  1  0
 73 74  2  0
 74 75  1  0
 75 76  2  0
 76 77  1  0
 77 78  2  0
 78 79  1  0
 79 80  2  0
 80 81  1  0
 81 82  2  0
 82 83  1  0
 83 84  2  0
 84 85  1  0
 85 86  2  0
 86 87  1  0
 87 88  2  0
 88 89  1  0
 89 90  2  0
 90 91  1  0
 91 92  2  0
 92 93  1  0
 93 94  2  0
 94  2  1  0
 88 84  1  0
 94 89  1  0
M  END
>  <Title>  (914) 
idABHFgen13

$$$$

     RDKit          2D

 73 74  0  0  0  0  0  0  0  0999 V2000
   -2.2302   -1.0583    0.0000 C   0  0  0  0  0  0  0  0  0  0  0  0
   -2.4951    0.4181    0.0000 C   0  0  0  0  0  0  0  0  0  0  0  0
   -3.9821    0.2206    0.0000 C   0  0  0  0  0  0  0  0  0  0  0  0
   -5.4808    0.1592    0.0000 C   0  0  0  0  0  0  0  0  0  0  0  0
   -6.9789    0.2343    0.0000 C   0  0  0  0  0  0  0  0  0  0  0  0
   -8.4640    0.4453    0.0000 C   0  0  0  0  0  0  0  0  0  0  0  0
   -9.9237    0.7905    0.0000 C   0  0  0  0  0  0  0  0  0  0  0  0
  -11.3460    1.2670    0.0000 C   0  0  0  0  0  0  0  0  0  0  0  0
  -12.7191    1.8708    0.0000 C   0  0  0  0  0  0  0  0  0  0  0  0
  -14.0316    2.5971    0.0000 C   0  0  0  0  0  0  0  0  0  0  0  0
  -15.2726    3.4396    0.0000 C   0  0  0  0  0  0  0  0  0  0  0  0
  -16.4319    4.3915    0.0000 C   0  0  0  0  0  0  0  0  0  0  0  0
  -17.4997    5.4449    0.0000 C   0  0  0  0  0  0  0  0  0  0  0  0
  -18.4674    6.5911    0.0000 C   0  0  0  0  0  0  0  0  0  0  0  0
  -19.3268    7.8204    0.0000 C   0  0  0  0  0  0  0  0  0  0  0  0
  -20.0709    9.1229    0.0000 C   0  0  0  0  0  0  0  0  0  0  0  0
  -20.6935   10.4876    0.0000 C   0  0  0  0  0  0  0  0  0  0  0  0
  -21.1893   11.9033    0.0000 C   0  0  0  0  0  0  0  0  0  0  0  0
  -21.5544   13.3581    0.0000 C   0  0  0  0  0  0  0  0  0  0  0  0
  -21.7857   14.8402    0.0000 C   0  0  0  0  0  0  0  0  0  0  0  0
  -21.8813   16.3372    0.0000 C   0  0  0  0  0  0  0  0  0  0  0  0
  -21.8403   17.8366    0.0000 C   0  0  0  0  0  0  0  0  0  0  0  0
  -21.6631   19.3261    0.0000 C   0  0  0  0  0  0  0  0  0  0  0  0
  -21.3513   20.7933    0.0000 C   0  0  0  0  0  0  0  0  0  0  0  0
  -20.9073   22.2261    0.0000 C   0  0  0  0  0  0  0  0  0  0  0  0
  -20.3348   23.6126    0.0000 C   0  0  0  0  0  0  0  0  0  0  0  0
  -19.6387   24.9413    0.0000 C   0  0  0  0  0  0  0  0  0  0  0  0
  -18.8246   26.2011    0.0000 C   0  0  0  0  0  0  0  0  0  0  0  0
  -17.8993   27.3817    0.0000 C   0  0  0  0  0  0  0  0  0  0  0  0
  -16.8705   28.4733    0.0000 C   0  0  0  0  0  0  0  0  0  0  0  0
  -15.7467   29.4668    0.0000 C   0  0  0  0  0  0  0  0  0  0  0  0
  -14.5372   30.3540    0.0000 C   0  0  0  0  0  0  0  0  0  0  0  0
  -13.2520   31.1275    0.0000 C   0  0  0  0  0  0  0  0  0  0  0  0
  -11.9018   31.7810    0.0000 C   0  0  0  0  0  0  0  0  0  0  0  0
  -10.4978   32.3090    0.0000 C   0  0  0  0  0  0  0  0  0  0  0  0
   -9.0516   32.7071    0.0000 C   0  0  0  0  0  0  0  0  0  0  0  0
   -7.5752   32.9720    0.0000 C   0  0  0  0  0  0  0  0  0  0  0  0
   -6.0808   33.1016    0.0000 C   0  0  0  0  0  0  0  0  0  0  0  0
   -4.5808   33.0948    0.0000 C   0  0  0  0  0  0  0  0  0  0  0  0
   -3.0877   32.9516    0.0000 C   0  0  0  0  0  0  0  0  0  0  0  0
   -1.6137   32.6732    0.0000 C   0  0  0  0  0  0  0  0  0  0  0  0
   -0.1712   32.2620    0.0000 C   0  0  0  0  0  0  0  0  0  0  0  0
    1.2279   31.7212    0.0000 C   0  0  0  0  0  0  0  0  0  0  0  0
    2.5721   31.0555    0.0000 C   0  0  0  0  0  0  0  0  0  0  0  0
    3.8502   30.2703    0.0000 C   0  0  0  0  0  0  0  0  0  0  0  0
    5.0515   29.3721    0.0000 C   0  0  0  0  0  0  0  0  0  0  0  0
    6.1662   28.3684    0.0000 C   0  0  0  0  0  0  0  0  0  0  0  0
    7.1851   27.2675    0.0000 C   0  0  0  0  0  0  0  0  0  0  0  0
    8.0996   26.0785    0.0000 C   0  0  0  0  0  0  0  0  0  0  0  0
    8.9022   24.8113    0.0000 C   0  0  0  0  0  0  0  0  0  0  0  0
    9.5862   23.4763    0.0000 C   0  0  0  0  0  0  0  0  0  0  0  0
   10.1460   22.0847    0.0000 C   0  0  0  0  0  0  0  0  0  0  0  0
   10.5769   20.6480    0.0000 C   0  0  0  0  0  0  0  0  0  0  0  0
   10.8754   19.1780    0.0000 C   0  0  0  0  0  0  0  0  0  0  0  0
   11.0390   17.6869    0.0000 C   0  0  0  0  0  0  0  0  0  0  0  0
   11.0663   16.1871    0.0000 C   0  0  0  0  0  0  0  0  0  0  0  0
   10.9571   14.6911    0.0000 C   0  0  0  0  0  0  0  0  0  0  0  0
   10.7124   13.2112    0.0000 C   0  0  0  0  0  0  0  0  0  0  0  0
   10.3340   11.7597    0.0000 C   0  0  0  0  0  0  0  0  0  0  0  0
    9.8253   10.3486    0.0000 C   0  0  0  0  0  0  0  0  0  0  0  0
    9.1903    8.9897    0.0000 C   0  0  0  0  0  0  0  0  0  0  0  0
    8.4344    7.6940    0.0000 C   0  0  0  0  0  0  0  0  0  0  0  0
    7.5638    6.4725    0.0000 C   0  0  0  0  0  0  0  0  0  0  0  0
    6.5858    5.3353    0.0000 C   0  0  0  0  0  0  0  0  0  0  0  0
    5.5084    4.2916    0.0000 C   0  0  0  0  0  0  0  0  0  0  0  0
    4.3405    3.3503    0.0000 C   0  0  0  0  0  0  0  0  0  0  0  0
    3.0919    2.5191    0.0000 C   0  0  0  0  0  0  0  0  0  0  0  0
    1.7728    1.8049    0.0000 C   0  0  0  0  0  0  0  0  0  0  0  0
    0.3943    1.2135    0.0000 C   0  0  0  0  0  0  0  0  0  0  0  0
    1.2760    0.0000    0.0000 C   0  0  0  0  0  0  0  0  0  0  0  0
    0.3943   -1.2135    0.0000 C   0  0  0  0  0  0  0  0  0  0  0  0
   -1.0323   -0.7500    0.0000 C   0  0  0  0  0  0  0  0  0  0  0  0
   -1.0323    0.7500    0.0000 C   0  0  0  0  0  0  0  0  0  0  0  0
  1  2  1  0
  2  3  1  0
  3  4  1  0
  4  5  1  0
  5  6  1  0
  6  7  1  0
  7  8  1  0
  8  9  1  0
  9 10  1  0
 10 11  1  0
 11 12  1  0
 12 13  1  0
 13 14  1  0
 14 15  1  0
 15 16  1  0
 16 17  1  0
 17 18  1  0
 18 19  1  0
 19 20  1  0
 20 21  1  0
 21 22  1  0
 22 23  1  0
 23 24  1  0
 24 25  1  0
 25 26  1  0
 26 27  1  0
 27 28  1  0
 28 29  1  0
 29 30  1  0
 30 31  1  0
 31 32  1  0
 32 33  1  0
 33 34  1  0
 34 35  1  0
 35 36  1  0
 36 37  1  0
 37 38  1  0
 38 39  1  0
 39 40  1  0
 40 41  1  0
 41 42  1  0
 42 43  2  0
 43 44  1  0
 44 45  2  0
 45 46  1  0
 46 47  2  0
 47 48  1  0
 48 49  2  0
 49 50  1  0
 50 51  2  0
 51 52  1  0
 52 53  2  0
 53 54  1  0
 54 55  2  0
 55 56  1  0
 56 57  2  0
 57 58  1  0
 58 59  2  0
 59 60  1  0
 60 61  2  0
 61 62  1  0
 62 63  2  0
 63 64  1  0
 64 65  2  0
 65 66  1  0
 66 67  2  0
 67 68  1  0
 68 69  2  0
 69 70  1  0
 70 71  2  0
 71 72  1  0
 72 73  2  0
 73  2  1  0
 73 69  1  0
M  END
>  <Title>  (915) 
idABHGgen13

$$$$

     RDKit          2D

 84 87  0  0  0  0  0  0  0  0999 V2000
   -5.6215   -0.6479    0.0000 C   0  0  0  0  0  0  0  0  0  0  0  0
   -5.1704   -2.0785    0.0000 C   0  0  0  0  0  0  0  0  0  0  0  0
   -6.5799   -2.5915    0.0000 C   0  0  0  0  0  0  0  0  0  0  0  0
   -7.9394   -3.2254    0.0000 C   0  0  0  0  0  0  0  0  0  0  0  0
   -9.2384   -3.9754    0.0000 C   0  0  0  0  0  0  0  0  0  0  0  0
  -10.4672   -4.8358    0.0000 C   0  0  0  0  0  0  0  0  0  0  0  0
  -11.6162   -5.8000    0.0000 C   0  0  0  0  0  0  0  0  0  0  0  0
  -12.6769   -6.8606    0.0000 C   0  0  0  0  0  0  0  0  0  0  0  0
  -13.6411   -8.0097    0.0000 C   0  0  0  0  0  0  0  0  0  0  0  0
  -14.5014   -9.2384    0.0000 C   0  0  0  0  0  0  0  0  0  0  0  0
  -15.2514  -10.5375    0.0000 C   0  0  0  0  0  0  0  0  0  0  0  0
  -15.8854  -11.8969    0.0000 C   0  0  0  0  0  0  0  0  0  0  0  0
  -16.3984  -13.3065    0.0000 C   0  0  0  0  0  0  0  0  0  0  0  0
  -16.7866  -14.7554    0.0000 C   0  0  0  0  0  0  0  0  0  0  0  0
  -17.0471  -16.2326    0.0000 C   0  0  0  0  0  0  0  0  0  0  0  0
  -17.1778  -17.7269    0.0000 C   0  0  0  0  0  0  0  0  0  0  0  0
  -17.1778  -19.2269    0.0000 C   0  0  0  0  0  0  0  0  0  0  0  0
  -17.0471  -20.7212    0.0000 C   0  0  0  0  0  0  0  0  0  0  0  0
  -16.7866  -22.1984    0.0000 C   0  0  0  0  0  0  0  0  0  0  0  0
  -16.3984  -23.6473    0.0000 C   0  0  0  0  0  0  0  0  0  0  0  0
  -15.8854  -25.0568    0.0000 C   0  0  0  0  0  0  0  0  0  0  0  0
  -15.2514  -26.4163    0.0000 C   0  0  0  0  0  0  0  0  0  0  0  0
  -14.5014  -27.7153    0.0000 C   0  0  0  0  0  0  0  0  0  0  0  0
  -13.6411  -28.9440    0.0000 C   0  0  0  0  0  0  0  0  0  0  0  0
  -12.6769  -30.0931    0.0000 C   0  0  0  0  0  0  0  0  0  0  0  0
  -11.6162  -31.1537    0.0000 C   0  0  0  0  0  0  0  0  0  0  0  0
  -10.4672  -32.1179    0.0000 C   0  0  0  0  0  0  0  0  0  0  0  0
   -9.2384  -32.9783    0.0000 C   0  0  0  0  0  0  0  0  0  0  0  0
   -7.9394  -33.7283    0.0000 C   0  0  0  0  0  0  0  0  0  0  0  0
   -6.5799  -34.3622    0.0000 C   0  0  0  0  0  0  0  0  0  0  0  0
   -5.1704  -34.8753    0.0000 C   0  0  0  0  0  0  0  0  0  0  0  0
   -3.7215  -35.2635    0.0000 C   0  0  0  0  0  0  0  0  0  0  0  0
   -2.2443  -35.5240    0.0000 C   0  0  0  0  0  0  0  0  0  0  0  0
   -0.7500  -35.6547    0.0000 C   0  0  0  0  0  0  0  0  0  0  0  0
    0.7500  -35.6547    0.0000 C   0  0  0  0  0  0  0  0  0  0  0  0
    2.2443  -35.5240    0.0000 C   0  0  0  0  0  0  0  0  0  0  0  0
    3.7215  -35.2635    0.0000 C   0  0  0  0  0  0  0  0  0  0  0  0
    5.1704  -34.8753    0.0000 C   0  0  0  0  0  0  0  0  0  0  0  0
    6.5799  -34.3622    0.0000 C   0  0  0  0  0  0  0  0  0  0  0  0
    7.9394  -33.7283    0.0000 C   0  0  0  0  0  0  0  0  0  0  0  0
    9.2384  -32.9783    0.0000 C   0  0  0  0  0  0  0  0  0  0  0  0
   10.4672  -32.1179    0.0000 C   0  0  0  0  0  0  0  0  0  0  0  0
   11.6162  -31.1537    0.0000 C   0  0  0  0  0  0  0  0  0  0  0  0
   12.6769  -30.0931    0.0000 C   0  0  0  0  0  0  0  0  0  0  0  0
   13.6411  -28.9440    0.0000 C   0  0  0  0  0  0  0  0  0  0  0  0
   14.5014  -27.7153    0.0000 C   0  0  0  0  0  0  0  0  0  0  0  0
   15.2514  -26.4163    0.0000 C   0  0  0  0  0  0  0  0  0  0  0  0
   15.8854  -25.0568    0.0000 C   0  0  0  0  0  0  0  0  0  0  0  0
   16.3984  -23.6473    0.0000 C   0  0  0  0  0  0  0  0  0  0  0  0
   16.7866  -22.1984    0.0000 C   0  0  0  0  0  0  0  0  0  0  0  0
   17.0471  -20.7212    0.0000 C   0  0  0  0  0  0  0  0  0  0  0  0
   17.1778  -19.2269    0.0000 C   0  0  0  0  0  0  0  0  0  0  0  0
   17.1778  -17.7269    0.0000 C   0  0  0  0  0  0  0  0  0  0  0  0
   17.0471  -16.2326    0.0000 C   0  0  0  0  0  0  0  0  0  0  0  0
   16.7866  -14.7554    0.0000 C   0  0  0  0  0  0  0  0  0  0  0  0
   16.3984  -13.3065    0.0000 C   0  0  0  0  0  0  0  0  0  0  0  0
   15.8854  -11.8969    0.0000 C   0  0  0  0  0  0  0  0  0  0  0  0
   15.2514  -10.5375    0.0000 C   0  0  0  0  0  0  0  0  0  0  0  0
   14.5014   -9.2384    0.0000 C   0  0  0  0  0  0  0  0  0  0  0  0
   13.6411   -8.0097    0.0000 C   0  0  0  0  0  0  0  0  0  0  0  0
   12.6769   -6.8606    0.0000 C   0  0  0  0  0  0  0  0  0  0  0  0
   11.6162   -5.8000    0.0000 C   0  0  0  0  0  0  0  0  0  0  0  0
   10.4672   -4.8358    0.0000 C   0  0  0  0  0  0  0  0  0  0  0  0
    9.2384   -3.9754    0.0000 C   0  0  0  0  0  0  0  0  0  0  0  0
    7.9394   -3.2254    0.0000 C   0  0  0  0  0  0  0  0  0  0  0  0
    6.5799   -2.5915    0.0000 C   0  0  0  0  0  0  0  0  0  0  0  0
    5.1704   -2.0785    0.0000 C   0  0  0  0  0  0  0  0  0  0  0  0
    3.7215   -1.6902    0.0000 C   0  0  0  0  0  0  0  0  0  0  0  0
    3.9303   -3.1756    0.0000 C   0  0  0  0  0  0  0  0  0  0  0  0
    2.5821   -3.8332    0.0000 C   0  0  0  0  0  0  0  0  0  0  0  0
    1.5401   -2.7542    0.0000 C   0  0  0  0  0  0  0  0  0  0  0  0
    2.2443   -1.4298    0.0000 C   0  0  0  0  0  0  0  0  0  0  0  0
    0.7500   -1.2990    0.0000 C   0  0  0  0  0  0  0  0  0  0  0  0
    1.5000    0.0000    0.0000 C   0  0  0  0  0  0  0  0  0  0  0  0
    0.7500    1.2990    0.0000 C   0  0  0  0  0  0  0  0  0  0  0  0
   -0.7500    1.2990    0.0000 C   0  0  0  0  0  0  0  0  0  0  0  0
   -1.5000    0.0000    0.0000 C   0  0  0  0  0  0  0  0  0  0  0  0
   -0.7500   -1.2990    0.0000 C   0  0  0  0  0  0  0  0  0  0  0  0
   -2.2443   -1.4298    0.0000 C   0  0  0  0  0  0  0  0  0  0  0  0
   -1.2801   -2.5788    0.0000 C   0  0  0  0  0  0  0  0  0  0  0  0
   -1.7931   -3.9884    0.0000 C   0  0  0  0  0  0  0  0  0  0  0  0
   -3.2704   -4.2488    0.0000 C   0  0  0  0  0  0  0  0  0  0  0  0
   -4.2345   -3.0998    0.0000 C   0  0  0  0  0  0  0  0  0  0  0  0
   -3.7215   -1.6902    0.0000 C   0  0  0  0  0  0  0  0  0  0  0  0
  1  2  1  0
  2  3  1  0
  3  4  1  0
  4  5  1  0
  5  6  1  0
  6  7  1  0
  7  8  1  0
  8  9  1  0
  9 10  1  0
 10 11  1  0
 11 12  1  0
 12 13  1  0
 13 14  1  0
 14 15  1  0
 15 16  1  0
 16 17  1  0
 17 18  1  0
 18 19  1  0
 19 20  1  0
 20 21  1  0
 21 22  1  0
 22 23  1  0
 23 24  1  0
 24 25  1  0
 25 26  1  0
 26 27  1  0
 27 28  1  0
 28 29  1  0
 29 30  1  0
 30 31  1  0
 31 32  1  0
 32 33  1  0
 33 34  1  0
 34 35  1  0
 35 36  1  0
 36 37  1  0
 37 38  1  0
 38 39  1  0
 39 40  1  0
 40 41  1  0
 41 42  1  0
 42 43  1  0
 43 44  2  0
 44 45  1  0
 45 46  2  0
 46 47  1  0
 47 48  2  0
 48 49  1  0
 49 50  2  0
 50 51  1  0
 51 52  2  0
 52 53  1  0
 53 54  2  0
 54 55  1  0
 55 56  2  0
 56 57  1  0
 57 58  2  0
 58 59  1  0
 59 60  2  0
 60 61  1  0
 61 62  2  0
 62 63  1  0
 63 64  2  0
 64 65  1  0
 65 66  2  0
 66 67  1  0
 67 68  2  0
 68 69  1  0
 69 70  2  0
 70 71  1  0
 71 72  2  0
 72 73  1  0
 73 74  2  0
 74 75  1  0
 75 76  2  0
 76 77  1  0
 77 78  2  0
 78 79  1  0
 79 80  2  0
 80 81  1  0
 81 82  2  0
 82 83  1  0
 83 84  2  0
 84  2  1  0
 72 68  1  0
 78 73  1  0
 84 79  1  0
M  END
>  <Title>  (916) 
idABHHgen13

$$$$

     RDKit          2D

 85 86  0  0  0  0  0  0  0  0999 V2000
   -2.4217    0.0729    0.0000 C   0  0  0  0  0  0  0  0  0  0  0  0
   -2.2454   -1.4167    0.0000 C   0  0  0  0  0  0  0  0  0  0  0  0
   -3.7269   -1.6514    0.0000 C   0  0  0  0  0  0  0  0  0  0  0  0
   -5.1855   -2.0015    0.0000 C   0  0  0  0  0  0  0  0  0  0  0  0
   -6.6120   -2.4651    0.0000 C   0  0  0  0  0  0  0  0  0  0  0  0
   -7.9979   -3.0391    0.0000 C   0  0  0  0  0  0  0  0  0  0  0  0
   -9.3344   -3.7201    0.0000 C   0  0  0  0  0  0  0  0  0  0  0  0
  -10.6133   -4.5038    0.0000 C   0  0  0  0  0  0  0  0  0  0  0  0
  -11.8269   -5.3855    0.0000 C   0  0  0  0  0  0  0  0  0  0  0  0
  -12.9675   -6.3597    0.0000 C   0  0  0  0  0  0  0  0  0  0  0  0
  -14.0281   -7.4203    0.0000 C   0  0  0  0  0  0  0  0  0  0  0  0
  -15.0023   -8.5609    0.0000 C   0  0  0  0  0  0  0  0  0  0  0  0
  -15.8840   -9.7745    0.0000 C   0  0  0  0  0  0  0  0  0  0  0  0
  -16.6677  -11.0534    0.0000 C   0  0  0  0  0  0  0  0  0  0  0  0
  -17.3487  -12.3899    0.0000 C   0  0  0  0  0  0  0  0  0  0  0  0
  -17.9227  -13.7758    0.0000 C   0  0  0  0  0  0  0  0  0  0  0  0
  -18.3863  -15.2023    0.0000 C   0  0  0  0  0  0  0  0  0  0  0  0
  -18.7364  -16.6609    0.0000 C   0  0  0  0  0  0  0  0  0  0  0  0
  -18.9711  -18.1424    0.0000 C   0  0  0  0  0  0  0  0  0  0  0  0
  -19.0888  -19.6378    0.0000 C   0  0  0  0  0  0  0  0  0  0  0  0
  -19.0888  -21.1378    0.0000 C   0  0  0  0  0  0  0  0  0  0  0  0
  -18.9711  -22.6332    0.0000 C   0  0  0  0  0  0  0  0  0  0  0  0
  -18.7364  -24.1147    0.0000 C   0  0  0  0  0  0  0  0  0  0  0  0
  -18.3863  -25.5733    0.0000 C   0  0  0  0  0  0  0  0  0  0  0  0
  -17.9227  -26.9999    0.0000 C   0  0  0  0  0  0  0  0  0  0  0  0
  -17.3487  -28.3857    0.0000 C   0  0  0  0  0  0  0  0  0  0  0  0
  -16.6677  -29.7222    0.0000 C   0  0  0  0  0  0  0  0  0  0  0  0
  -15.8840  -31.0012    0.0000 C   0  0  0  0  0  0  0  0  0  0  0  0
  -15.0023  -32.2147    0.0000 C   0  0  0  0  0  0  0  0  0  0  0  0
  -14.0281  -33.3553    0.0000 C   0  0  0  0  0  0  0  0  0  0  0  0
  -12.9675  -34.4159    0.0000 C   0  0  0  0  0  0  0  0  0  0  0  0
  -11.8269  -35.3901    0.0000 C   0  0  0  0  0  0  0  0  0  0  0  0
  -10.6133  -36.2718    0.0000 C   0  0  0  0  0  0  0  0  0  0  0  0
   -9.3344  -37.0555    0.0000 C   0  0  0  0  0  0  0  0  0  0  0  0
   -7.9979  -37.7365    0.0000 C   0  0  0  0  0  0  0  0  0  0  0  0
   -6.6120  -38.3106    0.0000 C   0  0  0  0  0  0  0  0  0  0  0  0
   -5.1855  -38.7741    0.0000 C   0  0  0  0  0  0  0  0  0  0  0  0
   -3.7269  -39.1242    0.0000 C   0  0  0  0  0  0  0  0  0  0  0  0
   -2.2454  -39.3589    0.0000 C   0  0  0  0  0  0  0  0  0  0  0  0
   -0.7500  -39.4766    0.0000 C   0  0  0  0  0  0  0  0  0  0  0  0
    0.7500  -39.4766    0.0000 C   0  0  0  0  0  0  0  0  0  0  0  0
    2.2454  -39.3589    0.0000 C   0  0  0  0  0  0  0  0  0  0  0  0
    3.7269  -39.1242    0.0000 C   0  0  0  0  0  0  0  0  0  0  0  0
    5.1855  -38.7741    0.0000 C   0  0  0  0  0  0  0  0  0  0  0  0
    6.6120  -38.3106    0.0000 C   0  0  0  0  0  0  0  0  0  0  0  0
    7.9979  -37.7365    0.0000 C   0  0  0  0  0  0  0  0  0  0  0  0
    9.3344  -37.0555    0.0000 C   0  0  0  0  0  0  0  0  0  0  0  0
   10.6133  -36.2718    0.0000 C   0  0  0  0  0  0  0  0  0  0  0  0
   11.8269  -35.3901    0.0000 C   0  0  0  0  0  0  0  0  0  0  0  0
   12.9675  -34.4159    0.0000 C   0  0  0  0  0  0  0  0  0  0  0  0
   14.0281  -33.3553    0.0000 C   0  0  0  0  0  0  0  0  0  0  0  0
   15.0023  -32.2147    0.0000 C   0  0  0  0  0  0  0  0  0  0  0  0
   15.8840  -31.0012    0.0000 C   0  0  0  0  0  0  0  0  0  0  0  0
   16.6677  -29.7222    0.0000 C   0  0  0  0  0  0  0  0  0  0  0  0
   17.3487  -28.3857    0.0000 C   0  0  0  0  0  0  0  0  0  0  0  0
   17.9227  -26.9999    0.0000 C   0  0  0  0  0  0  0  0  0  0  0  0
   18.3863  -25.5733    0.0000 C   0  0  0  0  0  0  0  0  0  0  0  0
   18.7364  -24.1147    0.0000 C   0  0  0  0  0  0  0  0  0  0  0  0
   18.9711  -22.6332    0.0000 C   0  0  0  0  0  0  0  0  0  0  0  0
   19.0888  -21.1378    0.0000 C   0  0  0  0  0  0  0  0  0  0  0  0
   19.0888  -19.6378    0.0000 C   0  0  0  0  0  0  0  0  0  0  0  0
   18.9711  -18.1424    0.0000 C   0  0  0  0  0  0  0  0  0  0  0  0
   18.7364  -16.6609    0.0000 C   0  0  0  0  0  0  0  0  0  0  0  0
   18.3863  -15.2023    0.0000 C   0  0  0  0  0  0  0  0  0  0  0  0
   17.9227  -13.7758    0.0000 C   0  0  0  0  0  0  0  0  0  0  0  0
   17.3487  -12.3899    0.0000 C   0  0  0  0  0  0  0  0  0  0  0  0
   16.6677  -11.0534    0.0000 C   0  0  0  0  0  0  0  0  0  0  0  0
   15.8840   -9.7745    0.0000 C   0  0  0  0  0  0  0  0  0  0  0  0
   15.0023   -8.5609    0.0000 C   0  0  0  0  0  0  0  0  0  0  0  0
   14.0281   -7.4203    0.0000 C   0  0  0  0  0  0  0  0  0  0  0  0
   12.9675   -6.3597    0.0000 C   0  0  0  0  0  0  0  0  0  0  0  0
   11.8269   -5.3855    0.0000 C   0  0  0  0  0  0  0  0  0  0  0  0
   10.6133   -4.5038    0.0000 C   0  0  0  0  0  0  0  0  0  0  0  0
    9.3344   -3.7201    0.0000 C   0  0  0  0  0  0  0  0  0  0  0  0
    7.9979   -3.0391    0.0000 C   0  0  0  0  0  0  0  0  0  0  0  0
    6.6120   -2.4651    0.0000 C   0  0  0  0  0  0  0  0  0  0  0  0
    5.1855   -2.0015    0.0000 C   0  0  0  0  0  0  0  0  0  0  0  0
    3.7269   -1.6514    0.0000 C   0  0  0  0  0  0  0  0  0  0  0  0
    2.2454   -1.4167    0.0000 C   0  0  0  0  0  0  0  0  0  0  0  0
    0.7500   -1.2990    0.0000 C   0  0  0  0  0  0  0  0  0  0  0  0
    1.5000    0.0000    0.0000 C   0  0  0  0  0  0  0  0  0  0  0  0
    0.7500    1.2990    0.0000 C   0  0  0  0  0  0  0  0  0  0  0  0
   -0.7500    1.2990    0.0000 C   0  0  0  0  0  0  0  0  0  0  0  0
   -1.5000    0.0000    0.0000 C   0  0  0  0  0  0  0  0  0  0  0  0
   -0.7500   -1.2990    0.0000 C   0  0  0  0  0  0  0  0  0  0  0  0
  1  2  1  0
  2  3  1  0
  3  4  1  0
  4  5  1  0
  5  6  1  0
  6  7  1  0
  7  8  1  0
  8  9  1  0
  9 10  1  0
 10 11  1  0
 11 12  1  0
 12 13  1  0
 13 14  1  0
 14 15  1  0
 15 16  1  0
 16 17  1  0
 17 18  1  0
 18 19  1  0
 19 20  1  0
 20 21  1  0
 21 22  1  0
 22 23  1  0
 23 24  1  0
 24 25  1  0
 25 26  1  0
 26 27  1  0
 27 28  1  0
 28 29  1  0
 29 30  1  0
 30 31  1  0
 31 32  1  0
 32 33  1  0
 33 34  1  0
 34 35  1  0
 35 36  1  0
 36 37  1  0
 37 38  1  0
 38 39  1  0
 39 40  1  0
 40 41  1  0
 41 42  1  0
 42 43  1  0
 43 44  1  0
 44 45  1  0
 45 46  1  0
 46 47  1  0
 47 48  1  0
 48 49  1  0
 49 50  1  0
 50 51  1  0
 51 52  1  0
 52 53  1  0
 53 54  1  0
 54 55  1  0
 55 56  1  0
 56 57  1  0
 57 58  1  0
 58 59  1  0
 59 60  1  0
 60 61  1  0
 61 62  1  0
 62 63  1  0
 63 64  1  0
 64 65  1  0
 65 66  1  0
 66 67  1  0
 67 68  1  0
 68 69  1  0
 69 70  1  0
 70 71  1  0
 71 72  1  0
 72 73  1  0
 73 74  1  0
 74 75  1  0
 75 76  1  0
 76 77  1  0
 77 78  1  0
 78 79  1  0
 79 80  1  0
 80 81  2  0
 81 82  1  0
 82 83  2  0
 83 84  1  0
 84 85  2  0
 85  2  1  0
 85 80  1  0
M  END
>  <Title>  (917) 
idABHIgen13

$$$$

     RDKit          2D

 39 43  0  0  0  0  0  0  0  0999 V2000
   -5.7723   -2.1248    0.0000 C   0  0  0  0  0  0  0  0  0  0  0  0
   -4.3865   -2.6988    0.0000 C   0  0  0  0  0  0  0  0  0  0  0  0
   -3.1965   -1.7857    0.0000 C   0  0  0  0  0  0  0  0  0  0  0  0
   -1.8107   -2.3597    0.0000 N   0  0  0  0  0  0  0  0  0  0  0  0
   -1.8107   -3.8597    0.0000 C   0  0  0  0  0  0  0  0  0  0  0  0
   -0.7500   -4.9204    0.0000 C   0  0  0  0  0  0  0  0  0  0  0  0
    0.7500   -4.9204    0.0000 C   0  0  0  0  0  0  0  0  0  0  0  0
    1.3240   -6.3062    0.0000 C   0  0  0  0  0  0  0  0  0  0  0  0
    2.8112   -6.5020    0.0000 O   0  0  0  0  0  0  0  0  0  0  0  0
    0.4109   -7.4962    0.0000 N   0  0  0  0  0  0  0  0  0  0  0  0
    0.9849   -8.8820    0.0000 C   0  0  0  0  0  0  0  0  0  0  0  0
    2.4435   -9.2322    0.0000 N   0  0  0  0  0  0  0  0  0  0  0  0
    2.5612  -10.7276    0.0000 N   0  0  0  0  0  0  0  0  0  0  0  0
    1.1753  -11.3016    0.0000 N   0  0  0  0  0  0  0  0  0  0  0  0
    0.2012  -10.1610    0.0000 N   0  0  0  0  0  0  0  0  0  0  0  0
   -1.2942  -10.2787    0.0000 N   0  0  0  0  0  0  0  0  0  0  0  0
   -2.0780  -11.5576    0.0000 C   0  0  0  0  0  0  0  0  0  0  0  0
   -3.5365  -11.2075    0.0000 C   0  0  0  0  0  0  0  0  0  0  0  0
   -3.6542   -9.7121    0.0000 C   0  0  0  0  0  0  0  0  0  0  0  0
   -4.9332   -8.9283    0.0000 C   0  0  0  0  0  0  0  0  0  0  0  0
   -6.2514   -9.6441    0.0000 O   0  0  0  0  0  0  0  0  0  0  0  0
   -4.8939   -7.4289    0.0000 N   0  0  0  0  0  0  0  0  0  0  0  0
   -6.1729   -6.6451    0.0000 C   0  0  0  0  0  0  0  0  0  0  0  0
   -6.1336   -5.1456    0.0000 N   0  0  0  0  0  0  0  0  0  0  0  0
   -7.4126   -4.3619    0.0000 N   0  0  0  0  0  0  0  0  0  0  0  0
   -8.7308   -5.0776    0.0000 N   0  0  0  0  0  0  0  0  0  0  0  0
   -8.7700   -6.5771    0.0000 N   0  0  0  0  0  0  0  0  0  0  0  0
   -7.4911   -7.3608    0.0000 N   0  0  0  0  0  0  0  0  0  0  0  0
   -2.2684   -9.1381    0.0000 C   0  0  0  0  0  0  0  0  0  0  0  0
   -1.9182   -7.6795    0.0000 O   0  0  0  0  0  0  0  0  0  0  0  0
    1.8107   -3.8597    0.0000 C   0  0  0  0  0  0  0  0  0  0  0  0
    3.1965   -4.4337    0.0000 O   0  0  0  0  0  0  0  0  0  0  0  0
    1.8107   -2.3597    0.0000 O   0  0  0  0  0  0  0  0  0  0  0  0
    0.7500   -1.2990    0.0000 C   0  0  0  0  0  0  0  0  0  0  0  0
    1.5000    0.0000    0.0000 C   0  0  0  0  0  0  0  0  0  0  0  0
    0.7500    1.2990    0.0000 C   0  0  0  0  0  0  0  0  0  0  0  0
   -0.7500    1.2990    0.0000 C   0  0  0  0  0  0  0  0  0  0  0  0
   -1.5000    0.0000    0.0000 C   0  0  0  0  0  0  0  0  0  0  0  0
   -0.7500   -1.2990    0.0000 C   0  0  0  0  0  0  0  0  0  0  0  0
  1  2  1  0
  2  3  1  0
  3  4  1  0
  4  5  1  0
  5  6  1  0
  6  7  2  0
  7  8  1  0
  8  9  2  0
  8 10  1  0
 10 11  1  0
 11 12  2  0
 12 13  1  0
 13 14  2  0
 14 15  1  0
 15 16  1  0
 16 17  1  0
 17 18  1  0
 18 19  1  0
 19 20  1  0
 20 21  2  0
 20 22  1  0
 22 23  1  0
 23 24  2  0
 24 25  1  0
 25 26  2  0
 26 27  1  0
 27 28  2  0
 19 29  1  0
 29 30  2  0
  7 31  1  0
 31 32  2  0
 31 33  1  0
 33 34  1  0
 34 35  2  0
 35 36  1  0
 36 37  2  0
 37 38  1  0
 38 39  2  0
 39  4  1  0
 15 11  1  0
 29 16  1  0
 39 34  1  0
 28 23  1  0
M  END
>  <Title>  (918) 
idABHJgen13

$$$$

     RDKit          2D

 47 53  0  0  0  0  0  0  0  0999 V2000
   -0.0000   -8.0154    0.0000 C   0  0  0  0  0  0  0  0  0  0  0  0
   -0.0000   -6.5154    0.0000 C   0  0  0  0  0  0  0  0  0  0  0  0
    1.4392   -6.0928    0.0000 C   0  0  0  0  0  0  0  0  0  0  0  0
    2.4215   -4.9592    0.0000 C   0  0  0  0  0  0  0  0  0  0  0  0
    2.6350   -3.4744    0.0000 C   0  0  0  0  0  0  0  0  0  0  0  0
    2.0119   -2.1100    0.0000 C   0  0  0  0  0  0  0  0  0  0  0  0
    3.1455   -1.1277    0.0000 C   0  0  0  0  0  0  0  0  0  0  0  0
    2.8616    0.3452    0.0000 O   0  0  0  0  0  0  0  0  0  0  0  0
    4.5630   -1.6183    0.0000 N   0  0  0  0  0  0  0  0  0  0  0  0
    5.6966   -0.6360    0.0000 C   0  0  0  0  0  0  0  0  0  0  0  0
    5.5683    0.8585    0.0000 N   0  0  0  0  0  0  0  0  0  0  0  0
    6.9500    1.4424    0.0000 N   0  0  0  0  0  0  0  0  0  0  0  0
    7.9322    0.3088    0.0000 N   0  0  0  0  0  0  0  0  0  0  0  0
    7.1576   -0.9758    0.0000 N   0  0  0  0  0  0  0  0  0  0  0  0
    7.7416   -2.3574    0.0000 N   0  0  0  0  0  0  0  0  0  0  0  0
    9.2026   -2.6972    0.0000 C   0  0  0  0  0  0  0  0  0  0  0  0
    9.3309   -4.1917    0.0000 C   0  0  0  0  0  0  0  0  0  0  0  0
    7.9492   -4.7756    0.0000 N   0  0  0  0  0  0  0  0  0  0  0  0
    7.6095   -6.2366    0.0000 C   0  0  0  0  0  0  0  0  0  0  0  0
    8.7049   -7.2614    0.0000 O   0  0  0  0  0  0  0  0  0  0  0  0
    6.1744   -6.6729    0.0000 N   0  0  0  0  0  0  0  0  0  0  0  0
    5.8346   -8.1339    0.0000 C   0  0  0  0  0  0  0  0  0  0  0  0
    4.3995   -8.5702    0.0000 N   0  0  0  0  0  0  0  0  0  0  0  0
    4.0597  -10.0312    0.0000 N   0  0  0  0  0  0  0  0  0  0  0  0
    5.1551  -11.0560    0.0000 N   0  0  0  0  0  0  0  0  0  0  0  0
    6.5903  -10.6197    0.0000 N   0  0  0  0  0  0  0  0  0  0  0  0
    6.9300   -9.1587    0.0000 N   0  0  0  0  0  0  0  0  0  0  0  0
    6.9670   -3.6420    0.0000 C   0  0  0  0  0  0  0  0  0  0  0  0
    5.4725   -3.7703    0.0000 O   0  0  0  0  0  0  0  0  0  0  0  0
    0.7500   -1.2990    0.0000 C   0  0  0  0  0  0  0  0  0  0  0  0
    1.5000    0.0000    0.0000 C   0  0  0  0  0  0  0  0  0  0  0  0
    0.7500    1.2990    0.0000 C   0  0  0  0  0  0  0  0  0  0  0  0
   -0.7500    1.2990    0.0000 C   0  0  0  0  0  0  0  0  0  0  0  0
   -1.5000    0.0000    0.0000 C   0  0  0  0  0  0  0  0  0  0  0  0
   -0.7500   -1.2990    0.0000 C   0  0  0  0  0  0  0  0  0  0  0  0
   -2.0119   -2.1100    0.0000 C   0  0  0  0  0  0  0  0  0  0  0  0
   -2.8820   -0.8881    0.0000 C   0  0  0  0  0  0  0  0  0  0  0  0
   -4.3752   -1.0307    0.0000 C   0  0  0  0  0  0  0  0  0  0  0  0
   -4.9983   -2.3952    0.0000 C   0  0  0  0  0  0  0  0  0  0  0  0
   -4.1282   -3.6170    0.0000 C   0  0  0  0  0  0  0  0  0  0  0  0
   -2.6350   -3.4744    0.0000 C   0  0  0  0  0  0  0  0  0  0  0  0
   -2.4215   -4.9592    0.0000 C   0  0  0  0  0  0  0  0  0  0  0  0
   -3.8944   -5.2431    0.0000 C   0  0  0  0  0  0  0  0  0  0  0  0
   -4.3850   -6.6606    0.0000 C   0  0  0  0  0  0  0  0  0  0  0  0
   -3.4027   -7.7942    0.0000 C   0  0  0  0  0  0  0  0  0  0  0  0
   -1.9298   -7.5103    0.0000 C   0  0  0  0  0  0  0  0  0  0  0  0
   -1.4392   -6.0928    0.0000 C   0  0  0  0  0  0  0  0  0  0  0  0
  1  2  1  0
  2  3  2  0
  3  4  1  0
  4  5  2  0
  5  6  1  0
  6  7  1  0
  7  8  2  0
  7  9  1  0
  9 10  1  0
 10 11  2  0
 11 12  1  0
 12 13  2  0
 13 14  1  0
 14 15  1  0
 15 16  1  0
 16 17  1  0
 17 18  1  0
 18 19  1  0
 19 20  2  0
 19 21  1  0
 21 22  1  0
 22 23  2  0
 23 24  1  0
 24 25  2  0
 25 26  1  0
 26 27  2  0
 18 28  1  0
 28 29  2  0
  6 30  1  0
 30 31  2  0
 31 32  1  0
 32 33  2  0
 33 34  1  0
 34 35  2  0
 35 36  1  0
 36 37  2  0
 37 38  1  0
 38 39  2  0
 39 40  1  0
 40 41  2  0
 41 42  1  0
 42 43  2  0
 43 44  1  0
 44 45  2  0
 45 46  1  0
 46 47  2  0
 47  2  1  0
 14 10  1  0
 28 15  1  0
 35 30  1  0
 41 36  1  0
 47 42  1  0
 27 22  1  0
M  END
>  <Title>  (919) 
idABHKgen13

$$$$

     RDKit          2D

  4  3  0  0  0  0  0  0  0  0999 V2000
    0.0000    0.0000    0.0000 C   0  0  0  0  0  0  0  0  0  0  0  0
    1.2990    0.7500    0.0000 C   0  0  0  0  0  0  0  0  0  0  0  0
    2.5981   -0.0000    0.0000 C   0  0  0  0  0  0  0  0  0  0  0  0
    3.8971    0.7500    0.0000 C   0  0  0  0  0  0  0  0  0  0  0  0
  1  2  2  0
  2  3  1  0
  3  4  1  0
M  END
>  <Title>  (920) 
idABHLgen13

$$$$

     RDKit          2D

 19 21  0  0  0  0  0  0  0  0999 V2000
   -3.0000   -2.5981    0.0000 C   0  0  0  0  0  0  0  0  0  0  0  0
   -1.5000   -2.5981    0.0000 C   0  0  0  0  0  0  0  0  0  0  0  0
   -0.7500   -3.8971    0.0000 N   0  0  0  0  0  0  0  0  0  0  0  0
    0.7500   -3.8971    0.0000 C   0  0  0  0  0  0  0  0  0  0  0  0
    1.5000   -5.1962    0.0000 O   0  0  0  0  0  0  0  0  0  0  0  0
    1.5000   -2.5981    0.0000 N   0  0  0  0  0  0  0  0  0  0  0  0
    3.0000   -2.5981    0.0000 C   0  0  0  0  0  0  0  0  0  0  0  0
    3.7500   -3.8971    0.0000 C   0  0  0  0  0  0  0  0  0  0  0  0
    3.0000   -5.1962    0.0000 C   0  0  0  0  0  0  0  0  0  0  0  0
    3.7500   -6.4952    0.0000 C   0  0  0  0  0  0  0  0  0  0  0  0
    5.2500   -6.4952    0.0000 C   0  0  0  0  0  0  0  0  0  0  0  0
    6.0000   -5.1962    0.0000 C   0  0  0  0  0  0  0  0  0  0  0  0
    5.2500   -3.8971    0.0000 C   0  0  0  0  0  0  0  0  0  0  0  0
    0.7500   -1.2990    0.0000 C   0  0  0  0  0  0  0  0  0  0  0  0
    1.5000    0.0000    0.0000 C   0  0  0  0  0  0  0  0  0  0  0  0
    0.7500    1.2990    0.0000 C   0  0  0  0  0  0  0  0  0  0  0  0
   -0.7500    1.2990    0.0000 C   0  0  0  0  0  0  0  0  0  0  0  0
   -1.5000    0.0000    0.0000 C   0  0  0  0  0  0  0  0  0  0  0  0
   -0.7500   -1.2990    0.0000 C   0  0  0  0  0  0  0  0  0  0  0  0
  1  2  1  0
  2  3  1  0
  3  4  1  0
  4  5  2  0
  4  6  1  0
  6  7  1  0
  7  8  1  0
  8  9  2  0
  9 10  1  0
 10 11  2  0
 11 12  1  0
 12 13  2  0
  6 14  1  0
 14 15  2  0
 15 16  1  0
 16 17  2  0
 17 18  1  0
 18 19  2  0
 19  2  1  0
 13  8  1  0
 19 14  1  0
M  END
>  <Title>  (921) 
idABHMgen13

$$$$

     RDKit          2D

 56 57  0  0  0  0  0  0  0  0999 V2000
   70.2760   -0.0000    0.0000 C   0  0  0  0  0  0  0  0  0  0  0  0
   68.7760   -0.0000    0.0000 C   0  0  0  0  0  0  0  0  0  0  0  0
   67.2760   -0.0000    0.0000 C   0  0  0  0  0  0  0  0  0  0  0  0
   65.7760   -0.0000    0.0000 C   0  0  0  0  0  0  0  0  0  0  0  0
   64.2760   -0.0000    0.0000 C   0  0  0  0  0  0  0  0  0  0  0  0
   62.7760   -0.0000    0.0000 C   0  0  0  0  0  0  0  0  0  0  0  0
   61.2760   -0.0000    0.0000 C   0  0  0  0  0  0  0  0  0  0  0  0
   59.7760   -0.0000    0.0000 C   0  0  0  0  0  0  0  0  0  0  0  0
   58.2760   -0.0000    0.0000 C   0  0  0  0  0  0  0  0  0  0  0  0
   56.7760   -0.0000    0.0000 C   0  0  0  0  0  0  0  0  0  0  0  0
   55.2760   -0.0000    0.0000 C   0  0  0  0  0  0  0  0  0  0  0  0
   53.7760   -0.0000    0.0000 C   0  0  0  0  0  0  0  0  0  0  0  0
   52.2760   -0.0000    0.0000 C   0  0  0  0  0  0  0  0  0  0  0  0
   50.7760   -0.0000    0.0000 C   0  0  0  0  0  0  0  0  0  0  0  0
   49.2760   -0.0000    0.0000 C   0  0  0  0  0  0  0  0  0  0  0  0
   47.7760   -0.0000    0.0000 C   0  0  0  0  0  0  0  0  0  0  0  0
   46.2760   -0.0000    0.0000 C   0  0  0  0  0  0  0  0  0  0  0  0
   44.7760   -0.0000    0.0000 C   0  0  0  0  0  0  0  0  0  0  0  0
   43.2760   -0.0000    0.0000 C   0  0  0  0  0  0  0  0  0  0  0  0
   41.7760   -0.0000    0.0000 C   0  0  0  0  0  0  0  0  0  0  0  0
   40.2760   -0.0000    0.0000 C   0  0  0  0  0  0  0  0  0  0  0  0
   38.7760   -0.0000    0.0000 C   0  0  0  0  0  0  0  0  0  0  0  0
   37.2760   -0.0000    0.0000 C   0  0  0  0  0  0  0  0  0  0  0  0
   35.7760   -0.0000    0.0000 C   0  0  0  0  0  0  0  0  0  0  0  0
   34.2760   -0.0000    0.0000 C   0  0  0  0  0  0  0  0  0  0  0  0
   32.7760   -0.0000    0.0000 C   0  0  0  0  0  0  0  0  0  0  0  0
   31.2760   -0.0000    0.0000 C   0  0  0  0  0  0  0  0  0  0  0  0
   29.7760   -0.0000    0.0000 C   0  0  0  0  0  0  0  0  0  0  0  0
   28.2760   -0.0000    0.0000 C   0  0  0  0  0  0  0  0  0  0  0  0
   26.7760   -0.0000    0.0000 C   0  0  0  0  0  0  0  0  0  0  0  0
   25.2760   -0.0000    0.0000 C   0  0  0  0  0  0  0  0  0  0  0  0
   23.7760   -0.0000    0.0000 C   0  0  0  0  0  0  0  0  0  0  0  0
   22.2760   -0.0000    0.0000 C   0  0  0  0  0  0  0  0  0  0  0  0
   20.7760   -0.0000    0.0000 C   0  0  0  0  0  0  0  0  0  0  0  0
   19.2760   -0.0000    0.0000 C   0  0  0  0  0  0  0  0  0  0  0  0
   17.7760   -0.0000    0.0000 C   0  0  0  0  0  0  0  0  0  0  0  0
   16.2760   -0.0000    0.0000 C   0  0  0  0  0  0  0  0  0  0  0  0
   14.7760   -0.0000    0.0000 C   0  0  0  0  0  0  0  0  0  0  0  0
   13.2760   -0.0000    0.0000 C   0  0  0  0  0  0  0  0  0  0  0  0
   11.7760   -0.0000    0.0000 C   0  0  0  0  0  0  0  0  0  0  0  0
   10.2760   -0.0000    0.0000 C   0  0  0  0  0  0  0  0  0  0  0  0
    8.7760   -0.0000    0.0000 C   0  0  0  0  0  0  0  0  0  0  0  0
    7.2760   -0.0000    0.0000 C   0  0  0  0  0  0  0  0  0  0  0  0
    5.7760   -0.0000    0.0000 C   0  0  0  0  0  0  0  0  0  0  0  0
    4.2760   -0.0000    0.0000 C   0  0  0  0  0  0  0  0  0  0  0  0
    2.7760    0.0000    0.0000 C   0  0  0  0  0  0  0  0  0  0  0  0
    1.2760    0.0000    0.0000 C   0  0  0  0  0  0  0  0  0  0  0  0
    0.3943    1.2135    0.0000 N   0  0  0  0  0  0  0  0  0  0  0  0
   -1.0323    0.7500    0.0000 N   0  0  0  0  0  0  0  0  0  0  0  0
   -1.0323   -0.7500    0.0000 N   0  0  0  0  0  0  0  0  0  0  0  0
    0.3943   -1.2135    0.0000 N   0  0  0  0  0  0  0  0  0  0  0  0
    0.8578   -2.6401    0.0000 C   0  0  0  0  0  0  0  0  0  0  0  0
    2.2844   -3.1036    0.0000 C   0  0  0  0  0  0  0  0  0  0  0  0
    2.2844   -4.6036    0.0000 C   0  0  0  0  0  0  0  0  0  0  0  0
    0.8578   -5.0672    0.0000 C   0  0  0  0  0  0  0  0  0  0  0  0
   -0.0239   -3.8536    0.0000 C   0  0  0  0  0  0  0  0  0  0  0  0
  1  2  3  0
  2  3  1  0
  3  4  3  0
  4  5  1  0
  5  6  3  0
  6  7  1  0
  7  8  3  0
  8  9  1  0
  9 10  3  0
 10 11  1  0
 11 12  3  0
 12 13  1  0
 13 14  3  0
 14 15  1  0
 15 16  3  0
 16 17  1  0
 17 18  3  0
 18 19  1  0
 19 20  3  0
 20 21  1  0
 21 22  3  0
 22 23  1  0
 23 24  3  0
 24 25  1  0
 25 26  3  0
 26 27  1  0
 27 28  3  0
 28 29  1  0
 29 30  3  0
 30 31  1  0
 31 32  3  0
 32 33  1  0
 33 34  3  0
 34 35  1  0
 35 36  3  0
 36 37  1  0
 37 38  3  0
 38 39  1  0
 39 40  3  0
 40 41  1  0
 41 42  3  0
 42 43  1  0
 43 44  3  0
 44 45  1  0
 45 46  3  0
 46 47  1  0
 47 48  2  0
 48 49  1  0
 49 50  2  0
 50 51  1  0
 51 52  1  0
 52 53  2  0
 53 54  1  0
 54 55  1  0
 55 56  1  0
 51 47  1  0
 56 52  1  0
M  END
>  <Title>  (922) 
idABHNgen13

$$$$

     RDKit          2D

 56 58  0  0  0  0  0  0  0  0999 V2000
   -2.5298   -0.0236    0.0000 C   0  0  0  0  0  0  0  0  0  0  0  0
   -2.2372   -1.4948    0.0000 C   0  0  0  0  0  0  0  0  0  0  0  0
   -3.6861   -1.8831    0.0000 C   0  0  0  0  0  0  0  0  0  0  0  0
   -5.0719   -2.4571    0.0000 C   0  0  0  0  0  0  0  0  0  0  0  0
   -6.3709   -3.2071    0.0000 C   0  0  0  0  0  0  0  0  0  0  0  0
   -7.5609   -4.1202    0.0000 C   0  0  0  0  0  0  0  0  0  0  0  0
   -8.6216   -5.1809    0.0000 C   0  0  0  0  0  0  0  0  0  0  0  0
   -9.5347   -6.3709    0.0000 C   0  0  0  0  0  0  0  0  0  0  0  0
  -10.2847   -7.6700    0.0000 C   0  0  0  0  0  0  0  0  0  0  0  0
  -10.8588   -9.0558    0.0000 C   0  0  0  0  0  0  0  0  0  0  0  0
  -11.2470  -10.5047    0.0000 C   0  0  0  0  0  0  0  0  0  0  0  0
  -11.4428  -11.9918    0.0000 C   0  0  0  0  0  0  0  0  0  0  0  0
  -11.4428  -13.4918    0.0000 C   0  0  0  0  0  0  0  0  0  0  0  0
  -11.2470  -14.9790    0.0000 C   0  0  0  0  0  0  0  0  0  0  0  0
  -10.8588  -16.4279    0.0000 C   0  0  0  0  0  0  0  0  0  0  0  0
  -10.2847  -17.8137    0.0000 C   0  0  0  0  0  0  0  0  0  0  0  0
   -9.5347  -19.1127    0.0000 C   0  0  0  0  0  0  0  0  0  0  0  0
   -8.6216  -20.3028    0.0000 C   0  0  0  0  0  0  0  0  0  0  0  0
   -7.5609  -21.3634    0.0000 C   0  0  0  0  0  0  0  0  0  0  0  0
   -6.3709  -22.2766    0.0000 C   0  0  0  0  0  0  0  0  0  0  0  0
   -5.0719  -23.0266    0.0000 C   0  0  0  0  0  0  0  0  0  0  0  0
   -3.6861  -23.6006    0.0000 C   0  0  0  0  0  0  0  0  0  0  0  0
   -2.2372  -23.9888    0.0000 C   0  0  0  0  0  0  0  0  0  0  0  0
   -0.7500  -24.1846    0.0000 C   0  0  0  0  0  0  0  0  0  0  0  0
    0.7500  -24.1846    0.0000 C   0  0  0  0  0  0  0  0  0  0  0  0
    2.2372  -23.9888    0.0000 C   0  0  0  0  0  0  0  0  0  0  0  0
    3.6861  -23.6006    0.0000 C   0  0  0  0  0  0  0  0  0  0  0  0
    5.0719  -23.0266    0.0000 C   0  0  0  0  0  0  0  0  0  0  0  0
    6.3709  -22.2766    0.0000 C   0  0  0  0  0  0  0  0  0  0  0  0
    7.5609  -21.3634    0.0000 C   0  0  0  0  0  0  0  0  0  0  0  0
    8.6216  -20.3028    0.0000 C   0  0  0  0  0  0  0  0  0  0  0  0
    9.5347  -19.1127    0.0000 C   0  0  0  0  0  0  0  0  0  0  0  0
   10.2847  -17.8137    0.0000 C   0  0  0  0  0  0  0  0  0  0  0  0
   10.8588  -16.4279    0.0000 C   0  0  0  0  0  0  0  0  0  0  0  0
   11.2470  -14.9790    0.0000 C   0  0  0  0  0  0  0  0  0  0  0  0
   11.4428  -13.4918    0.0000 C   0  0  0  0  0  0  0  0  0  0  0  0
   11.4428  -11.9918    0.0000 C   0  0  0  0  0  0  0  0  0  0  0  0
   11.2470  -10.5047    0.0000 C   0  0  0  0  0  0  0  0  0  0  0  0
   10.8588   -9.0558    0.0000 C   0  0  0  0  0  0  0  0  0  0  0  0
   10.2847   -7.6700    0.0000 C   0  0  0  0  0  0  0  0  0  0  0  0
    9.5347   -6.3709    0.0000 C   0  0  0  0  0  0  0  0  0  0  0  0
    8.6216   -5.1809    0.0000 C   0  0  0  0  0  0  0  0  0  0  0  0
    7.5609   -4.1202    0.0000 C   0  0  0  0  0  0  0  0  0  0  0  0
    6.3709   -3.2071    0.0000 C   0  0  0  0  0  0  0  0  0  0  0  0
    5.0719   -2.4571    0.0000 C   0  0  0  0  0  0  0  0  0  0  0  0
    3.6861   -1.8831    0.0000 C   0  0  0  0  0  0  0  0  0  0  0  0
    3.7646   -3.3810    0.0000 C   0  0  0  0  0  0  0  0  0  0  0  0
    2.3642   -3.9186    0.0000 C   0  0  0  0  0  0  0  0  0  0  0  0
    1.4202   -2.7528    0.0000 C   0  0  0  0  0  0  0  0  0  0  0  0
    2.2372   -1.4948    0.0000 C   0  0  0  0  0  0  0  0  0  0  0  0
    0.7500   -1.2990    0.0000 C   0  0  0  0  0  0  0  0  0  0  0  0
    1.5000    0.0000    0.0000 C   0  0  0  0  0  0  0  0  0  0  0  0
    0.7500    1.2990    0.0000 C   0  0  0  0  0  0  0  0  0  0  0  0
   -0.7500    1.2990    0.0000 C   0  0  0  0  0  0  0  0  0  0  0  0
   -1.5000    0.0000    0.0000 C   0  0  0  0  0  0  0  0  0  0  0  0
   -0.7500   -1.2990    0.0000 C   0  0  0  0  0  0  0  0  0  0  0  0
  1  2  1  0
  2  3  1  0
  3  4  1  0
  4  5  1  0
  5  6  1  0
  6  7  1  0
  7  8  1  0
  8  9  1  0
  9 10  1  0
 10 11  1  0
 11 12  1  0
 12 13  1  0
 13 14  1  0
 14 15  1  0
 15 16  1  0
 16 17  1  0
 17 18  1  0
 18 19  1  0
 19 20  1  0
 20 21  1  0
 21 22  1  0
 22 23  1  0
 23 24  1  0
 24 25  1  0
 25 26  1  0
 26 27  1  0
 27 28  1  0
 28 29  1  0
 29 30  1  0
 30 31  1  0
 31 32  1  0
 32 33  1  0
 33 34  1  0
 34 35  1  0
 35 36  1  0
 36 37  1  0
 37 38  1  0
 38 39  1  0
 39 40  1  0
 40 41  1  0
 41 42  2  0
 42 43  1  0
 43 44  2  0
 44 45  1  0
 45 46  2  0
 46 47  1  0
 47 48  2  0
 48 49  1  0
 49 50  2  0
 50 51  1  0
 51 52  2  0
 52 53  1  0
 53 54  2  0
 54 55  1  0
 55 56  2  0
 56  2  1  0
 50 46  1  0
 56 51  1  0
M  END
>  <Title>  (923) 
idABHOgen13

$$$$

     RDKit          2D

 43 49  0  0  0  0  0  0  0  0999 V2000
    2.6205   -1.2990    0.0000 C   0  0  0  0  0  0  0  0  0  0  0  0
    1.6852   -2.4718    0.0000 C   0  0  0  0  0  0  0  0  0  0  0  0
    3.0367   -3.1226    0.0000 C   0  0  0  0  0  0  0  0  0  0  0  0
    3.5074   -4.5468    0.0000 O   0  0  0  0  0  0  0  0  0  0  0  0
    4.2760   -2.2776    0.0000 N   0  0  0  0  0  0  0  0  0  0  0  0
    5.6275   -2.9285    0.0000 C   0  0  0  0  0  0  0  0  0  0  0  0
    5.8953   -4.4044    0.0000 N   0  0  0  0  0  0  0  0  0  0  0  0
    7.3818   -4.6057    0.0000 N   0  0  0  0  0  0  0  0  0  0  0  0
    8.0326   -3.2542    0.0000 N   0  0  0  0  0  0  0  0  0  0  0  0
    6.9484   -2.2177    0.0000 N   0  0  0  0  0  0  0  0  0  0  0  0
    7.1497   -0.7312    0.0000 C   0  0  0  0  0  0  0  0  0  0  0  0
    6.0656    0.3054    0.0000 C   0  0  0  0  0  0  0  0  0  0  0  0
    6.7164    1.6568    0.0000 C   0  0  0  0  0  0  0  0  0  0  0  0
    8.2028    1.4555    0.0000 C   0  0  0  0  0  0  0  0  0  0  0  0
    9.2394    2.5397    0.0000 C   0  0  0  0  0  0  0  0  0  0  0  0
   10.6966    2.1840    0.0000 O   0  0  0  0  0  0  0  0  0  0  0  0
    8.8188    3.9795    0.0000 N   0  0  0  0  0  0  0  0  0  0  0  0
    9.8553    5.0637    0.0000 C   0  0  0  0  0  0  0  0  0  0  0  0
   11.3126    4.7080    0.0000 N   0  0  0  0  0  0  0  0  0  0  0  0
   12.3492    5.7922    0.0000 N   0  0  0  0  0  0  0  0  0  0  0  0
   11.9285    7.2321    0.0000 N   0  0  0  0  0  0  0  0  0  0  0  0
   10.4713    7.5877    0.0000 N   0  0  0  0  0  0  0  0  0  0  0  0
    9.4347    6.5035    0.0000 N   0  0  0  0  0  0  0  0  0  0  0  0
    8.4706   -0.0204    0.0000 C   0  0  0  0  0  0  0  0  0  0  0  0
    9.8221   -0.6713    0.0000 O   0  0  0  0  0  0  0  0  0  0  0  0
    0.7500   -1.2990    0.0000 C   0  0  0  0  0  0  0  0  0  0  0  0
    1.5000    0.0000    0.0000 C   0  0  0  0  0  0  0  0  0  0  0  0
    0.7500    1.2990    0.0000 C   0  0  0  0  0  0  0  0  0  0  0  0
   -0.7500    1.2990    0.0000 C   0  0  0  0  0  0  0  0  0  0  0  0
   -1.5000   -0.0000    0.0000 C   0  0  0  0  0  0  0  0  0  0  0  0
   -0.7500   -1.2990    0.0000 C   0  0  0  0  0  0  0  0  0  0  0  0
   -1.6852   -2.4718    0.0000 C   0  0  0  0  0  0  0  0  0  0  0  0
   -3.1186   -2.0297    0.0000 C   0  0  0  0  0  0  0  0  0  0  0  0
   -4.2182   -3.0499    0.0000 C   0  0  0  0  0  0  0  0  0  0  0  0
   -3.8844   -4.5123    0.0000 C   0  0  0  0  0  0  0  0  0  0  0  0
   -2.4510   -4.9544    0.0000 C   0  0  0  0  0  0  0  0  0  0  0  0
   -1.3515   -3.9342    0.0000 C   0  0  0  0  0  0  0  0  0  0  0  0
   -0.0000   -4.5850    0.0000 C   0  0  0  0  0  0  0  0  0  0  0  0
   -0.1121   -6.0808    0.0000 C   0  0  0  0  0  0  0  0  0  0  0  0
    1.1273   -6.9258    0.0000 C   0  0  0  0  0  0  0  0  0  0  0  0
    2.4787   -6.2750    0.0000 C   0  0  0  0  0  0  0  0  0  0  0  0
    2.5908   -4.7792    0.0000 C   0  0  0  0  0  0  0  0  0  0  0  0
    1.3515   -3.9342    0.0000 C   0  0  0  0  0  0  0  0  0  0  0  0
  1  2  1  0
  2  3  1  0
  3  4  2  0
  3  5  1  0
  5  6  1  0
  6  7  2  0
  7  8  1  0
  8  9  2  0
  9 10  1  0
 10 11  1  0
 11 12  2  0
 12 13  1  0
 13 14  2  0
 14 15  1  0
 15 16  2  0
 15 17  1  0
 17 18  1  0
 18 19  2  0
 19 20  1  0
 20 21  2  0
 21 22  1  0
 22 23  2  0
 14 24  1  0
 24 25  2  0
  2 26  1  0
 26 27  2  0
 27 28  1  0
 28 29  2  0
 29 30  1  0
 30 31  2  0
 31 32  1  0
 32 33  2  0
 33 34  1  0
 34 35  2  0
 35 36  1  0
 36 37  2  0
 37 38  1  0
 38 39  2  0
 39 40  1  0
 40 41  2  0
 41 42  1  0
 42 43  2  0
 43  2  1  0
 10  6  1  0
 24 11  1  0
 31 26  1  0
 37 32  1  0
 43 38  1  0
 23 18  1  0
M  END
>  <Title>  (924) 
idABHPgen13

$$$$

     RDKit          2D

  8  7  0  0  0  0  0  0  0  0999 V2000
    0.0000    0.0000    0.0000 C   0  0  0  0  0  0  0  0  0  0  0  0
   -0.0000   -1.5000    0.0000 C   0  0  0  0  0  0  0  0  0  0  0  0
   -0.0000   -3.0000    0.0000 C   0  0  0  0  0  0  0  0  0  0  0  0
    1.2990   -3.7500    0.0000 C   0  0  0  0  0  0  0  0  0  0  0  0
    1.2990   -5.2500    0.0000 C   0  0  0  0  0  0  0  0  0  0  0  0
    2.5981   -6.0000    0.0000 C   0  0  0  0  0  0  0  0  0  0  0  0
    2.5981   -7.5000    0.0000 C   0  0  0  0  0  0  0  0  0  0  0  0
    3.8971   -5.2500    0.0000 C   0  0  0  0  0  0  0  0  0  0  0  0
  1  2  3  0
  2  3  1  0
  3  4  2  3
  4  5  1  0
  5  6  1  0
  6  7  1  0
  6  8  1  0
M  END
>  <Title>  (925) 
idABHQgen13

$$$$

     RDKit          2D

 26 25  0  0  0  0  0  0  0  0999 V2000
    0.0000    0.0000    0.0000 C   0  0  0  0  0  0  0  0  0  0  0  0
   -0.0000   -1.5000    0.0000 C   0  0  0  0  0  0  0  0  0  0  0  0
   -0.0000   -3.0000    0.0000 C   0  0  0  0  0  0  0  0  0  0  0  0
   -0.0000   -4.5000    0.0000 C   0  0  0  0  0  0  0  0  0  0  0  0
   -0.0000   -6.0000    0.0000 C   0  0  0  0  0  0  0  0  0  0  0  0
   -0.0000   -7.5000    0.0000 C   0  0  0  0  0  0  0  0  0  0  0  0
   -0.0000   -9.0000    0.0000 C   0  0  0  0  0  0  0  0  0  0  0  0
   -0.0000  -10.5000    0.0000 C   0  0  0  0  0  0  0  0  0  0  0  0
   -0.0000  -12.0000    0.0000 C   0  0  0  0  0  0  0  0  0  0  0  0
   -0.0000  -13.5000    0.0000 C   0  0  0  0  0  0  0  0  0  0  0  0
   -0.0000  -15.0000    0.0000 C   0  0  0  0  0  0  0  0  0  0  0  0
   -0.0000  -16.5000    0.0000 C   0  0  0  0  0  0  0  0  0  0  0  0
   -0.0000  -18.0000    0.0000 C   0  0  0  0  0  0  0  0  0  0  0  0
   -0.0000  -19.5000    0.0000 C   0  0  0  0  0  0  0  0  0  0  0  0
   -0.0000  -21.0000    0.0000 C   0  0  0  0  0  0  0  0  0  0  0  0
   -0.0000  -22.5000    0.0000 C   0  0  0  0  0  0  0  0  0  0  0  0
   -0.0000  -24.0000    0.0000 C   0  0  0  0  0  0  0  0  0  0  0  0
   -0.0000  -25.5000    0.0000 C   0  0  0  0  0  0  0  0  0  0  0  0
   -0.0000  -27.0000    0.0000 C   0  0  0  0  0  0  0  0  0  0  0  0
   -0.0000  -28.5000    0.0000 C   0  0  0  0  0  0  0  0  0  0  0  0
   -0.0000  -30.0000    0.0000 C   0  0  0  0  0  0  0  0  0  0  0  0
   -0.0000  -31.5000    0.0000 C   0  0  0  0  0  0  0  0  0  0  0  0
   -0.0000  -33.0000    0.0000 C   0  0  0  0  0  0  0  0  0  0  0  0
   -0.0000  -34.5000    0.0000 C   0  0  0  0  0  0  0  0  0  0  0  0
   -0.0000  -36.0000    0.0000 C   0  0  0  0  0  0  0  0  0  0  0  0
    1.2990  -36.7500    0.0000 C   0  0  0  0  0  0  0  0  0  0  0  0
  1  2  3  0
  2  3  1  0
  3  4  3  0
  4  5  1  0
  5  6  3  0
  6  7  1  0
  7  8  3  0
  8  9  1  0
  9 10  3  0
 10 11  1  0
 11 12  3  0
 12 13  1  0
 13 14  3  0
 14 15  1  0
 15 16  3  0
 16 17  1  0
 17 18  3  0
 18 19  1  0
 19 20  3  0
 20 21  1  0
 21 22  3  0
 22 23  1  0
 23 24  3  0
 24 25  1  0
 25 26  2  0
M  END
>  <Title>  (926) 
idABHRgen13

$$$$

     RDKit          2D

 44 49  0  0  0  0  0  0  0  0999 V2000
   -3.7860   -5.5823    0.0000 C   0  0  0  0  0  0  0  0  0  0  0  0
   -2.4215   -4.9592    0.0000 C   0  0  0  0  0  0  0  0  0  0  0  0
   -1.4392   -6.0928    0.0000 C   0  0  0  0  0  0  0  0  0  0  0  0
   -0.0000   -6.5154    0.0000 C   0  0  0  0  0  0  0  0  0  0  0  0
    1.4392   -6.0928    0.0000 N   0  0  0  0  0  0  0  0  0  0  0  0
    2.4215   -4.9592    0.0000 C   0  0  0  0  0  0  0  0  0  0  0  0
    3.7860   -5.5823    0.0000 C   0  0  0  0  0  0  0  0  0  0  0  0
    5.0078   -4.7122    0.0000 O   0  0  0  0  0  0  0  0  0  0  0  0
    3.9286   -7.0755    0.0000 N   0  0  0  0  0  0  0  0  0  0  0  0
    5.2930   -7.6986    0.0000 C   0  0  0  0  0  0  0  0  0  0  0  0
    6.5991   -6.9610    0.0000 N   0  0  0  0  0  0  0  0  0  0  0  0
    7.7042   -7.9753    0.0000 N   0  0  0  0  0  0  0  0  0  0  0  0
    7.0811   -9.3397    0.0000 N   0  0  0  0  0  0  0  0  0  0  0  0
    5.5909   -9.1688    0.0000 N   0  0  0  0  0  0  0  0  0  0  0  0
    4.5766  -10.2739    0.0000 N   0  0  0  0  0  0  0  0  0  0  0  0
    4.8745  -11.7440    0.0000 C   0  0  0  0  0  0  0  0  0  0  0  0
    3.5684  -12.4816    0.0000 C   0  0  0  0  0  0  0  0  0  0  0  0
    2.4633  -11.4673    0.0000 N   0  0  0  0  0  0  0  0  0  0  0  0
    0.9932  -11.7652    0.0000 C   0  0  0  0  0  0  0  0  0  0  0  0
    0.5161  -13.1873    0.0000 O   0  0  0  0  0  0  0  0  0  0  0  0
    0.0001  -10.6410    0.0000 N   0  0  0  0  0  0  0  0  0  0  0  0
   -1.4700  -10.9389    0.0000 C   0  0  0  0  0  0  0  0  0  0  0  0
   -2.4630   -9.8147    0.0000 N   0  0  0  0  0  0  0  0  0  0  0  0
   -3.9332  -10.1125    0.0000 N   0  0  0  0  0  0  0  0  0  0  0  0
   -4.4102  -11.5346    0.0000 N   0  0  0  0  0  0  0  0  0  0  0  0
   -3.4172  -12.6589    0.0000 N   0  0  0  0  0  0  0  0  0  0  0  0
   -1.9471  -12.3610    0.0000 N   0  0  0  0  0  0  0  0  0  0  0  0
    3.0864  -10.1029    0.0000 C   0  0  0  0  0  0  0  0  0  0  0  0
    2.3488   -8.7968    0.0000 O   0  0  0  0  0  0  0  0  0  0  0  0
    2.6350   -3.4744    0.0000 C   0  0  0  0  0  0  0  0  0  0  0  0
    4.1197   -3.2610    0.0000 O   0  0  0  0  0  0  0  0  0  0  0  0
    2.0119   -2.1100    0.0000 O   0  0  0  0  0  0  0  0  0  0  0  0
    0.7500   -1.2990    0.0000 C   0  0  0  0  0  0  0  0  0  0  0  0
    1.5000    0.0000    0.0000 C   0  0  0  0  0  0  0  0  0  0  0  0
    0.7500    1.2990    0.0000 C   0  0  0  0  0  0  0  0  0  0  0  0
   -0.7500    1.2990    0.0000 C   0  0  0  0  0  0  0  0  0  0  0  0
   -1.5000    0.0000    0.0000 C   0  0  0  0  0  0  0  0  0  0  0  0
   -0.7500   -1.2990    0.0000 C   0  0  0  0  0  0  0  0  0  0  0  0
   -2.0119   -2.1100    0.0000 C   0  0  0  0  0  0  0  0  0  0  0  0
   -2.8820   -0.8881    0.0000 C   0  0  0  0  0  0  0  0  0  0  0  0
   -4.3752   -1.0307    0.0000 C   0  0  0  0  0  0  0  0  0  0  0  0
   -4.9983   -2.3952    0.0000 C   0  0  0  0  0  0  0  0  0  0  0  0
   -4.1282   -3.6170    0.0000 C   0  0  0  0  0  0  0  0  0  0  0  0
   -2.6350   -3.4744    0.0000 C   0  0  0  0  0  0  0  0  0  0  0  0
  1  2  1  0
  2  3  2  0
  3  4  1  0
  4  5  1  0
  5  6  2  0
  6  7  1  0
  7  8  2  0
  7  9  1  0
  9 10  1  0
 10 11  2  0
 11 12  1  0
 12 13  2  0
 13 14  1  0
 14 15  1  0
 15 16  1  0
 16 17  1  0
 17 18  1  0
 18 19  1  0
 19 20  2  0
 19 21  1  0
 21 22  1  0
 22 23  2  0
 23 24  1  0
 24 25  2  0
 25 26  1  0
 26 27  2  0
 18 28  1  0
 28 29  2  0
  6 30  1  0
 30 31  2  0
 30 32  1  0
 32 33  1  0
 33 34  2  0
 34 35  1  0
 35 36  2  0
 36 37  1  0
 37 38  2  0
 38 39  1  0
 39 40  2  0
 40 41  1  0
 41 42  2  0
 42 43  1  0
 43 44  2  0
 44  2  1  0
 14 10  1  0
 28 15  1  0
 38 33  1  0
 44 39  1  0
 27 22  1  0
M  END
>  <Title>  (927) 
idABHSgen13

$$$$

     RDKit          2D

 32 36  0  0  0  0  0  0  0  0999 V2000
   -3.1771   -5.9156    0.0000 C   0  0  0  0  0  0  0  0  0  0  0  0
   -1.9635   -5.0339    0.0000 C   0  0  0  0  0  0  0  0  0  0  0  0
   -0.7500   -5.9156    0.0000 C   0  0  0  0  0  0  0  0  0  0  0  0
    0.7500   -5.9156    0.0000 C   0  0  0  0  0  0  0  0  0  0  0  0
    1.9635   -5.0339    0.0000 C   0  0  0  0  0  0  0  0  0  0  0  0
    2.4271   -3.6073    0.0000 C   0  0  0  0  0  0  0  0  0  0  0  0
    1.9635   -2.1807    0.0000 C   0  0  0  0  0  0  0  0  0  0  0  0
    3.1771   -1.2990    0.0000 C   0  0  0  0  0  0  0  0  0  0  0  0
    3.0203    0.1927    0.0000 O   0  0  0  0  0  0  0  0  0  0  0  0
    4.5474   -1.9091    0.0000 N   0  0  0  0  0  0  0  0  0  0  0  0
    5.7609   -1.0275    0.0000 C   0  0  0  0  0  0  0  0  0  0  0  0
    5.7609    0.4725    0.0000 N   0  0  0  0  0  0  0  0  0  0  0  0
    7.1875    0.9361    0.0000 N   0  0  0  0  0  0  0  0  0  0  0  0
    8.0692   -0.2775    0.0000 N   0  0  0  0  0  0  0  0  0  0  0  0
    7.1875   -1.4910    0.0000 N   0  0  0  0  0  0  0  0  0  0  0  0
    7.6510   -2.9176    0.0000 N   0  0  0  0  0  0  0  0  0  0  0  0
    9.0776   -3.3811    0.0000 C   0  0  0  0  0  0  0  0  0  0  0  0
    9.0776   -4.8811    0.0000 N   0  0  0  0  0  0  0  0  0  0  0  0
    7.6510   -5.3446    0.0000 N   0  0  0  0  0  0  0  0  0  0  0  0
    6.7693   -4.1311    0.0000 N   0  0  0  0  0  0  0  0  0  0  0  0
    0.7500   -1.2990    0.0000 C   0  0  0  0  0  0  0  0  0  0  0  0
    1.5000    0.0000    0.0000 C   0  0  0  0  0  0  0  0  0  0  0  0
    0.7500    1.2990    0.0000 C   0  0  0  0  0  0  0  0  0  0  0  0
   -0.7500    1.2990    0.0000 C   0  0  0  0  0  0  0  0  0  0  0  0
   -1.5000    0.0000    0.0000 C   0  0  0  0  0  0  0  0  0  0  0  0
   -0.7500   -1.2990    0.0000 C   0  0  0  0  0  0  0  0  0  0  0  0
   -1.9635   -2.1807    0.0000 C   0  0  0  0  0  0  0  0  0  0  0  0
   -2.9672   -1.0660    0.0000 C   0  0  0  0  0  0  0  0  0  0  0  0
   -4.4344   -1.3779    0.0000 C   0  0  0  0  0  0  0  0  0  0  0  0
   -4.8980   -2.8045    0.0000 C   0  0  0  0  0  0  0  0  0  0  0  0
   -3.8943   -3.9192    0.0000 C   0  0  0  0  0  0  0  0  0  0  0  0
   -2.4271   -3.6073    0.0000 C   0  0  0  0  0  0  0  0  0  0  0  0
  1  2  1  0
  2  3  1  0
  3  4  2  0
  4  5  1  0
  5  6  1  0
  6  7  1  0
  7  8  1  0
  8  9  2  0
  8 10  1  0
 10 11  1  0
 11 12  2  0
 12 13  1  0
 13 14  2  0
 14 15  1  0
 15 16  1  0
 16 17  1  0
 17 18  2  0
 18 19  1  0
 19 20  2  0
  7 21  1  0
 21 22  2  0
 22 23  1  0
 23 24  2  0
 24 25  1  0
 25 26  2  0
 26 27  1  0
 27 28  2  0
 28 29  1  0
 29 30  2  0
 30 31  1  0
 31 32  2  0
 32  2  1  0
 15 11  1  0
 20 16  1  0
 26 21  1  0
 32 27  1  0
M  END
>  <Title>  (928) 
idABHTgen13

$$$$

     RDKit          2D

  5  4  0  0  0  0  0  0  0  0999 V2000
    0.0000    0.0000    0.0000 C   0  0  0  0  0  0  0  0  0  0  0  0
    1.2990    0.7500    0.0000 C   0  0  0  0  0  0  0  0  0  0  0  0
    2.5981   -0.0000    0.0000 C   0  0  0  0  0  0  0  0  0  0  0  0
    1.2990    2.2500    0.0000 O   0  0  0  0  0  0  0  0  0  0  0  0
    2.5981    3.0000    0.0000 C   0  0  0  0  0  0  0  0  0  0  0  0
  1  2  2  0
  2  3  1  0
  2  4  1  0
  4  5  1  0
M  END
>  <Title>  (929) 
idABHUgen13

$$$$

     RDKit          2D

 89 90  0  0  0  0  0  0  0  0999 V2000
   -2.1864   -1.0760    0.0000 C   0  0  0  0  0  0  0  0  0  0  0  0
   -2.4892    0.3931    0.0000 C   0  0  0  0  0  0  0  0  0  0  0  0
   -3.9685    0.1448    0.0000 C   0  0  0  0  0  0  0  0  0  0  0  0
   -5.4621    0.0064    0.0000 C   0  0  0  0  0  0  0  0  0  0  0  0
   -6.9619   -0.0214    0.0000 C   0  0  0  0  0  0  0  0  0  0  0  0
   -8.4595    0.0618    0.0000 C   0  0  0  0  0  0  0  0  0  0  0  0
   -9.9470    0.2553    0.0000 C   0  0  0  0  0  0  0  0  0  0  0  0
  -11.4161    0.5581    0.0000 C   0  0  0  0  0  0  0  0  0  0  0  0
  -12.8589    0.9686    0.0000 C   0  0  0  0  0  0  0  0  0  0  0  0
  -14.2674    1.4845    0.0000 C   0  0  0  0  0  0  0  0  0  0  0  0
  -15.6339    2.1030    0.0000 C   0  0  0  0  0  0  0  0  0  0  0  0
  -16.9510    2.8208    0.0000 C   0  0  0  0  0  0  0  0  0  0  0  0
  -18.2115    3.6339    0.0000 C   0  0  0  0  0  0  0  0  0  0  0  0
  -19.4086    4.5378    0.0000 C   0  0  0  0  0  0  0  0  0  0  0  0
  -20.5355    5.5277    0.0000 C   0  0  0  0  0  0  0  0  0  0  0  0
  -21.5864    6.5981    0.0000 C   0  0  0  0  0  0  0  0  0  0  0  0
  -22.5553    7.7432    0.0000 C   0  0  0  0  0  0  0  0  0  0  0  0
  -23.4369    8.9568    0.0000 C   0  0  0  0  0  0  0  0  0  0  0  0
  -24.2266   10.2321    0.0000 C   0  0  0  0  0  0  0  0  0  0  0  0
  -24.9199   11.5622    0.0000 C   0  0  0  0  0  0  0  0  0  0  0  0
  -25.5131   12.9400    0.0000 C   0  0  0  0  0  0  0  0  0  0  0  0
  -26.0029   14.3578    0.0000 C   0  0  0  0  0  0  0  0  0  0  0  0
  -26.3866   15.8078    0.0000 C   0  0  0  0  0  0  0  0  0  0  0  0
  -26.6623   17.2823    0.0000 C   0  0  0  0  0  0  0  0  0  0  0  0
  -26.8282   18.7731    0.0000 C   0  0  0  0  0  0  0  0  0  0  0  0
  -26.8837   20.2721    0.0000 C   0  0  0  0  0  0  0  0  0  0  0  0
  -26.8282   21.7710    0.0000 C   0  0  0  0  0  0  0  0  0  0  0  0
  -26.6623   23.2618    0.0000 C   0  0  0  0  0  0  0  0  0  0  0  0
  -26.3866   24.7363    0.0000 C   0  0  0  0  0  0  0  0  0  0  0  0
  -26.0029   26.1864    0.0000 C   0  0  0  0  0  0  0  0  0  0  0  0
  -25.5131   27.6041    0.0000 C   0  0  0  0  0  0  0  0  0  0  0  0
  -24.9199   28.9819    0.0000 C   0  0  0  0  0  0  0  0  0  0  0  0
  -24.2266   30.3120    0.0000 C   0  0  0  0  0  0  0  0  0  0  0  0
  -23.4369   31.5873    0.0000 C   0  0  0  0  0  0  0  0  0  0  0  0
  -22.5553   32.8009    0.0000 C   0  0  0  0  0  0  0  0  0  0  0  0
  -21.5864   33.9460    0.0000 C   0  0  0  0  0  0  0  0  0  0  0  0
  -20.5355   35.0164    0.0000 C   0  0  0  0  0  0  0  0  0  0  0  0
  -19.4086   36.0063    0.0000 C   0  0  0  0  0  0  0  0  0  0  0  0
  -18.2115   36.9102    0.0000 C   0  0  0  0  0  0  0  0  0  0  0  0
  -16.9510   37.7233    0.0000 C   0  0  0  0  0  0  0  0  0  0  0  0
  -15.6339   38.4411    0.0000 C   0  0  0  0  0  0  0  0  0  0  0  0
  -14.2674   39.0596    0.0000 C   0  0  0  0  0  0  0  0  0  0  0  0
  -12.8589   39.5755    0.0000 C   0  0  0  0  0  0  0  0  0  0  0  0
  -11.4161   39.9860    0.0000 C   0  0  0  0  0  0  0  0  0  0  0  0
   -9.9470   40.2889    0.0000 C   0  0  0  0  0  0  0  0  0  0  0  0
   -8.4595   40.4823    0.0000 C   0  0  0  0  0  0  0  0  0  0  0  0
   -6.9619   40.5655    0.0000 C   0  0  0  0  0  0  0  0  0  0  0  0
   -5.4621   40.5377    0.0000 C   0  0  0  0  0  0  0  0  0  0  0  0
   -3.9685   40.3993    0.0000 C   0  0  0  0  0  0  0  0  0  0  0  0
   -2.4892   40.1510    0.0000 C   0  0  0  0  0  0  0  0  0  0  0  0
   -1.0323   39.7941    0.0000 C   0  0  0  0  0  0  0  0  0  0  0  0
    0.3943   39.3306    0.0000 C   0  0  0  0  0  0  0  0  0  0  0  0
    1.7828   38.7630    0.0000 C   0  0  0  0  0  0  0  0  0  0  0  0
    3.1255   38.0944    0.0000 C   0  0  0  0  0  0  0  0  0  0  0  0
    4.4152   37.3284    0.0000 C   0  0  0  0  0  0  0  0  0  0  0  0
    5.6448   36.4693    0.0000 C   0  0  0  0  0  0  0  0  0  0  0  0
    6.8076   35.5217    0.0000 C   0  0  0  0  0  0  0  0  0  0  0  0
    7.8973   34.4909    0.0000 C   0  0  0  0  0  0  0  0  0  0  0  0
    8.9078   33.3824    0.0000 C   0  0  0  0  0  0  0  0  0  0  0  0
    9.8337   32.2023    0.0000 C   0  0  0  0  0  0  0  0  0  0  0  0
   10.6700   30.9570    0.0000 C   0  0  0  0  0  0  0  0  0  0  0  0
   11.4119   29.6534    0.0000 C   0  0  0  0  0  0  0  0  0  0  0  0
   12.0556   28.2985    0.0000 C   0  0  0  0  0  0  0  0  0  0  0  0
   12.5975   26.8998    0.0000 C   0  0  0  0  0  0  0  0  0  0  0  0
   13.0346   25.4649    0.0000 C   0  0  0  0  0  0  0  0  0  0  0  0
   13.3645   24.0016    0.0000 C   0  0  0  0  0  0  0  0  0  0  0  0
   13.5854   22.5180    0.0000 C   0  0  0  0  0  0  0  0  0  0  0  0
   13.6962   21.0221    0.0000 C   0  0  0  0  0  0  0  0  0  0  0  0
   13.6962   19.5221    0.0000 C   0  0  0  0  0  0  0  0  0  0  0  0
   13.5854   18.0262    0.0000 C   0  0  0  0  0  0  0  0  0  0  0  0
   13.3645   16.5425    0.0000 C   0  0  0  0  0  0  0  0  0  0  0  0
   13.0346   15.0792    0.0000 C   0  0  0  0  0  0  0  0  0  0  0  0
   12.5975   13.6443    0.0000 C   0  0  0  0  0  0  0  0  0  0  0  0
   12.0556   12.2456    0.0000 C   0  0  0  0  0  0  0  0  0  0  0  0
   11.4119   10.8908    0.0000 C   0  0  0  0  0  0  0  0  0  0  0  0
   10.6700    9.5871    0.0000 C   0  0  0  0  0  0  0  0  0  0  0  0
    9.8337    8.3419    0.0000 C   0  0  0  0  0  0  0  0  0  0  0  0
    8.9078    7.1617    0.0000 C   0  0  0  0  0  0  0  0  0  0  0  0
    7.8973    6.0532    0.0000 C   0  0  0  0  0  0  0  0  0  0  0  0
    6.8076    5.0224    0.0000 C   0  0  0  0  0  0  0  0  0  0  0  0
    5.6448    4.0748    0.0000 C   0  0  0  0  0  0  0  0  0  0  0  0
    4.4152    3.2157    0.0000 C   0  0  0  0  0  0  0  0  0  0  0  0
    3.1255    2.4497    0.0000 C   0  0  0  0  0  0  0  0  0  0  0  0
    1.7828    1.7811    0.0000 C   0  0  0  0  0  0  0  0  0  0  0  0
    0.3943    1.2135    0.0000 C   0  0  0  0  0  0  0  0  0  0  0  0
    1.2760    0.0000    0.0000 C   0  0  0  0  0  0  0  0  0  0  0  0
    0.3943   -1.2135    0.0000 C   0  0  0  0  0  0  0  0  0  0  0  0
   -1.0323   -0.7500    0.0000 C   0  0  0  0  0  0  0  0  0  0  0  0
   -1.0323    0.7500    0.0000 C   0  0  0  0  0  0  0  0  0  0  0  0
  1  2  1  0
  2  3  1  0
  3  4  1  0
  4  5  1  0
  5  6  1  0
  6  7  1  0
  7  8  1  0
  8  9  1  0
  9 10  1  0
 10 11  1  0
 11 12  1  0
 12 13  1  0
 13 14  1  0
 14 15  1  0
 15 16  1  0
 16 17  1  0
 17 18  1  0
 18 19  1  0
 19 20  1  0
 20 21  1  0
 21 22  1  0
 22 23  1  0
 23 24  1  0
 24 25  1  0
 25 26  1  0
 26 27  1  0
 27 28  1  0
 28 29  1  0
 29 30  1  0
 30 31  1  0
 31 32  1  0
 32 33  1  0
 33 34  1  0
 34 35  1  0
 35 36  1  0
 36 37  1  0
 37 38  1  0
 38 39  1  0
 39 40  1  0
 40 41  1  0
 41 42  1  0
 42 43  1  0
 43 44  1  0
 44 45  1  0
 45 46  1  0
 46 47  1  0
 47 48  1  0
 48 49  1  0
 49 50  1  0
 50 51  1  0
 51 52  1  0
 52 53  1  0
 53 54  1  0
 54 55  1  0
 55 56  1  0
 56 57  1  0
 57 58  1  0
 58 59  1  0
 59 60  1  0
 60 61  1  0
 61 62  1  0
 62 63  1  0
 63 64  1  0
 64 65  1  0
 65 66  1  0
 66 67  1  0
 67 68  1  0
 68 69  1  0
 69 70  1  0
 70 71  1  0
 71 72  1  0
 72 73  1  0
 73 74  1  0
 74 75  1  0
 75 76  1  0
 76 77  1  0
 77 78  1  0
 78 79  1  0
 79 80  1  0
 80 81  2  0
 81 82  1  0
 82 83  2  0
 83 84  1  0
 84 85  2  0
 85 86  1  0
 86 87  2  0
 87 88  1  0
 88 89  2  0
 89  2  1  0
 89 85  1  0
M  END
>  <Title>  (930) 
idABHVgen13

$$$$

     RDKit          2D

 54 53  0  0  0  0  0  0  0  0999 V2000
    0.0000    0.0000    0.0000 C   0  0  0  0  0  0  0  0  0  0  0  0
   -0.0000   -1.5000    0.0000 C   0  0  0  0  0  0  0  0  0  0  0  0
   -0.0000   -3.0000    0.0000 C   0  0  0  0  0  0  0  0  0  0  0  0
   -0.0000   -4.5000    0.0000 C   0  0  0  0  0  0  0  0  0  0  0  0
   -0.0000   -6.0000    0.0000 C   0  0  0  0  0  0  0  0  0  0  0  0
   -0.0000   -7.5000    0.0000 C   0  0  0  0  0  0  0  0  0  0  0  0
   -0.0000   -9.0000    0.0000 C   0  0  0  0  0  0  0  0  0  0  0  0
   -0.0000  -10.5000    0.0000 C   0  0  0  0  0  0  0  0  0  0  0  0
   -0.0000  -12.0000    0.0000 C   0  0  0  0  0  0  0  0  0  0  0  0
   -0.0000  -13.5000    0.0000 C   0  0  0  0  0  0  0  0  0  0  0  0
   -0.0000  -15.0000    0.0000 C   0  0  0  0  0  0  0  0  0  0  0  0
   -0.0000  -16.5000    0.0000 C   0  0  0  0  0  0  0  0  0  0  0  0
   -0.0000  -18.0000    0.0000 C   0  0  0  0  0  0  0  0  0  0  0  0
   -0.0000  -19.5000    0.0000 C   0  0  0  0  0  0  0  0  0  0  0  0
   -0.0000  -21.0000    0.0000 C   0  0  0  0  0  0  0  0  0  0  0  0
   -0.0000  -22.5000    0.0000 C   0  0  0  0  0  0  0  0  0  0  0  0
   -0.0000  -24.0000    0.0000 C   0  0  0  0  0  0  0  0  0  0  0  0
   -0.0000  -25.5000    0.0000 C   0  0  0  0  0  0  0  0  0  0  0  0
   -0.0000  -27.0000    0.0000 C   0  0  0  0  0  0  0  0  0  0  0  0
   -0.0000  -28.5000    0.0000 C   0  0  0  0  0  0  0  0  0  0  0  0
   -0.0000  -30.0000    0.0000 C   0  0  0  0  0  0  0  0  0  0  0  0
   -0.0000  -31.5000    0.0000 C   0  0  0  0  0  0  0  0  0  0  0  0
   -0.0000  -33.0000    0.0000 C   0  0  0  0  0  0  0  0  0  0  0  0
   -0.0000  -34.5000    0.0000 C   0  0  0  0  0  0  0  0  0  0  0  0
   -0.0000  -36.0000    0.0000 C   0  0  0  0  0  0  0  0  0  0  0  0
   -0.0000  -37.5000    0.0000 C   0  0  0  0  0  0  0  0  0  0  0  0
   -0.0000  -39.0000    0.0000 C   0  0  0  0  0  0  0  0  0  0  0  0
   -0.0000  -40.5000    0.0000 C   0  0  0  0  0  0  0  0  0  0  0  0
   -0.0000  -42.0000    0.0000 C   0  0  0  0  0  0  0  0  0  0  0  0
   -0.0000  -43.5000    0.0000 C   0  0  0  0  0  0  0  0  0  0  0  0
   -0.0000  -45.0000    0.0000 C   0  0  0  0  0  0  0  0  0  0  0  0
   -0.0000  -46.5000    0.0000 C   0  0  0  0  0  0  0  0  0  0  0  0
   -0.0000  -48.0000    0.0000 C   0  0  0  0  0  0  0  0  0  0  0  0
   -0.0000  -49.5000    0.0000 C   0  0  0  0  0  0  0  0  0  0  0  0
   -0.0000  -51.0000    0.0000 C   0  0  0  0  0  0  0  0  0  0  0  0
   -0.0000  -52.5000    0.0000 C   0  0  0  0  0  0  0  0  0  0  0  0
   -0.0000  -54.0000    0.0000 C   0  0  0  0  0  0  0  0  0  0  0  0
   -0.0000  -55.5000    0.0000 C   0  0  0  0  0  0  0  0  0  0  0  0
   -0.0000  -57.0000    0.0000 C   0  0  0  0  0  0  0  0  0  0  0  0
   -0.0000  -58.5000    0.0000 C   0  0  0  0  0  0  0  0  0  0  0  0
   -0.0000  -60.0000    0.0000 C   0  0  0  0  0  0  0  0  0  0  0  0
   -0.0000  -61.5000    0.0000 C   0  0  0  0  0  0  0  0  0  0  0  0
   -0.0000  -63.0000    0.0000 C   0  0  0  0  0  0  0  0  0  0  0  0
   -0.0000  -64.5000    0.0000 C   0  0  0  0  0  0  0  0  0  0  0  0
   -0.0000  -66.0000    0.0000 C   0  0  0  0  0  0  0  0  0  0  0  0
   -0.0000  -67.5000    0.0000 C   0  0  0  0  0  0  0  0  0  0  0  0
   -0.0000  -69.0000    0.0000 C   0  0  0  0  0  0  0  0  0  0  0  0
   -0.0000  -70.5000    0.0000 C   0  0  0  0  0  0  0  0  0  0  0  0
   -0.0000  -72.0000    0.0000 C   0  0  0  0  0  0  0  0  0  0  0  0
   -0.0000  -73.5000    0.0000 C   0  0  0  0  0  0  0  0  0  0  0  0
   -0.0000  -75.0000    0.0000 C   0  0  0  0  0  0  0  0  0  0  0  0
   -0.0000  -76.5000    0.0000 C   0  0  0  0  0  0  0  0  0  0  0  0
   -0.0000  -78.0000    0.0000 C   0  0  0  0  0  0  0  0  0  0  0  0
   -0.0000  -79.5000    0.0000 C   0  0  0  0  0  0  0  0  0  0  0  0
  1  2  3  0
  2  3  1  0
  3  4  3  0
  4  5  1  0
  5  6  3  0
  6  7  1  0
  7  8  3  0
  8  9  1  0
  9 10  3  0
 10 11  1  0
 11 12  3  0
 12 13  1  0
 13 14  3  0
 14 15  1  0
 15 16  3  0
 16 17  1  0
 17 18  3  0
 18 19  1  0
 19 20  3  0
 20 21  1  0
 21 22  3  0
 22 23  1  0
 23 24  3  0
 24 25  1  0
 25 26  3  0
 26 27  1  0
 27 28  3  0
 28 29  1  0
 29 30  3  0
 30 31  1  0
 31 32  3  0
 32 33  1  0
 33 34  3  0
 34 35  1  0
 35 36  3  0
 36 37  1  0
 37 38  3  0
 38 39  1  0
 39 40  3  0
 40 41  1  0
 41 42  3  0
 42 43  1  0
 43 44  3  0
 44 45  1  0
 45 46  3  0
 46 47  1  0
 47 48  3  0
 48 49  1  0
 49 50  3  0
 50 51  1  0
 51 52  3  0
 52 53  1  0
 53 54  3  0
M  END
>  <Title>  (931) 
idABHWgen13

$$$$

     RDKit          2D

 35 39  0  0  0  0  0  0  0  0999 V2000
   -3.1476   -2.1380    0.0000 C   0  0  0  0  0  0  0  0  0  0  0  0
   -1.6852   -2.4718    0.0000 C   0  0  0  0  0  0  0  0  0  0  0  0
   -1.3515   -3.9342    0.0000 C   0  0  0  0  0  0  0  0  0  0  0  0
   -0.0000   -4.5850    0.0000 C   0  0  0  0  0  0  0  0  0  0  0  0
    1.3515   -3.9342    0.0000 C   0  0  0  0  0  0  0  0  0  0  0  0
    1.6852   -2.4718    0.0000 C   0  0  0  0  0  0  0  0  0  0  0  0
    3.1476   -2.1380    0.0000 C   0  0  0  0  0  0  0  0  0  0  0  0
    3.5898   -0.7046    0.0000 O   0  0  0  0  0  0  0  0  0  0  0  0
    4.1679   -3.2376    0.0000 N   0  0  0  0  0  0  0  0  0  0  0  0
    5.6303   -2.9038    0.0000 C   0  0  0  0  0  0  0  0  0  0  0  0
    6.2198   -1.5245    0.0000 N   0  0  0  0  0  0  0  0  0  0  0  0
    7.7138   -1.6590    0.0000 N   0  0  0  0  0  0  0  0  0  0  0  0
    8.0476   -3.1214    0.0000 N   0  0  0  0  0  0  0  0  0  0  0  0
    6.7599   -3.8907    0.0000 N   0  0  0  0  0  0  0  0  0  0  0  0
    6.6254   -5.3847    0.0000 C   0  0  0  0  0  0  0  0  0  0  0  0
    7.7550   -6.3716    0.0000 C   0  0  0  0  0  0  0  0  0  0  0  0
    7.1655   -7.7509    0.0000 C   0  0  0  0  0  0  0  0  0  0  0  0
    5.6715   -7.6164    0.0000 C   0  0  0  0  0  0  0  0  0  0  0  0
    4.6846   -8.7460    0.0000 C   0  0  0  0  0  0  0  0  0  0  0  0
    5.1694  -10.1655    0.0000 O   0  0  0  0  0  0  0  0  0  0  0  0
    3.2129   -8.4561    0.0000 N   0  0  0  0  0  0  0  0  0  0  0  0
    2.2260   -9.5857    0.0000 C   0  0  0  0  0  0  0  0  0  0  0  0
    0.7543   -9.2959    0.0000 N   0  0  0  0  0  0  0  0  0  0  0  0
   -0.2326  -10.4255    0.0000 N   0  0  0  0  0  0  0  0  0  0  0  0
    0.2522  -11.8450    0.0000 N   0  0  0  0  0  0  0  0  0  0  0  0
    1.7239  -12.1348    0.0000 N   0  0  0  0  0  0  0  0  0  0  0  0
    2.7108  -11.0052    0.0000 N   0  0  0  0  0  0  0  0  0  0  0  0
    5.3378   -6.1540    0.0000 C   0  0  0  0  0  0  0  0  0  0  0  0
    3.9585   -5.5645    0.0000 O   0  0  0  0  0  0  0  0  0  0  0  0
    0.7500   -1.2990    0.0000 C   0  0  0  0  0  0  0  0  0  0  0  0
    1.5000    0.0000    0.0000 C   0  0  0  0  0  0  0  0  0  0  0  0
    0.7500    1.2990    0.0000 C   0  0  0  0  0  0  0  0  0  0  0  0
   -0.7500    1.2990    0.0000 C   0  0  0  0  0  0  0  0  0  0  0  0
   -1.5000    0.0000    0.0000 C   0  0  0  0  0  0  0  0  0  0  0  0
   -0.7500   -1.2990    0.0000 C   0  0  0  0  0  0  0  0  0  0  0  0
  1  2  1  0
  2  3  1  0
  3  4  1  0
  4  5  1  0
  5  6  2  0
  6  7  1  0
  7  8  2  0
  7  9  1  0
  9 10  1  0
 10 11  2  0
 11 12  1  0
 12 13  2  0
 13 14  1  0
 14 15  1  0
 15 16  2  0
 16 17  1  0
 17 18  2  0
 18 19  1  0
 19 20  2  0
 19 21  1  0
 21 22  1  0
 22 23  2  0
 23 24  1  0
 24 25  2  0
 25 26  1  0
 26 27  2  0
 18 28  1  0
 28 29  2  0
  6 30  1  0
 30 31  2  0
 31 32  1  0
 32 33  2  0
 33 34  1  0
 34 35  2  0
 35  2  1  0
 14 10  1  0
 28 15  1  0
 35 30  1  0
 27 22  1  0
M  END
>  <Title>  (932) 
idABHXgen13

$$$$

     RDKit          2D

 34 38  0  0  0  0  0  0  0  0999 V2000
   -3.1965   -1.7857    0.0000 C   0  0  0  0  0  0  0  0  0  0  0  0
   -1.8107   -2.3597    0.0000 C   0  0  0  0  0  0  0  0  0  0  0  0
   -1.8107   -3.8597    0.0000 C   0  0  0  0  0  0  0  0  0  0  0  0
   -0.7500   -4.9204    0.0000 C   0  0  0  0  0  0  0  0  0  0  0  0
    0.7500   -4.9204    0.0000 C   0  0  0  0  0  0  0  0  0  0  0  0
    1.8107   -3.8597    0.0000 C   0  0  0  0  0  0  0  0  0  0  0  0
    1.8107   -2.3597    0.0000 C   0  0  0  0  0  0  0  0  0  0  0  0
    3.1965   -1.7857    0.0000 C   0  0  0  0  0  0  0  0  0  0  0  0
    3.3923   -0.2985    0.0000 O   0  0  0  0  0  0  0  0  0  0  0  0
    4.3865   -2.6988    0.0000 N   0  0  0  0  0  0  0  0  0  0  0  0
    5.7723   -2.1248    0.0000 C   0  0  0  0  0  0  0  0  0  0  0  0
    6.1225   -0.6662    0.0000 N   0  0  0  0  0  0  0  0  0  0  0  0
    7.6179   -0.5485    0.0000 N   0  0  0  0  0  0  0  0  0  0  0  0
    8.1919   -1.9344    0.0000 N   0  0  0  0  0  0  0  0  0  0  0  0
    7.0513   -2.9085    0.0000 N   0  0  0  0  0  0  0  0  0  0  0  0
    7.1690   -4.4039    0.0000 N   0  0  0  0  0  0  0  0  0  0  0  0
    8.4479   -5.1877    0.0000 C   0  0  0  0  0  0  0  0  0  0  0  0
    8.0978   -6.6462    0.0000 C   0  0  0  0  0  0  0  0  0  0  0  0
    6.6024   -6.7639    0.0000 N   0  0  0  0  0  0  0  0  0  0  0  0
    5.8186   -8.0429    0.0000 C   0  0  0  0  0  0  0  0  0  0  0  0
    6.5344   -9.3611    0.0000 O   0  0  0  0  0  0  0  0  0  0  0  0
    4.3192   -8.0036    0.0000 N   0  0  0  0  0  0  0  0  0  0  0  0
    3.4060   -9.1936    0.0000 C   0  0  0  0  0  0  0  0  0  0  0  0
    1.9921   -8.6929    0.0000 C   0  0  0  0  0  0  0  0  0  0  0  0
    2.0313   -7.1934    0.0000 C   0  0  0  0  0  0  0  0  0  0  0  0
    3.4696   -6.7674    0.0000 C   0  0  0  0  0  0  0  0  0  0  0  0
    6.0284   -5.3781    0.0000 C   0  0  0  0  0  0  0  0  0  0  0  0
    4.5698   -5.0279    0.0000 O   0  0  0  0  0  0  0  0  0  0  0  0
    0.7500   -1.2990    0.0000 C   0  0  0  0  0  0  0  0  0  0  0  0
    1.5000    0.0000    0.0000 C   0  0  0  0  0  0  0  0  0  0  0  0
    0.7500    1.2990    0.0000 C   0  0  0  0  0  0  0  0  0  0  0  0
   -0.7500    1.2990    0.0000 C   0  0  0  0  0  0  0  0  0  0  0  0
   -1.5000    0.0000    0.0000 C   0  0  0  0  0  0  0  0  0  0  0  0
   -0.7500   -1.2990    0.0000 C   0  0  0  0  0  0  0  0  0  0  0  0
  1  2  1  0
  2  3  1  0
  3  4  2  0
  4  5  1  0
  5  6  1  0
  6  7  1  0
  7  8  1  0
  8  9  2  0
  8 10  1  0
 10 11  1  0
 11 12  2  0
 12 13  1  0
 13 14  2  0
 14 15  1  0
 15 16  1  0
 16 17  1  0
 17 18  1  0
 18 19  1  0
 19 20  1  0
 20 21  2  0
 20 22  1  0
 22 23  1  0
 23 24  2  0
 24 25  1  0
 25 26  2  0
 19 27  1  0
 27 28  2  0
  7 29  1  0
 29 30  2  0
 30 31  1  0
 31 32  2  0
 32 33  1  0
 33 34  2  0
 34  2  1  0
 15 11  1  0
 27 16  1  0
 34 29  1  0
 26 22  1  0
M  END
>  <Title>  (933) 
idABHYgen13

$$$$

     RDKit          2D

 35 39  0  0  0  0  0  0  0  0999 V2000
   -5.2500   -3.8971    0.0000 C   0  0  0  0  0  0  0  0  0  0  0  0
   -3.7500   -3.8971    0.0000 C   0  0  0  0  0  0  0  0  0  0  0  0
   -3.0000   -5.1962    0.0000 O   0  0  0  0  0  0  0  0  0  0  0  0
   -3.0000   -2.5981    0.0000 N   0  0  0  0  0  0  0  0  0  0  0  0
   -1.5000   -2.5981    0.0000 C   0  0  0  0  0  0  0  0  0  0  0  0
   -0.7500   -3.8971    0.0000 C   0  0  0  0  0  0  0  0  0  0  0  0
    0.7500   -3.8971    0.0000 C   0  0  0  0  0  0  0  0  0  0  0  0
    1.5000   -2.5981    0.0000 C   0  0  0  0  0  0  0  0  0  0  0  0
    3.0000   -2.5981    0.0000 O   0  0  0  0  0  0  0  0  0  0  0  0
    3.7500   -3.8971    0.0000 C   0  0  0  0  0  0  0  0  0  0  0  0
    5.2418   -4.0539    0.0000 N   0  0  0  0  0  0  0  0  0  0  0  0
    5.5537   -5.5211    0.0000 N   0  0  0  0  0  0  0  0  0  0  0  0
    4.2546   -6.2711    0.0000 N   0  0  0  0  0  0  0  0  0  0  0  0
    3.1399   -5.2674    0.0000 N   0  0  0  0  0  0  0  0  0  0  0  0
    1.6727   -5.5793    0.0000 N   0  0  0  0  0  0  0  0  0  0  0  0
    0.5580   -4.5756    0.0000 C   0  0  0  0  0  0  0  0  0  0  0  0
   -0.7411   -5.3256    0.0000 C   0  0  0  0  0  0  0  0  0  0  0  0
   -0.4292   -6.7928    0.0000 N   0  0  0  0  0  0  0  0  0  0  0  0
   -1.4329   -7.9075    0.0000 C   0  0  0  0  0  0  0  0  0  0  0  0
   -0.9694   -9.3341    0.0000 O   0  0  0  0  0  0  0  0  0  0  0  0
   -2.9001   -7.5957    0.0000 N   0  0  0  0  0  0  0  0  0  0  0  0
   -3.9038   -8.7104    0.0000 C   0  0  0  0  0  0  0  0  0  0  0  0
   -3.4403  -10.1370    0.0000 N   0  0  0  0  0  0  0  0  0  0  0  0
   -4.4440  -11.2517    0.0000 N   0  0  0  0  0  0  0  0  0  0  0  0
   -5.9112  -10.9398    0.0000 N   0  0  0  0  0  0  0  0  0  0  0  0
   -6.3747   -9.5132    0.0000 N   0  0  0  0  0  0  0  0  0  0  0  0
   -5.3710   -8.3985    0.0000 N   0  0  0  0  0  0  0  0  0  0  0  0
    1.0626   -6.9496    0.0000 C   0  0  0  0  0  0  0  0  0  0  0  0
    1.8126   -8.2487    0.0000 O   0  0  0  0  0  0  0  0  0  0  0  0
    0.7500   -1.2990    0.0000 C   0  0  0  0  0  0  0  0  0  0  0  0
    1.5000    0.0000    0.0000 C   0  0  0  0  0  0  0  0  0  0  0  0
    0.7500    1.2990    0.0000 C   0  0  0  0  0  0  0  0  0  0  0  0
   -0.7500    1.2990    0.0000 C   0  0  0  0  0  0  0  0  0  0  0  0
   -1.5000    0.0000    0.0000 C   0  0  0  0  0  0  0  0  0  0  0  0
   -0.7500   -1.2990    0.0000 C   0  0  0  0  0  0  0  0  0  0  0  0
  1  2  1  0
  2  3  2  0
  2  4  1  0
  4  5  1  0
  5  6  2  0
  6  7  1  0
  7  8  2  0
  8  9  1  0
  9 10  1  0
 10 11  2  0
 11 12  1  0
 12 13  2  0
 13 14  1  0
 14 15  1  0
 15 16  1  0
 16 17  1  0
 17 18  1  0
 18 19  1  0
 19 20  2  0
 19 21  1  0
 21 22  1  0
 22 23  2  0
 23 24  1  0
 24 25  2  0
 25 26  1  0
 26 27  2  0
 18 28  1  0
 28 29  2  0
  8 30  1  0
 30 31  2  0
 31 32  1  0
 32 33  2  0
 33 34  1  0
 34 35  2  0
 35  5  1  0
 14 10  1  0
 28 15  1  0
 35 30  1  0
 27 22  1  0
M  END
>  <Title>  (934) 
idABHZgen13

$$$$

     RDKit          2D

  7  6  0  0  0  0  0  0  0  0999 V2000
    0.0000    0.0000    0.0000 C   0  0  0  0  0  0  0  0  0  0  0  0
   -0.0000   -1.5000    0.0000 C   0  0  0  0  0  0  0  0  0  0  0  0
   -0.0000   -3.0000    0.0000 C   0  0  0  0  0  0  0  0  0  0  0  0
    1.2990   -3.7500    0.0000 C   0  0  0  0  0  0  0  0  0  0  0  0
    1.2990   -5.2500    0.0000 C   0  0  0  0  0  0  0  0  0  0  0  0
    2.5981   -6.0000    0.0000 C   0  0  0  0  0  0  0  0  0  0  0  0
    2.5981   -7.5000    0.0000 C   0  0  0  0  0  0  0  0  0  0  0  0
  1  2  3  0
  2  3  1  0
  3  4  1  0
  4  5  1  0
  5  6  1  0
  6  7  1  0
M  END
>  <Title>  (935) 
idABIAgen13

$$$$

     RDKit          2D

 21 23  0  0  0  0  0  0  0  0999 V2000
   -8.2786   -4.8163    0.0000 C   0  0  0  0  0  0  0  0  0  0  0  0
   -6.8298   -5.2046    0.0000 C   0  0  0  0  0  0  0  0  0  0  0  0
   -5.7691   -4.1439    0.0000 C   0  0  0  0  0  0  0  0  0  0  0  0
   -4.3202   -4.5321    0.0000 C   0  0  0  0  0  0  0  0  0  0  0  0
   -3.2595   -3.4715    0.0000 C   0  0  0  0  0  0  0  0  0  0  0  0
   -3.6478   -2.0226    0.0000 O   0  0  0  0  0  0  0  0  0  0  0  0
   -1.8107   -3.8597    0.0000 N   0  0  0  0  0  0  0  0  0  0  0  0
   -0.7500   -2.7990    0.0000 C   0  0  0  0  0  0  0  0  0  0  0  0
    0.7500   -2.7990    0.0000 C   0  0  0  0  0  0  0  0  0  0  0  0
    0.7500   -1.2990    0.0000 C   0  0  0  0  0  0  0  0  0  0  0  0
    1.5000    0.0000    0.0000 C   0  0  0  0  0  0  0  0  0  0  0  0
    0.7500    1.2990    0.0000 C   0  0  0  0  0  0  0  0  0  0  0  0
   -0.7500    1.2990    0.0000 C   0  0  0  0  0  0  0  0  0  0  0  0
   -1.5000    2.5981    0.0000 C   0  0  0  0  0  0  0  0  0  0  0  0
   -0.7500    3.8971    0.0000 N   0  0  0  0  0  0  0  0  0  0  0  0
   -1.3601    5.2674    0.0000 C   0  0  0  0  0  0  0  0  0  0  0  0
   -0.2454    6.2711    0.0000 C   0  0  0  0  0  0  0  0  0  0  0  0
    1.0537    5.5211    0.0000 C   0  0  0  0  0  0  0  0  0  0  0  0
    0.7418    4.0539    0.0000 C   0  0  0  0  0  0  0  0  0  0  0  0
   -1.5000    0.0000    0.0000 C   0  0  0  0  0  0  0  0  0  0  0  0
   -0.7500   -1.2990    0.0000 C   0  0  0  0  0  0  0  0  0  0  0  0
  1  2  2  0
  2  3  1  0
  3  4  1  0
  4  5  1  0
  5  6  2  0
  5  7  1  0
  7  8  1  0
  8  9  1  0
  9 10  1  0
 10 11  2  0
 11 12  1  0
 12 13  2  0
 13 14  1  0
 14 15  1  0
 15 16  1  0
 16 17  1  0
 17 18  1  0
 18 19  1  0
 13 20  1  0
 20 21  1  0
 21  8  1  0
 21 10  1  0
 19 15  1  0
M  END
>  <Title>  (936) 
idABIBgen13

$$$$

     RDKit          2D

 96 99  0  0  0  0  0  0  0  0999 V2000
    4.3699  -10.6661    0.0000 C   0  0  0  0  0  0  0  0  0  0  0  0
    5.8305  -10.3242    0.0000 C   0  0  0  0  0  0  0  0  0  0  0  0
    6.2471  -11.7652    0.0000 C   0  0  0  0  0  0  0  0  0  0  0  0
    6.8096  -13.1558    0.0000 C   0  0  0  0  0  0  0  0  0  0  0  0
    7.5121  -14.4811    0.0000 C   0  0  0  0  0  0  0  0  0  0  0  0
    8.3472  -15.7271    0.0000 C   0  0  0  0  0  0  0  0  0  0  0  0
    9.3060  -16.8807    0.0000 C   0  0  0  0  0  0  0  0  0  0  0  0
   10.3783  -17.9296    0.0000 C   0  0  0  0  0  0  0  0  0  0  0  0
   11.5527  -18.8627    0.0000 C   0  0  0  0  0  0  0  0  0  0  0  0
   12.8169  -19.6700    0.0000 C   0  0  0  0  0  0  0  0  0  0  0  0
   14.1574  -20.3431    0.0000 C   0  0  0  0  0  0  0  0  0  0  0  0
   15.5600  -20.8749    0.0000 C   0  0  0  0  0  0  0  0  0  0  0  0
   17.0098  -21.2595    0.0000 C   0  0  0  0  0  0  0  0  0  0  0  0
   18.4915  -21.4931    0.0000 C   0  0  0  0  0  0  0  0  0  0  0  0
   19.9894  -21.5731    0.0000 C   0  0  0  0  0  0  0  0  0  0  0  0
   21.4876  -21.4986    0.0000 C   0  0  0  0  0  0  0  0  0  0  0  0
   22.9701  -21.2705    0.0000 C   0  0  0  0  0  0  0  0  0  0  0  0
   24.4214  -20.8912    0.0000 C   0  0  0  0  0  0  0  0  0  0  0  0
   25.8259  -20.3646    0.0000 C   0  0  0  0  0  0  0  0  0  0  0  0
   27.1689  -19.6964    0.0000 C   0  0  0  0  0  0  0  0  0  0  0  0
   28.4360  -18.8937    0.0000 C   0  0  0  0  0  0  0  0  0  0  0  0
   29.6139  -17.9650    0.0000 C   0  0  0  0  0  0  0  0  0  0  0  0
   30.6901  -16.9200    0.0000 C   0  0  0  0  0  0  0  0  0  0  0  0
   31.6531  -15.7700    0.0000 C   0  0  0  0  0  0  0  0  0  0  0  0
   32.4927  -14.5270    0.0000 C   0  0  0  0  0  0  0  0  0  0  0  0
   33.2001  -13.2043    0.0000 C   0  0  0  0  0  0  0  0  0  0  0  0
   33.7678  -11.8158    0.0000 C   0  0  0  0  0  0  0  0  0  0  0  0
   34.1896  -10.3764    0.0000 C   0  0  0  0  0  0  0  0  0  0  0  0
   34.4613   -8.9012    0.0000 C   0  0  0  0  0  0  0  0  0  0  0  0
   34.5798   -7.4059    0.0000 C   0  0  0  0  0  0  0  0  0  0  0  0
   34.5439   -5.9063    0.0000 C   0  0  0  0  0  0  0  0  0  0  0  0
   34.3541   -4.4184    0.0000 C   0  0  0  0  0  0  0  0  0  0  0  0
   34.0122   -2.9579    0.0000 C   0  0  0  0  0  0  0  0  0  0  0  0
   33.5220   -1.5402    0.0000 C   0  0  0  0  0  0  0  0  0  0  0  0
   32.8886   -0.1805    0.0000 C   0  0  0  0  0  0  0  0  0  0  0  0
   32.1188    1.1069    0.0000 C   0  0  0  0  0  0  0  0  0  0  0  0
   31.2207    2.3083    0.0000 C   0  0  0  0  0  0  0  0  0  0  0  0
   30.2038    3.4110    0.0000 C   0  0  0  0  0  0  0  0  0  0  0  0
   29.0789    4.4033    0.0000 C   0  0  0  0  0  0  0  0  0  0  0  0
   27.8580    5.2747    0.0000 C   0  0  0  0  0  0  0  0  0  0  0  0
   26.5539    6.0159    0.0000 C   0  0  0  0  0  0  0  0  0  0  0  0
   25.1806    6.6191    0.0000 C   0  0  0  0  0  0  0  0  0  0  0  0
   23.7525    7.0779    0.0000 C   0  0  0  0  0  0  0  0  0  0  0  0
   22.2847    7.3874    0.0000 C   0  0  0  0  0  0  0  0  0  0  0  0
   20.7930    7.5444    0.0000 C   0  0  0  0  0  0  0  0  0  0  0  0
   19.2930    7.5472    0.0000 C   0  0  0  0  0  0  0  0  0  0  0  0
   17.8006    7.3957    0.0000 C   0  0  0  0  0  0  0  0  0  0  0  0
   16.3318    7.0916    0.0000 C   0  0  0  0  0  0  0  0  0  0  0  0
   14.9020    6.6380    0.0000 C   0  0  0  0  0  0  0  0  0  0  0  0
   13.5264    6.0399    0.0000 C   0  0  0  0  0  0  0  0  0  0  0  0
   12.2196    5.3035    0.0000 C   0  0  0  0  0  0  0  0  0  0  0  0
   10.9955    4.4366    0.0000 C   0  0  0  0  0  0  0  0  0  0  0  0
    9.8670    3.4484    0.0000 C   0  0  0  0  0  0  0  0  0  0  0  0
    8.8461    2.3495    0.0000 C   0  0  0  0  0  0  0  0  0  0  0  0
    7.9435    1.1514    0.0000 C   0  0  0  0  0  0  0  0  0  0  0  0
    7.1690   -0.1332    0.0000 C   0  0  0  0  0  0  0  0  0  0  0  0
    6.5306   -1.4906    0.0000 C   0  0  0  0  0  0  0  0  0  0  0  0
    5.9986   -0.0000    0.0000 C   0  0  0  0  0  0  0  0  0  0  0  0
    5.8482    1.3348    0.0000 C   0  0  0  0  0  0  0  0  0  0  0  0
    5.4045    2.6027    0.0000 C   0  0  0  0  0  0  0  0  0  0  0  0
    4.6899    3.7400    0.0000 C   0  0  0  0  0  0  0  0  0  0  0  0
    3.7400    4.6899    0.0000 C   0  0  0  0  0  0  0  0  0  0  0  0
    2.6027    5.4045    0.0000 C   0  0  0  0  0  0  0  0  0  0  0  0
    1.3348    5.8482    0.0000 C   0  0  0  0  0  0  0  0  0  0  0  0
    0.0000    5.9986    0.0000 C   0  0  0  0  0  0  0  0  0  0  0  0
   -1.3348    5.8482    0.0000 C   0  0  0  0  0  0  0  0  0  0  0  0
   -2.6027    5.4045    0.0000 C   0  0  0  0  0  0  0  0  0  0  0  0
   -3.7400    4.6899    0.0000 C   0  0  0  0  0  0  0  0  0  0  0  0
   -4.6899    3.7400    0.0000 C   0  0  0  0  0  0  0  0  0  0  0  0
   -5.4045    2.6027    0.0000 C   0  0  0  0  0  0  0  0  0  0  0  0
   -5.8482    1.3348    0.0000 C   0  0  0  0  0  0  0  0  0  0  0  0
   -5.9986    0.0000    0.0000 C   0  0  0  0  0  0  0  0  0  0  0  0
   -5.8482   -1.3348    0.0000 C   0  0  0  0  0  0  0  0  0  0  0  0
   -5.4045   -2.6027    0.0000 C   0  0  0  0  0  0  0  0  0  0  0  0
   -4.6899   -3.7400    0.0000 C   0  0  0  0  0  0  0  0  0  0  0  0
   -3.7400   -4.6899    0.0000 C   0  0  0  0  0  0  0  0  0  0  0  0
   -2.6027   -5.4045    0.0000 C   0  0  0  0  0  0  0  0  0  0  0  0
   -1.3348   -5.8482    0.0000 C   0  0  0  0  0  0  0  0  0  0  0  0
   -0.0000   -5.9986    0.0000 C   0  0  0  0  0  0  0  0  0  0  0  0
    1.3348   -5.8482    0.0000 C   0  0  0  0  0  0  0  0  0  0  0  0
    2.6027   -5.4045    0.0000 C   0  0  0  0  0  0  0  0  0  0  0  0
    3.7400   -4.6899    0.0000 C   0  0  0  0  0  0  0  0  0  0  0  0
    4.6899   -3.7400    0.0000 C   0  0  0  0  0  0  0  0  0  0  0  0
    6.0352   -2.9064    0.0000 C   0  0  0  0  0  0  0  0  0  0  0  0
    5.6880   -4.3657    0.0000 C   0  0  0  0  0  0  0  0  0  0  0  0
    7.0736   -3.7912    0.0000 C   0  0  0  0  0  0  0  0  0  0  0  0
    8.2639   -4.7040    0.0000 C   0  0  0  0  0  0  0  0  0  0  0  0
    8.0686   -6.1912    0.0000 C   0  0  0  0  0  0  0  0  0  0  0  0
    6.6829   -6.7657    0.0000 C   0  0  0  0  0  0  0  0  0  0  0  0
    5.4926   -5.8529    0.0000 C   0  0  0  0  0  0  0  0  0  0  0  0
    5.4513   -7.3523    0.0000 C   0  0  0  0  0  0  0  0  0  0  0  0
    4.0994   -6.7023    0.0000 C   0  0  0  0  0  0  0  0  0  0  0  0
    2.8606   -7.5481    0.0000 C   0  0  0  0  0  0  0  0  0  0  0  0
    2.9736   -9.0438    0.0000 C   0  0  0  0  0  0  0  0  0  0  0  0
    4.3254   -9.6938    0.0000 C   0  0  0  0  0  0  0  0  0  0  0  0
    5.5643   -8.8480    0.0000 C   0  0  0  0  0  0  0  0  0  0  0  0
  1  2  1  0
  2  3  1  0
  3  4  1  0
  4  5  1  0
  5  6  1  0
  6  7  1  0
  7  8  1  0
  8  9  1  0
  9 10  1  0
 10 11  1  0
 11 12  1  0
 12 13  1  0
 13 14  1  0
 14 15  1  0
 15 16  1  0
 16 17  1  0
 17 18  1  0
 18 19  1  0
 19 20  1  0
 20 21  1  0
 21 22  1  0
 22 23  1  0
 23 24  1  0
 24 25  1  0
 25 26  1  0
 26 27  1  0
 27 28  1  0
 28 29  1  0
 29 30  1  0
 30 31  1  0
 31 32  1  0
 32 33  1  0
 33 34  1  0
 34 35  1  0
 35 36  1  0
 36 37  1  0
 37 38  1  0
 38 39  1  0
 39 40  1  0
 40 41  1  0
 41 42  1  0
 42 43  1  0
 43 44  1  0
 44 45  1  0
 45 46  1  0
 46 47  1  0
 47 48  1  0
 48 49  1  0
 49 50  1  0
 50 51  1  0
 51 52  1  0
 52 53  1  0
 53 54  1  0
 54 55  1  0
 55 56  1  0
 56 57  1  0
 57 58  1  0
 58 59  1  0
 59 60  1  0
 60 61  1  0
 61 62  2  0
 62 63  1  0
 63 64  2  0
 64 65  1  0
 65 66  2  0
 66 67  1  0
 67 68  2  0
 68 69  1  0
 69 70  2  0
 70 71  1  0
 71 72  2  0
 72 73  1  0
 73 74  2  0
 74 75  1  0
 75 76  2  0
 76 77  1  0
 77 78  2  0
 78 79  1  0
 79 80  2  0
 80 81  1  0
 81 82  2  0
 82 83  1  0
 83 84  2  0
 84 85  1  0
 85 86  2  0
 86 87  1  0
 87 88  2  0
 88 89  1  0
 89 90  2  0
 90 91  1  0
 91 92  2  0
 92 93  1  0
 93 94  2  0
 94 95  1  0
 95 96  2  0
 96  2  1  0
 84 57  1  0
 90 85  1  0
 96 91  1  0
M  END
>  <Title>  (937) 
idABICgen13

$$$$

     RDKit          2D

  7  7  0  0  0  0  0  0  0  0999 V2000
    3.5260   -1.2990    0.0000 C   0  0  0  0  0  0  0  0  0  0  0  0
    2.7760    0.0000    0.0000 O   0  0  0  0  0  0  0  0  0  0  0  0
    1.2760    0.0000    0.0000 C   0  0  0  0  0  0  0  0  0  0  0  0
    0.3943    1.2135    0.0000 C   0  0  0  0  0  0  0  0  0  0  0  0
   -1.0323    0.7500    0.0000 C   0  0  0  0  0  0  0  0  0  0  0  0
   -1.0323   -0.7500    0.0000 C   0  0  0  0  0  0  0  0  0  0  0  0
    0.3943   -1.2135    0.0000 C   0  0  0  0  0  0  0  0  0  0  0  0
  1  2  1  0
  2  3  1  0
  3  4  2  0
  4  5  1  0
  5  6  2  0
  6  7  1  0
  7  3  1  0
M  END
>  <Title>  (938) 
idABIDgen13

$$$$

     RDKit          2D

 39 44  0  0  0  0  0  0  0  0999 V2000
   -1.3240   -6.3062    0.0000 C   0  0  0  0  0  0  0  0  0  0  0  0
   -0.7500   -4.9204    0.0000 C   0  0  0  0  0  0  0  0  0  0  0  0
    0.7500   -4.9204    0.0000 C   0  0  0  0  0  0  0  0  0  0  0  0
    1.8107   -3.8597    0.0000 C   0  0  0  0  0  0  0  0  0  0  0  0
    1.8107   -2.3597    0.0000 C   0  0  0  0  0  0  0  0  0  0  0  0
    3.1965   -1.7857    0.0000 C   0  0  0  0  0  0  0  0  0  0  0  0
    3.3923   -0.2985    0.0000 O   0  0  0  0  0  0  0  0  0  0  0  0
    4.3865   -2.6988    0.0000 N   0  0  0  0  0  0  0  0  0  0  0  0
    5.7723   -2.1248    0.0000 C   0  0  0  0  0  0  0  0  0  0  0  0
    6.1225   -0.6662    0.0000 N   0  0  0  0  0  0  0  0  0  0  0  0
    7.6179   -0.5485    0.0000 N   0  0  0  0  0  0  0  0  0  0  0  0
    8.1919   -1.9344    0.0000 N   0  0  0  0  0  0  0  0  0  0  0  0
    7.0513   -2.9085    0.0000 N   0  0  0  0  0  0  0  0  0  0  0  0
    7.1690   -4.4039    0.0000 N   0  0  0  0  0  0  0  0  0  0  0  0
    6.1948   -5.5445    0.0000 C   0  0  0  0  0  0  0  0  0  0  0  0
    7.3354   -6.5187    0.0000 C   0  0  0  0  0  0  0  0  0  0  0  0
    7.4531   -8.0141    0.0000 C   0  0  0  0  0  0  0  0  0  0  0  0
    8.8070   -8.6598    0.0000 O   0  0  0  0  0  0  0  0  0  0  0  0
    6.2169   -8.8637    0.0000 N   0  0  0  0  0  0  0  0  0  0  0  0
    6.3346  -10.3591    0.0000 C   0  0  0  0  0  0  0  0  0  0  0  0
    5.0984  -11.2087    0.0000 N   0  0  0  0  0  0  0  0  0  0  0  0
    5.2161  -12.7040    0.0000 N   0  0  0  0  0  0  0  0  0  0  0  0
    6.5700  -13.3498    0.0000 N   0  0  0  0  0  0  0  0  0  0  0  0
    7.8062  -12.5002    0.0000 N   0  0  0  0  0  0  0  0  0  0  0  0
    7.6885  -11.0048    0.0000 N   0  0  0  0  0  0  0  0  0  0  0  0
    8.3096   -5.3781    0.0000 C   0  0  0  0  0  0  0  0  0  0  0  0
    9.8050   -5.2604    0.0000 O   0  0  0  0  0  0  0  0  0  0  0  0
    0.7500   -1.2990    0.0000 C   0  0  0  0  0  0  0  0  0  0  0  0
    1.5000    0.0000    0.0000 C   0  0  0  0  0  0  0  0  0  0  0  0
    0.7500    1.2990    0.0000 C   0  0  0  0  0  0  0  0  0  0  0  0
   -0.7500    1.2990    0.0000 C   0  0  0  0  0  0  0  0  0  0  0  0
   -1.5000    0.0000    0.0000 C   0  0  0  0  0  0  0  0  0  0  0  0
   -0.7500   -1.2990    0.0000 C   0  0  0  0  0  0  0  0  0  0  0  0
   -1.8107   -2.3597    0.0000 C   0  0  0  0  0  0  0  0  0  0  0  0
   -3.1097   -1.6097    0.0000 C   0  0  0  0  0  0  0  0  0  0  0  0
   -4.4087   -2.3597    0.0000 C   0  0  0  0  0  0  0  0  0  0  0  0
   -4.4087   -3.8597    0.0000 C   0  0  0  0  0  0  0  0  0  0  0  0
   -3.1097   -4.6097    0.0000 C   0  0  0  0  0  0  0  0  0  0  0  0
   -1.8107   -3.8597    0.0000 C   0  0  0  0  0  0  0  0  0  0  0  0
  1  2  1  0
  2  3  2  0
  3  4  1  0
  4  5  2  0
  5  6  1  0
  6  7  2  0
  6  8  1  0
  8  9  1  0
  9 10  2  0
 10 11  1  0
 11 12  2  0
 12 13  1  0
 13 14  1  0
 14 15  1  0
 15 16  2  0
 16 17  1  0
 17 18  2  0
 17 19  1  0
 19 20  1  0
 20 21  2  0
 21 22  1  0
 22 23  2  0
 23 24  1  0
 24 25  2  0
 16 26  1  0
 26 27  2  0
  5 28  1  0
 28 29  2  0
 29 30  1  0
 30 31  2  0
 31 32  1  0
 32 33  2  0
 33 34  1  0
 34 35  2  0
 35 36  1  0
 36 37  2  0
 37 38  1  0
 38 39  2  0
 39  2  1  0
 13  9  1  0
 26 14  1  0
 33 28  1  0
 39 34  1  0
 25 20  1  0
M  END
>  <Title>  (939) 
idABIEgen13

$$$$

     RDKit          2D

 46 45  0  0  0  0  0  0  0  0999 V2000
    0.0000    0.0000    0.0000 C   0  0  0  0  0  0  0  0  0  0  0  0
   -0.0000   -1.5000    0.0000 C   0  0  0  0  0  0  0  0  0  0  0  0
   -0.0000   -3.0000    0.0000 C   0  0  0  0  0  0  0  0  0  0  0  0
   -0.0000   -4.5000    0.0000 C   0  0  0  0  0  0  0  0  0  0  0  0
   -0.0000   -6.0000    0.0000 C   0  0  0  0  0  0  0  0  0  0  0  0
   -0.0000   -7.5000    0.0000 C   0  0  0  0  0  0  0  0  0  0  0  0
   -0.0000   -9.0000    0.0000 C   0  0  0  0  0  0  0  0  0  0  0  0
   -0.0000  -10.5000    0.0000 C   0  0  0  0  0  0  0  0  0  0  0  0
   -0.0000  -12.0000    0.0000 C   0  0  0  0  0  0  0  0  0  0  0  0
   -0.0000  -13.5000    0.0000 C   0  0  0  0  0  0  0  0  0  0  0  0
   -0.0000  -15.0000    0.0000 C   0  0  0  0  0  0  0  0  0  0  0  0
   -0.0000  -16.5000    0.0000 C   0  0  0  0  0  0  0  0  0  0  0  0
   -0.0000  -18.0000    0.0000 C   0  0  0  0  0  0  0  0  0  0  0  0
   -0.0000  -19.5000    0.0000 C   0  0  0  0  0  0  0  0  0  0  0  0
   -0.0000  -21.0000    0.0000 C   0  0  0  0  0  0  0  0  0  0  0  0
   -0.0000  -22.5000    0.0000 C   0  0  0  0  0  0  0  0  0  0  0  0
   -0.0000  -24.0000    0.0000 C   0  0  0  0  0  0  0  0  0  0  0  0
   -0.0000  -25.5000    0.0000 C   0  0  0  0  0  0  0  0  0  0  0  0
   -0.0000  -27.0000    0.0000 C   0  0  0  0  0  0  0  0  0  0  0  0
   -0.0000  -28.5000    0.0000 C   0  0  0  0  0  0  0  0  0  0  0  0
   -0.0000  -30.0000    0.0000 C   0  0  0  0  0  0  0  0  0  0  0  0
   -0.0000  -31.5000    0.0000 C   0  0  0  0  0  0  0  0  0  0  0  0
   -0.0000  -33.0000    0.0000 C   0  0  0  0  0  0  0  0  0  0  0  0
   -0.0000  -34.5000    0.0000 C   0  0  0  0  0  0  0  0  0  0  0  0
   -0.0000  -36.0000    0.0000 C   0  0  0  0  0  0  0  0  0  0  0  0
   -0.0000  -37.5000    0.0000 C   0  0  0  0  0  0  0  0  0  0  0  0
   -0.0000  -39.0000    0.0000 C   0  0  0  0  0  0  0  0  0  0  0  0
   -0.0000  -40.5000    0.0000 C   0  0  0  0  0  0  0  0  0  0  0  0
   -0.0000  -42.0000    0.0000 C   0  0  0  0  0  0  0  0  0  0  0  0
   -0.0000  -43.5000    0.0000 C   0  0  0  0  0  0  0  0  0  0  0  0
   -0.0000  -45.0000    0.0000 C   0  0  0  0  0  0  0  0  0  0  0  0
   -0.0000  -46.5000    0.0000 C   0  0  0  0  0  0  0  0  0  0  0  0
   -0.0000  -48.0000    0.0000 C   0  0  0  0  0  0  0  0  0  0  0  0
   -0.0000  -49.5000    0.0000 C   0  0  0  0  0  0  0  0  0  0  0  0
   -0.0000  -51.0000    0.0000 C   0  0  0  0  0  0  0  0  0  0  0  0
   -0.0000  -52.5000    0.0000 C   0  0  0  0  0  0  0  0  0  0  0  0
   -0.0000  -54.0000    0.0000 C   0  0  0  0  0  0  0  0  0  0  0  0
   -0.0000  -55.5000    0.0000 C   0  0  0  0  0  0  0  0  0  0  0  0
   -0.0000  -57.0000    0.0000 C   0  0  0  0  0  0  0  0  0  0  0  0
   -0.0000  -58.5000    0.0000 C   0  0  0  0  0  0  0  0  0  0  0  0
   -0.0000  -60.0000    0.0000 C   0  0  0  0  0  0  0  0  0  0  0  0
   -0.0000  -61.5000    0.0000 C   0  0  0  0  0  0  0  0  0  0  0  0
   -0.0000  -63.0000    0.0000 C   0  0  0  0  0  0  0  0  0  0  0  0
   -0.0000  -64.5000    0.0000 C   0  0  0  0  0  0  0  0  0  0  0  0
   -0.0000  -66.0000    0.0000 C   0  0  0  0  0  0  0  0  0  0  0  0
   -0.0000  -67.5000    0.0000 C   0  0  0  0  0  0  0  0  0  0  0  0
  1  2  3  0
  2  3  1  0
  3  4  3  0
  4  5  1  0
  5  6  3  0
  6  7  1  0
  7  8  3  0
  8  9  1  0
  9 10  3  0
 10 11  1  0
 11 12  3  0
 12 13  1  0
 13 14  3  0
 14 15  1  0
 15 16  3  0
 16 17  1  0
 17 18  3  0
 18 19  1  0
 19 20  3  0
 20 21  1  0
 21 22  3  0
 22 23  1  0
 23 24  3  0
 24 25  1  0
 25 26  3  0
 26 27  1  0
 27 28  3  0
 28 29  1  0
 29 30  3  0
 30 31  1  0
 31 32  3  0
 32 33  1  0
 33 34  3  0
 34 35  1  0
 35 36  3  0
 36 37  1  0
 37 38  3  0
 38 39  1  0
 39 40  3  0
 40 41  1  0
 41 42  3  0
 42 43  1  0
 43 44  3  0
 44 45  1  0
 45 46  3  0
M  END
>  <Title>  (940) 
idABIFgen13

$$$$

     RDKit          2D

 86 87  0  0  0  0  0  0  0  0999 V2000
    9.1881   -4.4624    0.0000 C   0  0  0  0  0  0  0  0  0  0  0  0
    9.9853   -4.4584    0.0000 C   0  0  0  0  0  0  0  0  0  0  0  0
   10.1022   -5.9539    0.0000 C   0  0  0  0  0  0  0  0  0  0  0  0
   10.4356   -7.4163    0.0000 C   0  0  0  0  0  0  0  0  0  0  0  0
   10.9785   -8.8147    0.0000 C   0  0  0  0  0  0  0  0  0  0  0  0
   11.7191  -10.1191    0.0000 C   0  0  0  0  0  0  0  0  0  0  0  0
   12.6418  -11.3017    0.0000 C   0  0  0  0  0  0  0  0  0  0  0  0
   13.7268  -12.3375    0.0000 C   0  0  0  0  0  0  0  0  0  0  0  0
   14.9510  -13.2042    0.0000 C   0  0  0  0  0  0  0  0  0  0  0  0
   16.2885  -13.8834    0.0000 C   0  0  0  0  0  0  0  0  0  0  0  0
   17.7105  -14.3606    0.0000 C   0  0  0  0  0  0  0  0  0  0  0  0
   19.1869  -14.6257    0.0000 C   0  0  0  0  0  0  0  0  0  0  0  0
   20.6862  -14.6730    0.0000 C   0  0  0  0  0  0  0  0  0  0  0  0
   22.1763  -14.5015    0.0000 C   0  0  0  0  0  0  0  0  0  0  0  0
   23.6256  -14.1149    0.0000 C   0  0  0  0  0  0  0  0  0  0  0  0
   25.0032  -13.5214    0.0000 C   0  0  0  0  0  0  0  0  0  0  0  0
   26.2797  -12.7336    0.0000 C   0  0  0  0  0  0  0  0  0  0  0  0
   27.4279  -11.7684    0.0000 C   0  0  0  0  0  0  0  0  0  0  0  0
   28.4233  -10.6462    0.0000 C   0  0  0  0  0  0  0  0  0  0  0  0
   29.2447   -9.3911    0.0000 C   0  0  0  0  0  0  0  0  0  0  0  0
   29.8746   -8.0298    0.0000 C   0  0  0  0  0  0  0  0  0  0  0  0
   30.2996   -6.5913    0.0000 C   0  0  0  0  0  0  0  0  0  0  0  0
   30.5106   -5.1062    0.0000 C   0  0  0  0  0  0  0  0  0  0  0  0
   30.5031   -3.6062    0.0000 C   0  0  0  0  0  0  0  0  0  0  0  0
   30.2773   -2.1233    0.0000 C   0  0  0  0  0  0  0  0  0  0  0  0
   29.8380   -0.6891    0.0000 C   0  0  0  0  0  0  0  0  0  0  0  0
   29.1946    0.6659    0.0000 C   0  0  0  0  0  0  0  0  0  0  0  0
   28.3607    1.9128    0.0000 C   0  0  0  0  0  0  0  0  0  0  0  0
   27.3542    3.0249    0.0000 C   0  0  0  0  0  0  0  0  0  0  0  0
   26.1965    3.9787    0.0000 C   0  0  0  0  0  0  0  0  0  0  0  0
   24.9122    4.7537    0.0000 C   0  0  0  0  0  0  0  0  0  0  0  0
   23.5288    5.3335    0.0000 C   0  0  0  0  0  0  0  0  0  0  0  0
   22.0757    5.7056    0.0000 C   0  0  0  0  0  0  0  0  0  0  0  0
   20.5839    5.8623    0.0000 C   0  0  0  0  0  0  0  0  0  0  0  0
   19.0852    5.8000    0.0000 C   0  0  0  0  0  0  0  0  0  0  0  0
   17.6115    5.5202    0.0000 C   0  0  0  0  0  0  0  0  0  0  0  0
   16.1943    5.0288    0.0000 C   0  0  0  0  0  0  0  0  0  0  0  0
   14.8637    4.3363    0.0000 C   0  0  0  0  0  0  0  0  0  0  0  0
   13.6481    3.4575    0.0000 C   0  0  0  0  0  0  0  0  0  0  0  0
   12.5734    2.4110    0.0000 C   0  0  0  0  0  0  0  0  0  0  0  0
   11.6626    1.2192    0.0000 C   0  0  0  0  0  0  0  0  0  0  0  0
   10.9350   -0.0925    0.0000 C   0  0  0  0  0  0  0  0  0  0  0  0
   10.4061   -1.4962    0.0000 C   0  0  0  0  0  0  0  0  0  0  0  0
    9.8132   -0.0000    0.0000 C   0  0  0  0  0  0  0  0  0  0  0  0
    9.7133    1.3966    0.0000 C   0  0  0  0  0  0  0  0  0  0  0  0
    9.4157    2.7647    0.0000 C   0  0  0  0  0  0  0  0  0  0  0  0
    8.9264    4.0765    0.0000 C   0  0  0  0  0  0  0  0  0  0  0  0
    8.2554    5.3054    0.0000 C   0  0  0  0  0  0  0  0  0  0  0  0
    7.4163    6.4263    0.0000 C   0  0  0  0  0  0  0  0  0  0  0  0
    6.4263    7.4163    0.0000 C   0  0  0  0  0  0  0  0  0  0  0  0
    5.3054    8.2554    0.0000 C   0  0  0  0  0  0  0  0  0  0  0  0
    4.0765    8.9264    0.0000 C   0  0  0  0  0  0  0  0  0  0  0  0
    2.7647    9.4157    0.0000 C   0  0  0  0  0  0  0  0  0  0  0  0
    1.3966    9.7133    0.0000 C   0  0  0  0  0  0  0  0  0  0  0  0
    0.0000    9.8132    0.0000 C   0  0  0  0  0  0  0  0  0  0  0  0
   -1.3966    9.7133    0.0000 C   0  0  0  0  0  0  0  0  0  0  0  0
   -2.7647    9.4157    0.0000 C   0  0  0  0  0  0  0  0  0  0  0  0
   -4.0765    8.9264    0.0000 C   0  0  0  0  0  0  0  0  0  0  0  0
   -5.3054    8.2554    0.0000 C   0  0  0  0  0  0  0  0  0  0  0  0
   -6.4263    7.4163    0.0000 C   0  0  0  0  0  0  0  0  0  0  0  0
   -7.4163    6.4263    0.0000 C   0  0  0  0  0  0  0  0  0  0  0  0
   -8.2554    5.3054    0.0000 C   0  0  0  0  0  0  0  0  0  0  0  0
   -8.9264    4.0765    0.0000 C   0  0  0  0  0  0  0  0  0  0  0  0
   -9.4157    2.7647    0.0000 C   0  0  0  0  0  0  0  0  0  0  0  0
   -9.7133    1.3966    0.0000 C   0  0  0  0  0  0  0  0  0  0  0  0
   -9.8132    0.0000    0.0000 C   0  0  0  0  0  0  0  0  0  0  0  0
   -9.7133   -1.3966    0.0000 C   0  0  0  0  0  0  0  0  0  0  0  0
   -9.4157   -2.7647    0.0000 C   0  0  0  0  0  0  0  0  0  0  0  0
   -8.9264   -4.0765    0.0000 C   0  0  0  0  0  0  0  0  0  0  0  0
   -8.2554   -5.3054    0.0000 C   0  0  0  0  0  0  0  0  0  0  0  0
   -7.4163   -6.4263    0.0000 C   0  0  0  0  0  0  0  0  0  0  0  0
   -6.4263   -7.4163    0.0000 C   0  0  0  0  0  0  0  0  0  0  0  0
   -5.3054   -8.2554    0.0000 C   0  0  0  0  0  0  0  0  0  0  0  0
   -4.0765   -8.9264    0.0000 C   0  0  0  0  0  0  0  0  0  0  0  0
   -2.7647   -9.4157    0.0000 C   0  0  0  0  0  0  0  0  0  0  0  0
   -1.3966   -9.7133    0.0000 C   0  0  0  0  0  0  0  0  0  0  0  0
   -0.0000   -9.8132    0.0000 C   0  0  0  0  0  0  0  0  0  0  0  0
    1.3966   -9.7133    0.0000 C   0  0  0  0  0  0  0  0  0  0  0  0
    2.7647   -9.4157    0.0000 C   0  0  0  0  0  0  0  0  0  0  0  0
    4.0765   -8.9264    0.0000 C   0  0  0  0  0  0  0  0  0  0  0  0
    5.3054   -8.2554    0.0000 C   0  0  0  0  0  0  0  0  0  0  0  0
    6.4263   -7.4163    0.0000 C   0  0  0  0  0  0  0  0  0  0  0  0
    7.4163   -6.4263    0.0000 C   0  0  0  0  0  0  0  0  0  0  0  0
    8.2554   -5.3054    0.0000 C   0  0  0  0  0  0  0  0  0  0  0  0
    8.9264   -4.0765    0.0000 C   0  0  0  0  0  0  0  0  0  0  0  0
   10.0873   -2.9619    0.0000 C   0  0  0  0  0  0  0  0  0  0  0  0
  1  2  1  0
  2  3  1  0
  3  4  1  0
  4  5  1  0
  5  6  1  0
  6  7  1  0
  7  8  1  0
  8  9  1  0
  9 10  1  0
 10 11  1  0
 11 12  1  0
 12 13  1  0
 13 14  1  0
 14 15  1  0
 15 16  1  0
 16 17  1  0
 17 18  1  0
 18 19  1  0
 19 20  1  0
 20 21  1  0
 21 22  1  0
 22 23  1  0
 23 24  1  0
 24 25  1  0
 25 26  1  0
 26 27  1  0
 27 28  1  0
 28 29  1  0
 29 30  1  0
 30 31  1  0
 31 32  1  0
 32 33  1  0
 33 34  1  0
 34 35  1  0
 35 36  1  0
 36 37  1  0
 37 38  1  0
 38 39  1  0
 39 40  1  0
 40 41  1  0
 41 42  1  0
 42 43  1  0
 43 44  1  0
 44 45  1  0
 45 46  1  0
 46 47  1  0
 47 48  1  0
 48 49  1  0
 49 50  2  0
 50 51  1  0
 51 52  2  0
 52 53  1  0
 53 54  2  0
 54 55  1  0
 55 56  2  0
 56 57  1  0
 57 58  2  0
 58 59  1  0
 59 60  2  0
 60 61  1  0
 61 62  2  0
 62 63  1  0
 63 64  2  0
 64 65  1  0
 65 66  2  0
 66 67  1  0
 67 68  2  0
 68 69  1  0
 69 70  2  0
 70 71  1  0
 71 72  2  0
 72 73  1  0
 73 74  2  0
 74 75  1  0
 75 76  2  0
 76 77  1  0
 77 78  2  0
 78 79  1  0
 79 80  2  0
 80 81  1  0
 81 82  2  0
 82 83  1  0
 83 84  2  0
 84 85  1  0
 85 86  2  0
 86  2  1  0
 86 43  1  0
M  END
>  <Title>  (941) 
idABIGgen13

$$$$

     RDKit          2D

  7  6  0  0  0  0  0  0  0  0999 V2000
    0.0000    0.0000    0.0000 C   0  0  0  0  0  0  0  0  0  0  0  0
   -0.0000   -1.5000    0.0000 C   0  0  0  0  0  0  0  0  0  0  0  0
   -0.0000   -3.0000    0.0000 C   0  0  0  0  0  0  0  0  0  0  0  0
    1.2990   -3.7500    0.0000 C   0  0  0  0  0  0  0  0  0  0  0  0
    1.2990   -5.2500    0.0000 C   0  0  0  0  0  0  0  0  0  0  0  0
    2.5981   -3.0000    0.0000 O   0  0  0  0  0  0  0  0  0  0  0  0
    3.8971   -3.7500    0.0000 C   0  0  0  0  0  0  0  0  0  0  0  0
  1  2  3  0
  2  3  1  0
  3  4  1  0
  4  5  1  0
  4  6  1  0
  6  7  1  0
M  END
>  <Title>  (942) 
idABIHgen13

$$$$

     RDKit          2D

 44 43  0  0  0  0  0  0  0  0999 V2000
    0.0000    0.0000    0.0000 C   0  0  0  0  0  0  0  0  0  0  0  0
   -0.0000   -1.5000    0.0000 C   0  0  0  0  0  0  0  0  0  0  0  0
   -0.0000   -3.0000    0.0000 C   0  0  0  0  0  0  0  0  0  0  0  0
   -0.0000   -4.5000    0.0000 C   0  0  0  0  0  0  0  0  0  0  0  0
   -0.0000   -6.0000    0.0000 C   0  0  0  0  0  0  0  0  0  0  0  0
   -0.0000   -7.5000    0.0000 C   0  0  0  0  0  0  0  0  0  0  0  0
   -0.0000   -9.0000    0.0000 C   0  0  0  0  0  0  0  0  0  0  0  0
   -0.0000  -10.5000    0.0000 C   0  0  0  0  0  0  0  0  0  0  0  0
   -0.0000  -12.0000    0.0000 C   0  0  0  0  0  0  0  0  0  0  0  0
   -0.0000  -13.5000    0.0000 C   0  0  0  0  0  0  0  0  0  0  0  0
   -0.0000  -15.0000    0.0000 C   0  0  0  0  0  0  0  0  0  0  0  0
   -0.0000  -16.5000    0.0000 C   0  0  0  0  0  0  0  0  0  0  0  0
   -0.0000  -18.0000    0.0000 C   0  0  0  0  0  0  0  0  0  0  0  0
   -0.0000  -19.5000    0.0000 C   0  0  0  0  0  0  0  0  0  0  0  0
   -0.0000  -21.0000    0.0000 C   0  0  0  0  0  0  0  0  0  0  0  0
   -0.0000  -22.5000    0.0000 C   0  0  0  0  0  0  0  0  0  0  0  0
   -0.0000  -24.0000    0.0000 C   0  0  0  0  0  0  0  0  0  0  0  0
   -0.0000  -25.5000    0.0000 C   0  0  0  0  0  0  0  0  0  0  0  0
   -0.0000  -27.0000    0.0000 C   0  0  0  0  0  0  0  0  0  0  0  0
   -0.0000  -28.5000    0.0000 C   0  0  0  0  0  0  0  0  0  0  0  0
   -0.0000  -30.0000    0.0000 C   0  0  0  0  0  0  0  0  0  0  0  0
   -0.0000  -31.5000    0.0000 C   0  0  0  0  0  0  0  0  0  0  0  0
   -0.0000  -33.0000    0.0000 C   0  0  0  0  0  0  0  0  0  0  0  0
   -0.0000  -34.5000    0.0000 C   0  0  0  0  0  0  0  0  0  0  0  0
   -0.0000  -36.0000    0.0000 C   0  0  0  0  0  0  0  0  0  0  0  0
   -0.0000  -37.5000    0.0000 C   0  0  0  0  0  0  0  0  0  0  0  0
   -0.0000  -39.0000    0.0000 C   0  0  0  0  0  0  0  0  0  0  0  0
   -0.0000  -40.5000    0.0000 C   0  0  0  0  0  0  0  0  0  0  0  0
   -0.0000  -42.0000    0.0000 C   0  0  0  0  0  0  0  0  0  0  0  0
   -0.0000  -43.5000    0.0000 C   0  0  0  0  0  0  0  0  0  0  0  0
   -0.0000  -45.0000    0.0000 C   0  0  0  0  0  0  0  0  0  0  0  0
   -0.0000  -46.5000    0.0000 C   0  0  0  0  0  0  0  0  0  0  0  0
   -0.0000  -48.0000    0.0000 C   0  0  0  0  0  0  0  0  0  0  0  0
   -0.0000  -49.5000    0.0000 C   0  0  0  0  0  0  0  0  0  0  0  0
   -0.0000  -51.0000    0.0000 C   0  0  0  0  0  0  0  0  0  0  0  0
   -0.0000  -52.5000    0.0000 C   0  0  0  0  0  0  0  0  0  0  0  0
   -0.0000  -54.0000    0.0000 C   0  0  0  0  0  0  0  0  0  0  0  0
   -0.0000  -55.5000    0.0000 C   0  0  0  0  0  0  0  0  0  0  0  0
   -0.0000  -57.0000    0.0000 C   0  0  0  0  0  0  0  0  0  0  0  0
   -0.0000  -58.5000    0.0000 C   0  0  0  0  0  0  0  0  0  0  0  0
   -0.0000  -60.0000    0.0000 C   0  0  0  0  0  0  0  0  0  0  0  0
   -0.0000  -61.5000    0.0000 C   0  0  0  0  0  0  0  0  0  0  0  0
   -0.0000  -63.0000    0.0000 C   0  0  0  0  0  0  0  0  0  0  0  0
   -0.0000  -64.5000    0.0000 C   0  0  0  0  0  0  0  0  0  0  0  0
  1  2  3  0
  2  3  1  0
  3  4  3  0
  4  5  1  0
  5  6  3  0
  6  7  1  0
  7  8  3  0
  8  9  1  0
  9 10  3  0
 10 11  1  0
 11 12  3  0
 12 13  1  0
 13 14  3  0
 14 15  1  0
 15 16  3  0
 16 17  1  0
 17 18  3  0
 18 19  1  0
 19 20  3  0
 20 21  1  0
 21 22  3  0
 22 23  1  0
 23 24  3  0
 24 25  1  0
 25 26  3  0
 26 27  1  0
 27 28  3  0
 28 29  1  0
 29 30  3  0
 30 31  1  0
 31 32  3  0
 32 33  1  0
 33 34  3  0
 34 35  1  0
 35 36  3  0
 36 37  1  0
 37 38  3  0
 38 39  1  0
 39 40  3  0
 40 41  1  0
 41 42  3  0
 42 43  1  0
 43 44  3  0
M  END
>  <Title>  (943) 
idABIIgen13

$$$$

     RDKit          2D

 71 72  0  0  0  0  0  0  0  0999 V2000
   -2.2371   -1.0554    0.0000 C   0  0  0  0  0  0  0  0  0  0  0  0
   -2.4960    0.4221    0.0000 C   0  0  0  0  0  0  0  0  0  0  0  0
   -3.9840    0.2327    0.0000 C   0  0  0  0  0  0  0  0  0  0  0  0
   -5.4832    0.1835    0.0000 C   0  0  0  0  0  0  0  0  0  0  0  0
   -6.9804    0.2749    0.0000 C   0  0  0  0  0  0  0  0  0  0  0  0
   -8.4625    0.5060    0.0000 C   0  0  0  0  0  0  0  0  0  0  0  0
   -9.9164    0.8750    0.0000 C   0  0  0  0  0  0  0  0  0  0  0  0
  -11.3294    1.3785    0.0000 C   0  0  0  0  0  0  0  0  0  0  0  0
  -12.6890    2.0120    0.0000 C   0  0  0  0  0  0  0  0  0  0  0  0
  -13.9833    2.7701    0.0000 C   0  0  0  0  0  0  0  0  0  0  0  0
  -15.2010    3.6461    0.0000 C   0  0  0  0  0  0  0  0  0  0  0  0
  -16.3313    4.6323    0.0000 C   0  0  0  0  0  0  0  0  0  0  0  0
  -17.3642    5.7199    0.0000 C   0  0  0  0  0  0  0  0  0  0  0  0
  -18.2908    6.8995    0.0000 C   0  0  0  0  0  0  0  0  0  0  0  0
  -19.1028    8.1607    0.0000 C   0  0  0  0  0  0  0  0  0  0  0  0
  -19.7932    9.4924    0.0000 C   0  0  0  0  0  0  0  0  0  0  0  0
  -20.3558   10.8829    0.0000 C   0  0  0  0  0  0  0  0  0  0  0  0
  -20.7858   12.3199    0.0000 C   0  0  0  0  0  0  0  0  0  0  0  0
  -21.0793   13.7909    0.0000 C   0  0  0  0  0  0  0  0  0  0  0  0
  -21.2337   15.2830    0.0000 C   0  0  0  0  0  0  0  0  0  0  0  0
  -21.2478   16.7829    0.0000 C   0  0  0  0  0  0  0  0  0  0  0  0
  -21.1213   18.2776    0.0000 C   0  0  0  0  0  0  0  0  0  0  0  0
  -20.8555   19.7538    0.0000 C   0  0  0  0  0  0  0  0  0  0  0  0
  -20.4526   21.1987    0.0000 C   0  0  0  0  0  0  0  0  0  0  0  0
  -19.9161   22.5995    0.0000 C   0  0  0  0  0  0  0  0  0  0  0  0
  -19.2508   23.9439    0.0000 C   0  0  0  0  0  0  0  0  0  0  0  0
  -18.4626   25.2201    0.0000 C   0  0  0  0  0  0  0  0  0  0  0  0
  -17.5583   26.4169    0.0000 C   0  0  0  0  0  0  0  0  0  0  0  0
  -16.5459   27.5237    0.0000 C   0  0  0  0  0  0  0  0  0  0  0  0
  -15.4344   28.5309    0.0000 C   0  0  0  0  0  0  0  0  0  0  0  0
  -14.2334   29.4295    0.0000 C   0  0  0  0  0  0  0  0  0  0  0  0
  -12.9535   30.2118    0.0000 C   0  0  0  0  0  0  0  0  0  0  0  0
  -11.6060   30.8707    0.0000 C   0  0  0  0  0  0  0  0  0  0  0  0
  -10.2027   31.4006    0.0000 C   0  0  0  0  0  0  0  0  0  0  0  0
   -8.7559   31.7968    0.0000 C   0  0  0  0  0  0  0  0  0  0  0  0
   -7.2785   32.0557    0.0000 C   0  0  0  0  0  0  0  0  0  0  0  0
   -5.7832   32.1751    0.0000 C   0  0  0  0  0  0  0  0  0  0  0  0
   -4.2834   32.1540    0.0000 C   0  0  0  0  0  0  0  0  0  0  0  0
   -2.7921   31.9926    0.0000 C   0  0  0  0  0  0  0  0  0  0  0  0
   -1.3225   31.6922    0.0000 C   0  0  0  0  0  0  0  0  0  0  0  0
    0.1126   31.2555    0.0000 C   0  0  0  0  0  0  0  0  0  0  0  0
    1.5004   30.6864    0.0000 C   0  0  0  0  0  0  0  0  0  0  0  0
    2.8288   29.9898    0.0000 C   0  0  0  0  0  0  0  0  0  0  0  0
    4.0862   29.1718    0.0000 C   0  0  0  0  0  0  0  0  0  0  0  0
    5.2614   28.2397    0.0000 C   0  0  0  0  0  0  0  0  0  0  0  0
    6.3442   27.2017    0.0000 C   0  0  0  0  0  0  0  0  0  0  0  0
    7.3251   26.0668    0.0000 C   0  0  0  0  0  0  0  0  0  0  0  0
    8.1953   24.8451    0.0000 C   0  0  0  0  0  0  0  0  0  0  0  0
    8.9474   23.5472    0.0000 C   0  0  0  0  0  0  0  0  0  0  0  0
    9.5746   22.1846    0.0000 C   0  0  0  0  0  0  0  0  0  0  0  0
   10.0714   20.7693    0.0000 C   0  0  0  0  0  0  0  0  0  0  0  0
   10.4335   19.3137    0.0000 C   0  0  0  0  0  0  0  0  0  0  0  0
   10.6578   17.8305    0.0000 C   0  0  0  0  0  0  0  0  0  0  0  0
   10.7421   16.3329    0.0000 C   0  0  0  0  0  0  0  0  0  0  0  0
   10.6859   14.8339    0.0000 C   0  0  0  0  0  0  0  0  0  0  0  0
   10.4895   13.3468    0.0000 C   0  0  0  0  0  0  0  0  0  0  0  0
   10.1547   11.8847    0.0000 C   0  0  0  0  0  0  0  0  0  0  0  0
    9.6845   10.4603    0.0000 C   0  0  0  0  0  0  0  0  0  0  0  0
    9.0830    9.0862    0.0000 C   0  0  0  0  0  0  0  0  0  0  0  0
    8.3554    7.7744    0.0000 C   0  0  0  0  0  0  0  0  0  0  0  0
    7.5082    6.5366    0.0000 C   0  0  0  0  0  0  0  0  0  0  0  0
    6.5489    5.3835    0.0000 C   0  0  0  0  0  0  0  0  0  0  0  0
    5.4857    4.3253    0.0000 C   0  0  0  0  0  0  0  0  0  0  0  0
    4.3282    3.3714    0.0000 C   0  0  0  0  0  0  0  0  0  0  0  0
    3.0863    2.5300    0.0000 C   0  0  0  0  0  0  0  0  0  0  0  0
    1.7712    1.8086    0.0000 C   0  0  0  0  0  0  0  0  0  0  0  0
    0.3943    1.2135    0.0000 C   0  0  0  0  0  0  0  0  0  0  0  0
    1.2760    0.0000    0.0000 C   0  0  0  0  0  0  0  0  0  0  0  0
    0.3943   -1.2135    0.0000 C   0  0  0  0  0  0  0  0  0  0  0  0
   -1.0323   -0.7500    0.0000 C   0  0  0  0  0  0  0  0  0  0  0  0
   -1.0323    0.7500    0.0000 C   0  0  0  0  0  0  0  0  0  0  0  0
  1  2  1  0
  2  3  1  0
  3  4  1  0
  4  5  1  0
  5  6  1  0
  6  7  2  0
  7  8  1  0
  8  9  1  0
  9 10  1  0
 10 11  1  0
 11 12  1  0
 12 13  1  0
 13 14  1  0
 14 15  1  0
 15 16  1  0
 16 17  1  0
 17 18  1  0
 18 19  1  0
 19 20  1  0
 20 21  1  0
 21 22  1  0
 22 23  1  0
 23 24  1  0
 24 25  1  0
 25 26  1  0
 26 27  1  0
 27 28  1  0
 28 29  1  0
 29 30  1  0
 30 31  1  0
 31 32  1  0
 32 33  1  0
 33 34  1  0
 34 35  1  0
 35 36  1  0
 36 37  1  0
 37 38  1  0
 38 39  1  0
 39 40  1  0
 40 41  1  0
 41 42  1  0
 42 43  1  0
 43 44  1  0
 44 45  1  0
 45 46  1  0
 46 47  1  0
 47 48  1  0
 48 49  2  0
 49 50  1  0
 50 51  2  0
 51 52  1  0
 52 53  2  0
 53 54  1  0
 54 55  2  0
 55 56  1  0
 56 57  2  0
 57 58  1  0
 58 59  2  0
 59 60  1  0
 60 61  2  0
 61 62  1  0
 62 63  2  0
 63 64  1  0
 64 65  2  0
 65 66  1  0
 66 67  2  0
 67 68  1  0
 68 69  2  0
 69 70  1  0
 70 71  2  0
 71  2  1  0
 71 67  1  0
M  END
>  <Title>  (944) 
idABIJgen13

$$$$

     RDKit          2D

 74 75  0  0  0  0  0  0  0  0999 V2000
   -2.2268   -1.0597    0.0000 C   0  0  0  0  0  0  0  0  0  0  0  0
   -2.4947    0.4162    0.0000 C   0  0  0  0  0  0  0  0  0  0  0  0
   -3.9811    0.2149    0.0000 C   0  0  0  0  0  0  0  0  0  0  0  0
   -5.4796    0.1476    0.0000 C   0  0  0  0  0  0  0  0  0  0  0  0
   -6.9781    0.2149    0.0000 C   0  0  0  0  0  0  0  0  0  0  0  0
   -8.4645    0.4162    0.0000 C   0  0  0  0  0  0  0  0  0  0  0  0
   -9.9269    0.7500    0.0000 C   0  0  0  0  0  0  0  0  0  0  0  0
  -11.3535    1.2135    0.0000 C   0  0  0  0  0  0  0  0  0  0  0  0
  -12.7328    1.8031    0.0000 C   0  0  0  0  0  0  0  0  0  0  0  0
  -14.0537    2.5139    0.0000 C   0  0  0  0  0  0  0  0  0  0  0  0
  -15.3055    3.3402    0.0000 C   0  0  0  0  0  0  0  0  0  0  0  0
  -16.4783    4.2754    0.0000 C   0  0  0  0  0  0  0  0  0  0  0  0
  -17.5625    5.3120    0.0000 C   0  0  0  0  0  0  0  0  0  0  0  0
  -18.5494    6.4416    0.0000 C   0  0  0  0  0  0  0  0  0  0  0  0
  -19.4311    7.6552    0.0000 C   0  0  0  0  0  0  0  0  0  0  0  0
  -20.2004    8.9428    0.0000 C   0  0  0  0  0  0  0  0  0  0  0  0
  -20.8512   10.2943    0.0000 C   0  0  0  0  0  0  0  0  0  0  0  0
  -21.3783   11.6987    0.0000 C   0  0  0  0  0  0  0  0  0  0  0  0
  -21.7773   13.1446    0.0000 C   0  0  0  0  0  0  0  0  0  0  0  0
  -22.0452   14.6205    0.0000 C   0  0  0  0  0  0  0  0  0  0  0  0
  -22.1796   16.1145    0.0000 C   0  0  0  0  0  0  0  0  0  0  0  0
  -22.1796   17.6145    0.0000 C   0  0  0  0  0  0  0  0  0  0  0  0
  -22.0452   19.1084    0.0000 C   0  0  0  0  0  0  0  0  0  0  0  0
  -21.7773   20.5843    0.0000 C   0  0  0  0  0  0  0  0  0  0  0  0
  -21.3783   22.0303    0.0000 C   0  0  0  0  0  0  0  0  0  0  0  0
  -20.8512   23.4346    0.0000 C   0  0  0  0  0  0  0  0  0  0  0  0
  -20.2004   24.7861    0.0000 C   0  0  0  0  0  0  0  0  0  0  0  0
  -19.4311   26.0737    0.0000 C   0  0  0  0  0  0  0  0  0  0  0  0
  -18.5494   27.2873    0.0000 C   0  0  0  0  0  0  0  0  0  0  0  0
  -17.5625   28.4169    0.0000 C   0  0  0  0  0  0  0  0  0  0  0  0
  -16.4783   29.4535    0.0000 C   0  0  0  0  0  0  0  0  0  0  0  0
  -15.3055   30.3887    0.0000 C   0  0  0  0  0  0  0  0  0  0  0  0
  -14.0537   31.2150    0.0000 C   0  0  0  0  0  0  0  0  0  0  0  0
  -12.7328   31.9258    0.0000 C   0  0  0  0  0  0  0  0  0  0  0  0
  -11.3535   32.5154    0.0000 C   0  0  0  0  0  0  0  0  0  0  0  0
   -9.9269   32.9789    0.0000 C   0  0  0  0  0  0  0  0  0  0  0  0
   -8.4645   33.3127    0.0000 C   0  0  0  0  0  0  0  0  0  0  0  0
   -6.9781   33.5140    0.0000 C   0  0  0  0  0  0  0  0  0  0  0  0
   -5.4796   33.5813    0.0000 C   0  0  0  0  0  0  0  0  0  0  0  0
   -3.9811   33.5140    0.0000 C   0  0  0  0  0  0  0  0  0  0  0  0
   -2.4947   33.3127    0.0000 C   0  0  0  0  0  0  0  0  0  0  0  0
   -1.0323   32.9789    0.0000 C   0  0  0  0  0  0  0  0  0  0  0  0
    0.3943   32.5154    0.0000 C   0  0  0  0  0  0  0  0  0  0  0  0
    1.7736   31.9258    0.0000 C   0  0  0  0  0  0  0  0  0  0  0  0
    3.0945   31.2150    0.0000 C   0  0  0  0  0  0  0  0  0  0  0  0
    4.3463   30.3887    0.0000 C   0  0  0  0  0  0  0  0  0  0  0  0
    5.5191   29.4535    0.0000 C   0  0  0  0  0  0  0  0  0  0  0  0
    6.6033   28.4169    0.0000 C   0  0  0  0  0  0  0  0  0  0  0  0
    7.5902   27.2873    0.0000 C   0  0  0  0  0  0  0  0  0  0  0  0
    8.4719   26.0737    0.0000 C   0  0  0  0  0  0  0  0  0  0  0  0
    9.2412   24.7861    0.0000 C   0  0  0  0  0  0  0  0  0  0  0  0
    9.8920   23.4346    0.0000 C   0  0  0  0  0  0  0  0  0  0  0  0
   10.4191   22.0303    0.0000 C   0  0  0  0  0  0  0  0  0  0  0  0
   10.8182   20.5843    0.0000 C   0  0  0  0  0  0  0  0  0  0  0  0
   11.0860   19.1084    0.0000 C   0  0  0  0  0  0  0  0  0  0  0  0
   11.2205   17.6145    0.0000 C   0  0  0  0  0  0  0  0  0  0  0  0
   11.2205   16.1145    0.0000 C   0  0  0  0  0  0  0  0  0  0  0  0
   11.0860   14.6205    0.0000 C   0  0  0  0  0  0  0  0  0  0  0  0
   10.8182   13.1446    0.0000 C   0  0  0  0  0  0  0  0  0  0  0  0
   10.4191   11.6987    0.0000 C   0  0  0  0  0  0  0  0  0  0  0  0
    9.8920   10.2943    0.0000 C   0  0  0  0  0  0  0  0  0  0  0  0
    9.2412    8.9428    0.0000 C   0  0  0  0  0  0  0  0  0  0  0  0
    8.4719    7.6552    0.0000 C   0  0  0  0  0  0  0  0  0  0  0  0
    7.5902    6.4416    0.0000 C   0  0  0  0  0  0  0  0  0  0  0  0
    6.6033    5.3120    0.0000 C   0  0  0  0  0  0  0  0  0  0  0  0
    5.5191    4.2754    0.0000 C   0  0  0  0  0  0  0  0  0  0  0  0
    4.3463    3.3402    0.0000 C   0  0  0  0  0  0  0  0  0  0  0  0
    3.0945    2.5139    0.0000 C   0  0  0  0  0  0  0  0  0  0  0  0
    1.7736    1.8031    0.0000 C   0  0  0  0  0  0  0  0  0  0  0  0
    0.3943    1.2135    0.0000 C   0  0  0  0  0  0  0  0  0  0  0  0
    1.2760    0.0000    0.0000 C   0  0  0  0  0  0  0  0  0  0  0  0
    0.3943   -1.2135    0.0000 C   0  0  0  0  0  0  0  0  0  0  0  0
   -1.0323   -0.7500    0.0000 C   0  0  0  0  0  0  0  0  0  0  0  0
   -1.0323    0.7500    0.0000 C   0  0  0  0  0  0  0  0  0  0  0  0
  1  2  1  0
  2  3  1  0
  3  4  1  0
  4  5  1  0
  5  6  1  0
  6  7  1  0
  7  8  1  0
  8  9  1  0
  9 10  1  0
 10 11  1  0
 11 12  1  0
 12 13  1  0
 13 14  1  0
 14 15  1  0
 15 16  1  0
 16 17  1  0
 17 18  1  0
 18 19  1  0
 19 20  1  0
 20 21  1  0
 21 22  1  0
 22 23  1  0
 23 24  1  0
 24 25  1  0
 25 26  1  0
 26 27  1  0
 27 28  1  0
 28 29  1  0
 29 30  1  0
 30 31  1  0
 31 32  1  0
 32 33  1  0
 33 34  1  0
 34 35  1  0
 35 36  2  0
 36 37  1  0
 37 38  2  0
 38 39  1  0
 39 40  2  0
 40 41  1  0
 41 42  2  0
 42 43  1  0
 43 44  2  0
 44 45  1  0
 45 46  2  0
 46 47  1  0
 47 48  2  0
 48 49  1  0
 49 50  2  0
 50 51  1  0
 51 52  2  0
 52 53  1  0
 53 54  2  0
 54 55  1  0
 55 56  2  0
 56 57  1  0
 57 58  2  0
 58 59  1  0
 59 60  2  0
 60 61  1  0
 61 62  2  0
 62 63  1  0
 63 64  2  0
 64 65  1  0
 65 66  2  0
 66 67  1  0
 67 68  2  0
 68 69  1  0
 69 70  2  0
 70 71  1  0
 71 72  2  0
 72 73  1  0
 73 74  2  0
 74  2  1  0
 74 70  1  0
M  END
>  <Title>  (945) 
idABIKgen13

$$$$

     RDKit          2D

  7  7  0  0  0  0  0  0  0  0999 V2000
    3.0000    0.0000    0.0000 C   0  0  0  0  0  0  0  0  0  0  0  0
    1.5000    0.0000    0.0000 C   0  0  0  0  0  0  0  0  0  0  0  0
    0.7500   -1.2990    0.0000 C   0  0  0  0  0  0  0  0  0  0  0  0
   -0.7500   -1.2990    0.0000 C   0  0  0  0  0  0  0  0  0  0  0  0
   -1.5000    0.0000    0.0000 C   0  0  0  0  0  0  0  0  0  0  0  0
   -0.7500    1.2990    0.0000 C   0  0  0  0  0  0  0  0  0  0  0  0
    0.7500    1.2990    0.0000 C   0  0  0  0  0  0  0  0  0  0  0  0
  1  2  1  0
  2  3  2  0
  3  4  1  0
  4  5  2  0
  5  6  1  0
  6  7  2  0
  7  2  1  0
M  END
>  <Title>  (946) 
idABILgen13

$$$$

     RDKit          2D

 41 46  0  0  0  0  0  0  0  0999 V2000
   -2.3737   -6.1885    0.0000 C   0  0  0  0  0  0  0  0  0  0  0  0
   -1.4095   -5.0395    0.0000 C   0  0  0  0  0  0  0  0  0  0  0  0
   -0.0000   -5.5525    0.0000 C   0  0  0  0  0  0  0  0  0  0  0  0
    1.4095   -5.0395    0.0000 C   0  0  0  0  0  0  0  0  0  0  0  0
    2.1595   -3.7404    0.0000 C   0  0  0  0  0  0  0  0  0  0  0  0
    1.8991   -2.2632    0.0000 C   0  0  0  0  0  0  0  0  0  0  0  0
    3.1981   -1.5132    0.0000 C   0  0  0  0  0  0  0  0  0  0  0  0
    3.1981   -0.0132    0.0000 O   0  0  0  0  0  0  0  0  0  0  0  0
    4.4971   -2.2632    0.0000 N   0  0  0  0  0  0  0  0  0  0  0  0
    5.7962   -1.5132    0.0000 C   0  0  0  0  0  0  0  0  0  0  0  0
    5.9530   -0.0214    0.0000 N   0  0  0  0  0  0  0  0  0  0  0  0
    7.4202    0.2904    0.0000 N   0  0  0  0  0  0  0  0  0  0  0  0
    8.1702   -1.0086    0.0000 N   0  0  0  0  0  0  0  0  0  0  0  0
    7.1665   -2.1233    0.0000 N   0  0  0  0  0  0  0  0  0  0  0  0
    7.4784   -3.5905    0.0000 C   0  0  0  0  0  0  0  0  0  0  0  0
    8.8487   -4.2007    0.0000 C   0  0  0  0  0  0  0  0  0  0  0  0
    8.6919   -5.6924    0.0000 C   0  0  0  0  0  0  0  0  0  0  0  0
    7.2247   -6.0043    0.0000 C   0  0  0  0  0  0  0  0  0  0  0  0
    6.6146   -7.3746    0.0000 C   0  0  0  0  0  0  0  0  0  0  0  0
    7.4962   -8.5881    0.0000 O   0  0  0  0  0  0  0  0  0  0  0  0
    5.1228   -7.5314    0.0000 N   0  0  0  0  0  0  0  0  0  0  0  0
    4.5127   -8.9017    0.0000 C   0  0  0  0  0  0  0  0  0  0  0  0
    3.0209   -9.0585    0.0000 N   0  0  0  0  0  0  0  0  0  0  0  0
    2.4108  -10.4288    0.0000 N   0  0  0  0  0  0  0  0  0  0  0  0
    3.2925  -11.6424    0.0000 N   0  0  0  0  0  0  0  0  0  0  0  0
    4.7843  -11.4856    0.0000 N   0  0  0  0  0  0  0  0  0  0  0  0
    5.3944  -10.1153    0.0000 N   0  0  0  0  0  0  0  0  0  0  0  0
    6.4747   -4.7053    0.0000 C   0  0  0  0  0  0  0  0  0  0  0  0
    4.9829   -4.5485    0.0000 O   0  0  0  0  0  0  0  0  0  0  0  0
    0.7500   -1.2990    0.0000 C   0  0  0  0  0  0  0  0  0  0  0  0
    1.5000    0.0000    0.0000 C   0  0  0  0  0  0  0  0  0  0  0  0
    0.7500    1.2990    0.0000 C   0  0  0  0  0  0  0  0  0  0  0  0
   -0.7500    1.2990    0.0000 C   0  0  0  0  0  0  0  0  0  0  0  0
   -1.5000    0.0000    0.0000 C   0  0  0  0  0  0  0  0  0  0  0  0
   -0.7500   -1.2990    0.0000 C   0  0  0  0  0  0  0  0  0  0  0  0
   -1.8991   -2.2632    0.0000 C   0  0  0  0  0  0  0  0  0  0  0  0
   -3.0481   -1.2990    0.0000 C   0  0  0  0  0  0  0  0  0  0  0  0
   -4.4577   -1.8121    0.0000 C   0  0  0  0  0  0  0  0  0  0  0  0
   -4.7181   -3.2893    0.0000 C   0  0  0  0  0  0  0  0  0  0  0  0
   -3.5691   -4.2535    0.0000 C   0  0  0  0  0  0  0  0  0  0  0  0
   -2.1595   -3.7404    0.0000 C   0  0  0  0  0  0  0  0  0  0  0  0
  1  2  1  0
  2  3  1  0
  3  4  2  0
  4  5  1  0
  5  6  1  0
  6  7  1  0
  7  8  2  0
  7  9  1  0
  9 10  1  0
 10 11  2  0
 11 12  1  0
 12 13  2  0
 13 14  1  0
 14 15  1  0
 15 16  2  0
 16 17  1  0
 17 18  2  0
 18 19  1  0
 19 20  2  0
 19 21  1  0
 21 22  1  0
 22 23  2  0
 23 24  1  0
 24 25  2  0
 25 26  1  0
 26 27  2  0
 18 28  1  0
 28 29  2  0
  6 30  1  0
 30 31  2  0
 31 32  1  0
 32 33  2  0
 33 34  1  0
 34 35  2  0
 35 36  1  0
 36 37  2  0
 37 38  1  0
 38 39  2  0
 39 40  1  0
 40 41  2  0
 41  2  1  0
 14 10  1  0
 28 15  1  0
 35 30  1  0
 41 36  1  0
 27 22  1  0
M  END
>  <Title>  (947) 
idABIMgen13

$$$$

     RDKit          2D

  8  7  0  0  0  0  0  0  0  0999 V2000
    0.0000    0.0000    0.0000 C   0  0  0  0  0  0  0  0  0  0  0  0
    1.2990    0.7500    0.0000 C   0  0  0  0  0  0  0  0  0  0  0  0
    2.5981   -0.0000    0.0000 C   0  0  0  0  0  0  0  0  0  0  0  0
    3.8971    0.7500    0.0000 C   0  0  0  0  0  0  0  0  0  0  0  0
    5.1962   -0.0000    0.0000 C   0  0  0  0  0  0  0  0  0  0  0  0
    6.4952    0.7500    0.0000 C   0  0  0  0  0  0  0  0  0  0  0  0
    7.7942   -0.0000    0.0000 C   0  0  0  0  0  0  0  0  0  0  0  0
    6.4952    2.2500    0.0000 C   0  0  0  0  0  0  0  0  0  0  0  0
  1  2  1  0
  2  3  1  0
  3  4  1  0
  4  5  1  0
  5  6  1  0
  6  7  1  0
  6  8  1  0
M  END
>  <Title>  (948) 
idABINgen13

$$$$

     RDKit          2D

 12 11  0  0  0  0  0  0  0  0999 V2000
    0.0000    0.0000    0.0000 C   0  0  0  0  0  0  0  0  0  0  0  0
    1.2990    0.7500    0.0000 C   0  0  0  0  0  0  0  0  0  0  0  0
    2.5981   -0.0000    0.0000 C   0  0  0  0  0  0  0  0  0  0  0  0
    3.8971    0.7500    0.0000 C   0  0  0  0  0  0  0  0  0  0  0  0
    5.1962   -0.0000    0.0000 C   0  0  0  0  0  0  0  0  0  0  0  0
    6.4952    0.7500    0.0000 C   0  0  0  0  0  0  0  0  0  0  0  0
    5.1962   -1.5000    0.0000 N   0  0  0  0  0  0  0  0  0  0  0  0
    6.4952   -2.2500    0.0000 C   0  0  0  0  0  0  0  0  0  0  0  0
    7.7942   -1.5000    0.0000 O   0  0  0  0  0  0  0  0  0  0  0  0
    6.4952   -3.7500    0.0000 C   0  0  0  0  0  0  0  0  0  0  0  0
    7.7942   -4.5000    0.0000 C   0  0  0  0  0  0  0  0  0  0  0  0
    7.7942   -6.0000    0.0000 C   0  0  0  0  0  0  0  0  0  0  0  0
  1  2  2  0
  2  3  1  0
  3  4  1  0
  4  5  1  0
  5  6  1  0
  5  7  1  0
  7  8  1  0
  8  9  2  0
  8 10  1  0
 10 11  1  0
 11 12  1  0
M  END
>  <Title>  (949) 
idABIOgen13

$$$$

     RDKit          2D

  7  7  0  0  0  0  0  0  0  0999 V2000
    3.0000    0.0000    0.0000 C   0  0  0  0  0  0  0  0  0  0  0  0
    1.5000    0.0000    0.0000 C   0  0  0  0  0  0  0  0  0  0  0  0
    0.7500   -1.2990    0.0000 C   0  0  0  0  0  0  0  0  0  0  0  0
   -0.7500   -1.2990    0.0000 C   0  0  0  0  0  0  0  0  0  0  0  0
   -1.5000    0.0000    0.0000 C   0  0  0  0  0  0  0  0  0  0  0  0
   -0.7500    1.2990    0.0000 C   0  0  0  0  0  0  0  0  0  0  0  0
    0.7500    1.2990    0.0000 O   0  0  0  0  0  0  0  0  0  0  0  0
  1  2  1  0
  2  3  1  0
  3  4  2  0
  4  5  1  0
  5  6  1  0
  6  7  1  0
  7  2  1  0
M  END
>  <Title>  (950) 
idABIPgen13

$$$$

     RDKit          2D

 48 47  0  0  0  0  0  0  0  0999 V2000
    0.0000    0.0000    0.0000 C   0  0  0  0  0  0  0  0  0  0  0  0
   -0.0000   -1.5000    0.0000 C   0  0  0  0  0  0  0  0  0  0  0  0
   -0.0000   -3.0000    0.0000 C   0  0  0  0  0  0  0  0  0  0  0  0
   -0.0000   -4.5000    0.0000 C   0  0  0  0  0  0  0  0  0  0  0  0
   -0.0000   -6.0000    0.0000 C   0  0  0  0  0  0  0  0  0  0  0  0
   -0.0000   -7.5000    0.0000 C   0  0  0  0  0  0  0  0  0  0  0  0
   -0.0000   -9.0000    0.0000 C   0  0  0  0  0  0  0  0  0  0  0  0
   -0.0000  -10.5000    0.0000 C   0  0  0  0  0  0  0  0  0  0  0  0
   -0.0000  -12.0000    0.0000 C   0  0  0  0  0  0  0  0  0  0  0  0
   -0.0000  -13.5000    0.0000 C   0  0  0  0  0  0  0  0  0  0  0  0
   -0.0000  -15.0000    0.0000 C   0  0  0  0  0  0  0  0  0  0  0  0
   -0.0000  -16.5000    0.0000 C   0  0  0  0  0  0  0  0  0  0  0  0
   -0.0000  -18.0000    0.0000 C   0  0  0  0  0  0  0  0  0  0  0  0
   -0.0000  -19.5000    0.0000 C   0  0  0  0  0  0  0  0  0  0  0  0
   -0.0000  -21.0000    0.0000 C   0  0  0  0  0  0  0  0  0  0  0  0
   -0.0000  -22.5000    0.0000 C   0  0  0  0  0  0  0  0  0  0  0  0
   -0.0000  -24.0000    0.0000 C   0  0  0  0  0  0  0  0  0  0  0  0
   -0.0000  -25.5000    0.0000 C   0  0  0  0  0  0  0  0  0  0  0  0
   -0.0000  -27.0000    0.0000 C   0  0  0  0  0  0  0  0  0  0  0  0
   -0.0000  -28.5000    0.0000 C   0  0  0  0  0  0  0  0  0  0  0  0
   -0.0000  -30.0000    0.0000 C   0  0  0  0  0  0  0  0  0  0  0  0
   -0.0000  -31.5000    0.0000 C   0  0  0  0  0  0  0  0  0  0  0  0
   -0.0000  -33.0000    0.0000 C   0  0  0  0  0  0  0  0  0  0  0  0
   -0.0000  -34.5000    0.0000 C   0  0  0  0  0  0  0  0  0  0  0  0
   -0.0000  -36.0000    0.0000 C   0  0  0  0  0  0  0  0  0  0  0  0
   -0.0000  -37.5000    0.0000 C   0  0  0  0  0  0  0  0  0  0  0  0
   -0.0000  -39.0000    0.0000 C   0  0  0  0  0  0  0  0  0  0  0  0
   -0.0000  -40.5000    0.0000 C   0  0  0  0  0  0  0  0  0  0  0  0
   -0.0000  -42.0000    0.0000 C   0  0  0  0  0  0  0  0  0  0  0  0
   -0.0000  -43.5000    0.0000 C   0  0  0  0  0  0  0  0  0  0  0  0
   -0.0000  -45.0000    0.0000 C   0  0  0  0  0  0  0  0  0  0  0  0
   -0.0000  -46.5000    0.0000 C   0  0  0  0  0  0  0  0  0  0  0  0
   -0.0000  -48.0000    0.0000 C   0  0  0  0  0  0  0  0  0  0  0  0
   -0.0000  -49.5000    0.0000 C   0  0  0  0  0  0  0  0  0  0  0  0
   -0.0000  -51.0000    0.0000 C   0  0  0  0  0  0  0  0  0  0  0  0
   -0.0000  -52.5000    0.0000 C   0  0  0  0  0  0  0  0  0  0  0  0
   -0.0000  -54.0000    0.0000 C   0  0  0  0  0  0  0  0  0  0  0  0
   -0.0000  -55.5000    0.0000 C   0  0  0  0  0  0  0  0  0  0  0  0
   -0.0000  -57.0000    0.0000 C   0  0  0  0  0  0  0  0  0  0  0  0
   -0.0000  -58.5000    0.0000 C   0  0  0  0  0  0  0  0  0  0  0  0
   -0.0000  -60.0000    0.0000 C   0  0  0  0  0  0  0  0  0  0  0  0
   -0.0000  -61.5000    0.0000 C   0  0  0  0  0  0  0  0  0  0  0  0
   -0.0000  -63.0000    0.0000 C   0  0  0  0  0  0  0  0  0  0  0  0
   -0.0000  -64.5000    0.0000 C   0  0  0  0  0  0  0  0  0  0  0  0
   -0.0000  -66.0000    0.0000 C   0  0  0  0  0  0  0  0  0  0  0  0
   -0.0000  -67.5000    0.0000 C   0  0  0  0  0  0  0  0  0  0  0  0
   -0.0000  -69.0000    0.0000 C   0  0  0  0  0  0  0  0  0  0  0  0
   -0.0000  -70.5000    0.0000 C   0  0  0  0  0  0  0  0  0  0  0  0
  1  2  3  0
  2  3  1  0
  3  4  3  0
  4  5  1  0
  5  6  3  0
  6  7  1  0
  7  8  3  0
  8  9  1  0
  9 10  3  0
 10 11  1  0
 11 12  3  0
 12 13  1  0
 13 14  3  0
 14 15  1  0
 15 16  3  0
 16 17  1  0
 17 18  3  0
 18 19  1  0
 19 20  3  0
 20 21  1  0
 21 22  3  0
 22 23  1  0
 23 24  3  0
 24 25  1  0
 25 26  3  0
 26 27  1  0
 27 28  3  0
 28 29  1  0
 29 30  3  0
 30 31  1  0
 31 32  3  0
 32 33  1  0
 33 34  3  0
 34 35  1  0
 35 36  3  0
 36 37  1  0
 37 38  3  0
 38 39  1  0
 39 40  3  0
 40 41  1  0
 41 42  3  0
 42 43  1  0
 43 44  3  0
 44 45  1  0
 45 46  3  0
 46 47  1  0
 47 48  3  0
M  END
>  <Title>  (951) 
idABIQgen13

$$$$

     RDKit          2D

 66 65  0  0  0  0  0  0  0  0999 V2000
    0.0000    0.0000    0.0000 C   0  0  0  0  0  0  0  0  0  0  0  0
   -0.0000   -1.5000    0.0000 C   0  0  0  0  0  0  0  0  0  0  0  0
   -0.0000   -3.0000    0.0000 C   0  0  0  0  0  0  0  0  0  0  0  0
   -0.0000   -4.5000    0.0000 C   0  0  0  0  0  0  0  0  0  0  0  0
   -0.0000   -6.0000    0.0000 C   0  0  0  0  0  0  0  0  0  0  0  0
   -0.0000   -7.5000    0.0000 C   0  0  0  0  0  0  0  0  0  0  0  0
   -0.0000   -9.0000    0.0000 C   0  0  0  0  0  0  0  0  0  0  0  0
   -0.0000  -10.5000    0.0000 C   0  0  0  0  0  0  0  0  0  0  0  0
   -0.0000  -12.0000    0.0000 C   0  0  0  0  0  0  0  0  0  0  0  0
   -0.0000  -13.5000    0.0000 C   0  0  0  0  0  0  0  0  0  0  0  0
   -0.0000  -15.0000    0.0000 C   0  0  0  0  0  0  0  0  0  0  0  0
   -0.0000  -16.5000    0.0000 C   0  0  0  0  0  0  0  0  0  0  0  0
   -0.0000  -18.0000    0.0000 C   0  0  0  0  0  0  0  0  0  0  0  0
   -0.0000  -19.5000    0.0000 C   0  0  0  0  0  0  0  0  0  0  0  0
   -0.0000  -21.0000    0.0000 C   0  0  0  0  0  0  0  0  0  0  0  0
   -0.0000  -22.5000    0.0000 C   0  0  0  0  0  0  0  0  0  0  0  0
   -0.0000  -24.0000    0.0000 C   0  0  0  0  0  0  0  0  0  0  0  0
   -0.0000  -25.5000    0.0000 C   0  0  0  0  0  0  0  0  0  0  0  0
   -0.0000  -27.0000    0.0000 C   0  0  0  0  0  0  0  0  0  0  0  0
   -0.0000  -28.5000    0.0000 C   0  0  0  0  0  0  0  0  0  0  0  0
   -0.0000  -30.0000    0.0000 C   0  0  0  0  0  0  0  0  0  0  0  0
   -0.0000  -31.5000    0.0000 C   0  0  0  0  0  0  0  0  0  0  0  0
   -0.0000  -33.0000    0.0000 C   0  0  0  0  0  0  0  0  0  0  0  0
   -0.0000  -34.5000    0.0000 C   0  0  0  0  0  0  0  0  0  0  0  0
   -0.0000  -36.0000    0.0000 C   0  0  0  0  0  0  0  0  0  0  0  0
   -0.0000  -37.5000    0.0000 C   0  0  0  0  0  0  0  0  0  0  0  0
   -0.0000  -39.0000    0.0000 C   0  0  0  0  0  0  0  0  0  0  0  0
   -0.0000  -40.5000    0.0000 C   0  0  0  0  0  0  0  0  0  0  0  0
   -0.0000  -42.0000    0.0000 C   0  0  0  0  0  0  0  0  0  0  0  0
   -0.0000  -43.5000    0.0000 C   0  0  0  0  0  0  0  0  0  0  0  0
   -0.0000  -45.0000    0.0000 C   0  0  0  0  0  0  0  0  0  0  0  0
   -0.0000  -46.5000    0.0000 C   0  0  0  0  0  0  0  0  0  0  0  0
   -0.0000  -48.0000    0.0000 C   0  0  0  0  0  0  0  0  0  0  0  0
   -0.0000  -49.5000    0.0000 C   0  0  0  0  0  0  0  0  0  0  0  0
   -0.0000  -51.0000    0.0000 C   0  0  0  0  0  0  0  0  0  0  0  0
   -0.0000  -52.5000    0.0000 C   0  0  0  0  0  0  0  0  0  0  0  0
   -0.0000  -54.0000    0.0000 C   0  0  0  0  0  0  0  0  0  0  0  0
   -0.0000  -55.5000    0.0000 C   0  0  0  0  0  0  0  0  0  0  0  0
   -0.0000  -57.0000    0.0000 C   0  0  0  0  0  0  0  0  0  0  0  0
   -0.0000  -58.5000    0.0000 C   0  0  0  0  0  0  0  0  0  0  0  0
   -0.0000  -60.0000    0.0000 C   0  0  0  0  0  0  0  0  0  0  0  0
   -0.0000  -61.5000    0.0000 C   0  0  0  0  0  0  0  0  0  0  0  0
   -0.0000  -63.0000    0.0000 C   0  0  0  0  0  0  0  0  0  0  0  0
   -0.0000  -64.5000    0.0000 C   0  0  0  0  0  0  0  0  0  0  0  0
   -0.0000  -66.0000    0.0000 C   0  0  0  0  0  0  0  0  0  0  0  0
   -0.0000  -67.5000    0.0000 C   0  0  0  0  0  0  0  0  0  0  0  0
   -0.0000  -69.0000    0.0000 C   0  0  0  0  0  0  0  0  0  0  0  0
   -0.0000  -70.5000    0.0000 C   0  0  0  0  0  0  0  0  0  0  0  0
   -0.0000  -72.0000    0.0000 C   0  0  0  0  0  0  0  0  0  0  0  0
   -0.0000  -73.5000    0.0000 C   0  0  0  0  0  0  0  0  0  0  0  0
   -0.0000  -75.0000    0.0000 C   0  0  0  0  0  0  0  0  0  0  0  0
   -0.0000  -76.5000    0.0000 C   0  0  0  0  0  0  0  0  0  0  0  0
   -0.0000  -78.0000    0.0000 C   0  0  0  0  0  0  0  0  0  0  0  0
   -0.0000  -79.5000    0.0000 C   0  0  0  0  0  0  0  0  0  0  0  0
   -0.0000  -81.0000    0.0000 C   0  0  0  0  0  0  0  0  0  0  0  0
   -0.0000  -82.5000    0.0000 C   0  0  0  0  0  0  0  0  0  0  0  0
   -0.0000  -84.0000    0.0000 C   0  0  0  0  0  0  0  0  0  0  0  0
   -0.0000  -85.5000    0.0000 C   0  0  0  0  0  0  0  0  0  0  0  0
   -0.0000  -87.0000    0.0000 C   0  0  0  0  0  0  0  0  0  0  0  0
   -0.0000  -88.5000    0.0000 C   0  0  0  0  0  0  0  0  0  0  0  0
   -0.0000  -90.0000    0.0000 C   0  0  0  0  0  0  0  0  0  0  0  0
   -0.0000  -91.5000    0.0000 C   0  0  0  0  0  0  0  0  0  0  0  0
   -0.0000  -93.0000    0.0000 C   0  0  0  0  0  0  0  0  0  0  0  0
   -0.0000  -94.5000    0.0000 C   0  0  0  0  0  0  0  0  0  0  0  0
   -0.0000  -96.0000    0.0000 C   0  0  0  0  0  0  0  0  0  0  0  0
   -0.0000  -97.5000    0.0000 C   0  0  0  0  0  0  0  0  0  0  0  0
  1  2  3  0
  2  3  1  0
  3  4  3  0
  4  5  1  0
  5  6  3  0
  6  7  1  0
  7  8  3  0
  8  9  1  0
  9 10  3  0
 10 11  1  0
 11 12  3  0
 12 13  1  0
 13 14  3  0
 14 15  1  0
 15 16  3  0
 16 17  1  0
 17 18  3  0
 18 19  1  0
 19 20  3  0
 20 21  1  0
 21 22  3  0
 22 23  1  0
 23 24  3  0
 24 25  1  0
 25 26  3  0
 26 27  1  0
 27 28  3  0
 28 29  1  0
 29 30  3  0
 30 31  1  0
 31 32  3  0
 32 33  1  0
 33 34  3  0
 34 35  1  0
 35 36  3  0
 36 37  1  0
 37 38  3  0
 38 39  1  0
 39 40  3  0
 40 41  1  0
 41 42  3  0
 42 43  1  0
 43 44  3  0
 44 45  1  0
 45 46  3  0
 46 47  1  0
 47 48  3  0
 48 49  1  0
 49 50  3  0
 50 51  1  0
 51 52  3  0
 52 53  1  0
 53 54  3  0
 54 55  1  0
 55 56  3  0
 56 57  1  0
 57 58  3  0
 58 59  1  0
 59 60  3  0
 60 61  1  0
 61 62  3  0
 62 63  1  0
 63 64  3  0
 64 65  1  0
 65 66  3  0
M  END
>  <Title>  (952) 
idABIRgen13

$$$$

     RDKit          2D

106108  0  0  0  0  0  0  0  0999 V2000
    9.4644    7.7329    0.0000 C   0  0  0  0  0  0  0  0  0  0  0  0
   10.9368    7.4465    0.0000 C   0  0  0  0  0  0  0  0  0  0  0  0
   11.3054    8.9005    0.0000 C   0  0  0  0  0  0  0  0  0  0  0  0
   11.8344   10.3041    0.0000 C   0  0  0  0  0  0  0  0  0  0  0  0
   12.5173   11.6396    0.0000 C   0  0  0  0  0  0  0  0  0  0  0  0
   13.3455   12.8903    0.0000 C   0  0  0  0  0  0  0  0  0  0  0  0
   14.3084   14.0404    0.0000 C   0  0  0  0  0  0  0  0  0  0  0  0
   15.3941   15.0754    0.0000 C   0  0  0  0  0  0  0  0  0  0  0  0
   16.5889   15.9824    0.0000 C   0  0  0  0  0  0  0  0  0  0  0  0
   17.8776   16.7499    0.0000 C   0  0  0  0  0  0  0  0  0  0  0  0
   19.2442   17.3683    0.0000 C   0  0  0  0  0  0  0  0  0  0  0  0
   20.6715   17.8297    0.0000 C   0  0  0  0  0  0  0  0  0  0  0  0
   22.1414   18.1285    0.0000 C   0  0  0  0  0  0  0  0  0  0  0  0
   23.6356   18.2608    0.0000 C   0  0  0  0  0  0  0  0  0  0  0  0
   25.1352   18.2250    0.0000 C   0  0  0  0  0  0  0  0  0  0  0  0
   26.6213   18.0215    0.0000 C   0  0  0  0  0  0  0  0  0  0  0  0
   28.0753   17.6530    0.0000 C   0  0  0  0  0  0  0  0  0  0  0  0
   29.4789   17.1239    0.0000 C   0  0  0  0  0  0  0  0  0  0  0  0
   30.8144   16.4410    0.0000 C   0  0  0  0  0  0  0  0  0  0  0  0
   32.0651   15.6128    0.0000 C   0  0  0  0  0  0  0  0  0  0  0  0
   33.2152   14.6499    0.0000 C   0  0  0  0  0  0  0  0  0  0  0  0
   34.2502   13.5642    0.0000 C   0  0  0  0  0  0  0  0  0  0  0  0
   35.1572   12.3695    0.0000 C   0  0  0  0  0  0  0  0  0  0  0  0
   35.9247   11.0807    0.0000 C   0  0  0  0  0  0  0  0  0  0  0  0
   36.5431    9.7141    0.0000 C   0  0  0  0  0  0  0  0  0  0  0  0
   37.0046    8.2868    0.0000 C   0  0  0  0  0  0  0  0  0  0  0  0
   37.3033    6.8169    0.0000 C   0  0  0  0  0  0  0  0  0  0  0  0
   37.4357    5.3228    0.0000 C   0  0  0  0  0  0  0  0  0  0  0  0
   37.3999    3.8232    0.0000 C   0  0  0  0  0  0  0  0  0  0  0  0
   37.1964    2.3370    0.0000 C   0  0  0  0  0  0  0  0  0  0  0  0
   36.8278    0.8830    0.0000 C   0  0  0  0  0  0  0  0  0  0  0  0
   36.2987   -0.5206    0.0000 C   0  0  0  0  0  0  0  0  0  0  0  0
   35.6158   -1.8561    0.0000 C   0  0  0  0  0  0  0  0  0  0  0  0
   34.7877   -3.1068    0.0000 C   0  0  0  0  0  0  0  0  0  0  0  0
   33.8247   -4.2569    0.0000 C   0  0  0  0  0  0  0  0  0  0  0  0
   32.7390   -5.2919    0.0000 C   0  0  0  0  0  0  0  0  0  0  0  0
   31.5443   -6.1989    0.0000 C   0  0  0  0  0  0  0  0  0  0  0  0
   30.2555   -6.9664    0.0000 C   0  0  0  0  0  0  0  0  0  0  0  0
   28.8889   -7.5848    0.0000 C   0  0  0  0  0  0  0  0  0  0  0  0
   27.4617   -8.0462    0.0000 C   0  0  0  0  0  0  0  0  0  0  0  0
   25.9917   -8.3450    0.0000 C   0  0  0  0  0  0  0  0  0  0  0  0
   24.4976   -8.4773    0.0000 C   0  0  0  0  0  0  0  0  0  0  0  0
   22.9980   -8.4415    0.0000 C   0  0  0  0  0  0  0  0  0  0  0  0
   21.5119   -8.2381    0.0000 C   0  0  0  0  0  0  0  0  0  0  0  0
   20.0579   -7.8695    0.0000 C   0  0  0  0  0  0  0  0  0  0  0  0
   18.6543   -7.3404    0.0000 C   0  0  0  0  0  0  0  0  0  0  0  0
   17.3187   -6.6575    0.0000 C   0  0  0  0  0  0  0  0  0  0  0  0
   16.0681   -5.8293    0.0000 C   0  0  0  0  0  0  0  0  0  0  0  0
   14.9180   -4.8664    0.0000 C   0  0  0  0  0  0  0  0  0  0  0  0
   13.8829   -3.7807    0.0000 C   0  0  0  0  0  0  0  0  0  0  0  0
   12.9760   -2.5860    0.0000 C   0  0  0  0  0  0  0  0  0  0  0  0
   12.2085   -1.2972    0.0000 C   0  0  0  0  0  0  0  0  0  0  0  0
   11.5901    0.0694    0.0000 C   0  0  0  0  0  0  0  0  0  0  0  0
   11.1286    1.4967    0.0000 C   0  0  0  0  0  0  0  0  0  0  0  0
   10.5288   -0.0000    0.0000 C   0  0  0  0  0  0  0  0  0  0  0  0
   10.4348   -1.4033    0.0000 C   0  0  0  0  0  0  0  0  0  0  0  0
   10.1547   -2.7817    0.0000 C   0  0  0  0  0  0  0  0  0  0  0  0
    9.6933   -4.1103    0.0000 C   0  0  0  0  0  0  0  0  0  0  0  0
    9.0590   -5.3656    0.0000 C   0  0  0  0  0  0  0  0  0  0  0  0
    8.2630   -6.5252    0.0000 C   0  0  0  0  0  0  0  0  0  0  0  0
    7.3195   -7.5683    0.0000 C   0  0  0  0  0  0  0  0  0  0  0  0
    6.2455   -8.4764    0.0000 C   0  0  0  0  0  0  0  0  0  0  0  0
    5.0599   -9.2332    0.0000 C   0  0  0  0  0  0  0  0  0  0  0  0
    3.7841   -9.8253    0.0000 C   0  0  0  0  0  0  0  0  0  0  0  0
    2.4408  -10.2420    0.0000 C   0  0  0  0  0  0  0  0  0  0  0  0
    1.0539  -10.4759    0.0000 C   0  0  0  0  0  0  0  0  0  0  0  0
   -0.3518  -10.5229    0.0000 C   0  0  0  0  0  0  0  0  0  0  0  0
   -1.7512  -10.3821    0.0000 C   0  0  0  0  0  0  0  0  0  0  0  0
   -3.1194  -10.0561    0.0000 C   0  0  0  0  0  0  0  0  0  0  0  0
   -4.4319   -9.5506    0.0000 C   0  0  0  0  0  0  0  0  0  0  0  0
   -5.6654   -8.8746    0.0000 C   0  0  0  0  0  0  0  0  0  0  0  0
   -6.7977   -8.0403    0.0000 C   0  0  0  0  0  0  0  0  0  0  0  0
   -7.8087   -7.0625    0.0000 C   0  0  0  0  0  0  0  0  0  0  0  0
   -8.6804   -5.9587    0.0000 C   0  0  0  0  0  0  0  0  0  0  0  0
   -9.3971   -4.7486    0.0000 C   0  0  0  0  0  0  0  0  0  0  0  0
   -9.9462   -3.4537    0.0000 C   0  0  0  0  0  0  0  0  0  0  0  0
  -10.3178   -2.0972    0.0000 C   0  0  0  0  0  0  0  0  0  0  0  0
  -10.5053   -0.7032    0.0000 C   0  0  0  0  0  0  0  0  0  0  0  0
  -10.5053    0.7032    0.0000 C   0  0  0  0  0  0  0  0  0  0  0  0
  -10.3178    2.0972    0.0000 C   0  0  0  0  0  0  0  0  0  0  0  0
   -9.9462    3.4537    0.0000 C   0  0  0  0  0  0  0  0  0  0  0  0
   -9.3971    4.7486    0.0000 C   0  0  0  0  0  0  0  0  0  0  0  0
   -8.6804    5.9587    0.0000 C   0  0  0  0  0  0  0  0  0  0  0  0
   -7.8087    7.0625    0.0000 C   0  0  0  0  0  0  0  0  0  0  0  0
   -6.7977    8.0403    0.0000 C   0  0  0  0  0  0  0  0  0  0  0  0
   -5.6654    8.8746    0.0000 C   0  0  0  0  0  0  0  0  0  0  0  0
   -4.4319    9.5506    0.0000 C   0  0  0  0  0  0  0  0  0  0  0  0
   -3.1194   10.0561    0.0000 C   0  0  0  0  0  0  0  0  0  0  0  0
   -1.7512   10.3821    0.0000 C   0  0  0  0  0  0  0  0  0  0  0  0
   -0.3518   10.5229    0.0000 C   0  0  0  0  0  0  0  0  0  0  0  0
    1.0539   10.4759    0.0000 C   0  0  0  0  0  0  0  0  0  0  0  0
    2.4408   10.2420    0.0000 C   0  0  0  0  0  0  0  0  0  0  0  0
    3.7841    9.8253    0.0000 C   0  0  0  0  0  0  0  0  0  0  0  0
    5.0599    9.2332    0.0000 C   0  0  0  0  0  0  0  0  0  0  0  0
    6.2455    8.4764    0.0000 C   0  0  0  0  0  0  0  0  0  0  0  0
    7.3195    7.5683    0.0000 C   0  0  0  0  0  0  0  0  0  0  0  0
    8.2630    6.5252    0.0000 C   0  0  0  0  0  0  0  0  0  0  0  0
    9.0590    5.3656    0.0000 C   0  0  0  0  0  0  0  0  0  0  0  0
    9.6933    4.1103    0.0000 C   0  0  0  0  0  0  0  0  0  0  0  0
   10.8298    2.9666    0.0000 C   0  0  0  0  0  0  0  0  0  0  0  0
   10.6975    4.4607    0.0000 C   0  0  0  0  0  0  0  0  0  0  0  0
   11.9783    3.6800    0.0000 C   0  0  0  0  0  0  0  0  0  0  0  0
   13.2948    4.3987    0.0000 C   0  0  0  0  0  0  0  0  0  0  0  0
   13.3306    5.8983    0.0000 C   0  0  0  0  0  0  0  0  0  0  0  0
   12.0499    6.6791    0.0000 C   0  0  0  0  0  0  0  0  0  0  0  0
   10.7333    5.9603    0.0000 C   0  0  0  0  0  0  0  0  0  0  0  0
  1  2  1  0
  2  3  1  0
  3  4  2  0
  4  5  1  0
  5  6  1  0
  6  7  1  0
  7  8  1  0
  8  9  1  0
  9 10  1  0
 10 11  1  0
 11 12  1  0
 12 13  1  0
 13 14  1  0
 14 15  1  0
 15 16  1  0
 16 17  1  0
 17 18  1  0
 18 19  1  0
 19 20  1  0
 20 21  1  0
 21 22  1  0
 22 23  1  0
 23 24  1  0
 24 25  1  0
 25 26  1  0
 26 27  1  0
 27 28  1  0
 28 29  1  0
 29 30  1  0
 30 31  1  0
 31 32  1  0
 32 33  1  0
 33 34  1  0
 34 35  1  0
 35 36  1  0
 36 37  1  0
 37 38  1  0
 38 39  1  0
 39 40  1  0
 40 41  1  0
 41 42  1  0
 42 43  1  0
 43 44  1  0
 44 45  1  0
 45 46  1  0
 46 47  1  0
 47 48  1  0
 48 49  1  0
 49 50  1  0
 50 51  1  0
 51 52  1  0
 52 53  1  0
 53 54  1  0
 54 55  1  0
 55 56  1  0
 56 57  1  0
 57 58  1  0
 58 59  1  0
 59 60  1  0
 60 61  1  0
 61 62  1  0
 62 63  1  0
 63 64  1  0
 64 65  1  0
 65 66  1  0
 66 67  1  0
 67 68  1  0
 68 69  1  0
 69 70  1  0
 70 71  1  0
 71 72  1  0
 72 73  1  0
 73 74  1  0
 74 75  1  0
 75 76  1  0
 76 77  1  0
 77 78  1  0
 78 79  1  0
 79 80  2  0
 80 81  1  0
 81 82  2  0
 82 83  1  0
 83 84  2  0
 84 85  1  0
 85 86  2  0
 86 87  1  0
 87 88  2  0
 88 89  1  0
 89 90  2  0
 90 91  1  0
 91 92  2  0
 92 93  1  0
 93 94  2  0
 94 95  1  0
 95 96  2  0
 96 97  1  0
 97 98  2  0
 98 99  1  0
 99100  2  0
100101  1  0
101102  2  0
102103  1  0
103104  2  0
104105  1  0
105106  2  0
106  2  1  0
100 54  1  0
106101  1  0
M  END
>  <Title>  (953) 
idABISgen13

$$$$

     RDKit          2D

 28 28  0  0  0  0  0  0  0  0999 V2000
   34.5000    0.0000    0.0000 C   0  0  0  0  0  0  0  0  0  0  0  0
   33.0000    0.0000    0.0000 C   0  0  0  0  0  0  0  0  0  0  0  0
   31.5000    0.0000    0.0000 C   0  0  0  0  0  0  0  0  0  0  0  0
   30.0000    0.0000    0.0000 C   0  0  0  0  0  0  0  0  0  0  0  0
   28.5000    0.0000    0.0000 C   0  0  0  0  0  0  0  0  0  0  0  0
   27.0000    0.0000    0.0000 C   0  0  0  0  0  0  0  0  0  0  0  0
   25.5000    0.0000    0.0000 C   0  0  0  0  0  0  0  0  0  0  0  0
   24.0000    0.0000    0.0000 C   0  0  0  0  0  0  0  0  0  0  0  0
   22.5000    0.0000    0.0000 C   0  0  0  0  0  0  0  0  0  0  0  0
   21.0000    0.0000    0.0000 C   0  0  0  0  0  0  0  0  0  0  0  0
   19.5000    0.0000    0.0000 C   0  0  0  0  0  0  0  0  0  0  0  0
   18.0000    0.0000    0.0000 C   0  0  0  0  0  0  0  0  0  0  0  0
   16.5000    0.0000    0.0000 C   0  0  0  0  0  0  0  0  0  0  0  0
   15.0000    0.0000    0.0000 C   0  0  0  0  0  0  0  0  0  0  0  0
   13.5000    0.0000    0.0000 C   0  0  0  0  0  0  0  0  0  0  0  0
   12.0000    0.0000    0.0000 C   0  0  0  0  0  0  0  0  0  0  0  0
   10.5000    0.0000    0.0000 C   0  0  0  0  0  0  0  0  0  0  0  0
    9.0000    0.0000    0.0000 C   0  0  0  0  0  0  0  0  0  0  0  0
    7.5000    0.0000    0.0000 C   0  0  0  0  0  0  0  0  0  0  0  0
    6.0000    0.0000    0.0000 C   0  0  0  0  0  0  0  0  0  0  0  0
    4.5000    0.0000    0.0000 C   0  0  0  0  0  0  0  0  0  0  0  0
    3.0000    0.0000    0.0000 C   0  0  0  0  0  0  0  0  0  0  0  0
    1.5000    0.0000    0.0000 C   0  0  0  0  0  0  0  0  0  0  0  0
    0.7500   -1.2990    0.0000 C   0  0  0  0  0  0  0  0  0  0  0  0
   -0.7500   -1.2990    0.0000 C   0  0  0  0  0  0  0  0  0  0  0  0
   -1.5000    0.0000    0.0000 C   0  0  0  0  0  0  0  0  0  0  0  0
   -0.7500    1.2990    0.0000 C   0  0  0  0  0  0  0  0  0  0  0  0
    0.7500    1.2990    0.0000 C   0  0  0  0  0  0  0  0  0  0  0  0
  1  2  3  0
  2  3  1  0
  3  4  3  0
  4  5  1  0
  5  6  3  0
  6  7  1  0
  7  8  3  0
  8  9  1  0
  9 10  3  0
 10 11  1  0
 11 12  3  0
 12 13  1  0
 13 14  3  0
 14 15  1  0
 15 16  3  0
 16 17  1  0
 17 18  3  0
 18 19  1  0
 19 20  3  0
 20 21  1  0
 21 22  3  0
 22 23  1  0
 23 24  2  0
 24 25  1  0
 25 26  2  0
 26 27  1  0
 27 28  2  0
 28 23  1  0
M  END
>  <Title>  (954) 
idABITgen13

$$$$

     RDKit          2D

  5  4  0  0  0  0  0  0  0  0999 V2000
    0.0000    0.0000    0.0000 C   0  0  0  0  0  0  0  0  0  0  0  0
    1.2990    0.7500    0.0000 C   0  0  0  0  0  0  0  0  0  0  0  0
    2.5981   -0.0000    0.0000 C   0  0  0  0  0  0  0  0  0  0  0  0
    3.8971    0.7500    0.0000 C   0  0  0  0  0  0  0  0  0  0  0  0
    5.1962   -0.0000    0.0000 C   0  0  0  0  0  0  0  0  0  0  0  0
  1  2  1  0
  2  3  2  3
  3  4  1  0
  4  5  1  0
M  END
>  <Title>  (955) 
idABIUgen13

$$$$

     RDKit          2D

 84 86  0  0  0  0  0  0  0  0999 V2000
   -0.0224    6.6370    0.0000 C   0  0  0  0  0  0  0  0  0  0  0  0
    1.4444    6.9509    0.0000 C   0  0  0  0  0  0  0  0  0  0  0  0
    1.2029    8.4313    0.0000 C   0  0  0  0  0  0  0  0  0  0  0  0
    1.1077    9.9283    0.0000 C   0  0  0  0  0  0  0  0  0  0  0  0
    1.1597   11.4274    0.0000 C   0  0  0  0  0  0  0  0  0  0  0  0
    1.3583   12.9142    0.0000 C   0  0  0  0  0  0  0  0  0  0  0  0
    1.7017   14.3743    0.0000 C   0  0  0  0  0  0  0  0  0  0  0  0
    2.1866   15.7938    0.0000 C   0  0  0  0  0  0  0  0  0  0  0  0
    2.8083   17.1589    0.0000 C   0  0  0  0  0  0  0  0  0  0  0  0
    3.5608   18.4565    0.0000 C   0  0  0  0  0  0  0  0  0  0  0  0
    4.4369   19.6741    0.0000 C   0  0  0  0  0  0  0  0  0  0  0  0
    5.4281   20.7999    0.0000 C   0  0  0  0  0  0  0  0  0  0  0  0
    6.5248   21.8232    0.0000 C   0  0  0  0  0  0  0  0  0  0  0  0
    7.7166   22.7341    0.0000 C   0  0  0  0  0  0  0  0  0  0  0  0
    8.9920   23.5237    0.0000 C   0  0  0  0  0  0  0  0  0  0  0  0
   10.3385   24.1845    0.0000 C   0  0  0  0  0  0  0  0  0  0  0  0
   11.7434   24.7102    0.0000 C   0  0  0  0  0  0  0  0  0  0  0  0
   13.1930   25.0957    0.0000 C   0  0  0  0  0  0  0  0  0  0  0  0
   14.6735   25.3371    0.0000 C   0  0  0  0  0  0  0  0  0  0  0  0
   16.1705   25.4324    0.0000 C   0  0  0  0  0  0  0  0  0  0  0  0
   17.6696   25.3804    0.0000 C   0  0  0  0  0  0  0  0  0  0  0  0
   19.1563   25.1818    0.0000 C   0  0  0  0  0  0  0  0  0  0  0  0
   20.6165   24.8383    0.0000 C   0  0  0  0  0  0  0  0  0  0  0  0
   22.0360   24.3534    0.0000 C   0  0  0  0  0  0  0  0  0  0  0  0
   23.4011   23.7317    0.0000 C   0  0  0  0  0  0  0  0  0  0  0  0
   24.6987   22.9792    0.0000 C   0  0  0  0  0  0  0  0  0  0  0  0
   25.9162   22.1032    0.0000 C   0  0  0  0  0  0  0  0  0  0  0  0
   27.0421   21.1120    0.0000 C   0  0  0  0  0  0  0  0  0  0  0  0
   28.0654   20.0152    0.0000 C   0  0  0  0  0  0  0  0  0  0  0  0
   28.9762   18.8234    0.0000 C   0  0  0  0  0  0  0  0  0  0  0  0
   29.7659   17.5481    0.0000 C   0  0  0  0  0  0  0  0  0  0  0  0
   30.4267   16.2015    0.0000 C   0  0  0  0  0  0  0  0  0  0  0  0
   30.9524   14.7967    0.0000 C   0  0  0  0  0  0  0  0  0  0  0  0
   31.3378   13.3470    0.0000 C   0  0  0  0  0  0  0  0  0  0  0  0
   31.5793   11.8666    0.0000 C   0  0  0  0  0  0  0  0  0  0  0  0
   31.6745   10.3696    0.0000 C   0  0  0  0  0  0  0  0  0  0  0  0
   31.6226    8.8705    0.0000 C   0  0  0  0  0  0  0  0  0  0  0  0
   31.4239    7.3837    0.0000 C   0  0  0  0  0  0  0  0  0  0  0  0
   31.0805    5.9236    0.0000 C   0  0  0  0  0  0  0  0  0  0  0  0
   30.5956    4.5041    0.0000 C   0  0  0  0  0  0  0  0  0  0  0  0
   29.9739    3.1390    0.0000 C   0  0  0  0  0  0  0  0  0  0  0  0
   29.2214    1.8414    0.0000 C   0  0  0  0  0  0  0  0  0  0  0  0
   28.3454    0.6238    0.0000 C   0  0  0  0  0  0  0  0  0  0  0  0
   27.3542   -0.5020    0.0000 C   0  0  0  0  0  0  0  0  0  0  0  0
   26.2574   -1.5253    0.0000 C   0  0  0  0  0  0  0  0  0  0  0  0
   25.0656   -2.4361    0.0000 C   0  0  0  0  0  0  0  0  0  0  0  0
   23.7903   -3.2258    0.0000 C   0  0  0  0  0  0  0  0  0  0  0  0
   22.4437   -3.8866    0.0000 C   0  0  0  0  0  0  0  0  0  0  0  0
   21.0388   -4.4123    0.0000 C   0  0  0  0  0  0  0  0  0  0  0  0
   19.5892   -4.7978    0.0000 C   0  0  0  0  0  0  0  0  0  0  0  0
   18.1088   -5.0392    0.0000 C   0  0  0  0  0  0  0  0  0  0  0  0
   16.6118   -5.1345    0.0000 C   0  0  0  0  0  0  0  0  0  0  0  0
   15.1127   -5.0825    0.0000 C   0  0  0  0  0  0  0  0  0  0  0  0
   13.6259   -4.8839    0.0000 C   0  0  0  0  0  0  0  0  0  0  0  0
   12.1657   -4.5404    0.0000 C   0  0  0  0  0  0  0  0  0  0  0  0
   10.7463   -4.0555    0.0000 C   0  0  0  0  0  0  0  0  0  0  0  0
    9.3812   -3.4338    0.0000 C   0  0  0  0  0  0  0  0  0  0  0  0
    8.0836   -2.6813    0.0000 C   0  0  0  0  0  0  0  0  0  0  0  0
    6.8660   -1.8053    0.0000 C   0  0  0  0  0  0  0  0  0  0  0  0
    5.7401   -0.8141    0.0000 C   0  0  0  0  0  0  0  0  0  0  0  0
    4.7169    0.2827    0.0000 C   0  0  0  0  0  0  0  0  0  0  0  0
    3.8060    1.4745    0.0000 C   0  0  0  0  0  0  0  0  0  0  0  0
    3.3816   -0.0000    0.0000 C   0  0  0  0  0  0  0  0  0  0  0  0
    3.1533   -1.2216    0.0000 C   0  0  0  0  0  0  0  0  0  0  0  0
    2.4991   -2.2782    0.0000 C   0  0  0  0  0  0  0  0  0  0  0  0
    1.5073   -3.0271    0.0000 C   0  0  0  0  0  0  0  0  0  0  0  0
    0.3120   -3.3672    0.0000 C   0  0  0  0  0  0  0  0  0  0  0  0
   -0.9254   -3.2526    0.0000 C   0  0  0  0  0  0  0  0  0  0  0  0
   -2.0379   -2.6986    0.0000 C   0  0  0  0  0  0  0  0  0  0  0  0
   -2.8751   -1.7802    0.0000 C   0  0  0  0  0  0  0  0  0  0  0  0
   -3.3241   -0.6214    0.0000 C   0  0  0  0  0  0  0  0  0  0  0  0
   -3.3241    0.6214    0.0000 C   0  0  0  0  0  0  0  0  0  0  0  0
   -2.8751    1.7802    0.0000 C   0  0  0  0  0  0  0  0  0  0  0  0
   -2.0379    2.6986    0.0000 C   0  0  0  0  0  0  0  0  0  0  0  0
   -0.9254    3.2526    0.0000 C   0  0  0  0  0  0  0  0  0  0  0  0
    0.3120    3.3672    0.0000 C   0  0  0  0  0  0  0  0  0  0  0  0
    1.5073    3.0271    0.0000 C   0  0  0  0  0  0  0  0  0  0  0  0
    3.0164    2.7498    0.0000 C   0  0  0  0  0  0  0  0  0  0  0  0
    2.3555    4.0964    0.0000 C   0  0  0  0  0  0  0  0  0  0  0  0
    3.8350    3.8492    0.0000 C   0  0  0  0  0  0  0  0  0  0  0  0
    4.7888    5.0069    0.0000 C   0  0  0  0  0  0  0  0  0  0  0  0
    4.2632    6.4117    0.0000 C   0  0  0  0  0  0  0  0  0  0  0  0
    2.7837    6.6589    0.0000 C   0  0  0  0  0  0  0  0  0  0  0  0
    1.8299    5.5012    0.0000 C   0  0  0  0  0  0  0  0  0  0  0  0
  1  2  1  0
  2  3  1  0
  3  4  1  0
  4  5  1  0
  5  6  1  0
  6  7  1  0
  7  8  1  0
  8  9  1  0
  9 10  1  0
 10 11  1  0
 11 12  1  0
 12 13  1  0
 13 14  1  0
 14 15  1  0
 15 16  1  0
 16 17  1  0
 17 18  1  0
 18 19  1  0
 19 20  1  0
 20 21  1  0
 21 22  1  0
 22 23  1  0
 23 24  1  0
 24 25  1  0
 25 26  1  0
 26 27  1  0
 27 28  1  0
 28 29  1  0
 29 30  1  0
 30 31  1  0
 31 32  1  0
 32 33  1  0
 33 34  1  0
 34 35  1  0
 35 36  1  0
 36 37  1  0
 37 38  1  0
 38 39  1  0
 39 40  1  0
 40 41  1  0
 41 42  1  0
 42 43  1  0
 43 44  1  0
 44 45  1  0
 45 46  1  0
 46 47  1  0
 47 48  1  0
 48 49  1  0
 49 50  1  0
 50 51  1  0
 51 52  1  0
 52 53  1  0
 53 54  1  0
 54 55  1  0
 55 56  1  0
 56 57  1  0
 57 58  1  0
 58 59  1  0
 59 60  1  0
 60 61  1  0
 61 62  1  0
 62 63  1  0
 63 64  2  0
 64 65  1  0
 65 66  2  0
 66 67  1  0
 67 68  2  0
 68 69  1  0
 69 70  2  0
 70 71  1  0
 71 72  2  0
 72 73  1  0
 73 74  2  0
 74 75  1  0
 75 76  2  0
 76 77  1  0
 77 78  2  0
 78 79  1  0
 79 80  2  0
 80 81  1  0
 81 82  2  0
 82 83  1  0
 83 84  2  0
 84  2  1  0
 78 62  1  0
 84 79  1  0
M  END
>  <Title>  (956) 
idABIVgen13

$$$$

     RDKit          2D

 22 23  0  0  0  0  0  0  0  0999 V2000
   -4.9023   -9.1838    0.0000 C   0  0  0  0  0  0  0  0  0  0  0  0
   -4.4388   -7.7572    0.0000 C   0  0  0  0  0  0  0  0  0  0  0  0
   -2.9716   -7.4453    0.0000 C   0  0  0  0  0  0  0  0  0  0  0  0
   -2.5081   -6.0187    0.0000 C   0  0  0  0  0  0  0  0  0  0  0  0
   -1.0409   -5.7068    0.0000 C   0  0  0  0  0  0  0  0  0  0  0  0
   -0.0372   -6.8216    0.0000 O   0  0  0  0  0  0  0  0  0  0  0  0
   -0.5773   -4.2803    0.0000 N   0  0  0  0  0  0  0  0  0  0  0  0
    0.8899   -3.9684    0.0000 C   0  0  0  0  0  0  0  0  0  0  0  0
    2.0046   -4.9721    0.0000 N   0  0  0  0  0  0  0  0  0  0  0  0
    3.3037   -4.2221    0.0000 N   0  0  0  0  0  0  0  0  0  0  0  0
    2.9918   -2.7549    0.0000 N   0  0  0  0  0  0  0  0  0  0  0  0
    1.5000   -2.5981    0.0000 N   0  0  0  0  0  0  0  0  0  0  0  0
    0.7500   -1.2990    0.0000 C   0  0  0  0  0  0  0  0  0  0  0  0
    1.5000    0.0000    0.0000 C   0  0  0  0  0  0  0  0  0  0  0  0
    0.7500    1.2990    0.0000 C   0  0  0  0  0  0  0  0  0  0  0  0
   -0.7500    1.2990    0.0000 C   0  0  0  0  0  0  0  0  0  0  0  0
   -1.5000    0.0000    0.0000 C   0  0  0  0  0  0  0  0  0  0  0  0
   -3.0000    0.0000    0.0000 C   0  0  0  0  0  0  0  0  0  0  0  0
   -3.7500    1.2990    0.0000 C   0  0  0  0  0  0  0  0  0  0  0  0
   -3.7500   -1.2990    0.0000 O   0  0  0  0  0  0  0  0  0  0  0  0
   -0.7500   -1.2990    0.0000 C   0  0  0  0  0  0  0  0  0  0  0  0
   -1.5000   -2.5981    0.0000 O   0  0  0  0  0  0  0  0  0  0  0  0
  1  2  2  0
  2  3  1  0
  3  4  1  0
  4  5  1  0
  5  6  2  0
  5  7  1  0
  7  8  1  0
  8  9  2  0
  9 10  1  0
 10 11  2  0
 11 12  1  0
 12 13  1  0
 13 14  2  0
 14 15  1  0
 15 16  2  0
 16 17  1  0
 17 18  1  0
 18 19  1  0
 18 20  2  0
 17 21  1  0
 21 22  2  0
 12  8  1  0
 21 13  1  0
M  END
>  <Title>  (957) 
idABIWgen13

$$$$

     RDKit          2D

 34 33  0  0  0  0  0  0  0  0999 V2000
    0.0000    0.0000    0.0000 C   0  0  0  0  0  0  0  0  0  0  0  0
   -0.0000   -1.5000    0.0000 C   0  0  0  0  0  0  0  0  0  0  0  0
   -0.0000   -3.0000    0.0000 C   0  0  0  0  0  0  0  0  0  0  0  0
   -0.0000   -4.5000    0.0000 C   0  0  0  0  0  0  0  0  0  0  0  0
   -0.0000   -6.0000    0.0000 C   0  0  0  0  0  0  0  0  0  0  0  0
   -0.0000   -7.5000    0.0000 C   0  0  0  0  0  0  0  0  0  0  0  0
   -0.0000   -9.0000    0.0000 C   0  0  0  0  0  0  0  0  0  0  0  0
   -0.0000  -10.5000    0.0000 C   0  0  0  0  0  0  0  0  0  0  0  0
   -0.0000  -12.0000    0.0000 C   0  0  0  0  0  0  0  0  0  0  0  0
   -0.0000  -13.5000    0.0000 C   0  0  0  0  0  0  0  0  0  0  0  0
   -0.0000  -15.0000    0.0000 C   0  0  0  0  0  0  0  0  0  0  0  0
   -0.0000  -16.5000    0.0000 C   0  0  0  0  0  0  0  0  0  0  0  0
   -0.0000  -18.0000    0.0000 C   0  0  0  0  0  0  0  0  0  0  0  0
   -0.0000  -19.5000    0.0000 C   0  0  0  0  0  0  0  0  0  0  0  0
   -0.0000  -21.0000    0.0000 C   0  0  0  0  0  0  0  0  0  0  0  0
   -0.0000  -22.5000    0.0000 C   0  0  0  0  0  0  0  0  0  0  0  0
   -0.0000  -24.0000    0.0000 C   0  0  0  0  0  0  0  0  0  0  0  0
   -0.0000  -25.5000    0.0000 C   0  0  0  0  0  0  0  0  0  0  0  0
   -0.0000  -27.0000    0.0000 C   0  0  0  0  0  0  0  0  0  0  0  0
   -0.0000  -28.5000    0.0000 C   0  0  0  0  0  0  0  0  0  0  0  0
   -0.0000  -30.0000    0.0000 C   0  0  0  0  0  0  0  0  0  0  0  0
   -0.0000  -31.5000    0.0000 C   0  0  0  0  0  0  0  0  0  0  0  0
   -0.0000  -33.0000    0.0000 C   0  0  0  0  0  0  0  0  0  0  0  0
   -0.0000  -34.5000    0.0000 C   0  0  0  0  0  0  0  0  0  0  0  0
   -0.0000  -36.0000    0.0000 C   0  0  0  0  0  0  0  0  0  0  0  0
   -0.0000  -37.5000    0.0000 C   0  0  0  0  0  0  0  0  0  0  0  0
   -0.0000  -39.0000    0.0000 C   0  0  0  0  0  0  0  0  0  0  0  0
   -0.0000  -40.5000    0.0000 C   0  0  0  0  0  0  0  0  0  0  0  0
   -0.0000  -42.0000    0.0000 C   0  0  0  0  0  0  0  0  0  0  0  0
   -0.0000  -43.5000    0.0000 C   0  0  0  0  0  0  0  0  0  0  0  0
   -0.0000  -45.0000    0.0000 C   0  0  0  0  0  0  0  0  0  0  0  0
   -0.0000  -46.5000    0.0000 C   0  0  0  0  0  0  0  0  0  0  0  0
   -0.0000  -48.0000    0.0000 C   0  0  0  0  0  0  0  0  0  0  0  0
   -0.0000  -49.5000    0.0000 C   0  0  0  0  0  0  0  0  0  0  0  0
  1  2  3  0
  2  3  1  0
  3  4  3  0
  4  5  1  0
  5  6  3  0
  6  7  1  0
  7  8  3  0
  8  9  1  0
  9 10  3  0
 10 11  1  0
 11 12  3  0
 12 13  1  0
 13 14  3  0
 14 15  1  0
 15 16  3  0
 16 17  1  0
 17 18  3  0
 18 19  1  0
 19 20  3  0
 20 21  1  0
 21 22  3  0
 22 23  1  0
 23 24  3  0
 24 25  1  0
 25 26  3  0
 26 27  1  0
 27 28  3  0
 28 29  1  0
 29 30  3  0
 30 31  1  0
 31 32  3  0
 32 33  1  0
 33 34  3  0
M  END
>  <Title>  (958) 
idABIXgen13

$$$$

     RDKit          2D

 33 37  0  0  0  0  0  0  0  0999 V2000
   -3.1965   -1.7857    0.0000 C   0  0  0  0  0  0  0  0  0  0  0  0
   -1.8107   -2.3597    0.0000 C   0  0  0  0  0  0  0  0  0  0  0  0
   -1.8107   -3.8597    0.0000 C   0  0  0  0  0  0  0  0  0  0  0  0
   -0.7500   -4.9204    0.0000 C   0  0  0  0  0  0  0  0  0  0  0  0
    0.7500   -4.9204    0.0000 C   0  0  0  0  0  0  0  0  0  0  0  0
    1.8107   -3.8597    0.0000 C   0  0  0  0  0  0  0  0  0  0  0  0
    1.8107   -2.3597    0.0000 C   0  0  0  0  0  0  0  0  0  0  0  0
    3.1965   -1.7857    0.0000 C   0  0  0  0  0  0  0  0  0  0  0  0
    3.3923   -0.2985    0.0000 O   0  0  0  0  0  0  0  0  0  0  0  0
    4.3865   -2.6988    0.0000 N   0  0  0  0  0  0  0  0  0  0  0  0
    5.7723   -2.1248    0.0000 C   0  0  0  0  0  0  0  0  0  0  0  0
    6.1225   -0.6662    0.0000 N   0  0  0  0  0  0  0  0  0  0  0  0
    7.6179   -0.5485    0.0000 N   0  0  0  0  0  0  0  0  0  0  0  0
    8.1919   -1.9344    0.0000 N   0  0  0  0  0  0  0  0  0  0  0  0
    7.0513   -2.9085    0.0000 N   0  0  0  0  0  0  0  0  0  0  0  0
    7.1690   -4.4039    0.0000 C   0  0  0  0  0  0  0  0  0  0  0  0
    8.4479   -5.1877    0.0000 C   0  0  0  0  0  0  0  0  0  0  0  0
    8.0978   -6.6462    0.0000 C   0  0  0  0  0  0  0  0  0  0  0  0
    6.6024   -6.7639    0.0000 C   0  0  0  0  0  0  0  0  0  0  0  0
    5.8186   -8.0429    0.0000 N   0  0  0  0  0  0  0  0  0  0  0  0
    4.3192   -8.0036    0.0000 C   0  0  0  0  0  0  0  0  0  0  0  0
    3.5354   -9.2826    0.0000 C   0  0  0  0  0  0  0  0  0  0  0  0
    4.2512  -10.6008    0.0000 N   0  0  0  0  0  0  0  0  0  0  0  0
    5.7506  -10.6401    0.0000 N   0  0  0  0  0  0  0  0  0  0  0  0
    6.5344   -9.3611    0.0000 N   0  0  0  0  0  0  0  0  0  0  0  0
    6.0284   -5.3781    0.0000 C   0  0  0  0  0  0  0  0  0  0  0  0
    4.5698   -5.0279    0.0000 O   0  0  0  0  0  0  0  0  0  0  0  0
    0.7500   -1.2990    0.0000 C   0  0  0  0  0  0  0  0  0  0  0  0
    1.5000    0.0000    0.0000 C   0  0  0  0  0  0  0  0  0  0  0  0
    0.7500    1.2990    0.0000 C   0  0  0  0  0  0  0  0  0  0  0  0
   -0.7500    1.2990    0.0000 C   0  0  0  0  0  0  0  0  0  0  0  0
   -1.5000    0.0000    0.0000 C   0  0  0  0  0  0  0  0  0  0  0  0
   -0.7500   -1.2990    0.0000 C   0  0  0  0  0  0  0  0  0  0  0  0
  1  2  1  0
  2  3  1  0
  3  4  1  0
  4  5  1  0
  5  6  1  0
  6  7  1  0
  7  8  1  0
  8  9  2  0
  8 10  1  0
 10 11  1  0
 11 12  2  0
 12 13  1  0
 13 14  2  0
 14 15  1  0
 15 16  1  0
 16 17  2  0
 17 18  1  0
 18 19  2  0
 19 20  1  0
 20 21  1  0
 21 22  1  0
 22 23  2  0
 23 24  1  0
 24 25  2  0
 19 26  1  0
 26 27  2  0
  7 28  1  0
 28 29  2  0
 29 30  1  0
 30 31  2  0
 31 32  1  0
 32 33  2  0
 33  2  1  0
 15 11  1  0
 26 16  1  0
 33 28  1  0
 25 20  1  0
M  END
>  <Title>  (959) 
idABIYgen13

$$$$

     RDKit          2D

 84 85  0  0  0  0  0  0  0  0999 V2000
   -2.1982   -1.0713    0.0000 C   0  0  0  0  0  0  0  0  0  0  0  0
   -2.4908    0.3998    0.0000 C   0  0  0  0  0  0  0  0  0  0  0  0
   -3.9724    0.1652    0.0000 C   0  0  0  0  0  0  0  0  0  0  0  0
   -5.4677    0.0475    0.0000 C   0  0  0  0  0  0  0  0  0  0  0  0
   -6.9677    0.0475    0.0000 C   0  0  0  0  0  0  0  0  0  0  0  0
   -8.4631    0.1652    0.0000 C   0  0  0  0  0  0  0  0  0  0  0  0
   -9.9447    0.3998    0.0000 C   0  0  0  0  0  0  0  0  0  0  0  0
  -11.4032    0.7500    0.0000 C   0  0  0  0  0  0  0  0  0  0  0  0
  -12.8298    1.2135    0.0000 C   0  0  0  0  0  0  0  0  0  0  0  0
  -14.2156    1.7876    0.0000 C   0  0  0  0  0  0  0  0  0  0  0  0
  -15.5521    2.4685    0.0000 C   0  0  0  0  0  0  0  0  0  0  0  0
  -16.8311    3.2523    0.0000 C   0  0  0  0  0  0  0  0  0  0  0  0
  -18.0446    4.1340    0.0000 C   0  0  0  0  0  0  0  0  0  0  0  0
  -19.1852    5.1081    0.0000 C   0  0  0  0  0  0  0  0  0  0  0  0
  -20.2459    6.1688    0.0000 C   0  0  0  0  0  0  0  0  0  0  0  0
  -21.2201    7.3094    0.0000 C   0  0  0  0  0  0  0  0  0  0  0  0
  -22.1017    8.5229    0.0000 C   0  0  0  0  0  0  0  0  0  0  0  0
  -22.8855    9.8019    0.0000 C   0  0  0  0  0  0  0  0  0  0  0  0
  -23.5665   11.1384    0.0000 C   0  0  0  0  0  0  0  0  0  0  0  0
  -24.1405   12.5242    0.0000 C   0  0  0  0  0  0  0  0  0  0  0  0
  -24.6040   13.9508    0.0000 C   0  0  0  0  0  0  0  0  0  0  0  0
  -24.9542   15.4094    0.0000 C   0  0  0  0  0  0  0  0  0  0  0  0
  -25.1888   16.8909    0.0000 C   0  0  0  0  0  0  0  0  0  0  0  0
  -25.3065   18.3863    0.0000 C   0  0  0  0  0  0  0  0  0  0  0  0
  -25.3065   19.8863    0.0000 C   0  0  0  0  0  0  0  0  0  0  0  0
  -25.1888   21.3816    0.0000 C   0  0  0  0  0  0  0  0  0  0  0  0
  -24.9542   22.8632    0.0000 C   0  0  0  0  0  0  0  0  0  0  0  0
  -24.6040   24.3217    0.0000 C   0  0  0  0  0  0  0  0  0  0  0  0
  -24.1405   25.7483    0.0000 C   0  0  0  0  0  0  0  0  0  0  0  0
  -23.5665   27.1341    0.0000 C   0  0  0  0  0  0  0  0  0  0  0  0
  -22.8855   28.4706    0.0000 C   0  0  0  0  0  0  0  0  0  0  0  0
  -22.1017   29.7496    0.0000 C   0  0  0  0  0  0  0  0  0  0  0  0
  -21.2201   30.9631    0.0000 C   0  0  0  0  0  0  0  0  0  0  0  0
  -20.2459   32.1037    0.0000 C   0  0  0  0  0  0  0  0  0  0  0  0
  -19.1852   33.1644    0.0000 C   0  0  0  0  0  0  0  0  0  0  0  0
  -18.0446   34.1386    0.0000 C   0  0  0  0  0  0  0  0  0  0  0  0
  -16.8311   35.0202    0.0000 C   0  0  0  0  0  0  0  0  0  0  0  0
  -15.5521   35.8040    0.0000 C   0  0  0  0  0  0  0  0  0  0  0  0
  -14.2156   36.4850    0.0000 C   0  0  0  0  0  0  0  0  0  0  0  0
  -12.8298   37.0590    0.0000 C   0  0  0  0  0  0  0  0  0  0  0  0
  -11.4032   37.5225    0.0000 C   0  0  0  0  0  0  0  0  0  0  0  0
   -9.9447   37.8727    0.0000 C   0  0  0  0  0  0  0  0  0  0  0  0
   -8.4631   38.1074    0.0000 C   0  0  0  0  0  0  0  0  0  0  0  0
   -6.9677   38.2250    0.0000 C   0  0  0  0  0  0  0  0  0  0  0  0
   -5.4677   38.2250    0.0000 C   0  0  0  0  0  0  0  0  0  0  0  0
   -3.9724   38.1074    0.0000 C   0  0  0  0  0  0  0  0  0  0  0  0
   -2.4908   37.8727    0.0000 C   0  0  0  0  0  0  0  0  0  0  0  0
   -1.0323   37.5225    0.0000 C   0  0  0  0  0  0  0  0  0  0  0  0
    0.3943   37.0590    0.0000 C   0  0  0  0  0  0  0  0  0  0  0  0
    1.7801   36.4850    0.0000 C   0  0  0  0  0  0  0  0  0  0  0  0
    3.1166   35.8040    0.0000 C   0  0  0  0  0  0  0  0  0  0  0  0
    4.3956   35.0202    0.0000 C   0  0  0  0  0  0  0  0  0  0  0  0
    5.6091   34.1386    0.0000 C   0  0  0  0  0  0  0  0  0  0  0  0
    6.7497   33.1644    0.0000 C   0  0  0  0  0  0  0  0  0  0  0  0
    7.8104   32.1037    0.0000 C   0  0  0  0  0  0  0  0  0  0  0  0
    8.7846   30.9631    0.0000 C   0  0  0  0  0  0  0  0  0  0  0  0
    9.6662   29.7496    0.0000 C   0  0  0  0  0  0  0  0  0  0  0  0
   10.4500   28.4706    0.0000 C   0  0  0  0  0  0  0  0  0  0  0  0
   11.1310   27.1341    0.0000 C   0  0  0  0  0  0  0  0  0  0  0  0
   11.7050   25.7483    0.0000 C   0  0  0  0  0  0  0  0  0  0  0  0
   12.1685   24.3217    0.0000 C   0  0  0  0  0  0  0  0  0  0  0  0
   12.5187   22.8632    0.0000 C   0  0  0  0  0  0  0  0  0  0  0  0
   12.7533   21.3816    0.0000 C   0  0  0  0  0  0  0  0  0  0  0  0
   12.8710   19.8863    0.0000 C   0  0  0  0  0  0  0  0  0  0  0  0
   12.8710   18.3863    0.0000 C   0  0  0  0  0  0  0  0  0  0  0  0
   12.7533   16.8909    0.0000 C   0  0  0  0  0  0  0  0  0  0  0  0
   12.5187   15.4094    0.0000 C   0  0  0  0  0  0  0  0  0  0  0  0
   12.1685   13.9508    0.0000 C   0  0  0  0  0  0  0  0  0  0  0  0
   11.7050   12.5242    0.0000 C   0  0  0  0  0  0  0  0  0  0  0  0
   11.1310   11.1384    0.0000 C   0  0  0  0  0  0  0  0  0  0  0  0
   10.4500    9.8019    0.0000 C   0  0  0  0  0  0  0  0  0  0  0  0
    9.6662    8.5229    0.0000 C   0  0  0  0  0  0  0  0  0  0  0  0
    8.7846    7.3094    0.0000 C   0  0  0  0  0  0  0  0  0  0  0  0
    7.8104    6.1688    0.0000 C   0  0  0  0  0  0  0  0  0  0  0  0
    6.7497    5.1081    0.0000 C   0  0  0  0  0  0  0  0  0  0  0  0
    5.6091    4.1340    0.0000 C   0  0  0  0  0  0  0  0  0  0  0  0
    4.3956    3.2523    0.0000 C   0  0  0  0  0  0  0  0  0  0  0  0
    3.1166    2.4685    0.0000 C   0  0  0  0  0  0  0  0  0  0  0  0
    1.7801    1.7876    0.0000 C   0  0  0  0  0  0  0  0  0  0  0  0
    0.3943    1.2135    0.0000 C   0  0  0  0  0  0  0  0  0  0  0  0
    1.2760    0.0000    0.0000 C   0  0  0  0  0  0  0  0  0  0  0  0
    0.3943   -1.2135    0.0000 C   0  0  0  0  0  0  0  0  0  0  0  0
   -1.0323   -0.7500    0.0000 C   0  0  0  0  0  0  0  0  0  0  0  0
   -1.0323    0.7500    0.0000 C   0  0  0  0  0  0  0  0  0  0  0  0
  1  2  1  0
  2  3  1  0
  3  4  1  0
  4  5  1  0
  5  6  1  0
  6  7  1  0
  7  8  1  0
  8  9  1  0
  9 10  1  0
 10 11  1  0
 11 12  1  0
 12 13  1  0
 13 14  1  0
 14 15  1  0
 15 16  1  0
 16 17  1  0
 17 18  1  0
 18 19  1  0
 19 20  1  0
 20 21  1  0
 21 22  1  0
 22 23  1  0
 23 24  1  0
 24 25  1  0
 25 26  1  0
 26 27  1  0
 27 28  1  0
 28 29  1  0
 29 30  1  0
 30 31  1  0
 31 32  1  0
 32 33  1  0
 33 34  1  0
 34 35  1  0
 35 36  1  0
 36 37  1  0
 37 38  1  0
 38 39  1  0
 39 40  1  0
 40 41  1  0
 41 42  1  0
 42 43  1  0
 43 44  1  0
 44 45  1  0
 45 46  1  0
 46 47  1  0
 47 48  1  0
 48 49  1  0
 49 50  1  0
 50 51  1  0
 51 52  1  0
 52 53  1  0
 53 54  1  0
 54 55  1  0
 55 56  2  0
 56 57  1  0
 57 58  2  0
 58 59  1  0
 59 60  2  0
 60 61  1  0
 61 62  2  0
 62 63  1  0
 63 64  2  0
 64 65  1  0
 65 66  2  0
 66 67  1  0
 67 68  2  0
 68 69  1  0
 69 70  2  0
 70 71  1  0
 71 72  2  0
 72 73  1  0
 73 74  2  0
 74 75  1  0
 75 76  2  0
 76 77  1  0
 77 78  2  0
 78 79  1  0
 79 80  2  0
 80 81  1  0
 81 82  2  0
 82 83  1  0
 83 84  2  0
 84  2  1  0
 84 80  1  0
M  END
>  <Title>  (960) 
idABIZgen13

$$$$

     RDKit          2D

 36 40  0  0  0  0  0  0  0  0999 V2000
   -5.2500   -3.8971    0.0000 C   0  0  0  0  0  0  0  0  0  0  0  0
   -3.7500   -3.8971    0.0000 C   0  0  0  0  0  0  0  0  0  0  0  0
   -3.0000   -2.5981    0.0000 C   0  0  0  0  0  0  0  0  0  0  0  0
   -1.5000   -2.5981    0.0000 C   0  0  0  0  0  0  0  0  0  0  0  0
   -0.7500   -3.8971    0.0000 C   0  0  0  0  0  0  0  0  0  0  0  0
    0.7500   -3.8971    0.0000 C   0  0  0  0  0  0  0  0  0  0  0  0
    1.5000   -2.5981    0.0000 C   0  0  0  0  0  0  0  0  0  0  0  0
    3.0000   -2.5981    0.0000 C   0  0  0  0  0  0  0  0  0  0  0  0
    3.7500   -1.2990    0.0000 O   0  0  0  0  0  0  0  0  0  0  0  0
    3.7500   -3.8971    0.0000 N   0  0  0  0  0  0  0  0  0  0  0  0
    5.2500   -3.8971    0.0000 C   0  0  0  0  0  0  0  0  0  0  0  0
    6.1317   -2.6836    0.0000 N   0  0  0  0  0  0  0  0  0  0  0  0
    7.5583   -3.1471    0.0000 N   0  0  0  0  0  0  0  0  0  0  0  0
    7.5583   -4.6471    0.0000 N   0  0  0  0  0  0  0  0  0  0  0  0
    6.1317   -5.1106    0.0000 N   0  0  0  0  0  0  0  0  0  0  0  0
    5.6682   -6.5372    0.0000 N   0  0  0  0  0  0  0  0  0  0  0  0
    6.5498   -7.7508    0.0000 C   0  0  0  0  0  0  0  0  0  0  0  0
    5.6682   -8.9643    0.0000 C   0  0  0  0  0  0  0  0  0  0  0  0
    4.2416   -8.5008    0.0000 N   0  0  0  0  0  0  0  0  0  0  0  0
    3.0280   -9.3824    0.0000 C   0  0  0  0  0  0  0  0  0  0  0  0
    3.1848  -10.8742    0.0000 O   0  0  0  0  0  0  0  0  0  0  0  0
    1.6577   -8.7723    0.0000 N   0  0  0  0  0  0  0  0  0  0  0  0
    0.4442   -9.6540    0.0000 C   0  0  0  0  0  0  0  0  0  0  0  0
   -0.9261   -9.0439    0.0000 N   0  0  0  0  0  0  0  0  0  0  0  0
   -2.1396   -9.9256    0.0000 N   0  0  0  0  0  0  0  0  0  0  0  0
   -1.9829  -11.4174    0.0000 N   0  0  0  0  0  0  0  0  0  0  0  0
   -0.6125  -12.0275    0.0000 N   0  0  0  0  0  0  0  0  0  0  0  0
    0.6010  -11.1458    0.0000 N   0  0  0  0  0  0  0  0  0  0  0  0
    4.2416   -7.0008    0.0000 C   0  0  0  0  0  0  0  0  0  0  0  0
    3.0280   -6.1191    0.0000 O   0  0  0  0  0  0  0  0  0  0  0  0
    0.7500   -1.2990    0.0000 C   0  0  0  0  0  0  0  0  0  0  0  0
    1.5000    0.0000    0.0000 C   0  0  0  0  0  0  0  0  0  0  0  0
    0.7500    1.2990    0.0000 C   0  0  0  0  0  0  0  0  0  0  0  0
   -0.7500    1.2990    0.0000 C   0  0  0  0  0  0  0  0  0  0  0  0
   -1.5000    0.0000    0.0000 C   0  0  0  0  0  0  0  0  0  0  0  0
   -0.7500   -1.2990    0.0000 C   0  0  0  0  0  0  0  0  0  0  0  0
  1  2  1  0
  2  3  1  0
  3  4  1  0
  4  5  2  0
  5  6  1  0
  6  7  1  0
  7  8  1  0
  8  9  2  0
  8 10  1  0
 10 11  1  0
 11 12  2  0
 12 13  1  0
 13 14  2  0
 14 15  1  0
 15 16  1  0
 16 17  1  0
 17 18  1  0
 18 19  1  0
 19 20  1  0
 20 21  2  0
 20 22  1  0
 22 23  1  0
 23 24  2  0
 24 25  1  0
 25 26  2  0
 26 27  1  0
 27 28  2  0
 19 29  1  0
 29 30  2  0
  7 31  1  0
 31 32  2  0
 32 33  1  0
 33 34  2  0
 34 35  1  0
 35 36  2  0
 36  4  1  0
 15 11  1  0
 29 16  1  0
 36 31  1  0
 28 23  1  0
M  END
>  <Title>  (961) 
idABJAgen13

$$$$

     RDKit          2D

 80 81  0  0  0  0  0  0  0  0999 V2000
   -2.2088   -1.0671    0.0000 C   0  0  0  0  0  0  0  0  0  0  0  0
   -2.4923    0.4059    0.0000 C   0  0  0  0  0  0  0  0  0  0  0  0
   -3.9757    0.1835    0.0000 C   0  0  0  0  0  0  0  0  0  0  0  0
   -5.4724    0.0843    0.0000 C   0  0  0  0  0  0  0  0  0  0  0  0
   -6.9722    0.1091    0.0000 C   0  0  0  0  0  0  0  0  0  0  0  0
   -8.4648    0.2577    0.0000 C   0  0  0  0  0  0  0  0  0  0  0  0
   -9.9401    0.5290    0.0000 C   0  0  0  0  0  0  0  0  0  0  0  0
  -11.3879    0.9212    0.0000 C   0  0  0  0  0  0  0  0  0  0  0  0
  -12.7984    1.4317    0.0000 C   0  0  0  0  0  0  0  0  0  0  0  0
  -14.1619    2.0569    0.0000 C   0  0  0  0  0  0  0  0  0  0  0  0
  -15.4691    2.7925    0.0000 C   0  0  0  0  0  0  0  0  0  0  0  0
  -16.7111    3.6336    0.0000 C   0  0  0  0  0  0  0  0  0  0  0  0
  -17.8795    4.5743    0.0000 C   0  0  0  0  0  0  0  0  0  0  0  0
  -18.9661    5.6084    0.0000 C   0  0  0  0  0  0  0  0  0  0  0  0
  -19.9636    6.7286    0.0000 C   0  0  0  0  0  0  0  0  0  0  0  0
  -20.8652    7.9274    0.0000 C   0  0  0  0  0  0  0  0  0  0  0  0
  -21.6648    9.1965    0.0000 C   0  0  0  0  0  0  0  0  0  0  0  0
  -22.3568   10.5273    0.0000 C   0  0  0  0  0  0  0  0  0  0  0  0
  -22.9366   11.9108    0.0000 C   0  0  0  0  0  0  0  0  0  0  0  0
  -23.4001   13.3374    0.0000 C   0  0  0  0  0  0  0  0  0  0  0  0
  -23.7442   14.7974    0.0000 C   0  0  0  0  0  0  0  0  0  0  0  0
  -23.9666   16.2808    0.0000 C   0  0  0  0  0  0  0  0  0  0  0  0
  -24.0658   17.7775    0.0000 C   0  0  0  0  0  0  0  0  0  0  0  0
  -24.0409   19.2773    0.0000 C   0  0  0  0  0  0  0  0  0  0  0  0
  -23.8924   20.7699    0.0000 C   0  0  0  0  0  0  0  0  0  0  0  0
  -23.6211   22.2452    0.0000 C   0  0  0  0  0  0  0  0  0  0  0  0
  -23.2288   23.6930    0.0000 C   0  0  0  0  0  0  0  0  0  0  0  0
  -22.7184   25.1035    0.0000 C   0  0  0  0  0  0  0  0  0  0  0  0
  -22.0932   26.4670    0.0000 C   0  0  0  0  0  0  0  0  0  0  0  0
  -21.3576   27.7742    0.0000 C   0  0  0  0  0  0  0  0  0  0  0  0
  -20.5165   29.0162    0.0000 C   0  0  0  0  0  0  0  0  0  0  0  0
  -19.5758   30.1845    0.0000 C   0  0  0  0  0  0  0  0  0  0  0  0
  -18.5417   31.2712    0.0000 C   0  0  0  0  0  0  0  0  0  0  0  0
  -17.4215   32.2687    0.0000 C   0  0  0  0  0  0  0  0  0  0  0  0
  -16.2227   33.1703    0.0000 C   0  0  0  0  0  0  0  0  0  0  0  0
  -14.9536   33.9699    0.0000 C   0  0  0  0  0  0  0  0  0  0  0  0
  -13.6227   34.6619    0.0000 C   0  0  0  0  0  0  0  0  0  0  0  0
  -12.2393   35.2416    0.0000 C   0  0  0  0  0  0  0  0  0  0  0  0
  -10.8127   35.7052    0.0000 C   0  0  0  0  0  0  0  0  0  0  0  0
   -9.3527   36.0493    0.0000 C   0  0  0  0  0  0  0  0  0  0  0  0
   -7.8693   36.2717    0.0000 C   0  0  0  0  0  0  0  0  0  0  0  0
   -6.3726   36.3708    0.0000 C   0  0  0  0  0  0  0  0  0  0  0  0
   -4.8728   36.3460    0.0000 C   0  0  0  0  0  0  0  0  0  0  0  0
   -3.3802   36.1975    0.0000 C   0  0  0  0  0  0  0  0  0  0  0  0
   -1.9049   35.9261    0.0000 C   0  0  0  0  0  0  0  0  0  0  0  0
   -0.4571   35.5339    0.0000 C   0  0  0  0  0  0  0  0  0  0  0  0
    0.9534   35.0235    0.0000 C   0  0  0  0  0  0  0  0  0  0  0  0
    2.3169   34.3983    0.0000 C   0  0  0  0  0  0  0  0  0  0  0  0
    3.6241   33.6627    0.0000 C   0  0  0  0  0  0  0  0  0  0  0  0
    4.8661   32.8216    0.0000 C   0  0  0  0  0  0  0  0  0  0  0  0
    6.0345   31.8808    0.0000 C   0  0  0  0  0  0  0  0  0  0  0  0
    7.1211   30.8468    0.0000 C   0  0  0  0  0  0  0  0  0  0  0  0
    8.1186   29.7266    0.0000 C   0  0  0  0  0  0  0  0  0  0  0  0
    9.0202   28.5278    0.0000 C   0  0  0  0  0  0  0  0  0  0  0  0
    9.8198   27.2587    0.0000 C   0  0  0  0  0  0  0  0  0  0  0  0
   10.5118   25.9278    0.0000 C   0  0  0  0  0  0  0  0  0  0  0  0
   11.0916   24.5444    0.0000 C   0  0  0  0  0  0  0  0  0  0  0  0
   11.5551   23.1178    0.0000 C   0  0  0  0  0  0  0  0  0  0  0  0
   11.8992   21.6578    0.0000 C   0  0  0  0  0  0  0  0  0  0  0  0
   12.1216   20.1744    0.0000 C   0  0  0  0  0  0  0  0  0  0  0  0
   12.2207   18.6777    0.0000 C   0  0  0  0  0  0  0  0  0  0  0  0
   12.1959   17.1779    0.0000 C   0  0  0  0  0  0  0  0  0  0  0  0
   12.0474   15.6852    0.0000 C   0  0  0  0  0  0  0  0  0  0  0  0
   11.7761   14.2100    0.0000 C   0  0  0  0  0  0  0  0  0  0  0  0
   11.3838   12.7622    0.0000 C   0  0  0  0  0  0  0  0  0  0  0  0
   10.8734   11.3517    0.0000 C   0  0  0  0  0  0  0  0  0  0  0  0
   10.2482    9.9882    0.0000 C   0  0  0  0  0  0  0  0  0  0  0  0
    9.5126    8.6810    0.0000 C   0  0  0  0  0  0  0  0  0  0  0  0
    8.6715    7.4389    0.0000 C   0  0  0  0  0  0  0  0  0  0  0  0
    7.7308    6.2706    0.0000 C   0  0  0  0  0  0  0  0  0  0  0  0
    6.6967    5.1840    0.0000 C   0  0  0  0  0  0  0  0  0  0  0  0
    5.5765    4.1865    0.0000 C   0  0  0  0  0  0  0  0  0  0  0  0
    4.3777    3.2848    0.0000 C   0  0  0  0  0  0  0  0  0  0  0  0
    3.1086    2.4853    0.0000 C   0  0  0  0  0  0  0  0  0  0  0  0
    1.7777    1.7933    0.0000 C   0  0  0  0  0  0  0  0  0  0  0  0
    0.3943    1.2135    0.0000 C   0  0  0  0  0  0  0  0  0  0  0  0
    1.2760    0.0000    0.0000 C   0  0  0  0  0  0  0  0  0  0  0  0
    0.3943   -1.2135    0.0000 C   0  0  0  0  0  0  0  0  0  0  0  0
   -1.0323   -0.7500    0.0000 C   0  0  0  0  0  0  0  0  0  0  0  0
   -1.0323    0.7500    0.0000 C   0  0  0  0  0  0  0  0  0  0  0  0
  1  2  1  0
  2  3  1  0
  3  4  1  0
  4  5  1  0
  5  6  1  0
  6  7  1  0
  7  8  1  0
  8  9  1  0
  9 10  1  0
 10 11  1  0
 11 12  1  0
 12 13  1  0
 13 14  1  0
 14 15  1  0
 15 16  1  0
 16 17  1  0
 17 18  1  0
 18 19  1  0
 19 20  1  0
 20 21  1  0
 21 22  1  0
 22 23  1  0
 23 24  1  0
 24 25  1  0
 25 26  2  0
 26 27  1  0
 27 28  2  0
 28 29  1  0
 29 30  2  0
 30 31  1  0
 31 32  2  0
 32 33  1  0
 33 34  2  0
 34 35  1  0
 35 36  2  0
 36 37  1  0
 37 38  2  0
 38 39  1  0
 39 40  2  0
 40 41  1  0
 41 42  2  0
 42 43  1  0
 43 44  2  0
 44 45  1  0
 45 46  2  0
 46 47  1  0
 47 48  2  0
 48 49  1  0
 49 50  2  0
 50 51  1  0
 51 52  2  0
 52 53  1  0
 53 54  2  0
 54 55  1  0
 55 56  2  0
 56 57  1  0
 57 58  2  0
 58 59  1  0
 59 60  2  0
 60 61  1  0
 61 62  2  0
 62 63  1  0
 63 64  2  0
 64 65  1  0
 65 66  2  0
 66 67  1  0
 67 68  2  0
 68 69  1  0
 69 70  2  0
 70 71  1  0
 71 72  2  0
 72 73  1  0
 73 74  2  0
 74 75  1  0
 75 76  2  0
 76 77  1  0
 77 78  2  0
 78 79  1  0
 79 80  2  0
 80  2  1  0
 80 76  1  0
M  END
>  <Title>  (962) 
idABJBgen13

$$$$

     RDKit          2D

 29 32  0  0  0  0  0  0  0  0999 V2000
   -2.6401   -3.1891    0.0000 C   0  0  0  0  0  0  0  0  0  0  0  0
   -1.2135   -2.7256    0.0000 C   0  0  0  0  0  0  0  0  0  0  0  0
   -0.0000   -3.6073    0.0000 C   0  0  0  0  0  0  0  0  0  0  0  0
   -0.0000   -5.1073    0.0000 O   0  0  0  0  0  0  0  0  0  0  0  0
    1.2135   -2.7256    0.0000 N   0  0  0  0  0  0  0  0  0  0  0  0
    2.6401   -3.1891    0.0000 N   0  0  0  0  0  0  0  0  0  0  0  0
    2.9520   -4.6564    0.0000 N   0  0  0  0  0  0  0  0  0  0  0  0
    4.3786   -5.1199    0.0000 N   0  0  0  0  0  0  0  0  0  0  0  0
    4.6904   -6.5871    0.0000 C   0  0  0  0  0  0  0  0  0  0  0  0
    3.8735   -7.8451    0.0000 N   0  0  0  0  0  0  0  0  0  0  0  0
    5.1315   -8.6621    0.0000 C   0  0  0  0  0  0  0  0  0  0  0  0
    5.4433  -10.1293    0.0000 O   0  0  0  0  0  0  0  0  0  0  0  0
    5.9484   -7.4041    0.0000 N   0  0  0  0  0  0  0  0  0  0  0  0
    7.4157   -7.0922    0.0000 N   0  0  0  0  0  0  0  0  0  0  0  0
    8.4194   -8.2069    0.0000 N   0  0  0  0  0  0  0  0  0  0  0  0
    9.8866   -7.8951    0.0000 N   0  0  0  0  0  0  0  0  0  0  0  0
   10.8903   -9.0098    0.0000 C   0  0  0  0  0  0  0  0  0  0  0  0
   12.3821   -8.8530    0.0000 N   0  0  0  0  0  0  0  0  0  0  0  0
   12.9922  -10.2233    0.0000 C   0  0  0  0  0  0  0  0  0  0  0  0
   14.4594  -10.5352    0.0000 O   0  0  0  0  0  0  0  0  0  0  0  0
   11.8774  -11.2270    0.0000 N   0  0  0  0  0  0  0  0  0  0  0  0
   10.5784  -10.4770    0.0000 C   0  0  0  0  0  0  0  0  0  0  0  0
    9.2081  -11.0871    0.0000 C   0  0  0  0  0  0  0  0  0  0  0  0
    0.7500   -1.2990    0.0000 C   0  0  0  0  0  0  0  0  0  0  0  0
    1.5000    0.0000    0.0000 C   0  0  0  0  0  0  0  0  0  0  0  0
    0.7500    1.2990    0.0000 C   0  0  0  0  0  0  0  0  0  0  0  0
   -0.7500    1.2990    0.0000 C   0  0  0  0  0  0  0  0  0  0  0  0
   -1.5000    0.0000    0.0000 C   0  0  0  0  0  0  0  0  0  0  0  0
   -0.7500   -1.2990    0.0000 C   0  0  0  0  0  0  0  0  0  0  0  0
  1  2  2  0
  2  3  1  0
  3  4  2  0
  3  5  1  0
  5  6  1  0
  6  7  2  3
  7  8  1  0
  8  9  2  3
  9 10  1  0
 10 11  1  0
 11 12  2  0
 11 13  1  0
 13 14  1  0
 14 15  2  3
 15 16  1  0
 16 17  2  3
 17 18  1  0
 18 19  1  0
 19 20  2  0
 19 21  1  0
 21 22  1  0
 22 23  1  0
  5 24  1  0
 24 25  2  0
 25 26  1  0
 26 27  2  0
 27 28  1  0
 28 29  2  0
 29  2  1  0
 13  9  1  0
 22 17  1  0
 29 24  1  0
M  END
>  <Title>  (963) 
idABJCgen13

$$$$

     RDKit          2D

 82 83  0  0  0  0  0  0  0  0999 V2000
   -2.2034   -1.0693    0.0000 C   0  0  0  0  0  0  0  0  0  0  0  0
   -2.4915    0.4028    0.0000 C   0  0  0  0  0  0  0  0  0  0  0  0
   -3.9740    0.1741    0.0000 C   0  0  0  0  0  0  0  0  0  0  0  0
   -5.4701    0.0654    0.0000 C   0  0  0  0  0  0  0  0  0  0  0  0
   -6.9700    0.0775    0.0000 C   0  0  0  0  0  0  0  0  0  0  0  0
   -8.4641    0.2103    0.0000 C   0  0  0  0  0  0  0  0  0  0  0  0
   -9.9427    0.4628    0.0000 C   0  0  0  0  0  0  0  0  0  0  0  0
  -11.3962    0.8335    0.0000 C   0  0  0  0  0  0  0  0  0  0  0  0
  -12.8151    1.3199    0.0000 C   0  0  0  0  0  0  0  0  0  0  0  0
  -14.1903    1.9190    0.0000 C   0  0  0  0  0  0  0  0  0  0  0  0
  -15.5128    2.6267    0.0000 C   0  0  0  0  0  0  0  0  0  0  0  0
  -16.7741    3.4386    0.0000 C   0  0  0  0  0  0  0  0  0  0  0  0
  -17.9660    4.3494    0.0000 C   0  0  0  0  0  0  0  0  0  0  0  0
  -19.0807    5.3531    0.0000 C   0  0  0  0  0  0  0  0  0  0  0  0
  -20.1111    6.4432    0.0000 C   0  0  0  0  0  0  0  0  0  0  0  0
  -21.0503    7.6127    0.0000 C   0  0  0  0  0  0  0  0  0  0  0  0
  -21.8925    8.8540    0.0000 C   0  0  0  0  0  0  0  0  0  0  0  0
  -22.6320   10.1591    0.0000 C   0  0  0  0  0  0  0  0  0  0  0  0
  -23.2641   11.5194    0.0000 C   0  0  0  0  0  0  0  0  0  0  0  0
  -23.7847   12.9261    0.0000 C   0  0  0  0  0  0  0  0  0  0  0  0
  -24.1904   14.3702    0.0000 C   0  0  0  0  0  0  0  0  0  0  0  0
  -24.4786   15.8423    0.0000 C   0  0  0  0  0  0  0  0  0  0  0  0
  -24.6474   17.3327    0.0000 C   0  0  0  0  0  0  0  0  0  0  0  0
  -24.6957   18.8320    0.0000 C   0  0  0  0  0  0  0  0  0  0  0  0
  -24.6232   20.3302    0.0000 C   0  0  0  0  0  0  0  0  0  0  0  0
  -24.4304   21.8178    0.0000 C   0  0  0  0  0  0  0  0  0  0  0  0
  -24.1186   23.2850    0.0000 C   0  0  0  0  0  0  0  0  0  0  0  0
  -23.6896   24.7224    0.0000 C   0  0  0  0  0  0  0  0  0  0  0  0
  -23.1464   26.1206    0.0000 C   0  0  0  0  0  0  0  0  0  0  0  0
  -22.4925   27.4705    0.0000 C   0  0  0  0  0  0  0  0  0  0  0  0
  -21.7321   28.7635    0.0000 C   0  0  0  0  0  0  0  0  0  0  0  0
  -20.8701   29.9910    0.0000 C   0  0  0  0  0  0  0  0  0  0  0  0
  -19.9121   31.1453    0.0000 C   0  0  0  0  0  0  0  0  0  0  0  0
  -18.8643   32.2187    0.0000 C   0  0  0  0  0  0  0  0  0  0  0  0
  -17.7336   33.2043    0.0000 C   0  0  0  0  0  0  0  0  0  0  0  0
  -16.5272   34.0957    0.0000 C   0  0  0  0  0  0  0  0  0  0  0  0
  -15.2530   34.8872    0.0000 C   0  0  0  0  0  0  0  0  0  0  0  0
  -13.9192   35.5735    0.0000 C   0  0  0  0  0  0  0  0  0  0  0  0
  -12.5346   36.1503    0.0000 C   0  0  0  0  0  0  0  0  0  0  0  0
  -11.1080   36.6139    0.0000 C   0  0  0  0  0  0  0  0  0  0  0  0
   -9.6487   36.9611    0.0000 C   0  0  0  0  0  0  0  0  0  0  0  0
   -8.1662   37.1898    0.0000 C   0  0  0  0  0  0  0  0  0  0  0  0
   -6.6702   37.2984    0.0000 C   0  0  0  0  0  0  0  0  0  0  0  0
   -5.1702   37.2863    0.0000 C   0  0  0  0  0  0  0  0  0  0  0  0
   -3.6761   37.1536    0.0000 C   0  0  0  0  0  0  0  0  0  0  0  0
   -2.1975   36.9011    0.0000 C   0  0  0  0  0  0  0  0  0  0  0  0
   -0.7441   36.5304    0.0000 C   0  0  0  0  0  0  0  0  0  0  0  0
    0.6749   36.0439    0.0000 C   0  0  0  0  0  0  0  0  0  0  0  0
    2.0501   35.4449    0.0000 C   0  0  0  0  0  0  0  0  0  0  0  0
    3.3726   34.7371    0.0000 C   0  0  0  0  0  0  0  0  0  0  0  0
    4.6339   33.9252    0.0000 C   0  0  0  0  0  0  0  0  0  0  0  0
    5.8257   33.0145    0.0000 C   0  0  0  0  0  0  0  0  0  0  0  0
    6.9405   32.0108    0.0000 C   0  0  0  0  0  0  0  0  0  0  0  0
    7.9708   30.9207    0.0000 C   0  0  0  0  0  0  0  0  0  0  0  0
    8.9101   29.7511    0.0000 C   0  0  0  0  0  0  0  0  0  0  0  0
    9.7522   28.5098    0.0000 C   0  0  0  0  0  0  0  0  0  0  0  0
   10.4917   27.2048    0.0000 C   0  0  0  0  0  0  0  0  0  0  0  0
   11.1238   25.8445    0.0000 C   0  0  0  0  0  0  0  0  0  0  0  0
   11.6444   24.4377    0.0000 C   0  0  0  0  0  0  0  0  0  0  0  0
   12.0501   22.9936    0.0000 C   0  0  0  0  0  0  0  0  0  0  0  0
   12.3383   21.5216    0.0000 C   0  0  0  0  0  0  0  0  0  0  0  0
   12.5071   20.0311    0.0000 C   0  0  0  0  0  0  0  0  0  0  0  0
   12.5554   18.5319    0.0000 C   0  0  0  0  0  0  0  0  0  0  0  0
   12.4830   17.0336    0.0000 C   0  0  0  0  0  0  0  0  0  0  0  0
   12.2902   15.5461    0.0000 C   0  0  0  0  0  0  0  0  0  0  0  0
   11.9783   14.0789    0.0000 C   0  0  0  0  0  0  0  0  0  0  0  0
   11.5494   12.6415    0.0000 C   0  0  0  0  0  0  0  0  0  0  0  0
   11.0062   11.2433    0.0000 C   0  0  0  0  0  0  0  0  0  0  0  0
   10.3523    9.8933    0.0000 C   0  0  0  0  0  0  0  0  0  0  0  0
    9.5918    8.6004    0.0000 C   0  0  0  0  0  0  0  0  0  0  0  0
    8.7298    7.3728    0.0000 C   0  0  0  0  0  0  0  0  0  0  0  0
    7.7718    6.2186    0.0000 C   0  0  0  0  0  0  0  0  0  0  0  0
    6.7240    5.1452    0.0000 C   0  0  0  0  0  0  0  0  0  0  0  0
    5.5933    4.1596    0.0000 C   0  0  0  0  0  0  0  0  0  0  0  0
    4.3869    3.2682    0.0000 C   0  0  0  0  0  0  0  0  0  0  0  0
    3.1127    2.4767    0.0000 C   0  0  0  0  0  0  0  0  0  0  0  0
    1.7790    1.7903    0.0000 C   0  0  0  0  0  0  0  0  0  0  0  0
    0.3943    1.2135    0.0000 C   0  0  0  0  0  0  0  0  0  0  0  0
    1.2760    0.0000    0.0000 C   0  0  0  0  0  0  0  0  0  0  0  0
    0.3943   -1.2135    0.0000 C   0  0  0  0  0  0  0  0  0  0  0  0
   -1.0323   -0.7500    0.0000 C   0  0  0  0  0  0  0  0  0  0  0  0
   -1.0323    0.7500    0.0000 C   0  0  0  0  0  0  0  0  0  0  0  0
  1  2  1  0
  2  3  1  0
  3  4  1  0
  4  5  1  0
  5  6  1  0
  6  7  1  0
  7  8  1  0
  8  9  1  0
  9 10  1  0
 10 11  1  0
 11 12  1  0
 12 13  1  0
 13 14  1  0
 14 15  1  0
 15 16  1  0
 16 17  1  0
 17 18  1  0
 18 19  1  0
 19 20  1  0
 20 21  1  0
 21 22  1  0
 22 23  1  0
 23 24  1  0
 24 25  1  0
 25 26  1  0
 26 27  1  0
 27 28  1  0
 28 29  1  0
 29 30  1  0
 30 31  1  0
 31 32  2  0
 32 33  1  0
 33 34  2  0
 34 35  1  0
 35 36  2  0
 36 37  1  0
 37 38  2  0
 38 39  1  0
 39 40  2  0
 40 41  1  0
 41 42  2  0
 42 43  1  0
 43 44  2  0
 44 45  1  0
 45 46  2  0
 46 47  1  0
 47 48  2  0
 48 49  1  0
 49 50  2  0
 50 51  1  0
 51 52  2  0
 52 53  1  0
 53 54  2  0
 54 55  1  0
 55 56  2  0
 56 57  1  0
 57 58  2  0
 58 59  1  0
 59 60  2  0
 60 61  1  0
 61 62  2  0
 62 63  1  0
 63 64  2  0
 64 65  1  0
 65 66  2  0
 66 67  1  0
 67 68  2  0
 68 69  1  0
 69 70  2  0
 70 71  1  0
 71 72  2  0
 72 73  1  0
 73 74  2  0
 74 75  1  0
 75 76  2  0
 76 77  1  0
 77 78  2  0
 78 79  1  0
 79 80  2  0
 80 81  1  0
 81 82  2  0
 82  2  1  0
 82 78  1  0
M  END
>  <Title>  (964) 
idABJDgen13

$$$$

     RDKit          2D

  7  7  0  0  0  0  0  0  0  0999 V2000
    3.0000    0.0000    0.0000 C   0  0  0  0  0  0  0  0  0  0  0  0
    1.5000    0.0000    0.0000 C   0  0  0  0  0  0  0  0  0  0  0  0
    0.7500   -1.2990    0.0000 C   0  0  0  0  0  0  0  0  0  0  0  0
   -0.7500   -1.2990    0.0000 C   0  0  0  0  0  0  0  0  0  0  0  0
   -1.5000    0.0000    0.0000 C   0  0  0  0  0  0  0  0  0  0  0  0
   -0.7500    1.2990    0.0000 C   0  0  0  0  0  0  0  0  0  0  0  0
    0.7500    1.2990    0.0000 N   0  0  0  0  0  0  0  0  0  0  0  0
  1  2  1  0
  2  3  1  0
  3  4  2  0
  4  5  1  0
  5  6  1  0
  6  7  1  0
  7  2  1  0
M  END
>  <Title>  (965) 
idABJEgen13

$$$$

     RDKit          2D

 10 11  0  0  0  0  0  0  0  0999 V2000
   -4.2473    5.0365    0.0000 C   0  0  0  0  0  0  0  0  0  0  0  0
   -2.9108    4.3555    0.0000 C   0  0  0  0  0  0  0  0  0  0  0  0
   -2.8323    2.8576    0.0000 C   0  0  0  0  0  0  0  0  0  0  0  0
   -1.4958    2.1766    0.0000 C   0  0  0  0  0  0  0  0  0  0  0  0
   -0.0692    2.6401    0.0000 C   0  0  0  0  0  0  0  0  0  0  0  0
    0.3943    1.2135    0.0000 C   0  0  0  0  0  0  0  0  0  0  0  0
    1.2760    0.0000    0.0000 C   0  0  0  0  0  0  0  0  0  0  0  0
    0.3943   -1.2135    0.0000 C   0  0  0  0  0  0  0  0  0  0  0  0
   -1.0323   -0.7500    0.0000 C   0  0  0  0  0  0  0  0  0  0  0  0
   -1.0323    0.7500    0.0000 C   0  0  0  0  0  0  0  0  0  0  0  0
  1  2  2  0
  2  3  1  0
  3  4  1  0
  4  5  1  0
  5  6  1  0
  6  7  1  0
  7  8  2  0
  8  9  1  0
  9 10  2  0
 10  4  1  0
 10  6  1  0
M  END
>  <Title>  (966) 
idABJFgen13

$$$$

     RDKit          2D

 94 95  0  0  0  0  0  0  0  0999 V2000
    6.5284   -4.3161    0.0000 C   0  0  0  0  0  0  0  0  0  0  0  0
    7.3196   -4.4136    0.0000 C   0  0  0  0  0  0  0  0  0  0  0  0
    7.2129   -5.9098    0.0000 C   0  0  0  0  0  0  0  0  0  0  0  0
    7.2606   -7.4091    0.0000 C   0  0  0  0  0  0  0  0  0  0  0  0
    7.4622   -8.8955    0.0000 C   0  0  0  0  0  0  0  0  0  0  0  0
    7.8156  -10.3533    0.0000 C   0  0  0  0  0  0  0  0  0  0  0  0
    8.3170  -11.7670    0.0000 C   0  0  0  0  0  0  0  0  0  0  0  0
    8.9611  -13.1217    0.0000 C   0  0  0  0  0  0  0  0  0  0  0  0
    9.7410  -14.4029    0.0000 C   0  0  0  0  0  0  0  0  0  0  0  0
   10.6486  -15.5972    0.0000 C   0  0  0  0  0  0  0  0  0  0  0  0
   11.6742  -16.6918    0.0000 C   0  0  0  0  0  0  0  0  0  0  0  0
   12.8068  -17.6752    0.0000 C   0  0  0  0  0  0  0  0  0  0  0  0
   14.0346  -18.5369    0.0000 C   0  0  0  0  0  0  0  0  0  0  0  0
   15.3445  -19.2678    0.0000 C   0  0  0  0  0  0  0  0  0  0  0  0
   16.7226  -19.8602    0.0000 C   0  0  0  0  0  0  0  0  0  0  0  0
   18.1543  -20.3077    0.0000 C   0  0  0  0  0  0  0  0  0  0  0  0
   19.6244  -20.6056    0.0000 C   0  0  0  0  0  0  0  0  0  0  0  0
   21.1174  -20.7508    0.0000 C   0  0  0  0  0  0  0  0  0  0  0  0
   22.6173  -20.7417    0.0000 C   0  0  0  0  0  0  0  0  0  0  0  0
   24.1084  -20.5784    0.0000 C   0  0  0  0  0  0  0  0  0  0  0  0
   25.5748  -20.2627    0.0000 C   0  0  0  0  0  0  0  0  0  0  0  0
   27.0010  -19.7979    0.0000 C   0  0  0  0  0  0  0  0  0  0  0  0
   28.3718  -19.1889    0.0000 C   0  0  0  0  0  0  0  0  0  0  0  0
   29.6727  -18.4422    0.0000 C   0  0  0  0  0  0  0  0  0  0  0  0
   30.8900  -17.5657    0.0000 C   0  0  0  0  0  0  0  0  0  0  0  0
   32.0106  -16.5686    0.0000 C   0  0  0  0  0  0  0  0  0  0  0  0
   33.0229  -15.4616    0.0000 C   0  0  0  0  0  0  0  0  0  0  0  0
   33.9159  -14.2564    0.0000 C   0  0  0  0  0  0  0  0  0  0  0  0
   34.6803  -12.9658    0.0000 C   0  0  0  0  0  0  0  0  0  0  0  0
   35.3079  -11.6034    0.0000 C   0  0  0  0  0  0  0  0  0  0  0  0
   35.7921  -10.1837    0.0000 C   0  0  0  0  0  0  0  0  0  0  0  0
   36.1278   -8.7218    0.0000 C   0  0  0  0  0  0  0  0  0  0  0  0
   36.3114   -7.2331    0.0000 C   0  0  0  0  0  0  0  0  0  0  0  0
   36.3409   -5.7334    0.0000 C   0  0  0  0  0  0  0  0  0  0  0  0
   36.2161   -4.2386    0.0000 C   0  0  0  0  0  0  0  0  0  0  0  0
   35.9383   -2.7645    0.0000 C   0  0  0  0  0  0  0  0  0  0  0  0
   35.5103   -1.3269    0.0000 C   0  0  0  0  0  0  0  0  0  0  0  0
   34.9368    0.0592    0.0000 C   0  0  0  0  0  0  0  0  0  0  0  0
   34.2238    1.3789    0.0000 C   0  0  0  0  0  0  0  0  0  0  0  0
   33.3789    2.6183    0.0000 C   0  0  0  0  0  0  0  0  0  0  0  0
   32.4111    3.7643    0.0000 C   0  0  0  0  0  0  0  0  0  0  0  0
   31.3305    4.8047    0.0000 C   0  0  0  0  0  0  0  0  0  0  0  0
   30.1487    5.7285    0.0000 C   0  0  0  0  0  0  0  0  0  0  0  0
   28.8782    6.5258    0.0000 C   0  0  0  0  0  0  0  0  0  0  0  0
   27.5325    7.1883    0.0000 C   0  0  0  0  0  0  0  0  0  0  0  0
   26.1257    7.7089    0.0000 C   0  0  0  0  0  0  0  0  0  0  0  0
   24.6729    8.0821    0.0000 C   0  0  0  0  0  0  0  0  0  0  0  0
   23.1894    8.3040    0.0000 C   0  0  0  0  0  0  0  0  0  0  0  0
   21.6909    8.3721    0.0000 C   0  0  0  0  0  0  0  0  0  0  0  0
   20.1934    8.2858    0.0000 C   0  0  0  0  0  0  0  0  0  0  0  0
   18.7127    8.0460    0.0000 C   0  0  0  0  0  0  0  0  0  0  0  0
   17.2645    7.6552    0.0000 C   0  0  0  0  0  0  0  0  0  0  0  0
   15.8641    7.1176    0.0000 C   0  0  0  0  0  0  0  0  0  0  0  0
   14.5265    6.4389    0.0000 C   0  0  0  0  0  0  0  0  0  0  0  0
   13.2657    5.6262    0.0000 C   0  0  0  0  0  0  0  0  0  0  0  0
   12.0952    4.6881    0.0000 C   0  0  0  0  0  0  0  0  0  0  0  0
   11.0274    3.6347    0.0000 C   0  0  0  0  0  0  0  0  0  0  0  0
   10.0735    2.4771    0.0000 C   0  0  0  0  0  0  0  0  0  0  0  0
    9.2437    1.2275    0.0000 C   0  0  0  0  0  0  0  0  0  0  0  0
    8.5467   -0.1007    0.0000 C   0  0  0  0  0  0  0  0  0  0  0  0
    7.9901   -1.4936    0.0000 C   0  0  0  0  0  0  0  0  0  0  0  0
    7.4285    0.0000    0.0000 C   0  0  0  0  0  0  0  0  0  0  0  0
    7.3020    1.3650    0.0000 C   0  0  0  0  0  0  0  0  0  0  0  0
    6.9268    2.6835    0.0000 C   0  0  0  0  0  0  0  0  0  0  0  0
    6.3158    3.9106    0.0000 C   0  0  0  0  0  0  0  0  0  0  0  0
    5.4897    5.0045    0.0000 C   0  0  0  0  0  0  0  0  0  0  0  0
    4.4766    5.9280    0.0000 C   0  0  0  0  0  0  0  0  0  0  0  0
    3.3112    6.6497    0.0000 C   0  0  0  0  0  0  0  0  0  0  0  0
    2.0329    7.1449    0.0000 C   0  0  0  0  0  0  0  0  0  0  0  0
    0.6854    7.3968    0.0000 C   0  0  0  0  0  0  0  0  0  0  0  0
   -0.6854    7.3968    0.0000 C   0  0  0  0  0  0  0  0  0  0  0  0
   -2.0329    7.1449    0.0000 C   0  0  0  0  0  0  0  0  0  0  0  0
   -3.3112    6.6497    0.0000 C   0  0  0  0  0  0  0  0  0  0  0  0
   -4.4766    5.9280    0.0000 C   0  0  0  0  0  0  0  0  0  0  0  0
   -5.4897    5.0045    0.0000 C   0  0  0  0  0  0  0  0  0  0  0  0
   -6.3158    3.9106    0.0000 C   0  0  0  0  0  0  0  0  0  0  0  0
   -6.9268    2.6835    0.0000 C   0  0  0  0  0  0  0  0  0  0  0  0
   -7.3020    1.3650    0.0000 C   0  0  0  0  0  0  0  0  0  0  0  0
   -7.4285    0.0000    0.0000 C   0  0  0  0  0  0  0  0  0  0  0  0
   -7.3020   -1.3650    0.0000 C   0  0  0  0  0  0  0  0  0  0  0  0
   -6.9268   -2.6835    0.0000 C   0  0  0  0  0  0  0  0  0  0  0  0
   -6.3158   -3.9106    0.0000 C   0  0  0  0  0  0  0  0  0  0  0  0
   -5.4897   -5.0045    0.0000 C   0  0  0  0  0  0  0  0  0  0  0  0
   -4.4766   -5.9280    0.0000 C   0  0  0  0  0  0  0  0  0  0  0  0
   -3.3112   -6.6497    0.0000 C   0  0  0  0  0  0  0  0  0  0  0  0
   -2.0329   -7.1449    0.0000 C   0  0  0  0  0  0  0  0  0  0  0  0
   -0.6854   -7.3968    0.0000 C   0  0  0  0  0  0  0  0  0  0  0  0
    0.6854   -7.3968    0.0000 C   0  0  0  0  0  0  0  0  0  0  0  0
    2.0329   -7.1449    0.0000 C   0  0  0  0  0  0  0  0  0  0  0  0
    3.3112   -6.6497    0.0000 C   0  0  0  0  0  0  0  0  0  0  0  0
    4.4766   -5.9280    0.0000 C   0  0  0  0  0  0  0  0  0  0  0  0
    5.4897   -5.0045    0.0000 C   0  0  0  0  0  0  0  0  0  0  0  0
    6.3158   -3.9106    0.0000 C   0  0  0  0  0  0  0  0  0  0  0  0
    7.5796   -2.9363    0.0000 C   0  0  0  0  0  0  0  0  0  0  0  0
  1  2  1  0
  2  3  1  0
  3  4  1  0
  4  5  1  0
  5  6  1  0
  6  7  1  0
  7  8  1  0
  8  9  1  0
  9 10  1  0
 10 11  1  0
 11 12  1  0
 12 13  1  0
 13 14  1  0
 14 15  1  0
 15 16  1  0
 16 17  1  0
 17 18  1  0
 18 19  1  0
 19 20  1  0
 20 21  1  0
 21 22  1  0
 22 23  1  0
 23 24  1  0
 24 25  1  0
 25 26  1  0
 26 27  1  0
 27 28  1  0
 28 29  1  0
 29 30  1  0
 30 31  1  0
 31 32  1  0
 32 33  1  0
 33 34  1  0
 34 35  1  0
 35 36  1  0
 36 37  1  0
 37 38  1  0
 38 39  1  0
 39 40  1  0
 40 41  1  0
 41 42  1  0
 42 43  1  0
 43 44  1  0
 44 45  1  0
 45 46  1  0
 46 47  1  0
 47 48  1  0
 48 49  1  0
 49 50  1  0
 50 51  1  0
 51 52  1  0
 52 53  1  0
 53 54  1  0
 54 55  1  0
 55 56  1  0
 56 57  1  0
 57 58  1  0
 58 59  1  0
 59 60  1  0
 60 61  1  0
 61 62  1  0
 62 63  1  0
 63 64  1  0
 64 65  1  0
 65 66  1  0
 66 67  1  0
 67 68  2  0
 68 69  1  0
 69 70  2  0
 70 71  1  0
 71 72  2  0
 72 73  1  0
 73 74  2  0
 74 75  1  0
 75 76  2  0
 76 77  1  0
 77 78  2  0
 78 79  1  0
 79 80  2  0
 80 81  1  0
 81 82  2  0
 82 83  1  0
 83 84  2  0
 84 85  1  0
 85 86  2  0
 86 87  1  0
 87 88  2  0
 88 89  1  0
 89 90  2  0
 90 91  1  0
 91 92  2  0
 92 93  1  0
 93 94  2  0
 94  2  1  0
 94 61  1  0
M  END
>  <Title>  (967) 
idABJGgen13

$$$$

     RDKit          2D

 27 29  0  0  0  0  0  0  0  0999 V2000
   15.9810   -2.0323    0.0000 C   0  0  0  0  0  0  0  0  0  0  0  0
   14.9773   -0.9176    0.0000 C   0  0  0  0  0  0  0  0  0  0  0  0
   13.5101   -1.2295    0.0000 C   0  0  0  0  0  0  0  0  0  0  0  0
   12.5064   -0.1148    0.0000 C   0  0  0  0  0  0  0  0  0  0  0  0
   11.0392   -0.4266    0.0000 C   0  0  0  0  0  0  0  0  0  0  0  0
   10.5757   -1.8532    0.0000 O   0  0  0  0  0  0  0  0  0  0  0  0
   10.0355    0.6881    0.0000 N   0  0  0  0  0  0  0  0  0  0  0  0
    8.5683    0.3762    0.0000 C   0  0  0  0  0  0  0  0  0  0  0  0
    7.4536    1.3799    0.0000 C   0  0  0  0  0  0  0  0  0  0  0  0
    6.1545    0.6299    0.0000 C   0  0  0  0  0  0  0  0  0  0  0  0
    6.4664   -0.8373    0.0000 C   0  0  0  0  0  0  0  0  0  0  0  0
    5.4627   -1.9520    0.0000 C   0  0  0  0  0  0  0  0  0  0  0  0
    5.9262   -3.3786    0.0000 O   0  0  0  0  0  0  0  0  0  0  0  0
    3.9955   -1.6402    0.0000 N   0  0  0  0  0  0  0  0  0  0  0  0
    2.9918   -2.7549    0.0000 C   0  0  0  0  0  0  0  0  0  0  0  0
    3.3037   -4.2221    0.0000 N   0  0  0  0  0  0  0  0  0  0  0  0
    2.0046   -4.9721    0.0000 N   0  0  0  0  0  0  0  0  0  0  0  0
    0.8899   -3.9684    0.0000 N   0  0  0  0  0  0  0  0  0  0  0  0
    1.5000   -2.5981    0.0000 N   0  0  0  0  0  0  0  0  0  0  0  0
    0.7500   -1.2990    0.0000 C   0  0  0  0  0  0  0  0  0  0  0  0
    1.5000    0.0000    0.0000 C   0  0  0  0  0  0  0  0  0  0  0  0
    0.7500    1.2990    0.0000 C   0  0  0  0  0  0  0  0  0  0  0  0
   -0.7500    1.2990    0.0000 C   0  0  0  0  0  0  0  0  0  0  0  0
   -1.5000    0.0000    0.0000 C   0  0  0  0  0  0  0  0  0  0  0  0
   -0.7500   -1.2990    0.0000 C   0  0  0  0  0  0  0  0  0  0  0  0
    7.9582   -0.9941    0.0000 C   0  0  0  0  0  0  0  0  0  0  0  0
    8.7082   -2.2931    0.0000 O   0  0  0  0  0  0  0  0  0  0  0  0
  1  2  2  0
  2  3  1  0
  3  4  1  0
  4  5  1  0
  5  6  2  0
  5  7  1  0
  7  8  1  0
  8  9  2  0
  9 10  1  0
 10 11  2  0
 11 12  1  0
 12 13  2  0
 12 14  1  0
 14 15  1  0
 15 16  2  0
 16 17  1  0
 17 18  2  0
 18 19  1  0
 19 20  1  0
 20 21  2  0
 21 22  1  0
 22 23  2  0
 23 24  1  0
 24 25  2  0
 11 26  1  0
 26 27  2  0
 26  8  1  0
 19 15  1  0
 25 20  1  0
M  END
>  <Title>  (968) 
idABJHgen13

$$$$

     RDKit          2D

 12 13  0  0  0  0  0  0  0  0999 V2000
    4.6740   -4.8322    0.0000 C   0  0  0  0  0  0  0  0  0  0  0  0
    3.3037   -4.2221    0.0000 C   0  0  0  0  0  0  0  0  0  0  0  0
    2.9918   -2.7549    0.0000 C   0  0  0  0  0  0  0  0  0  0  0  0
    1.5000   -2.5981    0.0000 C   0  0  0  0  0  0  0  0  0  0  0  0
    0.7500   -1.2990    0.0000 N   0  0  0  0  0  0  0  0  0  0  0  0
    1.5000    0.0000    0.0000 C   0  0  0  0  0  0  0  0  0  0  0  0
    0.7500    1.2990    0.0000 C   0  0  0  0  0  0  0  0  0  0  0  0
   -0.7500    1.2990    0.0000 N   0  0  0  0  0  0  0  0  0  0  0  0
   -1.5000    0.0000    0.0000 N   0  0  0  0  0  0  0  0  0  0  0  0
   -0.7500   -1.2990    0.0000 N   0  0  0  0  0  0  0  0  0  0  0  0
    0.8899   -3.9684    0.0000 C   0  0  0  0  0  0  0  0  0  0  0  0
    2.0046   -4.9721    0.0000 N   0  0  0  0  0  0  0  0  0  0  0  0
  1  2  1  0
  2  3  1  0
  3  4  1  0
  4  5  1  0
  5  6  1  0
  6  7  1  0
  7  8  2  0
  8  9  1  0
  9 10  2  0
  4 11  1  0
 11 12  2  0
 12  2  1  0
 10  5  1  0
M  END
>  <Title>  (969) 
idABJIgen13

$$$$

     RDKit          2D

 38 43  0  0  0  0  0  0  0  0999 V2000
   -2.3737   -6.1885    0.0000 C   0  0  0  0  0  0  0  0  0  0  0  0
   -1.4095   -5.0395    0.0000 C   0  0  0  0  0  0  0  0  0  0  0  0
   -0.0000   -5.5525    0.0000 C   0  0  0  0  0  0  0  0  0  0  0  0
    1.4095   -5.0395    0.0000 C   0  0  0  0  0  0  0  0  0  0  0  0
    2.1595   -3.7404    0.0000 C   0  0  0  0  0  0  0  0  0  0  0  0
    1.8991   -2.2632    0.0000 C   0  0  0  0  0  0  0  0  0  0  0  0
    3.1981   -1.5132    0.0000 C   0  0  0  0  0  0  0  0  0  0  0  0
    3.1981   -0.0132    0.0000 O   0  0  0  0  0  0  0  0  0  0  0  0
    4.4971   -2.2632    0.0000 N   0  0  0  0  0  0  0  0  0  0  0  0
    5.7962   -1.5132    0.0000 C   0  0  0  0  0  0  0  0  0  0  0  0
    5.9530   -0.0214    0.0000 N   0  0  0  0  0  0  0  0  0  0  0  0
    7.4202    0.2904    0.0000 N   0  0  0  0  0  0  0  0  0  0  0  0
    8.1702   -1.0086    0.0000 N   0  0  0  0  0  0  0  0  0  0  0  0
    7.1665   -2.1233    0.0000 N   0  0  0  0  0  0  0  0  0  0  0  0
    7.4784   -3.5905    0.0000 N   0  0  0  0  0  0  0  0  0  0  0  0
    8.8487   -4.2007    0.0000 C   0  0  0  0  0  0  0  0  0  0  0  0
    8.6919   -5.6924    0.0000 C   0  0  0  0  0  0  0  0  0  0  0  0
    7.2247   -6.0043    0.0000 N   0  0  0  0  0  0  0  0  0  0  0  0
    6.6146   -7.3746    0.0000 C   0  0  0  0  0  0  0  0  0  0  0  0
    5.1228   -7.5314    0.0000 C   0  0  0  0  0  0  0  0  0  0  0  0
    4.5127   -8.9017    0.0000 C   0  0  0  0  0  0  0  0  0  0  0  0
    5.3944  -10.1153    0.0000 C   0  0  0  0  0  0  0  0  0  0  0  0
    6.8861   -9.9585    0.0000 N   0  0  0  0  0  0  0  0  0  0  0  0
    7.4962   -8.5881    0.0000 N   0  0  0  0  0  0  0  0  0  0  0  0
    6.4747   -4.7053    0.0000 C   0  0  0  0  0  0  0  0  0  0  0  0
    4.9829   -4.5485    0.0000 O   0  0  0  0  0  0  0  0  0  0  0  0
    0.7500   -1.2990    0.0000 C   0  0  0  0  0  0  0  0  0  0  0  0
    1.5000    0.0000    0.0000 C   0  0  0  0  0  0  0  0  0  0  0  0
    0.7500    1.2990    0.0000 C   0  0  0  0  0  0  0  0  0  0  0  0
   -0.7500    1.2990    0.0000 C   0  0  0  0  0  0  0  0  0  0  0  0
   -1.5000    0.0000    0.0000 C   0  0  0  0  0  0  0  0  0  0  0  0
   -0.7500   -1.2990    0.0000 C   0  0  0  0  0  0  0  0  0  0  0  0
   -1.8991   -2.2632    0.0000 C   0  0  0  0  0  0  0  0  0  0  0  0
   -3.0481   -1.2990    0.0000 C   0  0  0  0  0  0  0  0  0  0  0  0
   -4.4577   -1.8121    0.0000 C   0  0  0  0  0  0  0  0  0  0  0  0
   -4.7181   -3.2893    0.0000 C   0  0  0  0  0  0  0  0  0  0  0  0
   -3.5691   -4.2535    0.0000 C   0  0  0  0  0  0  0  0  0  0  0  0
   -2.1595   -3.7404    0.0000 C   0  0  0  0  0  0  0  0  0  0  0  0
  1  2  1  0
  2  3  1  0
  3  4  2  0
  4  5  1  0
  5  6  1  0
  6  7  1  0
  7  8  2  0
  7  9  1  0
  9 10  1  0
 10 11  2  0
 11 12  1  0
 12 13  2  0
 13 14  1  0
 14 15  1  0
 15 16  1  0
 16 17  1  0
 17 18  1  0
 18 19  1  0
 19 20  2  0
 20 21  1  0
 21 22  2  0
 22 23  1  0
 23 24  2  0
 18 25  1  0
 25 26  2  0
  6 27  1  0
 27 28  2  0
 28 29  1  0
 29 30  2  0
 30 31  1  0
 31 32  2  0
 32 33  1  0
 33 34  2  0
 34 35  1  0
 35 36  2  0
 36 37  1  0
 37 38  2  0
 38  2  1  0
 14 10  1  0
 25 15  1  0
 32 27  1  0
 38 33  1  0
 24 19  1  0
M  END
>  <Title>  (970) 
idABJJgen13

$$$$

     RDKit          2D

 34 38  0  0  0  0  0  0  0  0999 V2000
   -3.0000   -2.5981    0.0000 C   0  0  0  0  0  0  0  0  0  0  0  0
   -1.5000   -2.5981    0.0000 C   0  0  0  0  0  0  0  0  0  0  0  0
   -0.7500   -3.8971    0.0000 C   0  0  0  0  0  0  0  0  0  0  0  0
    0.7500   -3.8971    0.0000 C   0  0  0  0  0  0  0  0  0  0  0  0
    1.5000   -2.5981    0.0000 C   0  0  0  0  0  0  0  0  0  0  0  0
    3.0000   -2.5981    0.0000 C   0  0  0  0  0  0  0  0  0  0  0  0
    3.7500   -1.2990    0.0000 O   0  0  0  0  0  0  0  0  0  0  0  0
    3.7500   -3.8971    0.0000 N   0  0  0  0  0  0  0  0  0  0  0  0
    5.2500   -3.8971    0.0000 C   0  0  0  0  0  0  0  0  0  0  0  0
    6.1317   -2.6836    0.0000 N   0  0  0  0  0  0  0  0  0  0  0  0
    7.5583   -3.1471    0.0000 N   0  0  0  0  0  0  0  0  0  0  0  0
    7.5583   -4.6471    0.0000 N   0  0  0  0  0  0  0  0  0  0  0  0
    6.1317   -5.1106    0.0000 N   0  0  0  0  0  0  0  0  0  0  0  0
    5.6682   -6.5372    0.0000 N   0  0  0  0  0  0  0  0  0  0  0  0
    6.5498   -7.7508    0.0000 C   0  0  0  0  0  0  0  0  0  0  0  0
    5.6682   -8.9643    0.0000 C   0  0  0  0  0  0  0  0  0  0  0  0
    4.2416   -8.5008    0.0000 C   0  0  0  0  0  0  0  0  0  0  0  0
    3.0280   -9.3824    0.0000 C   0  0  0  0  0  0  0  0  0  0  0  0
    3.1848  -10.8742    0.0000 O   0  0  0  0  0  0  0  0  0  0  0  0
    1.6577   -8.7723    0.0000 N   0  0  0  0  0  0  0  0  0  0  0  0
    0.4442   -9.6540    0.0000 C   0  0  0  0  0  0  0  0  0  0  0  0
   -0.9261   -9.0439    0.0000 N   0  0  0  0  0  0  0  0  0  0  0  0
   -2.1396   -9.9256    0.0000 N   0  0  0  0  0  0  0  0  0  0  0  0
   -1.9829  -11.4174    0.0000 N   0  0  0  0  0  0  0  0  0  0  0  0
   -0.6125  -12.0275    0.0000 N   0  0  0  0  0  0  0  0  0  0  0  0
    0.6010  -11.1458    0.0000 N   0  0  0  0  0  0  0  0  0  0  0  0
    4.2416   -7.0008    0.0000 C   0  0  0  0  0  0  0  0  0  0  0  0
    3.0280   -6.1191    0.0000 O   0  0  0  0  0  0  0  0  0  0  0  0
    0.7500   -1.2990    0.0000 C   0  0  0  0  0  0  0  0  0  0  0  0
    1.5000    0.0000    0.0000 C   0  0  0  0  0  0  0  0  0  0  0  0
    0.7500    1.2990    0.0000 C   0  0  0  0  0  0  0  0  0  0  0  0
   -0.7500    1.2990    0.0000 C   0  0  0  0  0  0  0  0  0  0  0  0
   -1.5000    0.0000    0.0000 C   0  0  0  0  0  0  0  0  0  0  0  0
   -0.7500   -1.2990    0.0000 C   0  0  0  0  0  0  0  0  0  0  0  0
  1  2  1  0
  2  3  1  0
  3  4  1  0
  4  5  1  0
  5  6  1  0
  6  7  2  0
  6  8  1  0
  8  9  1  0
  9 10  2  0
 10 11  1  0
 11 12  2  0
 12 13  1  0
 13 14  1  0
 14 15  1  0
 15 16  1  0
 16 17  1  0
 17 18  1  0
 18 19  2  0
 18 20  1  0
 20 21  1  0
 21 22  2  0
 22 23  1  0
 23 24  2  0
 24 25  1  0
 25 26  2  0
 17 27  1  0
 27 28  2  0
  5 29  1  0
 29 30  2  0
 30 31  1  0
 31 32  2  0
 32 33  1  0
 33 34  2  0
 34  2  1  0
 13  9  1  0
 27 14  1  0
 34 29  1  0
 26 21  1  0
M  END
>  <Title>  (971) 
idABJKgen13

$$$$

     RDKit          2D

 24 28  0  0  0  0  0  0  0  0999 V2000
    6.5260    1.2990    0.0000 C   0  0  0  0  0  0  0  0  0  0  0  0
    5.0260    1.2990    0.0000 C   0  0  0  0  0  0  0  0  0  0  0  0
    3.5260    1.2990    0.0000 C   0  0  0  0  0  0  0  0  0  0  0  0
    2.7760    2.5981    0.0000 O   0  0  0  0  0  0  0  0  0  0  0  0
    2.7760    0.0000    0.0000 N   0  0  0  0  0  0  0  0  0  0  0  0
    1.2760    0.0000    0.0000 C   0  0  0  0  0  0  0  0  0  0  0  0
    0.3943    1.2135    0.0000 N   0  0  0  0  0  0  0  0  0  0  0  0
   -1.0323    0.7500    0.0000 N   0  0  0  0  0  0  0  0  0  0  0  0
   -1.0323   -0.7500    0.0000 N   0  0  0  0  0  0  0  0  0  0  0  0
    0.3943   -1.2135    0.0000 N   0  0  0  0  0  0  0  0  0  0  0  0
    0.8578   -2.6401    0.0000 C   0  0  0  0  0  0  0  0  0  0  0  0
    2.2844   -3.1036    0.0000 C   0  0  0  0  0  0  0  0  0  0  0  0
    2.2844   -4.6036    0.0000 C   0  0  0  0  0  0  0  0  0  0  0  0
    0.8578   -5.0672    0.0000 C   0  0  0  0  0  0  0  0  0  0  0  0
    0.3943   -6.4937    0.0000 N   0  0  0  0  0  0  0  0  0  0  0  0
   -0.9422   -7.1747    0.0000 C   0  0  0  0  0  0  0  0  0  0  0  0
   -0.2612   -8.5112    0.0000 C   0  0  0  0  0  0  0  0  0  0  0  0
   -1.3759   -9.5149    0.0000 C   0  0  0  0  0  0  0  0  0  0  0  0
   -1.8395  -10.9415    0.0000 C   0  0  0  0  0  0  0  0  0  0  0  0
   -2.8432   -9.8268    0.0000 C   0  0  0  0  0  0  0  0  0  0  0  0
    0.9968   -9.3282    0.0000 C   0  0  0  0  0  0  0  0  0  0  0  0
    1.0753   -7.8303    0.0000 C   0  0  0  0  0  0  0  0  0  0  0  0
   -0.0239   -3.8536    0.0000 C   0  0  0  0  0  0  0  0  0  0  0  0
   -1.5239   -3.8536    0.0000 O   0  0  0  0  0  0  0  0  0  0  0  0
  1  2  3  0
  2  3  1  0
  3  4  2  0
  3  5  1  0
  5  6  1  0
  6  7  2  0
  7  8  1  0
  8  9  2  0
  9 10  1  0
 10 11  1  0
 11 12  2  0
 12 13  1  0
 13 14  2  0
 14 15  1  0
 15 16  1  0
 16 17  1  0
 17 18  1  0
 18 19  1  0
 19 20  1  0
 17 21  1  0
 21 22  1  0
 14 23  1  0
 23 24  2  0
 10  6  1  0
 23 11  1  0
 22 15  1  0
 22 17  1  0
 20 18  1  0
M  END
>  <Title>  (972) 
idABJLgen13

$$$$

     RDKit          2D

 16 17  0  0  0  0  0  0  0  0999 V2000
   -7.4797    1.4986    0.0000 C   0  0  0  0  0  0  0  0  0  0  0  0
   -6.1696    0.7681    0.0000 C   0  0  0  0  0  0  0  0  0  0  0  0
   -6.1472   -0.7317    0.0000 C   0  0  0  0  0  0  0  0  0  0  0  0
   -4.8819    1.5375    0.0000 C   0  0  0  0  0  0  0  0  0  0  0  0
   -3.5718    0.8070    0.0000 C   0  0  0  0  0  0  0  0  0  0  0  0
   -2.2841    1.5763    0.0000 N   0  0  0  0  0  0  0  0  0  0  0  0
   -2.4186    3.0703    0.0000 C   0  0  0  0  0  0  0  0  0  0  0  0
   -3.8230    3.5974    0.0000 C   0  0  0  0  0  0  0  0  0  0  0  0
   -1.3344    4.1069    0.0000 C   0  0  0  0  0  0  0  0  0  0  0  0
    0.1520    3.9056    0.0000 C   0  0  0  0  0  0  0  0  0  0  0  0
    0.9214    2.6179    0.0000 C   0  0  0  0  0  0  0  0  0  0  0  0
    0.3943    1.2135    0.0000 C   0  0  0  0  0  0  0  0  0  0  0  0
    1.2760    0.0000    0.0000 N   0  0  0  0  0  0  0  0  0  0  0  0
    0.3943   -1.2135    0.0000 N   0  0  0  0  0  0  0  0  0  0  0  0
   -1.0323   -0.7500    0.0000 N   0  0  0  0  0  0  0  0  0  0  0  0
   -1.0323    0.7500    0.0000 N   0  0  0  0  0  0  0  0  0  0  0  0
  1  2  1  0
  2  3  1  0
  2  4  1  0
  4  5  1  0
  5  6  1  0
  6  7  1  0
  7  8  1  0
  7  9  1  0
  9 10  1  0
 10 11  1  0
 11 12  1  0
 12 13  2  0
 13 14  1  0
 14 15  2  0
 15 16  1  0
 16  6  1  0
 16 12  1  0
M  END
>  <Title>  (973) 
idABJMgen13

$$$$

     RDKit          2D

 28 32  0  0  0  0  0  0  0  0999 V2000
   -1.8126   -8.2487    0.0000 O   0  0  0  0  0  0  0  0  0  0  0  0
   -1.0626   -6.9496    0.0000 C   0  0  0  0  0  0  0  0  0  0  0  0
    0.4292   -6.7928    0.0000 N   0  0  0  0  0  0  0  0  0  0  0  0
    1.4329   -7.9075    0.0000 C   0  0  0  0  0  0  0  0  0  0  0  0
    0.9694   -9.3341    0.0000 C   0  0  0  0  0  0  0  0  0  0  0  0
    1.9731  -10.4488    0.0000 C   0  0  0  0  0  0  0  0  0  0  0  0
    3.4403  -10.1370    0.0000 C   0  0  0  0  0  0  0  0  0  0  0  0
    3.9038   -8.7104    0.0000 C   0  0  0  0  0  0  0  0  0  0  0  0
    2.9001   -7.5957    0.0000 C   0  0  0  0  0  0  0  0  0  0  0  0
    0.7411   -5.3256    0.0000 C   0  0  0  0  0  0  0  0  0  0  0  0
   -0.5580   -4.5756    0.0000 C   0  0  0  0  0  0  0  0  0  0  0  0
   -1.6727   -5.5793    0.0000 N   0  0  0  0  0  0  0  0  0  0  0  0
   -3.1399   -5.2674    0.0000 N   0  0  0  0  0  0  0  0  0  0  0  0
   -4.2546   -6.2711    0.0000 N   0  0  0  0  0  0  0  0  0  0  0  0
   -5.5537   -5.5211    0.0000 N   0  0  0  0  0  0  0  0  0  0  0  0
   -5.2418   -4.0539    0.0000 N   0  0  0  0  0  0  0  0  0  0  0  0
   -3.7500   -3.8971    0.0000 C   0  0  0  0  0  0  0  0  0  0  0  0
   -3.0000   -2.5981    0.0000 O   0  0  0  0  0  0  0  0  0  0  0  0
   -1.5000   -2.5981    0.0000 C   0  0  0  0  0  0  0  0  0  0  0  0
   -0.7500   -3.8971    0.0000 C   0  0  0  0  0  0  0  0  0  0  0  0
    0.7500   -3.8971    0.0000 C   0  0  0  0  0  0  0  0  0  0  0  0
    1.5000   -2.5981    0.0000 C   0  0  0  0  0  0  0  0  0  0  0  0
    0.7500   -1.2990    0.0000 C   0  0  0  0  0  0  0  0  0  0  0  0
    1.5000    0.0000    0.0000 C   0  0  0  0  0  0  0  0  0  0  0  0
    0.7500    1.2990    0.0000 C   0  0  0  0  0  0  0  0  0  0  0  0
   -0.7500    1.2990    0.0000 C   0  0  0  0  0  0  0  0  0  0  0  0
   -1.5000    0.0000    0.0000 C   0  0  0  0  0  0  0  0  0  0  0  0
   -0.7500   -1.2990    0.0000 C   0  0  0  0  0  0  0  0  0  0  0  0
  1  2  2  0
  2  3  1  0
  3  4  1  0
  4  5  2  0
  5  6  1  0
  6  7  2  0
  7  8  1  0
  8  9  2  0
  3 10  1  0
 10 11  1  0
 11 12  1  0
 12 13  1  0
 13 14  1  0
 14 15  2  0
 15 16  1  0
 16 17  2  0
 17 18  1  0
 18 19  1  0
 19 20  2  0
 20 21  1  0
 21 22  1  0
 22 23  1  0
 23 24  2  0
 24 25  1  0
 25 26  2  0
 26 27  1  0
 27 28  2  0
 12  2  1  0
 17 13  1  0
 28 19  1  0
  9  4  1  0
 28 23  1  0
M  END
>  <Title>  (974) 
idABJNgen13

$$$$

     RDKit          2D

 39 44  0  0  0  0  0  0  0  0999 V2000
   -0.0000   -6.0850    0.0000 C   0  0  0  0  0  0  0  0  0  0  0  0
   -0.0000   -4.5850    0.0000 C   0  0  0  0  0  0  0  0  0  0  0  0
    1.3515   -3.9342    0.0000 C   0  0  0  0  0  0  0  0  0  0  0  0
    1.6852   -2.4718    0.0000 C   0  0  0  0  0  0  0  0  0  0  0  0
    3.1476   -2.1380    0.0000 C   0  0  0  0  0  0  0  0  0  0  0  0
    3.5898   -0.7046    0.0000 O   0  0  0  0  0  0  0  0  0  0  0  0
    4.1679   -3.2376    0.0000 N   0  0  0  0  0  0  0  0  0  0  0  0
    5.6303   -2.9038    0.0000 C   0  0  0  0  0  0  0  0  0  0  0  0
    6.2198   -1.5245    0.0000 N   0  0  0  0  0  0  0  0  0  0  0  0
    7.7138   -1.6590    0.0000 N   0  0  0  0  0  0  0  0  0  0  0  0
    8.0476   -3.1214    0.0000 N   0  0  0  0  0  0  0  0  0  0  0  0
    6.7599   -3.8907    0.0000 N   0  0  0  0  0  0  0  0  0  0  0  0
    6.6254   -5.3847    0.0000 N   0  0  0  0  0  0  0  0  0  0  0  0
    7.7550   -6.3716    0.0000 C   0  0  0  0  0  0  0  0  0  0  0  0
    7.1655   -7.7509    0.0000 C   0  0  0  0  0  0  0  0  0  0  0  0
    5.6715   -7.6164    0.0000 N   0  0  0  0  0  0  0  0  0  0  0  0
    4.6846   -8.7460    0.0000 C   0  0  0  0  0  0  0  0  0  0  0  0
    5.1694  -10.1655    0.0000 O   0  0  0  0  0  0  0  0  0  0  0  0
    3.2129   -8.4561    0.0000 N   0  0  0  0  0  0  0  0  0  0  0  0
    2.2260   -9.5857    0.0000 C   0  0  0  0  0  0  0  0  0  0  0  0
    0.7543   -9.2959    0.0000 N   0  0  0  0  0  0  0  0  0  0  0  0
   -0.2326  -10.4255    0.0000 N   0  0  0  0  0  0  0  0  0  0  0  0
    0.2522  -11.8450    0.0000 N   0  0  0  0  0  0  0  0  0  0  0  0
    1.7239  -12.1348    0.0000 N   0  0  0  0  0  0  0  0  0  0  0  0
    2.7108  -11.0052    0.0000 N   0  0  0  0  0  0  0  0  0  0  0  0
    5.3378   -6.1540    0.0000 C   0  0  0  0  0  0  0  0  0  0  0  0
    3.9585   -5.5645    0.0000 O   0  0  0  0  0  0  0  0  0  0  0  0
    0.7500   -1.2990    0.0000 C   0  0  0  0  0  0  0  0  0  0  0  0
    1.5000    0.0000    0.0000 C   0  0  0  0  0  0  0  0  0  0  0  0
    0.7500    1.2990    0.0000 C   0  0  0  0  0  0  0  0  0  0  0  0
   -0.7500    1.2990    0.0000 C   0  0  0  0  0  0  0  0  0  0  0  0
   -1.5000    0.0000    0.0000 C   0  0  0  0  0  0  0  0  0  0  0  0
   -0.7500   -1.2990    0.0000 C   0  0  0  0  0  0  0  0  0  0  0  0
   -1.6852   -2.4718    0.0000 C   0  0  0  0  0  0  0  0  0  0  0  0
   -3.1186   -2.0297    0.0000 C   0  0  0  0  0  0  0  0  0  0  0  0
   -4.2182   -3.0499    0.0000 C   0  0  0  0  0  0  0  0  0  0  0  0
   -3.8844   -4.5123    0.0000 C   0  0  0  0  0  0  0  0  0  0  0  0
   -2.4510   -4.9544    0.0000 C   0  0  0  0  0  0  0  0  0  0  0  0
   -1.3515   -3.9342    0.0000 C   0  0  0  0  0  0  0  0  0  0  0  0
  1  2  1  0
  2  3  1  0
  3  4  2  0
  4  5  1  0
  5  6  2  0
  5  7  1  0
  7  8  1  0
  8  9  2  0
  9 10  1  0
 10 11  2  0
 11 12  1  0
 12 13  1  0
 13 14  1  0
 14 15  1  0
 15 16  1  0
 16 17  1  0
 17 18  2  0
 17 19  1  0
 19 20  1  0
 20 21  2  0
 21 22  1  0
 22 23  2  0
 23 24  1  0
 24 25  2  0
 16 26  1  0
 26 27  2  0
  4 28  1  0
 28 29  2  0
 29 30  1  0
 30 31  2  0
 31 32  1  0
 32 33  2  0
 33 34  1  0
 34 35  2  0
 35 36  1  0
 36 37  2  0
 37 38  1  0
 38 39  2  0
 39  2  1  0
 12  8  1  0
 26 13  1  0
 33 28  1  0
 39 34  1  0
 25 20  1  0
M  END
>  <Title>  (975) 
idABJOgen13

$$$$

     RDKit          2D

 11 10  0  0  0  0  0  0  0  0999 V2000
    0.0000    0.0000    0.0000 C   0  0  0  0  0  0  0  0  0  0  0  0
    1.2990    0.7500    0.0000 C   0  0  0  0  0  0  0  0  0  0  0  0
    2.5981   -0.0000    0.0000 C   0  0  0  0  0  0  0  0  0  0  0  0
    3.8971    0.7500    0.0000 C   0  0  0  0  0  0  0  0  0  0  0  0
    5.1962   -0.0000    0.0000 N   0  0  0  0  0  0  0  0  0  0  0  0
    6.4952    0.7500    0.0000 C   0  0  0  0  0  0  0  0  0  0  0  0
    6.4952    2.2500    0.0000 O   0  0  0  0  0  0  0  0  0  0  0  0
    7.7942   -0.0000    0.0000 N   0  0  0  0  0  0  0  0  0  0  0  0
    9.0933    0.7500    0.0000 C   0  0  0  0  0  0  0  0  0  0  0  0
   10.3923   -0.0000    0.0000 C   0  0  0  0  0  0  0  0  0  0  0  0
    9.0933    2.2500    0.0000 C   0  0  0  0  0  0  0  0  0  0  0  0
  1  2  2  0
  2  3  1  0
  3  4  1  0
  4  5  1  0
  5  6  1  0
  6  7  2  0
  6  8  1  0
  8  9  1  0
  9 10  1  0
  9 11  1  0
M  END
>  <Title>  (976) 
idABJPgen13

$$$$

     RDKit          2D

 78 79  0  0  0  0  0  0  0  0999 V2000
    3.1944   -4.0666    0.0000 C   0  0  0  0  0  0  0  0  0  0  0  0
    3.9642   -4.2739    0.0000 C   0  0  0  0  0  0  0  0  0  0  0  0
    3.6545   -5.7416    0.0000 C   0  0  0  0  0  0  0  0  0  0  0  0
    3.5082   -7.2344    0.0000 C   0  0  0  0  0  0  0  0  0  0  0  0
    3.5270   -8.7343    0.0000 C   0  0  0  0  0  0  0  0  0  0  0  0
    3.7106  -10.2230    0.0000 C   0  0  0  0  0  0  0  0  0  0  0  0
    4.0570  -11.6825    0.0000 C   0  0  0  0  0  0  0  0  0  0  0  0
    4.5618  -13.0950    0.0000 C   0  0  0  0  0  0  0  0  0  0  0  0
    5.2189  -14.4434    0.0000 C   0  0  0  0  0  0  0  0  0  0  0  0
    6.0203  -15.7114    0.0000 C   0  0  0  0  0  0  0  0  0  0  0  0
    6.9564  -16.8834    0.0000 C   0  0  0  0  0  0  0  0  0  0  0  0
    8.0157  -17.9454    0.0000 C   0  0  0  0  0  0  0  0  0  0  0  0
    9.1855  -18.8844    0.0000 C   0  0  0  0  0  0  0  0  0  0  0  0
   10.4514  -19.6891    0.0000 C   0  0  0  0  0  0  0  0  0  0  0  0
   11.7981  -20.3495    0.0000 C   0  0  0  0  0  0  0  0  0  0  0  0
   13.2094  -20.8579    0.0000 C   0  0  0  0  0  0  0  0  0  0  0  0
   14.6680  -21.2078    0.0000 C   0  0  0  0  0  0  0  0  0  0  0  0
   16.1562  -21.3953    0.0000 C   0  0  0  0  0  0  0  0  0  0  0  0
   17.6561  -21.4178    0.0000 C   0  0  0  0  0  0  0  0  0  0  0  0
   19.1493  -21.2752    0.0000 C   0  0  0  0  0  0  0  0  0  0  0  0
   20.6177  -20.9692    0.0000 C   0  0  0  0  0  0  0  0  0  0  0  0
   22.0436  -20.5036    0.0000 C   0  0  0  0  0  0  0  0  0  0  0  0
   23.4096  -19.8839    0.0000 C   0  0  0  0  0  0  0  0  0  0  0  0
   24.6992  -19.1176    0.0000 C   0  0  0  0  0  0  0  0  0  0  0  0
   25.8966  -18.2142    0.0000 C   0  0  0  0  0  0  0  0  0  0  0  0
   26.9874  -17.1846    0.0000 C   0  0  0  0  0  0  0  0  0  0  0  0
   27.9582  -16.0411    0.0000 C   0  0  0  0  0  0  0  0  0  0  0  0
   28.7974  -14.7979    0.0000 C   0  0  0  0  0  0  0  0  0  0  0  0
   29.4948  -13.4698    0.0000 C   0  0  0  0  0  0  0  0  0  0  0  0
   30.0418  -12.0731    0.0000 C   0  0  0  0  0  0  0  0  0  0  0  0
   30.4318  -10.6247    0.0000 C   0  0  0  0  0  0  0  0  0  0  0  0
   30.6602   -9.1422    0.0000 C   0  0  0  0  0  0  0  0  0  0  0  0
   30.7240   -7.6436    0.0000 C   0  0  0  0  0  0  0  0  0  0  0  0
   30.6227   -6.1470    0.0000 C   0  0  0  0  0  0  0  0  0  0  0  0
   30.3573   -4.6707    0.0000 C   0  0  0  0  0  0  0  0  0  0  0  0
   29.9311   -3.2325    0.0000 C   0  0  0  0  0  0  0  0  0  0  0  0
   29.3492   -1.8499    0.0000 C   0  0  0  0  0  0  0  0  0  0  0  0
   28.6188   -0.5398    0.0000 C   0  0  0  0  0  0  0  0  0  0  0  0
   27.7488    0.6821    0.0000 C   0  0  0  0  0  0  0  0  0  0  0  0
   26.7495    1.8008    0.0000 C   0  0  0  0  0  0  0  0  0  0  0  0
   25.6333    2.8029    0.0000 C   0  0  0  0  0  0  0  0  0  0  0  0
   24.4136    3.6760    0.0000 C   0  0  0  0  0  0  0  0  0  0  0  0
   23.1053    4.4097    0.0000 C   0  0  0  0  0  0  0  0  0  0  0  0
   21.7242    4.9950    0.0000 C   0  0  0  0  0  0  0  0  0  0  0  0
   20.2871    5.4248    0.0000 C   0  0  0  0  0  0  0  0  0  0  0  0
   18.8114    5.6939    0.0000 C   0  0  0  0  0  0  0  0  0  0  0  0
   17.3151    5.7990    0.0000 C   0  0  0  0  0  0  0  0  0  0  0  0
   15.8163    5.7389    0.0000 C   0  0  0  0  0  0  0  0  0  0  0  0
   14.3332    5.5143    0.0000 C   0  0  0  0  0  0  0  0  0  0  0  0
   12.8839    5.1279    0.0000 C   0  0  0  0  0  0  0  0  0  0  0  0
   11.4858    4.5843    0.0000 C   0  0  0  0  0  0  0  0  0  0  0  0
   10.1560    3.8903    0.0000 C   0  0  0  0  0  0  0  0  0  0  0  0
    8.9106    3.0542    0.0000 C   0  0  0  0  0  0  0  0  0  0  0  0
    7.7648    2.0862    0.0000 C   0  0  0  0  0  0  0  0  0  0  0  0
    6.7324    0.9980    0.0000 C   0  0  0  0  0  0  0  0  0  0  0  0
    5.8260   -0.1971    0.0000 C   0  0  0  0  0  0  0  0  0  0  0  0
    5.0565   -1.4847    0.0000 C   0  0  0  0  0  0  0  0  0  0  0  0
    4.5700   -0.0000    0.0000 C   0  0  0  0  0  0  0  0  0  0  0  0
    4.3849    1.2875    0.0000 C   0  0  0  0  0  0  0  0  0  0  0  0
    3.8445    2.4707    0.0000 C   0  0  0  0  0  0  0  0  0  0  0  0
    2.9927    3.4538    0.0000 C   0  0  0  0  0  0  0  0  0  0  0  0
    1.8984    4.1570    0.0000 C   0  0  0  0  0  0  0  0  0  0  0  0
    0.6504    4.5235    0.0000 C   0  0  0  0  0  0  0  0  0  0  0  0
   -0.6504    4.5235    0.0000 C   0  0  0  0  0  0  0  0  0  0  0  0
   -1.8984    4.1570    0.0000 C   0  0  0  0  0  0  0  0  0  0  0  0
   -2.9927    3.4538    0.0000 C   0  0  0  0  0  0  0  0  0  0  0  0
   -3.8445    2.4707    0.0000 C   0  0  0  0  0  0  0  0  0  0  0  0
   -4.3849    1.2875    0.0000 C   0  0  0  0  0  0  0  0  0  0  0  0
   -4.5700    0.0000    0.0000 C   0  0  0  0  0  0  0  0  0  0  0  0
   -4.3849   -1.2875    0.0000 C   0  0  0  0  0  0  0  0  0  0  0  0
   -3.8445   -2.4707    0.0000 C   0  0  0  0  0  0  0  0  0  0  0  0
   -2.9927   -3.4538    0.0000 C   0  0  0  0  0  0  0  0  0  0  0  0
   -1.8984   -4.1570    0.0000 C   0  0  0  0  0  0  0  0  0  0  0  0
   -0.6504   -4.5235    0.0000 C   0  0  0  0  0  0  0  0  0  0  0  0
    0.6504   -4.5235    0.0000 C   0  0  0  0  0  0  0  0  0  0  0  0
    1.8984   -4.1570    0.0000 C   0  0  0  0  0  0  0  0  0  0  0  0
    2.9927   -3.4538    0.0000 C   0  0  0  0  0  0  0  0  0  0  0  0
    4.4334   -2.8492    0.0000 C   0  0  0  0  0  0  0  0  0  0  0  0
  1  2  1  0
  2  3  1  0
  3  4  1  0
  4  5  1  0
  5  6  1  0
  6  7  1  0
  7  8  1  0
  8  9  1  0
  9 10  1  0
 10 11  1  0
 11 12  1  0
 12 13  1  0
 13 14  1  0
 14 15  1  0
 15 16  1  0
 16 17  1  0
 17 18  1  0
 18 19  1  0
 19 20  1  0
 20 21  1  0
 21 22  1  0
 22 23  1  0
 23 24  1  0
 24 25  1  0
 25 26  1  0
 26 27  1  0
 27 28  1  0
 28 29  1  0
 29 30  1  0
 30 31  1  0
 31 32  1  0
 32 33  1  0
 33 34  1  0
 34 35  1  0
 35 36  1  0
 36 37  1  0
 37 38  1  0
 38 39  1  0
 39 40  1  0
 40 41  1  0
 41 42  1  0
 42 43  1  0
 43 44  1  0
 44 45  1  0
 45 46  1  0
 46 47  1  0
 47 48  1  0
 48 49  1  0
 49 50  1  0
 50 51  1  0
 51 52  1  0
 52 53  1  0
 53 54  1  0
 54 55  1  0
 55 56  1  0
 56 57  1  0
 57 58  1  0
 58 59  1  0
 59 60  1  0
 60 61  1  0
 61 62  2  0
 62 63  1  0
 63 64  2  0
 64 65  1  0
 65 66  2  0
 66 67  1  0
 67 68  2  0
 68 69  1  0
 69 70  2  0
 70 71  1  0
 71 72  2  0
 72 73  1  0
 73 74  2  0
 74 75  1  0
 75 76  2  0
 76 77  1  0
 77 78  2  0
 78  2  1  0
 78 57  1  0
M  END
>  <Title>  (977) 
idABJQgen13

$$$$

     RDKit          2D

 39 44  0  0  0  0  0  0  0  0999 V2000
   -1.3240   -6.3062    0.0000 C   0  0  0  0  0  0  0  0  0  0  0  0
   -0.7500   -4.9204    0.0000 C   0  0  0  0  0  0  0  0  0  0  0  0
    0.7500   -4.9204    0.0000 C   0  0  0  0  0  0  0  0  0  0  0  0
    1.8107   -3.8597    0.0000 C   0  0  0  0  0  0  0  0  0  0  0  0
    1.8107   -2.3597    0.0000 C   0  0  0  0  0  0  0  0  0  0  0  0
    3.1965   -1.7857    0.0000 C   0  0  0  0  0  0  0  0  0  0  0  0
    3.3923   -0.2985    0.0000 O   0  0  0  0  0  0  0  0  0  0  0  0
    4.3865   -2.6988    0.0000 N   0  0  0  0  0  0  0  0  0  0  0  0
    5.7723   -2.1248    0.0000 C   0  0  0  0  0  0  0  0  0  0  0  0
    6.1225   -0.6662    0.0000 N   0  0  0  0  0  0  0  0  0  0  0  0
    7.6179   -0.5485    0.0000 N   0  0  0  0  0  0  0  0  0  0  0  0
    8.1919   -1.9344    0.0000 N   0  0  0  0  0  0  0  0  0  0  0  0
    7.0513   -2.9085    0.0000 N   0  0  0  0  0  0  0  0  0  0  0  0
    7.1690   -4.4039    0.0000 N   0  0  0  0  0  0  0  0  0  0  0  0
    8.4479   -5.1877    0.0000 C   0  0  0  0  0  0  0  0  0  0  0  0
    8.0978   -6.6462    0.0000 C   0  0  0  0  0  0  0  0  0  0  0  0
    9.0719   -7.7868    0.0000 C   0  0  0  0  0  0  0  0  0  0  0  0
   10.5468   -7.5135    0.0000 O   0  0  0  0  0  0  0  0  0  0  0  0
    8.5712   -9.2008    0.0000 N   0  0  0  0  0  0  0  0  0  0  0  0
    9.5454  -10.3414    0.0000 C   0  0  0  0  0  0  0  0  0  0  0  0
    9.0447  -11.7554    0.0000 N   0  0  0  0  0  0  0  0  0  0  0  0
   10.0189  -12.8960    0.0000 N   0  0  0  0  0  0  0  0  0  0  0  0
   11.4937  -12.6226    0.0000 N   0  0  0  0  0  0  0  0  0  0  0  0
   11.9945  -11.2087    0.0000 N   0  0  0  0  0  0  0  0  0  0  0  0
   11.0203  -10.0680    0.0000 N   0  0  0  0  0  0  0  0  0  0  0  0
    6.6024   -6.7639    0.0000 C   0  0  0  0  0  0  0  0  0  0  0  0
    6.0284   -5.3781    0.0000 C   0  0  0  0  0  0  0  0  0  0  0  0
    0.7500   -1.2990    0.0000 C   0  0  0  0  0  0  0  0  0  0  0  0
    1.5000    0.0000    0.0000 C   0  0  0  0  0  0  0  0  0  0  0  0
    0.7500    1.2990    0.0000 C   0  0  0  0  0  0  0  0  0  0  0  0
   -0.7500    1.2990    0.0000 C   0  0  0  0  0  0  0  0  0  0  0  0
   -1.5000    0.0000    0.0000 C   0  0  0  0  0  0  0  0  0  0  0  0
   -0.7500   -1.2990    0.0000 C   0  0  0  0  0  0  0  0  0  0  0  0
   -1.8107   -2.3597    0.0000 C   0  0  0  0  0  0  0  0  0  0  0  0
   -3.1097   -1.6097    0.0000 C   0  0  0  0  0  0  0  0  0  0  0  0
   -4.4087   -2.3597    0.0000 C   0  0  0  0  0  0  0  0  0  0  0  0
   -4.4087   -3.8597    0.0000 C   0  0  0  0  0  0  0  0  0  0  0  0
   -3.1097   -4.6097    0.0000 C   0  0  0  0  0  0  0  0  0  0  0  0
   -1.8107   -3.8597    0.0000 C   0  0  0  0  0  0  0  0  0  0  0  0
  1  2  1  0
  2  3  1  0
  3  4  2  0
  4  5  1  0
  5  6  1  0
  6  7  2  0
  6  8  1  0
  8  9  1  0
  9 10  2  0
 10 11  1  0
 11 12  2  0
 12 13  1  0
 13 14  1  0
 14 15  1  0
 15 16  2  0
 16 17  1  0
 17 18  2  0
 17 19  1  0
 19 20  1  0
 20 21  2  0
 21 22  1  0
 22 23  2  0
 23 24  1  0
 24 25  2  0
 16 26  1  0
 26 27  1  0
  5 28  1  0
 28 29  2  0
 29 30  1  0
 30 31  2  0
 31 32  1  0
 32 33  2  0
 33 34  1  0
 34 35  2  0
 35 36  1  0
 36 37  2  0
 37 38  1  0
 38 39  2  0
 39  2  1  0
 13  9  1  0
 27 14  1  0
 33 28  1  0
 39 34  1  0
 25 20  1  0
M  END
>  <Title>  (978) 
idABJRgen13

$$$$

     RDKit          2D

  7  7  0  0  0  0  0  0  0  0999 V2000
    4.8107   -1.2990    0.0000 C   0  0  0  0  0  0  0  0  0  0  0  0
    3.3107   -1.2990    0.0000 C   0  0  0  0  0  0  0  0  0  0  0  0
    2.5607    0.0000    0.0000 N   0  0  0  0  0  0  0  0  0  0  0  0
    1.0607    0.0000    0.0000 N   0  0  0  0  0  0  0  0  0  0  0  0
   -0.0000   -1.0607    0.0000 C   0  0  0  0  0  0  0  0  0  0  0  0
   -1.0607    0.0000    0.0000 C   0  0  0  0  0  0  0  0  0  0  0  0
    0.0000    1.0607    0.0000 C   0  0  0  0  0  0  0  0  0  0  0  0
  1  2  1  0
  2  3  2  3
  3  4  1  0
  4  5  1  0
  5  6  2  0
  6  7  2  0
  7  4  1  0
M  END
>  <Title>  (979) 
idABJSgen13

$$$$

     RDKit          2D

 70 69  0  0  0  0  0  0  0  0999 V2000
    0.0000    0.0000    0.0000 C   0  0  0  0  0  0  0  0  0  0  0  0
   -0.0000   -1.5000    0.0000 C   0  0  0  0  0  0  0  0  0  0  0  0
   -0.0000   -3.0000    0.0000 C   0  0  0  0  0  0  0  0  0  0  0  0
   -0.0000   -4.5000    0.0000 C   0  0  0  0  0  0  0  0  0  0  0  0
   -0.0000   -6.0000    0.0000 C   0  0  0  0  0  0  0  0  0  0  0  0
   -0.0000   -7.5000    0.0000 C   0  0  0  0  0  0  0  0  0  0  0  0
   -0.0000   -9.0000    0.0000 C   0  0  0  0  0  0  0  0  0  0  0  0
   -0.0000  -10.5000    0.0000 C   0  0  0  0  0  0  0  0  0  0  0  0
   -0.0000  -12.0000    0.0000 C   0  0  0  0  0  0  0  0  0  0  0  0
   -0.0000  -13.5000    0.0000 C   0  0  0  0  0  0  0  0  0  0  0  0
   -0.0000  -15.0000    0.0000 C   0  0  0  0  0  0  0  0  0  0  0  0
   -0.0000  -16.5000    0.0000 C   0  0  0  0  0  0  0  0  0  0  0  0
   -0.0000  -18.0000    0.0000 C   0  0  0  0  0  0  0  0  0  0  0  0
   -0.0000  -19.5000    0.0000 C   0  0  0  0  0  0  0  0  0  0  0  0
   -0.0000  -21.0000    0.0000 C   0  0  0  0  0  0  0  0  0  0  0  0
   -0.0000  -22.5000    0.0000 C   0  0  0  0  0  0  0  0  0  0  0  0
   -0.0000  -24.0000    0.0000 C   0  0  0  0  0  0  0  0  0  0  0  0
   -0.0000  -25.5000    0.0000 C   0  0  0  0  0  0  0  0  0  0  0  0
   -0.0000  -27.0000    0.0000 C   0  0  0  0  0  0  0  0  0  0  0  0
   -0.0000  -28.5000    0.0000 C   0  0  0  0  0  0  0  0  0  0  0  0
   -0.0000  -30.0000    0.0000 C   0  0  0  0  0  0  0  0  0  0  0  0
   -0.0000  -31.5000    0.0000 C   0  0  0  0  0  0  0  0  0  0  0  0
   -0.0000  -33.0000    0.0000 C   0  0  0  0  0  0  0  0  0  0  0  0
   -0.0000  -34.5000    0.0000 C   0  0  0  0  0  0  0  0  0  0  0  0
   -0.0000  -36.0000    0.0000 C   0  0  0  0  0  0  0  0  0  0  0  0
   -0.0000  -37.5000    0.0000 C   0  0  0  0  0  0  0  0  0  0  0  0
   -0.0000  -39.0000    0.0000 C   0  0  0  0  0  0  0  0  0  0  0  0
   -0.0000  -40.5000    0.0000 C   0  0  0  0  0  0  0  0  0  0  0  0
   -0.0000  -42.0000    0.0000 C   0  0  0  0  0  0  0  0  0  0  0  0
   -0.0000  -43.5000    0.0000 C   0  0  0  0  0  0  0  0  0  0  0  0
   -0.0000  -45.0000    0.0000 C   0  0  0  0  0  0  0  0  0  0  0  0
   -0.0000  -46.5000    0.0000 C   0  0  0  0  0  0  0  0  0  0  0  0
   -0.0000  -48.0000    0.0000 C   0  0  0  0  0  0  0  0  0  0  0  0
   -0.0000  -49.5000    0.0000 C   0  0  0  0  0  0  0  0  0  0  0  0
   -0.0000  -51.0000    0.0000 C   0  0  0  0  0  0  0  0  0  0  0  0
   -0.0000  -52.5000    0.0000 C   0  0  0  0  0  0  0  0  0  0  0  0
   -0.0000  -54.0000    0.0000 C   0  0  0  0  0  0  0  0  0  0  0  0
   -0.0000  -55.5000    0.0000 C   0  0  0  0  0  0  0  0  0  0  0  0
   -0.0000  -57.0000    0.0000 C   0  0  0  0  0  0  0  0  0  0  0  0
   -0.0000  -58.5000    0.0000 C   0  0  0  0  0  0  0  0  0  0  0  0
   -0.0000  -60.0000    0.0000 C   0  0  0  0  0  0  0  0  0  0  0  0
   -0.0000  -61.5000    0.0000 C   0  0  0  0  0  0  0  0  0  0  0  0
   -0.0000  -63.0000    0.0000 C   0  0  0  0  0  0  0  0  0  0  0  0
   -0.0000  -64.5000    0.0000 C   0  0  0  0  0  0  0  0  0  0  0  0
   -0.0000  -66.0000    0.0000 C   0  0  0  0  0  0  0  0  0  0  0  0
   -0.0000  -67.5000    0.0000 C   0  0  0  0  0  0  0  0  0  0  0  0
   -0.0000  -69.0000    0.0000 C   0  0  0  0  0  0  0  0  0  0  0  0
   -0.0000  -70.5000    0.0000 C   0  0  0  0  0  0  0  0  0  0  0  0
   -0.0000  -72.0000    0.0000 C   0  0  0  0  0  0  0  0  0  0  0  0
   -0.0000  -73.5000    0.0000 C   0  0  0  0  0  0  0  0  0  0  0  0
   -0.0000  -75.0000    0.0000 C   0  0  0  0  0  0  0  0  0  0  0  0
   -0.0000  -76.5000    0.0000 C   0  0  0  0  0  0  0  0  0  0  0  0
   -0.0000  -78.0000    0.0000 C   0  0  0  0  0  0  0  0  0  0  0  0
   -0.0000  -79.5000    0.0000 C   0  0  0  0  0  0  0  0  0  0  0  0
   -0.0000  -81.0000    0.0000 C   0  0  0  0  0  0  0  0  0  0  0  0
   -0.0000  -82.5000    0.0000 C   0  0  0  0  0  0  0  0  0  0  0  0
   -0.0000  -84.0000    0.0000 C   0  0  0  0  0  0  0  0  0  0  0  0
   -0.0000  -85.5000    0.0000 C   0  0  0  0  0  0  0  0  0  0  0  0
   -0.0000  -87.0000    0.0000 C   0  0  0  0  0  0  0  0  0  0  0  0
   -0.0000  -88.5000    0.0000 C   0  0  0  0  0  0  0  0  0  0  0  0
   -0.0000  -90.0000    0.0000 C   0  0  0  0  0  0  0  0  0  0  0  0
   -0.0000  -91.5000    0.0000 C   0  0  0  0  0  0  0  0  0  0  0  0
   -0.0000  -93.0000    0.0000 C   0  0  0  0  0  0  0  0  0  0  0  0
   -0.0000  -94.5000    0.0000 C   0  0  0  0  0  0  0  0  0  0  0  0
   -0.0000  -96.0000    0.0000 C   0  0  0  0  0  0  0  0  0  0  0  0
   -0.0000  -97.5000    0.0000 C   0  0  0  0  0  0  0  0  0  0  0  0
   -0.0000  -99.0000    0.0000 C   0  0  0  0  0  0  0  0  0  0  0  0
   -0.0000 -100.5000    0.0000 C   0  0  0  0  0  0  0  0  0  0  0  0
   -0.0000 -102.0000    0.0000 C   0  0  0  0  0  0  0  0  0  0  0  0
   -0.0000 -103.5000    0.0000 C   0  0  0  0  0  0  0  0  0  0  0  0
  1  2  3  0
  2  3  1  0
  3  4  3  0
  4  5  1  0
  5  6  3  0
  6  7  1  0
  7  8  3  0
  8  9  1  0
  9 10  3  0
 10 11  1  0
 11 12  3  0
 12 13  1  0
 13 14  3  0
 14 15  1  0
 15 16  3  0
 16 17  1  0
 17 18  3  0
 18 19  1  0
 19 20  3  0
 20 21  1  0
 21 22  3  0
 22 23  1  0
 23 24  3  0
 24 25  1  0
 25 26  3  0
 26 27  1  0
 27 28  3  0
 28 29  1  0
 29 30  3  0
 30 31  1  0
 31 32  3  0
 32 33  1  0
 33 34  3  0
 34 35  1  0
 35 36  3  0
 36 37  1  0
 37 38  3  0
 38 39  1  0
 39 40  3  0
 40 41  1  0
 41 42  3  0
 42 43  1  0
 43 44  3  0
 44 45  1  0
 45 46  3  0
 46 47  1  0
 47 48  3  0
 48 49  1  0
 49 50  3  0
 50 51  1  0
 51 52  3  0
 52 53  1  0
 53 54  3  0
 54 55  1  0
 55 56  3  0
 56 57  1  0
 57 58  3  0
 58 59  1  0
 59 60  3  0
 60 61  1  0
 61 62  3  0
 62 63  1  0
 63 64  3  0
 64 65  1  0
 65 66  3  0
 66 67  1  0
 67 68  3  0
 68 69  1  0
 69 70  3  0
M  END
>  <Title>  (980) 
idABJTgen13

$$$$

     RDKit          2D

 14 15  0  0  0  0  0  0  0  0999 V2000
   -0.8928   -7.6841    0.0000 C   0  0  0  0  0  0  0  0  0  0  0  0
    0.4775   -7.0740    0.0000 C   0  0  0  0  0  0  0  0  0  0  0  0
    1.8478   -6.4639    0.0000 C   0  0  0  0  0  0  0  0  0  0  0  0
    2.0046   -4.9721    0.0000 C   0  0  0  0  0  0  0  0  0  0  0  0
    3.3037   -4.2221    0.0000 C   0  0  0  0  0  0  0  0  0  0  0  0
    2.9918   -2.7549    0.0000 C   0  0  0  0  0  0  0  0  0  0  0  0
    1.5000   -2.5981    0.0000 C   0  0  0  0  0  0  0  0  0  0  0  0
    0.7500   -1.2990    0.0000 N   0  0  0  0  0  0  0  0  0  0  0  0
    1.5000    0.0000    0.0000 C   0  0  0  0  0  0  0  0  0  0  0  0
    0.7500    1.2990    0.0000 C   0  0  0  0  0  0  0  0  0  0  0  0
   -0.7500    1.2990    0.0000 N   0  0  0  0  0  0  0  0  0  0  0  0
   -1.5000    0.0000    0.0000 N   0  0  0  0  0  0  0  0  0  0  0  0
   -0.7500   -1.2990    0.0000 N   0  0  0  0  0  0  0  0  0  0  0  0
    0.8899   -3.9684    0.0000 C   0  0  0  0  0  0  0  0  0  0  0  0
  1  2  3  0
  2  3  1  0
  3  4  1  0
  4  5  2  0
  5  6  1  0
  6  7  2  0
  7  8  1  0
  8  9  1  0
  9 10  1  0
 10 11  2  0
 11 12  1  0
 12 13  2  0
  7 14  1  0
 14  4  1  0
 13  8  1  0
M  END
>  <Title>  (981) 
idABJUgen13

$$$$

     RDKit          2D

 11 10  0  0  0  0  0  0  0  0999 V2000
    0.0000    0.0000    0.0000 C   0  0  0  0  0  0  0  0  0  0  0  0
    1.2990    0.7500    0.0000 C   0  0  0  0  0  0  0  0  0  0  0  0
    2.5981   -0.0000    0.0000 C   0  0  0  0  0  0  0  0  0  0  0  0
    3.8971    0.7500    0.0000 N   0  0  0  0  0  0  0  0  0  0  0  0
    5.1962   -0.0000    0.0000 C   0  0  0  0  0  0  0  0  0  0  0  0
    5.1962   -1.5000    0.0000 O   0  0  0  0  0  0  0  0  0  0  0  0
    6.4952    0.7500    0.0000 N   0  0  0  0  0  0  0  0  0  0  0  0
    7.7942   -0.0000    0.0000 C   0  0  0  0  0  0  0  0  0  0  0  0
    9.0933    0.7500    0.0000 C   0  0  0  0  0  0  0  0  0  0  0  0
   10.3923   -0.0000    0.0000 C   0  0  0  0  0  0  0  0  0  0  0  0
   11.6913    0.7500    0.0000 C   0  0  0  0  0  0  0  0  0  0  0  0
  1  2  1  0
  2  3  2  3
  3  4  1  0
  4  5  1  0
  5  6  2  0
  5  7  1  0
  7  8  1  0
  8  9  1  0
  9 10  1  0
 10 11  1  0
M  END
>  <Title>  (982) 
idABJVgen13

$$$$

     RDKit          2D

 14 14  0  0  0  0  0  0  0  0999 V2000
   13.5000    0.0000    0.0000 C   0  0  0  0  0  0  0  0  0  0  0  0
   12.0000    0.0000    0.0000 C   0  0  0  0  0  0  0  0  0  0  0  0
   10.5000    0.0000    0.0000 C   0  0  0  0  0  0  0  0  0  0  0  0
    9.0000    0.0000    0.0000 C   0  0  0  0  0  0  0  0  0  0  0  0
    7.5000    0.0000    0.0000 C   0  0  0  0  0  0  0  0  0  0  0  0
    6.0000    0.0000    0.0000 C   0  0  0  0  0  0  0  0  0  0  0  0
    4.5000    0.0000    0.0000 C   0  0  0  0  0  0  0  0  0  0  0  0
    3.0000    0.0000    0.0000 C   0  0  0  0  0  0  0  0  0  0  0  0
    1.5000    0.0000    0.0000 C   0  0  0  0  0  0  0  0  0  0  0  0
    0.7500   -1.2990    0.0000 C   0  0  0  0  0  0  0  0  0  0  0  0
   -0.7500   -1.2990    0.0000 C   0  0  0  0  0  0  0  0  0  0  0  0
   -1.5000    0.0000    0.0000 C   0  0  0  0  0  0  0  0  0  0  0  0
   -0.7500    1.2990    0.0000 C   0  0  0  0  0  0  0  0  0  0  0  0
    0.7500    1.2990    0.0000 C   0  0  0  0  0  0  0  0  0  0  0  0
  1  2  3  0
  2  3  1  0
  3  4  3  0
  4  5  1  0
  5  6  3  0
  6  7  1  0
  7  8  3  0
  8  9  1  0
  9 10  2  0
 10 11  1  0
 11 12  2  0
 12 13  1  0
 13 14  2  0
 14  9  1  0
M  END
>  <Title>  (983) 
idABJWgen13

$$$$

     RDKit          2D

 87 88  0  0  0  0  0  0  0  0999 V2000
   -0.3555    2.9351    0.0000 C   0  0  0  0  0  0  0  0  0  0  0  0
    0.8830    3.7812    0.0000 C   0  0  0  0  0  0  0  0  0  0  0  0
    0.0895    5.0542    0.0000 C   0  0  0  0  0  0  0  0  0  0  0  0
   -0.5947    6.3890    0.0000 C   0  0  0  0  0  0  0  0  0  0  0  0
   -1.1648    7.7765    0.0000 C   0  0  0  0  0  0  0  0  0  0  0  0
   -1.6168    9.2067    0.0000 C   0  0  0  0  0  0  0  0  0  0  0  0
   -1.9476   10.6698    0.0000 C   0  0  0  0  0  0  0  0  0  0  0  0
   -2.1547   12.1554    0.0000 C   0  0  0  0  0  0  0  0  0  0  0  0
   -2.2369   13.6532    0.0000 C   0  0  0  0  0  0  0  0  0  0  0  0
   -2.1934   15.1526    0.0000 C   0  0  0  0  0  0  0  0  0  0  0  0
   -2.0246   16.6430    0.0000 C   0  0  0  0  0  0  0  0  0  0  0  0
   -1.7316   18.1141    0.0000 C   0  0  0  0  0  0  0  0  0  0  0  0
   -1.3166   19.5556    0.0000 C   0  0  0  0  0  0  0  0  0  0  0  0
   -0.7825   20.9573    0.0000 C   0  0  0  0  0  0  0  0  0  0  0  0
   -0.1329   22.3093    0.0000 C   0  0  0  0  0  0  0  0  0  0  0  0
    0.6276   23.6023    0.0000 C   0  0  0  0  0  0  0  0  0  0  0  0
    1.4935   24.8271    0.0000 C   0  0  0  0  0  0  0  0  0  0  0  0
    2.4589   25.9751    0.0000 C   0  0  0  0  0  0  0  0  0  0  0  0
    3.5170   27.0383    0.0000 C   0  0  0  0  0  0  0  0  0  0  0  0
    4.6604   28.0093    0.0000 C   0  0  0  0  0  0  0  0  0  0  0  0
    5.8810   28.8811    0.0000 C   0  0  0  0  0  0  0  0  0  0  0  0
    7.1702   29.6478    0.0000 C   0  0  0  0  0  0  0  0  0  0  0  0
    8.5191   30.3039    0.0000 C   0  0  0  0  0  0  0  0  0  0  0  0
    9.9182   30.8449    0.0000 C   0  0  0  0  0  0  0  0  0  0  0  0
   11.3576   31.2668    0.0000 C   0  0  0  0  0  0  0  0  0  0  0  0
   12.8273   31.5669    0.0000 C   0  0  0  0  0  0  0  0  0  0  0  0
   14.3169   31.7429    0.0000 C   0  0  0  0  0  0  0  0  0  0  0  0
   15.8161   31.7936    0.0000 C   0  0  0  0  0  0  0  0  0  0  0  0
   17.3142   31.7187    0.0000 C   0  0  0  0  0  0  0  0  0  0  0  0
   18.8008   31.5187    0.0000 C   0  0  0  0  0  0  0  0  0  0  0  0
   20.2655   31.1951    0.0000 C   0  0  0  0  0  0  0  0  0  0  0  0
   21.6979   30.7500    0.0000 C   0  0  0  0  0  0  0  0  0  0  0  0
   23.0881   30.1866    0.0000 C   0  0  0  0  0  0  0  0  0  0  0  0
   24.4263   29.5088    0.0000 C   0  0  0  0  0  0  0  0  0  0  0  0
   25.7030   28.7215    0.0000 C   0  0  0  0  0  0  0  0  0  0  0  0
   26.9094   27.8300    0.0000 C   0  0  0  0  0  0  0  0  0  0  0  0
   28.0369   26.8408    0.0000 C   0  0  0  0  0  0  0  0  0  0  0  0
   29.0778   25.7607    0.0000 C   0  0  0  0  0  0  0  0  0  0  0  0
   30.0246   24.5972    0.0000 C   0  0  0  0  0  0  0  0  0  0  0  0
   30.8707   23.3586    0.0000 C   0  0  0  0  0  0  0  0  0  0  0  0
   31.6102   22.0536    0.0000 C   0  0  0  0  0  0  0  0  0  0  0  0
   32.2379   20.6913    0.0000 C   0  0  0  0  0  0  0  0  0  0  0  0
   32.7494   19.2812    0.0000 C   0  0  0  0  0  0  0  0  0  0  0  0
   33.1412   17.8332    0.0000 C   0  0  0  0  0  0  0  0  0  0  0  0
   33.4103   16.3576    0.0000 C   0  0  0  0  0  0  0  0  0  0  0  0
   33.5551   14.8646    0.0000 C   0  0  0  0  0  0  0  0  0  0  0  0
   33.5745   13.3647    0.0000 C   0  0  0  0  0  0  0  0  0  0  0  0
   33.4682   11.8685    0.0000 C   0  0  0  0  0  0  0  0  0  0  0  0
   33.2371   10.3864    0.0000 C   0  0  0  0  0  0  0  0  0  0  0  0
   32.8829    8.9288    0.0000 C   0  0  0  0  0  0  0  0  0  0  0  0
   32.4079    7.5060    0.0000 C   0  0  0  0  0  0  0  0  0  0  0  0
   31.8155    6.1279    0.0000 C   0  0  0  0  0  0  0  0  0  0  0  0
   31.1098    4.8043    0.0000 C   0  0  0  0  0  0  0  0  0  0  0  0
   30.2959    3.5443    0.0000 C   0  0  0  0  0  0  0  0  0  0  0  0
   29.3794    2.3569    0.0000 C   0  0  0  0  0  0  0  0  0  0  0  0
   28.3668    1.2503    0.0000 C   0  0  0  0  0  0  0  0  0  0  0  0
   27.2651    0.2323    0.0000 C   0  0  0  0  0  0  0  0  0  0  0  0
   26.0821   -0.6899    0.0000 C   0  0  0  0  0  0  0  0  0  0  0  0
   24.8261   -1.5099    0.0000 C   0  0  0  0  0  0  0  0  0  0  0  0
   23.5058   -2.2220    0.0000 C   0  0  0  0  0  0  0  0  0  0  0  0
   22.1306   -2.8210    0.0000 C   0  0  0  0  0  0  0  0  0  0  0  0
   20.7101   -3.3029    0.0000 C   0  0  0  0  0  0  0  0  0  0  0  0
   19.2543   -3.6642    0.0000 C   0  0  0  0  0  0  0  0  0  0  0  0
   17.7733   -3.9024    0.0000 C   0  0  0  0  0  0  0  0  0  0  0  0
   16.2776   -4.0159    0.0000 C   0  0  0  0  0  0  0  0  0  0  0  0
   14.7777   -4.0038    0.0000 C   0  0  0  0  0  0  0  0  0  0  0  0
   13.2840   -3.8663    0.0000 C   0  0  0  0  0  0  0  0  0  0  0  0
   11.8071   -3.6042    0.0000 C   0  0  0  0  0  0  0  0  0  0  0  0
   10.3573   -3.2195    0.0000 C   0  0  0  0  0  0  0  0  0  0  0  0
    8.9447   -2.7148    0.0000 C   0  0  0  0  0  0  0  0  0  0  0  0
    7.5794   -2.0937    0.0000 C   0  0  0  0  0  0  0  0  0  0  0  0
    6.2708   -1.3605    0.0000 C   0  0  0  0  0  0  0  0  0  0  0  0
    5.0281   -0.5203    0.0000 C   0  0  0  0  0  0  0  0  0  0  0  0
    3.8601    0.4208    0.0000 C   0  0  0  0  0  0  0  0  0  0  0  0
    2.7750    1.4564    0.0000 C   0  0  0  0  0  0  0  0  0  0  0  0
    3.1339    0.0000    0.0000 C   0  0  0  0  0  0  0  0  0  0  0  0
    2.7750   -1.4564    0.0000 C   0  0  0  0  0  0  0  0  0  0  0  0
    1.7803   -2.5792    0.0000 C   0  0  0  0  0  0  0  0  0  0  0  0
    0.3778   -3.1111    0.0000 C   0  0  0  0  0  0  0  0  0  0  0  0
   -1.1113   -2.9303    0.0000 C   0  0  0  0  0  0  0  0  0  0  0  0
   -2.3458   -2.0782    0.0000 C   0  0  0  0  0  0  0  0  0  0  0  0
   -3.0429   -0.7500    0.0000 C   0  0  0  0  0  0  0  0  0  0  0  0
   -3.0429    0.7500    0.0000 C   0  0  0  0  0  0  0  0  0  0  0  0
   -2.3458    2.0782    0.0000 C   0  0  0  0  0  0  0  0  0  0  0  0
   -1.1113    2.9303    0.0000 C   0  0  0  0  0  0  0  0  0  0  0  0
    0.3778    3.1111    0.0000 C   0  0  0  0  0  0  0  0  0  0  0  0
    1.7803    2.5792    0.0000 C   0  0  0  0  0  0  0  0  0  0  0  0
  1  2  1  0
  2  3  1  0
  3  4  1  0
  4  5  1  0
  5  6  1  0
  6  7  1  0
  7  8  1  0
  8  9  1  0
  9 10  1  0
 10 11  1  0
 11 12  1  0
 12 13  1  0
 13 14  1  0
 14 15  1  0
 15 16  1  0
 16 17  1  0
 17 18  1  0
 18 19  1  0
 19 20  1  0
 20 21  1  0
 21 22  1  0
 22 23  1  0
 23 24  1  0
 24 25  1  0
 25 26  1  0
 26 27  1  0
 27 28  1  0
 28 29  1  0
 29 30  1  0
 30 31  1  0
 31 32  1  0
 32 33  1  0
 33 34  1  0
 34 35  1  0
 35 36  1  0
 36 37  1  0
 37 38  1  0
 38 39  1  0
 39 40  1  0
 40 41  1  0
 41 42  1  0
 42 43  1  0
 43 44  1  0
 44 45  1  0
 45 46  1  0
 46 47  1  0
 47 48  1  0
 48 49  1  0
 49 50  1  0
 50 51  1  0
 51 52  1  0
 52 53  1  0
 53 54  1  0
 54 55  1  0
 55 56  1  0
 56 57  1  0
 57 58  1  0
 58 59  1  0
 59 60  1  0
 60 61  1  0
 61 62  1  0
 62 63  1  0
 63 64  1  0
 64 65  1  0
 65 66  1  0
 66 67  1  0
 67 68  1  0
 68 69  1  0
 69 70  1  0
 70 71  1  0
 71 72  1  0
 72 73  1  0
 73 74  1  0
 74 75  1  0
 75 76  1  0
 76 77  2  0
 77 78  1  0
 78 79  2  0
 79 80  1  0
 80 81  2  0
 81 82  1  0
 82 83  2  0
 83 84  1  0
 84 85  2  0
 85 86  1  0
 86 87  2  0
 87  2  1  0
 87 75  1  0
M  END
>  <Title>  (984) 
idABJXgen13

$$$$

     RDKit          2D

 31 35  0  0  0  0  0  0  0  0999 V2000
   -3.0000   -2.5981    0.0000 C   0  0  0  0  0  0  0  0  0  0  0  0
   -1.5000   -2.5981    0.0000 C   0  0  0  0  0  0  0  0  0  0  0  0
   -0.7500   -3.8971    0.0000 C   0  0  0  0  0  0  0  0  0  0  0  0
    0.7500   -3.8971    0.0000 C   0  0  0  0  0  0  0  0  0  0  0  0
    1.5000   -2.5981    0.0000 C   0  0  0  0  0  0  0  0  0  0  0  0
    3.0000   -2.5981    0.0000 C   0  0  0  0  0  0  0  0  0  0  0  0
    3.7500   -1.2990    0.0000 O   0  0  0  0  0  0  0  0  0  0  0  0
    3.7500   -3.8971    0.0000 N   0  0  0  0  0  0  0  0  0  0  0  0
    5.2500   -3.8971    0.0000 C   0  0  0  0  0  0  0  0  0  0  0  0
    6.1317   -2.6836    0.0000 N   0  0  0  0  0  0  0  0  0  0  0  0
    7.5583   -3.1471    0.0000 N   0  0  0  0  0  0  0  0  0  0  0  0
    7.5583   -4.6471    0.0000 N   0  0  0  0  0  0  0  0  0  0  0  0
    6.1317   -5.1106    0.0000 N   0  0  0  0  0  0  0  0  0  0  0  0
    5.6682   -6.5372    0.0000 N   0  0  0  0  0  0  0  0  0  0  0  0
    6.5498   -7.7508    0.0000 C   0  0  0  0  0  0  0  0  0  0  0  0
    5.6682   -8.9643    0.0000 C   0  0  0  0  0  0  0  0  0  0  0  0
    4.2416   -8.5008    0.0000 C   0  0  0  0  0  0  0  0  0  0  0  0
    3.0280   -9.3824    0.0000 C   0  0  0  0  0  0  0  0  0  0  0  0
    1.6577   -8.7723    0.0000 C   0  0  0  0  0  0  0  0  0  0  0  0
    0.4442   -9.6540    0.0000 C   0  0  0  0  0  0  0  0  0  0  0  0
    0.6010  -11.1458    0.0000 C   0  0  0  0  0  0  0  0  0  0  0  0
    1.9713  -11.7559    0.0000 C   0  0  0  0  0  0  0  0  0  0  0  0
    3.1848  -10.8742    0.0000 C   0  0  0  0  0  0  0  0  0  0  0  0
    4.2416   -7.0008    0.0000 C   0  0  0  0  0  0  0  0  0  0  0  0
    3.0280   -6.1191    0.0000 O   0  0  0  0  0  0  0  0  0  0  0  0
    0.7500   -1.2990    0.0000 C   0  0  0  0  0  0  0  0  0  0  0  0
    1.5000    0.0000    0.0000 C   0  0  0  0  0  0  0  0  0  0  0  0
    0.7500    1.2990    0.0000 C   0  0  0  0  0  0  0  0  0  0  0  0
   -0.7500    1.2990    0.0000 C   0  0  0  0  0  0  0  0  0  0  0  0
   -1.5000    0.0000    0.0000 C   0  0  0  0  0  0  0  0  0  0  0  0
   -0.7500   -1.2990    0.0000 C   0  0  0  0  0  0  0  0  0  0  0  0
  1  2  1  0
  2  3  1  0
  3  4  1  0
  4  5  1  0
  5  6  1  0
  6  7  2  0
  6  8  1  0
  8  9  1  0
  9 10  2  0
 10 11  1  0
 11 12  2  0
 12 13  1  0
 13 14  1  0
 14 15  1  0
 15 16  1  0
 16 17  1  0
 17 18  1  0
 18 19  2  0
 19 20  1  0
 20 21  2  0
 21 22  1  0
 22 23  2  0
 17 24  1  0
 24 25  2  0
  5 26  1  0
 26 27  2  0
 27 28  1  0
 28 29  2  0
 29 30  1  0
 30 31  2  0
 31  2  1  0
 13  9  1  0
 24 14  1  0
 31 26  1  0
 23 18  1  0
M  END
>  <Title>  (985) 
idABJYgen13

$$$$

     RDKit          2D

 82 81  0  0  0  0  0  0  0  0999 V2000
    0.0000    0.0000    0.0000 C   0  0  0  0  0  0  0  0  0  0  0  0
   -0.0000   -1.5000    0.0000 C   0  0  0  0  0  0  0  0  0  0  0  0
   -0.0000   -3.0000    0.0000 C   0  0  0  0  0  0  0  0  0  0  0  0
   -0.0000   -4.5000    0.0000 C   0  0  0  0  0  0  0  0  0  0  0  0
   -0.0000   -6.0000    0.0000 C   0  0  0  0  0  0  0  0  0  0  0  0
   -0.0000   -7.5000    0.0000 C   0  0  0  0  0  0  0  0  0  0  0  0
   -0.0000   -9.0000    0.0000 C   0  0  0  0  0  0  0  0  0  0  0  0
   -0.0000  -10.5000    0.0000 C   0  0  0  0  0  0  0  0  0  0  0  0
   -0.0000  -12.0000    0.0000 C   0  0  0  0  0  0  0  0  0  0  0  0
   -0.0000  -13.5000    0.0000 C   0  0  0  0  0  0  0  0  0  0  0  0
   -0.0000  -15.0000    0.0000 C   0  0  0  0  0  0  0  0  0  0  0  0
   -0.0000  -16.5000    0.0000 C   0  0  0  0  0  0  0  0  0  0  0  0
   -0.0000  -18.0000    0.0000 C   0  0  0  0  0  0  0  0  0  0  0  0
   -0.0000  -19.5000    0.0000 C   0  0  0  0  0  0  0  0  0  0  0  0
   -0.0000  -21.0000    0.0000 C   0  0  0  0  0  0  0  0  0  0  0  0
   -0.0000  -22.5000    0.0000 C   0  0  0  0  0  0  0  0  0  0  0  0
   -0.0000  -24.0000    0.0000 C   0  0  0  0  0  0  0  0  0  0  0  0
   -0.0000  -25.5000    0.0000 C   0  0  0  0  0  0  0  0  0  0  0  0
   -0.0000  -27.0000    0.0000 C   0  0  0  0  0  0  0  0  0  0  0  0
   -0.0000  -28.5000    0.0000 C   0  0  0  0  0  0  0  0  0  0  0  0
   -0.0000  -30.0000    0.0000 C   0  0  0  0  0  0  0  0  0  0  0  0
   -0.0000  -31.5000    0.0000 C   0  0  0  0  0  0  0  0  0  0  0  0
   -0.0000  -33.0000    0.0000 C   0  0  0  0  0  0  0  0  0  0  0  0
   -0.0000  -34.5000    0.0000 C   0  0  0  0  0  0  0  0  0  0  0  0
   -0.0000  -36.0000    0.0000 C   0  0  0  0  0  0  0  0  0  0  0  0
   -0.0000  -37.5000    0.0000 C   0  0  0  0  0  0  0  0  0  0  0  0
   -0.0000  -39.0000    0.0000 C   0  0  0  0  0  0  0  0  0  0  0  0
   -0.0000  -40.5000    0.0000 C   0  0  0  0  0  0  0  0  0  0  0  0
   -0.0000  -42.0000    0.0000 C   0  0  0  0  0  0  0  0  0  0  0  0
   -0.0000  -43.5000    0.0000 C   0  0  0  0  0  0  0  0  0  0  0  0
   -0.0000  -45.0000    0.0000 C   0  0  0  0  0  0  0  0  0  0  0  0
   -0.0000  -46.5000    0.0000 C   0  0  0  0  0  0  0  0  0  0  0  0
   -0.0000  -48.0000    0.0000 C   0  0  0  0  0  0  0  0  0  0  0  0
   -0.0000  -49.5000    0.0000 C   0  0  0  0  0  0  0  0  0  0  0  0
   -0.0000  -51.0000    0.0000 C   0  0  0  0  0  0  0  0  0  0  0  0
   -0.0000  -52.5000    0.0000 C   0  0  0  0  0  0  0  0  0  0  0  0
   -0.0000  -54.0000    0.0000 C   0  0  0  0  0  0  0  0  0  0  0  0
   -0.0000  -55.5000    0.0000 C   0  0  0  0  0  0  0  0  0  0  0  0
   -0.0000  -57.0000    0.0000 C   0  0  0  0  0  0  0  0  0  0  0  0
   -0.0000  -58.5000    0.0000 C   0  0  0  0  0  0  0  0  0  0  0  0
   -0.0000  -60.0000    0.0000 C   0  0  0  0  0  0  0  0  0  0  0  0
   -0.0000  -61.5000    0.0000 C   0  0  0  0  0  0  0  0  0  0  0  0
   -0.0000  -63.0000    0.0000 C   0  0  0  0  0  0  0  0  0  0  0  0
   -0.0000  -64.5000    0.0000 C   0  0  0  0  0  0  0  0  0  0  0  0
   -0.0000  -66.0000    0.0000 C   0  0  0  0  0  0  0  0  0  0  0  0
   -0.0000  -67.5000    0.0000 C   0  0  0  0  0  0  0  0  0  0  0  0
   -0.0000  -69.0000    0.0000 C   0  0  0  0  0  0  0  0  0  0  0  0
   -0.0000  -70.5000    0.0000 C   0  0  0  0  0  0  0  0  0  0  0  0
   -0.0000  -72.0000    0.0000 C   0  0  0  0  0  0  0  0  0  0  0  0
   -0.0000  -73.5000    0.0000 C   0  0  0  0  0  0  0  0  0  0  0  0
   -0.0000  -75.0000    0.0000 C   0  0  0  0  0  0  0  0  0  0  0  0
   -0.0000  -76.5000    0.0000 C   0  0  0  0  0  0  0  0  0  0  0  0
   -0.0000  -78.0000    0.0000 C   0  0  0  0  0  0  0  0  0  0  0  0
   -0.0000  -79.5000    0.0000 C   0  0  0  0  0  0  0  0  0  0  0  0
   -0.0000  -81.0000    0.0000 C   0  0  0  0  0  0  0  0  0  0  0  0
   -0.0000  -82.5000    0.0000 C   0  0  0  0  0  0  0  0  0  0  0  0
   -0.0000  -84.0000    0.0000 C   0  0  0  0  0  0  0  0  0  0  0  0
   -0.0000  -85.5000    0.0000 C   0  0  0  0  0  0  0  0  0  0  0  0
   -0.0000  -87.0000    0.0000 C   0  0  0  0  0  0  0  0  0  0  0  0
   -0.0000  -88.5000    0.0000 C   0  0  0  0  0  0  0  0  0  0  0  0
   -0.0000  -90.0000    0.0000 C   0  0  0  0  0  0  0  0  0  0  0  0
   -0.0000  -91.5000    0.0000 C   0  0  0  0  0  0  0  0  0  0  0  0
   -0.0000  -93.0000    0.0000 C   0  0  0  0  0  0  0  0  0  0  0  0
   -0.0000  -94.5000    0.0000 C   0  0  0  0  0  0  0  0  0  0  0  0
   -0.0000  -96.0000    0.0000 C   0  0  0  0  0  0  0  0  0  0  0  0
   -0.0000  -97.5000    0.0000 C   0  0  0  0  0  0  0  0  0  0  0  0
   -0.0000  -99.0000    0.0000 C   0  0  0  0  0  0  0  0  0  0  0  0
   -0.0000 -100.5000    0.0000 C   0  0  0  0  0  0  0  0  0  0  0  0
   -0.0000 -102.0000    0.0000 C   0  0  0  0  0  0  0  0  0  0  0  0
   -0.0000 -103.5000    0.0000 C   0  0  0  0  0  0  0  0  0  0  0  0
   -0.0000 -105.0000    0.0000 C   0  0  0  0  0  0  0  0  0  0  0  0
   -0.0000 -106.5000    0.0000 C   0  0  0  0  0  0  0  0  0  0  0  0
   -0.0000 -108.0000    0.0000 C   0  0  0  0  0  0  0  0  0  0  0  0
   -0.0000 -109.5000    0.0000 C   0  0  0  0  0  0  0  0  0  0  0  0
   -0.0000 -111.0000    0.0000 C   0  0  0  0  0  0  0  0  0  0  0  0
   -0.0000 -112.5000    0.0000 C   0  0  0  0  0  0  0  0  0  0  0  0
   -0.0000 -114.0000    0.0000 C   0  0  0  0  0  0  0  0  0  0  0  0
   -0.0000 -115.5000    0.0000 C   0  0  0  0  0  0  0  0  0  0  0  0
   -0.0000 -117.0000    0.0000 C   0  0  0  0  0  0  0  0  0  0  0  0
   -0.0000 -118.5000    0.0000 C   0  0  0  0  0  0  0  0  0  0  0  0
   -0.0000 -120.0000    0.0000 C   0  0  0  0  0  0  0  0  0  0  0  0
    1.2990 -120.7500    0.0000 C   0  0  0  0  0  0  0  0  0  0  0  0
  1  2  3  0
  2  3  1  0
  3  4  3  0
  4  5  1  0
  5  6  3  0
  6  7  1  0
  7  8  3  0
  8  9  1  0
  9 10  3  0
 10 11  1  0
 11 12  3  0
 12 13  1  0
 13 14  3  0
 14 15  1  0
 15 16  3  0
 16 17  1  0
 17 18  3  0
 18 19  1  0
 19 20  3  0
 20 21  1  0
 21 22  3  0
 22 23  1  0
 23 24  3  0
 24 25  1  0
 25 26  3  0
 26 27  1  0
 27 28  3  0
 28 29  1  0
 29 30  3  0
 30 31  1  0
 31 32  3  0
 32 33  1  0
 33 34  3  0
 34 35  1  0
 35 36  3  0
 36 37  1  0
 37 38  3  0
 38 39  1  0
 39 40  3  0
 40 41  1  0
 41 42  3  0
 42 43  1  0
 43 44  3  0
 44 45  1  0
 45 46  3  0
 46 47  1  0
 47 48  3  0
 48 49  1  0
 49 50  3  0
 50 51  1  0
 51 52  3  0
 52 53  1  0
 53 54  3  0
 54 55  1  0
 55 56  3  0
 56 57  1  0
 57 58  3  0
 58 59  1  0
 59 60  3  0
 60 61  1  0
 61 62  3  0
 62 63  1  0
 63 64  3  0
 64 65  1  0
 65 66  3  0
 66 67  1  0
 67 68  3  0
 68 69  1  0
 69 70  3  0
 70 71  1  0
 71 72  3  0
 72 73  1  0
 73 74  3  0
 74 75  1  0
 75 76  3  0
 76 77  1  0
 77 78  3  0
 78 79  1  0
 79 80  3  0
 80 81  1  0
 81 82  2  0
M  END
>  <Title>  (986) 
idABJZgen13

$$$$

     RDKit          2D

 49 55  0  0  0  0  0  0  0  0999 V2000
   -1.1382   -8.3460    0.0000 C   0  0  0  0  0  0  0  0  0  0  0  0
   -0.7500   -6.8971    0.0000 C   0  0  0  0  0  0  0  0  0  0  0  0
    0.7500   -6.8971    0.0000 C   0  0  0  0  0  0  0  0  0  0  0  0
    2.0490   -6.1471    0.0000 C   0  0  0  0  0  0  0  0  0  0  0  0
    2.7990   -4.8481    0.0000 C   0  0  0  0  0  0  0  0  0  0  0  0
    2.7990   -3.3481    0.0000 C   0  0  0  0  0  0  0  0  0  0  0  0
    2.0490   -2.0490    0.0000 C   0  0  0  0  0  0  0  0  0  0  0  0
    3.1097   -0.9884    0.0000 C   0  0  0  0  0  0  0  0  0  0  0  0
    2.7215    0.4605    0.0000 O   0  0  0  0  0  0  0  0  0  0  0  0
    4.5586   -1.3766    0.0000 N   0  0  0  0  0  0  0  0  0  0  0  0
    5.6192   -0.3159    0.0000 C   0  0  0  0  0  0  0  0  0  0  0  0
    5.3846    1.1656    0.0000 N   0  0  0  0  0  0  0  0  0  0  0  0
    6.7211    1.8466    0.0000 N   0  0  0  0  0  0  0  0  0  0  0  0
    7.7818    0.7859    0.0000 N   0  0  0  0  0  0  0  0  0  0  0  0
    7.1008   -0.5506    0.0000 N   0  0  0  0  0  0  0  0  0  0  0  0
    7.7818   -1.8871    0.0000 C   0  0  0  0  0  0  0  0  0  0  0  0
    9.2633   -2.1218    0.0000 C   0  0  0  0  0  0  0  0  0  0  0  0
    9.4979   -3.6033    0.0000 C   0  0  0  0  0  0  0  0  0  0  0  0
    8.1614   -4.2843    0.0000 C   0  0  0  0  0  0  0  0  0  0  0  0
    7.9268   -5.7658    0.0000 O   0  0  0  0  0  0  0  0  0  0  0  0
    6.5264   -6.3034    0.0000 C   0  0  0  0  0  0  0  0  0  0  0  0
    5.3607   -5.3594    0.0000 O   0  0  0  0  0  0  0  0  0  0  0  0
    6.2918   -7.7849    0.0000 N   0  0  0  0  0  0  0  0  0  0  0  0
    4.8914   -8.3224    0.0000 C   0  0  0  0  0  0  0  0  0  0  0  0
    3.7257   -7.3785    0.0000 N   0  0  0  0  0  0  0  0  0  0  0  0
    2.3253   -7.9160    0.0000 N   0  0  0  0  0  0  0  0  0  0  0  0
    2.0907   -9.3976    0.0000 N   0  0  0  0  0  0  0  0  0  0  0  0
    3.2564  -10.3415    0.0000 N   0  0  0  0  0  0  0  0  0  0  0  0
    4.6567   -9.8040    0.0000 N   0  0  0  0  0  0  0  0  0  0  0  0
    7.1008   -3.2236    0.0000 C   0  0  0  0  0  0  0  0  0  0  0  0
    5.6192   -3.4583    0.0000 O   0  0  0  0  0  0  0  0  0  0  0  0
    0.7500   -1.2990    0.0000 C   0  0  0  0  0  0  0  0  0  0  0  0
    1.5000    0.0000    0.0000 C   0  0  0  0  0  0  0  0  0  0  0  0
    0.7500    1.2990    0.0000 C   0  0  0  0  0  0  0  0  0  0  0  0
   -0.7500    1.2990    0.0000 C   0  0  0  0  0  0  0  0  0  0  0  0
   -1.5000    0.0000    0.0000 C   0  0  0  0  0  0  0  0  0  0  0  0
   -0.7500   -1.2990    0.0000 C   0  0  0  0  0  0  0  0  0  0  0  0
   -2.0490   -2.0490    0.0000 C   0  0  0  0  0  0  0  0  0  0  0  0
   -2.7990   -0.7500    0.0000 C   0  0  0  0  0  0  0  0  0  0  0  0
   -4.2990   -0.7500    0.0000 C   0  0  0  0  0  0  0  0  0  0  0  0
   -5.0490   -2.0490    0.0000 C   0  0  0  0  0  0  0  0  0  0  0  0
   -4.2990   -3.3481    0.0000 C   0  0  0  0  0  0  0  0  0  0  0  0
   -2.7990   -3.3481    0.0000 C   0  0  0  0  0  0  0  0  0  0  0  0
   -2.7990   -4.8481    0.0000 C   0  0  0  0  0  0  0  0  0  0  0  0
   -4.2990   -4.8481    0.0000 C   0  0  0  0  0  0  0  0  0  0  0  0
   -5.0490   -6.1471    0.0000 C   0  0  0  0  0  0  0  0  0  0  0  0
   -4.2990   -7.4462    0.0000 C   0  0  0  0  0  0  0  0  0  0  0  0
   -2.7990   -7.4462    0.0000 C   0  0  0  0  0  0  0  0  0  0  0  0
   -2.0490   -6.1471    0.0000 C   0  0  0  0  0  0  0  0  0  0  0  0
  1  2  1  0
  2  3  1  0
  3  4  2  0
  4  5  1  0
  5  6  1  0
  6  7  1  0
  7  8  1  0
  8  9  2  0
  8 10  1  0
 10 11  1  0
 11 12  2  0
 12 13  1  0
 13 14  2  0
 14 15  1  0
 15 16  1  0
 16 17  2  0
 17 18  1  0
 18 19  2  0
 19 20  1  0
 20 21  1  0
 21 22  2  0
 21 23  1  0
 23 24  1  0
 24 25  2  0
 25 26  1  0
 26 27  2  0
 27 28  1  0
 28 29  2  0
 19 30  1  0
 30 31  2  0
  7 32  1  0
 32 33  2  0
 33 34  1  0
 34 35  2  0
 35 36  1  0
 36 37  2  0
 37 38  1  0
 38 39  2  0
 39 40  1  0
 40 41  2  0
 41 42  1  0
 42 43  2  0
 43 44  1  0
 44 45  2  0
 45 46  1  0
 46 47  2  0
 47 48  1  0
 48 49  2  0
 49  2  1  0
 15 11  1  0
 30 16  1  0
 37 32  1  0
 43 38  1  0
 49 44  1  0
 29 24  1  0
M  END
>  <Title>  (987) 
idABKAgen13

$$$$

     RDKit          2D

  6  6  0  0  0  0  0  0  0  0999 V2000
    2.7760    0.0000    0.0000 C   0  0  0  0  0  0  0  0  0  0  0  0
    1.2760    0.0000    0.0000 C   0  0  0  0  0  0  0  0  0  0  0  0
    0.3943    1.2135    0.0000 C   0  0  0  0  0  0  0  0  0  0  0  0
   -1.0323    0.7500    0.0000 C   0  0  0  0  0  0  0  0  0  0  0  0
   -1.0323   -0.7500    0.0000 N   0  0  0  0  0  0  0  0  0  0  0  0
    0.3943   -1.2135    0.0000 C   0  0  0  0  0  0  0  0  0  0  0  0
  1  2  1  0
  2  3  2  0
  3  4  1  0
  4  5  2  0
  5  6  1  0
  6  2  1  0
M  END
>  <Title>  (988) 
idABKBgen13

$$$$

     RDKit          2D

 42 47  0  0  0  0  0  0  0  0999 V2000
   -3.1965   -1.7857    0.0000 C   0  0  0  0  0  0  0  0  0  0  0  0
   -1.8107   -2.3597    0.0000 C   0  0  0  0  0  0  0  0  0  0  0  0
   -1.8107   -3.8597    0.0000 C   0  0  0  0  0  0  0  0  0  0  0  0
   -0.7500   -4.9204    0.0000 C   0  0  0  0  0  0  0  0  0  0  0  0
    0.7500   -4.9204    0.0000 C   0  0  0  0  0  0  0  0  0  0  0  0
    1.8107   -3.8597    0.0000 C   0  0  0  0  0  0  0  0  0  0  0  0
    1.8107   -2.3597    0.0000 C   0  0  0  0  0  0  0  0  0  0  0  0
    3.1965   -1.7857    0.0000 C   0  0  0  0  0  0  0  0  0  0  0  0
    3.3923   -0.2985    0.0000 O   0  0  0  0  0  0  0  0  0  0  0  0
    4.3865   -2.6988    0.0000 N   0  0  0  0  0  0  0  0  0  0  0  0
    5.7723   -2.1248    0.0000 C   0  0  0  0  0  0  0  0  0  0  0  0
    6.1225   -0.6662    0.0000 N   0  0  0  0  0  0  0  0  0  0  0  0
    7.6179   -0.5485    0.0000 N   0  0  0  0  0  0  0  0  0  0  0  0
    8.1919   -1.9344    0.0000 N   0  0  0  0  0  0  0  0  0  0  0  0
    7.0513   -2.9085    0.0000 N   0  0  0  0  0  0  0  0  0  0  0  0
    7.1690   -4.4039    0.0000 N   0  0  0  0  0  0  0  0  0  0  0  0
    5.9328   -5.2535    0.0000 C   0  0  0  0  0  0  0  0  0  0  0  0
    6.0505   -6.7489    0.0000 N   0  0  0  0  0  0  0  0  0  0  0  0
    7.4044   -7.3947    0.0000 N   0  0  0  0  0  0  0  0  0  0  0  0
    8.6405   -6.5451    0.0000 N   0  0  0  0  0  0  0  0  0  0  0  0
    8.5229   -5.0497    0.0000 N   0  0  0  0  0  0  0  0  0  0  0  0
    9.7590   -4.2001    0.0000 N   0  0  0  0  0  0  0  0  0  0  0  0
    9.7983   -2.7006    0.0000 C   0  0  0  0  0  0  0  0  0  0  0  0
   11.2365   -2.2746    0.0000 C   0  0  0  0  0  0  0  0  0  0  0  0
   12.0861   -3.5108    0.0000 N   0  0  0  0  0  0  0  0  0  0  0  0
   13.5856   -3.5500    0.0000 C   0  0  0  0  0  0  0  0  0  0  0  0
   14.3694   -2.2711    0.0000 O   0  0  0  0  0  0  0  0  0  0  0  0
   14.3014   -4.8682    0.0000 N   0  0  0  0  0  0  0  0  0  0  0  0
   15.8009   -4.9075    0.0000 C   0  0  0  0  0  0  0  0  0  0  0  0
   16.5166   -6.2257    0.0000 N   0  0  0  0  0  0  0  0  0  0  0  0
   18.0161   -6.2650    0.0000 N   0  0  0  0  0  0  0  0  0  0  0  0
   18.7998   -4.9860    0.0000 N   0  0  0  0  0  0  0  0  0  0  0  0
   18.0841   -3.6678    0.0000 N   0  0  0  0  0  0  0  0  0  0  0  0
   16.5846   -3.6285    0.0000 N   0  0  0  0  0  0  0  0  0  0  0  0
   11.1730   -4.7008    0.0000 C   0  0  0  0  0  0  0  0  0  0  0  0
   11.5990   -6.1390    0.0000 O   0  0  0  0  0  0  0  0  0  0  0  0
    0.7500   -1.2990    0.0000 C   0  0  0  0  0  0  0  0  0  0  0  0
    1.5000    0.0000    0.0000 C   0  0  0  0  0  0  0  0  0  0  0  0
    0.7500    1.2990    0.0000 C   0  0  0  0  0  0  0  0  0  0  0  0
   -0.7500    1.2990    0.0000 C   0  0  0  0  0  0  0  0  0  0  0  0
   -1.5000    0.0000    0.0000 C   0  0  0  0  0  0  0  0  0  0  0  0
   -0.7500   -1.2990    0.0000 C   0  0  0  0  0  0  0  0  0  0  0  0
  1  2  1  0
  2  3  1  0
  3  4  1  0
  4  5  1  0
  5  6  1  0
  6  7  1  0
  7  8  1  0
  8  9  2  0
  8 10  1  0
 10 11  1  0
 11 12  2  0
 12 13  1  0
 13 14  2  0
 14 15  1  0
 15 16  1  0
 16 17  1  0
 17 18  2  0
 18 19  1  0
 19 20  2  0
 20 21  1  0
 21 22  1  0
 22 23  1  0
 23 24  1  0
 24 25  1  0
 25 26  1  0
 26 27  2  0
 26 28  1  0
 28 29  1  0
 29 30  2  0
 30 31  1  0
 31 32  2  0
 32 33  1  0
 33 34  2  0
 25 35  1  0
 35 36  2  0
  7 37  1  0
 37 38  2  0
 38 39  1  0
 39 40  2  0
 40 41  1  0
 41 42  2  0
 42  2  1  0
 15 11  1  0
 21 16  1  0
 35 22  1  0
 42 37  1  0
 34 29  1  0
M  END
>  <Title>  (989) 
idABKCgen13

$$$$

     RDKit          2D

 36 40  0  0  0  0  0  0  0  0999 V2000
   -3.1965   -1.7857    0.0000 C   0  0  0  0  0  0  0  0  0  0  0  0
   -1.8107   -2.3597    0.0000 C   0  0  0  0  0  0  0  0  0  0  0  0
   -1.8107   -3.8597    0.0000 C   0  0  0  0  0  0  0  0  0  0  0  0
   -0.7500   -4.9204    0.0000 C   0  0  0  0  0  0  0  0  0  0  0  0
    0.7500   -4.9204    0.0000 C   0  0  0  0  0  0  0  0  0  0  0  0
    1.8107   -3.8597    0.0000 C   0  0  0  0  0  0  0  0  0  0  0  0
    1.8107   -2.3597    0.0000 C   0  0  0  0  0  0  0  0  0  0  0  0
    3.1965   -1.7857    0.0000 C   0  0  0  0  0  0  0  0  0  0  0  0
    3.3923   -0.2985    0.0000 O   0  0  0  0  0  0  0  0  0  0  0  0
    4.3865   -2.6988    0.0000 N   0  0  0  0  0  0  0  0  0  0  0  0
    5.7723   -2.1248    0.0000 C   0  0  0  0  0  0  0  0  0  0  0  0
    6.1225   -0.6662    0.0000 N   0  0  0  0  0  0  0  0  0  0  0  0
    7.6179   -0.5485    0.0000 N   0  0  0  0  0  0  0  0  0  0  0  0
    8.1919   -1.9344    0.0000 N   0  0  0  0  0  0  0  0  0  0  0  0
    7.0513   -2.9085    0.0000 N   0  0  0  0  0  0  0  0  0  0  0  0
    7.1690   -4.4039    0.0000 N   0  0  0  0  0  0  0  0  0  0  0  0
    8.4479   -5.1877    0.0000 C   0  0  0  0  0  0  0  0  0  0  0  0
    8.0978   -6.6462    0.0000 C   0  0  0  0  0  0  0  0  0  0  0  0
    6.6024   -6.7639    0.0000 C   0  0  0  0  0  0  0  0  0  0  0  0
    5.8186   -8.0429    0.0000 C   0  0  0  0  0  0  0  0  0  0  0  0
    6.5344   -9.3611    0.0000 O   0  0  0  0  0  0  0  0  0  0  0  0
    4.3192   -8.0036    0.0000 N   0  0  0  0  0  0  0  0  0  0  0  0
    3.5354   -9.2826    0.0000 C   0  0  0  0  0  0  0  0  0  0  0  0
    2.0359   -9.2433    0.0000 N   0  0  0  0  0  0  0  0  0  0  0  0
    1.2522  -10.5223    0.0000 N   0  0  0  0  0  0  0  0  0  0  0  0
    1.9679  -11.8405    0.0000 N   0  0  0  0  0  0  0  0  0  0  0  0
    3.4674  -11.8797    0.0000 N   0  0  0  0  0  0  0  0  0  0  0  0
    4.2512  -10.6008    0.0000 N   0  0  0  0  0  0  0  0  0  0  0  0
    6.0284   -5.3781    0.0000 C   0  0  0  0  0  0  0  0  0  0  0  0
    4.5698   -5.0279    0.0000 O   0  0  0  0  0  0  0  0  0  0  0  0
    0.7500   -1.2990    0.0000 C   0  0  0  0  0  0  0  0  0  0  0  0
    1.5000    0.0000    0.0000 C   0  0  0  0  0  0  0  0  0  0  0  0
    0.7500    1.2990    0.0000 C   0  0  0  0  0  0  0  0  0  0  0  0
   -0.7500    1.2990    0.0000 C   0  0  0  0  0  0  0  0  0  0  0  0
   -1.5000    0.0000    0.0000 C   0  0  0  0  0  0  0  0  0  0  0  0
   -0.7500   -1.2990    0.0000 C   0  0  0  0  0  0  0  0  0  0  0  0
  1  2  1  0
  2  3  1  0
  3  4  2  0
  4  5  1  0
  5  6  1  0
  6  7  1  0
  7  8  1  0
  8  9  2  0
  8 10  1  0
 10 11  1  0
 11 12  2  0
 12 13  1  0
 13 14  2  0
 14 15  1  0
 15 16  1  0
 16 17  1  0
 17 18  1  0
 18 19  1  0
 19 20  1  0
 20 21  2  0
 20 22  1  0
 22 23  1  0
 23 24  2  0
 24 25  1  0
 25 26  2  0
 26 27  1  0
 27 28  2  0
 19 29  1  0
 29 30  2  0
  7 31  1  0
 31 32  2  0
 32 33  1  0
 33 34  2  0
 34 35  1  0
 35 36  2  0
 36  2  1  0
 15 11  1  0
 29 16  1  0
 36 31  1  0
 28 23  1  0
M  END
>  <Title>  (990) 
idABKDgen13

$$$$

     RDKit          2D

 53 60  0  0  0  0  0  0  0  0999 V2000
    2.1535   -8.4451    0.0000 C   0  0  0  0  0  0  0  0  0  0  0  0
    1.4564   -7.1169    0.0000 C   0  0  0  0  0  0  0  0  0  0  0  0
    2.5792   -6.1222    0.0000 C   0  0  0  0  0  0  0  0  0  0  0  0
    3.1111   -4.7197    0.0000 C   0  0  0  0  0  0  0  0  0  0  0  0
    2.9303   -3.2306    0.0000 C   0  0  0  0  0  0  0  0  0  0  0  0
    2.0782   -1.9961    0.0000 C   0  0  0  0  0  0  0  0  0  0  0  0
    3.0729   -0.8734    0.0000 C   0  0  0  0  0  0  0  0  0  0  0  0
    2.5979    0.5494    0.0000 O   0  0  0  0  0  0  0  0  0  0  0  0
    4.5426   -1.1734    0.0000 N   0  0  0  0  0  0  0  0  0  0  0  0
    5.5372   -0.0506    0.0000 C   0  0  0  0  0  0  0  0  0  0  0  0
    5.2136    1.4140    0.0000 N   0  0  0  0  0  0  0  0  0  0  0  0
    6.5065    2.1745    0.0000 N   0  0  0  0  0  0  0  0  0  0  0  0
    7.6293    1.1798    0.0000 N   0  0  0  0  0  0  0  0  0  0  0  0
    7.0302   -0.1954    0.0000 N   0  0  0  0  0  0  0  0  0  0  0  0
    7.7907   -1.4884    0.0000 N   0  0  0  0  0  0  0  0  0  0  0  0
    9.2837   -1.6331    0.0000 C   0  0  0  0  0  0  0  0  0  0  0  0
    9.6073   -3.0978    0.0000 C   0  0  0  0  0  0  0  0  0  0  0  0
    8.3144   -3.8582    0.0000 N   0  0  0  0  0  0  0  0  0  0  0  0
    8.1696   -5.3512    0.0000 C   0  0  0  0  0  0  0  0  0  0  0  0
    9.3902   -6.2231    0.0000 O   0  0  0  0  0  0  0  0  0  0  0  0
    6.8043   -5.9723    0.0000 N   0  0  0  0  0  0  0  0  0  0  0  0
    6.6595   -7.4653    0.0000 C   0  0  0  0  0  0  0  0  0  0  0  0
    5.2941   -8.0865    0.0000 N   0  0  0  0  0  0  0  0  0  0  0  0
    5.1494   -9.5795    0.0000 N   0  0  0  0  0  0  0  0  0  0  0  0
    6.3700  -10.4513    0.0000 N   0  0  0  0  0  0  0  0  0  0  0  0
    7.7353   -9.8302    0.0000 N   0  0  0  0  0  0  0  0  0  0  0  0
    7.8801   -8.3372    0.0000 N   0  0  0  0  0  0  0  0  0  0  0  0
    7.1916   -2.8635    0.0000 C   0  0  0  0  0  0  0  0  0  0  0  0
    5.7270   -3.1872    0.0000 O   0  0  0  0  0  0  0  0  0  0  0  0
    0.7500   -1.2990    0.0000 C   0  0  0  0  0  0  0  0  0  0  0  0
    1.5000    0.0000    0.0000 C   0  0  0  0  0  0  0  0  0  0  0  0
    0.7500    1.2990    0.0000 C   0  0  0  0  0  0  0  0  0  0  0  0
   -0.7500    1.2990    0.0000 C   0  0  0  0  0  0  0  0  0  0  0  0
   -1.5000    0.0000    0.0000 C   0  0  0  0  0  0  0  0  0  0  0  0
   -0.7500   -1.2990    0.0000 C   0  0  0  0  0  0  0  0  0  0  0  0
   -2.0782   -1.9961    0.0000 C   0  0  0  0  0  0  0  0  0  0  0  0
   -2.7212   -0.6409    0.0000 C   0  0  0  0  0  0  0  0  0  0  0  0
   -4.2164   -0.5202    0.0000 C   0  0  0  0  0  0  0  0  0  0  0  0
   -5.0685   -1.7547    0.0000 C   0  0  0  0  0  0  0  0  0  0  0  0
   -4.4254   -3.1099    0.0000 C   0  0  0  0  0  0  0  0  0  0  0  0
   -2.9303   -3.2306    0.0000 C   0  0  0  0  0  0  0  0  0  0  0  0
   -3.1111   -4.7197    0.0000 C   0  0  0  0  0  0  0  0  0  0  0  0
   -4.5917   -4.4790    0.0000 C   0  0  0  0  0  0  0  0  0  0  0  0
   -5.5403   -5.6410    0.0000 C   0  0  0  0  0  0  0  0  0  0  0  0
   -5.0084   -7.0435    0.0000 C   0  0  0  0  0  0  0  0  0  0  0  0
   -3.5278   -7.2841    0.0000 C   0  0  0  0  0  0  0  0  0  0  0  0
   -2.5792   -6.1222    0.0000 C   0  0  0  0  0  0  0  0  0  0  0  0
   -1.4564   -7.1169    0.0000 C   0  0  0  0  0  0  0  0  0  0  0  0
   -2.4955   -8.1987    0.0000 C   0  0  0  0  0  0  0  0  0  0  0  0
   -2.0782   -9.6395    0.0000 C   0  0  0  0  0  0  0  0  0  0  0  0
   -0.6218   -9.9984    0.0000 C   0  0  0  0  0  0  0  0  0  0  0  0
    0.4173   -8.9166    0.0000 C   0  0  0  0  0  0  0  0  0  0  0  0
   -0.0000   -7.4758    0.0000 C   0  0  0  0  0  0  0  0  0  0  0  0
  1  2  1  0
  2  3  1  0
  3  4  2  0
  4  5  1  0
  5  6  2  0
  6  7  1  0
  7  8  2  0
  7  9  1  0
  9 10  1  0
 10 11  2  0
 11 12  1  0
 12 13  2  0
 13 14  1  0
 14 15  1  0
 15 16  1  0
 16 17  1  0
 17 18  1  0
 18 19  1  0
 19 20  2  0
 19 21  1  0
 21 22  1  0
 22 23  2  0
 23 24  1  0
 24 25  2  0
 25 26  1  0
 26 27  2  0
 18 28  1  0
 28 29  2  0
  6 30  1  0
 30 31  2  0
 31 32  1  0
 32 33  2  0
 33 34  1  0
 34 35  2  0
 35 36  1  0
 36 37  2  0
 37 38  1  0
 38 39  2  0
 39 40  1  0
 40 41  2  0
 41 42  1  0
 42 43  2  0
 43 44  1  0
 44 45  2  0
 45 46  1  0
 46 47  2  0
 47 48  1  0
 48 49  2  0
 49 50  1  0
 50 51  2  0
 51 52  1  0
 52 53  2  0
 53  2  1  0
 14 10  1  0
 28 15  1  0
 35 30  1  0
 41 36  1  0
 47 42  1  0
 53 48  1  0
 27 22  1  0
M  END
>  <Title>  (991) 
idABKEgen13

$$$$

     RDKit          2D

 40 45  0  0  0  0  0  0  0  0999 V2000
   -0.4109   -7.4962    0.0000 C   0  0  0  0  0  0  0  0  0  0  0  0
   -1.3240   -6.3062    0.0000 C   0  0  0  0  0  0  0  0  0  0  0  0
   -2.8112   -6.5020    0.0000 N   0  0  0  0  0  0  0  0  0  0  0  0
   -3.3852   -7.8878    0.0000 C   0  0  0  0  0  0  0  0  0  0  0  0
   -2.6015   -9.1667    0.0000 N   0  0  0  0  0  0  0  0  0  0  0  0
   -3.5756  -10.3074    0.0000 N   0  0  0  0  0  0  0  0  0  0  0  0
   -4.9615   -9.7333    0.0000 N   0  0  0  0  0  0  0  0  0  0  0  0
   -4.8438   -8.2380    0.0000 N   0  0  0  0  0  0  0  0  0  0  0  0
   -5.9844   -7.2638    0.0000 N   0  0  0  0  0  0  0  0  0  0  0  0
   -7.4429   -7.6140    0.0000 C   0  0  0  0  0  0  0  0  0  0  0  0
   -8.2267   -6.3350    0.0000 C   0  0  0  0  0  0  0  0  0  0  0  0
   -7.2525   -5.1944    0.0000 N   0  0  0  0  0  0  0  0  0  0  0  0
   -7.6027   -3.7358    0.0000 C   0  0  0  0  0  0  0  0  0  0  0  0
   -6.5146   -2.7033    0.0000 O   0  0  0  0  0  0  0  0  0  0  0  0
   -9.0409   -3.3098    0.0000 N   0  0  0  0  0  0  0  0  0  0  0  0
   -9.3911   -1.8512    0.0000 C   0  0  0  0  0  0  0  0  0  0  0  0
   -8.3030   -0.8187    0.0000 N   0  0  0  0  0  0  0  0  0  0  0  0
   -8.6532    0.6398    0.0000 N   0  0  0  0  0  0  0  0  0  0  0  0
  -10.0914    1.0659    0.0000 N   0  0  0  0  0  0  0  0  0  0  0  0
  -11.1795    0.0333    0.0000 N   0  0  0  0  0  0  0  0  0  0  0  0
  -10.8293   -1.4252    0.0000 N   0  0  0  0  0  0  0  0  0  0  0  0
   -5.8667   -5.7684    0.0000 C   0  0  0  0  0  0  0  0  0  0  0  0
   -4.5877   -4.9847    0.0000 O   0  0  0  0  0  0  0  0  0  0  0  0
   -0.7500   -4.9204    0.0000 C   0  0  0  0  0  0  0  0  0  0  0  0
    0.7500   -4.9204    0.0000 C   0  0  0  0  0  0  0  0  0  0  0  0
    1.8107   -3.8597    0.0000 C   0  0  0  0  0  0  0  0  0  0  0  0
    1.8107   -2.3597    0.0000 C   0  0  0  0  0  0  0  0  0  0  0  0
    3.1965   -1.7857    0.0000 C   0  0  0  0  0  0  0  0  0  0  0  0
    0.7500   -1.2990    0.0000 C   0  0  0  0  0  0  0  0  0  0  0  0
    1.5000    0.0000    0.0000 C   0  0  0  0  0  0  0  0  0  0  0  0
    0.7500    1.2990    0.0000 C   0  0  0  0  0  0  0  0  0  0  0  0
   -0.7500    1.2990    0.0000 C   0  0  0  0  0  0  0  0  0  0  0  0
   -1.5000    0.0000    0.0000 C   0  0  0  0  0  0  0  0  0  0  0  0
   -0.7500   -1.2990    0.0000 C   0  0  0  0  0  0  0  0  0  0  0  0
   -1.8107   -2.3597    0.0000 C   0  0  0  0  0  0  0  0  0  0  0  0
   -3.1097   -1.6097    0.0000 C   0  0  0  0  0  0  0  0  0  0  0  0
   -4.4087   -2.3597    0.0000 C   0  0  0  0  0  0  0  0  0  0  0  0
   -4.4087   -3.8597    0.0000 C   0  0  0  0  0  0  0  0  0  0  0  0
   -3.1097   -4.6097    0.0000 C   0  0  0  0  0  0  0  0  0  0  0  0
   -1.8107   -3.8597    0.0000 C   0  0  0  0  0  0  0  0  0  0  0  0
  1  2  2  0
  2  3  1  0
  3  4  1  0
  4  5  2  0
  5  6  1  0
  6  7  2  0
  7  8  1  0
  8  9  1  0
  9 10  1  0
 10 11  1  0
 11 12  1  0
 12 13  1  0
 13 14  2  0
 13 15  1  0
 15 16  1  0
 16 17  2  0
 17 18  1  0
 18 19  2  0
 19 20  1  0
 20 21  2  0
 12 22  1  0
 22 23  2  0
  2 24  1  0
 24 25  1  0
 25 26  2  0
 26 27  1  0
 27 28  1  0
 27 29  1  0
 29 30  2  0
 30 31  1  0
 31 32  2  0
 32 33  1  0
 33 34  2  0
 34 35  1  0
 35 36  2  0
 36 37  1  0
 37 38  2  0
 38 39  1  0
 39 40  2  0
  8  4  1  0
 22  9  1  0
 40 24  1  0
 21 16  1  0
 34 29  1  0
 40 35  1  0
M  END
>  <Title>  (992) 
idABKFgen13

$$$$

     RDKit          2D

 35 39  0  0  0  0  0  0  0  0999 V2000
   -5.2500   -3.8971    0.0000 C   0  0  0  0  0  0  0  0  0  0  0  0
   -3.7500   -3.8971    0.0000 C   0  0  0  0  0  0  0  0  0  0  0  0
   -3.0000   -2.5981    0.0000 N   0  0  0  0  0  0  0  0  0  0  0  0
   -1.5000   -2.5981    0.0000 C   0  0  0  0  0  0  0  0  0  0  0  0
   -0.7500   -3.8971    0.0000 C   0  0  0  0  0  0  0  0  0  0  0  0
    0.7500   -3.8971    0.0000 C   0  0  0  0  0  0  0  0  0  0  0  0
    1.5000   -2.5981    0.0000 C   0  0  0  0  0  0  0  0  0  0  0  0
    3.0000   -2.5981    0.0000 C   0  0  0  0  0  0  0  0  0  0  0  0
    3.7500   -1.2990    0.0000 O   0  0  0  0  0  0  0  0  0  0  0  0
    3.7500   -3.8971    0.0000 N   0  0  0  0  0  0  0  0  0  0  0  0
    5.2500   -3.8971    0.0000 C   0  0  0  0  0  0  0  0  0  0  0  0
    6.1317   -2.6836    0.0000 N   0  0  0  0  0  0  0  0  0  0  0  0
    7.5583   -3.1471    0.0000 N   0  0  0  0  0  0  0  0  0  0  0  0
    7.5583   -4.6471    0.0000 N   0  0  0  0  0  0  0  0  0  0  0  0
    6.1317   -5.1106    0.0000 N   0  0  0  0  0  0  0  0  0  0  0  0
    5.6682   -6.5372    0.0000 N   0  0  0  0  0  0  0  0  0  0  0  0
    4.3316   -7.2182    0.0000 C   0  0  0  0  0  0  0  0  0  0  0  0
    5.0126   -8.5547    0.0000 C   0  0  0  0  0  0  0  0  0  0  0  0
    4.5491   -9.9813    0.0000 C   0  0  0  0  0  0  0  0  0  0  0  0
    5.5528  -11.0960    0.0000 O   0  0  0  0  0  0  0  0  0  0  0  0
    3.0819  -10.2932    0.0000 N   0  0  0  0  0  0  0  0  0  0  0  0
    2.6184  -11.7198    0.0000 C   0  0  0  0  0  0  0  0  0  0  0  0
    1.1511  -12.0316    0.0000 N   0  0  0  0  0  0  0  0  0  0  0  0
    0.6876  -13.4582    0.0000 N   0  0  0  0  0  0  0  0  0  0  0  0
    1.6913  -14.5729    0.0000 N   0  0  0  0  0  0  0  0  0  0  0  0
    3.1585  -14.2611    0.0000 N   0  0  0  0  0  0  0  0  0  0  0  0
    3.6221  -12.8345    0.0000 N   0  0  0  0  0  0  0  0  0  0  0  0
    6.3491   -7.8737    0.0000 C   0  0  0  0  0  0  0  0  0  0  0  0
    7.7757   -8.3373    0.0000 O   0  0  0  0  0  0  0  0  0  0  0  0
    0.7500   -1.2990    0.0000 C   0  0  0  0  0  0  0  0  0  0  0  0
    1.5000    0.0000    0.0000 C   0  0  0  0  0  0  0  0  0  0  0  0
    0.7500    1.2990    0.0000 C   0  0  0  0  0  0  0  0  0  0  0  0
   -0.7500    1.2990    0.0000 C   0  0  0  0  0  0  0  0  0  0  0  0
   -1.5000    0.0000    0.0000 C   0  0  0  0  0  0  0  0  0  0  0  0
   -0.7500   -1.2990    0.0000 C   0  0  0  0  0  0  0  0  0  0  0  0
  1  2  1  0
  2  3  1  0
  3  4  1  0
  4  5  2  0
  5  6  1  0
  6  7  2  0
  7  8  1  0
  8  9  2  0
  8 10  1  0
 10 11  1  0
 11 12  2  0
 12 13  1  0
 13 14  2  0
 14 15  1  0
 15 16  1  0
 16 17  1  0
 17 18  2  0
 18 19  1  0
 19 20  2  0
 19 21  1  0
 21 22  1  0
 22 23  2  0
 23 24  1  0
 24 25  2  0
 25 26  1  0
 26 27  2  0
 18 28  1  0
 28 29  2  0
  7 30  1  0
 30 31  2  0
 31 32  1  0
 32 33  2  0
 33 34  1  0
 34 35  2  0
 35  4  1  0
 15 11  1  0
 28 16  1  0
 35 30  1  0
 27 22  1  0
M  END
>  <Title>  (993) 
idABKGgen13

$$$$

     RDKit          2D

 71 75  0  0  0  0  0  0  0  0999 V2000
   -8.6037   -2.5731    0.0000 C   0  0  0  0  0  0  0  0  0  0  0  0
   -7.7220   -3.7866    0.0000 C   0  0  0  0  0  0  0  0  0  0  0  0
   -8.8832   -4.7362    0.0000 C   0  0  0  0  0  0  0  0  0  0  0  0
   -9.9286   -5.8119    0.0000 C   0  0  0  0  0  0  0  0  0  0  0  0
  -10.8446   -6.9997    0.0000 C   0  0  0  0  0  0  0  0  0  0  0  0
  -11.6192   -8.2842    0.0000 C   0  0  0  0  0  0  0  0  0  0  0  0
  -12.2423   -9.6487    0.0000 C   0  0  0  0  0  0  0  0  0  0  0  0
  -12.7058  -11.0753    0.0000 C   0  0  0  0  0  0  0  0  0  0  0  0
  -13.0037  -12.5454    0.0000 C   0  0  0  0  0  0  0  0  0  0  0  0
  -13.1321  -14.0399    0.0000 C   0  0  0  0  0  0  0  0  0  0  0  0
  -13.0892  -15.5393    0.0000 C   0  0  0  0  0  0  0  0  0  0  0  0
  -12.8758  -17.0240    0.0000 C   0  0  0  0  0  0  0  0  0  0  0  0
  -12.4944  -18.4747    0.0000 C   0  0  0  0  0  0  0  0  0  0  0  0
  -11.9502  -19.8725    0.0000 C   0  0  0  0  0  0  0  0  0  0  0  0
  -11.2502  -21.1992    0.0000 C   0  0  0  0  0  0  0  0  0  0  0  0
  -10.4036  -22.4374    0.0000 C   0  0  0  0  0  0  0  0  0  0  0  0
   -9.4213  -23.5710    0.0000 C   0  0  0  0  0  0  0  0  0  0  0  0
   -8.3162  -24.5853    0.0000 C   0  0  0  0  0  0  0  0  0  0  0  0
   -7.1026  -25.4669    0.0000 C   0  0  0  0  0  0  0  0  0  0  0  0
   -5.7965  -26.2045    0.0000 C   0  0  0  0  0  0  0  0  0  0  0  0
   -4.4148  -26.7884    0.0000 C   0  0  0  0  0  0  0  0  0  0  0  0
   -2.9756  -27.2110    0.0000 C   0  0  0  0  0  0  0  0  0  0  0  0
   -1.4976  -27.4668    0.0000 C   0  0  0  0  0  0  0  0  0  0  0  0
   -0.0000  -27.5525    0.0000 C   0  0  0  0  0  0  0  0  0  0  0  0
    1.4976  -27.4668    0.0000 C   0  0  0  0  0  0  0  0  0  0  0  0
    2.9756  -27.2110    0.0000 C   0  0  0  0  0  0  0  0  0  0  0  0
    4.4148  -26.7884    0.0000 C   0  0  0  0  0  0  0  0  0  0  0  0
    5.7965  -26.2045    0.0000 C   0  0  0  0  0  0  0  0  0  0  0  0
    7.1026  -25.4669    0.0000 C   0  0  0  0  0  0  0  0  0  0  0  0
    8.3162  -24.5853    0.0000 C   0  0  0  0  0  0  0  0  0  0  0  0
    9.4213  -23.5710    0.0000 C   0  0  0  0  0  0  0  0  0  0  0  0
   10.4036  -22.4374    0.0000 C   0  0  0  0  0  0  0  0  0  0  0  0
   11.2502  -21.1992    0.0000 C   0  0  0  0  0  0  0  0  0  0  0  0
   11.9502  -19.8725    0.0000 C   0  0  0  0  0  0  0  0  0  0  0  0
   12.4944  -18.4747    0.0000 C   0  0  0  0  0  0  0  0  0  0  0  0
   12.8758  -17.0240    0.0000 C   0  0  0  0  0  0  0  0  0  0  0  0
   13.0892  -15.5393    0.0000 C   0  0  0  0  0  0  0  0  0  0  0  0
   13.1321  -14.0399    0.0000 C   0  0  0  0  0  0  0  0  0  0  0  0
   13.0037  -12.5454    0.0000 C   0  0  0  0  0  0  0  0  0  0  0  0
   12.7058  -11.0753    0.0000 C   0  0  0  0  0  0  0  0  0  0  0  0
   12.2423   -9.6487    0.0000 C   0  0  0  0  0  0  0  0  0  0  0  0
   11.6192   -8.2842    0.0000 C   0  0  0  0  0  0  0  0  0  0  0  0
   10.8446   -6.9997    0.0000 C   0  0  0  0  0  0  0  0  0  0  0  0
    9.9286   -5.8119    0.0000 C   0  0  0  0  0  0  0  0  0  0  0  0
    8.8832   -4.7362    0.0000 C   0  0  0  0  0  0  0  0  0  0  0  0
    7.7220   -3.7866    0.0000 C   0  0  0  0  0  0  0  0  0  0  0  0
    6.4601   -2.9757    0.0000 C   0  0  0  0  0  0  0  0  0  0  0  0
    5.1140   -2.3138    0.0000 C   0  0  0  0  0  0  0  0  0  0  0  0
    3.7012   -1.8098    0.0000 C   0  0  0  0  0  0  0  0  0  0  0  0
    3.8296   -3.3043    0.0000 C   0  0  0  0  0  0  0  0  0  0  0  0
    2.4479   -3.8882    0.0000 C   0  0  0  0  0  0  0  0  0  0  0  0
    1.4656   -2.7545    0.0000 C   0  0  0  0  0  0  0  0  0  0  0  0
    2.2402   -1.4700    0.0000 C   0  0  0  0  0  0  0  0  0  0  0  0
    0.7500   -1.2990    0.0000 C   0  0  0  0  0  0  0  0  0  0  0  0
    1.5000    0.0000    0.0000 C   0  0  0  0  0  0  0  0  0  0  0  0
    0.7500    1.2990    0.0000 C   0  0  0  0  0  0  0  0  0  0  0  0
   -0.7500    1.2990    0.0000 C   0  0  0  0  0  0  0  0  0  0  0  0
   -1.5000    0.0000    0.0000 C   0  0  0  0  0  0  0  0  0  0  0  0
   -0.7500   -1.2990    0.0000 C   0  0  0  0  0  0  0  0  0  0  0  0
   -2.2402   -1.4700    0.0000 C   0  0  0  0  0  0  0  0  0  0  0  0
   -1.2155   -2.5654    0.0000 C   0  0  0  0  0  0  0  0  0  0  0  0
   -1.6518   -4.0006    0.0000 C   0  0  0  0  0  0  0  0  0  0  0  0
   -3.1128   -4.3403    0.0000 C   0  0  0  0  0  0  0  0  0  0  0  0
   -4.1375   -3.2449    0.0000 C   0  0  0  0  0  0  0  0  0  0  0  0
   -3.7012   -1.8098    0.0000 C   0  0  0  0  0  0  0  0  0  0  0  0
   -5.1140   -2.3138    0.0000 C   0  0  0  0  0  0  0  0  0  0  0  0
   -5.0141   -0.8172    0.0000 C   0  0  0  0  0  0  0  0  0  0  0  0
   -6.2603    0.0177    0.0000 C   0  0  0  0  0  0  0  0  0  0  0  0
   -7.6064   -0.6442    0.0000 C   0  0  0  0  0  0  0  0  0  0  0  0
   -7.7063   -2.1408    0.0000 C   0  0  0  0  0  0  0  0  0  0  0  0
   -6.4601   -2.9757    0.0000 C   0  0  0  0  0  0  0  0  0  0  0  0
  1  2  1  0
  2  3  1  0
  3  4  1  0
  4  5  1  0
  5  6  1  0
  6  7  1  0
  7  8  1  0
  8  9  1  0
  9 10  1  0
 10 11  1  0
 11 12  1  0
 12 13  1  0
 13 14  1  0
 14 15  1  0
 15 16  1  0
 16 17  1  0
 17 18  1  0
 18 19  1  0
 19 20  1  0
 20 21  1  0
 21 22  1  0
 22 23  1  0
 23 24  1  0
 24 25  1  0
 25 26  1  0
 26 27  1  0
 27 28  1  0
 28 29  1  0
 29 30  1  0
 30 31  2  0
 31 32  1  0
 32 33  2  0
 33 34  1  0
 34 35  2  0
 35 36  1  0
 36 37  2  0
 37 38  1  0
 38 39  2  0
 39 40  1  0
 40 41  2  0
 41 42  1  0
 42 43  2  0
 43 44  1  0
 44 45  2  0
 45 46  1  0
 46 47  2  0
 47 48  1  0
 48 49  2  0
 49 50  1  0
 50 51  2  0
 51 52  1  0
 52 53  2  0
 53 54  1  0
 54 55  2  0
 55 56  1  0
 56 57  2  0
 57 58  1  0
 58 59  2  0
 59 60  1  0
 60 61  2  0
 61 62  1  0
 62 63  2  0
 63 64  1  0
 64 65  2  0
 65 66  1  0
 66 67  2  0
 67 68  1  0
 68 69  2  0
 69 70  1  0
 70 71  2  0
 71  2  1  0
 53 49  1  0
 59 54  1  0
 65 60  1  0
 71 66  1  0
M  END
>  <Title>  (994) 
idABKHgen13

$$$$

     RDKit          2D

 38 38  0  0  0  0  0  0  0  0999 V2000
   52.0607    0.0000    0.0000 C   0  0  0  0  0  0  0  0  0  0  0  0
   50.5607    0.0000    0.0000 C   0  0  0  0  0  0  0  0  0  0  0  0
   49.0607    0.0000    0.0000 C   0  0  0  0  0  0  0  0  0  0  0  0
   47.5607    0.0000    0.0000 C   0  0  0  0  0  0  0  0  0  0  0  0
   46.0607    0.0000    0.0000 C   0  0  0  0  0  0  0  0  0  0  0  0
   44.5607    0.0000    0.0000 C   0  0  0  0  0  0  0  0  0  0  0  0
   43.0607    0.0000    0.0000 C   0  0  0  0  0  0  0  0  0  0  0  0
   41.5607    0.0000    0.0000 C   0  0  0  0  0  0  0  0  0  0  0  0
   40.0607    0.0000    0.0000 C   0  0  0  0  0  0  0  0  0  0  0  0
   38.5607    0.0000    0.0000 C   0  0  0  0  0  0  0  0  0  0  0  0
   37.0607    0.0000    0.0000 C   0  0  0  0  0  0  0  0  0  0  0  0
   35.5607    0.0000    0.0000 C   0  0  0  0  0  0  0  0  0  0  0  0
   34.0607    0.0000    0.0000 C   0  0  0  0  0  0  0  0  0  0  0  0
   32.5607    0.0000    0.0000 C   0  0  0  0  0  0  0  0  0  0  0  0
   31.0607    0.0000    0.0000 C   0  0  0  0  0  0  0  0  0  0  0  0
   29.5607    0.0000    0.0000 C   0  0  0  0  0  0  0  0  0  0  0  0
   28.0607    0.0000    0.0000 C   0  0  0  0  0  0  0  0  0  0  0  0
   26.5607    0.0000    0.0000 C   0  0  0  0  0  0  0  0  0  0  0  0
   25.0607    0.0000    0.0000 C   0  0  0  0  0  0  0  0  0  0  0  0
   23.5607    0.0000    0.0000 C   0  0  0  0  0  0  0  0  0  0  0  0
   22.0607    0.0000    0.0000 C   0  0  0  0  0  0  0  0  0  0  0  0
   20.5607    0.0000    0.0000 C   0  0  0  0  0  0  0  0  0  0  0  0
   19.0607    0.0000    0.0000 C   0  0  0  0  0  0  0  0  0  0  0  0
   17.5607    0.0000    0.0000 C   0  0  0  0  0  0  0  0  0  0  0  0
   16.0607    0.0000    0.0000 C   0  0  0  0  0  0  0  0  0  0  0  0
   14.5607    0.0000    0.0000 C   0  0  0  0  0  0  0  0  0  0  0  0
   13.0607    0.0000    0.0000 C   0  0  0  0  0  0  0  0  0  0  0  0
   11.5607    0.0000    0.0000 C   0  0  0  0  0  0  0  0  0  0  0  0
   10.0607    0.0000    0.0000 C   0  0  0  0  0  0  0  0  0  0  0  0
    8.5607    0.0000    0.0000 C   0  0  0  0  0  0  0  0  0  0  0  0
    7.0607    0.0000    0.0000 C   0  0  0  0  0  0  0  0  0  0  0  0
    5.5607    0.0000    0.0000 C   0  0  0  0  0  0  0  0  0  0  0  0
    4.0607    0.0000    0.0000 C   0  0  0  0  0  0  0  0  0  0  0  0
    2.5607    0.0000    0.0000 C   0  0  0  0  0  0  0  0  0  0  0  0
    1.0607    0.0000    0.0000 N   0  0  0  0  0  0  0  0  0  0  0  0
   -0.0000   -1.0607    0.0000 C   0  0  0  0  0  0  0  0  0  0  0  0
   -1.0607    0.0000    0.0000 C   0  0  0  0  0  0  0  0  0  0  0  0
    0.0000    1.0607    0.0000 C   0  0  0  0  0  0  0  0  0  0  0  0
  1  2  3  0
  2  3  1  0
  3  4  3  0
  4  5  1  0
  5  6  3  0
  6  7  1  0
  7  8  3  0
  8  9  1  0
  9 10  3  0
 10 11  1  0
 11 12  3  0
 12 13  1  0
 13 14  3  0
 14 15  1  0
 15 16  3  0
 16 17  1  0
 17 18  3  0
 18 19  1  0
 19 20  3  0
 20 21  1  0
 21 22  3  0
 22 23  1  0
 23 24  3  0
 24 25  1  0
 25 26  3  0
 26 27  1  0
 27 28  3  0
 28 29  1  0
 29 30  3  0
 30 31  1  0
 31 32  3  0
 32 33  1  0
 33 34  3  0
 34 35  1  0
 35 36  1  0
 36 37  2  0
 37 38  1  0
 38 35  1  0
M  END
>  <Title>  (995) 
idABKIgen13

$$$$

     RDKit          2D

 78 80  0  0  0  0  0  0  0  0999 V2000
    7.5869   -7.8963    0.0000 C   0  0  0  0  0  0  0  0  0  0  0  0
    8.9978   -7.3871    0.0000 C   0  0  0  0  0  0  0  0  0  0  0  0
    9.6248   -8.7498    0.0000 C   0  0  0  0  0  0  0  0  0  0  0  0
   10.4731   -9.9869    0.0000 C   0  0  0  0  0  0  0  0  0  0  0  0
   11.5182  -11.0629    0.0000 C   0  0  0  0  0  0  0  0  0  0  0  0
   12.7302  -11.9467    0.0000 C   0  0  0  0  0  0  0  0  0  0  0  0
   14.0741  -12.6130    0.0000 C   0  0  0  0  0  0  0  0  0  0  0  0
   15.5112  -13.0426    0.0000 C   0  0  0  0  0  0  0  0  0  0  0  0
   17.0003  -13.2232    0.0000 C   0  0  0  0  0  0  0  0  0  0  0  0
   18.4985  -13.1495    0.0000 C   0  0  0  0  0  0  0  0  0  0  0  0
   19.9627  -12.8236    0.0000 C   0  0  0  0  0  0  0  0  0  0  0  0
   21.3507  -12.2550    0.0000 C   0  0  0  0  0  0  0  0  0  0  0  0
   22.6227  -11.4600    0.0000 C   0  0  0  0  0  0  0  0  0  0  0  0
   23.7421  -10.4615    0.0000 C   0  0  0  0  0  0  0  0  0  0  0  0
   24.6766   -9.2881    0.0000 C   0  0  0  0  0  0  0  0  0  0  0  0
   25.3993   -7.9738    0.0000 C   0  0  0  0  0  0  0  0  0  0  0  0
   25.8895   -6.5561    0.0000 C   0  0  0  0  0  0  0  0  0  0  0  0
   26.1331   -5.0760    0.0000 C   0  0  0  0  0  0  0  0  0  0  0  0
   26.1230   -3.5761    0.0000 C   0  0  0  0  0  0  0  0  0  0  0  0
   25.8596   -2.0994    0.0000 C   0  0  0  0  0  0  0  0  0  0  0  0
   25.3505   -0.6884    0.0000 C   0  0  0  0  0  0  0  0  0  0  0  0
   24.6102    0.6162    0.0000 C   0  0  0  0  0  0  0  0  0  0  0  0
   23.6600    1.7769    0.0000 C   0  0  0  0  0  0  0  0  0  0  0  0
   22.5274    2.7603    0.0000 C   0  0  0  0  0  0  0  0  0  0  0  0
   21.2449    3.5382    0.0000 C   0  0  0  0  0  0  0  0  0  0  0  0
   19.8493    4.0881    0.0000 C   0  0  0  0  0  0  0  0  0  0  0  0
   18.3809    4.3943    0.0000 C   0  0  0  0  0  0  0  0  0  0  0  0
   16.8819    4.4479    0.0000 C   0  0  0  0  0  0  0  0  0  0  0  0
   15.3953    4.2474    0.0000 C   0  0  0  0  0  0  0  0  0  0  0  0
   13.9640    3.7986    0.0000 C   0  0  0  0  0  0  0  0  0  0  0  0
   12.6292    3.1143    0.0000 C   0  0  0  0  0  0  0  0  0  0  0  0
   11.4292    2.2143    0.0000 C   0  0  0  0  0  0  0  0  0  0  0  0
   10.3986    1.1244    0.0000 C   0  0  0  0  0  0  0  0  0  0  0  0
    9.5670   -0.1239    0.0000 C   0  0  0  0  0  0  0  0  0  0  0  0
    8.9583   -1.4949    0.0000 C   0  0  0  0  0  0  0  0  0  0  0  0
    8.3822   -0.0000    0.0000 C   0  0  0  0  0  0  0  0  0  0  0  0
    8.2679    1.3797    0.0000 C   0  0  0  0  0  0  0  0  0  0  0  0
    7.9280    2.7217    0.0000 C   0  0  0  0  0  0  0  0  0  0  0  0
    7.3719    3.9895    0.0000 C   0  0  0  0  0  0  0  0  0  0  0  0
    6.6147    5.1484    0.0000 C   0  0  0  0  0  0  0  0  0  0  0  0
    5.6771    6.1670    0.0000 C   0  0  0  0  0  0  0  0  0  0  0  0
    4.5846    7.0173    0.0000 C   0  0  0  0  0  0  0  0  0  0  0  0
    3.3671    7.6762    0.0000 C   0  0  0  0  0  0  0  0  0  0  0  0
    2.0577    8.1257    0.0000 C   0  0  0  0  0  0  0  0  0  0  0  0
    0.6922    8.3535    0.0000 C   0  0  0  0  0  0  0  0  0  0  0  0
   -0.6922    8.3535    0.0000 C   0  0  0  0  0  0  0  0  0  0  0  0
   -2.0577    8.1257    0.0000 C   0  0  0  0  0  0  0  0  0  0  0  0
   -3.3671    7.6762    0.0000 C   0  0  0  0  0  0  0  0  0  0  0  0
   -4.5846    7.0173    0.0000 C   0  0  0  0  0  0  0  0  0  0  0  0
   -5.6771    6.1670    0.0000 C   0  0  0  0  0  0  0  0  0  0  0  0
   -6.6147    5.1484    0.0000 C   0  0  0  0  0  0  0  0  0  0  0  0
   -7.3719    3.9895    0.0000 C   0  0  0  0  0  0  0  0  0  0  0  0
   -7.9280    2.7217    0.0000 C   0  0  0  0  0  0  0  0  0  0  0  0
   -8.2679    1.3797    0.0000 C   0  0  0  0  0  0  0  0  0  0  0  0
   -8.3822    0.0000    0.0000 C   0  0  0  0  0  0  0  0  0  0  0  0
   -8.2679   -1.3797    0.0000 C   0  0  0  0  0  0  0  0  0  0  0  0
   -7.9280   -2.7217    0.0000 C   0  0  0  0  0  0  0  0  0  0  0  0
   -7.3719   -3.9895    0.0000 C   0  0  0  0  0  0  0  0  0  0  0  0
   -6.6147   -5.1484    0.0000 C   0  0  0  0  0  0  0  0  0  0  0  0
   -5.6771   -6.1670    0.0000 C   0  0  0  0  0  0  0  0  0  0  0  0
   -4.5846   -7.0173    0.0000 C   0  0  0  0  0  0  0  0  0  0  0  0
   -3.3671   -7.6762    0.0000 C   0  0  0  0  0  0  0  0  0  0  0  0
   -2.0577   -8.1257    0.0000 C   0  0  0  0  0  0  0  0  0  0  0  0
   -0.6922   -8.3535    0.0000 C   0  0  0  0  0  0  0  0  0  0  0  0
    0.6922   -8.3535    0.0000 C   0  0  0  0  0  0  0  0  0  0  0  0
    2.0577   -8.1257    0.0000 C   0  0  0  0  0  0  0  0  0  0  0  0
    3.3671   -7.6762    0.0000 C   0  0  0  0  0  0  0  0  0  0  0  0
    4.5846   -7.0173    0.0000 C   0  0  0  0  0  0  0  0  0  0  0  0
    5.6771   -6.1670    0.0000 C   0  0  0  0  0  0  0  0  0  0  0  0
    6.6147   -5.1484    0.0000 C   0  0  0  0  0  0  0  0  0  0  0  0
    7.3719   -3.9895    0.0000 C   0  0  0  0  0  0  0  0  0  0  0  0
    8.5901   -2.9490    0.0000 C   0  0  0  0  0  0  0  0  0  0  0  0
    8.4729   -4.4444    0.0000 C   0  0  0  0  0  0  0  0  0  0  0  0
    9.6979   -3.5787    0.0000 C   0  0  0  0  0  0  0  0  0  0  0  0
   11.0601   -4.2067    0.0000 C   0  0  0  0  0  0  0  0  0  0  0  0
   11.1973   -5.7004    0.0000 C   0  0  0  0  0  0  0  0  0  0  0  0
    9.9723   -6.5661    0.0000 C   0  0  0  0  0  0  0  0  0  0  0  0
    8.6101   -5.9381    0.0000 C   0  0  0  0  0  0  0  0  0  0  0  0
  1  2  1  0
  2  3  1  0
  3  4  1  0
  4  5  1  0
  5  6  1  0
  6  7  1  0
  7  8  1  0
  8  9  1  0
  9 10  1  0
 10 11  1  0
 11 12  1  0
 12 13  1  0
 13 14  1  0
 14 15  1  0
 15 16  1  0
 16 17  1  0
 17 18  1  0
 18 19  1  0
 19 20  1  0
 20 21  1  0
 21 22  1  0
 22 23  1  0
 23 24  1  0
 24 25  1  0
 25 26  1  0
 26 27  1  0
 27 28  1  0
 28 29  1  0
 29 30  1  0
 30 31  1  0
 31 32  1  0
 32 33  1  0
 33 34  1  0
 34 35  1  0
 35 36  1  0
 36 37  1  0
 37 38  1  0
 38 39  1  0
 39 40  2  0
 40 41  1  0
 41 42  2  0
 42 43  1  0
 43 44  2  0
 44 45  1  0
 45 46  2  0
 46 47  1  0
 47 48  2  0
 48 49  1  0
 49 50  2  0
 50 51  1  0
 51 52  2  0
 52 53  1  0
 53 54  2  0
 54 55  1  0
 55 56  2  0
 56 57  1  0
 57 58  2  0
 58 59  1  0
 59 60  2  0
 60 61  1  0
 61 62  2  0
 62 63  1  0
 63 64  2  0
 64 65  1  0
 65 66  2  0
 66 67  1  0
 67 68  2  0
 68 69  1  0
 69 70  2  0
 70 71  1  0
 71 72  2  0
 72 73  1  0
 73 74  2  0
 74 75  1  0
 75 76  2  0
 76 77  1  0
 77 78  2  0
 78  2  1  0
 72 35  1  0
 78 73  1  0
M  END
>  <Title>  (996) 
idABKJgen13

$$$$

     RDKit          2D

 80 81  0  0  0  0  0  0  0  0999 V2000
   -2.2088   -1.0671    0.0000 C   0  0  0  0  0  0  0  0  0  0  0  0
   -2.4923    0.4059    0.0000 C   0  0  0  0  0  0  0  0  0  0  0  0
   -3.9757    0.1835    0.0000 C   0  0  0  0  0  0  0  0  0  0  0  0
   -5.4724    0.0843    0.0000 C   0  0  0  0  0  0  0  0  0  0  0  0
   -6.9722    0.1091    0.0000 C   0  0  0  0  0  0  0  0  0  0  0  0
   -8.4648    0.2577    0.0000 C   0  0  0  0  0  0  0  0  0  0  0  0
   -9.9401    0.5290    0.0000 C   0  0  0  0  0  0  0  0  0  0  0  0
  -11.3879    0.9212    0.0000 C   0  0  0  0  0  0  0  0  0  0  0  0
  -12.7984    1.4317    0.0000 C   0  0  0  0  0  0  0  0  0  0  0  0
  -14.1619    2.0569    0.0000 C   0  0  0  0  0  0  0  0  0  0  0  0
  -15.4691    2.7925    0.0000 C   0  0  0  0  0  0  0  0  0  0  0  0
  -16.7111    3.6336    0.0000 C   0  0  0  0  0  0  0  0  0  0  0  0
  -17.8795    4.5743    0.0000 C   0  0  0  0  0  0  0  0  0  0  0  0
  -18.9661    5.6084    0.0000 C   0  0  0  0  0  0  0  0  0  0  0  0
  -19.9636    6.7286    0.0000 C   0  0  0  0  0  0  0  0  0  0  0  0
  -20.8652    7.9274    0.0000 C   0  0  0  0  0  0  0  0  0  0  0  0
  -21.6648    9.1965    0.0000 C   0  0  0  0  0  0  0  0  0  0  0  0
  -22.3568   10.5273    0.0000 C   0  0  0  0  0  0  0  0  0  0  0  0
  -22.9366   11.9108    0.0000 C   0  0  0  0  0  0  0  0  0  0  0  0
  -23.4001   13.3374    0.0000 C   0  0  0  0  0  0  0  0  0  0  0  0
  -23.7442   14.7974    0.0000 C   0  0  0  0  0  0  0  0  0  0  0  0
  -23.9666   16.2808    0.0000 C   0  0  0  0  0  0  0  0  0  0  0  0
  -24.0658   17.7775    0.0000 C   0  0  0  0  0  0  0  0  0  0  0  0
  -24.0409   19.2773    0.0000 C   0  0  0  0  0  0  0  0  0  0  0  0
  -23.8924   20.7699    0.0000 C   0  0  0  0  0  0  0  0  0  0  0  0
  -23.6211   22.2452    0.0000 C   0  0  0  0  0  0  0  0  0  0  0  0
  -23.2288   23.6930    0.0000 C   0  0  0  0  0  0  0  0  0  0  0  0
  -22.7184   25.1035    0.0000 C   0  0  0  0  0  0  0  0  0  0  0  0
  -22.0932   26.4670    0.0000 C   0  0  0  0  0  0  0  0  0  0  0  0
  -21.3576   27.7742    0.0000 C   0  0  0  0  0  0  0  0  0  0  0  0
  -20.5165   29.0162    0.0000 C   0  0  0  0  0  0  0  0  0  0  0  0
  -19.5758   30.1845    0.0000 C   0  0  0  0  0  0  0  0  0  0  0  0
  -18.5417   31.2712    0.0000 C   0  0  0  0  0  0  0  0  0  0  0  0
  -17.4215   32.2687    0.0000 C   0  0  0  0  0  0  0  0  0  0  0  0
  -16.2227   33.1703    0.0000 C   0  0  0  0  0  0  0  0  0  0  0  0
  -14.9536   33.9699    0.0000 C   0  0  0  0  0  0  0  0  0  0  0  0
  -13.6227   34.6619    0.0000 C   0  0  0  0  0  0  0  0  0  0  0  0
  -12.2393   35.2416    0.0000 C   0  0  0  0  0  0  0  0  0  0  0  0
  -10.8127   35.7052    0.0000 C   0  0  0  0  0  0  0  0  0  0  0  0
   -9.3527   36.0493    0.0000 C   0  0  0  0  0  0  0  0  0  0  0  0
   -7.8693   36.2717    0.0000 C   0  0  0  0  0  0  0  0  0  0  0  0
   -6.3726   36.3708    0.0000 C   0  0  0  0  0  0  0  0  0  0  0  0
   -4.8728   36.3460    0.0000 C   0  0  0  0  0  0  0  0  0  0  0  0
   -3.3802   36.1975    0.0000 C   0  0  0  0  0  0  0  0  0  0  0  0
   -1.9049   35.9261    0.0000 C   0  0  0  0  0  0  0  0  0  0  0  0
   -0.4571   35.5339    0.0000 C   0  0  0  0  0  0  0  0  0  0  0  0
    0.9534   35.0235    0.0000 C   0  0  0  0  0  0  0  0  0  0  0  0
    2.3169   34.3983    0.0000 C   0  0  0  0  0  0  0  0  0  0  0  0
    3.6241   33.6627    0.0000 C   0  0  0  0  0  0  0  0  0  0  0  0
    4.8661   32.8216    0.0000 C   0  0  0  0  0  0  0  0  0  0  0  0
    6.0345   31.8808    0.0000 C   0  0  0  0  0  0  0  0  0  0  0  0
    7.1211   30.8468    0.0000 C   0  0  0  0  0  0  0  0  0  0  0  0
    8.1186   29.7266    0.0000 C   0  0  0  0  0  0  0  0  0  0  0  0
    9.0202   28.5278    0.0000 C   0  0  0  0  0  0  0  0  0  0  0  0
    9.8198   27.2587    0.0000 C   0  0  0  0  0  0  0  0  0  0  0  0
   10.5118   25.9278    0.0000 C   0  0  0  0  0  0  0  0  0  0  0  0
   11.0916   24.5444    0.0000 C   0  0  0  0  0  0  0  0  0  0  0  0
   11.5551   23.1178    0.0000 C   0  0  0  0  0  0  0  0  0  0  0  0
   11.8992   21.6578    0.0000 C   0  0  0  0  0  0  0  0  0  0  0  0
   12.1216   20.1744    0.0000 C   0  0  0  0  0  0  0  0  0  0  0  0
   12.2207   18.6777    0.0000 C   0  0  0  0  0  0  0  0  0  0  0  0
   12.1959   17.1779    0.0000 C   0  0  0  0  0  0  0  0  0  0  0  0
   12.0474   15.6852    0.0000 C   0  0  0  0  0  0  0  0  0  0  0  0
   11.7761   14.2100    0.0000 C   0  0  0  0  0  0  0  0  0  0  0  0
   11.3838   12.7622    0.0000 C   0  0  0  0  0  0  0  0  0  0  0  0
   10.8734   11.3517    0.0000 C   0  0  0  0  0  0  0  0  0  0  0  0
   10.2482    9.9882    0.0000 C   0  0  0  0  0  0  0  0  0  0  0  0
    9.5126    8.6810    0.0000 C   0  0  0  0  0  0  0  0  0  0  0  0
    8.6715    7.4389    0.0000 C   0  0  0  0  0  0  0  0  0  0  0  0
    7.7308    6.2706    0.0000 C   0  0  0  0  0  0  0  0  0  0  0  0
    6.6967    5.1840    0.0000 C   0  0  0  0  0  0  0  0  0  0  0  0
    5.5765    4.1865    0.0000 C   0  0  0  0  0  0  0  0  0  0  0  0
    4.3777    3.2848    0.0000 C   0  0  0  0  0  0  0  0  0  0  0  0
    3.1086    2.4853    0.0000 C   0  0  0  0  0  0  0  0  0  0  0  0
    1.7777    1.7933    0.0000 C   0  0  0  0  0  0  0  0  0  0  0  0
    0.3943    1.2135    0.0000 C   0  0  0  0  0  0  0  0  0  0  0  0
    1.2760    0.0000    0.0000 C   0  0  0  0  0  0  0  0  0  0  0  0
    0.3943   -1.2135    0.0000 C   0  0  0  0  0  0  0  0  0  0  0  0
   -1.0323   -0.7500    0.0000 C   0  0  0  0  0  0  0  0  0  0  0  0
   -1.0323    0.7500    0.0000 C   0  0  0  0  0  0  0  0  0  0  0  0
  1  2  1  0
  2  3  1  0
  3  4  1  0
  4  5  1  0
  5  6  1  0
  6  7  1  0
  7  8  1  0
  8  9  1  0
  9 10  1  0
 10 11  1  0
 11 12  1  0
 12 13  1  0
 13 14  1  0
 14 15  1  0
 15 16  1  0
 16 17  1  0
 17 18  1  0
 18 19  1  0
 19 20  1  0
 20 21  1  0
 21 22  1  0
 22 23  1  0
 23 24  1  0
 24 25  1  0
 25 26  1  0
 26 27  1  0
 27 28  1  0
 28 29  1  0
 29 30  1  0
 30 31  1  0
 31 32  1  0
 32 33  1  0
 33 34  1  0
 34 35  1  0
 35 36  1  0
 36 37  1  0
 37 38  1  0
 38 39  1  0
 39 40  1  0
 40 41  1  0
 41 42  1  0
 42 43  1  0
 43 44  1  0
 44 45  1  0
 45 46  1  0
 46 47  1  0
 47 48  1  0
 48 49  1  0
 49 50  1  0
 50 51  1  0
 51 52  1  0
 52 53  1  0
 53 54  2  0
 54 55  1  0
 55 56  2  0
 56 57  1  0
 57 58  2  0
 58 59  1  0
 59 60  2  0
 60 61  1  0
 61 62  2  0
 62 63  1  0
 63 64  2  0
 64 65  1  0
 65 66  2  0
 66 67  1  0
 67 68  2  0
 68 69  1  0
 69 70  2  0
 70 71  1  0
 71 72  2  0
 72 73  1  0
 73 74  2  0
 74 75  1  0
 75 76  2  0
 76 77  1  0
 77 78  2  0
 78 79  1  0
 79 80  2  0
 80  2  1  0
 80 76  1  0
M  END
>  <Title>  (997) 
idABKKgen13

$$$$

     RDKit          2D

 25 27  0  0  0  0  0  0  0  0999 V2000
    8.0260   -3.8971    0.0000 C   0  0  0  0  0  0  0  0  0  0  0  0
    7.2760   -2.5981    0.0000 C   0  0  0  0  0  0  0  0  0  0  0  0
    5.7760   -2.5981    0.0000 C   0  0  0  0  0  0  0  0  0  0  0  0
    5.0260   -1.2990    0.0000 N   0  0  0  0  0  0  0  0  0  0  0  0
    3.5260   -1.2990    0.0000 C   0  0  0  0  0  0  0  0  0  0  0  0
    2.7760   -2.5981    0.0000 O   0  0  0  0  0  0  0  0  0  0  0  0
    2.7760    0.0000    0.0000 N   0  0  0  0  0  0  0  0  0  0  0  0
    1.2760    0.0000    0.0000 C   0  0  0  0  0  0  0  0  0  0  0  0
    0.3943    1.2135    0.0000 C   0  0  0  0  0  0  0  0  0  0  0  0
   -1.0323    0.7500    0.0000 C   0  0  0  0  0  0  0  0  0  0  0  0
   -1.0323   -0.7500    0.0000 C   0  0  0  0  0  0  0  0  0  0  0  0
   -2.2458   -1.6317    0.0000 C   0  0  0  0  0  0  0  0  0  0  0  0
   -2.0890   -3.1235    0.0000 O   0  0  0  0  0  0  0  0  0  0  0  0
   -3.6161   -1.0216    0.0000 N   0  0  0  0  0  0  0  0  0  0  0  0
   -4.8297   -1.9033    0.0000 C   0  0  0  0  0  0  0  0  0  0  0  0
   -4.8297   -3.4033    0.0000 N   0  0  0  0  0  0  0  0  0  0  0  0
   -6.2562   -3.8668    0.0000 N   0  0  0  0  0  0  0  0  0  0  0  0
   -7.1379   -2.6533    0.0000 N   0  0  0  0  0  0  0  0  0  0  0  0
   -6.2562   -1.4397    0.0000 N   0  0  0  0  0  0  0  0  0  0  0  0
   -6.7198   -0.0131    0.0000 C   0  0  0  0  0  0  0  0  0  0  0  0
   -8.1464    0.4504    0.0000 C   0  0  0  0  0  0  0  0  0  0  0  0
   -8.1464    1.9504    0.0000 C   0  0  0  0  0  0  0  0  0  0  0  0
   -6.7198    2.4139    0.0000 C   0  0  0  0  0  0  0  0  0  0  0  0
   -5.8381    1.2004    0.0000 C   0  0  0  0  0  0  0  0  0  0  0  0
    0.3943   -1.2135    0.0000 C   0  0  0  0  0  0  0  0  0  0  0  0
  1  2  1  0
  2  3  1  0
  3  4  1  0
  4  5  1  0
  5  6  2  0
  5  7  1  0
  7  8  1  0
  8  9  2  0
  9 10  1  0
 10 11  2  0
 11 12  1  0
 12 13  2  0
 12 14  1  0
 14 15  1  0
 15 16  2  0
 16 17  1  0
 17 18  2  0
 18 19  1  0
 19 20  1  0
 20 21  1  0
 21 22  2  0
 22 23  1  0
 23 24  1  0
 11 25  1  0
 25  8  1  0
 19 15  1  0
 24 20  1  0
M  END
>  <Title>  (998) 
idABKLgen13

$$$$

     RDKit          2D

 22 25  0  0  0  0  0  0  0  0999 V2000
    1.3515   -3.9342    0.0000 C   0  0  0  0  0  0  0  0  0  0  0  0
    1.6852   -2.4718    0.0000 C   0  0  0  0  0  0  0  0  0  0  0  0
    0.7500   -1.2990    0.0000 C   0  0  0  0  0  0  0  0  0  0  0  0
    1.5000    0.0000    0.0000 C   0  0  0  0  0  0  0  0  0  0  0  0
    0.7500    1.2990    0.0000 C   0  0  0  0  0  0  0  0  0  0  0  0
   -0.7500    1.2990    0.0000 C   0  0  0  0  0  0  0  0  0  0  0  0
   -1.5000    0.0000    0.0000 C   0  0  0  0  0  0  0  0  0  0  0  0
   -0.7500   -1.2990    0.0000 C   0  0  0  0  0  0  0  0  0  0  0  0
   -1.6852   -2.4718    0.0000 C   0  0  0  0  0  0  0  0  0  0  0  0
   -3.1476   -2.1380    0.0000 N   0  0  0  0  0  0  0  0  0  0  0  0
   -3.7372   -0.7587    0.0000 C   0  0  0  0  0  0  0  0  0  0  0  0
   -5.2311   -0.8932    0.0000 C   0  0  0  0  0  0  0  0  0  0  0  0
   -5.5649   -2.3556    0.0000 C   0  0  0  0  0  0  0  0  0  0  0  0
   -4.2772   -3.1249    0.0000 N   0  0  0  0  0  0  0  0  0  0  0  0
   -4.1428   -4.6189    0.0000 C   0  0  0  0  0  0  0  0  0  0  0  0
   -5.3694   -5.4823    0.0000 C   0  0  0  0  0  0  0  0  0  0  0  0
   -5.2349   -6.9763    0.0000 C   0  0  0  0  0  0  0  0  0  0  0  0
   -3.8739   -7.6068    0.0000 N   0  0  0  0  0  0  0  0  0  0  0  0
   -2.6473   -6.7434    0.0000 N   0  0  0  0  0  0  0  0  0  0  0  0
   -2.7817   -5.2494    0.0000 N   0  0  0  0  0  0  0  0  0  0  0  0
   -1.3515   -3.9342    0.0000 C   0  0  0  0  0  0  0  0  0  0  0  0
   -0.0000   -4.5850    0.0000 O   0  0  0  0  0  0  0  0  0  0  0  0
  1  2  2  0
  2  3  1  0
  3  4  2  0
  4  5  1  0
  5  6  2  0
  6  7  1  0
  7  8  2  0
  8  9  1  0
  9 10  1  0
 10 11  1  0
 11 12  1  0
 12 13  1  0
 13 14  1  0
 14 15  1  0
 15 16  2  0
 16 17  1  0
 17 18  2  0
 18 19  1  0
 19 20  2  0
  9 21  2  0
 21 22  1  0
 22  1  1  0
  8  3  1  0
 14 10  1  0
 20 15  1  0
M  END
>  <Title>  (999) 
idABKMgen13

$$$$

     RDKit          2D

  4  3  0  0  0  0  0  0  0  0999 V2000
    0.0000    0.0000    0.0000 C   0  0  0  0  0  0  0  0  0  0  0  0
   -0.0000   -1.5000    0.0000 C   0  0  0  0  0  0  0  0  0  0  0  0
   -0.0000   -3.0000    0.0000 C   0  0  0  0  0  0  0  0  0  0  0  0
    1.2990   -3.7500    0.0000 C   0  0  0  0  0  0  0  0  0  0  0  0
  1  2  3  0
  2  3  1  0
  3  4  1  0
M  END
>  <Title>  (1000) 
idABKNgen13

$$$$

     RDKit          2D

 36 40  0  0  0  0  0  0  0  0999 V2000
   -3.1965   -1.7857    0.0000 C   0  0  0  0  0  0  0  0  0  0  0  0
   -1.8107   -2.3597    0.0000 C   0  0  0  0  0  0  0  0  0  0  0  0
   -1.8107   -3.8597    0.0000 C   0  0  0  0  0  0  0  0  0  0  0  0
   -0.7500   -4.9204    0.0000 C   0  0  0  0  0  0  0  0  0  0  0  0
    0.7500   -4.9204    0.0000 C   0  0  0  0  0  0  0  0  0  0  0  0
    1.8107   -3.8597    0.0000 C   0  0  0  0  0  0  0  0  0  0  0  0
    1.8107   -2.3597    0.0000 C   0  0  0  0  0  0  0  0  0  0  0  0
    3.1965   -1.7857    0.0000 C   0  0  0  0  0  0  0  0  0  0  0  0
    3.3923   -0.2985    0.0000 O   0  0  0  0  0  0  0  0  0  0  0  0
    4.3865   -2.6988    0.0000 N   0  0  0  0  0  0  0  0  0  0  0  0
    5.7723   -2.1248    0.0000 C   0  0  0  0  0  0  0  0  0  0  0  0
    6.1225   -0.6662    0.0000 N   0  0  0  0  0  0  0  0  0  0  0  0
    7.6179   -0.5485    0.0000 N   0  0  0  0  0  0  0  0  0  0  0  0
    8.1919   -1.9344    0.0000 N   0  0  0  0  0  0  0  0  0  0  0  0
    7.0513   -2.9085    0.0000 N   0  0  0  0  0  0  0  0  0  0  0  0
    7.1690   -4.4039    0.0000 N   0  0  0  0  0  0  0  0  0  0  0  0
    8.4479   -5.1877    0.0000 C   0  0  0  0  0  0  0  0  0  0  0  0
    8.0978   -6.6462    0.0000 C   0  0  0  0  0  0  0  0  0  0  0  0
    6.6024   -6.7639    0.0000 N   0  0  0  0  0  0  0  0  0  0  0  0
    5.8186   -8.0429    0.0000 C   0  0  0  0  0  0  0  0  0  0  0  0
    6.5344   -9.3611    0.0000 O   0  0  0  0  0  0  0  0  0  0  0  0
    4.3192   -8.0036    0.0000 N   0  0  0  0  0  0  0  0  0  0  0  0
    3.5354   -9.2826    0.0000 C   0  0  0  0  0  0  0  0  0  0  0  0
    2.0359   -9.2433    0.0000 N   0  0  0  0  0  0  0  0  0  0  0  0
    1.2522  -10.5223    0.0000 N   0  0  0  0  0  0  0  0  0  0  0  0
    1.9679  -11.8405    0.0000 N   0  0  0  0  0  0  0  0  0  0  0  0
    3.4674  -11.8797    0.0000 N   0  0  0  0  0  0  0  0  0  0  0  0
    4.2512  -10.6008    0.0000 N   0  0  0  0  0  0  0  0  0  0  0  0
    6.0284   -5.3781    0.0000 C   0  0  0  0  0  0  0  0  0  0  0  0
    4.5698   -5.0279    0.0000 O   0  0  0  0  0  0  0  0  0  0  0  0
    0.7500   -1.2990    0.0000 C   0  0  0  0  0  0  0  0  0  0  0  0
    1.5000    0.0000    0.0000 C   0  0  0  0  0  0  0  0  0  0  0  0
    0.7500    1.2990    0.0000 C   0  0  0  0  0  0  0  0  0  0  0  0
   -0.7500    1.2990    0.0000 C   0  0  0  0  0  0  0  0  0  0  0  0
   -1.5000    0.0000    0.0000 C   0  0  0  0  0  0  0  0  0  0  0  0
   -0.7500   -1.2990    0.0000 C   0  0  0  0  0  0  0  0  0  0  0  0
  1  2  1  0
  2  3  1  0
  3  4  2  0
  4  5  1  0
  5  6  1  0
  6  7  1  0
  7  8  1  0
  8  9  2  0
  8 10  1  0
 10 11  1  0
 11 12  2  0
 12 13  1  0
 13 14  2  0
 14 15  1  0
 15 16  1  0
 16 17  1  0
 17 18  1  0
 18 19  1  0
 19 20  1  0
 20 21  2  0
 20 22  1  0
 22 23  1  0
 23 24  2  0
 24 25  1  0
 25 26  2  0
 26 27  1  0
 27 28  2  0
 19 29  1  0
 29 30  2  0
  7 31  1  0
 31 32  2  0
 32 33  1  0
 33 34  2  0
 34 35  1  0
 35 36  2  0
 36  2  1  0
 15 11  1  0
 29 16  1  0
 36 31  1  0
 28 23  1  0
M  END
>  <Title>  (1001) 
idABKOgen13

$$$$

     RDKit          2D

 81 82  0  0  0  0  0  0  0  0999 V2000
   -2.2060   -1.0682    0.0000 C   0  0  0  0  0  0  0  0  0  0  0  0
   -2.4919    0.4043    0.0000 C   0  0  0  0  0  0  0  0  0  0  0  0
   -3.9748    0.1787    0.0000 C   0  0  0  0  0  0  0  0  0  0  0  0
   -5.4712    0.0748    0.0000 C   0  0  0  0  0  0  0  0  0  0  0  0
   -6.9711    0.0931    0.0000 C   0  0  0  0  0  0  0  0  0  0  0  0
   -8.4645    0.2337    0.0000 C   0  0  0  0  0  0  0  0  0  0  0  0
   -9.9415    0.4955    0.0000 C   0  0  0  0  0  0  0  0  0  0  0  0
  -11.3922    0.8768    0.0000 C   0  0  0  0  0  0  0  0  0  0  0  0
  -12.8070    1.3751    0.0000 C   0  0  0  0  0  0  0  0  0  0  0  0
  -14.1765    1.9871    0.0000 C   0  0  0  0  0  0  0  0  0  0  0  0
  -15.4916    2.7086    0.0000 C   0  0  0  0  0  0  0  0  0  0  0  0
  -16.7434    3.5350    0.0000 C   0  0  0  0  0  0  0  0  0  0  0  0
  -17.9238    4.4606    0.0000 C   0  0  0  0  0  0  0  0  0  0  0  0
  -19.0247    5.4794    0.0000 C   0  0  0  0  0  0  0  0  0  0  0  0
  -20.0390    6.5845    0.0000 C   0  0  0  0  0  0  0  0  0  0  0  0
  -20.9598    7.7686    0.0000 C   0  0  0  0  0  0  0  0  0  0  0  0
  -21.7810    9.0238    0.0000 C   0  0  0  0  0  0  0  0  0  0  0  0
  -22.4972   10.3418    0.0000 C   0  0  0  0  0  0  0  0  0  0  0  0
  -23.1036   11.7138    0.0000 C   0  0  0  0  0  0  0  0  0  0  0  0
  -23.5961   13.1306    0.0000 C   0  0  0  0  0  0  0  0  0  0  0  0
  -23.9715   14.5829    0.0000 C   0  0  0  0  0  0  0  0  0  0  0  0
  -24.2273   16.0609    0.0000 C   0  0  0  0  0  0  0  0  0  0  0  0
  -24.3618   17.5549    0.0000 C   0  0  0  0  0  0  0  0  0  0  0  0
  -24.3740   19.0548    0.0000 C   0  0  0  0  0  0  0  0  0  0  0  0
  -24.2640   20.5508    0.0000 C   0  0  0  0  0  0  0  0  0  0  0  0
  -24.0323   22.0328    0.0000 C   0  0  0  0  0  0  0  0  0  0  0  0
  -23.6807   23.4910    0.0000 C   0  0  0  0  0  0  0  0  0  0  0  0
  -23.2113   24.9157    0.0000 C   0  0  0  0  0  0  0  0  0  0  0  0
  -22.6274   26.2973    0.0000 C   0  0  0  0  0  0  0  0  0  0  0  0
  -21.9328   27.6268    0.0000 C   0  0  0  0  0  0  0  0  0  0  0  0
  -21.1322   28.8953    0.0000 C   0  0  0  0  0  0  0  0  0  0  0  0
  -20.2308   30.0943    0.0000 C   0  0  0  0  0  0  0  0  0  0  0  0
  -19.2347   31.2158    0.0000 C   0  0  0  0  0  0  0  0  0  0  0  0
  -18.1506   32.2524    0.0000 C   0  0  0  0  0  0  0  0  0  0  0  0
  -16.9855   33.1972    0.0000 C   0  0  0  0  0  0  0  0  0  0  0  0
  -15.7473   34.0438    0.0000 C   0  0  0  0  0  0  0  0  0  0  0  0
  -14.4442   34.7867    0.0000 C   0  0  0  0  0  0  0  0  0  0  0  0
  -13.0849   35.4210    0.0000 C   0  0  0  0  0  0  0  0  0  0  0  0
  -11.6784   35.9423    0.0000 C   0  0  0  0  0  0  0  0  0  0  0  0
  -10.2341   36.3473    0.0000 C   0  0  0  0  0  0  0  0  0  0  0  0
   -8.7616   36.6331    0.0000 C   0  0  0  0  0  0  0  0  0  0  0  0
   -7.2706   36.7980    0.0000 C   0  0  0  0  0  0  0  0  0  0  0  0
   -5.7713   36.8409    0.0000 C   0  0  0  0  0  0  0  0  0  0  0  0
   -4.2734   36.7614    0.0000 C   0  0  0  0  0  0  0  0  0  0  0  0
   -2.7869   36.5600    0.0000 C   0  0  0  0  0  0  0  0  0  0  0  0
   -1.3219   36.2382    0.0000 C   0  0  0  0  0  0  0  0  0  0  0  0
    0.1121   35.7980    0.0000 C   0  0  0  0  0  0  0  0  0  0  0  0
    1.5054   35.2424    0.0000 C   0  0  0  0  0  0  0  0  0  0  0  0
    2.8488   34.5751    0.0000 C   0  0  0  0  0  0  0  0  0  0  0  0
    4.1333   33.8005    0.0000 C   0  0  0  0  0  0  0  0  0  0  0  0
    5.3504   32.9238    0.0000 C   0  0  0  0  0  0  0  0  0  0  0  0
    6.4920   31.9507    0.0000 C   0  0  0  0  0  0  0  0  0  0  0  0
    7.5505   30.8879    0.0000 C   0  0  0  0  0  0  0  0  0  0  0  0
    8.5189   29.7424    0.0000 C   0  0  0  0  0  0  0  0  0  0  0  0
    9.3906   28.5217    0.0000 C   0  0  0  0  0  0  0  0  0  0  0  0
   10.1599   27.2340    0.0000 C   0  0  0  0  0  0  0  0  0  0  0  0
   10.8218   25.8879    0.0000 C   0  0  0  0  0  0  0  0  0  0  0  0
   11.3717   24.4923    0.0000 C   0  0  0  0  0  0  0  0  0  0  0  0
   11.8060   23.0566    0.0000 C   0  0  0  0  0  0  0  0  0  0  0  0
   12.1219   21.5902    0.0000 C   0  0  0  0  0  0  0  0  0  0  0  0
   12.3172   20.1030    0.0000 C   0  0  0  0  0  0  0  0  0  0  0  0
   12.3906   18.6048    0.0000 C   0  0  0  0  0  0  0  0  0  0  0  0
   12.3416   17.1056    0.0000 C   0  0  0  0  0  0  0  0  0  0  0  0
   12.1706   15.6154    0.0000 C   0  0  0  0  0  0  0  0  0  0  0  0
   11.8787   14.1440    0.0000 C   0  0  0  0  0  0  0  0  0  0  0  0
   11.4679   12.7014    0.0000 C   0  0  0  0  0  0  0  0  0  0  0  0
   10.9408   11.2971    0.0000 C   0  0  0  0  0  0  0  0  0  0  0  0
   10.3011    9.9403    0.0000 C   0  0  0  0  0  0  0  0  0  0  0  0
    9.5528    8.6403    0.0000 C   0  0  0  0  0  0  0  0  0  0  0  0
    8.7011    7.4055    0.0000 C   0  0  0  0  0  0  0  0  0  0  0  0
    7.7516    6.2443    0.0000 C   0  0  0  0  0  0  0  0  0  0  0  0
    6.7106    5.1644    0.0000 C   0  0  0  0  0  0  0  0  0  0  0  0
    5.5850    4.1729    0.0000 C   0  0  0  0  0  0  0  0  0  0  0  0
    4.3824    3.2764    0.0000 C   0  0  0  0  0  0  0  0  0  0  0  0
    3.1107    2.4809    0.0000 C   0  0  0  0  0  0  0  0  0  0  0  0
    1.7784    1.7918    0.0000 C   0  0  0  0  0  0  0  0  0  0  0  0
    0.3943    1.2135    0.0000 C   0  0  0  0  0  0  0  0  0  0  0  0
    1.2760    0.0000    0.0000 C   0  0  0  0  0  0  0  0  0  0  0  0
    0.3943   -1.2135    0.0000 C   0  0  0  0  0  0  0  0  0  0  0  0
   -1.0323   -0.7500    0.0000 C   0  0  0  0  0  0  0  0  0  0  0  0
   -1.0323    0.7500    0.0000 C   0  0  0  0  0  0  0  0  0  0  0  0
  1  2  1  0
  2  3  1  0
  3  4  1  0
  4  5  1  0
  5  6  1  0
  6  7  1  0
  7  8  1  0
  8  9  1  0
  9 10  1  0
 10 11  1  0
 11 12  1  0
 12 13  1  0
 13 14  1  0
 14 15  1  0
 15 16  1  0
 16 17  1  0
 17 18  1  0
 18 19  1  0
 19 20  1  0
 20 21  1  0
 21 22  1  0
 22 23  1  0
 23 24  1  0
 24 25  1  0
 25 26  1  0
 26 27  1  0
 27 28  1  0
 28 29  1  0
 29 30  1  0
 30 31  1  0
 31 32  1  0
 32 33  1  0
 33 34  1  0
 34 35  1  0
 35 36  1  0
 36 37  1  0
 37 38  1  0
 38 39  1  0
 39 40  1  0
 40 41  1  0
 41 42  1  0
 42 43  1  0
 43 44  1  0
 44 45  1  0
 45 46  1  0
 46 47  1  0
 47 48  1  0
 48 49  1  0
 49 50  1  0
 50 51  1  0
 51 52  1  0
 52 53  1  0
 53 54  1  0
 54 55  1  0
 55 56  1  0
 56 57  1  0
 57 58  1  0
 58 59  2  0
 59 60  1  0
 60 61  2  0
 61 62  1  0
 62 63  2  0
 63 64  1  0
 64 65  2  0
 65 66  1  0
 66 67  2  0
 67 68  1  0
 68 69  2  0
 69 70  1  0
 70 71  2  0
 71 72  1  0
 72 73  2  0
 73 74  1  0
 74 75  2  0
 75 76  1  0
 76 77  2  0
 77 78  1  0
 78 79  2  0
 79 80  1  0
 80 81  2  0
 81  2  1  0
 81 77  1  0
M  END
>  <Title>  (1002) 
idABKPgen13

$$$$

     RDKit          2D

 85 87  0  0  0  0  0  0  0  0999 V2000
   -2.4282    0.0675    0.0000 C   0  0  0  0  0  0  0  0  0  0  0  0
   -2.2450   -1.4213    0.0000 C   0  0  0  0  0  0  0  0  0  0  0  0
   -3.7251   -1.6650    0.0000 C   0  0  0  0  0  0  0  0  0  0  0  0
   -5.1804   -2.0286    0.0000 C   0  0  0  0  0  0  0  0  0  0  0  0
   -6.6012   -2.5095    0.0000 C   0  0  0  0  0  0  0  0  0  0  0  0
   -7.9780   -3.1047    0.0000 C   0  0  0  0  0  0  0  0  0  0  0  0
   -9.3018   -3.8101    0.0000 C   0  0  0  0  0  0  0  0  0  0  0  0
  -10.5637   -4.6210    0.0000 C   0  0  0  0  0  0  0  0  0  0  0  0
  -11.7553   -5.5322    0.0000 C   0  0  0  0  0  0  0  0  0  0  0  0
  -12.8686   -6.5374    0.0000 C   0  0  0  0  0  0  0  0  0  0  0  0
  -13.8963   -7.6300    0.0000 C   0  0  0  0  0  0  0  0  0  0  0  0
  -14.8316   -8.8027    0.0000 C   0  0  0  0  0  0  0  0  0  0  0  0
  -15.6681  -10.0478    0.0000 C   0  0  0  0  0  0  0  0  0  0  0  0
  -16.4004  -11.3569    0.0000 C   0  0  0  0  0  0  0  0  0  0  0  0
  -17.0235  -12.7214    0.0000 C   0  0  0  0  0  0  0  0  0  0  0  0
  -17.5333  -14.1321    0.0000 C   0  0  0  0  0  0  0  0  0  0  0  0
  -17.9265  -15.5796    0.0000 C   0  0  0  0  0  0  0  0  0  0  0  0
  -18.2003  -17.0544    0.0000 C   0  0  0  0  0  0  0  0  0  0  0  0
  -18.3531  -18.5466    0.0000 C   0  0  0  0  0  0  0  0  0  0  0  0
  -18.3837  -20.0463    0.0000 C   0  0  0  0  0  0  0  0  0  0  0  0
  -18.2919  -21.5435    0.0000 C   0  0  0  0  0  0  0  0  0  0  0  0
  -18.0785  -23.0282    0.0000 C   0  0  0  0  0  0  0  0  0  0  0  0
  -17.7447  -24.4906    0.0000 C   0  0  0  0  0  0  0  0  0  0  0  0
  -17.2928  -25.9209    0.0000 C   0  0  0  0  0  0  0  0  0  0  0  0
  -16.7259  -27.3097    0.0000 C   0  0  0  0  0  0  0  0  0  0  0  0
  -16.0476  -28.6476    0.0000 C   0  0  0  0  0  0  0  0  0  0  0  0
  -15.2625  -29.9257    0.0000 C   0  0  0  0  0  0  0  0  0  0  0  0
  -14.3759  -31.1356    0.0000 C   0  0  0  0  0  0  0  0  0  0  0  0
  -13.3936  -32.2693    0.0000 C   0  0  0  0  0  0  0  0  0  0  0  0
  -12.3222  -33.3191    0.0000 C   0  0  0  0  0  0  0  0  0  0  0  0
  -11.1688  -34.2780    0.0000 C   0  0  0  0  0  0  0  0  0  0  0  0
   -9.9410  -35.1398    0.0000 C   0  0  0  0  0  0  0  0  0  0  0  0
   -8.6471  -35.8986    0.0000 C   0  0  0  0  0  0  0  0  0  0  0  0
   -7.2957  -36.5494    0.0000 C   0  0  0  0  0  0  0  0  0  0  0  0
   -5.8957  -37.0879    0.0000 C   0  0  0  0  0  0  0  0  0  0  0  0
   -4.4564  -37.5105    0.0000 C   0  0  0  0  0  0  0  0  0  0  0  0
   -2.9875  -37.8144    0.0000 C   0  0  0  0  0  0  0  0  0  0  0  0
   -1.4988  -37.9975    0.0000 C   0  0  0  0  0  0  0  0  0  0  0  0
   -0.0000  -38.0587    0.0000 C   0  0  0  0  0  0  0  0  0  0  0  0
    1.4988  -37.9975    0.0000 C   0  0  0  0  0  0  0  0  0  0  0  0
    2.9875  -37.8144    0.0000 C   0  0  0  0  0  0  0  0  0  0  0  0
    4.4564  -37.5105    0.0000 C   0  0  0  0  0  0  0  0  0  0  0  0
    5.8957  -37.0879    0.0000 C   0  0  0  0  0  0  0  0  0  0  0  0
    7.2957  -36.5494    0.0000 C   0  0  0  0  0  0  0  0  0  0  0  0
    8.6471  -35.8986    0.0000 C   0  0  0  0  0  0  0  0  0  0  0  0
    9.9410  -35.1398    0.0000 C   0  0  0  0  0  0  0  0  0  0  0  0
   11.1688  -34.2780    0.0000 C   0  0  0  0  0  0  0  0  0  0  0  0
   12.3222  -33.3191    0.0000 C   0  0  0  0  0  0  0  0  0  0  0  0
   13.3936  -32.2693    0.0000 C   0  0  0  0  0  0  0  0  0  0  0  0
   14.3759  -31.1356    0.0000 C   0  0  0  0  0  0  0  0  0  0  0  0
   15.2625  -29.9257    0.0000 C   0  0  0  0  0  0  0  0  0  0  0  0
   16.0476  -28.6476    0.0000 C   0  0  0  0  0  0  0  0  0  0  0  0
   16.7259  -27.3097    0.0000 C   0  0  0  0  0  0  0  0  0  0  0  0
   17.2928  -25.9209    0.0000 C   0  0  0  0  0  0  0  0  0  0  0  0
   17.7447  -24.4906    0.0000 C   0  0  0  0  0  0  0  0  0  0  0  0
   18.0785  -23.0282    0.0000 C   0  0  0  0  0  0  0  0  0  0  0  0
   18.2919  -21.5435    0.0000 C   0  0  0  0  0  0  0  0  0  0  0  0
   18.3837  -20.0463    0.0000 C   0  0  0  0  0  0  0  0  0  0  0  0
   18.3531  -18.5466    0.0000 C   0  0  0  0  0  0  0  0  0  0  0  0
   18.2003  -17.0544    0.0000 C   0  0  0  0  0  0  0  0  0  0  0  0
   17.9265  -15.5796    0.0000 C   0  0  0  0  0  0  0  0  0  0  0  0
   17.5333  -14.1321    0.0000 C   0  0  0  0  0  0  0  0  0  0  0  0
   17.0235  -12.7214    0.0000 C   0  0  0  0  0  0  0  0  0  0  0  0
   16.4004  -11.3569    0.0000 C   0  0  0  0  0  0  0  0  0  0  0  0
   15.6681  -10.0478    0.0000 C   0  0  0  0  0  0  0  0  0  0  0  0
   14.8316   -8.8027    0.0000 C   0  0  0  0  0  0  0  0  0  0  0  0
   13.8963   -7.6300    0.0000 C   0  0  0  0  0  0  0  0  0  0  0  0
   12.8686   -6.5374    0.0000 C   0  0  0  0  0  0  0  0  0  0  0  0
   11.7553   -5.5322    0.0000 C   0  0  0  0  0  0  0  0  0  0  0  0
   10.5637   -4.6210    0.0000 C   0  0  0  0  0  0  0  0  0  0  0  0
    9.3018   -3.8101    0.0000 C   0  0  0  0  0  0  0  0  0  0  0  0
    7.9780   -3.1047    0.0000 C   0  0  0  0  0  0  0  0  0  0  0  0
    6.6012   -2.5095    0.0000 C   0  0  0  0  0  0  0  0  0  0  0  0
    5.1804   -2.0286    0.0000 C   0  0  0  0  0  0  0  0  0  0  0  0
    3.7251   -1.6650    0.0000 C   0  0  0  0  0  0  0  0  0  0  0  0
    3.9507   -3.1480    0.0000 C   0  0  0  0  0  0  0  0  0  0  0  0
    2.6100   -3.8208    0.0000 C   0  0  0  0  0  0  0  0  0  0  0  0
    1.5559   -2.7536    0.0000 C   0  0  0  0  0  0  0  0  0  0  0  0
    2.2450   -1.4213    0.0000 C   0  0  0  0  0  0  0  0  0  0  0  0
    0.7500   -1.2990    0.0000 C   0  0  0  0  0  0  0  0  0  0  0  0
    1.5000    0.0000    0.0000 C   0  0  0  0  0  0  0  0  0  0  0  0
    0.7500    1.2990    0.0000 C   0  0  0  0  0  0  0  0  0  0  0  0
   -0.7500    1.2990    0.0000 C   0  0  0  0  0  0  0  0  0  0  0  0
   -1.5000    0.0000    0.0000 C   0  0  0  0  0  0  0  0  0  0  0  0
   -0.7500   -1.2990    0.0000 C   0  0  0  0  0  0  0  0  0  0  0  0
  1  2  1  0
  2  3  1  0
  3  4  1  0
  4  5  1  0
  5  6  1  0
  6  7  1  0
  7  8  1  0
  8  9  1  0
  9 10  1  0
 10 11  1  0
 11 12  1  0
 12 13  1  0
 13 14  1  0
 14 15  1  0
 15 16  1  0
 16 17  1  0
 17 18  1  0
 18 19  1  0
 19 20  1  0
 20 21  1  0
 21 22  1  0
 22 23  1  0
 23 24  1  0
 24 25  1  0
 25 26  1  0
 26 27  1  0
 27 28  1  0
 28 29  1  0
 29 30  1  0
 30 31  1  0
 31 32  1  0
 32 33  1  0
 33 34  1  0
 34 35  1  0
 35 36  1  0
 36 37  1  0
 37 38  1  0
 38 39  1  0
 39 40  1  0
 40 41  1  0
 41 42  1  0
 42 43  1  0
 43 44  1  0
 44 45  1  0
 45 46  1  0
 46 47  1  0
 47 48  1  0
 48 49  1  0
 49 50  1  0
 50 51  1  0
 51 52  1  0
 52 53  1  0
 53 54  1  0
 54 55  1  0
 55 56  1  0
 56 57  1  0
 57 58  1  0
 58 59  1  0
 59 60  1  0
 60 61  1  0
 61 62  1  0
 62 63  1  0
 63 64  1  0
 64 65  1  0
 65 66  1  0
 66 67  1  0
 67 68  1  0
 68 69  1  0
 69 70  1  0
 70 71  2  0
 71 72  1  0
 72 73  2  0
 73 74  1  0
 74 75  2  0
 75 76  1  0
 76 77  2  0
 77 78  1  0
 78 79  2  0
 79 80  1  0
 80 81  2  0
 81 82  1  0
 82 83  2  0
 83 84  1  0
 84 85  2  0
 85  2  1  0
 79 75  1  0
 85 80  1  0
M  END
>  <Title>  (1003) 
idABKQgen13

$$$$

     RDKit          2D

 43 48  0  0  0  0  0  0  0  0999 V2000
   -3.1771   -5.9156    0.0000 C   0  0  0  0  0  0  0  0  0  0  0  0
   -1.9635   -5.0339    0.0000 C   0  0  0  0  0  0  0  0  0  0  0  0
   -0.7500   -5.9156    0.0000 C   0  0  0  0  0  0  0  0  0  0  0  0
    0.7500   -5.9156    0.0000 C   0  0  0  0  0  0  0  0  0  0  0  0
    1.9635   -5.0339    0.0000 C   0  0  0  0  0  0  0  0  0  0  0  0
    3.1771   -5.9156    0.0000 C   0  0  0  0  0  0  0  0  0  0  0  0
    4.5474   -5.3055    0.0000 O   0  0  0  0  0  0  0  0  0  0  0  0
    3.0203   -7.4073    0.0000 N   0  0  0  0  0  0  0  0  0  0  0  0
    4.2338   -8.2890    0.0000 C   0  0  0  0  0  0  0  0  0  0  0  0
    5.6604   -7.8255    0.0000 N   0  0  0  0  0  0  0  0  0  0  0  0
    6.5420   -9.0390    0.0000 N   0  0  0  0  0  0  0  0  0  0  0  0
    5.6604  -10.2525    0.0000 N   0  0  0  0  0  0  0  0  0  0  0  0
    4.2338   -9.7890    0.0000 N   0  0  0  0  0  0  0  0  0  0  0  0
    3.0203  -10.6707    0.0000 N   0  0  0  0  0  0  0  0  0  0  0  0
    3.0203  -12.1707    0.0000 C   0  0  0  0  0  0  0  0  0  0  0  0
    1.5937  -12.6342    0.0000 C   0  0  0  0  0  0  0  0  0  0  0  0
    0.7120  -11.4207    0.0000 C   0  0  0  0  0  0  0  0  0  0  0  0
   -0.7880  -11.4207    0.0000 C   0  0  0  0  0  0  0  0  0  0  0  0
   -1.5380  -12.7197    0.0000 O   0  0  0  0  0  0  0  0  0  0  0  0
   -1.5380  -10.1217    0.0000 N   0  0  0  0  0  0  0  0  0  0  0  0
   -3.0380  -10.1217    0.0000 C   0  0  0  0  0  0  0  0  0  0  0  0
   -3.7880   -8.8226    0.0000 N   0  0  0  0  0  0  0  0  0  0  0  0
   -5.2880   -8.8226    0.0000 N   0  0  0  0  0  0  0  0  0  0  0  0
   -6.0380  -10.1217    0.0000 N   0  0  0  0  0  0  0  0  0  0  0  0
   -5.2880  -11.4207    0.0000 N   0  0  0  0  0  0  0  0  0  0  0  0
   -3.7880  -11.4207    0.0000 N   0  0  0  0  0  0  0  0  0  0  0  0
    1.5937  -10.2072    0.0000 C   0  0  0  0  0  0  0  0  0  0  0  0
    1.1301   -8.7806    0.0000 O   0  0  0  0  0  0  0  0  0  0  0  0
    2.4271   -3.6073    0.0000 C   0  0  0  0  0  0  0  0  0  0  0  0
    3.9271   -3.6073    0.0000 O   0  0  0  0  0  0  0  0  0  0  0  0
    1.9635   -2.1807    0.0000 O   0  0  0  0  0  0  0  0  0  0  0  0
    0.7500   -1.2990    0.0000 C   0  0  0  0  0  0  0  0  0  0  0  0
    1.5000    0.0000    0.0000 C   0  0  0  0  0  0  0  0  0  0  0  0
    0.7500    1.2990    0.0000 C   0  0  0  0  0  0  0  0  0  0  0  0
   -0.7500    1.2990    0.0000 C   0  0  0  0  0  0  0  0  0  0  0  0
   -1.5000    0.0000    0.0000 C   0  0  0  0  0  0  0  0  0  0  0  0
   -0.7500   -1.2990    0.0000 C   0  0  0  0  0  0  0  0  0  0  0  0
   -1.9635   -2.1807    0.0000 C   0  0  0  0  0  0  0  0  0  0  0  0
   -2.9672   -1.0660    0.0000 C   0  0  0  0  0  0  0  0  0  0  0  0
   -4.4344   -1.3779    0.0000 C   0  0  0  0  0  0  0  0  0  0  0  0
   -4.8980   -2.8045    0.0000 C   0  0  0  0  0  0  0  0  0  0  0  0
   -3.8943   -3.9192    0.0000 C   0  0  0  0  0  0  0  0  0  0  0  0
   -2.4271   -3.6073    0.0000 C   0  0  0  0  0  0  0  0  0  0  0  0
  1  2  1  0
  2  3  1  0
  3  4  2  0
  4  5  1  0
  5  6  1  0
  6  7  2  0
  6  8  1  0
  8  9  1  0
  9 10  2  0
 10 11  1  0
 11 12  2  0
 12 13  1  0
 13 14  1  0
 14 15  1  0
 15 16  1  0
 16 17  1  0
 17 18  1  0
 18 19  2  0
 18 20  1  0
 20 21  1  0
 21 22  2  0
 22 23  1  0
 23 24  2  0
 24 25  1  0
 25 26  2  0
 17 27  1  0
 27 28  2  0
  5 29  1  0
 29 30  2  0
 29 31  1  0
 31 32  1  0
 32 33  2  0
 33 34  1  0
 34 35  2  0
 35 36  1  0
 36 37  2  0
 37 38  1  0
 38 39  2  0
 39 40  1  0
 40 41  2  0
 41 42  1  0
 42 43  2  0
 43  2  1  0
 13  9  1  0
 27 14  1  0
 37 32  1  0
 43 38  1  0
 26 21  1  0
M  END
>  <Title>  (1004) 
idABKRgen13

$$$$

     RDKit          2D

 49 48  0  0  0  0  0  0  0  0999 V2000
    0.0000    0.0000    0.0000 C   0  0  0  0  0  0  0  0  0  0  0  0
   -0.0000   -1.5000    0.0000 C   0  0  0  0  0  0  0  0  0  0  0  0
   -0.0000   -3.0000    0.0000 C   0  0  0  0  0  0  0  0  0  0  0  0
   -0.0000   -4.5000    0.0000 C   0  0  0  0  0  0  0  0  0  0  0  0
   -0.0000   -6.0000    0.0000 C   0  0  0  0  0  0  0  0  0  0  0  0
   -0.0000   -7.5000    0.0000 C   0  0  0  0  0  0  0  0  0  0  0  0
   -0.0000   -9.0000    0.0000 C   0  0  0  0  0  0  0  0  0  0  0  0
   -0.0000  -10.5000    0.0000 C   0  0  0  0  0  0  0  0  0  0  0  0
   -0.0000  -12.0000    0.0000 C   0  0  0  0  0  0  0  0  0  0  0  0
   -0.0000  -13.5000    0.0000 C   0  0  0  0  0  0  0  0  0  0  0  0
   -0.0000  -15.0000    0.0000 C   0  0  0  0  0  0  0  0  0  0  0  0
   -0.0000  -16.5000    0.0000 C   0  0  0  0  0  0  0  0  0  0  0  0
   -0.0000  -18.0000    0.0000 C   0  0  0  0  0  0  0  0  0  0  0  0
   -0.0000  -19.5000    0.0000 C   0  0  0  0  0  0  0  0  0  0  0  0
   -0.0000  -21.0000    0.0000 C   0  0  0  0  0  0  0  0  0  0  0  0
   -0.0000  -22.5000    0.0000 C   0  0  0  0  0  0  0  0  0  0  0  0
   -0.0000  -24.0000    0.0000 C   0  0  0  0  0  0  0  0  0  0  0  0
   -0.0000  -25.5000    0.0000 C   0  0  0  0  0  0  0  0  0  0  0  0
   -0.0000  -27.0000    0.0000 C   0  0  0  0  0  0  0  0  0  0  0  0
   -0.0000  -28.5000    0.0000 C   0  0  0  0  0  0  0  0  0  0  0  0
   -0.0000  -30.0000    0.0000 C   0  0  0  0  0  0  0  0  0  0  0  0
   -0.0000  -31.5000    0.0000 C   0  0  0  0  0  0  0  0  0  0  0  0
   -0.0000  -33.0000    0.0000 C   0  0  0  0  0  0  0  0  0  0  0  0
   -0.0000  -34.5000    0.0000 C   0  0  0  0  0  0  0  0  0  0  0  0
   -0.0000  -36.0000    0.0000 C   0  0  0  0  0  0  0  0  0  0  0  0
   -0.0000  -37.5000    0.0000 C   0  0  0  0  0  0  0  0  0  0  0  0
   -0.0000  -39.0000    0.0000 C   0  0  0  0  0  0  0  0  0  0  0  0
   -0.0000  -40.5000    0.0000 C   0  0  0  0  0  0  0  0  0  0  0  0
   -0.0000  -42.0000    0.0000 C   0  0  0  0  0  0  0  0  0  0  0  0
   -0.0000  -43.5000    0.0000 C   0  0  0  0  0  0  0  0  0  0  0  0
   -0.0000  -45.0000    0.0000 C   0  0  0  0  0  0  0  0  0  0  0  0
   -0.0000  -46.5000    0.0000 C   0  0  0  0  0  0  0  0  0  0  0  0
   -0.0000  -48.0000    0.0000 C   0  0  0  0  0  0  0  0  0  0  0  0
   -0.0000  -49.5000    0.0000 C   0  0  0  0  0  0  0  0  0  0  0  0
   -0.0000  -51.0000    0.0000 C   0  0  0  0  0  0  0  0  0  0  0  0
   -0.0000  -52.5000    0.0000 C   0  0  0  0  0  0  0  0  0  0  0  0
   -0.0000  -54.0000    0.0000 C   0  0  0  0  0  0  0  0  0  0  0  0
   -0.0000  -55.5000    0.0000 C   0  0  0  0  0  0  0  0  0  0  0  0
   -0.0000  -57.0000    0.0000 C   0  0  0  0  0  0  0  0  0  0  0  0
   -0.0000  -58.5000    0.0000 C   0  0  0  0  0  0  0  0  0  0  0  0
   -0.0000  -60.0000    0.0000 C   0  0  0  0  0  0  0  0  0  0  0  0
   -0.0000  -61.5000    0.0000 C   0  0  0  0  0  0  0  0  0  0  0  0
   -0.0000  -63.0000    0.0000 C   0  0  0  0  0  0  0  0  0  0  0  0
   -0.0000  -64.5000    0.0000 C   0  0  0  0  0  0  0  0  0  0  0  0
   -0.0000  -66.0000    0.0000 C   0  0  0  0  0  0  0  0  0  0  0  0
   -0.0000  -67.5000    0.0000 C   0  0  0  0  0  0  0  0  0  0  0  0
   -0.0000  -69.0000    0.0000 C   0  0  0  0  0  0  0  0  0  0  0  0
   -0.0000  -70.5000    0.0000 C   0  0  0  0  0  0  0  0  0  0  0  0
   -0.0000  -72.0000    0.0000 C   0  0  0  0  0  0  0  0  0  0  0  0
  1  2  3  0
  2  3  1  0
  3  4  3  0
  4  5  1  0
  5  6  3  0
  6  7  1  0
  7  8  3  0
  8  9  1  0
  9 10  3  0
 10 11  1  0
 11 12  3  0
 12 13  1  0
 13 14  3  0
 14 15  1  0
 15 16  3  0
 16 17  1  0
 17 18  3  0
 18 19  1  0
 19 20  3  0
 20 21  1  0
 21 22  3  0
 22 23  1  0
 23 24  3  0
 24 25  1  0
 25 26  3  0
 26 27  1  0
 27 28  3  0
 28 29  1  0
 29 30  3  0
 30 31  1  0
 31 32  3  0
 32 33  1  0
 33 34  3  0
 34 35  1  0
 35 36  3  0
 36 37  1  0
 37 38  3  0
 38 39  1  0
 39 40  3  0
 40 41  1  0
 41 42  3  0
 42 43  1  0
 43 44  3  0
 44 45  1  0
 45 46  3  0
 46 47  1  0
 47 48  3  0
 48 49  1  0
M  END
>  <Title>  (1005) 
idABKSgen13

$$$$

     RDKit          2D

 11 12  0  0  0  0  0  0  0  0999 V2000
   -2.9520   -4.6564    0.0000 C   0  0  0  0  0  0  0  0  0  0  0  0
   -2.6401   -3.1891    0.0000 C   0  0  0  0  0  0  0  0  0  0  0  0
   -1.2135   -2.7256    0.0000 C   0  0  0  0  0  0  0  0  0  0  0  0
   -0.0000   -3.6073    0.0000 C   0  0  0  0  0  0  0  0  0  0  0  0
    1.2135   -2.7256    0.0000 C   0  0  0  0  0  0  0  0  0  0  0  0
    0.7500   -1.2990    0.0000 C   0  0  0  0  0  0  0  0  0  0  0  0
    1.5000    0.0000    0.0000 C   0  0  0  0  0  0  0  0  0  0  0  0
    0.7500    1.2990    0.0000 C   0  0  0  0  0  0  0  0  0  0  0  0
   -0.7500    1.2990    0.0000 C   0  0  0  0  0  0  0  0  0  0  0  0
   -1.5000    0.0000    0.0000 C   0  0  0  0  0  0  0  0  0  0  0  0
   -0.7500   -1.2990    0.0000 C   0  0  0  0  0  0  0  0  0  0  0  0
  1  2  2  0
  2  3  1  0
  3  4  1  0
  4  5  2  0
  5  6  1  0
  6  7  2  0
  7  8  1  0
  8  9  2  0
  9 10  1  0
 10 11  2  0
 11  3  1  0
 11  6  1  0
M  END
>  <Title>  (1006) 
idABKTgen13

$$$$

     RDKit          2D

 20 22  0  0  0  0  0  0  0  0999 V2000
   -3.0000   -2.5981    0.0000 C   0  0  0  0  0  0  0  0  0  0  0  0
   -1.5000   -2.5981    0.0000 C   0  0  0  0  0  0  0  0  0  0  0  0
   -0.7500   -3.8971    0.0000 C   0  0  0  0  0  0  0  0  0  0  0  0
    0.7500   -3.8971    0.0000 C   0  0  0  0  0  0  0  0  0  0  0  0
    1.5000   -2.5981    0.0000 C   0  0  0  0  0  0  0  0  0  0  0  0
    3.0000   -2.5981    0.0000 C   0  0  0  0  0  0  0  0  0  0  0  0
    3.7500   -1.2990    0.0000 O   0  0  0  0  0  0  0  0  0  0  0  0
    3.7500   -3.8971    0.0000 N   0  0  0  0  0  0  0  0  0  0  0  0
    5.2500   -3.8971    0.0000 C   0  0  0  0  0  0  0  0  0  0  0  0
    6.1317   -2.6836    0.0000 N   0  0  0  0  0  0  0  0  0  0  0  0
    7.5583   -3.1471    0.0000 N   0  0  0  0  0  0  0  0  0  0  0  0
    7.5583   -4.6471    0.0000 N   0  0  0  0  0  0  0  0  0  0  0  0
    6.1317   -5.1106    0.0000 N   0  0  0  0  0  0  0  0  0  0  0  0
    5.6682   -6.5372    0.0000 C   0  0  0  0  0  0  0  0  0  0  0  0
    0.7500   -1.2990    0.0000 C   0  0  0  0  0  0  0  0  0  0  0  0
    1.5000    0.0000    0.0000 C   0  0  0  0  0  0  0  0  0  0  0  0
    0.7500    1.2990    0.0000 C   0  0  0  0  0  0  0  0  0  0  0  0
   -0.7500    1.2990    0.0000 C   0  0  0  0  0  0  0  0  0  0  0  0
   -1.5000    0.0000    0.0000 C   0  0  0  0  0  0  0  0  0  0  0  0
   -0.7500   -1.2990    0.0000 C   0  0  0  0  0  0  0  0  0  0  0  0
  1  2  1  0
  2  3  1  0
  3  4  2  0
  4  5  1  0
  5  6  1  0
  6  7  2  0
  6  8  1  0
  8  9  1  0
  9 10  2  0
 10 11  1  0
 11 12  2  0
 12 13  1  0
 13 14  1  0
  5 15  1  0
 15 16  2  0
 16 17  1  0
 17 18  2  0
 18 19  1  0
 19 20  2  0
 20  2  1  0
 13  9  1  0
 20 15  1  0
M  END
>  <Title>  (1007) 
idABKUgen13

$$$$

     RDKit          2D

 73 74  0  0  0  0  0  0  0  0999 V2000
   -2.2302   -1.0583    0.0000 C   0  0  0  0  0  0  0  0  0  0  0  0
   -2.4951    0.4181    0.0000 C   0  0  0  0  0  0  0  0  0  0  0  0
   -3.9821    0.2206    0.0000 C   0  0  0  0  0  0  0  0  0  0  0  0
   -5.4808    0.1592    0.0000 C   0  0  0  0  0  0  0  0  0  0  0  0
   -6.9789    0.2343    0.0000 C   0  0  0  0  0  0  0  0  0  0  0  0
   -8.4640    0.4453    0.0000 C   0  0  0  0  0  0  0  0  0  0  0  0
   -9.9237    0.7905    0.0000 C   0  0  0  0  0  0  0  0  0  0  0  0
  -11.3460    1.2670    0.0000 C   0  0  0  0  0  0  0  0  0  0  0  0
  -12.7191    1.8708    0.0000 C   0  0  0  0  0  0  0  0  0  0  0  0
  -14.0316    2.5971    0.0000 C   0  0  0  0  0  0  0  0  0  0  0  0
  -15.2726    3.4396    0.0000 C   0  0  0  0  0  0  0  0  0  0  0  0
  -16.4319    4.3915    0.0000 C   0  0  0  0  0  0  0  0  0  0  0  0
  -17.4997    5.4449    0.0000 C   0  0  0  0  0  0  0  0  0  0  0  0
  -18.4674    6.5911    0.0000 C   0  0  0  0  0  0  0  0  0  0  0  0
  -19.3268    7.8204    0.0000 C   0  0  0  0  0  0  0  0  0  0  0  0
  -20.0709    9.1229    0.0000 C   0  0  0  0  0  0  0  0  0  0  0  0
  -20.6935   10.4876    0.0000 C   0  0  0  0  0  0  0  0  0  0  0  0
  -21.1893   11.9033    0.0000 C   0  0  0  0  0  0  0  0  0  0  0  0
  -21.5544   13.3581    0.0000 C   0  0  0  0  0  0  0  0  0  0  0  0
  -21.7857   14.8402    0.0000 C   0  0  0  0  0  0  0  0  0  0  0  0
  -21.8813   16.3372    0.0000 C   0  0  0  0  0  0  0  0  0  0  0  0
  -21.8403   17.8366    0.0000 C   0  0  0  0  0  0  0  0  0  0  0  0
  -21.6631   19.3261    0.0000 C   0  0  0  0  0  0  0  0  0  0  0  0
  -21.3513   20.7933    0.0000 C   0  0  0  0  0  0  0  0  0  0  0  0
  -20.9073   22.2261    0.0000 C   0  0  0  0  0  0  0  0  0  0  0  0
  -20.3348   23.6126    0.0000 C   0  0  0  0  0  0  0  0  0  0  0  0
  -19.6387   24.9413    0.0000 C   0  0  0  0  0  0  0  0  0  0  0  0
  -18.8246   26.2011    0.0000 C   0  0  0  0  0  0  0  0  0  0  0  0
  -17.8993   27.3817    0.0000 C   0  0  0  0  0  0  0  0  0  0  0  0
  -16.8705   28.4733    0.0000 C   0  0  0  0  0  0  0  0  0  0  0  0
  -15.7467   29.4668    0.0000 C   0  0  0  0  0  0  0  0  0  0  0  0
  -14.5372   30.3540    0.0000 C   0  0  0  0  0  0  0  0  0  0  0  0
  -13.2520   31.1275    0.0000 C   0  0  0  0  0  0  0  0  0  0  0  0
  -11.9018   31.7810    0.0000 C   0  0  0  0  0  0  0  0  0  0  0  0
  -10.4978   32.3090    0.0000 C   0  0  0  0  0  0  0  0  0  0  0  0
   -9.0516   32.7071    0.0000 C   0  0  0  0  0  0  0  0  0  0  0  0
   -7.5752   32.9720    0.0000 C   0  0  0  0  0  0  0  0  0  0  0  0
   -6.0808   33.1016    0.0000 C   0  0  0  0  0  0  0  0  0  0  0  0
   -4.5808   33.0948    0.0000 C   0  0  0  0  0  0  0  0  0  0  0  0
   -3.0877   32.9516    0.0000 C   0  0  0  0  0  0  0  0  0  0  0  0
   -1.6137   32.6732    0.0000 C   0  0  0  0  0  0  0  0  0  0  0  0
   -0.1712   32.2620    0.0000 C   0  0  0  0  0  0  0  0  0  0  0  0
    1.2279   31.7212    0.0000 C   0  0  0  0  0  0  0  0  0  0  0  0
    2.5721   31.0555    0.0000 C   0  0  0  0  0  0  0  0  0  0  0  0
    3.8502   30.2703    0.0000 C   0  0  0  0  0  0  0  0  0  0  0  0
    5.0515   29.3721    0.0000 C   0  0  0  0  0  0  0  0  0  0  0  0
    6.1662   28.3684    0.0000 C   0  0  0  0  0  0  0  0  0  0  0  0
    7.1851   27.2675    0.0000 C   0  0  0  0  0  0  0  0  0  0  0  0
    8.0996   26.0785    0.0000 C   0  0  0  0  0  0  0  0  0  0  0  0
    8.9022   24.8113    0.0000 C   0  0  0  0  0  0  0  0  0  0  0  0
    9.5862   23.4763    0.0000 C   0  0  0  0  0  0  0  0  0  0  0  0
   10.1460   22.0847    0.0000 C   0  0  0  0  0  0  0  0  0  0  0  0
   10.5769   20.6480    0.0000 C   0  0  0  0  0  0  0  0  0  0  0  0
   10.8754   19.1780    0.0000 C   0  0  0  0  0  0  0  0  0  0  0  0
   11.0390   17.6869    0.0000 C   0  0  0  0  0  0  0  0  0  0  0  0
   11.0663   16.1871    0.0000 C   0  0  0  0  0  0  0  0  0  0  0  0
   10.9571   14.6911    0.0000 C   0  0  0  0  0  0  0  0  0  0  0  0
   10.7124   13.2112    0.0000 C   0  0  0  0  0  0  0  0  0  0  0  0
   10.3340   11.7597    0.0000 C   0  0  0  0  0  0  0  0  0  0  0  0
    9.8253   10.3486    0.0000 C   0  0  0  0  0  0  0  0  0  0  0  0
    9.1903    8.9897    0.0000 C   0  0  0  0  0  0  0  0  0  0  0  0
    8.4344    7.6940    0.0000 C   0  0  0  0  0  0  0  0  0  0  0  0
    7.5638    6.4725    0.0000 C   0  0  0  0  0  0  0  0  0  0  0  0
    6.5858    5.3353    0.0000 C   0  0  0  0  0  0  0  0  0  0  0  0
    5.5084    4.2916    0.0000 C   0  0  0  0  0  0  0  0  0  0  0  0
    4.3405    3.3503    0.0000 C   0  0  0  0  0  0  0  0  0  0  0  0
    3.0919    2.5191    0.0000 C   0  0  0  0  0  0  0  0  0  0  0  0
    1.7728    1.8049    0.0000 C   0  0  0  0  0  0  0  0  0  0  0  0
    0.3943    1.2135    0.0000 C   0  0  0  0  0  0  0  0  0  0  0  0
    1.2760    0.0000    0.0000 C   0  0  0  0  0  0  0  0  0  0  0  0
    0.3943   -1.2135    0.0000 C   0  0  0  0  0  0  0  0  0  0  0  0
   -1.0323   -0.7500    0.0000 C   0  0  0  0  0  0  0  0  0  0  0  0
   -1.0323    0.7500    0.0000 C   0  0  0  0  0  0  0  0  0  0  0  0
  1  2  1  0
  2  3  1  0
  3  4  1  0
  4  5  1  0
  5  6  1  0
  6  7  1  0
  7  8  1  0
  8  9  1  0
  9 10  1  0
 10 11  1  0
 11 12  1  0
 12 13  1  0
 13 14  1  0
 14 15  1  0
 15 16  1  0
 16 17  1  0
 17 18  1  0
 18 19  1  0
 19 20  1  0
 20 21  1  0
 21 22  1  0
 22 23  1  0
 23 24  1  0
 24 25  1  0
 25 26  1  0
 26 27  1  0
 27 28  1  0
 28 29  1  0
 29 30  1  0
 30 31  1  0
 31 32  1  0
 32 33  1  0
 33 34  1  0
 34 35  1  0
 35 36  1  0
 36 37  1  0
 37 38  1  0
 38 39  1  0
 39 40  1  0
 40 41  1  0
 41 42  1  0
 42 43  1  0
 43 44  1  0
 44 45  1  0
 45 46  1  0
 46 47  1  0
 47 48  1  0
 48 49  1  0
 49 50  1  0
 50 51  1  0
 51 52  1  0
 52 53  1  0
 53 54  1  0
 54 55  1  0
 55 56  1  0
 56 57  1  0
 57 58  1  0
 58 59  2  0
 59 60  1  0
 60 61  2  0
 61 62  1  0
 62 63  2  0
 63 64  1  0
 64 65  2  0
 65 66  1  0
 66 67  2  0
 67 68  1  0
 68 69  2  0
 69 70  1  0
 70 71  2  0
 71 72  1  0
 72 73  2  0
 73  2  1  0
 73 69  1  0
M  END
>  <Title>  (1008) 
idABKVgen13

$$$$

     RDKit          2D

 15 17  0  0  0  0  0  0  0  0999 V2000
   -2.7438   -9.6719    0.0000 C   0  0  0  0  0  0  0  0  0  0  0  0
   -1.5781   -8.7279    0.0000 C   0  0  0  0  0  0  0  0  0  0  0  0
   -1.8127   -7.2463    0.0000 C   0  0  0  0  0  0  0  0  0  0  0  0
   -0.6470   -6.3024    0.0000 C   0  0  0  0  0  0  0  0  0  0  0  0
   -0.8817   -4.8208    0.0000 N   0  0  0  0  0  0  0  0  0  0  0  0
   -2.0952   -3.9391    0.0000 C   0  0  0  0  0  0  0  0  0  0  0  0
   -1.2135   -2.7256    0.0000 C   0  0  0  0  0  0  0  0  0  0  0  0
   -0.0000   -3.6073    0.0000 C   0  0  0  0  0  0  0  0  0  0  0  0
    1.2135   -2.7256    0.0000 N   0  0  0  0  0  0  0  0  0  0  0  0
    0.7500   -1.2990    0.0000 C   0  0  0  0  0  0  0  0  0  0  0  0
    1.5000    0.0000    0.0000 C   0  0  0  0  0  0  0  0  0  0  0  0
    0.7500    1.2990    0.0000 C   0  0  0  0  0  0  0  0  0  0  0  0
   -0.7500    1.2990    0.0000 C   0  0  0  0  0  0  0  0  0  0  0  0
   -1.5000    0.0000    0.0000 C   0  0  0  0  0  0  0  0  0  0  0  0
   -0.7500   -1.2990    0.0000 C   0  0  0  0  0  0  0  0  0  0  0  0
  1  2  2  0
  2  3  1  0
  3  4  1  0
  4  5  1  0
  5  6  1  0
  6  7  1  0
  7  8  1  0
  8  9  2  0
  9 10  1  0
 10 11  2  0
 11 12  1  0
 12 13  2  0
 13 14  1  0
 14 15  2  0
  8  5  1  0
 15 10  1  0
 15  7  1  0
M  END
>  <Title>  (1009) 
idABKWgen13

$$$$

     RDKit          2D

 40 45  0  0  0  0  0  0  0  0999 V2000
   -1.3240   -6.3062    0.0000 C   0  0  0  0  0  0  0  0  0  0  0  0
   -0.7500   -4.9204    0.0000 C   0  0  0  0  0  0  0  0  0  0  0  0
    0.7500   -4.9204    0.0000 C   0  0  0  0  0  0  0  0  0  0  0  0
    1.8107   -3.8597    0.0000 C   0  0  0  0  0  0  0  0  0  0  0  0
    1.8107   -2.3597    0.0000 C   0  0  0  0  0  0  0  0  0  0  0  0
    3.1965   -1.7857    0.0000 C   0  0  0  0  0  0  0  0  0  0  0  0
    3.3923   -0.2985    0.0000 O   0  0  0  0  0  0  0  0  0  0  0  0
    4.3865   -2.6988    0.0000 N   0  0  0  0  0  0  0  0  0  0  0  0
    5.7723   -2.1248    0.0000 C   0  0  0  0  0  0  0  0  0  0  0  0
    6.1225   -0.6662    0.0000 N   0  0  0  0  0  0  0  0  0  0  0  0
    7.6179   -0.5485    0.0000 N   0  0  0  0  0  0  0  0  0  0  0  0
    8.1919   -1.9344    0.0000 N   0  0  0  0  0  0  0  0  0  0  0  0
    7.0513   -2.9085    0.0000 N   0  0  0  0  0  0  0  0  0  0  0  0
    7.1690   -4.4039    0.0000 C   0  0  0  0  0  0  0  0  0  0  0  0
    8.4479   -5.1877    0.0000 C   0  0  0  0  0  0  0  0  0  0  0  0
    8.0978   -6.6462    0.0000 C   0  0  0  0  0  0  0  0  0  0  0  0
    6.6024   -6.7639    0.0000 C   0  0  0  0  0  0  0  0  0  0  0  0
    5.8186   -8.0429    0.0000 C   0  0  0  0  0  0  0  0  0  0  0  0
    6.5344   -9.3611    0.0000 O   0  0  0  0  0  0  0  0  0  0  0  0
    4.3192   -8.0036    0.0000 N   0  0  0  0  0  0  0  0  0  0  0  0
    3.5354   -9.2826    0.0000 C   0  0  0  0  0  0  0  0  0  0  0  0
    2.0359   -9.2433    0.0000 N   0  0  0  0  0  0  0  0  0  0  0  0
    1.2522  -10.5223    0.0000 N   0  0  0  0  0  0  0  0  0  0  0  0
    1.9679  -11.8405    0.0000 N   0  0  0  0  0  0  0  0  0  0  0  0
    3.4674  -11.8797    0.0000 N   0  0  0  0  0  0  0  0  0  0  0  0
    4.2512  -10.6008    0.0000 N   0  0  0  0  0  0  0  0  0  0  0  0
    6.0284   -5.3781    0.0000 C   0  0  0  0  0  0  0  0  0  0  0  0
    4.5698   -5.0279    0.0000 O   0  0  0  0  0  0  0  0  0  0  0  0
    0.7500   -1.2990    0.0000 C   0  0  0  0  0  0  0  0  0  0  0  0
    1.5000    0.0000    0.0000 C   0  0  0  0  0  0  0  0  0  0  0  0
    0.7500    1.2990    0.0000 C   0  0  0  0  0  0  0  0  0  0  0  0
   -0.7500    1.2990    0.0000 C   0  0  0  0  0  0  0  0  0  0  0  0
   -1.5000    0.0000    0.0000 C   0  0  0  0  0  0  0  0  0  0  0  0
   -0.7500   -1.2990    0.0000 C   0  0  0  0  0  0  0  0  0  0  0  0
   -1.8107   -2.3597    0.0000 C   0  0  0  0  0  0  0  0  0  0  0  0
   -3.1097   -1.6097    0.0000 C   0  0  0  0  0  0  0  0  0  0  0  0
   -4.4087   -2.3597    0.0000 C   0  0  0  0  0  0  0  0  0  0  0  0
   -4.4087   -3.8597    0.0000 C   0  0  0  0  0  0  0  0  0  0  0  0
   -3.1097   -4.6097    0.0000 C   0  0  0  0  0  0  0  0  0  0  0  0
   -1.8107   -3.8597    0.0000 C   0  0  0  0  0  0  0  0  0  0  0  0
  1  2  1  0
  2  3  1  0
  3  4  2  0
  4  5  1  0
  5  6  1  0
  6  7  2  0
  6  8  1  0
  8  9  1  0
  9 10  2  0
 10 11  1  0
 11 12  2  0
 12 13  1  0
 13 14  1  0
 14 15  2  0
 15 16  1  0
 16 17  2  0
 17 18  1  0
 18 19  2  0
 18 20  1  0
 20 21  1  0
 21 22  2  0
 22 23  1  0
 23 24  2  0
 24 25  1  0
 25 26  2  0
 17 27  1  0
 27 28  2  0
  5 29  1  0
 29 30  2  0
 30 31  1  0
 31 32  2  0
 32 33  1  0
 33 34  2  0
 34 35  1  0
 35 36  2  0
 36 37  1  0
 37 38  2  0
 38 39  1  0
 39 40  2  0
 40  2  1  0
 13  9  1  0
 27 14  1  0
 34 29  1  0
 40 35  1  0
 26 21  1  0
M  END
>  <Title>  (1010) 
idABKXgen13

$$$$

     RDKit          2D

 35 39  0  0  0  0  0  0  0  0999 V2000
    8.2500    3.8971    0.0000 C   0  0  0  0  0  0  0  0  0  0  0  0
    7.5000    2.5981    0.0000 C   0  0  0  0  0  0  0  0  0  0  0  0
    8.2500    1.2990    0.0000 C   0  0  0  0  0  0  0  0  0  0  0  0
    7.5000    0.0000    0.0000 C   0  0  0  0  0  0  0  0  0  0  0  0
    6.0000    0.0000    0.0000 C   0  0  0  0  0  0  0  0  0  0  0  0
    5.2500   -1.2990    0.0000 N   0  0  0  0  0  0  0  0  0  0  0  0
    6.0000   -2.5981    0.0000 C   0  0  0  0  0  0  0  0  0  0  0  0
    7.5000   -2.5981    0.0000 O   0  0  0  0  0  0  0  0  0  0  0  0
    5.2500   -3.8971    0.0000 N   0  0  0  0  0  0  0  0  0  0  0  0
    6.0000   -5.1962    0.0000 C   0  0  0  0  0  0  0  0  0  0  0  0
    7.4918   -5.3529    0.0000 N   0  0  0  0  0  0  0  0  0  0  0  0
    7.8037   -6.8202    0.0000 N   0  0  0  0  0  0  0  0  0  0  0  0
    6.5046   -7.5702    0.0000 N   0  0  0  0  0  0  0  0  0  0  0  0
    5.3899   -6.5665    0.0000 N   0  0  0  0  0  0  0  0  0  0  0  0
    3.9227   -6.8783    0.0000 N   0  0  0  0  0  0  0  0  0  0  0  0
    2.8080   -5.8746    0.0000 C   0  0  0  0  0  0  0  0  0  0  0  0
    1.5089   -6.6246    0.0000 C   0  0  0  0  0  0  0  0  0  0  0  0
    1.8208   -8.0919    0.0000 N   0  0  0  0  0  0  0  0  0  0  0  0
    0.8171   -9.2066    0.0000 C   0  0  0  0  0  0  0  0  0  0  0  0
    1.2806  -10.6332    0.0000 O   0  0  0  0  0  0  0  0  0  0  0  0
   -0.6501   -8.8947    0.0000 N   0  0  0  0  0  0  0  0  0  0  0  0
   -1.6538  -10.0094    0.0000 C   0  0  0  0  0  0  0  0  0  0  0  0
   -1.1903  -11.4360    0.0000 N   0  0  0  0  0  0  0  0  0  0  0  0
   -2.1940  -12.5507    0.0000 N   0  0  0  0  0  0  0  0  0  0  0  0
   -3.6612  -12.2389    0.0000 N   0  0  0  0  0  0  0  0  0  0  0  0
   -4.1247  -10.8123    0.0000 N   0  0  0  0  0  0  0  0  0  0  0  0
   -3.1210   -9.6976    0.0000 N   0  0  0  0  0  0  0  0  0  0  0  0
    3.3126   -8.2487    0.0000 C   0  0  0  0  0  0  0  0  0  0  0  0
    4.0626   -9.5477    0.0000 O   0  0  0  0  0  0  0  0  0  0  0  0
    5.2500    1.2990    0.0000 C   0  0  0  0  0  0  0  0  0  0  0  0
    3.7500    1.2990    0.0000 C   0  0  0  0  0  0  0  0  0  0  0  0
    3.0000    2.5981    0.0000 C   0  0  0  0  0  0  0  0  0  0  0  0
    3.7500    3.8971    0.0000 C   0  0  0  0  0  0  0  0  0  0  0  0
    5.2500    3.8971    0.0000 C   0  0  0  0  0  0  0  0  0  0  0  0
    6.0000    2.5981    0.0000 C   0  0  0  0  0  0  0  0  0  0  0  0
  1  2  1  0
  2  3  2  0
  3  4  1  0
  4  5  2  0
  5  6  1  0
  6  7  1  0
  7  8  2  0
  7  9  1  0
  9 10  1  0
 10 11  2  0
 11 12  1  0
 12 13  2  0
 13 14  1  0
 14 15  1  0
 15 16  1  0
 16 17  1  0
 17 18  1  0
 18 19  1  0
 19 20  2  0
 19 21  1  0
 21 22  1  0
 22 23  2  0
 23 24  1  0
 24 25  2  0
 25 26  1  0
 26 27  2  0
 18 28  1  0
 28 29  2  0
  5 30  1  0
 30 31  2  0
 31 32  1  0
 32 33  2  0
 33 34  1  0
 34 35  2  0
 35  2  1  0
 14 10  1  0
 28 15  1  0
 35 30  1  0
 27 22  1  0
M  END
>  <Title>  (1011) 
idABKYgen13

$$$$

     RDKit          2D

 28 31  0  0  0  0  0  0  0  0999 V2000
    3.2286   -0.0000    0.0000 C   0  0  0  0  0  0  0  0  0  0  0  0
    1.7286    0.0000    0.0000 C   0  0  0  0  0  0  0  0  0  0  0  0
    1.0777    1.3515    0.0000 C   0  0  0  0  0  0  0  0  0  0  0  0
   -0.3846    1.6852    0.0000 C   0  0  0  0  0  0  0  0  0  0  0  0
   -1.5574    0.7500    0.0000 N   0  0  0  0  0  0  0  0  0  0  0  0
   -1.5574   -0.7500    0.0000 C   0  0  0  0  0  0  0  0  0  0  0  0
   -0.3846   -1.6852    0.0000 C   0  0  0  0  0  0  0  0  0  0  0  0
    1.0777   -1.3515    0.0000 N   0  0  0  0  0  0  0  0  0  0  0  0
    2.0130   -2.5242    0.0000 C   0  0  0  0  0  0  0  0  0  0  0  0
    1.4650   -3.9205    0.0000 C   0  0  0  0  0  0  0  0  0  0  0  0
    2.4002   -5.0933    0.0000 C   0  0  0  0  0  0  0  0  0  0  0  0
    1.8522   -6.4896    0.0000 C   0  0  0  0  0  0  0  0  0  0  0  0
    0.3689   -6.7131    0.0000 C   0  0  0  0  0  0  0  0  0  0  0  0
   -0.3220   -8.0445    0.0000 C   0  0  0  0  0  0  0  0  0  0  0  0
   -1.8018   -7.7988    0.0000 C   0  0  0  0  0  0  0  0  0  0  0  0
   -2.0253   -6.3155    0.0000 C   0  0  0  0  0  0  0  0  0  0  0  0
   -3.3567   -5.6246    0.0000 O   0  0  0  0  0  0  0  0  0  0  0  0
   -3.4240   -4.1261    0.0000 C   0  0  0  0  0  0  0  0  0  0  0  0
   -2.1599   -3.3186    0.0000 N   0  0  0  0  0  0  0  0  0  0  0  0
   -2.2272   -1.8201    0.0000 N   0  0  0  0  0  0  0  0  0  0  0  0
   -3.5586   -1.1291    0.0000 N   0  0  0  0  0  0  0  0  0  0  0  0
   -4.8227   -1.9366    0.0000 N   0  0  0  0  0  0  0  0  0  0  0  0
   -4.7554   -3.4351    0.0000 N   0  0  0  0  0  0  0  0  0  0  0  0
   -0.6837   -5.6446    0.0000 C   0  0  0  0  0  0  0  0  0  0  0  0
   -0.4380   -4.1648    0.0000 O   0  0  0  0  0  0  0  0  0  0  0  0
    3.8835   -4.8697    0.0000 C   0  0  0  0  0  0  0  0  0  0  0  0
    4.4315   -3.4734    0.0000 C   0  0  0  0  0  0  0  0  0  0  0  0
    3.4962   -2.3006    0.0000 C   0  0  0  0  0  0  0  0  0  0  0  0
  1  2  1  0
  2  3  2  0
  3  4  1  0
  4  5  1  0
  5  6  2  0
  6  7  1  0
  7  8  1  0
  8  9  1  0
  9 10  1  0
 10 11  2  0
 11 12  1  0
 12 13  1  0
 13 14  2  0
 14 15  1  0
 15 16  2  0
 16 17  1  0
 17 18  1  0
 18 19  2  0
 19 20  1  0
 20 21  2  0
 21 22  1  0
 22 23  2  0
 16 24  1  0
 24 25  2  0
 11 26  1  0
 26 27  1  0
 27 28  1  0
  8  2  1  0
 28  9  1  0
 24 13  1  0
 23 18  1  0
M  END
>  <Title>  (1012) 
idABKZgen13

$$$$

     RDKit          2D

 65 66  0  0  0  0  0  0  0  0999 V2000
   -2.2605   -1.0453    0.0000 C   0  0  0  0  0  0  0  0  0  0  0  0
   -2.4990    0.4356    0.0000 C   0  0  0  0  0  0  0  0  0  0  0  0
   -3.9902    0.2737    0.0000 C   0  0  0  0  0  0  0  0  0  0  0  0
   -5.4902    0.2660    0.0000 C   0  0  0  0  0  0  0  0  0  0  0  0
   -6.9830    0.4125    0.0000 C   0  0  0  0  0  0  0  0  0  0  0  0
   -8.4529    0.7118    0.0000 C   0  0  0  0  0  0  0  0  0  0  0  0
   -9.8841    1.1606    0.0000 C   0  0  0  0  0  0  0  0  0  0  0  0
  -11.2617    1.7542    0.0000 C   0  0  0  0  0  0  0  0  0  0  0  0
  -12.5709    2.4863    0.0000 C   0  0  0  0  0  0  0  0  0  0  0  0
  -13.7979    3.3491    0.0000 C   0  0  0  0  0  0  0  0  0  0  0  0
  -14.9297    4.3335    0.0000 C   0  0  0  0  0  0  0  0  0  0  0  0
  -15.9543    5.4291    0.0000 C   0  0  0  0  0  0  0  0  0  0  0  0
  -16.8607    6.6242    0.0000 C   0  0  0  0  0  0  0  0  0  0  0  0
  -17.6395    7.9062    0.0000 C   0  0  0  0  0  0  0  0  0  0  0  0
  -18.2824    9.2614    0.0000 C   0  0  0  0  0  0  0  0  0  0  0  0
  -18.7825   10.6756    0.0000 C   0  0  0  0  0  0  0  0  0  0  0  0
  -19.1346   12.1337    0.0000 C   0  0  0  0  0  0  0  0  0  0  0  0
  -19.3348   13.6203    0.0000 C   0  0  0  0  0  0  0  0  0  0  0  0
  -19.3812   15.1196    0.0000 C   0  0  0  0  0  0  0  0  0  0  0  0
  -19.2731   16.6157    0.0000 C   0  0  0  0  0  0  0  0  0  0  0  0
  -19.0118   18.0927    0.0000 C   0  0  0  0  0  0  0  0  0  0  0  0
  -18.6000   19.5351    0.0000 C   0  0  0  0  0  0  0  0  0  0  0  0
  -18.0420   20.9275    0.0000 C   0  0  0  0  0  0  0  0  0  0  0  0
  -17.3439   22.2551    0.0000 C   0  0  0  0  0  0  0  0  0  0  0  0
  -16.5130   23.5039    0.0000 C   0  0  0  0  0  0  0  0  0  0  0  0
  -15.5580   24.6607    0.0000 C   0  0  0  0  0  0  0  0  0  0  0  0
  -14.4892   25.7131    0.0000 C   0  0  0  0  0  0  0  0  0  0  0  0
  -13.3178   26.6501    0.0000 C   0  0  0  0  0  0  0  0  0  0  0  0
  -12.0563   27.4616    0.0000 C   0  0  0  0  0  0  0  0  0  0  0  0
  -10.7181   28.1391    0.0000 C   0  0  0  0  0  0  0  0  0  0  0  0
   -9.3172   28.6755    0.0000 C   0  0  0  0  0  0  0  0  0  0  0  0
   -7.8687   29.0650    0.0000 C   0  0  0  0  0  0  0  0  0  0  0  0
   -6.3878   29.3034    0.0000 C   0  0  0  0  0  0  0  0  0  0  0  0
   -4.8902   29.3884    0.0000 C   0  0  0  0  0  0  0  0  0  0  0  0
   -3.3918   29.3189    0.0000 C   0  0  0  0  0  0  0  0  0  0  0  0
   -1.9085   29.0957    0.0000 C   0  0  0  0  0  0  0  0  0  0  0  0
   -0.4560   28.7211    0.0000 C   0  0  0  0  0  0  0  0  0  0  0  0
    0.9503   28.1992    0.0000 C   0  0  0  0  0  0  0  0  0  0  0  0
    2.2955   27.5355    0.0000 C   0  0  0  0  0  0  0  0  0  0  0  0
    3.5653   26.7370    0.0000 C   0  0  0  0  0  0  0  0  0  0  0  0
    4.7462   25.8122    0.0000 C   0  0  0  0  0  0  0  0  0  0  0  0
    5.8258   24.7708    0.0000 C   0  0  0  0  0  0  0  0  0  0  0  0
    6.7926   23.6239    0.0000 C   0  0  0  0  0  0  0  0  0  0  0  0
    7.6364   22.3837    0.0000 C   0  0  0  0  0  0  0  0  0  0  0  0
    8.3482   21.0634    0.0000 C   0  0  0  0  0  0  0  0  0  0  0  0
    8.9204   19.6768    0.0000 C   0  0  0  0  0  0  0  0  0  0  0  0
    9.3471   18.2388    0.0000 C   0  0  0  0  0  0  0  0  0  0  0  0
    9.6236   16.7645    0.0000 C   0  0  0  0  0  0  0  0  0  0  0  0
    9.7470   15.2696    0.0000 C   0  0  0  0  0  0  0  0  0  0  0  0
    9.7161   13.7699    0.0000 C   0  0  0  0  0  0  0  0  0  0  0  0
    9.5312   12.2813    0.0000 C   0  0  0  0  0  0  0  0  0  0  0  0
    9.1942   10.8197    0.0000 C   0  0  0  0  0  0  0  0  0  0  0  0
    8.7087    9.4004    0.0000 C   0  0  0  0  0  0  0  0  0  0  0  0
    8.0798    8.0386    0.0000 C   0  0  0  0  0  0  0  0  0  0  0  0
    7.3143    6.7487    0.0000 C   0  0  0  0  0  0  0  0  0  0  0  0
    6.4201    5.5443    0.0000 C   0  0  0  0  0  0  0  0  0  0  0  0
    5.4069    4.4382    0.0000 C   0  0  0  0  0  0  0  0  0  0  0  0
    4.2853    3.4422    0.0000 C   0  0  0  0  0  0  0  0  0  0  0  0
    3.0673    2.5668    0.0000 C   0  0  0  0  0  0  0  0  0  0  0  0
    1.7657    1.8213    0.0000 C   0  0  0  0  0  0  0  0  0  0  0  0
    0.3943    1.2135    0.0000 C   0  0  0  0  0  0  0  0  0  0  0  0
    1.2760    0.0000    0.0000 C   0  0  0  0  0  0  0  0  0  0  0  0
    0.3943   -1.2135    0.0000 C   0  0  0  0  0  0  0  0  0  0  0  0
   -1.0323   -0.7500    0.0000 C   0  0  0  0  0  0  0  0  0  0  0  0
   -1.0323    0.7500    0.0000 C   0  0  0  0  0  0  0  0  0  0  0  0
  1  2  1  0
  2  3  1  0
  3  4  1  0
  4  5  1  0
  5  6  1  0
  6  7  1  0
  7  8  1  0
  8  9  1  0
  9 10  1  0
 10 11  1  0
 11 12  1  0
 12 13  1  0
 13 14  1  0
 14 15  1  0
 15 16  1  0
 16 17  1  0
 17 18  1  0
 18 19  1  0
 19 20  1  0
 20 21  1  0
 21 22  1  0
 22 23  1  0
 23 24  1  0
 24 25  1  0
 25 26  1  0
 26 27  1  0
 27 28  1  0
 28 29  1  0
 29 30  1  0
 30 31  1  0
 31 32  1  0
 32 33  1  0
 33 34  1  0
 34 35  1  0
 35 36  1  0
 36 37  1  0
 37 38  1  0
 38 39  1  0
 39 40  1  0
 40 41  1  0
 41 42  1  0
 42 43  1  0
 43 44  1  0
 44 45  1  0
 45 46  1  0
 46 47  1  0
 47 48  1  0
 48 49  1  0
 49 50  1  0
 50 51  1  0
 51 52  1  0
 52 53  1  0
 53 54  1  0
 54 55  1  0
 55 56  1  0
 56 57  1  0
 57 58  1  0
 58 59  1  0
 59 60  1  0
 60 61  1  0
 61 62  1  0
 62 63  2  0
 63 64  1  0
 64 65  2  0
 65  2  1  0
 65 61  1  0
M  END
>  <Title>  (1013) 
idABLAgen13

$$$$

     RDKit          2D

 99100  0  0  0  0  0  0  0  0999 V2000
    8.6209   -4.3988    0.0000 C   0  0  0  0  0  0  0  0  0  0  0  0
    9.4165   -4.4481    0.0000 C   0  0  0  0  0  0  0  0  0  0  0  0
    9.4049   -5.9481    0.0000 C   0  0  0  0  0  0  0  0  0  0  0  0
    9.5556   -7.4405    0.0000 C   0  0  0  0  0  0  0  0  0  0  0  0
    9.8667   -8.9079    0.0000 C   0  0  0  0  0  0  0  0  0  0  0  0
   10.3346  -10.3330    0.0000 C   0  0  0  0  0  0  0  0  0  0  0  0
   10.9539  -11.6992    0.0000 C   0  0  0  0  0  0  0  0  0  0  0  0
   11.7172  -12.9904    0.0000 C   0  0  0  0  0  0  0  0  0  0  0  0
   12.6157  -14.1916    0.0000 C   0  0  0  0  0  0  0  0  0  0  0  0
   13.6388  -15.2885    0.0000 C   0  0  0  0  0  0  0  0  0  0  0  0
   14.7745  -16.2684    0.0000 C   0  0  0  0  0  0  0  0  0  0  0  0
   16.0095  -17.1198    0.0000 C   0  0  0  0  0  0  0  0  0  0  0  0
   17.3293  -17.8326    0.0000 C   0  0  0  0  0  0  0  0  0  0  0  0
   18.7184  -18.3986    0.0000 C   0  0  0  0  0  0  0  0  0  0  0  0
   20.1606  -18.8110    0.0000 C   0  0  0  0  0  0  0  0  0  0  0  0
   21.6389  -19.0652    0.0000 C   0  0  0  0  0  0  0  0  0  0  0  0
   23.1361  -19.1580    0.0000 C   0  0  0  0  0  0  0  0  0  0  0  0
   24.6344  -19.0883    0.0000 C   0  0  0  0  0  0  0  0  0  0  0  0
   26.1165  -18.8571    0.0000 C   0  0  0  0  0  0  0  0  0  0  0  0
   27.5649  -18.4670    0.0000 C   0  0  0  0  0  0  0  0  0  0  0  0
   28.9626  -17.9226    0.0000 C   0  0  0  0  0  0  0  0  0  0  0  0
   30.2933  -17.2303    0.0000 C   0  0  0  0  0  0  0  0  0  0  0  0
   31.5413  -16.3981    0.0000 C   0  0  0  0  0  0  0  0  0  0  0  0
   32.6920  -15.4359    0.0000 C   0  0  0  0  0  0  0  0  0  0  0  0
   33.7320  -14.3550    0.0000 C   0  0  0  0  0  0  0  0  0  0  0  0
   34.6489  -13.1679    0.0000 C   0  0  0  0  0  0  0  0  0  0  0  0
   35.4322  -11.8886    0.0000 C   0  0  0  0  0  0  0  0  0  0  0  0
   36.0725  -10.5322    0.0000 C   0  0  0  0  0  0  0  0  0  0  0  0
   36.5625   -9.1144    0.0000 C   0  0  0  0  0  0  0  0  0  0  0  0
   36.8963   -7.6520    0.0000 C   0  0  0  0  0  0  0  0  0  0  0  0
   37.0700   -6.1621    0.0000 C   0  0  0  0  0  0  0  0  0  0  0  0
   37.0816   -4.6622    0.0000 C   0  0  0  0  0  0  0  0  0  0  0  0
   36.9309   -3.1698    0.0000 C   0  0  0  0  0  0  0  0  0  0  0  0
   36.6198   -1.7024    0.0000 C   0  0  0  0  0  0  0  0  0  0  0  0
   36.1519   -0.2772    0.0000 C   0  0  0  0  0  0  0  0  0  0  0  0
   35.5326    1.0890    0.0000 C   0  0  0  0  0  0  0  0  0  0  0  0
   34.7692    2.3802    0.0000 C   0  0  0  0  0  0  0  0  0  0  0  0
   33.8708    3.5813    0.0000 C   0  0  0  0  0  0  0  0  0  0  0  0
   32.8477    4.6783    0.0000 C   0  0  0  0  0  0  0  0  0  0  0  0
   31.7120    5.6582    0.0000 C   0  0  0  0  0  0  0  0  0  0  0  0
   30.4770    6.5095    0.0000 C   0  0  0  0  0  0  0  0  0  0  0  0
   29.1572    7.2224    0.0000 C   0  0  0  0  0  0  0  0  0  0  0  0
   27.7681    7.7883    0.0000 C   0  0  0  0  0  0  0  0  0  0  0  0
   26.3259    8.2008    0.0000 C   0  0  0  0  0  0  0  0  0  0  0  0
   24.8476    8.4549    0.0000 C   0  0  0  0  0  0  0  0  0  0  0  0
   23.3504    8.5477    0.0000 C   0  0  0  0  0  0  0  0  0  0  0  0
   21.8521    8.4781    0.0000 C   0  0  0  0  0  0  0  0  0  0  0  0
   20.3700    8.2469    0.0000 C   0  0  0  0  0  0  0  0  0  0  0  0
   18.9216    7.8568    0.0000 C   0  0  0  0  0  0  0  0  0  0  0  0
   17.5239    7.3124    0.0000 C   0  0  0  0  0  0  0  0  0  0  0  0
   16.1932    6.6200    0.0000 C   0  0  0  0  0  0  0  0  0  0  0  0
   14.9452    5.7879    0.0000 C   0  0  0  0  0  0  0  0  0  0  0  0
   13.7945    4.8257    0.0000 C   0  0  0  0  0  0  0  0  0  0  0  0
   12.7545    3.7447    0.0000 C   0  0  0  0  0  0  0  0  0  0  0  0
   11.8376    2.5576    0.0000 C   0  0  0  0  0  0  0  0  0  0  0  0
   11.0543    1.2784    0.0000 C   0  0  0  0  0  0  0  0  0  0  0  0
   10.4140   -0.0781    0.0000 C   0  0  0  0  0  0  0  0  0  0  0  0
    9.9240   -1.4958    0.0000 C   0  0  0  0  0  0  0  0  0  0  0  0
    9.3361    0.0000    0.0000 C   0  0  0  0  0  0  0  0  0  0  0  0
    9.2318    1.3915    0.0000 C   0  0  0  0  0  0  0  0  0  0  0  0
    8.9213    2.7519    0.0000 C   0  0  0  0  0  0  0  0  0  0  0  0
    8.4116    4.0508    0.0000 C   0  0  0  0  0  0  0  0  0  0  0  0
    7.7139    5.2592    0.0000 C   0  0  0  0  0  0  0  0  0  0  0  0
    6.8439    6.3502    0.0000 C   0  0  0  0  0  0  0  0  0  0  0  0
    5.8210    7.2993    0.0000 C   0  0  0  0  0  0  0  0  0  0  0  0
    4.6681    8.0853    0.0000 C   0  0  0  0  0  0  0  0  0  0  0  0
    3.4109    8.6907    0.0000 C   0  0  0  0  0  0  0  0  0  0  0  0
    2.0775    9.1020    0.0000 C   0  0  0  0  0  0  0  0  0  0  0  0
    0.6977    9.3100    0.0000 C   0  0  0  0  0  0  0  0  0  0  0  0
   -0.6977    9.3100    0.0000 C   0  0  0  0  0  0  0  0  0  0  0  0
   -2.0775    9.1020    0.0000 C   0  0  0  0  0  0  0  0  0  0  0  0
   -3.4109    8.6907    0.0000 C   0  0  0  0  0  0  0  0  0  0  0  0
   -4.6681    8.0853    0.0000 C   0  0  0  0  0  0  0  0  0  0  0  0
   -5.8210    7.2993    0.0000 C   0  0  0  0  0  0  0  0  0  0  0  0
   -6.8439    6.3502    0.0000 C   0  0  0  0  0  0  0  0  0  0  0  0
   -7.7139    5.2592    0.0000 C   0  0  0  0  0  0  0  0  0  0  0  0
   -8.4116    4.0508    0.0000 C   0  0  0  0  0  0  0  0  0  0  0  0
   -8.9213    2.7519    0.0000 C   0  0  0  0  0  0  0  0  0  0  0  0
   -9.2318    1.3915    0.0000 C   0  0  0  0  0  0  0  0  0  0  0  0
   -9.3361   -0.0000    0.0000 C   0  0  0  0  0  0  0  0  0  0  0  0
   -9.2318   -1.3915    0.0000 C   0  0  0  0  0  0  0  0  0  0  0  0
   -8.9213   -2.7519    0.0000 C   0  0  0  0  0  0  0  0  0  0  0  0
   -8.4116   -4.0508    0.0000 C   0  0  0  0  0  0  0  0  0  0  0  0
   -7.7139   -5.2592    0.0000 C   0  0  0  0  0  0  0  0  0  0  0  0
   -6.8439   -6.3502    0.0000 C   0  0  0  0  0  0  0  0  0  0  0  0
   -5.8210   -7.2993    0.0000 C   0  0  0  0  0  0  0  0  0  0  0  0
   -4.6681   -8.0853    0.0000 C   0  0  0  0  0  0  0  0  0  0  0  0
   -3.4109   -8.6907    0.0000 C   0  0  0  0  0  0  0  0  0  0  0  0
   -2.0775   -9.1020    0.0000 C   0  0  0  0  0  0  0  0  0  0  0  0
   -0.6977   -9.3100    0.0000 C   0  0  0  0  0  0  0  0  0  0  0  0
    0.6977   -9.3100    0.0000 C   0  0  0  0  0  0  0  0  0  0  0  0
    2.0775   -9.1020    0.0000 C   0  0  0  0  0  0  0  0  0  0  0  0
    3.4109   -8.6907    0.0000 C   0  0  0  0  0  0  0  0  0  0  0  0
    4.6681   -8.0853    0.0000 C   0  0  0  0  0  0  0  0  0  0  0  0
    5.8210   -7.2993    0.0000 C   0  0  0  0  0  0  0  0  0  0  0  0
    6.8439   -6.3502    0.0000 C   0  0  0  0  0  0  0  0  0  0  0  0
    7.7139   -5.2592    0.0000 C   0  0  0  0  0  0  0  0  0  0  0  0
    8.4116   -4.0508    0.0000 C   0  0  0  0  0  0  0  0  0  0  0  0
    9.5902   -2.9582    0.0000 C   0  0  0  0  0  0  0  0  0  0  0  0
  1  2  1  0
  2  3  1  0
  3  4  1  0
  4  5  1  0
  5  6  1  0
  6  7  1  0
  7  8  1  0
  8  9  1  0
  9 10  1  0
 10 11  1  0
 11 12  1  0
 12 13  1  0
 13 14  1  0
 14 15  1  0
 15 16  1  0
 16 17  1  0
 17 18  1  0
 18 19  1  0
 19 20  1  0
 20 21  1  0
 21 22  1  0
 22 23  1  0
 23 24  1  0
 24 25  1  0
 25 26  1  0
 26 27  1  0
 27 28  1  0
 28 29  1  0
 29 30  1  0
 30 31  1  0
 31 32  1  0
 32 33  1  0
 33 34  1  0
 34 35  1  0
 35 36  1  0
 36 37  1  0
 37 38  1  0
 38 39  1  0
 39 40  1  0
 40 41  1  0
 41 42  1  0
 42 43  1  0
 43 44  1  0
 44 45  1  0
 45 46  1  0
 46 47  1  0
 47 48  1  0
 48 49  1  0
 49 50  1  0
 50 51  1  0
 51 52  1  0
 52 53  1  0
 53 54  1  0
 54 55  1  0
 55 56  1  0
 56 57  1  0
 57 58  1  0
 58 59  1  0
 59 60  1  0
 60 61  1  0
 61 62  1  0
 62 63  2  0
 63 64  1  0
 64 65  2  0
 65 66  1  0
 66 67  2  0
 67 68  1  0
 68 69  2  0
 69 70  1  0
 70 71  2  0
 71 72  1  0
 72 73  2  0
 73 74  1  0
 74 75  2  0
 75 76  1  0
 76 77  2  0
 77 78  1  0
 78 79  2  0
 79 80  1  0
 80 81  2  0
 81 82  1  0
 82 83  2  0
 83 84  1  0
 84 85  2  0
 85 86  1  0
 86 87  2  0
 87 88  1  0
 88 89  2  0
 89 90  1  0
 90 91  2  0
 91 92  1  0
 92 93  2  0
 93 94  1  0
 94 95  2  0
 95 96  1  0
 96 97  2  0
 97 98  1  0
 98 99  2  0
 99  2  1  0
 99 58  1  0
M  END
>  <Title>  (1014) 
idABLBgen13

$$$$

     RDKit          2D

  9  9  0  0  0  0  0  0  0  0999 V2000
    7.2760   -0.0000    0.0000 C   0  0  0  0  0  0  0  0  0  0  0  0
    5.7760   -0.0000    0.0000 C   0  0  0  0  0  0  0  0  0  0  0  0
    4.2760   -0.0000    0.0000 C   0  0  0  0  0  0  0  0  0  0  0  0
    2.7760    0.0000    0.0000 C   0  0  0  0  0  0  0  0  0  0  0  0
    1.2760    0.0000    0.0000 C   0  0  0  0  0  0  0  0  0  0  0  0
    0.3943    1.2135    0.0000 C   0  0  0  0  0  0  0  0  0  0  0  0
   -1.0323    0.7500    0.0000 C   0  0  0  0  0  0  0  0  0  0  0  0
   -1.0323   -0.7500    0.0000 C   0  0  0  0  0  0  0  0  0  0  0  0
    0.3943   -1.2135    0.0000 C   0  0  0  0  0  0  0  0  0  0  0  0
  1  2  3  0
  2  3  1  0
  3  4  3  0
  4  5  1  0
  5  6  2  0
  6  7  1  0
  7  8  2  0
  8  9  1  0
  9  5  1  0
M  END
>  <Title>  (1015) 
idABLCgen13

$$$$

     RDKit          2D

 93 94  0  0  0  0  0  0  0  0999 V2000
    9.9325    4.4632    0.0000 C   0  0  0  0  0  0  0  0  0  0  0  0
   10.7296    4.4632    0.0000 C   0  0  0  0  0  0  0  0  0  0  0  0
   10.8298    5.9599    0.0000 C   0  0  0  0  0  0  0  0  0  0  0  0
   11.1286    7.4298    0.0000 C   0  0  0  0  0  0  0  0  0  0  0  0
   11.6206    8.8468    0.0000 C   0  0  0  0  0  0  0  0  0  0  0  0
   12.2971   10.1856    0.0000 C   0  0  0  0  0  0  0  0  0  0  0  0
   13.1461   11.4223    0.0000 C   0  0  0  0  0  0  0  0  0  0  0  0
   14.1522   12.5348    0.0000 C   0  0  0  0  0  0  0  0  0  0  0  0
   15.2977   13.5032    0.0000 C   0  0  0  0  0  0  0  0  0  0  0  0
   16.5621   14.3103    0.0000 C   0  0  0  0  0  0  0  0  0  0  0  0
   17.9227   14.9417    0.0000 C   0  0  0  0  0  0  0  0  0  0  0  0
   19.3554   15.3861    0.0000 C   0  0  0  0  0  0  0  0  0  0  0  0
   20.8345   15.6356    0.0000 C   0  0  0  0  0  0  0  0  0  0  0  0
   22.3336   15.6858    0.0000 C   0  0  0  0  0  0  0  0  0  0  0  0
   23.8261   15.5356    0.0000 C   0  0  0  0  0  0  0  0  0  0  0  0
   25.2852   15.1879    0.0000 C   0  0  0  0  0  0  0  0  0  0  0  0
   26.6850   14.6488    0.0000 C   0  0  0  0  0  0  0  0  0  0  0  0
   28.0004   13.9279    0.0000 C   0  0  0  0  0  0  0  0  0  0  0  0
   29.2080   13.0381    0.0000 C   0  0  0  0  0  0  0  0  0  0  0  0
   30.2863   11.9953    0.0000 C   0  0  0  0  0  0  0  0  0  0  0  0
   31.2159   10.8181    0.0000 C   0  0  0  0  0  0  0  0  0  0  0  0
   31.9803    9.5275    0.0000 C   0  0  0  0  0  0  0  0  0  0  0  0
   32.5659    8.1466    0.0000 C   0  0  0  0  0  0  0  0  0  0  0  0
   32.9622    6.6999    0.0000 C   0  0  0  0  0  0  0  0  0  0  0  0
   33.1621    5.2132    0.0000 C   0  0  0  0  0  0  0  0  0  0  0  0
   33.1621    3.7132    0.0000 C   0  0  0  0  0  0  0  0  0  0  0  0
   32.9622    2.2266    0.0000 C   0  0  0  0  0  0  0  0  0  0  0  0
   32.5659    0.7799    0.0000 C   0  0  0  0  0  0  0  0  0  0  0  0
   31.9803   -0.6011    0.0000 C   0  0  0  0  0  0  0  0  0  0  0  0
   31.2159   -1.8917    0.0000 C   0  0  0  0  0  0  0  0  0  0  0  0
   30.2863   -3.0689    0.0000 C   0  0  0  0  0  0  0  0  0  0  0  0
   29.2080   -4.1116    0.0000 C   0  0  0  0  0  0  0  0  0  0  0  0
   28.0004   -5.0014    0.0000 C   0  0  0  0  0  0  0  0  0  0  0  0
   26.6850   -5.7223    0.0000 C   0  0  0  0  0  0  0  0  0  0  0  0
   25.2852   -6.2614    0.0000 C   0  0  0  0  0  0  0  0  0  0  0  0
   23.8261   -6.6091    0.0000 C   0  0  0  0  0  0  0  0  0  0  0  0
   22.3336   -6.7593    0.0000 C   0  0  0  0  0  0  0  0  0  0  0  0
   20.8345   -6.7091    0.0000 C   0  0  0  0  0  0  0  0  0  0  0  0
   19.3554   -6.4597    0.0000 C   0  0  0  0  0  0  0  0  0  0  0  0
   17.9227   -6.0152    0.0000 C   0  0  0  0  0  0  0  0  0  0  0  0
   16.5621   -5.3838    0.0000 C   0  0  0  0  0  0  0  0  0  0  0  0
   15.2977   -4.5767    0.0000 C   0  0  0  0  0  0  0  0  0  0  0  0
   14.1522   -3.6083    0.0000 C   0  0  0  0  0  0  0  0  0  0  0  0
   13.1461   -2.4958    0.0000 C   0  0  0  0  0  0  0  0  0  0  0  0
   12.2971   -1.2591    0.0000 C   0  0  0  0  0  0  0  0  0  0  0  0
   11.6206    0.0796    0.0000 C   0  0  0  0  0  0  0  0  0  0  0  0
   11.1286    1.4967    0.0000 C   0  0  0  0  0  0  0  0  0  0  0  0
   10.5288   -0.0000    0.0000 C   0  0  0  0  0  0  0  0  0  0  0  0
   10.4348   -1.4033    0.0000 C   0  0  0  0  0  0  0  0  0  0  0  0
   10.1547   -2.7817    0.0000 C   0  0  0  0  0  0  0  0  0  0  0  0
    9.6933   -4.1103    0.0000 C   0  0  0  0  0  0  0  0  0  0  0  0
    9.0590   -5.3656    0.0000 C   0  0  0  0  0  0  0  0  0  0  0  0
    8.2630   -6.5252    0.0000 C   0  0  0  0  0  0  0  0  0  0  0  0
    7.3195   -7.5683    0.0000 C   0  0  0  0  0  0  0  0  0  0  0  0
    6.2455   -8.4764    0.0000 C   0  0  0  0  0  0  0  0  0  0  0  0
    5.0599   -9.2332    0.0000 C   0  0  0  0  0  0  0  0  0  0  0  0
    3.7841   -9.8253    0.0000 C   0  0  0  0  0  0  0  0  0  0  0  0
    2.4408  -10.2420    0.0000 C   0  0  0  0  0  0  0  0  0  0  0  0
    1.0539  -10.4759    0.0000 C   0  0  0  0  0  0  0  0  0  0  0  0
   -0.3518  -10.5229    0.0000 C   0  0  0  0  0  0  0  0  0  0  0  0
   -1.7512  -10.3821    0.0000 C   0  0  0  0  0  0  0  0  0  0  0  0
   -3.1194  -10.0561    0.0000 C   0  0  0  0  0  0  0  0  0  0  0  0
   -4.4319   -9.5506    0.0000 C   0  0  0  0  0  0  0  0  0  0  0  0
   -5.6654   -8.8746    0.0000 C   0  0  0  0  0  0  0  0  0  0  0  0
   -6.7977   -8.0403    0.0000 C   0  0  0  0  0  0  0  0  0  0  0  0
   -7.8087   -7.0625    0.0000 C   0  0  0  0  0  0  0  0  0  0  0  0
   -8.6804   -5.9587    0.0000 C   0  0  0  0  0  0  0  0  0  0  0  0
   -9.3971   -4.7486    0.0000 C   0  0  0  0  0  0  0  0  0  0  0  0
   -9.9462   -3.4537    0.0000 C   0  0  0  0  0  0  0  0  0  0  0  0
  -10.3178   -2.0972    0.0000 C   0  0  0  0  0  0  0  0  0  0  0  0
  -10.5053   -0.7032    0.0000 C   0  0  0  0  0  0  0  0  0  0  0  0
  -10.5053    0.7032    0.0000 C   0  0  0  0  0  0  0  0  0  0  0  0
  -10.3178    2.0972    0.0000 C   0  0  0  0  0  0  0  0  0  0  0  0
   -9.9462    3.4537    0.0000 C   0  0  0  0  0  0  0  0  0  0  0  0
   -9.3971    4.7486    0.0000 C   0  0  0  0  0  0  0  0  0  0  0  0
   -8.6804    5.9587    0.0000 C   0  0  0  0  0  0  0  0  0  0  0  0
   -7.8087    7.0625    0.0000 C   0  0  0  0  0  0  0  0  0  0  0  0
   -6.7977    8.0403    0.0000 C   0  0  0  0  0  0  0  0  0  0  0  0
   -5.6654    8.8746    0.0000 C   0  0  0  0  0  0  0  0  0  0  0  0
   -4.4319    9.5506    0.0000 C   0  0  0  0  0  0  0  0  0  0  0  0
   -3.1194   10.0561    0.0000 C   0  0  0  0  0  0  0  0  0  0  0  0
   -1.7512   10.3821    0.0000 C   0  0  0  0  0  0  0  0  0  0  0  0
   -0.3518   10.5229    0.0000 C   0  0  0  0  0  0  0  0  0  0  0  0
    1.0539   10.4759    0.0000 C   0  0  0  0  0  0  0  0  0  0  0  0
    2.4408   10.2420    0.0000 C   0  0  0  0  0  0  0  0  0  0  0  0
    3.7841    9.8253    0.0000 C   0  0  0  0  0  0  0  0  0  0  0  0
    5.0599    9.2332    0.0000 C   0  0  0  0  0  0  0  0  0  0  0  0
    6.2455    8.4764    0.0000 C   0  0  0  0  0  0  0  0  0  0  0  0
    7.3195    7.5683    0.0000 C   0  0  0  0  0  0  0  0  0  0  0  0
    8.2630    6.5252    0.0000 C   0  0  0  0  0  0  0  0  0  0  0  0
    9.0590    5.3656    0.0000 C   0  0  0  0  0  0  0  0  0  0  0  0
    9.6933    4.1103    0.0000 C   0  0  0  0  0  0  0  0  0  0  0  0
   10.8298    2.9666    0.0000 C   0  0  0  0  0  0  0  0  0  0  0  0
  1  2  1  0
  2  3  1  0
  3  4  1  0
  4  5  1  0
  5  6  1  0
  6  7  1  0
  7  8  1  0
  8  9  1  0
  9 10  1  0
 10 11  1  0
 11 12  1  0
 12 13  1  0
 13 14  1  0
 14 15  1  0
 15 16  1  0
 16 17  1  0
 17 18  1  0
 18 19  1  0
 19 20  1  0
 20 21  1  0
 21 22  1  0
 22 23  1  0
 23 24  1  0
 24 25  1  0
 25 26  1  0
 26 27  1  0
 27 28  1  0
 28 29  1  0
 29 30  1  0
 30 31  1  0
 31 32  1  0
 32 33  1  0
 33 34  1  0
 34 35  1  0
 35 36  1  0
 36 37  1  0
 37 38  1  0
 38 39  1  0
 39 40  1  0
 40 41  1  0
 41 42  1  0
 42 43  1  0
 43 44  1  0
 44 45  1  0
 45 46  1  0
 46 47  1  0
 47 48  1  0
 48 49  1  0
 49 50  1  0
 50 51  1  0
 51 52  1  0
 52 53  1  0
 53 54  1  0
 54 55  1  0
 55 56  1  0
 56 57  1  0
 57 58  1  0
 58 59  1  0
 59 60  1  0
 60 61  1  0
 61 62  1  0
 62 63  1  0
 63 64  1  0
 64 65  1  0
 65 66  1  0
 66 67  1  0
 67 68  1  0
 68 69  1  0
 69 70  1  0
 70 71  2  0
 71 72  1  0
 72 73  2  0
 73 74  1  0
 74 75  2  0
 75 76  1  0
 76 77  2  0
 77 78  1  0
 78 79  2  0
 79 80  1  0
 80 81  2  0
 81 82  1  0
 82 83  2  0
 83 84  1  0
 84 85  2  0
 85 86  1  0
 86 87  2  0
 87 88  1  0
 88 89  2  0
 89 90  1  0
 90 91  2  0
 91 92  1  0
 92 93  2  0
 93  2  1  0
 93 47  1  0
M  END
>  <Title>  (1016) 
idABLDgen13

$$$$

     RDKit          2D

 41 46  0  0  0  0  0  0  0  0999 V2000
   -2.3737   -6.1885    0.0000 C   0  0  0  0  0  0  0  0  0  0  0  0
   -1.4095   -5.0395    0.0000 C   0  0  0  0  0  0  0  0  0  0  0  0
   -0.0000   -5.5525    0.0000 C   0  0  0  0  0  0  0  0  0  0  0  0
    1.4095   -5.0395    0.0000 C   0  0  0  0  0  0  0  0  0  0  0  0
    2.1595   -3.7404    0.0000 C   0  0  0  0  0  0  0  0  0  0  0  0
    1.8991   -2.2632    0.0000 C   0  0  0  0  0  0  0  0  0  0  0  0
    3.1981   -1.5132    0.0000 C   0  0  0  0  0  0  0  0  0  0  0  0
    3.1981   -0.0132    0.0000 O   0  0  0  0  0  0  0  0  0  0  0  0
    4.4971   -2.2632    0.0000 N   0  0  0  0  0  0  0  0  0  0  0  0
    5.7962   -1.5132    0.0000 C   0  0  0  0  0  0  0  0  0  0  0  0
    5.9530   -0.0214    0.0000 N   0  0  0  0  0  0  0  0  0  0  0  0
    7.4202    0.2904    0.0000 N   0  0  0  0  0  0  0  0  0  0  0  0
    8.1702   -1.0086    0.0000 N   0  0  0  0  0  0  0  0  0  0  0  0
    7.1665   -2.1233    0.0000 N   0  0  0  0  0  0  0  0  0  0  0  0
    7.4784   -3.5905    0.0000 N   0  0  0  0  0  0  0  0  0  0  0  0
    8.8487   -4.2007    0.0000 C   0  0  0  0  0  0  0  0  0  0  0  0
    8.6919   -5.6924    0.0000 C   0  0  0  0  0  0  0  0  0  0  0  0
    7.2247   -6.0043    0.0000 N   0  0  0  0  0  0  0  0  0  0  0  0
    6.6146   -7.3746    0.0000 C   0  0  0  0  0  0  0  0  0  0  0  0
    7.4962   -8.5881    0.0000 O   0  0  0  0  0  0  0  0  0  0  0  0
    5.1228   -7.5314    0.0000 N   0  0  0  0  0  0  0  0  0  0  0  0
    4.5127   -8.9017    0.0000 C   0  0  0  0  0  0  0  0  0  0  0  0
    3.0209   -9.0585    0.0000 N   0  0  0  0  0  0  0  0  0  0  0  0
    2.4108  -10.4288    0.0000 N   0  0  0  0  0  0  0  0  0  0  0  0
    3.2925  -11.6424    0.0000 N   0  0  0  0  0  0  0  0  0  0  0  0
    4.7843  -11.4856    0.0000 N   0  0  0  0  0  0  0  0  0  0  0  0
    5.3944  -10.1153    0.0000 N   0  0  0  0  0  0  0  0  0  0  0  0
    6.4747   -4.7053    0.0000 C   0  0  0  0  0  0  0  0  0  0  0  0
    4.9829   -4.5485    0.0000 O   0  0  0  0  0  0  0  0  0  0  0  0
    0.7500   -1.2990    0.0000 C   0  0  0  0  0  0  0  0  0  0  0  0
    1.5000    0.0000    0.0000 C   0  0  0  0  0  0  0  0  0  0  0  0
    0.7500    1.2990    0.0000 C   0  0  0  0  0  0  0  0  0  0  0  0
   -0.7500    1.2990    0.0000 C   0  0  0  0  0  0  0  0  0  0  0  0
   -1.5000    0.0000    0.0000 C   0  0  0  0  0  0  0  0  0  0  0  0
   -0.7500   -1.2990    0.0000 C   0  0  0  0  0  0  0  0  0  0  0  0
   -1.8991   -2.2632    0.0000 C   0  0  0  0  0  0  0  0  0  0  0  0
   -3.0481   -1.2990    0.0000 C   0  0  0  0  0  0  0  0  0  0  0  0
   -4.4577   -1.8121    0.0000 C   0  0  0  0  0  0  0  0  0  0  0  0
   -4.7181   -3.2893    0.0000 C   0  0  0  0  0  0  0  0  0  0  0  0
   -3.5691   -4.2535    0.0000 C   0  0  0  0  0  0  0  0  0  0  0  0
   -2.1595   -3.7404    0.0000 C   0  0  0  0  0  0  0  0  0  0  0  0
  1  2  1  0
  2  3  1  0
  3  4  1  0
  4  5  1  0
  5  6  1  0
  6  7  1  0
  7  8  2  0
  7  9  1  0
  9 10  1  0
 10 11  2  0
 11 12  1  0
 12 13  2  0
 13 14  1  0
 14 15  1  0
 15 16  1  0
 16 17  1  0
 17 18  1  0
 18 19  1  0
 19 20  2  0
 19 21  1  0
 21 22  1  0
 22 23  2  0
 23 24  1  0
 24 25  2  0
 25 26  1  0
 26 27  2  0
 18 28  1  0
 28 29  2  0
  6 30  1  0
 30 31  2  0
 31 32  1  0
 32 33  2  0
 33 34  1  0
 34 35  2  0
 35 36  1  0
 36 37  2  0
 37 38  1  0
 38 39  2  0
 39 40  1  0
 40 41  2  0
 41  2  1  0
 14 10  1  0
 28 15  1  0
 35 30  1  0
 41 36  1  0
 27 22  1  0
M  END
>  <Title>  (1017) 
idABLEgen13

$$$$

     RDKit          2D

 49 55  0  0  0  0  0  0  0  0999 V2000
   -2.1535   -8.4451    0.0000 C   0  0  0  0  0  0  0  0  0  0  0  0
   -1.4564   -7.1169    0.0000 C   0  0  0  0  0  0  0  0  0  0  0  0
   -0.0000   -7.4758    0.0000 C   0  0  0  0  0  0  0  0  0  0  0  0
    1.4564   -7.1169    0.0000 C   0  0  0  0  0  0  0  0  0  0  0  0
    2.5792   -6.1222    0.0000 C   0  0  0  0  0  0  0  0  0  0  0  0
    3.1111   -4.7197    0.0000 C   0  0  0  0  0  0  0  0  0  0  0  0
    2.9303   -3.2306    0.0000 C   0  0  0  0  0  0  0  0  0  0  0  0
    2.0782   -1.9961    0.0000 C   0  0  0  0  0  0  0  0  0  0  0  0
    3.0729   -0.8734    0.0000 C   0  0  0  0  0  0  0  0  0  0  0  0
    2.5979    0.5494    0.0000 O   0  0  0  0  0  0  0  0  0  0  0  0
    4.5426   -1.1734    0.0000 N   0  0  0  0  0  0  0  0  0  0  0  0
    5.5372   -0.0506    0.0000 C   0  0  0  0  0  0  0  0  0  0  0  0
    5.2136    1.4140    0.0000 N   0  0  0  0  0  0  0  0  0  0  0  0
    6.5065    2.1745    0.0000 N   0  0  0  0  0  0  0  0  0  0  0  0
    7.6293    1.1798    0.0000 N   0  0  0  0  0  0  0  0  0  0  0  0
    7.0302   -0.1954    0.0000 N   0  0  0  0  0  0  0  0  0  0  0  0
    7.7907   -1.4884    0.0000 N   0  0  0  0  0  0  0  0  0  0  0  0
    9.2837   -1.6331    0.0000 C   0  0  0  0  0  0  0  0  0  0  0  0
    9.6073   -3.0978    0.0000 C   0  0  0  0  0  0  0  0  0  0  0  0
    8.3144   -3.8582    0.0000 N   0  0  0  0  0  0  0  0  0  0  0  0
    8.1696   -5.3512    0.0000 C   0  0  0  0  0  0  0  0  0  0  0  0
    9.3902   -6.2231    0.0000 O   0  0  0  0  0  0  0  0  0  0  0  0
    6.8043   -5.9723    0.0000 N   0  0  0  0  0  0  0  0  0  0  0  0
    6.6595   -7.4653    0.0000 C   0  0  0  0  0  0  0  0  0  0  0  0
    5.2941   -8.0865    0.0000 N   0  0  0  0  0  0  0  0  0  0  0  0
    5.1494   -9.5795    0.0000 N   0  0  0  0  0  0  0  0  0  0  0  0
    6.3700  -10.4513    0.0000 N   0  0  0  0  0  0  0  0  0  0  0  0
    7.7353   -9.8302    0.0000 N   0  0  0  0  0  0  0  0  0  0  0  0
    7.8801   -8.3372    0.0000 N   0  0  0  0  0  0  0  0  0  0  0  0
    7.1916   -2.8635    0.0000 C   0  0  0  0  0  0  0  0  0  0  0  0
    5.7270   -3.1872    0.0000 O   0  0  0  0  0  0  0  0  0  0  0  0
    0.7500   -1.2990    0.0000 C   0  0  0  0  0  0  0  0  0  0  0  0
    1.5000    0.0000    0.0000 C   0  0  0  0  0  0  0  0  0  0  0  0
    0.7500    1.2990    0.0000 C   0  0  0  0  0  0  0  0  0  0  0  0
   -0.7500    1.2990    0.0000 C   0  0  0  0  0  0  0  0  0  0  0  0
   -1.5000    0.0000    0.0000 C   0  0  0  0  0  0  0  0  0  0  0  0
   -0.7500   -1.2990    0.0000 C   0  0  0  0  0  0  0  0  0  0  0  0
   -2.0782   -1.9961    0.0000 C   0  0  0  0  0  0  0  0  0  0  0  0
   -2.7212   -0.6409    0.0000 C   0  0  0  0  0  0  0  0  0  0  0  0
   -4.2164   -0.5202    0.0000 C   0  0  0  0  0  0  0  0  0  0  0  0
   -5.0685   -1.7547    0.0000 C   0  0  0  0  0  0  0  0  0  0  0  0
   -4.4254   -3.1099    0.0000 C   0  0  0  0  0  0  0  0  0  0  0  0
   -2.9303   -3.2306    0.0000 C   0  0  0  0  0  0  0  0  0  0  0  0
   -3.1111   -4.7197    0.0000 C   0  0  0  0  0  0  0  0  0  0  0  0
   -4.5917   -4.4790    0.0000 C   0  0  0  0  0  0  0  0  0  0  0  0
   -5.5403   -5.6410    0.0000 C   0  0  0  0  0  0  0  0  0  0  0  0
   -5.0084   -7.0435    0.0000 C   0  0  0  0  0  0  0  0  0  0  0  0
   -3.5278   -7.2841    0.0000 C   0  0  0  0  0  0  0  0  0  0  0  0
   -2.5792   -6.1222    0.0000 C   0  0  0  0  0  0  0  0  0  0  0  0
  1  2  1  0
  2  3  1  0
  3  4  1  0
  4  5  1  0
  5  6  1  0
  6  7  1  0
  7  8  1  0
  8  9  1  0
  9 10  2  0
  9 11  1  0
 11 12  1  0
 12 13  2  0
 13 14  1  0
 14 15  2  0
 15 16  1  0
 16 17  1  0
 17 18  1  0
 18 19  1  0
 19 20  1  0
 20 21  1  0
 21 22  2  0
 21 23  1  0
 23 24  1  0
 24 25  2  0
 25 26  1  0
 26 27  2  0
 27 28  1  0
 28 29  2  0
 20 30  1  0
 30 31  2  0
  8 32  1  0
 32 33  2  0
 33 34  1  0
 34 35  2  0
 35 36  1  0
 36 37  2  0
 37 38  1  0
 38 39  2  0
 39 40  1  0
 40 41  2  0
 41 42  1  0
 42 43  2  0
 43 44  1  0
 44 45  2  0
 45 46  1  0
 46 47  2  0
 47 48  1  0
 48 49  2  0
 49  2  1  0
 16 12  1  0
 30 17  1  0
 37 32  1  0
 43 38  1  0
 49 44  1  0
 29 24  1  0
M  END
>  <Title>  (1018) 
idABLFgen13

$$$$

     RDKit          2D

  8  8  0  0  0  0  0  0  0  0999 V2000
    4.5000    0.0000    0.0000 N   0  0  0  0  0  0  0  0  0  0  0  0
    3.0000    0.0000    0.0000 C   0  0  0  0  0  0  0  0  0  0  0  0
    1.5000    0.0000    0.0000 C   0  0  0  0  0  0  0  0  0  0  0  0
    0.7500   -1.2990    0.0000 C   0  0  0  0  0  0  0  0  0  0  0  0
   -0.7500   -1.2990    0.0000 C   0  0  0  0  0  0  0  0  0  0  0  0
   -1.5000    0.0000    0.0000 C   0  0  0  0  0  0  0  0  0  0  0  0
   -0.7500    1.2990    0.0000 C   0  0  0  0  0  0  0  0  0  0  0  0
    0.7500    1.2990    0.0000 C   0  0  0  0  0  0  0  0  0  0  0  0
  1  2  3  0
  2  3  1  0
  3  4  2  0
  4  5  1  0
  5  6  2  0
  6  7  1  0
  7  8  2  0
  8  3  1  0
M  END
>  <Title>  (1019) 
idABLGgen13

$$$$

     RDKit          2D

 10 11  0  0  0  0  0  0  0  0999 V2000
   -3.5736    1.2902    0.0000 O   0  0  0  0  0  0  0  0  0  0  0  0
   -2.1470    1.7537    0.0000 C   0  0  0  0  0  0  0  0  0  0  0  0
   -1.8351    3.2209    0.0000 C   0  0  0  0  0  0  0  0  0  0  0  0
   -0.4086    3.6844    0.0000 C   0  0  0  0  0  0  0  0  0  0  0  0
    0.7062    2.6807    0.0000 C   0  0  0  0  0  0  0  0  0  0  0  0
    0.3943    1.2135    0.0000 C   0  0  0  0  0  0  0  0  0  0  0  0
    1.2760    0.0000    0.0000 N   0  0  0  0  0  0  0  0  0  0  0  0
    0.3943   -1.2135    0.0000 N   0  0  0  0  0  0  0  0  0  0  0  0
   -1.0323   -0.7500    0.0000 N   0  0  0  0  0  0  0  0  0  0  0  0
   -1.0323    0.7500    0.0000 N   0  0  0  0  0  0  0  0  0  0  0  0
  1  2  2  0
  2  3  1  0
  3  4  1  0
  4  5  1  0
  5  6  1  0
  6  7  2  0
  7  8  1  0
  8  9  2  0
  9 10  1  0
 10  2  1  0
 10  6  1  0
M  END
>  <Title>  (1020) 
idABLHgen13

$$$$

     RDKit          2D

 12 13  0  0  0  0  0  0  0  0999 V2000
   -1.2990   -5.8573    0.0000 C   0  0  0  0  0  0  0  0  0  0  0  0
   -0.0000   -5.1073    0.0000 C   0  0  0  0  0  0  0  0  0  0  0  0
    1.2990   -5.8573    0.0000 O   0  0  0  0  0  0  0  0  0  0  0  0
   -0.0000   -3.6073    0.0000 N   0  0  0  0  0  0  0  0  0  0  0  0
    1.2135   -2.7256    0.0000 C   0  0  0  0  0  0  0  0  0  0  0  0
    0.7500   -1.2990    0.0000 C   0  0  0  0  0  0  0  0  0  0  0  0
    1.5000    0.0000    0.0000 C   0  0  0  0  0  0  0  0  0  0  0  0
    0.7500    1.2990    0.0000 C   0  0  0  0  0  0  0  0  0  0  0  0
   -0.7500    1.2990    0.0000 C   0  0  0  0  0  0  0  0  0  0  0  0
   -1.5000    0.0000    0.0000 C   0  0  0  0  0  0  0  0  0  0  0  0
   -0.7500   -1.2990    0.0000 C   0  0  0  0  0  0  0  0  0  0  0  0
   -1.2135   -2.7256    0.0000 C   0  0  0  0  0  0  0  0  0  0  0  0
  1  2  1  0
  2  3  2  0
  2  4  1  0
  4  5  1  0
  5  6  1  0
  6  7  2  0
  7  8  1  0
  8  9  2  0
  9 10  1  0
 10 11  2  0
 11 12  1  0
 12  4  1  0
 11  6  1  0
M  END
>  <Title>  (1021) 
idABLIgen13

$$$$

     RDKit          2D

 31 35  0  0  0  0  0  0  0  0999 V2000
   -3.0000   -2.5981    0.0000 C   0  0  0  0  0  0  0  0  0  0  0  0
   -1.5000   -2.5981    0.0000 C   0  0  0  0  0  0  0  0  0  0  0  0
   -0.7500   -3.8971    0.0000 C   0  0  0  0  0  0  0  0  0  0  0  0
    0.7500   -3.8971    0.0000 C   0  0  0  0  0  0  0  0  0  0  0  0
    1.5000   -2.5981    0.0000 C   0  0  0  0  0  0  0  0  0  0  0  0
    3.0000   -2.5981    0.0000 N   0  0  0  0  0  0  0  0  0  0  0  0
    3.8817   -1.3846    0.0000 C   0  0  0  0  0  0  0  0  0  0  0  0
    5.3083   -1.8481    0.0000 C   0  0  0  0  0  0  0  0  0  0  0  0
    5.3083   -3.3481    0.0000 N   0  0  0  0  0  0  0  0  0  0  0  0
    3.8817   -3.8116    0.0000 N   0  0  0  0  0  0  0  0  0  0  0  0
    3.4182   -5.2382    0.0000 N   0  0  0  0  0  0  0  0  0  0  0  0
    4.2998   -6.4517    0.0000 C   0  0  0  0  0  0  0  0  0  0  0  0
    3.4182   -7.6652    0.0000 C   0  0  0  0  0  0  0  0  0  0  0  0
    1.9916   -7.2017    0.0000 N   0  0  0  0  0  0  0  0  0  0  0  0
    0.7780   -8.0834    0.0000 C   0  0  0  0  0  0  0  0  0  0  0  0
    0.9348   -9.5752    0.0000 O   0  0  0  0  0  0  0  0  0  0  0  0
   -0.5923   -7.4733    0.0000 N   0  0  0  0  0  0  0  0  0  0  0  0
   -1.8058   -8.3550    0.0000 C   0  0  0  0  0  0  0  0  0  0  0  0
   -3.1761   -7.7449    0.0000 N   0  0  0  0  0  0  0  0  0  0  0  0
   -4.3896   -8.6265    0.0000 N   0  0  0  0  0  0  0  0  0  0  0  0
   -4.2329  -10.1183    0.0000 N   0  0  0  0  0  0  0  0  0  0  0  0
   -2.8625  -10.7284    0.0000 N   0  0  0  0  0  0  0  0  0  0  0  0
   -1.6490   -9.8467    0.0000 N   0  0  0  0  0  0  0  0  0  0  0  0
    1.9916   -5.7017    0.0000 C   0  0  0  0  0  0  0  0  0  0  0  0
    0.7780   -4.8200    0.0000 O   0  0  0  0  0  0  0  0  0  0  0  0
    0.7500   -1.2990    0.0000 C   0  0  0  0  0  0  0  0  0  0  0  0
    1.5000    0.0000    0.0000 C   0  0  0  0  0  0  0  0  0  0  0  0
    0.7500    1.2990    0.0000 C   0  0  0  0  0  0  0  0  0  0  0  0
   -0.7500    1.2990    0.0000 C   0  0  0  0  0  0  0  0  0  0  0  0
   -1.5000    0.0000    0.0000 C   0  0  0  0  0  0  0  0  0  0  0  0
   -0.7500   -1.2990    0.0000 C   0  0  0  0  0  0  0  0  0  0  0  0
  1  2  1  0
  2  3  2  0
  3  4  1  0
  4  5  2  0
  5  6  1  0
  6  7  1  0
  7  8  1  0
  8  9  2  0
  9 10  1  0
 10 11  1  0
 11 12  1  0
 12 13  1  0
 13 14  1  0
 14 15  1  0
 15 16  2  0
 15 17  1  0
 17 18  1  0
 18 19  2  0
 19 20  1  0
 20 21  2  0
 21 22  1  0
 22 23  2  0
 14 24  1  0
 24 25  2  0
  5 26  1  0
 26 27  2  0
 27 28  1  0
 28 29  2  0
 29 30  1  0
 30 31  2  0
 31  2  1  0
 10  6  1  0
 24 11  1  0
 31 26  1  0
 23 18  1  0
M  END
>  <Title>  (1022) 
idABLJgen13

$$$$

     RDKit          2D

 95 97  0  0  0  0  0  0  0  0999 V2000
    4.0943   -0.0000    0.0000 C   0  0  0  0  0  0  0  0  0  0  0  0
    3.8939   -1.2652    0.0000 C   0  0  0  0  0  0  0  0  0  0  0  0
    3.3124   -2.4066    0.0000 C   0  0  0  0  0  0  0  0  0  0  0  0
    2.8180   -3.8787    0.0000 C   0  0  0  0  0  0  0  0  0  0  0  0
    4.2081   -3.3151    0.0000 C   0  0  0  0  0  0  0  0  0  0  0  0
    3.8742   -4.7775    0.0000 C   0  0  0  0  0  0  0  0  0  0  0  0
    4.9737   -5.7979    0.0000 C   0  0  0  0  0  0  0  0  0  0  0  0
    6.4071   -5.3559    0.0000 C   0  0  0  0  0  0  0  0  0  0  0  0
    6.7410   -3.8935    0.0000 C   0  0  0  0  0  0  0  0  0  0  0  0
    5.6415   -2.8731    0.0000 C   0  0  0  0  0  0  0  0  0  0  0  0
    7.1076   -2.5560    0.0000 C   0  0  0  0  0  0  0  0  0  0  0  0
    8.5956   -2.3661    0.0000 C   0  0  0  0  0  0  0  0  0  0  0  0
   10.0943   -2.3048    0.0000 C   0  0  0  0  0  0  0  0  0  0  0  0
   11.5928   -2.3725    0.0000 C   0  0  0  0  0  0  0  0  0  0  0  0
   13.0799   -2.5689    0.0000 C   0  0  0  0  0  0  0  0  0  0  0  0
   14.5446   -2.8923    0.0000 C   0  0  0  0  0  0  0  0  0  0  0  0
   15.9761   -3.3405    0.0000 C   0  0  0  0  0  0  0  0  0  0  0  0
   17.3638   -3.9100    0.0000 C   0  0  0  0  0  0  0  0  0  0  0  0
   18.6973   -4.5967    0.0000 C   0  0  0  0  0  0  0  0  0  0  0  0
   19.9669   -5.3956    0.0000 C   0  0  0  0  0  0  0  0  0  0  0  0
   21.1631   -6.3006    0.0000 C   0  0  0  0  0  0  0  0  0  0  0  0
   22.2771   -7.3051    0.0000 C   0  0  0  0  0  0  0  0  0  0  0  0
   23.3007   -8.4016    0.0000 C   0  0  0  0  0  0  0  0  0  0  0  0
   24.2261   -9.5821    0.0000 C   0  0  0  0  0  0  0  0  0  0  0  0
   25.0467  -10.8377    0.0000 C   0  0  0  0  0  0  0  0  0  0  0  0
   25.7563  -12.1593    0.0000 C   0  0  0  0  0  0  0  0  0  0  0  0
   26.3496  -13.5369    0.0000 C   0  0  0  0  0  0  0  0  0  0  0  0
   26.8224  -14.9605    0.0000 C   0  0  0  0  0  0  0  0  0  0  0  0
   27.1710  -16.4194    0.0000 C   0  0  0  0  0  0  0  0  0  0  0  0
   27.3928  -17.9029    0.0000 C   0  0  0  0  0  0  0  0  0  0  0  0
   27.4864  -19.4000    0.0000 C   0  0  0  0  0  0  0  0  0  0  0  0
   27.4509  -20.8996    0.0000 C   0  0  0  0  0  0  0  0  0  0  0  0
   27.2866  -22.3906    0.0000 C   0  0  0  0  0  0  0  0  0  0  0  0
   26.9948  -23.8619    0.0000 C   0  0  0  0  0  0  0  0  0  0  0  0
   26.5775  -25.3027    0.0000 C   0  0  0  0  0  0  0  0  0  0  0  0
   26.0380  -26.7023    0.0000 C   0  0  0  0  0  0  0  0  0  0  0  0
   25.3801  -28.0503    0.0000 C   0  0  0  0  0  0  0  0  0  0  0  0
   24.6087  -29.3368    0.0000 C   0  0  0  0  0  0  0  0  0  0  0  0
   23.7297  -30.5522    0.0000 C   0  0  0  0  0  0  0  0  0  0  0  0
   22.7494  -31.6876    0.0000 C   0  0  0  0  0  0  0  0  0  0  0  0
   21.6751  -32.7345    0.0000 C   0  0  0  0  0  0  0  0  0  0  0  0
   20.5148  -33.6851    0.0000 C   0  0  0  0  0  0  0  0  0  0  0  0
   19.2771  -34.5325    0.0000 C   0  0  0  0  0  0  0  0  0  0  0  0
   17.9712  -35.2704    0.0000 C   0  0  0  0  0  0  0  0  0  0  0  0
   16.6066  -35.8932    0.0000 C   0  0  0  0  0  0  0  0  0  0  0  0
   15.1935  -36.3965    0.0000 C   0  0  0  0  0  0  0  0  0  0  0  0
   13.7424  -36.7764    0.0000 C   0  0  0  0  0  0  0  0  0  0  0  0
   12.2640  -37.0301    0.0000 C   0  0  0  0  0  0  0  0  0  0  0  0
   10.7693  -37.1559    0.0000 C   0  0  0  0  0  0  0  0  0  0  0  0
    9.2693  -37.1526    0.0000 C   0  0  0  0  0  0  0  0  0  0  0  0
    7.7752  -37.0205    0.0000 C   0  0  0  0  0  0  0  0  0  0  0  0
    6.2979  -36.7604    0.0000 C   0  0  0  0  0  0  0  0  0  0  0  0
    4.8484  -36.3742    0.0000 C   0  0  0  0  0  0  0  0  0  0  0  0
    3.4376  -35.8649    0.0000 C   0  0  0  0  0  0  0  0  0  0  0  0
    2.0757  -35.2362    0.0000 C   0  0  0  0  0  0  0  0  0  0  0  0
    0.7729  -34.4927    0.0000 C   0  0  0  0  0  0  0  0  0  0  0  0
   -0.4612  -33.6400    0.0000 C   0  0  0  0  0  0  0  0  0  0  0  0
   -1.6173  -32.6844    0.0000 C   0  0  0  0  0  0  0  0  0  0  0  0
   -2.6871  -31.6329    0.0000 C   0  0  0  0  0  0  0  0  0  0  0  0
   -3.6625  -30.4933    0.0000 C   0  0  0  0  0  0  0  0  0  0  0  0
   -4.5363  -29.2741    0.0000 C   0  0  0  0  0  0  0  0  0  0  0  0
   -5.3021  -27.9843    0.0000 C   0  0  0  0  0  0  0  0  0  0  0  0
   -5.9542  -26.6335    0.0000 C   0  0  0  0  0  0  0  0  0  0  0  0
   -6.4877  -25.2316    0.0000 C   0  0  0  0  0  0  0  0  0  0  0  0
   -6.8987  -23.7890    0.0000 C   0  0  0  0  0  0  0  0  0  0  0  0
   -7.1842  -22.3164    0.0000 C   0  0  0  0  0  0  0  0  0  0  0  0
   -7.3421  -20.8247    0.0000 C   0  0  0  0  0  0  0  0  0  0  0  0
   -7.3712  -19.3250    0.0000 C   0  0  0  0  0  0  0  0  0  0  0  0
   -7.2712  -17.8283    0.0000 C   0  0  0  0  0  0  0  0  0  0  0  0
   -7.0429  -16.3458    0.0000 C   0  0  0  0  0  0  0  0  0  0  0  0
   -6.6880  -14.8884    0.0000 C   0  0  0  0  0  0  0  0  0  0  0  0
   -6.2092  -13.4669    0.0000 C   0  0  0  0  0  0  0  0  0  0  0  0
   -5.6099  -12.0918    0.0000 C   0  0  0  0  0  0  0  0  0  0  0  0
   -4.8946  -10.7733    0.0000 C   0  0  0  0  0  0  0  0  0  0  0  0
   -4.0687   -9.5212    0.0000 C   0  0  0  0  0  0  0  0  0  0  0  0
   -3.1381   -8.3447    0.0000 C   0  0  0  0  0  0  0  0  0  0  0  0
   -2.1099   -7.2526    0.0000 C   0  0  0  0  0  0  0  0  0  0  0  0
   -0.9916   -6.2529    0.0000 C   0  0  0  0  0  0  0  0  0  0  0  0
    0.2085   -5.3530    0.0000 C   0  0  0  0  0  0  0  0  0  0  0  0
    1.4815   -4.5597    0.0000 C   0  0  0  0  0  0  0  0  0  0  0  0
   -0.0000   -4.0943    0.0000 C   0  0  0  0  0  0  0  0  0  0  0  0
   -1.2652   -3.8939    0.0000 C   0  0  0  0  0  0  0  0  0  0  0  0
   -2.4066   -3.3124    0.0000 C   0  0  0  0  0  0  0  0  0  0  0  0
   -3.3124   -2.4066    0.0000 C   0  0  0  0  0  0  0  0  0  0  0  0
   -3.8939   -1.2652    0.0000 C   0  0  0  0  0  0  0  0  0  0  0  0
   -4.0943    0.0000    0.0000 C   0  0  0  0  0  0  0  0  0  0  0  0
   -3.8939    1.2652    0.0000 C   0  0  0  0  0  0  0  0  0  0  0  0
   -3.3124    2.4066    0.0000 C   0  0  0  0  0  0  0  0  0  0  0  0
   -2.4066    3.3124    0.0000 C   0  0  0  0  0  0  0  0  0  0  0  0
   -1.2652    3.8939    0.0000 C   0  0  0  0  0  0  0  0  0  0  0  0
    0.0000    4.0943    0.0000 C   0  0  0  0  0  0  0  0  0  0  0  0
    1.2652    3.8939    0.0000 C   0  0  0  0  0  0  0  0  0  0  0  0
    2.4066    3.3124    0.0000 C   0  0  0  0  0  0  0  0  0  0  0  0
    3.3124    2.4066    0.0000 C   0  0  0  0  0  0  0  0  0  0  0  0
    3.8939    1.2652    0.0000 C   0  0  0  0  0  0  0  0  0  0  0  0
  1  2  2  0
  2  3  1  0
  3  4  2  0
  4  5  1  0
  5  6  2  0
  6  7  1  0
  7  8  2  0
  8  9  1  0
  9 10  2  0
 10 11  1  0
 11 12  1  0
 12 13  1  0
 13 14  1  0
 14 15  1  0
 15 16  1  0
 16 17  1  0
 17 18  1  0
 18 19  1  0
 19 20  1  0
 20 21  1  0
 21 22  1  0
 22 23  1  0
 23 24  1  0
 24 25  1  0
 25 26  1  0
 26 27  1  0
 27 28  1  0
 28 29  1  0
 29 30  1  0
 30 31  1  0
 31 32  1  0
 32 33  1  0
 33 34  1  0
 34 35  1  0
 35 36  1  0
 36 37  1  0
 37 38  1  0
 38 39  1  0
 39 40  1  0
 40 41  1  0
 41 42  1  0
 42 43  1  0
 43 44  1  0
 44 45  1  0
 45 46  1  0
 46 47  1  0
 47 48  1  0
 48 49  1  0
 49 50  1  0
 50 51  1  0
 51 52  1  0
 52 53  1  0
 53 54  1  0
 54 55  1  0
 55 56  1  0
 56 57  1  0
 57 58  1  0
 58 59  1  0
 59 60  1  0
 60 61  1  0
 61 62  1  0
 62 63  1  0
 63 64  1  0
 64 65  1  0
 65 66  1  0
 66 67  1  0
 67 68  1  0
 68 69  1  0
 69 70  1  0
 70 71  1  0
 71 72  1  0
 72 73  1  0
 73 74  1  0
 74 75  1  0
 75 76  1  0
 76 77  1  0
 77 78  1  0
 78 79  1  0
 79 80  1  0
 80 81  1  0
 81 82  1  0
 82 83  1  0
 83 84  1  0
 84 85  1  0
 85 86  1  0
 86 87  1  0
 87 88  1  0
 88 89  1  0
 89 90  1  0
 90 91  1  0
 91 92  1  0
 92 93  1  0
 93 94  1  0
 94 95  2  0
 95  1  1  0
 80  4  1  0
 10  5  1  0
M  END
>  <Title>  (1023) 
idABLKgen13

$$$$

     RDKit          2D

 10 10  0  0  0  0  0  0  0  0999 V2000
    7.2760   -0.0000    0.0000 C   0  0  0  0  0  0  0  0  0  0  0  0
    5.7760   -0.0000    0.0000 C   0  0  0  0  0  0  0  0  0  0  0  0
    4.2760   -0.0000    0.0000 C   0  0  0  0  0  0  0  0  0  0  0  0
    2.7760    0.0000    0.0000 C   0  0  0  0  0  0  0  0  0  0  0  0
    1.2760    0.0000    0.0000 C   0  0  0  0  0  0  0  0  0  0  0  0
    0.3943    1.2135    0.0000 C   0  0  0  0  0  0  0  0  0  0  0  0
    0.8578    2.6401    0.0000 C   0  0  0  0  0  0  0  0  0  0  0  0
   -1.0323    0.7500    0.0000 C   0  0  0  0  0  0  0  0  0  0  0  0
   -1.0323   -0.7500    0.0000 C   0  0  0  0  0  0  0  0  0  0  0  0
    0.3943   -1.2135    0.0000 O   0  0  0  0  0  0  0  0  0  0  0  0
  1  2  3  0
  2  3  1  0
  3  4  3  0
  4  5  1  0
  5  6  2  0
  6  7  1  0
  6  8  1  0
  8  9  2  0
  9 10  1  0
 10  5  1  0
M  END
>  <Title>  (1024) 
idABLLgen13

$$$$

     RDKit          2D

 31 34  0  0  0  0  0  0  0  0999 V2000
    3.0000    0.0000    0.0000 C   0  0  0  0  0  0  0  0  0  0  0  0
    1.5000    0.0000    0.0000 C   0  0  0  0  0  0  0  0  0  0  0  0
    0.7500   -1.2990    0.0000 C   0  0  0  0  0  0  0  0  0  0  0  0
   -0.7500   -1.2990    0.0000 C   0  0  0  0  0  0  0  0  0  0  0  0
   -1.5000    0.0000    0.0000 C   0  0  0  0  0  0  0  0  0  0  0  0
   -3.0000    0.0000    0.0000 C   0  0  0  0  0  0  0  0  0  0  0  0
   -3.7500   -1.2990    0.0000 O   0  0  0  0  0  0  0  0  0  0  0  0
   -3.7500    1.2990    0.0000 N   0  0  0  0  0  0  0  0  0  0  0  0
   -5.2500    1.2990    0.0000 C   0  0  0  0  0  0  0  0  0  0  0  0
   -6.1317    0.0855    0.0000 N   0  0  0  0  0  0  0  0  0  0  0  0
   -7.5583    0.5490    0.0000 N   0  0  0  0  0  0  0  0  0  0  0  0
   -7.5583    2.0490    0.0000 N   0  0  0  0  0  0  0  0  0  0  0  0
   -6.1317    2.5126    0.0000 N   0  0  0  0  0  0  0  0  0  0  0  0
   -5.6682    3.9391    0.0000 N   0  0  0  0  0  0  0  0  0  0  0  0
   -6.5498    5.1527    0.0000 C   0  0  0  0  0  0  0  0  0  0  0  0
   -5.6682    6.3662    0.0000 C   0  0  0  0  0  0  0  0  0  0  0  0
   -4.2416    5.9027    0.0000 N   0  0  0  0  0  0  0  0  0  0  0  0
   -3.0280    6.7844    0.0000 C   0  0  0  0  0  0  0  0  0  0  0  0
   -3.1848    8.2761    0.0000 O   0  0  0  0  0  0  0  0  0  0  0  0
   -1.6577    6.1742    0.0000 N   0  0  0  0  0  0  0  0  0  0  0  0
   -0.4442    7.0559    0.0000 C   0  0  0  0  0  0  0  0  0  0  0  0
    0.9261    6.4458    0.0000 N   0  0  0  0  0  0  0  0  0  0  0  0
    2.1396    7.3275    0.0000 N   0  0  0  0  0  0  0  0  0  0  0  0
    1.9829    8.8193    0.0000 N   0  0  0  0  0  0  0  0  0  0  0  0
    0.6125    9.4294    0.0000 N   0  0  0  0  0  0  0  0  0  0  0  0
   -0.6010    8.5477    0.0000 N   0  0  0  0  0  0  0  0  0  0  0  0
   -4.2416    4.4027    0.0000 C   0  0  0  0  0  0  0  0  0  0  0  0
   -3.0280    3.5210    0.0000 O   0  0  0  0  0  0  0  0  0  0  0  0
   -0.7500    1.2990    0.0000 C   0  0  0  0  0  0  0  0  0  0  0  0
   -1.5000    2.5981    0.0000 O   0  0  0  0  0  0  0  0  0  0  0  0
    0.7500    1.2990    0.0000 N   0  0  0  0  0  0  0  0  0  0  0  0
  1  2  1  0
  2  3  1  0
  3  4  2  0
  4  5  1  0
  5  6  1  0
  6  7  2  0
  6  8  1  0
  8  9  1  0
  9 10  2  0
 10 11  1  0
 11 12  2  0
 12 13  1  0
 13 14  1  0
 14 15  1  0
 15 16  1  0
 16 17  1  0
 17 18  1  0
 18 19  2  0
 18 20  1  0
 20 21  1  0
 21 22  2  0
 22 23  1  0
 23 24  2  0
 24 25  1  0
 25 26  2  0
 17 27  1  0
 27 28  2  0
  5 29  1  0
 29 30  2  0
 29 31  1  0
 31  2  1  0
 13  9  1  0
 27 14  1  0
 26 21  1  0
M  END
>  <Title>  (1025) 
idABLMgen13

$$$$

     RDKit          2D

  7  6  0  0  0  0  0  0  0  0999 V2000
    0.0000    0.0000    0.0000 C   0  0  0  0  0  0  0  0  0  0  0  0
    1.2990    0.7500    0.0000 C   0  0  0  0  0  0  0  0  0  0  0  0
    2.5981   -0.0000    0.0000 C   0  0  0  0  0  0  0  0  0  0  0  0
    3.8971    0.7500    0.0000 C   0  0  0  0  0  0  0  0  0  0  0  0
    5.1962   -0.0000    0.0000 C   0  0  0  0  0  0  0  0  0  0  0  0
    6.4952    0.7500    0.0000 C   0  0  0  0  0  0  0  0  0  0  0  0
    5.1962   -1.5000    0.0000 C   0  0  0  0  0  0  0  0  0  0  0  0
  1  2  2  0
  2  3  1  0
  3  4  1  0
  4  5  1  0
  5  6  1  0
  5  7  1  0
M  END
>  <Title>  (1026) 
idABLNgen13

$$$$

     RDKit          2D

 11 12  0  0  0  0  0  0  0  0999 V2000
   -3.2595   -3.4715    0.0000 C   0  0  0  0  0  0  0  0  0  0  0  0
   -1.8107   -3.8597    0.0000 C   0  0  0  0  0  0  0  0  0  0  0  0
   -1.4224   -5.3086    0.0000 O   0  0  0  0  0  0  0  0  0  0  0  0
   -0.7500   -2.7990    0.0000 N   0  0  0  0  0  0  0  0  0  0  0  0
    0.7500   -2.7990    0.0000 C   0  0  0  0  0  0  0  0  0  0  0  0
    0.7500   -1.2990    0.0000 C   0  0  0  0  0  0  0  0  0  0  0  0
    1.5000    0.0000    0.0000 C   0  0  0  0  0  0  0  0  0  0  0  0
    0.7500    1.2990    0.0000 C   0  0  0  0  0  0  0  0  0  0  0  0
   -0.7500    1.2990    0.0000 C   0  0  0  0  0  0  0  0  0  0  0  0
   -1.5000    0.0000    0.0000 C   0  0  0  0  0  0  0  0  0  0  0  0
   -0.7500   -1.2990    0.0000 C   0  0  0  0  0  0  0  0  0  0  0  0
  1  2  1  0
  2  3  2  0
  2  4  1  0
  4  5  1  0
  5  6  1  0
  6  7  1  0
  7  8  2  0
  8  9  1  0
  9 10  1  0
 10 11  1  0
 11  4  1  0
 11  6  1  0
M  END
>  <Title>  (1027) 
idABLOgen13

$$$$

     RDKit          2D

 38 42  0  0  0  0  0  0  0  0999 V2000
   -3.1981   -1.5132    0.0000 C   0  0  0  0  0  0  0  0  0  0  0  0
   -1.8991   -2.2632    0.0000 C   0  0  0  0  0  0  0  0  0  0  0  0
   -2.1595   -3.7404    0.0000 C   0  0  0  0  0  0  0  0  0  0  0  0
   -1.4095   -5.0395    0.0000 C   0  0  0  0  0  0  0  0  0  0  0  0
   -0.0000   -5.5525    0.0000 C   0  0  0  0  0  0  0  0  0  0  0  0
    1.4095   -5.0395    0.0000 C   0  0  0  0  0  0  0  0  0  0  0  0
    2.3737   -6.1885    0.0000 C   0  0  0  0  0  0  0  0  0  0  0  0
    3.8509   -5.9281    0.0000 O   0  0  0  0  0  0  0  0  0  0  0  0
    1.8607   -7.5981    0.0000 N   0  0  0  0  0  0  0  0  0  0  0  0
    2.8249   -8.7471    0.0000 C   0  0  0  0  0  0  0  0  0  0  0  0
    4.3212   -8.6425    0.0000 N   0  0  0  0  0  0  0  0  0  0  0  0
    4.8831  -10.0333    0.0000 N   0  0  0  0  0  0  0  0  0  0  0  0
    3.7341  -10.9975    0.0000 N   0  0  0  0  0  0  0  0  0  0  0  0
    2.4620  -10.2026    0.0000 N   0  0  0  0  0  0  0  0  0  0  0  0
    1.0712  -10.7645    0.0000 C   0  0  0  0  0  0  0  0  0  0  0  0
    0.7083  -12.2199    0.0000 C   0  0  0  0  0  0  0  0  0  0  0  0
   -0.7880  -12.3246    0.0000 C   0  0  0  0  0  0  0  0  0  0  0  0
   -1.3499  -10.9338    0.0000 C   0  0  0  0  0  0  0  0  0  0  0  0
   -2.8054  -10.5709    0.0000 C   0  0  0  0  0  0  0  0  0  0  0  0
   -3.8474  -11.6499    0.0000 O   0  0  0  0  0  0  0  0  0  0  0  0
   -3.2188   -9.1290    0.0000 N   0  0  0  0  0  0  0  0  0  0  0  0
   -4.6743   -8.7661    0.0000 C   0  0  0  0  0  0  0  0  0  0  0  0
   -5.0877   -7.3242    0.0000 N   0  0  0  0  0  0  0  0  0  0  0  0
   -6.5432   -6.9614    0.0000 N   0  0  0  0  0  0  0  0  0  0  0  0
   -7.5852   -8.0404    0.0000 N   0  0  0  0  0  0  0  0  0  0  0  0
   -7.1717   -9.4823    0.0000 N   0  0  0  0  0  0  0  0  0  0  0  0
   -5.7163   -9.8451    0.0000 N   0  0  0  0  0  0  0  0  0  0  0  0
   -0.2009   -9.9696    0.0000 C   0  0  0  0  0  0  0  0  0  0  0  0
   -0.3055   -8.4733    0.0000 O   0  0  0  0  0  0  0  0  0  0  0  0
    2.1595   -3.7404    0.0000 C   0  0  0  0  0  0  0  0  0  0  0  0
    3.6368   -4.0009    0.0000 O   0  0  0  0  0  0  0  0  0  0  0  0
    1.8991   -2.2632    0.0000 O   0  0  0  0  0  0  0  0  0  0  0  0
    0.7500   -1.2990    0.0000 C   0  0  0  0  0  0  0  0  0  0  0  0
    1.5000    0.0000    0.0000 C   0  0  0  0  0  0  0  0  0  0  0  0
    0.7500    1.2990    0.0000 C   0  0  0  0  0  0  0  0  0  0  0  0
   -0.7500    1.2990    0.0000 C   0  0  0  0  0  0  0  0  0  0  0  0
   -1.5000    0.0000    0.0000 C   0  0  0  0  0  0  0  0  0  0  0  0
   -0.7500   -1.2990    0.0000 C   0  0  0  0  0  0  0  0  0  0  0  0
  1  2  1  0
  2  3  2  0
  3  4  1  0
  4  5  1  0
  5  6  2  0
  6  7  1  0
  7  8  2  0
  7  9  1  0
  9 10  1  0
 10 11  2  0
 11 12  1  0
 12 13  2  0
 13 14  1  0
 14 15  1  0
 15 16  2  0
 16 17  1  0
 17 18  2  0
 18 19  1  0
 19 20  2  0
 19 21  1  0
 21 22  1  0
 22 23  2  0
 23 24  1  0
 24 25  2  0
 25 26  1  0
 26 27  2  0
 18 28  1  0
 28 29  2  0
  6 30  1  0
 30 31  2  0
 30 32  1  0
 32 33  1  0
 33 34  2  0
 34 35  1  0
 35 36  2  0
 36 37  1  0
 37 38  2  0
 38  2  1  0
 14 10  1  0
 28 15  1  0
 38 33  1  0
 27 22  1  0
M  END
>  <Title>  (1028) 
idABLPgen13

$$$$

     RDKit          2D

  7  7  0  0  0  0  0  0  0  0999 V2000
    3.0000    0.0000    0.0000 C   0  0  0  0  0  0  0  0  0  0  0  0
    1.5000    0.0000    0.0000 C   0  0  0  0  0  0  0  0  0  0  0  0
    0.7500   -1.2990    0.0000 C   0  0  0  0  0  0  0  0  0  0  0  0
   -0.7500   -1.2990    0.0000 C   0  0  0  0  0  0  0  0  0  0  0  0
   -1.5000    0.0000    0.0000 C   0  0  0  0  0  0  0  0  0  0  0  0
   -0.7500    1.2990    0.0000 C   0  0  0  0  0  0  0  0  0  0  0  0
    0.7500    1.2990    0.0000 C   0  0  0  0  0  0  0  0  0  0  0  0
  1  2  1  0
  2  3  1  0
  3  4  1  0
  4  5  1  0
  5  6  1  0
  6  7  1  0
  7  2  1  0
M  END
>  <Title>  (1029) 
idABLQgen13

$$$$

     RDKit          2D

 16 17  0  0  0  0  0  0  0  0999 V2000
   -2.5081   -6.0187    0.0000 C   0  0  0  0  0  0  0  0  0  0  0  0
   -1.0409   -5.7068    0.0000 C   0  0  0  0  0  0  0  0  0  0  0  0
   -0.5773   -4.2803    0.0000 C   0  0  0  0  0  0  0  0  0  0  0  0
    0.8899   -3.9684    0.0000 C   0  0  0  0  0  0  0  0  0  0  0  0
    2.0046   -4.9721    0.0000 N   0  0  0  0  0  0  0  0  0  0  0  0
    3.3037   -4.2221    0.0000 N   0  0  0  0  0  0  0  0  0  0  0  0
    2.9918   -2.7549    0.0000 N   0  0  0  0  0  0  0  0  0  0  0  0
    1.5000   -2.5981    0.0000 N   0  0  0  0  0  0  0  0  0  0  0  0
    0.7500   -1.2990    0.0000 C   0  0  0  0  0  0  0  0  0  0  0  0
    1.5000    0.0000    0.0000 C   0  0  0  0  0  0  0  0  0  0  0  0
    0.7500    1.2990    0.0000 C   0  0  0  0  0  0  0  0  0  0  0  0
   -0.7500    1.2990    0.0000 C   0  0  0  0  0  0  0  0  0  0  0  0
   -1.5000    2.5981    0.0000 C   0  0  0  0  0  0  0  0  0  0  0  0
   -1.5000    0.0000    0.0000 C   0  0  0  0  0  0  0  0  0  0  0  0
   -3.0000    0.0000    0.0000 F   0  0  0  0  0  0  0  0  0  0  0  0
   -0.7500   -1.2990    0.0000 C   0  0  0  0  0  0  0  0  0  0  0  0
  1  2  2  0
  2  3  1  0
  3  4  1  0
  4  5  2  0
  5  6  1  0
  6  7  2  0
  7  8  1  0
  8  9  1  0
  9 10  2  0
 10 11  1  0
 11 12  1  0
 12 13  1  0
 12 14  1  0
 14 15  1  0
 14 16  2  0
  8  4  1  0
 16  9  1  0
M  END
>  <Title>  (1030) 
idABLRgen13

$$$$

     RDKit          2D

 38 42  0  0  0  0  0  0  0  0999 V2000
   -3.1981   -1.5132    0.0000 C   0  0  0  0  0  0  0  0  0  0  0  0
   -1.8991   -2.2632    0.0000 C   0  0  0  0  0  0  0  0  0  0  0  0
   -2.1595   -3.7404    0.0000 C   0  0  0  0  0  0  0  0  0  0  0  0
   -1.4095   -5.0395    0.0000 C   0  0  0  0  0  0  0  0  0  0  0  0
   -0.0000   -5.5525    0.0000 C   0  0  0  0  0  0  0  0  0  0  0  0
    1.4095   -5.0395    0.0000 C   0  0  0  0  0  0  0  0  0  0  0  0
    2.3737   -6.1885    0.0000 C   0  0  0  0  0  0  0  0  0  0  0  0
    3.8509   -5.9281    0.0000 O   0  0  0  0  0  0  0  0  0  0  0  0
    1.8607   -7.5981    0.0000 N   0  0  0  0  0  0  0  0  0  0  0  0
    2.8249   -8.7471    0.0000 C   0  0  0  0  0  0  0  0  0  0  0  0
    4.3212   -8.6425    0.0000 N   0  0  0  0  0  0  0  0  0  0  0  0
    4.8831  -10.0333    0.0000 N   0  0  0  0  0  0  0  0  0  0  0  0
    3.7341  -10.9975    0.0000 N   0  0  0  0  0  0  0  0  0  0  0  0
    2.4620  -10.2026    0.0000 N   0  0  0  0  0  0  0  0  0  0  0  0
    1.0712  -10.7645    0.0000 N   0  0  0  0  0  0  0  0  0  0  0  0
    0.7083  -12.2199    0.0000 C   0  0  0  0  0  0  0  0  0  0  0  0
   -0.7880  -12.3246    0.0000 C   0  0  0  0  0  0  0  0  0  0  0  0
   -1.3499  -10.9338    0.0000 N   0  0  0  0  0  0  0  0  0  0  0  0
   -2.8054  -10.5709    0.0000 C   0  0  0  0  0  0  0  0  0  0  0  0
   -3.8474  -11.6499    0.0000 O   0  0  0  0  0  0  0  0  0  0  0  0
   -3.2188   -9.1290    0.0000 N   0  0  0  0  0  0  0  0  0  0  0  0
   -4.6743   -8.7661    0.0000 C   0  0  0  0  0  0  0  0  0  0  0  0
   -5.0877   -7.3242    0.0000 N   0  0  0  0  0  0  0  0  0  0  0  0
   -6.5432   -6.9614    0.0000 N   0  0  0  0  0  0  0  0  0  0  0  0
   -7.5852   -8.0404    0.0000 N   0  0  0  0  0  0  0  0  0  0  0  0
   -7.1717   -9.4823    0.0000 N   0  0  0  0  0  0  0  0  0  0  0  0
   -5.7163   -9.8451    0.0000 N   0  0  0  0  0  0  0  0  0  0  0  0
   -0.2009   -9.9696    0.0000 C   0  0  0  0  0  0  0  0  0  0  0  0
   -0.3055   -8.4733    0.0000 O   0  0  0  0  0  0  0  0  0  0  0  0
    2.1595   -3.7404    0.0000 C   0  0  0  0  0  0  0  0  0  0  0  0
    3.6368   -4.0009    0.0000 O   0  0  0  0  0  0  0  0  0  0  0  0
    1.8991   -2.2632    0.0000 O   0  0  0  0  0  0  0  0  0  0  0  0
    0.7500   -1.2990    0.0000 C   0  0  0  0  0  0  0  0  0  0  0  0
    1.5000    0.0000    0.0000 C   0  0  0  0  0  0  0  0  0  0  0  0
    0.7500    1.2990    0.0000 C   0  0  0  0  0  0  0  0  0  0  0  0
   -0.7500    1.2990    0.0000 C   0  0  0  0  0  0  0  0  0  0  0  0
   -1.5000    0.0000    0.0000 C   0  0  0  0  0  0  0  0  0  0  0  0
   -0.7500   -1.2990    0.0000 C   0  0  0  0  0  0  0  0  0  0  0  0
  1  2  1  0
  2  3  1  0
  3  4  2  0
  4  5  1  0
  5  6  1  0
  6  7  1  0
  7  8  2  0
  7  9  1  0
  9 10  1  0
 10 11  2  0
 11 12  1  0
 12 13  2  0
 13 14  1  0
 14 15  1  0
 15 16  1  0
 16 17  1  0
 17 18  1  0
 18 19  1  0
 19 20  2  0
 19 21  1  0
 21 22  1  0
 22 23  2  0
 23 24  1  0
 24 25  2  0
 25 26  1  0
 26 27  2  0
 18 28  1  0
 28 29  2  0
  6 30  1  0
 30 31  2  0
 30 32  1  0
 32 33  1  0
 33 34  2  0
 34 35  1  0
 35 36  2  0
 36 37  1  0
 37 38  2  0
 38  2  1  0
 14 10  1  0
 28 15  1  0
 38 33  1  0
 27 22  1  0
M  END
>  <Title>  (1031) 
idABLSgen13

$$$$

     RDKit          2D

 37 42  0  0  0  0  0  0  0  0999 V2000
    1.2135   -7.3421    0.0000 C   0  0  0  0  0  0  0  0  0  0  0  0
    0.7500   -5.9156    0.0000 C   0  0  0  0  0  0  0  0  0  0  0  0
    1.9635   -5.0339    0.0000 C   0  0  0  0  0  0  0  0  0  0  0  0
    2.4271   -3.6073    0.0000 C   0  0  0  0  0  0  0  0  0  0  0  0
    1.9635   -2.1807    0.0000 C   0  0  0  0  0  0  0  0  0  0  0  0
    3.1771   -1.2990    0.0000 C   0  0  0  0  0  0  0  0  0  0  0  0
    3.0203    0.1927    0.0000 O   0  0  0  0  0  0  0  0  0  0  0  0
    4.5474   -1.9091    0.0000 N   0  0  0  0  0  0  0  0  0  0  0  0
    5.7609   -1.0275    0.0000 C   0  0  0  0  0  0  0  0  0  0  0  0
    5.7609    0.4725    0.0000 N   0  0  0  0  0  0  0  0  0  0  0  0
    7.1875    0.9361    0.0000 N   0  0  0  0  0  0  0  0  0  0  0  0
    8.0692   -0.2775    0.0000 N   0  0  0  0  0  0  0  0  0  0  0  0
    7.1875   -1.4910    0.0000 N   0  0  0  0  0  0  0  0  0  0  0  0
    7.6510   -2.9176    0.0000 N   0  0  0  0  0  0  0  0  0  0  0  0
    9.0776   -3.3811    0.0000 C   0  0  0  0  0  0  0  0  0  0  0  0
    9.0776   -4.8811    0.0000 C   0  0  0  0  0  0  0  0  0  0  0  0
    7.6510   -5.3446    0.0000 C   0  0  0  0  0  0  0  0  0  0  0  0
    7.1875   -6.7712    0.0000 O   0  0  0  0  0  0  0  0  0  0  0  0
    6.7693   -4.1311    0.0000 N   0  0  0  0  0  0  0  0  0  0  0  0
    0.7500   -1.2990    0.0000 C   0  0  0  0  0  0  0  0  0  0  0  0
    1.5000    0.0000    0.0000 C   0  0  0  0  0  0  0  0  0  0  0  0
    0.7500    1.2990    0.0000 C   0  0  0  0  0  0  0  0  0  0  0  0
   -0.7500    1.2990    0.0000 C   0  0  0  0  0  0  0  0  0  0  0  0
   -1.5000    0.0000    0.0000 C   0  0  0  0  0  0  0  0  0  0  0  0
   -0.7500   -1.2990    0.0000 C   0  0  0  0  0  0  0  0  0  0  0  0
   -1.9635   -2.1807    0.0000 C   0  0  0  0  0  0  0  0  0  0  0  0
   -2.9672   -1.0660    0.0000 C   0  0  0  0  0  0  0  0  0  0  0  0
   -4.4344   -1.3779    0.0000 C   0  0  0  0  0  0  0  0  0  0  0  0
   -4.8980   -2.8045    0.0000 C   0  0  0  0  0  0  0  0  0  0  0  0
   -3.8943   -3.9192    0.0000 C   0  0  0  0  0  0  0  0  0  0  0  0
   -2.4271   -3.6073    0.0000 C   0  0  0  0  0  0  0  0  0  0  0  0
   -1.9635   -5.0339    0.0000 C   0  0  0  0  0  0  0  0  0  0  0  0
   -3.3338   -5.6440    0.0000 C   0  0  0  0  0  0  0  0  0  0  0  0
   -3.4906   -7.1358    0.0000 C   0  0  0  0  0  0  0  0  0  0  0  0
   -2.2771   -8.0175    0.0000 C   0  0  0  0  0  0  0  0  0  0  0  0
   -0.9068   -7.4073    0.0000 C   0  0  0  0  0  0  0  0  0  0  0  0
   -0.7500   -5.9156    0.0000 C   0  0  0  0  0  0  0  0  0  0  0  0
  1  2  1  0
  2  3  2  0
  3  4  1  0
  4  5  2  0
  5  6  1  0
  6  7  2  0
  6  8  1  0
  8  9  1  0
  9 10  2  0
 10 11  1  0
 11 12  2  0
 12 13  1  0
 13 14  1  0
 14 15  1  0
 15 16  1  0
 16 17  1  0
 17 18  2  0
 17 19  1  0
  5 20  1  0
 20 21  2  0
 21 22  1  0
 22 23  2  0
 23 24  1  0
 24 25  2  0
 25 26  1  0
 26 27  2  0
 27 28  1  0
 28 29  2  0
 29 30  1  0
 30 31  2  0
 31 32  1  0
 32 33  2  0
 33 34  1  0
 34 35  2  0
 35 36  1  0
 36 37  2  0
 37  2  1  0
 13  9  1  0
 19 14  1  0
 25 20  1  0
 31 26  1  0
 37 32  1  0
M  END
>  <Title>  (1032) 
idABLTgen13

$$$$

     RDKit          2D

  6  6  0  0  0  0  0  0  0  0999 V2000
    2.7760    0.0000    0.0000 C   0  0  0  0  0  0  0  0  0  0  0  0
    1.2760    0.0000    0.0000 C   0  0  0  0  0  0  0  0  0  0  0  0
    0.3943    1.2135    0.0000 C   0  0  0  0  0  0  0  0  0  0  0  0
   -1.0323    0.7500    0.0000 C   0  0  0  0  0  0  0  0  0  0  0  0
   -1.0323   -0.7500    0.0000 C   0  0  0  0  0  0  0  0  0  0  0  0
    0.3943   -1.2135    0.0000 C   0  0  0  0  0  0  0  0  0  0  0  0
  1  2  1  0
  2  3  1  0
  3  4  1  0
  4  5  2  0
  5  6  1  0
  6  2  1  0
M  END
>  <Title>  (1033) 
idABLUgen13

$$$$

     RDKit          2D

 56 55  0  0  0  0  0  0  0  0999 V2000
    0.0000    0.0000    0.0000 C   0  0  0  0  0  0  0  0  0  0  0  0
   -0.0000   -1.5000    0.0000 C   0  0  0  0  0  0  0  0  0  0  0  0
   -0.0000   -3.0000    0.0000 C   0  0  0  0  0  0  0  0  0  0  0  0
   -0.0000   -4.5000    0.0000 C   0  0  0  0  0  0  0  0  0  0  0  0
   -0.0000   -6.0000    0.0000 C   0  0  0  0  0  0  0  0  0  0  0  0
   -0.0000   -7.5000    0.0000 C   0  0  0  0  0  0  0  0  0  0  0  0
   -0.0000   -9.0000    0.0000 C   0  0  0  0  0  0  0  0  0  0  0  0
   -0.0000  -10.5000    0.0000 C   0  0  0  0  0  0  0  0  0  0  0  0
   -0.0000  -12.0000    0.0000 C   0  0  0  0  0  0  0  0  0  0  0  0
   -0.0000  -13.5000    0.0000 C   0  0  0  0  0  0  0  0  0  0  0  0
   -0.0000  -15.0000    0.0000 C   0  0  0  0  0  0  0  0  0  0  0  0
   -0.0000  -16.5000    0.0000 C   0  0  0  0  0  0  0  0  0  0  0  0
   -0.0000  -18.0000    0.0000 C   0  0  0  0  0  0  0  0  0  0  0  0
   -0.0000  -19.5000    0.0000 C   0  0  0  0  0  0  0  0  0  0  0  0
   -0.0000  -21.0000    0.0000 C   0  0  0  0  0  0  0  0  0  0  0  0
   -0.0000  -22.5000    0.0000 C   0  0  0  0  0  0  0  0  0  0  0  0
   -0.0000  -24.0000    0.0000 C   0  0  0  0  0  0  0  0  0  0  0  0
   -0.0000  -25.5000    0.0000 C   0  0  0  0  0  0  0  0  0  0  0  0
   -0.0000  -27.0000    0.0000 C   0  0  0  0  0  0  0  0  0  0  0  0
   -0.0000  -28.5000    0.0000 C   0  0  0  0  0  0  0  0  0  0  0  0
   -0.0000  -30.0000    0.0000 C   0  0  0  0  0  0  0  0  0  0  0  0
   -0.0000  -31.5000    0.0000 C   0  0  0  0  0  0  0  0  0  0  0  0
   -0.0000  -33.0000    0.0000 C   0  0  0  0  0  0  0  0  0  0  0  0
   -0.0000  -34.5000    0.0000 C   0  0  0  0  0  0  0  0  0  0  0  0
   -0.0000  -36.0000    0.0000 C   0  0  0  0  0  0  0  0  0  0  0  0
   -0.0000  -37.5000    0.0000 C   0  0  0  0  0  0  0  0  0  0  0  0
   -0.0000  -39.0000    0.0000 C   0  0  0  0  0  0  0  0  0  0  0  0
   -0.0000  -40.5000    0.0000 C   0  0  0  0  0  0  0  0  0  0  0  0
   -0.0000  -42.0000    0.0000 C   0  0  0  0  0  0  0  0  0  0  0  0
   -0.0000  -43.5000    0.0000 C   0  0  0  0  0  0  0  0  0  0  0  0
   -0.0000  -45.0000    0.0000 C   0  0  0  0  0  0  0  0  0  0  0  0
   -0.0000  -46.5000    0.0000 C   0  0  0  0  0  0  0  0  0  0  0  0
   -0.0000  -48.0000    0.0000 C   0  0  0  0  0  0  0  0  0  0  0  0
   -0.0000  -49.5000    0.0000 C   0  0  0  0  0  0  0  0  0  0  0  0
   -0.0000  -51.0000    0.0000 C   0  0  0  0  0  0  0  0  0  0  0  0
   -0.0000  -52.5000    0.0000 C   0  0  0  0  0  0  0  0  0  0  0  0
   -0.0000  -54.0000    0.0000 C   0  0  0  0  0  0  0  0  0  0  0  0
   -0.0000  -55.5000    0.0000 C   0  0  0  0  0  0  0  0  0  0  0  0
   -0.0000  -57.0000    0.0000 C   0  0  0  0  0  0  0  0  0  0  0  0
   -0.0000  -58.5000    0.0000 C   0  0  0  0  0  0  0  0  0  0  0  0
   -0.0000  -60.0000    0.0000 C   0  0  0  0  0  0  0  0  0  0  0  0
   -0.0000  -61.5000    0.0000 C   0  0  0  0  0  0  0  0  0  0  0  0
   -0.0000  -63.0000    0.0000 C   0  0  0  0  0  0  0  0  0  0  0  0
   -0.0000  -64.5000    0.0000 C   0  0  0  0  0  0  0  0  0  0  0  0
   -0.0000  -66.0000    0.0000 C   0  0  0  0  0  0  0  0  0  0  0  0
   -0.0000  -67.5000    0.0000 C   0  0  0  0  0  0  0  0  0  0  0  0
   -0.0000  -69.0000    0.0000 C   0  0  0  0  0  0  0  0  0  0  0  0
   -0.0000  -70.5000    0.0000 C   0  0  0  0  0  0  0  0  0  0  0  0
   -0.0000  -72.0000    0.0000 C   0  0  0  0  0  0  0  0  0  0  0  0
   -0.0000  -73.5000    0.0000 C   0  0  0  0  0  0  0  0  0  0  0  0
   -0.0000  -75.0000    0.0000 C   0  0  0  0  0  0  0  0  0  0  0  0
   -0.0000  -76.5000    0.0000 C   0  0  0  0  0  0  0  0  0  0  0  0
   -0.0000  -78.0000    0.0000 C   0  0  0  0  0  0  0  0  0  0  0  0
    1.2990  -78.7500    0.0000 C   0  0  0  0  0  0  0  0  0  0  0  0
    1.2990  -80.2500    0.0000 C   0  0  0  0  0  0  0  0  0  0  0  0
    1.2990  -81.7500    0.0000 C   0  0  0  0  0  0  0  0  0  0  0  0
  1  2  3  0
  2  3  1  0
  3  4  3  0
  4  5  1  0
  5  6  3  0
  6  7  1  0
  7  8  3  0
  8  9  1  0
  9 10  3  0
 10 11  1  0
 11 12  3  0
 12 13  1  0
 13 14  3  0
 14 15  1  0
 15 16  3  0
 16 17  1  0
 17 18  3  0
 18 19  1  0
 19 20  3  0
 20 21  1  0
 21 22  3  0
 22 23  1  0
 23 24  3  0
 24 25  1  0
 25 26  3  0
 26 27  1  0
 27 28  3  0
 28 29  1  0
 29 30  3  0
 30 31  1  0
 31 32  3  0
 32 33  1  0
 33 34  3  0
 34 35  1  0
 35 36  3  0
 36 37  1  0
 37 38  3  0
 38 39  1  0
 39 40  3  0
 40 41  1  0
 41 42  3  0
 42 43  1  0
 43 44  3  0
 44 45  1  0
 45 46  3  0
 46 47  1  0
 47 48  3  0
 48 49  1  0
 49 50  3  0
 50 51  1  0
 51 52  3  0
 52 53  1  0
 53 54  2  3
 54 55  1  0
 55 56  3  0
M  END
>  <Title>  (1034) 
idABLVgen13

$$$$

     RDKit          2D

 24 27  0  0  0  0  0  0  0  0999 V2000
   -2.3737   -6.1885    0.0000 C   0  0  0  0  0  0  0  0  0  0  0  0
   -1.4095   -5.0395    0.0000 C   0  0  0  0  0  0  0  0  0  0  0  0
   -0.0000   -5.5525    0.0000 C   0  0  0  0  0  0  0  0  0  0  0  0
    1.4095   -5.0395    0.0000 C   0  0  0  0  0  0  0  0  0  0  0  0
    2.1595   -3.7404    0.0000 N   0  0  0  0  0  0  0  0  0  0  0  0
    1.8991   -2.2632    0.0000 C   0  0  0  0  0  0  0  0  0  0  0  0
    3.1981   -1.5132    0.0000 N   0  0  0  0  0  0  0  0  0  0  0  0
    4.4971   -2.2632    0.0000 C   0  0  0  0  0  0  0  0  0  0  0  0
    5.7962   -1.5132    0.0000 C   0  0  0  0  0  0  0  0  0  0  0  0
    5.7962   -0.0132    0.0000 N   0  0  0  0  0  0  0  0  0  0  0  0
    4.4971    0.7368    0.0000 N   0  0  0  0  0  0  0  0  0  0  0  0
    3.1981   -0.0132    0.0000 N   0  0  0  0  0  0  0  0  0  0  0  0
    0.7500   -1.2990    0.0000 C   0  0  0  0  0  0  0  0  0  0  0  0
    1.5000    0.0000    0.0000 C   0  0  0  0  0  0  0  0  0  0  0  0
    0.7500    1.2990    0.0000 C   0  0  0  0  0  0  0  0  0  0  0  0
   -0.7500    1.2990    0.0000 C   0  0  0  0  0  0  0  0  0  0  0  0
   -1.5000    0.0000    0.0000 C   0  0  0  0  0  0  0  0  0  0  0  0
   -0.7500   -1.2990    0.0000 C   0  0  0  0  0  0  0  0  0  0  0  0
   -1.8991   -2.2632    0.0000 C   0  0  0  0  0  0  0  0  0  0  0  0
   -3.0481   -1.2990    0.0000 C   0  0  0  0  0  0  0  0  0  0  0  0
   -4.4577   -1.8121    0.0000 C   0  0  0  0  0  0  0  0  0  0  0  0
   -4.7181   -3.2893    0.0000 C   0  0  0  0  0  0  0  0  0  0  0  0
   -3.5691   -4.2535    0.0000 C   0  0  0  0  0  0  0  0  0  0  0  0
   -2.1595   -3.7404    0.0000 C   0  0  0  0  0  0  0  0  0  0  0  0
  1  2  1  0
  2  3  2  0
  3  4  1  0
  4  5  1  0
  5  6  2  0
  6  7  1  0
  7  8  1  0
  8  9  1  0
  9 10  2  0
 10 11  1  0
 11 12  2  0
  6 13  1  0
 13 14  2  0
 14 15  1  0
 15 16  2  0
 16 17  1  0
 17 18  2  0
 18 19  1  0
 19 20  2  0
 20 21  1  0
 21 22  2  0
 22 23  1  0
 23 24  2  0
 24  2  1  0
 12  7  1  0
 18 13  1  0
 24 19  1  0
M  END
>  <Title>  (1035) 
idABLWgen13

$$$$

     RDKit          2D

 42 47  0  0  0  0  0  0  0  0999 V2000
   -3.1771   -5.9156    0.0000 C   0  0  0  0  0  0  0  0  0  0  0  0
   -1.9635   -5.0339    0.0000 C   0  0  0  0  0  0  0  0  0  0  0  0
   -0.7500   -5.9156    0.0000 C   0  0  0  0  0  0  0  0  0  0  0  0
    0.7500   -5.9156    0.0000 C   0  0  0  0  0  0  0  0  0  0  0  0
    1.9635   -5.0339    0.0000 C   0  0  0  0  0  0  0  0  0  0  0  0
    2.4271   -3.6073    0.0000 C   0  0  0  0  0  0  0  0  0  0  0  0
    1.9635   -2.1807    0.0000 C   0  0  0  0  0  0  0  0  0  0  0  0
    3.1771   -1.2990    0.0000 C   0  0  0  0  0  0  0  0  0  0  0  0
    3.0203    0.1927    0.0000 O   0  0  0  0  0  0  0  0  0  0  0  0
    4.5474   -1.9091    0.0000 N   0  0  0  0  0  0  0  0  0  0  0  0
    5.7609   -1.0275    0.0000 C   0  0  0  0  0  0  0  0  0  0  0  0
    5.7609    0.4725    0.0000 N   0  0  0  0  0  0  0  0  0  0  0  0
    7.1875    0.9361    0.0000 N   0  0  0  0  0  0  0  0  0  0  0  0
    8.0692   -0.2775    0.0000 N   0  0  0  0  0  0  0  0  0  0  0  0
    7.1875   -1.4910    0.0000 N   0  0  0  0  0  0  0  0  0  0  0  0
    7.6510   -2.9176    0.0000 N   0  0  0  0  0  0  0  0  0  0  0  0
    9.0776   -3.3811    0.0000 C   0  0  0  0  0  0  0  0  0  0  0  0
    9.0776   -4.8811    0.0000 C   0  0  0  0  0  0  0  0  0  0  0  0
    7.6510   -5.3446    0.0000 N   0  0  0  0  0  0  0  0  0  0  0  0
    7.1875   -6.7712    0.0000 C   0  0  0  0  0  0  0  0  0  0  0  0
    8.1912   -7.8859    0.0000 O   0  0  0  0  0  0  0  0  0  0  0  0
    5.7203   -7.0831    0.0000 N   0  0  0  0  0  0  0  0  0  0  0  0
    5.2567   -8.5097    0.0000 C   0  0  0  0  0  0  0  0  0  0  0  0
    3.7895   -8.8215    0.0000 N   0  0  0  0  0  0  0  0  0  0  0  0
    3.3260  -10.2481    0.0000 N   0  0  0  0  0  0  0  0  0  0  0  0
    4.3297  -11.3628    0.0000 N   0  0  0  0  0  0  0  0  0  0  0  0
    5.7969  -11.0510    0.0000 N   0  0  0  0  0  0  0  0  0  0  0  0
    6.2604   -9.6244    0.0000 N   0  0  0  0  0  0  0  0  0  0  0  0
    6.7693   -4.1311    0.0000 C   0  0  0  0  0  0  0  0  0  0  0  0
    5.2693   -4.1311    0.0000 O   0  0  0  0  0  0  0  0  0  0  0  0
    0.7500   -1.2990    0.0000 C   0  0  0  0  0  0  0  0  0  0  0  0
    1.5000    0.0000    0.0000 C   0  0  0  0  0  0  0  0  0  0  0  0
    0.7500    1.2990    0.0000 C   0  0  0  0  0  0  0  0  0  0  0  0
   -0.7500    1.2990    0.0000 C   0  0  0  0  0  0  0  0  0  0  0  0
   -1.5000    0.0000    0.0000 C   0  0  0  0  0  0  0  0  0  0  0  0
   -0.7500   -1.2990    0.0000 C   0  0  0  0  0  0  0  0  0  0  0  0
   -1.9635   -2.1807    0.0000 C   0  0  0  0  0  0  0  0  0  0  0  0
   -2.9672   -1.0660    0.0000 C   0  0  0  0  0  0  0  0  0  0  0  0
   -4.4344   -1.3779    0.0000 C   0  0  0  0  0  0  0  0  0  0  0  0
   -4.8980   -2.8045    0.0000 C   0  0  0  0  0  0  0  0  0  0  0  0
   -3.8943   -3.9192    0.0000 C   0  0  0  0  0  0  0  0  0  0  0  0
   -2.4271   -3.6073    0.0000 C   0  0  0  0  0  0  0  0  0  0  0  0
  1  2  1  0
  2  3  1  0
  3  4  2  0
  4  5  1  0
  5  6  1  0
  6  7  1  0
  7  8  1  0
  8  9  2  0
  8 10  1  0
 10 11  1  0
 11 12  2  0
 12 13  1  0
 13 14  2  0
 14 15  1  0
 15 16  1  0
 16 17  1  0
 17 18  1  0
 18 19  1  0
 19 20  1  0
 20 21  2  0
 20 22  1  0
 22 23  1  0
 23 24  2  0
 24 25  1  0
 25 26  2  0
 26 27  1  0
 27 28  2  0
 19 29  1  0
 29 30  2  0
  7 31  1  0
 31 32  2  0
 32 33  1  0
 33 34  2  0
 34 35  1  0
 35 36  2  0
 36 37  1  0
 37 38  2  0
 38 39  1  0
 39 40  2  0
 40 41  1  0
 41 42  2  0
 42  2  1  0
 15 11  1  0
 29 16  1  0
 36 31  1  0
 42 37  1  0
 28 23  1  0
M  END
>  <Title>  (1036) 
idABLXgen13

$$$$

     RDKit          2D

 83 84  0  0  0  0  0  0  0  0999 V2000
   21.2487   -2.5150    0.0000 C   0  0  0  0  0  0  0  0  0  0  0  0
   20.5158   -1.2062    0.0000 C   0  0  0  0  0  0  0  0  0  0  0  0
   19.0446   -1.4988    0.0000 C   0  0  0  0  0  0  0  0  0  0  0  0
   19.1035    0.0000    0.0000 C   0  0  0  0  0  0  0  0  0  0  0  0
   19.0446    1.4988    0.0000 C   0  0  0  0  0  0  0  0  0  0  0  0
   18.8683    2.9884    0.0000 C   0  0  0  0  0  0  0  0  0  0  0  0
   18.5757    4.4596    0.0000 C   0  0  0  0  0  0  0  0  0  0  0  0
   18.1685    5.9033    0.0000 C   0  0  0  0  0  0  0  0  0  0  0  0
   17.6493    7.3106    0.0000 C   0  0  0  0  0  0  0  0  0  0  0  0
   17.0213    8.6728    0.0000 C   0  0  0  0  0  0  0  0  0  0  0  0
   16.2884    9.9816    0.0000 C   0  0  0  0  0  0  0  0  0  0  0  0
   15.4551   11.2288    0.0000 C   0  0  0  0  0  0  0  0  0  0  0  0
   14.5264   12.4067    0.0000 C   0  0  0  0  0  0  0  0  0  0  0  0
   13.5082   13.5082    0.0000 C   0  0  0  0  0  0  0  0  0  0  0  0
   12.4067   14.5264    0.0000 C   0  0  0  0  0  0  0  0  0  0  0  0
   11.2288   15.4551    0.0000 C   0  0  0  0  0  0  0  0  0  0  0  0
    9.9816   16.2884    0.0000 C   0  0  0  0  0  0  0  0  0  0  0  0
    8.6728   17.0213    0.0000 C   0  0  0  0  0  0  0  0  0  0  0  0
    7.3106   17.6493    0.0000 C   0  0  0  0  0  0  0  0  0  0  0  0
    5.9033   18.1685    0.0000 C   0  0  0  0  0  0  0  0  0  0  0  0
    4.4596   18.5757    0.0000 C   0  0  0  0  0  0  0  0  0  0  0  0
    2.9884   18.8683    0.0000 C   0  0  0  0  0  0  0  0  0  0  0  0
    1.4988   19.0446    0.0000 C   0  0  0  0  0  0  0  0  0  0  0  0
    0.0000   19.1035    0.0000 C   0  0  0  0  0  0  0  0  0  0  0  0
   -1.4988   19.0446    0.0000 C   0  0  0  0  0  0  0  0  0  0  0  0
   -2.9884   18.8683    0.0000 C   0  0  0  0  0  0  0  0  0  0  0  0
   -4.4596   18.5757    0.0000 C   0  0  0  0  0  0  0  0  0  0  0  0
   -5.9033   18.1685    0.0000 C   0  0  0  0  0  0  0  0  0  0  0  0
   -7.3106   17.6493    0.0000 C   0  0  0  0  0  0  0  0  0  0  0  0
   -8.6728   17.0213    0.0000 C   0  0  0  0  0  0  0  0  0  0  0  0
   -9.9816   16.2884    0.0000 C   0  0  0  0  0  0  0  0  0  0  0  0
  -11.2288   15.4551    0.0000 C   0  0  0  0  0  0  0  0  0  0  0  0
  -12.4067   14.5264    0.0000 C   0  0  0  0  0  0  0  0  0  0  0  0
  -13.5082   13.5082    0.0000 C   0  0  0  0  0  0  0  0  0  0  0  0
  -14.5264   12.4067    0.0000 C   0  0  0  0  0  0  0  0  0  0  0  0
  -15.4551   11.2288    0.0000 C   0  0  0  0  0  0  0  0  0  0  0  0
  -16.2884    9.9816    0.0000 C   0  0  0  0  0  0  0  0  0  0  0  0
  -17.0213    8.6728    0.0000 C   0  0  0  0  0  0  0  0  0  0  0  0
  -17.6493    7.3106    0.0000 C   0  0  0  0  0  0  0  0  0  0  0  0
  -18.1685    5.9033    0.0000 C   0  0  0  0  0  0  0  0  0  0  0  0
  -18.5757    4.4596    0.0000 C   0  0  0  0  0  0  0  0  0  0  0  0
  -18.8683    2.9884    0.0000 C   0  0  0  0  0  0  0  0  0  0  0  0
  -19.0446    1.4988    0.0000 C   0  0  0  0  0  0  0  0  0  0  0  0
  -19.1035    0.0000    0.0000 C   0  0  0  0  0  0  0  0  0  0  0  0
  -19.0446   -1.4988    0.0000 C   0  0  0  0  0  0  0  0  0  0  0  0
  -18.8683   -2.9884    0.0000 C   0  0  0  0  0  0  0  0  0  0  0  0
  -18.5757   -4.4596    0.0000 C   0  0  0  0  0  0  0  0  0  0  0  0
  -18.1685   -5.9033    0.0000 C   0  0  0  0  0  0  0  0  0  0  0  0
  -17.6493   -7.3106    0.0000 C   0  0  0  0  0  0  0  0  0  0  0  0
  -17.0213   -8.6728    0.0000 C   0  0  0  0  0  0  0  0  0  0  0  0
  -16.2884   -9.9816    0.0000 C   0  0  0  0  0  0  0  0  0  0  0  0
  -15.4551  -11.2288    0.0000 C   0  0  0  0  0  0  0  0  0  0  0  0
  -14.5264  -12.4067    0.0000 C   0  0  0  0  0  0  0  0  0  0  0  0
  -13.5082  -13.5082    0.0000 C   0  0  0  0  0  0  0  0  0  0  0  0
  -12.4067  -14.5264    0.0000 C   0  0  0  0  0  0  0  0  0  0  0  0
  -11.2288  -15.4551    0.0000 C   0  0  0  0  0  0  0  0  0  0  0  0
   -9.9816  -16.2884    0.0000 C   0  0  0  0  0  0  0  0  0  0  0  0
   -8.6728  -17.0213    0.0000 C   0  0  0  0  0  0  0  0  0  0  0  0
   -7.3106  -17.6493    0.0000 C   0  0  0  0  0  0  0  0  0  0  0  0
   -5.9033  -18.1685    0.0000 C   0  0  0  0  0  0  0  0  0  0  0  0
   -4.4596  -18.5757    0.0000 C   0  0  0  0  0  0  0  0  0  0  0  0
   -2.9884  -18.8683    0.0000 C   0  0  0  0  0  0  0  0  0  0  0  0
   -1.4988  -19.0446    0.0000 C   0  0  0  0  0  0  0  0  0  0  0  0
   -0.0000  -19.1035    0.0000 C   0  0  0  0  0  0  0  0  0  0  0  0
    1.4988  -19.0446    0.0000 C   0  0  0  0  0  0  0  0  0  0  0  0
    2.9884  -18.8683    0.0000 C   0  0  0  0  0  0  0  0  0  0  0  0
    4.4596  -18.5757    0.0000 C   0  0  0  0  0  0  0  0  0  0  0  0
    5.9033  -18.1685    0.0000 C   0  0  0  0  0  0  0  0  0  0  0  0
    7.3106  -17.6493    0.0000 C   0  0  0  0  0  0  0  0  0  0  0  0
    8.6728  -17.0213    0.0000 C   0  0  0  0  0  0  0  0  0  0  0  0
    9.9816  -16.2884    0.0000 C   0  0  0  0  0  0  0  0  0  0  0  0
   11.2288  -15.4551    0.0000 C   0  0  0  0  0  0  0  0  0  0  0  0
   12.4067  -14.5264    0.0000 C   0  0  0  0  0  0  0  0  0  0  0  0
   13.5082  -13.5082    0.0000 C   0  0  0  0  0  0  0  0  0  0  0  0
   14.5264  -12.4067    0.0000 C   0  0  0  0  0  0  0  0  0  0  0  0
   15.4551  -11.2288    0.0000 C   0  0  0  0  0  0  0  0  0  0  0  0
   16.2884   -9.9816    0.0000 C   0  0  0  0  0  0  0  0  0  0  0  0
   17.0213   -8.6728    0.0000 C   0  0  0  0  0  0  0  0  0  0  0  0
   17.6493   -7.3106    0.0000 C   0  0  0  0  0  0  0  0  0  0  0  0
   18.1685   -5.9033    0.0000 C   0  0  0  0  0  0  0  0  0  0  0  0
   18.5757   -4.4596    0.0000 C   0  0  0  0  0  0  0  0  0  0  0  0
   18.8683   -2.9884    0.0000 C   0  0  0  0  0  0  0  0  0  0  0  0
   20.2305   -3.6164    0.0000 C   0  0  0  0  0  0  0  0  0  0  0  0
  1  2  2  0
  2  3  1  0
  3  4  1  0
  4  5  1  0
  5  6  1  0
  6  7  1  0
  7  8  1  0
  8  9  1  0
  9 10  1  0
 10 11  1  0
 11 12  1  0
 12 13  1  0
 13 14  1  0
 14 15  1  0
 15 16  1  0
 16 17  1  0
 17 18  1  0
 18 19  1  0
 19 20  1  0
 20 21  1  0
 21 22  1  0
 22 23  1  0
 23 24  1  0
 24 25  1  0
 25 26  1  0
 26 27  1  0
 27 28  1  0
 28 29  1  0
 29 30  1  0
 30 31  1  0
 31 32  1  0
 32 33  1  0
 33 34  1  0
 34 35  1  0
 35 36  1  0
 36 37  1  0
 37 38  1  0
 38 39  1  0
 39 40  1  0
 40 41  1  0
 41 42  1  0
 42 43  1  0
 43 44  1  0
 44 45  1  0
 45 46  1  0
 46 47  1  0
 47 48  1  0
 48 49  1  0
 49 50  1  0
 50 51  1  0
 51 52  1  0
 52 53  1  0
 53 54  1  0
 54 55  1  0
 55 56  1  0
 56 57  1  0
 57 58  1  0
 58 59  1  0
 59 60  1  0
 60 61  1  0
 61 62  1  0
 62 63  1  0
 63 64  1  0
 64 65  1  0
 65 66  1  0
 66 67  1  0
 67 68  1  0
 68 69  1  0
 69 70  1  0
 70 71  1  0
 71 72  1  0
 72 73  1  0
 73 74  1  0
 74 75  1  0
 75 76  1  0
 76 77  1  0
 77 78  1  0
 78 79  1  0
 79 80  1  0
 80 81  1  0
 81 82  1  0
 82 83  2  0
 83  1  1  0
 82  3  1  0
M  END
>  <Title>  (1037) 
idABLYgen13

$$$$

     RDKit          2D

 52 59  0  0  0  0  0  0  0  0999 V2000
    3.1097   -7.2078    0.0000 C   0  0  0  0  0  0  0  0  0  0  0  0
    2.0490   -6.1471    0.0000 C   0  0  0  0  0  0  0  0  0  0  0  0
    2.7990   -4.8481    0.0000 C   0  0  0  0  0  0  0  0  0  0  0  0
    2.7990   -3.3481    0.0000 C   0  0  0  0  0  0  0  0  0  0  0  0
    2.0490   -2.0490    0.0000 C   0  0  0  0  0  0  0  0  0  0  0  0
    3.1097   -0.9884    0.0000 C   0  0  0  0  0  0  0  0  0  0  0  0
    2.7215    0.4605    0.0000 O   0  0  0  0  0  0  0  0  0  0  0  0
    4.5586   -1.3766    0.0000 N   0  0  0  0  0  0  0  0  0  0  0  0
    5.6192   -0.3159    0.0000 C   0  0  0  0  0  0  0  0  0  0  0  0
    5.3846    1.1656    0.0000 N   0  0  0  0  0  0  0  0  0  0  0  0
    6.7211    1.8466    0.0000 N   0  0  0  0  0  0  0  0  0  0  0  0
    7.7818    0.7859    0.0000 N   0  0  0  0  0  0  0  0  0  0  0  0
    7.1008   -0.5506    0.0000 N   0  0  0  0  0  0  0  0  0  0  0  0
    7.7818   -1.8871    0.0000 N   0  0  0  0  0  0  0  0  0  0  0  0
    9.2633   -2.1218    0.0000 N   0  0  0  0  0  0  0  0  0  0  0  0
    9.4979   -3.6033    0.0000 C   0  0  0  0  0  0  0  0  0  0  0  0
    8.1614   -4.2843    0.0000 N   0  0  0  0  0  0  0  0  0  0  0  0
    7.9268   -5.7658    0.0000 C   0  0  0  0  0  0  0  0  0  0  0  0
    9.0925   -6.7098    0.0000 O   0  0  0  0  0  0  0  0  0  0  0  0
    6.5264   -6.3034    0.0000 N   0  0  0  0  0  0  0  0  0  0  0  0
    6.2918   -7.7849    0.0000 C   0  0  0  0  0  0  0  0  0  0  0  0
    4.8914   -8.3224    0.0000 N   0  0  0  0  0  0  0  0  0  0  0  0
    4.6567   -9.8040    0.0000 N   0  0  0  0  0  0  0  0  0  0  0  0
    5.8225  -10.7480    0.0000 N   0  0  0  0  0  0  0  0  0  0  0  0
    7.2228  -10.2104    0.0000 N   0  0  0  0  0  0  0  0  0  0  0  0
    7.4575   -8.7289    0.0000 N   0  0  0  0  0  0  0  0  0  0  0  0
    7.1008   -3.2236    0.0000 C   0  0  0  0  0  0  0  0  0  0  0  0
    5.6192   -3.4583    0.0000 O   0  0  0  0  0  0  0  0  0  0  0  0
    0.7500   -1.2990    0.0000 C   0  0  0  0  0  0  0  0  0  0  0  0
    1.5000    0.0000    0.0000 C   0  0  0  0  0  0  0  0  0  0  0  0
    0.7500    1.2990    0.0000 C   0  0  0  0  0  0  0  0  0  0  0  0
   -0.7500    1.2990    0.0000 C   0  0  0  0  0  0  0  0  0  0  0  0
   -1.5000    0.0000    0.0000 C   0  0  0  0  0  0  0  0  0  0  0  0
   -0.7500   -1.2990    0.0000 C   0  0  0  0  0  0  0  0  0  0  0  0
   -2.0490   -2.0490    0.0000 C   0  0  0  0  0  0  0  0  0  0  0  0
   -2.7990   -0.7500    0.0000 C   0  0  0  0  0  0  0  0  0  0  0  0
   -4.2990   -0.7500    0.0000 C   0  0  0  0  0  0  0  0  0  0  0  0
   -5.0490   -2.0490    0.0000 C   0  0  0  0  0  0  0  0  0  0  0  0
   -4.2990   -3.3481    0.0000 C   0  0  0  0  0  0  0  0  0  0  0  0
   -2.7990   -3.3481    0.0000 C   0  0  0  0  0  0  0  0  0  0  0  0
   -2.7990   -4.8481    0.0000 C   0  0  0  0  0  0  0  0  0  0  0  0
   -4.2990   -4.8481    0.0000 C   0  0  0  0  0  0  0  0  0  0  0  0
   -5.0490   -6.1471    0.0000 C   0  0  0  0  0  0  0  0  0  0  0  0
   -4.2990   -7.4462    0.0000 C   0  0  0  0  0  0  0  0  0  0  0  0
   -2.7990   -7.4462    0.0000 C   0  0  0  0  0  0  0  0  0  0  0  0
   -2.0490   -6.1471    0.0000 C   0  0  0  0  0  0  0  0  0  0  0  0
   -0.7500   -6.8971    0.0000 C   0  0  0  0  0  0  0  0  0  0  0  0
   -1.5000   -8.1962    0.0000 C   0  0  0  0  0  0  0  0  0  0  0  0
   -0.7500   -9.4952    0.0000 C   0  0  0  0  0  0  0  0  0  0  0  0
    0.7500   -9.4952    0.0000 C   0  0  0  0  0  0  0  0  0  0  0  0
    1.5000   -8.1962    0.0000 C   0  0  0  0  0  0  0  0  0  0  0  0
    0.7500   -6.8971    0.0000 C   0  0  0  0  0  0  0  0  0  0  0  0
  1  2  1  0
  2  3  1  0
  3  4  2  0
  4  5  1  0
  5  6  1  0
  6  7  2  0
  6  8  1  0
  8  9  1  0
  9 10  2  0
 10 11  1  0
 11 12  2  0
 12 13  1  0
 13 14  1  0
 14 15  1  0
 15 16  1  0
 16 17  1  0
 17 18  1  0
 18 19  2  0
 18 20  1  0
 20 21  1  0
 21 22  2  0
 22 23  1  0
 23 24  2  0
 24 25  1  0
 25 26  2  0
 17 27  1  0
 27 28  2  0
  5 29  1  0
 29 30  2  0
 30 31  1  0
 31 32  2  0
 32 33  1  0
 33 34  2  0
 34 35  1  0
 35 36  2  0
 36 37  1  0
 37 38  2  0
 38 39  1  0
 39 40  2  0
 40 41  1  0
 41 42  2  0
 42 43  1  0
 43 44  2  0
 44 45  1  0
 45 46  2  0
 46 47  1  0
 47 48  2  0
 48 49  1  0
 49 50  2  0
 50 51  1  0
 51 52  2  0
 52  2  1  0
 13  9  1  0
 27 14  1  0
 34 29  1  0
 40 35  1  0
 46 41  1  0
 52 47  1  0
 26 21  1  0
M  END
>  <Title>  (1038) 
idABLZgen13

$$$$

     RDKit          2D

 20 22  0  0  0  0  0  0  0  0999 V2000
   -1.4872   -4.9273    0.0000 C   0  0  0  0  0  0  0  0  0  0  0  0
   -0.0000   -4.7315    0.0000 C   0  0  0  0  0  0  0  0  0  0  0  0
    0.9131   -5.9215    0.0000 O   0  0  0  0  0  0  0  0  0  0  0  0
    0.5740   -3.3457    0.0000 N   0  0  0  0  0  0  0  0  0  0  0  0
    1.9598   -2.7716    0.0000 C   0  0  0  0  0  0  0  0  0  0  0  0
    1.3858   -1.3858    0.0000 C   0  0  0  0  0  0  0  0  0  0  0  0
    1.9598    0.0000    0.0000 C   0  0  0  0  0  0  0  0  0  0  0  0
    1.3858    1.3858    0.0000 C   0  0  0  0  0  0  0  0  0  0  0  0
    0.0000    1.9598    0.0000 C   0  0  0  0  0  0  0  0  0  0  0  0
   -1.3858    1.3858    0.0000 C   0  0  0  0  0  0  0  0  0  0  0  0
   -1.9598    0.0000    0.0000 C   0  0  0  0  0  0  0  0  0  0  0  0
   -3.4598    0.0000    0.0000 O   0  0  0  0  0  0  0  0  0  0  0  0
   -4.2098    1.2990    0.0000 C   0  0  0  0  0  0  0  0  0  0  0  0
   -3.4598    2.5981    0.0000 C   0  0  0  0  0  0  0  0  0  0  0  0
   -4.2098    3.8971    0.0000 C   0  0  0  0  0  0  0  0  0  0  0  0
   -5.7098    3.8971    0.0000 C   0  0  0  0  0  0  0  0  0  0  0  0
   -6.4598    2.5981    0.0000 C   0  0  0  0  0  0  0  0  0  0  0  0
   -5.7098    1.2990    0.0000 C   0  0  0  0  0  0  0  0  0  0  0  0
   -1.3858   -1.3858    0.0000 C   0  0  0  0  0  0  0  0  0  0  0  0
   -0.0000   -1.9598    0.0000 C   0  0  0  0  0  0  0  0  0  0  0  0
  1  2  1  0
  2  3  2  0
  2  4  1  0
  4  5  1  0
  5  6  1  0
  6  7  1  0
  7  8  2  0
  8  9  1  0
  9 10  1  0
 10 11  1  0
 11 12  1  0
 12 13  1  0
 13 14  2  0
 14 15  1  0
 15 16  2  0
 16 17  1  0
 17 18  2  0
 11 19  1  0
 19 20  1  0
 20  4  1  0
 20  6  1  0
 18 13  1  0
M  END
>  <Title>  (1039) 
idABMAgen13

$$$$

     RDKit          2D

 42 47  0  0  0  0  0  0  0  0999 V2000
   -3.1771   -5.9156    0.0000 C   0  0  0  0  0  0  0  0  0  0  0  0
   -1.9635   -5.0339    0.0000 C   0  0  0  0  0  0  0  0  0  0  0  0
   -0.7500   -5.9156    0.0000 C   0  0  0  0  0  0  0  0  0  0  0  0
    0.7500   -5.9156    0.0000 C   0  0  0  0  0  0  0  0  0  0  0  0
    1.9635   -5.0339    0.0000 C   0  0  0  0  0  0  0  0  0  0  0  0
    2.4271   -3.6073    0.0000 C   0  0  0  0  0  0  0  0  0  0  0  0
    1.9635   -2.1807    0.0000 C   0  0  0  0  0  0  0  0  0  0  0  0
    3.1771   -1.2990    0.0000 C   0  0  0  0  0  0  0  0  0  0  0  0
    3.0203    0.1927    0.0000 O   0  0  0  0  0  0  0  0  0  0  0  0
    4.5474   -1.9091    0.0000 N   0  0  0  0  0  0  0  0  0  0  0  0
    5.7609   -1.0275    0.0000 C   0  0  0  0  0  0  0  0  0  0  0  0
    5.7609    0.4725    0.0000 N   0  0  0  0  0  0  0  0  0  0  0  0
    7.1875    0.9361    0.0000 N   0  0  0  0  0  0  0  0  0  0  0  0
    8.0692   -0.2775    0.0000 N   0  0  0  0  0  0  0  0  0  0  0  0
    7.1875   -1.4910    0.0000 N   0  0  0  0  0  0  0  0  0  0  0  0
    7.6510   -2.9176    0.0000 N   0  0  0  0  0  0  0  0  0  0  0  0
    9.0776   -3.3811    0.0000 C   0  0  0  0  0  0  0  0  0  0  0  0
    9.0776   -4.8811    0.0000 C   0  0  0  0  0  0  0  0  0  0  0  0
    7.6510   -5.3446    0.0000 N   0  0  0  0  0  0  0  0  0  0  0  0
    7.1875   -6.7712    0.0000 C   0  0  0  0  0  0  0  0  0  0  0  0
    8.1912   -7.8859    0.0000 O   0  0  0  0  0  0  0  0  0  0  0  0
    5.7203   -7.0831    0.0000 N   0  0  0  0  0  0  0  0  0  0  0  0
    5.2567   -8.5097    0.0000 C   0  0  0  0  0  0  0  0  0  0  0  0
    3.7895   -8.8215    0.0000 N   0  0  0  0  0  0  0  0  0  0  0  0
    3.3260  -10.2481    0.0000 N   0  0  0  0  0  0  0  0  0  0  0  0
    4.3297  -11.3628    0.0000 N   0  0  0  0  0  0  0  0  0  0  0  0
    5.7969  -11.0510    0.0000 N   0  0  0  0  0  0  0  0  0  0  0  0
    6.2604   -9.6244    0.0000 N   0  0  0  0  0  0  0  0  0  0  0  0
    6.7693   -4.1311    0.0000 C   0  0  0  0  0  0  0  0  0  0  0  0
    5.2693   -4.1311    0.0000 O   0  0  0  0  0  0  0  0  0  0  0  0
    0.7500   -1.2990    0.0000 C   0  0  0  0  0  0  0  0  0  0  0  0
    1.5000    0.0000    0.0000 C   0  0  0  0  0  0  0  0  0  0  0  0
    0.7500    1.2990    0.0000 C   0  0  0  0  0  0  0  0  0  0  0  0
   -0.7500    1.2990    0.0000 C   0  0  0  0  0  0  0  0  0  0  0  0
   -1.5000    0.0000    0.0000 C   0  0  0  0  0  0  0  0  0  0  0  0
   -0.7500   -1.2990    0.0000 C   0  0  0  0  0  0  0  0  0  0  0  0
   -1.9635   -2.1807    0.0000 C   0  0  0  0  0  0  0  0  0  0  0  0
   -2.9672   -1.0660    0.0000 C   0  0  0  0  0  0  0  0  0  0  0  0
   -4.4344   -1.3779    0.0000 C   0  0  0  0  0  0  0  0  0  0  0  0
   -4.8980   -2.8045    0.0000 C   0  0  0  0  0  0  0  0  0  0  0  0
   -3.8943   -3.9192    0.0000 C   0  0  0  0  0  0  0  0  0  0  0  0
   -2.4271   -3.6073    0.0000 C   0  0  0  0  0  0  0  0  0  0  0  0
  1  2  1  0
  2  3  1  0
  3  4  1  0
  4  5  1  0
  5  6  1  0
  6  7  1  0
  7  8  1  0
  8  9  2  0
  8 10  1  0
 10 11  1  0
 11 12  2  0
 12 13  1  0
 13 14  2  0
 14 15  1  0
 15 16  1  0
 16 17  1  0
 17 18  1  0
 18 19  1  0
 19 20  1  0
 20 21  2  0
 20 22  1  0
 22 23  1  0
 23 24  2  0
 24 25  1  0
 25 26  2  0
 26 27  1  0
 27 28  2  0
 19 29  1  0
 29 30  2  0
  7 31  1  0
 31 32  2  0
 32 33  1  0
 33 34  2  0
 34 35  1  0
 35 36  2  0
 36 37  1  0
 37 38  2  0
 38 39  1  0
 39 40  2  0
 40 41  1  0
 41 42  2  0
 42  2  1  0
 15 11  1  0
 29 16  1  0
 36 31  1  0
 42 37  1  0
 28 23  1  0
M  END
>  <Title>  (1040) 
idABMBgen13

$$$$

     RDKit          2D

  8  7  0  0  0  0  0  0  0  0999 V2000
    0.0000    0.0000    0.0000 C   0  0  0  0  0  0  0  0  0  0  0  0
    1.2990    0.7500    0.0000 C   0  0  0  0  0  0  0  0  0  0  0  0
    2.5981   -0.0000    0.0000 C   0  0  0  0  0  0  0  0  0  0  0  0
    3.8971    0.7500    0.0000 C   0  0  0  0  0  0  0  0  0  0  0  0
    5.1962   -0.0000    0.0000 N   0  0  0  0  0  0  0  0  0  0  0  0
    6.4952    0.7500    0.0000 C   0  0  0  0  0  0  0  0  0  0  0  0
    7.7942   -0.0000    0.0000 C   0  0  0  0  0  0  0  0  0  0  0  0
    6.4952    2.2500    0.0000 C   0  0  0  0  0  0  0  0  0  0  0  0
  1  2  2  0
  2  3  1  0
  3  4  1  0
  4  5  1  0
  5  6  1  0
  6  7  1  0
  6  8  1  0
M  END
>  <Title>  (1041) 
idABMCgen13

$$$$

     RDKit          2D

 18 17  0  0  0  0  0  0  0  0999 V2000
    0.0000    0.0000    0.0000 C   0  0  0  0  0  0  0  0  0  0  0  0
   -0.0000   -1.5000    0.0000 C   0  0  0  0  0  0  0  0  0  0  0  0
   -0.0000   -3.0000    0.0000 C   0  0  0  0  0  0  0  0  0  0  0  0
   -0.0000   -4.5000    0.0000 C   0  0  0  0  0  0  0  0  0  0  0  0
   -0.0000   -6.0000    0.0000 C   0  0  0  0  0  0  0  0  0  0  0  0
   -0.0000   -7.5000    0.0000 C   0  0  0  0  0  0  0  0  0  0  0  0
   -0.0000   -9.0000    0.0000 C   0  0  0  0  0  0  0  0  0  0  0  0
   -0.0000  -10.5000    0.0000 C   0  0  0  0  0  0  0  0  0  0  0  0
   -0.0000  -12.0000    0.0000 C   0  0  0  0  0  0  0  0  0  0  0  0
   -0.0000  -13.5000    0.0000 C   0  0  0  0  0  0  0  0  0  0  0  0
   -0.0000  -15.0000    0.0000 C   0  0  0  0  0  0  0  0  0  0  0  0
   -0.0000  -16.5000    0.0000 C   0  0  0  0  0  0  0  0  0  0  0  0
   -0.0000  -18.0000    0.0000 C   0  0  0  0  0  0  0  0  0  0  0  0
   -0.0000  -19.5000    0.0000 C   0  0  0  0  0  0  0  0  0  0  0  0
   -0.0000  -21.0000    0.0000 C   0  0  0  0  0  0  0  0  0  0  0  0
   -0.0000  -22.5000    0.0000 C   0  0  0  0  0  0  0  0  0  0  0  0
   -0.0000  -24.0000    0.0000 C   0  0  0  0  0  0  0  0  0  0  0  0
   -0.0000  -25.5000    0.0000 C   0  0  0  0  0  0  0  0  0  0  0  0
  1  2  3  0
  2  3  1  0
  3  4  3  0
  4  5  1  0
  5  6  3  0
  6  7  1  0
  7  8  3  0
  8  9  1  0
  9 10  3  0
 10 11  1  0
 11 12  3  0
 12 13  1  0
 13 14  3  0
 14 15  1  0
 15 16  3  0
 16 17  1  0
 17 18  3  0
M  END
>  <Title>  (1042) 
idABMDgen13

$$$$

     RDKit          2D

 32 36  0  0  0  0  0  0  0  0999 V2000
   -3.1476   -2.1380    0.0000 C   0  0  0  0  0  0  0  0  0  0  0  0
   -1.6852   -2.4718    0.0000 C   0  0  0  0  0  0  0  0  0  0  0  0
   -1.3515   -3.9342    0.0000 C   0  0  0  0  0  0  0  0  0  0  0  0
   -0.0000   -4.5850    0.0000 C   0  0  0  0  0  0  0  0  0  0  0  0
    1.3515   -3.9342    0.0000 C   0  0  0  0  0  0  0  0  0  0  0  0
    1.6852   -2.4718    0.0000 C   0  0  0  0  0  0  0  0  0  0  0  0
    3.1476   -2.1380    0.0000 C   0  0  0  0  0  0  0  0  0  0  0  0
    3.5898   -0.7046    0.0000 O   0  0  0  0  0  0  0  0  0  0  0  0
    4.1679   -3.2376    0.0000 N   0  0  0  0  0  0  0  0  0  0  0  0
    5.6303   -2.9038    0.0000 C   0  0  0  0  0  0  0  0  0  0  0  0
    6.2198   -1.5245    0.0000 N   0  0  0  0  0  0  0  0  0  0  0  0
    7.7138   -1.6590    0.0000 N   0  0  0  0  0  0  0  0  0  0  0  0
    8.0476   -3.1214    0.0000 N   0  0  0  0  0  0  0  0  0  0  0  0
    6.7599   -3.8907    0.0000 N   0  0  0  0  0  0  0  0  0  0  0  0
    6.6254   -5.3847    0.0000 N   0  0  0  0  0  0  0  0  0  0  0  0
    7.7550   -6.3716    0.0000 C   0  0  0  0  0  0  0  0  0  0  0  0
    7.1655   -7.7509    0.0000 C   0  0  0  0  0  0  0  0  0  0  0  0
    5.6715   -7.6164    0.0000 N   0  0  0  0  0  0  0  0  0  0  0  0
    4.6846   -8.7460    0.0000 C   0  0  0  0  0  0  0  0  0  0  0  0
    3.2129   -8.4561    0.0000 C   0  0  0  0  0  0  0  0  0  0  0  0
    2.2260   -9.5857    0.0000 C   0  0  0  0  0  0  0  0  0  0  0  0
    2.7108  -11.0052    0.0000 C   0  0  0  0  0  0  0  0  0  0  0  0
    4.1825  -11.2951    0.0000 C   0  0  0  0  0  0  0  0  0  0  0  0
    5.1694  -10.1655    0.0000 C   0  0  0  0  0  0  0  0  0  0  0  0
    5.3378   -6.1540    0.0000 C   0  0  0  0  0  0  0  0  0  0  0  0
    3.9585   -5.5645    0.0000 O   0  0  0  0  0  0  0  0  0  0  0  0
    0.7500   -1.2990    0.0000 C   0  0  0  0  0  0  0  0  0  0  0  0
    1.5000    0.0000    0.0000 C   0  0  0  0  0  0  0  0  0  0  0  0
    0.7500    1.2990    0.0000 C   0  0  0  0  0  0  0  0  0  0  0  0
   -0.7500    1.2990    0.0000 C   0  0  0  0  0  0  0  0  0  0  0  0
   -1.5000    0.0000    0.0000 C   0  0  0  0  0  0  0  0  0  0  0  0
   -0.7500   -1.2990    0.0000 C   0  0  0  0  0  0  0  0  0  0  0  0
  1  2  1  0
  2  3  1  0
  3  4  1  0
  4  5  1  0
  5  6  1  0
  6  7  1  0
  7  8  2  0
  7  9  1  0
  9 10  1  0
 10 11  2  0
 11 12  1  0
 12 13  2  0
 13 14  1  0
 14 15  1  0
 15 16  1  0
 16 17  1  0
 17 18  1  0
 18 19  1  0
 19 20  2  0
 20 21  1  0
 21 22  2  0
 22 23  1  0
 23 24  2  0
 18 25  1  0
 25 26  2  0
  6 27  1  0
 27 28  2  0
 28 29  1  0
 29 30  2  0
 30 31  1  0
 31 32  2  0
 32  2  1  0
 14 10  1  0
 25 15  1  0
 32 27  1  0
 24 19  1  0
M  END
>  <Title>  (1043) 
idABMEgen13

$$$$

     RDKit          2D

 84 86  0  0  0  0  0  0  0  0999 V2000
   -5.2769    2.1089    0.0000 C   0  0  0  0  0  0  0  0  0  0  0  0
   -4.5295    3.4095    0.0000 C   0  0  0  0  0  0  0  0  0  0  0  0
   -5.7972    4.2114    0.0000 C   0  0  0  0  0  0  0  0  0  0  0  0
   -6.9923    5.1179    0.0000 C   0  0  0  0  0  0  0  0  0  0  0  0
   -8.1062    6.1225    0.0000 C   0  0  0  0  0  0  0  0  0  0  0  0
   -9.1309    7.2179    0.0000 C   0  0  0  0  0  0  0  0  0  0  0  0
  -10.0590    8.3963    0.0000 C   0  0  0  0  0  0  0  0  0  0  0  0
  -10.8838    9.6492    0.0000 C   0  0  0  0  0  0  0  0  0  0  0  0
  -11.5994   10.9675    0.0000 C   0  0  0  0  0  0  0  0  0  0  0  0
  -12.2006   12.3417    0.0000 C   0  0  0  0  0  0  0  0  0  0  0  0
  -12.6831   13.7620    0.0000 C   0  0  0  0  0  0  0  0  0  0  0  0
  -13.0435   15.2181    0.0000 C   0  0  0  0  0  0  0  0  0  0  0  0
  -13.2790   16.6994    0.0000 C   0  0  0  0  0  0  0  0  0  0  0  0
  -13.3881   18.1955    0.0000 C   0  0  0  0  0  0  0  0  0  0  0  0
  -13.3699   19.6954    0.0000 C   0  0  0  0  0  0  0  0  0  0  0  0
  -13.2246   21.1883    0.0000 C   0  0  0  0  0  0  0  0  0  0  0  0
  -12.9532   22.6635    0.0000 C   0  0  0  0  0  0  0  0  0  0  0  0
  -12.5576   24.1105    0.0000 C   0  0  0  0  0  0  0  0  0  0  0  0
  -12.0408   25.5186    0.0000 C   0  0  0  0  0  0  0  0  0  0  0  0
  -11.4064   26.8779    0.0000 C   0  0  0  0  0  0  0  0  0  0  0  0
  -10.6590   28.1784    0.0000 C   0  0  0  0  0  0  0  0  0  0  0  0
   -9.8040   29.4109    0.0000 C   0  0  0  0  0  0  0  0  0  0  0  0
   -8.8476   30.5664    0.0000 C   0  0  0  0  0  0  0  0  0  0  0  0
   -7.7967   31.6367    0.0000 C   0  0  0  0  0  0  0  0  0  0  0  0
   -6.6587   32.6140    0.0000 C   0  0  0  0  0  0  0  0  0  0  0  0
   -5.4420   33.4912    0.0000 C   0  0  0  0  0  0  0  0  0  0  0  0
   -4.1553   34.2621    0.0000 C   0  0  0  0  0  0  0  0  0  0  0  0
   -2.8078   34.9212    0.0000 C   0  0  0  0  0  0  0  0  0  0  0  0
   -1.4093   35.4635    0.0000 C   0  0  0  0  0  0  0  0  0  0  0  0
    0.0302   35.8853    0.0000 C   0  0  0  0  0  0  0  0  0  0  0  0
    1.5003   36.1835    0.0000 C   0  0  0  0  0  0  0  0  0  0  0  0
    2.9903   36.3560    0.0000 C   0  0  0  0  0  0  0  0  0  0  0  0
    4.4896   36.4015    0.0000 C   0  0  0  0  0  0  0  0  0  0  0  0
    5.9874   36.3196    0.0000 C   0  0  0  0  0  0  0  0  0  0  0  0
    7.4728   36.1111    0.0000 C   0  0  0  0  0  0  0  0  0  0  0  0
    8.9352   35.7773    0.0000 C   0  0  0  0  0  0  0  0  0  0  0  0
   10.3640   35.3207    0.0000 C   0  0  0  0  0  0  0  0  0  0  0  0
   11.7490   34.7446    0.0000 C   0  0  0  0  0  0  0  0  0  0  0  0
   13.0801   34.0531    0.0000 C   0  0  0  0  0  0  0  0  0  0  0  0
   14.3477   33.2512    0.0000 C   0  0  0  0  0  0  0  0  0  0  0  0
   15.5428   32.3447    0.0000 C   0  0  0  0  0  0  0  0  0  0  0  0
   16.6567   31.3401    0.0000 C   0  0  0  0  0  0  0  0  0  0  0  0
   17.6814   30.2446    0.0000 C   0  0  0  0  0  0  0  0  0  0  0  0
   18.6095   29.0662    0.0000 C   0  0  0  0  0  0  0  0  0  0  0  0
   19.4344   27.8134    0.0000 C   0  0  0  0  0  0  0  0  0  0  0  0
   20.1500   26.4951    0.0000 C   0  0  0  0  0  0  0  0  0  0  0  0
   20.7512   25.1208    0.0000 C   0  0  0  0  0  0  0  0  0  0  0  0
   21.2337   23.7006    0.0000 C   0  0  0  0  0  0  0  0  0  0  0  0
   21.5941   22.2445    0.0000 C   0  0  0  0  0  0  0  0  0  0  0  0
   21.8296   20.7631    0.0000 C   0  0  0  0  0  0  0  0  0  0  0  0
   21.9387   19.2671    0.0000 C   0  0  0  0  0  0  0  0  0  0  0  0
   21.9205   17.7672    0.0000 C   0  0  0  0  0  0  0  0  0  0  0  0
   21.7751   16.2742    0.0000 C   0  0  0  0  0  0  0  0  0  0  0  0
   21.5037   14.7990    0.0000 C   0  0  0  0  0  0  0  0  0  0  0  0
   21.1082   13.3521    0.0000 C   0  0  0  0  0  0  0  0  0  0  0  0
   20.5914   11.9439    0.0000 C   0  0  0  0  0  0  0  0  0  0  0  0
   19.9570   10.5847    0.0000 C   0  0  0  0  0  0  0  0  0  0  0  0
   19.2096    9.2841    0.0000 C   0  0  0  0  0  0  0  0  0  0  0  0
   18.3546    8.0516    0.0000 C   0  0  0  0  0  0  0  0  0  0  0  0
   17.3982    6.8961    0.0000 C   0  0  0  0  0  0  0  0  0  0  0  0
   16.3472    5.8258    0.0000 C   0  0  0  0  0  0  0  0  0  0  0  0
   15.2093    4.8486    0.0000 C   0  0  0  0  0  0  0  0  0  0  0  0
   13.9926    3.9713    0.0000 C   0  0  0  0  0  0  0  0  0  0  0  0
   12.7058    3.2004    0.0000 C   0  0  0  0  0  0  0  0  0  0  0  0
   11.3584    2.5414    0.0000 C   0  0  0  0  0  0  0  0  0  0  0  0
    9.9598    1.9990    0.0000 C   0  0  0  0  0  0  0  0  0  0  0  0
    8.5204    1.5772    0.0000 C   0  0  0  0  0  0  0  0  0  0  0  0
    7.0503    1.2790    0.0000 C   0  0  0  0  0  0  0  0  0  0  0  0
    5.5603    1.1065    0.0000 C   0  0  0  0  0  0  0  0  0  0  0  0
    4.0609    1.0611    0.0000 C   0  0  0  0  0  0  0  0  0  0  0  0
    2.5632    1.1429    0.0000 C   0  0  0  0  0  0  0  0  0  0  0  0
    1.0777    1.3515    0.0000 C   0  0  0  0  0  0  0  0  0  0  0  0
    1.7286    0.0000    0.0000 C   0  0  0  0  0  0  0  0  0  0  0  0
    1.0777   -1.3515    0.0000 C   0  0  0  0  0  0  0  0  0  0  0  0
   -0.3846   -1.6852    0.0000 C   0  0  0  0  0  0  0  0  0  0  0  0
   -1.5574   -0.7500    0.0000 C   0  0  0  0  0  0  0  0  0  0  0  0
   -1.5574    0.7500    0.0000 C   0  0  0  0  0  0  0  0  0  0  0  0
   -0.3846    1.6852    0.0000 C   0  0  0  0  0  0  0  0  0  0  0  0
   -1.8135    2.1418    0.0000 C   0  0  0  0  0  0  0  0  0  0  0  0
   -0.6220    3.0532    0.0000 C   0  0  0  0  0  0  0  0  0  0  0  0
   -0.8156    4.5406    0.0000 C   0  0  0  0  0  0  0  0  0  0  0  0
   -2.2005    5.1168    0.0000 C   0  0  0  0  0  0  0  0  0  0  0  0
   -3.3919    4.2054    0.0000 C   0  0  0  0  0  0  0  0  0  0  0  0
   -3.1984    2.7180    0.0000 C   0  0  0  0  0  0  0  0  0  0  0  0
  1  2  1  0
  2  3  1  0
  3  4  1  0
  4  5  1  0
  5  6  1  0
  6  7  1  0
  7  8  1  0
  8  9  1  0
  9 10  1  0
 10 11  1  0
 11 12  1  0
 12 13  1  0
 13 14  1  0
 14 15  1  0
 15 16  1  0
 16 17  1  0
 17 18  1  0
 18 19  1  0
 19 20  1  0
 20 21  1  0
 21 22  1  0
 22 23  1  0
 23 24  1  0
 24 25  1  0
 25 26  1  0
 26 27  1  0
 27 28  1  0
 28 29  1  0
 29 30  1  0
 30 31  1  0
 31 32  1  0
 32 33  1  0
 33 34  1  0
 34 35  1  0
 35 36  1  0
 36 37  1  0
 37 38  1  0
 38 39  1  0
 39 40  1  0
 40 41  1  0
 41 42  1  0
 42 43  1  0
 43 44  1  0
 44 45  1  0
 45 46  1  0
 46 47  1  0
 47 48  1  0
 48 49  1  0
 49 50  1  0
 50 51  1  0
 51 52  1  0
 52 53  1  0
 53 54  1  0
 54 55  1  0
 55 56  1  0
 56 57  1  0
 57 58  1  0
 58 59  1  0
 59 60  1  0
 60 61  1  0
 61 62  1  0
 62 63  1  0
 63 64  1  0
 64 65  1  0
 65 66  1  0
 66 67  1  0
 67 68  1  0
 68 69  1  0
 69 70  1  0
 70 71  1  0
 71 72  1  0
 72 73  1  0
 73 74  1  0
 74 75  1  0
 75 76  1  0
 76 77  1  0
 77 78  1  0
 78 79  1  0
 79 80  2  0
 80 81  1  0
 81 82  2  0
 82 83  1  0
 83 84  2  0
 84  2  1  0
 78 72  1  0
 84 79  1  0
M  END
>  <Title>  (1044) 
idABMFgen13

$$$$

     RDKit          2D

 32 36  0  0  0  0  0  0  0  0999 V2000
   -3.1476   -2.1380    0.0000 C   0  0  0  0  0  0  0  0  0  0  0  0
   -1.6852   -2.4718    0.0000 C   0  0  0  0  0  0  0  0  0  0  0  0
   -1.3515   -3.9342    0.0000 C   0  0  0  0  0  0  0  0  0  0  0  0
   -0.0000   -4.5850    0.0000 C   0  0  0  0  0  0  0  0  0  0  0  0
    1.3515   -3.9342    0.0000 C   0  0  0  0  0  0  0  0  0  0  0  0
    1.6852   -2.4718    0.0000 C   0  0  0  0  0  0  0  0  0  0  0  0
    3.1476   -2.1380    0.0000 C   0  0  0  0  0  0  0  0  0  0  0  0
    3.5898   -0.7046    0.0000 O   0  0  0  0  0  0  0  0  0  0  0  0
    4.1679   -3.2376    0.0000 N   0  0  0  0  0  0  0  0  0  0  0  0
    5.6303   -2.9038    0.0000 C   0  0  0  0  0  0  0  0  0  0  0  0
    6.2198   -1.5245    0.0000 N   0  0  0  0  0  0  0  0  0  0  0  0
    7.7138   -1.6590    0.0000 N   0  0  0  0  0  0  0  0  0  0  0  0
    8.0476   -3.1214    0.0000 N   0  0  0  0  0  0  0  0  0  0  0  0
    6.7599   -3.8907    0.0000 N   0  0  0  0  0  0  0  0  0  0  0  0
    6.6254   -5.3847    0.0000 N   0  0  0  0  0  0  0  0  0  0  0  0
    7.7550   -6.3716    0.0000 C   0  0  0  0  0  0  0  0  0  0  0  0
    7.1655   -7.7509    0.0000 C   0  0  0  0  0  0  0  0  0  0  0  0
    5.6715   -7.6164    0.0000 C   0  0  0  0  0  0  0  0  0  0  0  0
    4.6846   -8.7460    0.0000 C   0  0  0  0  0  0  0  0  0  0  0  0
    3.2129   -8.4561    0.0000 C   0  0  0  0  0  0  0  0  0  0  0  0
    2.2260   -9.5857    0.0000 C   0  0  0  0  0  0  0  0  0  0  0  0
    2.7108  -11.0052    0.0000 C   0  0  0  0  0  0  0  0  0  0  0  0
    4.1825  -11.2951    0.0000 C   0  0  0  0  0  0  0  0  0  0  0  0
    5.1694  -10.1655    0.0000 C   0  0  0  0  0  0  0  0  0  0  0  0
    5.3378   -6.1540    0.0000 C   0  0  0  0  0  0  0  0  0  0  0  0
    3.9585   -5.5645    0.0000 O   0  0  0  0  0  0  0  0  0  0  0  0
    0.7500   -1.2990    0.0000 C   0  0  0  0  0  0  0  0  0  0  0  0
    1.5000    0.0000    0.0000 C   0  0  0  0  0  0  0  0  0  0  0  0
    0.7500    1.2990    0.0000 C   0  0  0  0  0  0  0  0  0  0  0  0
   -0.7500    1.2990    0.0000 C   0  0  0  0  0  0  0  0  0  0  0  0
   -1.5000    0.0000    0.0000 C   0  0  0  0  0  0  0  0  0  0  0  0
   -0.7500   -1.2990    0.0000 C   0  0  0  0  0  0  0  0  0  0  0  0
  1  2  1  0
  2  3  1  0
  3  4  2  0
  4  5  1  0
  5  6  1  0
  6  7  1  0
  7  8  2  0
  7  9  1  0
  9 10  1  0
 10 11  2  0
 11 12  1  0
 12 13  2  0
 13 14  1  0
 14 15  1  0
 15 16  1  0
 16 17  1  0
 17 18  1  0
 18 19  1  0
 19 20  2  0
 20 21  1  0
 21 22  2  0
 22 23  1  0
 23 24  2  0
 18 25  1  0
 25 26  2  0
  6 27  1  0
 27 28  2  0
 28 29  1  0
 29 30  2  0
 30 31  1  0
 31 32  2  0
 32  2  1  0
 14 10  1  0
 25 15  1  0
 32 27  1  0
 24 19  1  0
M  END
>  <Title>  (1045) 
idABMGgen13

$$$$

     RDKit          2D

 14 16  0  0  0  0  0  0  0  0999 V2000
    0.2010   -6.9694    0.0000 C   0  0  0  0  0  0  0  0  0  0  0  0
    1.5000   -6.2194    0.0000 C   0  0  0  0  0  0  0  0  0  0  0  0
    2.7990   -6.9694    0.0000 O   0  0  0  0  0  0  0  0  0  0  0  0
    1.5000   -4.7194    0.0000 N   0  0  0  0  0  0  0  0  0  0  0  0
    0.4393   -3.6587    0.0000 C   0  0  0  0  0  0  0  0  0  0  0  0
    1.5000   -2.5981    0.0000 C   0  0  0  0  0  0  0  0  0  0  0  0
    0.7500   -1.2990    0.0000 C   0  0  0  0  0  0  0  0  0  0  0  0
    1.5000    0.0000    0.0000 C   0  0  0  0  0  0  0  0  0  0  0  0
    0.7500    1.2990    0.0000 C   0  0  0  0  0  0  0  0  0  0  0  0
   -0.7500    1.2990    0.0000 C   0  0  0  0  0  0  0  0  0  0  0  0
   -1.5000    0.0000    0.0000 C   0  0  0  0  0  0  0  0  0  0  0  0
   -0.7500   -1.2990    0.0000 C   0  0  0  0  0  0  0  0  0  0  0  0
    2.9489   -2.2098    0.0000 C   0  0  0  0  0  0  0  0  0  0  0  0
    2.5607   -3.6587    0.0000 C   0  0  0  0  0  0  0  0  0  0  0  0
  1  2  1  0
  2  3  2  0
  2  4  1  0
  4  5  1  0
  5  6  1  0
  6  7  1  0
  7  8  2  0
  8  9  1  0
  9 10  2  0
 10 11  1  0
 11 12  2  0
  6 13  1  0
 13 14  1  0
 14  4  1  0
 14  6  1  0
 12  7  1  0
M  END
>  <Title>  (1046) 
idABMHgen13

$$$$

     RDKit          2D

 48 54  0  0  0  0  0  0  0  0999 V2000
   -1.1382   -8.3460    0.0000 C   0  0  0  0  0  0  0  0  0  0  0  0
   -0.7500   -6.8971    0.0000 C   0  0  0  0  0  0  0  0  0  0  0  0
    0.7500   -6.8971    0.0000 C   0  0  0  0  0  0  0  0  0  0  0  0
    2.0490   -6.1471    0.0000 C   0  0  0  0  0  0  0  0  0  0  0  0
    2.7990   -4.8481    0.0000 C   0  0  0  0  0  0  0  0  0  0  0  0
    2.7990   -3.3481    0.0000 C   0  0  0  0  0  0  0  0  0  0  0  0
    2.0490   -2.0490    0.0000 C   0  0  0  0  0  0  0  0  0  0  0  0
    3.1097   -0.9884    0.0000 C   0  0  0  0  0  0  0  0  0  0  0  0
    2.7215    0.4605    0.0000 O   0  0  0  0  0  0  0  0  0  0  0  0
    4.5586   -1.3766    0.0000 N   0  0  0  0  0  0  0  0  0  0  0  0
    5.6192   -0.3159    0.0000 C   0  0  0  0  0  0  0  0  0  0  0  0
    5.3846    1.1656    0.0000 N   0  0  0  0  0  0  0  0  0  0  0  0
    6.7211    1.8466    0.0000 N   0  0  0  0  0  0  0  0  0  0  0  0
    7.7818    0.7859    0.0000 N   0  0  0  0  0  0  0  0  0  0  0  0
    7.1008   -0.5506    0.0000 N   0  0  0  0  0  0  0  0  0  0  0  0
    7.7818   -1.8871    0.0000 C   0  0  0  0  0  0  0  0  0  0  0  0
    9.2633   -2.1218    0.0000 C   0  0  0  0  0  0  0  0  0  0  0  0
    9.4979   -3.6033    0.0000 C   0  0  0  0  0  0  0  0  0  0  0  0
    8.1614   -4.2843    0.0000 C   0  0  0  0  0  0  0  0  0  0  0  0
    7.9268   -5.7658    0.0000 C   0  0  0  0  0  0  0  0  0  0  0  0
    9.0925   -6.7098    0.0000 O   0  0  0  0  0  0  0  0  0  0  0  0
    6.5264   -6.3034    0.0000 N   0  0  0  0  0  0  0  0  0  0  0  0
    6.2918   -7.7849    0.0000 C   0  0  0  0  0  0  0  0  0  0  0  0
    4.8914   -8.3224    0.0000 N   0  0  0  0  0  0  0  0  0  0  0  0
    4.6567   -9.8040    0.0000 N   0  0  0  0  0  0  0  0  0  0  0  0
    5.8225  -10.7480    0.0000 N   0  0  0  0  0  0  0  0  0  0  0  0
    7.2228  -10.2104    0.0000 N   0  0  0  0  0  0  0  0  0  0  0  0
    7.4575   -8.7289    0.0000 N   0  0  0  0  0  0  0  0  0  0  0  0
    7.1008   -3.2236    0.0000 C   0  0  0  0  0  0  0  0  0  0  0  0
    5.6192   -3.4583    0.0000 O   0  0  0  0  0  0  0  0  0  0  0  0
    0.7500   -1.2990    0.0000 C   0  0  0  0  0  0  0  0  0  0  0  0
    1.5000    0.0000    0.0000 C   0  0  0  0  0  0  0  0  0  0  0  0
    0.7500    1.2990    0.0000 C   0  0  0  0  0  0  0  0  0  0  0  0
   -0.7500    1.2990    0.0000 C   0  0  0  0  0  0  0  0  0  0  0  0
   -1.5000    0.0000    0.0000 C   0  0  0  0  0  0  0  0  0  0  0  0
   -0.7500   -1.2990    0.0000 C   0  0  0  0  0  0  0  0  0  0  0  0
   -2.0490   -2.0490    0.0000 C   0  0  0  0  0  0  0  0  0  0  0  0
   -2.7990   -0.7500    0.0000 C   0  0  0  0  0  0  0  0  0  0  0  0
   -4.2990   -0.7500    0.0000 C   0  0  0  0  0  0  0  0  0  0  0  0
   -5.0490   -2.0490    0.0000 C   0  0  0  0  0  0  0  0  0  0  0  0
   -4.2990   -3.3481    0.0000 C   0  0  0  0  0  0  0  0  0  0  0  0
   -2.7990   -3.3481    0.0000 C   0  0  0  0  0  0  0  0  0  0  0  0
   -2.7990   -4.8481    0.0000 C   0  0  0  0  0  0  0  0  0  0  0  0
   -4.2990   -4.8481    0.0000 C   0  0  0  0  0  0  0  0  0  0  0  0
   -5.0490   -6.1471    0.0000 C   0  0  0  0  0  0  0  0  0  0  0  0
   -4.2990   -7.4462    0.0000 C   0  0  0  0  0  0  0  0  0  0  0  0
   -2.7990   -7.4462    0.0000 C   0  0  0  0  0  0  0  0  0  0  0  0
   -2.0490   -6.1471    0.0000 C   0  0  0  0  0  0  0  0  0  0  0  0
  1  2  1  0
  2  3  1  0
  3  4  1  0
  4  5  1  0
  5  6  1  0
  6  7  1  0
  7  8  1  0
  8  9  2  0
  8 10  1  0
 10 11  1  0
 11 12  2  0
 12 13  1  0
 13 14  2  0
 14 15  1  0
 15 16  1  0
 16 17  2  0
 17 18  1  0
 18 19  2  0
 19 20  1  0
 20 21  2  0
 20 22  1  0
 22 23  1  0
 23 24  2  0
 24 25  1  0
 25 26  2  0
 26 27  1  0
 27 28  2  0
 19 29  1  0
 29 30  2  0
  7 31  1  0
 31 32  2  0
 32 33  1  0
 33 34  2  0
 34 35  1  0
 35 36  2  0
 36 37  1  0
 37 38  2  0
 38 39  1  0
 39 40  2  0
 40 41  1  0
 41 42  2  0
 42 43  1  0
 43 44  2  0
 44 45  1  0
 45 46  2  0
 46 47  1  0
 47 48  2  0
 48  2  1  0
 15 11  1  0
 29 16  1  0
 36 31  1  0
 42 37  1  0
 48 43  1  0
 28 23  1  0
M  END
>  <Title>  (1047) 
idABMIgen13

$$$$

     RDKit          2D

  3  2  0  0  0  0  0  0  0  0999 V2000
    0.0000    0.0000    0.0000 C   0  0  0  0  0  0  0  0  0  0  0  0
    1.2990    0.7500    0.0000 C   0  0  0  0  0  0  0  0  0  0  0  0
    2.5981   -0.0000    0.0000 C   0  0  0  0  0  0  0  0  0  0  0  0
  1  2  1  0
  2  3  1  0
M  END
>  <Title>  (1048) 
idABMJgen13

$$$$

     RDKit          2D

 11 12  0  0  0  0  0  0  0  0999 V2000
    1.9598    0.0000    0.0000 C   0  0  0  0  0  0  0  0  0  0  0  0
    1.3858   -1.3858    0.0000 C   0  0  0  0  0  0  0  0  0  0  0  0
   -0.0000   -1.9598    0.0000 C   0  0  0  0  0  0  0  0  0  0  0  0
   -1.3858   -1.3858    0.0000 C   0  0  0  0  0  0  0  0  0  0  0  0
   -1.9598    0.0000    0.0000 N   0  0  0  0  0  0  0  0  0  0  0  0
   -3.4552    0.1177    0.0000 N   0  0  0  0  0  0  0  0  0  0  0  0
   -3.8054    1.5762    0.0000 N   0  0  0  0  0  0  0  0  0  0  0  0
   -2.5264    2.3600    0.0000 N   0  0  0  0  0  0  0  0  0  0  0  0
   -1.3858    1.3858    0.0000 C   0  0  0  0  0  0  0  0  0  0  0  0
    0.0000    1.9598    0.0000 C   0  0  0  0  0  0  0  0  0  0  0  0
    1.3858    1.3858    0.0000 C   0  0  0  0  0  0  0  0  0  0  0  0
  1  2  1  0
  2  3  1  0
  3  4  1  0
  4  5  1  0
  5  6  1  0
  6  7  2  0
  7  8  1  0
  8  9  2  0
  9 10  1  0
 10 11  1  0
 11  1  1  0
  9  5  1  0
M  END
>  <Title>  (1049) 
idABMKgen13

$$$$

     RDKit          2D

 31 35  0  0  0  0  0  0  0  0999 V2000
   -3.4182    0.0420    0.0000 C   0  0  0  0  0  0  0  0  0  0  0  0
   -3.8817   -1.3846    0.0000 C   0  0  0  0  0  0  0  0  0  0  0  0
   -5.3083   -1.8481    0.0000 C   0  0  0  0  0  0  0  0  0  0  0  0
   -5.3083   -3.3481    0.0000 C   0  0  0  0  0  0  0  0  0  0  0  0
   -3.8817   -3.8116    0.0000 N   0  0  0  0  0  0  0  0  0  0  0  0
   -3.0000   -2.5981    0.0000 N   0  0  0  0  0  0  0  0  0  0  0  0
   -1.5000   -2.5981    0.0000 C   0  0  0  0  0  0  0  0  0  0  0  0
   -0.7500   -3.8971    0.0000 C   0  0  0  0  0  0  0  0  0  0  0  0
    0.7500   -3.8971    0.0000 C   0  0  0  0  0  0  0  0  0  0  0  0
    1.5000   -2.5981    0.0000 C   0  0  0  0  0  0  0  0  0  0  0  0
    3.0000   -2.5981    0.0000 N   0  0  0  0  0  0  0  0  0  0  0  0
    3.8817   -1.3846    0.0000 C   0  0  0  0  0  0  0  0  0  0  0  0
    5.3083   -1.8481    0.0000 C   0  0  0  0  0  0  0  0  0  0  0  0
    5.3083   -3.3481    0.0000 C   0  0  0  0  0  0  0  0  0  0  0  0
    6.5218   -4.2298    0.0000 C   0  0  0  0  0  0  0  0  0  0  0  0
    7.8921   -3.6196    0.0000 O   0  0  0  0  0  0  0  0  0  0  0  0
    6.3650   -5.7215    0.0000 N   0  0  0  0  0  0  0  0  0  0  0  0
    7.5785   -6.6032    0.0000 C   0  0  0  0  0  0  0  0  0  0  0  0
    7.4217   -8.0950    0.0000 N   0  0  0  0  0  0  0  0  0  0  0  0
    8.6353   -8.9767    0.0000 N   0  0  0  0  0  0  0  0  0  0  0  0
   10.0056   -8.3666    0.0000 N   0  0  0  0  0  0  0  0  0  0  0  0
   10.1624   -6.8748    0.0000 N   0  0  0  0  0  0  0  0  0  0  0  0
    8.9488   -5.9931    0.0000 N   0  0  0  0  0  0  0  0  0  0  0  0
    3.8817   -3.8116    0.0000 C   0  0  0  0  0  0  0  0  0  0  0  0
    3.4182   -5.2382    0.0000 O   0  0  0  0  0  0  0  0  0  0  0  0
    0.7500   -1.2990    0.0000 C   0  0  0  0  0  0  0  0  0  0  0  0
    1.5000    0.0000    0.0000 C   0  0  0  0  0  0  0  0  0  0  0  0
    0.7500    1.2990    0.0000 C   0  0  0  0  0  0  0  0  0  0  0  0
   -0.7500    1.2990    0.0000 C   0  0  0  0  0  0  0  0  0  0  0  0
   -1.5000    0.0000    0.0000 C   0  0  0  0  0  0  0  0  0  0  0  0
   -0.7500   -1.2990    0.0000 C   0  0  0  0  0  0  0  0  0  0  0  0
  1  2  1  0
  2  3  2  0
  3  4  1  0
  4  5  2  0
  5  6  1  0
  6  7  1  0
  7  8  2  0
  8  9  1  0
  9 10  2  0
 10 11  1  0
 11 12  1  0
 12 13  1  0
 13 14  2  0
 14 15  1  0
 15 16  2  0
 15 17  1  0
 17 18  1  0
 18 19  2  0
 19 20  1  0
 20 21  2  0
 21 22  1  0
 22 23  2  0
 14 24  1  0
 24 25  2  0
 10 26  1  0
 26 27  2  0
 27 28  1  0
 28 29  2  0
 29 30  1  0
 30 31  2  0
  6  2  1  0
 31  7  1  0
 24 11  1  0
 31 26  1  0
 23 18  1  0
M  END
>  <Title>  (1050) 
idABMLgen13

$$$$

     RDKit          2D

 17 18  0  0  0  0  0  0  0  0999 V2000
    8.0260    3.8971    0.0000 C   0  0  0  0  0  0  0  0  0  0  0  0
    7.2760    2.5981    0.0000 C   0  0  0  0  0  0  0  0  0  0  0  0
    5.7760    2.5981    0.0000 C   0  0  0  0  0  0  0  0  0  0  0  0
    5.0260    1.2990    0.0000 C   0  0  0  0  0  0  0  0  0  0  0  0
    3.5260    1.2990    0.0000 C   0  0  0  0  0  0  0  0  0  0  0  0
    2.7760    2.5981    0.0000 O   0  0  0  0  0  0  0  0  0  0  0  0
    2.7760    0.0000    0.0000 N   0  0  0  0  0  0  0  0  0  0  0  0
    1.2760    0.0000    0.0000 C   0  0  0  0  0  0  0  0  0  0  0  0
    0.3943    1.2135    0.0000 N   0  0  0  0  0  0  0  0  0  0  0  0
   -1.0323    0.7500    0.0000 N   0  0  0  0  0  0  0  0  0  0  0  0
   -1.0323   -0.7500    0.0000 N   0  0  0  0  0  0  0  0  0  0  0  0
    0.3943   -1.2135    0.0000 N   0  0  0  0  0  0  0  0  0  0  0  0
    0.8578   -2.6401    0.0000 C   0  0  0  0  0  0  0  0  0  0  0  0
   -0.0239   -3.8536    0.0000 C   0  0  0  0  0  0  0  0  0  0  0  0
    0.8578   -5.0672    0.0000 C   0  0  0  0  0  0  0  0  0  0  0  0
    2.2844   -4.6036    0.0000 N   0  0  0  0  0  0  0  0  0  0  0  0
    2.2844   -3.1036    0.0000 C   0  0  0  0  0  0  0  0  0  0  0  0
  1  2  2  0
  2  3  1  0
  3  4  1  0
  4  5  1  0
  5  6  2  0
  5  7  1  0
  7  8  1  0
  8  9  2  0
  9 10  1  0
 10 11  2  0
 11 12  1  0
 12 13  1  0
 13 14  2  0
 14 15  1  0
 15 16  1  0
 16 17  1  0
 12  8  1  0
 17 13  1  0
M  END
>  <Title>  (1051) 
idABMMgen13

$$$$

     RDKit          2D

 10 11  0  0  0  0  0  0  0  0999 V2000
   -3.5736    1.2902    0.0000 O   0  0  0  0  0  0  0  0  0  0  0  0
   -2.1470    1.7537    0.0000 C   0  0  0  0  0  0  0  0  0  0  0  0
   -1.8351    3.2209    0.0000 C   0  0  0  0  0  0  0  0  0  0  0  0
   -0.4086    3.6844    0.0000 C   0  0  0  0  0  0  0  0  0  0  0  0
    0.7062    2.6807    0.0000 N   0  0  0  0  0  0  0  0  0  0  0  0
    0.3943    1.2135    0.0000 C   0  0  0  0  0  0  0  0  0  0  0  0
    1.2760    0.0000    0.0000 N   0  0  0  0  0  0  0  0  0  0  0  0
    0.3943   -1.2135    0.0000 N   0  0  0  0  0  0  0  0  0  0  0  0
   -1.0323   -0.7500    0.0000 N   0  0  0  0  0  0  0  0  0  0  0  0
   -1.0323    0.7500    0.0000 N   0  0  0  0  0  0  0  0  0  0  0  0
  1  2  2  0
  2  3  1  0
  3  4  2  0
  4  5  1  0
  5  6  1  0
  6  7  2  0
  7  8  1  0
  8  9  2  0
  9 10  1  0
 10  2  1  0
 10  6  1  0
M  END
>  <Title>  (1052) 
idABMNgen13

$$$$

     RDKit          2D

 39 44  0  0  0  0  0  0  0  0999 V2000
   -3.4182    0.0420    0.0000 C   0  0  0  0  0  0  0  0  0  0  0  0
   -3.8817   -1.3846    0.0000 C   0  0  0  0  0  0  0  0  0  0  0  0
   -5.3083   -1.8481    0.0000 C   0  0  0  0  0  0  0  0  0  0  0  0
   -5.3083   -3.3481    0.0000 C   0  0  0  0  0  0  0  0  0  0  0  0
   -3.8817   -3.8116    0.0000 C   0  0  0  0  0  0  0  0  0  0  0  0
   -3.0000   -2.5981    0.0000 C   0  0  0  0  0  0  0  0  0  0  0  0
   -1.5000   -2.5981    0.0000 C   0  0  0  0  0  0  0  0  0  0  0  0
   -0.7500   -3.8971    0.0000 C   0  0  0  0  0  0  0  0  0  0  0  0
    0.7500   -3.8971    0.0000 C   0  0  0  0  0  0  0  0  0  0  0  0
    1.5000   -2.5981    0.0000 C   0  0  0  0  0  0  0  0  0  0  0  0
    3.0000   -2.5981    0.0000 C   0  0  0  0  0  0  0  0  0  0  0  0
    3.7500   -1.2990    0.0000 O   0  0  0  0  0  0  0  0  0  0  0  0
    3.7500   -3.8971    0.0000 N   0  0  0  0  0  0  0  0  0  0  0  0
    5.2500   -3.8971    0.0000 C   0  0  0  0  0  0  0  0  0  0  0  0
    6.1317   -2.6836    0.0000 N   0  0  0  0  0  0  0  0  0  0  0  0
    7.5583   -3.1471    0.0000 N   0  0  0  0  0  0  0  0  0  0  0  0
    7.5583   -4.6471    0.0000 N   0  0  0  0  0  0  0  0  0  0  0  0
    6.1317   -5.1106    0.0000 N   0  0  0  0  0  0  0  0  0  0  0  0
    5.6682   -6.5372    0.0000 N   0  0  0  0  0  0  0  0  0  0  0  0
    6.5498   -7.7508    0.0000 C   0  0  0  0  0  0  0  0  0  0  0  0
    5.6682   -8.9643    0.0000 C   0  0  0  0  0  0  0  0  0  0  0  0
    4.2416   -8.5008    0.0000 N   0  0  0  0  0  0  0  0  0  0  0  0
    3.0280   -9.3824    0.0000 C   0  0  0  0  0  0  0  0  0  0  0  0
    3.1848  -10.8742    0.0000 O   0  0  0  0  0  0  0  0  0  0  0  0
    1.6577   -8.7723    0.0000 N   0  0  0  0  0  0  0  0  0  0  0  0
    0.4442   -9.6540    0.0000 C   0  0  0  0  0  0  0  0  0  0  0  0
   -0.9261   -9.0439    0.0000 N   0  0  0  0  0  0  0  0  0  0  0  0
   -2.1396   -9.9256    0.0000 N   0  0  0  0  0  0  0  0  0  0  0  0
   -1.9829  -11.4174    0.0000 N   0  0  0  0  0  0  0  0  0  0  0  0
   -0.6125  -12.0275    0.0000 N   0  0  0  0  0  0  0  0  0  0  0  0
    0.6010  -11.1458    0.0000 N   0  0  0  0  0  0  0  0  0  0  0  0
    4.2416   -7.0008    0.0000 C   0  0  0  0  0  0  0  0  0  0  0  0
    3.0280   -6.1191    0.0000 O   0  0  0  0  0  0  0  0  0  0  0  0
    0.7500   -1.2990    0.0000 C   0  0  0  0  0  0  0  0  0  0  0  0
    1.5000    0.0000    0.0000 C   0  0  0  0  0  0  0  0  0  0  0  0
    0.7500    1.2990    0.0000 C   0  0  0  0  0  0  0  0  0  0  0  0
   -0.7500    1.2990    0.0000 C   0  0  0  0  0  0  0  0  0  0  0  0
   -1.5000    0.0000    0.0000 C   0  0  0  0  0  0  0  0  0  0  0  0
   -0.7500   -1.2990    0.0000 C   0  0  0  0  0  0  0  0  0  0  0  0
  1  2  1  0
  2  3  1  0
  3  4  1  0
  4  5  1  0
  5  6  1  0
  6  7  1  0
  7  8  2  0
  8  9  1  0
  9 10  2  0
 10 11  1  0
 11 12  2  0
 11 13  1  0
 13 14  1  0
 14 15  2  0
 15 16  1  0
 16 17  2  0
 17 18  1  0
 18 19  1  0
 19 20  1  0
 20 21  1  0
 21 22  1  0
 22 23  1  0
 23 24  2  0
 23 25  1  0
 25 26  1  0
 26 27  2  0
 27 28  1  0
 28 29  2  0
 29 30  1  0
 30 31  2  0
 22 32  1  0
 32 33  2  0
 10 34  1  0
 34 35  2  0
 35 36  1  0
 36 37  2  0
 37 38  1  0
 38 39  2  0
  6  2  1  0
 39  7  1  0
 18 14  1  0
 32 19  1  0
 39 34  1  0
 31 26  1  0
M  END
>  <Title>  (1053) 
idABMOgen13

$$$$

     RDKit          2D

 76 78  0  0  0  0  0  0  0  0999 V2000
   13.2948    8.0876    0.0000 C   0  0  0  0  0  0  0  0  0  0  0  0
   14.2014    6.8926    0.0000 C   0  0  0  0  0  0  0  0  0  0  0  0
   15.5235    7.6011    0.0000 C   0  0  0  0  0  0  0  0  0  0  0  0
   16.9999    7.8665    0.0000 C   0  0  0  0  0  0  0  0  0  0  0  0
   18.4860    7.6626    0.0000 C   0  0  0  0  0  0  0  0  0  0  0  0
   19.8363    7.0095    0.0000 C   0  0  0  0  0  0  0  0  0  0  0  0
   20.9188    5.9711    0.0000 C   0  0  0  0  0  0  0  0  0  0  0  0
   21.6273    4.6490    0.0000 C   0  0  0  0  0  0  0  0  0  0  0  0
   21.8927    3.1726    0.0000 C   0  0  0  0  0  0  0  0  0  0  0  0
   21.6888    1.6865    0.0000 C   0  0  0  0  0  0  0  0  0  0  0  0
   21.0357    0.3362    0.0000 C   0  0  0  0  0  0  0  0  0  0  0  0
   19.9972   -0.7462    0.0000 C   0  0  0  0  0  0  0  0  0  0  0  0
   18.6751   -1.4548    0.0000 C   0  0  0  0  0  0  0  0  0  0  0  0
   17.1988   -1.7201    0.0000 C   0  0  0  0  0  0  0  0  0  0  0  0
   15.7127   -1.5163    0.0000 C   0  0  0  0  0  0  0  0  0  0  0  0
   14.3624   -0.8632    0.0000 C   0  0  0  0  0  0  0  0  0  0  0  0
   13.2799    0.1753    0.0000 C   0  0  0  0  0  0  0  0  0  0  0  0
   12.5714    1.4974    0.0000 C   0  0  0  0  0  0  0  0  0  0  0  0
   11.9602    0.0000    0.0000 C   0  0  0  0  0  0  0  0  0  0  0  0
   11.8763   -1.4146    0.0000 C   0  0  0  0  0  0  0  0  0  0  0  0
   11.6256   -2.8093    0.0000 C   0  0  0  0  0  0  0  0  0  0  0  0
   11.2118   -4.1646    0.0000 C   0  0  0  0  0  0  0  0  0  0  0  0
   10.6405   -5.4614    0.0000 C   0  0  0  0  0  0  0  0  0  0  0  0
    9.9199   -6.6815    0.0000 C   0  0  0  0  0  0  0  0  0  0  0  0
    9.0600   -7.8079    0.0000 C   0  0  0  0  0  0  0  0  0  0  0  0
    8.0730   -8.8247    0.0000 C   0  0  0  0  0  0  0  0  0  0  0  0
    6.9726   -9.7175    0.0000 C   0  0  0  0  0  0  0  0  0  0  0  0
    5.7743  -10.4740    0.0000 C   0  0  0  0  0  0  0  0  0  0  0  0
    4.4950  -11.0834    0.0000 C   0  0  0  0  0  0  0  0  0  0  0  0
    3.1526  -11.5373    0.0000 C   0  0  0  0  0  0  0  0  0  0  0  0
    1.7659  -11.8291    0.0000 C   0  0  0  0  0  0  0  0  0  0  0  0
    0.3544  -11.9550    0.0000 C   0  0  0  0  0  0  0  0  0  0  0  0
   -1.0620  -11.9130    0.0000 C   0  0  0  0  0  0  0  0  0  0  0  0
   -2.4636  -11.7038    0.0000 C   0  0  0  0  0  0  0  0  0  0  0  0
   -3.8305  -11.3302    0.0000 C   0  0  0  0  0  0  0  0  0  0  0  0
   -5.1437  -10.7977    0.0000 C   0  0  0  0  0  0  0  0  0  0  0  0
   -6.3847  -10.1135    0.0000 C   0  0  0  0  0  0  0  0  0  0  0  0
   -7.5360   -9.2874    0.0000 C   0  0  0  0  0  0  0  0  0  0  0  0
   -8.5816   -8.3309    0.0000 C   0  0  0  0  0  0  0  0  0  0  0  0
   -9.5066   -7.2575    0.0000 C   0  0  0  0  0  0  0  0  0  0  0  0
  -10.2983   -6.0821    0.0000 C   0  0  0  0  0  0  0  0  0  0  0  0
  -10.9454   -4.8214    0.0000 C   0  0  0  0  0  0  0  0  0  0  0  0
  -11.4388   -3.4931    0.0000 C   0  0  0  0  0  0  0  0  0  0  0  0
  -11.7716   -2.1156    0.0000 C   0  0  0  0  0  0  0  0  0  0  0  0
  -11.9392   -0.7085    0.0000 C   0  0  0  0  0  0  0  0  0  0  0  0
  -11.9392    0.7085    0.0000 C   0  0  0  0  0  0  0  0  0  0  0  0
  -11.7716    2.1156    0.0000 C   0  0  0  0  0  0  0  0  0  0  0  0
  -11.4388    3.4931    0.0000 C   0  0  0  0  0  0  0  0  0  0  0  0
  -10.9454    4.8214    0.0000 C   0  0  0  0  0  0  0  0  0  0  0  0
  -10.2983    6.0821    0.0000 C   0  0  0  0  0  0  0  0  0  0  0  0
   -9.5066    7.2575    0.0000 C   0  0  0  0  0  0  0  0  0  0  0  0
   -8.5816    8.3309    0.0000 C   0  0  0  0  0  0  0  0  0  0  0  0
   -7.5360    9.2874    0.0000 C   0  0  0  0  0  0  0  0  0  0  0  0
   -6.3847   10.1135    0.0000 C   0  0  0  0  0  0  0  0  0  0  0  0
   -5.1437   10.7977    0.0000 C   0  0  0  0  0  0  0  0  0  0  0  0
   -3.8305   11.3302    0.0000 C   0  0  0  0  0  0  0  0  0  0  0  0
   -2.4636   11.7038    0.0000 C   0  0  0  0  0  0  0  0  0  0  0  0
   -1.0620   11.9130    0.0000 C   0  0  0  0  0  0  0  0  0  0  0  0
    0.3544   11.9550    0.0000 C   0  0  0  0  0  0  0  0  0  0  0  0
    1.7659   11.8291    0.0000 C   0  0  0  0  0  0  0  0  0  0  0  0
    3.1526   11.5373    0.0000 C   0  0  0  0  0  0  0  0  0  0  0  0
    4.4950   11.0834    0.0000 C   0  0  0  0  0  0  0  0  0  0  0  0
    5.7743   10.4740    0.0000 C   0  0  0  0  0  0  0  0  0  0  0  0
    6.9726    9.7175    0.0000 C   0  0  0  0  0  0  0  0  0  0  0  0
    8.0730    8.8247    0.0000 C   0  0  0  0  0  0  0  0  0  0  0  0
    9.0600    7.8079    0.0000 C   0  0  0  0  0  0  0  0  0  0  0  0
    9.9199    6.6815    0.0000 C   0  0  0  0  0  0  0  0  0  0  0  0
   10.6405    5.4614    0.0000 C   0  0  0  0  0  0  0  0  0  0  0  0
   11.2118    4.1646    0.0000 C   0  0  0  0  0  0  0  0  0  0  0  0
   12.3060    2.9737    0.0000 C   0  0  0  0  0  0  0  0  0  0  0  0
   12.5099    4.4598    0.0000 C   0  0  0  0  0  0  0  0  0  0  0  0
   13.3528    3.2190    0.0000 C   0  0  0  0  0  0  0  0  0  0  0  0
   14.8488    3.3286    0.0000 C   0  0  0  0  0  0  0  0  0  0  0  0
   15.5019    4.6789    0.0000 C   0  0  0  0  0  0  0  0  0  0  0  0
   14.6590    5.9197    0.0000 C   0  0  0  0  0  0  0  0  0  0  0  0
   13.1630    5.8101    0.0000 C   0  0  0  0  0  0  0  0  0  0  0  0
  1  2  1  0
  2  3  1  0
  3  4  1  0
  4  5  1  0
  5  6  1  0
  6  7  1  0
  7  8  1  0
  8  9  1  0
  9 10  1  0
 10 11  1  0
 11 12  1  0
 12 13  1  0
 13 14  1  0
 14 15  1  0
 15 16  1  0
 16 17  1  0
 17 18  1  0
 18 19  1  0
 19 20  1  0
 20 21  1  0
 21 22  2  0
 22 23  1  0
 23 24  2  0
 24 25  1  0
 25 26  2  0
 26 27  1  0
 27 28  2  0
 28 29  1  0
 29 30  2  0
 30 31  1  0
 31 32  2  0
 32 33  1  0
 33 34  2  0
 34 35  1  0
 35 36  2  0
 36 37  1  0
 37 38  2  0
 38 39  1  0
 39 40  2  0
 40 41  1  0
 41 42  2  0
 42 43  1  0
 43 44  2  0
 44 45  1  0
 45 46  2  0
 46 47  1  0
 47 48  2  0
 48 49  1  0
 49 50  2  0
 50 51  1  0
 51 52  2  0
 52 53  1  0
 53 54  2  0
 54 55  1  0
 55 56  2  0
 56 57  1  0
 57 58  2  0
 58 59  1  0
 59 60  2  0
 60 61  1  0
 61 62  2  0
 62 63  1  0
 63 64  2  0
 64 65  1  0
 65 66  2  0
 66 67  1  0
 67 68  2  0
 68 69  1  0
 69 70  2  0
 70 71  1  0
 71 72  2  0
 72 73  1  0
 73 74  2  0
 74 75  1  0
 75 76  2  0
 76  2  1  0
 70 18  1  0
 76 71  1  0
M  END
>  <Title>  (1054) 
idABMPgen13

$$$$

     RDKit          2D

 31 35  0  0  0  0  0  0  0  0999 V2000
   -2.6401   -3.1891    0.0000 C   0  0  0  0  0  0  0  0  0  0  0  0
   -1.2135   -2.7256    0.0000 C   0  0  0  0  0  0  0  0  0  0  0  0
   -0.0000   -3.6073    0.0000 C   0  0  0  0  0  0  0  0  0  0  0  0
    1.2135   -2.7256    0.0000 C   0  0  0  0  0  0  0  0  0  0  0  0
    2.6401   -3.1891    0.0000 C   0  0  0  0  0  0  0  0  0  0  0  0
    2.9520   -4.6564    0.0000 C   0  0  0  0  0  0  0  0  0  0  0  0
    4.3223   -5.2665    0.0000 C   0  0  0  0  0  0  0  0  0  0  0  0
    4.1655   -6.7583    0.0000 N   0  0  0  0  0  0  0  0  0  0  0  0
    2.6983   -7.0701    0.0000 N   0  0  0  0  0  0  0  0  0  0  0  0
    1.9483   -5.7711    0.0000 N   0  0  0  0  0  0  0  0  0  0  0  0
    0.4565   -5.6143    0.0000 N   0  0  0  0  0  0  0  0  0  0  0  0
   -0.2935   -4.3153    0.0000 C   0  0  0  0  0  0  0  0  0  0  0  0
   -1.7607   -4.6271    0.0000 C   0  0  0  0  0  0  0  0  0  0  0  0
   -1.9175   -6.1189    0.0000 C   0  0  0  0  0  0  0  0  0  0  0  0
   -3.2166   -6.8689    0.0000 C   0  0  0  0  0  0  0  0  0  0  0  0
   -3.2166   -8.3689    0.0000 O   0  0  0  0  0  0  0  0  0  0  0  0
   -4.5156   -6.1189    0.0000 N   0  0  0  0  0  0  0  0  0  0  0  0
   -5.8146   -6.8689    0.0000 C   0  0  0  0  0  0  0  0  0  0  0  0
   -5.8146   -8.3689    0.0000 N   0  0  0  0  0  0  0  0  0  0  0  0
   -7.1137   -9.1189    0.0000 N   0  0  0  0  0  0  0  0  0  0  0  0
   -8.4127   -8.3689    0.0000 N   0  0  0  0  0  0  0  0  0  0  0  0
   -8.4127   -6.8689    0.0000 N   0  0  0  0  0  0  0  0  0  0  0  0
   -7.1137   -6.1189    0.0000 N   0  0  0  0  0  0  0  0  0  0  0  0
   -0.5472   -6.7290    0.0000 C   0  0  0  0  0  0  0  0  0  0  0  0
   -0.2353   -8.1962    0.0000 O   0  0  0  0  0  0  0  0  0  0  0  0
    0.7500   -1.2990    0.0000 C   0  0  0  0  0  0  0  0  0  0  0  0
    1.5000    0.0000    0.0000 C   0  0  0  0  0  0  0  0  0  0  0  0
    0.7500    1.2990    0.0000 C   0  0  0  0  0  0  0  0  0  0  0  0
   -0.7500    1.2990    0.0000 C   0  0  0  0  0  0  0  0  0  0  0  0
   -1.5000    0.0000    0.0000 C   0  0  0  0  0  0  0  0  0  0  0  0
   -0.7500   -1.2990    0.0000 C   0  0  0  0  0  0  0  0  0  0  0  0
  1  2  1  0
  2  3  2  0
  3  4  1  0
  4  5  1  0
  5  6  1  0
  6  7  2  0
  7  8  1  0
  8  9  2  0
  9 10  1  0
 10 11  1  0
 11 12  1  0
 12 13  1  0
 13 14  2  0
 14 15  1  0
 15 16  2  0
 15 17  1  0
 17 18  1  0
 18 19  2  0
 19 20  1  0
 20 21  2  0
 21 22  1  0
 22 23  2  0
 14 24  1  0
 24 25  2  0
  4 26  1  0
 26 27  2  0
 27 28  1  0
 28 29  2  0
 29 30  1  0
 30 31  2  0
 31  2  1  0
 10  6  1  0
 24 11  1  0
 31 26  1  0
 23 18  1  0
M  END
>  <Title>  (1055) 
idABMQgen13

$$$$

     RDKit          2D

 68 68  0  0  0  0  0  0  0  0999 V2000
   94.5000    0.0000    0.0000 C   0  0  0  0  0  0  0  0  0  0  0  0
   93.0000    0.0000    0.0000 C   0  0  0  0  0  0  0  0  0  0  0  0
   91.5000    0.0000    0.0000 C   0  0  0  0  0  0  0  0  0  0  0  0
   90.0000    0.0000    0.0000 C   0  0  0  0  0  0  0  0  0  0  0  0
   88.5000    0.0000    0.0000 C   0  0  0  0  0  0  0  0  0  0  0  0
   87.0000    0.0000    0.0000 C   0  0  0  0  0  0  0  0  0  0  0  0
   85.5000    0.0000    0.0000 C   0  0  0  0  0  0  0  0  0  0  0  0
   84.0000    0.0000    0.0000 C   0  0  0  0  0  0  0  0  0  0  0  0
   82.5000    0.0000    0.0000 C   0  0  0  0  0  0  0  0  0  0  0  0
   81.0000    0.0000    0.0000 C   0  0  0  0  0  0  0  0  0  0  0  0
   79.5000    0.0000    0.0000 C   0  0  0  0  0  0  0  0  0  0  0  0
   78.0000    0.0000    0.0000 C   0  0  0  0  0  0  0  0  0  0  0  0
   76.5000    0.0000    0.0000 C   0  0  0  0  0  0  0  0  0  0  0  0
   75.0000    0.0000    0.0000 C   0  0  0  0  0  0  0  0  0  0  0  0
   73.5000    0.0000    0.0000 C   0  0  0  0  0  0  0  0  0  0  0  0
   72.0000    0.0000    0.0000 C   0  0  0  0  0  0  0  0  0  0  0  0
   70.5000    0.0000    0.0000 C   0  0  0  0  0  0  0  0  0  0  0  0
   69.0000    0.0000    0.0000 C   0  0  0  0  0  0  0  0  0  0  0  0
   67.5000    0.0000    0.0000 C   0  0  0  0  0  0  0  0  0  0  0  0
   66.0000    0.0000    0.0000 C   0  0  0  0  0  0  0  0  0  0  0  0
   64.5000    0.0000    0.0000 C   0  0  0  0  0  0  0  0  0  0  0  0
   63.0000    0.0000    0.0000 C   0  0  0  0  0  0  0  0  0  0  0  0
   61.5000    0.0000    0.0000 C   0  0  0  0  0  0  0  0  0  0  0  0
   60.0000    0.0000    0.0000 C   0  0  0  0  0  0  0  0  0  0  0  0
   58.5000    0.0000    0.0000 C   0  0  0  0  0  0  0  0  0  0  0  0
   57.0000    0.0000    0.0000 C   0  0  0  0  0  0  0  0  0  0  0  0
   55.5000    0.0000    0.0000 C   0  0  0  0  0  0  0  0  0  0  0  0
   54.0000    0.0000    0.0000 C   0  0  0  0  0  0  0  0  0  0  0  0
   52.5000    0.0000    0.0000 C   0  0  0  0  0  0  0  0  0  0  0  0
   51.0000    0.0000    0.0000 C   0  0  0  0  0  0  0  0  0  0  0  0
   49.5000    0.0000    0.0000 C   0  0  0  0  0  0  0  0  0  0  0  0
   48.0000    0.0000    0.0000 C   0  0  0  0  0  0  0  0  0  0  0  0
   46.5000    0.0000    0.0000 C   0  0  0  0  0  0  0  0  0  0  0  0
   45.0000    0.0000    0.0000 C   0  0  0  0  0  0  0  0  0  0  0  0
   43.5000    0.0000    0.0000 C   0  0  0  0  0  0  0  0  0  0  0  0
   42.0000    0.0000    0.0000 C   0  0  0  0  0  0  0  0  0  0  0  0
   40.5000    0.0000    0.0000 C   0  0  0  0  0  0  0  0  0  0  0  0
   39.0000    0.0000    0.0000 C   0  0  0  0  0  0  0  0  0  0  0  0
   37.5000    0.0000    0.0000 C   0  0  0  0  0  0  0  0  0  0  0  0
   36.0000    0.0000    0.0000 C   0  0  0  0  0  0  0  0  0  0  0  0
   34.5000    0.0000    0.0000 C   0  0  0  0  0  0  0  0  0  0  0  0
   33.0000    0.0000    0.0000 C   0  0  0  0  0  0  0  0  0  0  0  0
   31.5000    0.0000    0.0000 C   0  0  0  0  0  0  0  0  0  0  0  0
   30.0000    0.0000    0.0000 C   0  0  0  0  0  0  0  0  0  0  0  0
   28.5000    0.0000    0.0000 C   0  0  0  0  0  0  0  0  0  0  0  0
   27.0000    0.0000    0.0000 C   0  0  0  0  0  0  0  0  0  0  0  0
   25.5000    0.0000    0.0000 C   0  0  0  0  0  0  0  0  0  0  0  0
   24.0000    0.0000    0.0000 C   0  0  0  0  0  0  0  0  0  0  0  0
   22.5000    0.0000    0.0000 C   0  0  0  0  0  0  0  0  0  0  0  0
   21.0000    0.0000    0.0000 C   0  0  0  0  0  0  0  0  0  0  0  0
   19.5000    0.0000    0.0000 C   0  0  0  0  0  0  0  0  0  0  0  0
   18.0000    0.0000    0.0000 C   0  0  0  0  0  0  0  0  0  0  0  0
   16.5000    0.0000    0.0000 C   0  0  0  0  0  0  0  0  0  0  0  0
   15.0000    0.0000    0.0000 C   0  0  0  0  0  0  0  0  0  0  0  0
   13.5000    0.0000    0.0000 C   0  0  0  0  0  0  0  0  0  0  0  0
   12.0000    0.0000    0.0000 C   0  0  0  0  0  0  0  0  0  0  0  0
   10.5000    0.0000    0.0000 C   0  0  0  0  0  0  0  0  0  0  0  0
    9.0000    0.0000    0.0000 C   0  0  0  0  0  0  0  0  0  0  0  0
    7.5000    0.0000    0.0000 C   0  0  0  0  0  0  0  0  0  0  0  0
    6.0000    0.0000    0.0000 C   0  0  0  0  0  0  0  0  0  0  0  0
    4.5000    0.0000    0.0000 C   0  0  0  0  0  0  0  0  0  0  0  0
    3.0000    0.0000    0.0000 C   0  0  0  0  0  0  0  0  0  0  0  0
    1.5000    0.0000    0.0000 C   0  0  0  0  0  0  0  0  0  0  0  0
    0.7500   -1.2990    0.0000 C   0  0  0  0  0  0  0  0  0  0  0  0
   -0.7500   -1.2990    0.0000 C   0  0  0  0  0  0  0  0  0  0  0  0
   -1.5000    0.0000    0.0000 C   0  0  0  0  0  0  0  0  0  0  0  0
   -0.7500    1.2990    0.0000 C   0  0  0  0  0  0  0  0  0  0  0  0
    0.7500    1.2990    0.0000 C   0  0  0  0  0  0  0  0  0  0  0  0
  1  2  3  0
  2  3  1  0
  3  4  3  0
  4  5  1  0
  5  6  3  0
  6  7  1  0
  7  8  3  0
  8  9  1  0
  9 10  3  0
 10 11  1  0
 11 12  3  0
 12 13  1  0
 13 14  3  0
 14 15  1  0
 15 16  3  0
 16 17  1  0
 17 18  3  0
 18 19  1  0
 19 20  3  0
 20 21  1  0
 21 22  3  0
 22 23  1  0
 23 24  3  0
 24 25  1  0
 25 26  3  0
 26 27  1  0
 27 28  3  0
 28 29  1  0
 29 30  3  0
 30 31  1  0
 31 32  3  0
 32 33  1  0
 33 34  3  0
 34 35  1  0
 35 36  3  0
 36 37  1  0
 37 38  3  0
 38 39  1  0
 39 40  3  0
 40 41  1  0
 41 42  3  0
 42 43  1  0
 43 44  3  0
 44 45  1  0
 45 46  3  0
 46 47  1  0
 47 48  3  0
 48 49  1  0
 49 50  3  0
 50 51  1  0
 51 52  3  0
 52 53  1  0
 53 54  3  0
 54 55  1  0
 55 56  3  0
 56 57  1  0
 57 58  3  0
 58 59  1  0
 59 60  3  0
 60 61  1  0
 61 62  3  0
 62 63  1  0
 63 64  2  0
 64 65  1  0
 65 66  2  0
 66 67  1  0
 67 68  2  0
 68 63  1  0
M  END
>  <Title>  (1056) 
idABMRgen13

$$$$

     RDKit          2D

 14 14  0  0  0  0  0  0  0  0999 V2000
    9.2286   -2.5981    0.0000 C   0  0  0  0  0  0  0  0  0  0  0  0
    7.7286   -2.5981    0.0000 C   0  0  0  0  0  0  0  0  0  0  0  0
    6.2286   -2.5981    0.0000 C   0  0  0  0  0  0  0  0  0  0  0  0
    5.4786   -1.2990    0.0000 C   0  0  0  0  0  0  0  0  0  0  0  0
    3.9786   -1.2990    0.0000 C   0  0  0  0  0  0  0  0  0  0  0  0
    3.2286   -2.5981    0.0000 O   0  0  0  0  0  0  0  0  0  0  0  0
    3.2286   -0.0000    0.0000 N   0  0  0  0  0  0  0  0  0  0  0  0
    1.7286    0.0000    0.0000 C   0  0  0  0  0  0  0  0  0  0  0  0
    1.0777    1.3515    0.0000 C   0  0  0  0  0  0  0  0  0  0  0  0
   -0.3846    1.6852    0.0000 C   0  0  0  0  0  0  0  0  0  0  0  0
   -1.5574    0.7500    0.0000 C   0  0  0  0  0  0  0  0  0  0  0  0
   -1.5574   -0.7500    0.0000 C   0  0  0  0  0  0  0  0  0  0  0  0
   -0.3846   -1.6852    0.0000 O   0  0  0  0  0  0  0  0  0  0  0  0
    1.0777   -1.3515    0.0000 C   0  0  0  0  0  0  0  0  0  0  0  0
  1  2  3  0
  2  3  1  0
  3  4  1  0
  4  5  1  0
  5  6  2  0
  5  7  1  0
  7  8  1  0
  8  9  2  0
  9 10  1  0
 10 11  2  0
 11 12  1  0
 12 13  1  0
 13 14  1  0
 14  8  1  0
M  END
>  <Title>  (1057) 
idABMSgen13

$$$$

     RDKit          2D

 26 29  0  0  0  0  0  0  0  0999 V2000
   -3.0000   -2.5981    0.0000 C   0  0  0  0  0  0  0  0  0  0  0  0
   -1.5000   -2.5981    0.0000 C   0  0  0  0  0  0  0  0  0  0  0  0
   -0.7500   -3.8971    0.0000 C   0  0  0  0  0  0  0  0  0  0  0  0
    0.7500   -3.8971    0.0000 C   0  0  0  0  0  0  0  0  0  0  0  0
    1.5000   -2.5981    0.0000 C   0  0  0  0  0  0  0  0  0  0  0  0
    3.0000   -2.5981    0.0000 O   0  0  0  0  0  0  0  0  0  0  0  0
    3.7500   -3.8971    0.0000 C   0  0  0  0  0  0  0  0  0  0  0  0
    3.0000   -5.1962    0.0000 O   0  0  0  0  0  0  0  0  0  0  0  0
    5.2500   -3.8971    0.0000 N   0  0  0  0  0  0  0  0  0  0  0  0
    6.1317   -2.6836    0.0000 C   0  0  0  0  0  0  0  0  0  0  0  0
    7.5583   -3.1471    0.0000 C   0  0  0  0  0  0  0  0  0  0  0  0
    7.5583   -4.6471    0.0000 C   0  0  0  0  0  0  0  0  0  0  0  0
    8.7718   -5.5288    0.0000 N   0  0  0  0  0  0  0  0  0  0  0  0
    8.6150   -7.0206    0.0000 C   0  0  0  0  0  0  0  0  0  0  0  0
    9.8285   -7.9023    0.0000 C   0  0  0  0  0  0  0  0  0  0  0  0
   11.1988   -7.2921    0.0000 N   0  0  0  0  0  0  0  0  0  0  0  0
   11.3556   -5.8004    0.0000 N   0  0  0  0  0  0  0  0  0  0  0  0
   10.1421   -4.9187    0.0000 N   0  0  0  0  0  0  0  0  0  0  0  0
    6.1317   -5.1106    0.0000 C   0  0  0  0  0  0  0  0  0  0  0  0
    5.6682   -6.5372    0.0000 O   0  0  0  0  0  0  0  0  0  0  0  0
    0.7500   -1.2990    0.0000 C   0  0  0  0  0  0  0  0  0  0  0  0
    1.5000    0.0000    0.0000 C   0  0  0  0  0  0  0  0  0  0  0  0
    0.7500    1.2990    0.0000 C   0  0  0  0  0  0  0  0  0  0  0  0
   -0.7500    1.2990    0.0000 C   0  0  0  0  0  0  0  0  0  0  0  0
   -1.5000    0.0000    0.0000 C   0  0  0  0  0  0  0  0  0  0  0  0
   -0.7500   -1.2990    0.0000 C   0  0  0  0  0  0  0  0  0  0  0  0
  1  2  1  0
  2  3  2  0
  3  4  1  0
  4  5  2  0
  5  6  1  0
  6  7  1  0
  7  8  2  0
  7  9  1  0
  9 10  1  0
 10 11  1  0
 11 12  1  0
 12 13  1  0
 13 14  1  0
 14 15  1  0
 15 16  2  0
 16 17  1  0
 17 18  2  0
 12 19  1  0
 19 20  2  0
  5 21  1  0
 21 22  2  0
 22 23  1  0
 23 24  2  0
 24 25  1  0
 25 26  2  0
 26  2  1  0
 19  9  1  0
 26 21  1  0
 18 13  1  0
M  END
>  <Title>  (1058) 
idABMTgen13

$$$$

     RDKit          2D

 35 38  0  0  0  0  0  0  0  0999 V2000
    3.9271    0.0000    0.0000 C   0  0  0  0  0  0  0  0  0  0  0  0
    2.4271    0.0000    0.0000 C   0  0  0  0  0  0  0  0  0  0  0  0
    1.9635   -1.4266    0.0000 C   0  0  0  0  0  0  0  0  0  0  0  0
    0.7500   -2.3083    0.0000 C   0  0  0  0  0  0  0  0  0  0  0  0
   -0.7500   -2.3083    0.0000 C   0  0  0  0  0  0  0  0  0  0  0  0
   -1.9635   -1.4266    0.0000 C   0  0  0  0  0  0  0  0  0  0  0  0
   -2.4271    0.0000    0.0000 C   0  0  0  0  0  0  0  0  0  0  0  0
   -1.9635    1.4266    0.0000 C   0  0  0  0  0  0  0  0  0  0  0  0
   -0.7500    2.3083    0.0000 C   0  0  0  0  0  0  0  0  0  0  0  0
   -1.2135    3.7348    0.0000 C   0  0  0  0  0  0  0  0  0  0  0  0
   -2.6807    4.0467    0.0000 O   0  0  0  0  0  0  0  0  0  0  0  0
   -0.2098    4.8496    0.0000 N   0  0  0  0  0  0  0  0  0  0  0  0
   -0.6734    6.2761    0.0000 C   0  0  0  0  0  0  0  0  0  0  0  0
   -2.0999    6.7397    0.0000 N   0  0  0  0  0  0  0  0  0  0  0  0
   -2.0999    8.2397    0.0000 N   0  0  0  0  0  0  0  0  0  0  0  0
   -0.6734    8.7032    0.0000 N   0  0  0  0  0  0  0  0  0  0  0  0
    0.2083    7.4897    0.0000 N   0  0  0  0  0  0  0  0  0  0  0  0
    1.7083    7.4897    0.0000 N   0  0  0  0  0  0  0  0  0  0  0  0
    2.5900    8.7032    0.0000 C   0  0  0  0  0  0  0  0  0  0  0  0
    4.0166    8.2397    0.0000 C   0  0  0  0  0  0  0  0  0  0  0  0
    4.0166    6.7397    0.0000 C   0  0  0  0  0  0  0  0  0  0  0  0
    5.2301    5.8580    0.0000 C   0  0  0  0  0  0  0  0  0  0  0  0
    6.6004    6.4681    0.0000 O   0  0  0  0  0  0  0  0  0  0  0  0
    5.0733    4.3662    0.0000 N   0  0  0  0  0  0  0  0  0  0  0  0
    6.2868    3.4845    0.0000 C   0  0  0  0  0  0  0  0  0  0  0  0
    6.1301    1.9928    0.0000 N   0  0  0  0  0  0  0  0  0  0  0  0
    7.3436    1.1111    0.0000 N   0  0  0  0  0  0  0  0  0  0  0  0
    8.7139    1.7212    0.0000 N   0  0  0  0  0  0  0  0  0  0  0  0
    8.8707    3.2130    0.0000 N   0  0  0  0  0  0  0  0  0  0  0  0
    7.6572    4.0946    0.0000 N   0  0  0  0  0  0  0  0  0  0  0  0
    2.5900    6.2761    0.0000 C   0  0  0  0  0  0  0  0  0  0  0  0
    2.1265    4.8496    0.0000 O   0  0  0  0  0  0  0  0  0  0  0  0
    0.7500    2.3083    0.0000 C   0  0  0  0  0  0  0  0  0  0  0  0
    1.2135    3.7348    0.0000 O   0  0  0  0  0  0  0  0  0  0  0  0
    1.9635    1.4266    0.0000 N   0  0  0  0  0  0  0  0  0  0  0  0
  1  2  1  0
  2  3  1  0
  3  4  1  0
  4  5  1  0
  5  6  1  0
  6  7  1  0
  7  8  1  0
  8  9  1  0
  9 10  1  0
 10 11  2  0
 10 12  1  0
 12 13  1  0
 13 14  2  0
 14 15  1  0
 15 16  2  0
 16 17  1  0
 17 18  1  0
 18 19  1  0
 19 20  1  0
 20 21  1  0
 21 22  1  0
 22 23  2  0
 22 24  1  0
 24 25  1  0
 25 26  2  0
 26 27  1  0
 27 28  2  0
 28 29  1  0
 29 30  2  0
 21 31  1  0
 31 32  2  0
  9 33  1  0
 33 34  2  0
 33 35  1  0
 35  2  1  0
 17 13  1  0
 31 18  1  0
 30 25  1  0
M  END
>  <Title>  (1059) 
idABMUgen13

$$$$

     RDKit          2D

 48 54  0  0  0  0  0  0  0  0999 V2000
   -1.1382   -8.3460    0.0000 C   0  0  0  0  0  0  0  0  0  0  0  0
   -0.7500   -6.8971    0.0000 C   0  0  0  0  0  0  0  0  0  0  0  0
    0.7500   -6.8971    0.0000 C   0  0  0  0  0  0  0  0  0  0  0  0
    2.0490   -6.1471    0.0000 C   0  0  0  0  0  0  0  0  0  0  0  0
    2.7990   -4.8481    0.0000 C   0  0  0  0  0  0  0  0  0  0  0  0
    2.7990   -3.3481    0.0000 C   0  0  0  0  0  0  0  0  0  0  0  0
    2.0490   -2.0490    0.0000 C   0  0  0  0  0  0  0  0  0  0  0  0
    3.1097   -0.9884    0.0000 C   0  0  0  0  0  0  0  0  0  0  0  0
    2.7215    0.4605    0.0000 O   0  0  0  0  0  0  0  0  0  0  0  0
    4.5586   -1.3766    0.0000 N   0  0  0  0  0  0  0  0  0  0  0  0
    5.6192   -0.3159    0.0000 C   0  0  0  0  0  0  0  0  0  0  0  0
    5.3846    1.1656    0.0000 N   0  0  0  0  0  0  0  0  0  0  0  0
    6.7211    1.8466    0.0000 N   0  0  0  0  0  0  0  0  0  0  0  0
    7.7818    0.7859    0.0000 N   0  0  0  0  0  0  0  0  0  0  0  0
    7.1008   -0.5506    0.0000 N   0  0  0  0  0  0  0  0  0  0  0  0
    7.7818   -1.8871    0.0000 N   0  0  0  0  0  0  0  0  0  0  0  0
    9.2633   -2.1218    0.0000 C   0  0  0  0  0  0  0  0  0  0  0  0
    9.4979   -3.6033    0.0000 C   0  0  0  0  0  0  0  0  0  0  0  0
    8.1614   -4.2843    0.0000 N   0  0  0  0  0  0  0  0  0  0  0  0
    7.9268   -5.7658    0.0000 C   0  0  0  0  0  0  0  0  0  0  0  0
    9.0925   -6.7098    0.0000 O   0  0  0  0  0  0  0  0  0  0  0  0
    6.5264   -6.3034    0.0000 N   0  0  0  0  0  0  0  0  0  0  0  0
    6.2918   -7.7849    0.0000 C   0  0  0  0  0  0  0  0  0  0  0  0
    4.8914   -8.3224    0.0000 N   0  0  0  0  0  0  0  0  0  0  0  0
    4.6567   -9.8040    0.0000 N   0  0  0  0  0  0  0  0  0  0  0  0
    5.8225  -10.7480    0.0000 N   0  0  0  0  0  0  0  0  0  0  0  0
    7.2228  -10.2104    0.0000 N   0  0  0  0  0  0  0  0  0  0  0  0
    7.4575   -8.7289    0.0000 N   0  0  0  0  0  0  0  0  0  0  0  0
    7.1008   -3.2236    0.0000 C   0  0  0  0  0  0  0  0  0  0  0  0
    5.6192   -3.4583    0.0000 O   0  0  0  0  0  0  0  0  0  0  0  0
    0.7500   -1.2990    0.0000 C   0  0  0  0  0  0  0  0  0  0  0  0
    1.5000    0.0000    0.0000 C   0  0  0  0  0  0  0  0  0  0  0  0
    0.7500    1.2990    0.0000 C   0  0  0  0  0  0  0  0  0  0  0  0
   -0.7500    1.2990    0.0000 C   0  0  0  0  0  0  0  0  0  0  0  0
   -1.5000    0.0000    0.0000 C   0  0  0  0  0  0  0  0  0  0  0  0
   -0.7500   -1.2990    0.0000 C   0  0  0  0  0  0  0  0  0  0  0  0
   -2.0490   -2.0490    0.0000 C   0  0  0  0  0  0  0  0  0  0  0  0
   -2.7990   -0.7500    0.0000 C   0  0  0  0  0  0  0  0  0  0  0  0
   -4.2990   -0.7500    0.0000 C   0  0  0  0  0  0  0  0  0  0  0  0
   -5.0490   -2.0490    0.0000 C   0  0  0  0  0  0  0  0  0  0  0  0
   -4.2990   -3.3481    0.0000 C   0  0  0  0  0  0  0  0  0  0  0  0
   -2.7990   -3.3481    0.0000 C   0  0  0  0  0  0  0  0  0  0  0  0
   -2.7990   -4.8481    0.0000 C   0  0  0  0  0  0  0  0  0  0  0  0
   -4.2990   -4.8481    0.0000 C   0  0  0  0  0  0  0  0  0  0  0  0
   -5.0490   -6.1471    0.0000 C   0  0  0  0  0  0  0  0  0  0  0  0
   -4.2990   -7.4462    0.0000 C   0  0  0  0  0  0  0  0  0  0  0  0
   -2.7990   -7.4462    0.0000 C   0  0  0  0  0  0  0  0  0  0  0  0
   -2.0490   -6.1471    0.0000 C   0  0  0  0  0  0  0  0  0  0  0  0
  1  2  1  0
  2  3  1  0
  3  4  2  0
  4  5  1  0
  5  6  2  0
  6  7  1  0
  7  8  1  0
  8  9  2  0
  8 10  1  0
 10 11  1  0
 11 12  2  0
 12 13  1  0
 13 14  2  0
 14 15  1  0
 15 16  1  0
 16 17  1  0
 17 18  1  0
 18 19  1  0
 19 20  1  0
 20 21  2  0
 20 22  1  0
 22 23  1  0
 23 24  2  0
 24 25  1  0
 25 26  2  0
 26 27  1  0
 27 28  2  0
 19 29  1  0
 29 30  2  0
  7 31  1  0
 31 32  2  0
 32 33  1  0
 33 34  2  0
 34 35  1  0
 35 36  2  0
 36 37  1  0
 37 38  2  0
 38 39  1  0
 39 40  2  0
 40 41  1  0
 41 42  2  0
 42 43  1  0
 43 44  2  0
 44 45  1  0
 45 46  2  0
 46 47  1  0
 47 48  2  0
 48  2  1  0
 15 11  1  0
 29 16  1  0
 36 31  1  0
 42 37  1  0
 48 43  1  0
 28 23  1  0
M  END
>  <Title>  (1060) 
idABMVgen13

$$$$

     RDKit          2D

 46 52  0  0  0  0  0  0  0  0999 V2000
    1.2135   -7.3421    0.0000 C   0  0  0  0  0  0  0  0  0  0  0  0
    0.7500   -5.9156    0.0000 C   0  0  0  0  0  0  0  0  0  0  0  0
    1.9635   -5.0339    0.0000 C   0  0  0  0  0  0  0  0  0  0  0  0
    2.4271   -3.6073    0.0000 C   0  0  0  0  0  0  0  0  0  0  0  0
    1.9635   -2.1807    0.0000 C   0  0  0  0  0  0  0  0  0  0  0  0
    3.1771   -1.2990    0.0000 C   0  0  0  0  0  0  0  0  0  0  0  0
    3.0203    0.1927    0.0000 O   0  0  0  0  0  0  0  0  0  0  0  0
    4.5474   -1.9091    0.0000 N   0  0  0  0  0  0  0  0  0  0  0  0
    5.7609   -1.0275    0.0000 C   0  0  0  0  0  0  0  0  0  0  0  0
    5.7609    0.4725    0.0000 N   0  0  0  0  0  0  0  0  0  0  0  0
    7.1875    0.9361    0.0000 N   0  0  0  0  0  0  0  0  0  0  0  0
    8.0692   -0.2775    0.0000 N   0  0  0  0  0  0  0  0  0  0  0  0
    7.1875   -1.4910    0.0000 N   0  0  0  0  0  0  0  0  0  0  0  0
    7.6510   -2.9176    0.0000 N   0  0  0  0  0  0  0  0  0  0  0  0
    9.0776   -3.3811    0.0000 C   0  0  0  0  0  0  0  0  0  0  0  0
    9.0776   -4.8811    0.0000 C   0  0  0  0  0  0  0  0  0  0  0  0
    7.6510   -5.3446    0.0000 N   0  0  0  0  0  0  0  0  0  0  0  0
    7.1875   -6.7712    0.0000 C   0  0  0  0  0  0  0  0  0  0  0  0
    8.1912   -7.8859    0.0000 O   0  0  0  0  0  0  0  0  0  0  0  0
    5.7203   -7.0831    0.0000 N   0  0  0  0  0  0  0  0  0  0  0  0
    5.2567   -8.5097    0.0000 C   0  0  0  0  0  0  0  0  0  0  0  0
    3.7895   -8.8215    0.0000 N   0  0  0  0  0  0  0  0  0  0  0  0
    3.3260  -10.2481    0.0000 N   0  0  0  0  0  0  0  0  0  0  0  0
    4.3297  -11.3628    0.0000 N   0  0  0  0  0  0  0  0  0  0  0  0
    5.7969  -11.0510    0.0000 N   0  0  0  0  0  0  0  0  0  0  0  0
    6.2604   -9.6244    0.0000 N   0  0  0  0  0  0  0  0  0  0  0  0
    6.7693   -4.1311    0.0000 C   0  0  0  0  0  0  0  0  0  0  0  0
    5.2693   -4.1311    0.0000 O   0  0  0  0  0  0  0  0  0  0  0  0
    0.7500   -1.2990    0.0000 C   0  0  0  0  0  0  0  0  0  0  0  0
    1.5000    0.0000    0.0000 C   0  0  0  0  0  0  0  0  0  0  0  0
    0.7500    1.2990    0.0000 C   0  0  0  0  0  0  0  0  0  0  0  0
   -0.7500    1.2990    0.0000 C   0  0  0  0  0  0  0  0  0  0  0  0
   -1.5000    0.0000    0.0000 C   0  0  0  0  0  0  0  0  0  0  0  0
   -0.7500   -1.2990    0.0000 C   0  0  0  0  0  0  0  0  0  0  0  0
   -1.9635   -2.1807    0.0000 C   0  0  0  0  0  0  0  0  0  0  0  0
   -2.9672   -1.0660    0.0000 C   0  0  0  0  0  0  0  0  0  0  0  0
   -4.4344   -1.3779    0.0000 C   0  0  0  0  0  0  0  0  0  0  0  0
   -4.8980   -2.8045    0.0000 C   0  0  0  0  0  0  0  0  0  0  0  0
   -3.8943   -3.9192    0.0000 C   0  0  0  0  0  0  0  0  0  0  0  0
   -2.4271   -3.6073    0.0000 C   0  0  0  0  0  0  0  0  0  0  0  0
   -1.9635   -5.0339    0.0000 C   0  0  0  0  0  0  0  0  0  0  0  0
   -3.3338   -5.6440    0.0000 C   0  0  0  0  0  0  0  0  0  0  0  0
   -3.4906   -7.1358    0.0000 C   0  0  0  0  0  0  0  0  0  0  0  0
   -2.2771   -8.0175    0.0000 C   0  0  0  0  0  0  0  0  0  0  0  0
   -0.9068   -7.4073    0.0000 C   0  0  0  0  0  0  0  0  0  0  0  0
   -0.7500   -5.9156    0.0000 C   0  0  0  0  0  0  0  0  0  0  0  0
  1  2  1  0
  2  3  1  0
  3  4  2  0
  4  5  1  0
  5  6  1  0
  6  7  2  0
  6  8  1  0
  8  9  1  0
  9 10  2  0
 10 11  1  0
 11 12  2  0
 12 13  1  0
 13 14  1  0
 14 15  1  0
 15 16  1  0
 16 17  1  0
 17 18  1  0
 18 19  2  0
 18 20  1  0
 20 21  1  0
 21 22  2  0
 22 23  1  0
 23 24  2  0
 24 25  1  0
 25 26  2  0
 17 27  1  0
 27 28  2  0
  5 29  1  0
 29 30  2  0
 30 31  1  0
 31 32  2  0
 32 33  1  0
 33 34  2  0
 34 35  1  0
 35 36  2  0
 36 37  1  0
 37 38  2  0
 38 39  1  0
 39 40  2  0
 40 41  1  0
 41 42  2  0
 42 43  1  0
 43 44  2  0
 44 45  1  0
 45 46  2  0
 46  2  1  0
 13  9  1  0
 27 14  1  0
 34 29  1  0
 40 35  1  0
 46 41  1  0
 26 21  1  0
M  END
>  <Title>  (1061) 
idABMWgen13

$$$$

     RDKit          2D

 81 80  0  0  0  0  0  0  0  0999 V2000
    0.0000    0.0000    0.0000 C   0  0  0  0  0  0  0  0  0  0  0  0
   -0.0000   -1.5000    0.0000 C   0  0  0  0  0  0  0  0  0  0  0  0
   -0.0000   -3.0000    0.0000 C   0  0  0  0  0  0  0  0  0  0  0  0
   -0.0000   -4.5000    0.0000 C   0  0  0  0  0  0  0  0  0  0  0  0
   -0.0000   -6.0000    0.0000 C   0  0  0  0  0  0  0  0  0  0  0  0
   -0.0000   -7.5000    0.0000 C   0  0  0  0  0  0  0  0  0  0  0  0
   -0.0000   -9.0000    0.0000 C   0  0  0  0  0  0  0  0  0  0  0  0
   -0.0000  -10.5000    0.0000 C   0  0  0  0  0  0  0  0  0  0  0  0
   -0.0000  -12.0000    0.0000 C   0  0  0  0  0  0  0  0  0  0  0  0
   -0.0000  -13.5000    0.0000 C   0  0  0  0  0  0  0  0  0  0  0  0
   -0.0000  -15.0000    0.0000 C   0  0  0  0  0  0  0  0  0  0  0  0
   -0.0000  -16.5000    0.0000 C   0  0  0  0  0  0  0  0  0  0  0  0
   -0.0000  -18.0000    0.0000 C   0  0  0  0  0  0  0  0  0  0  0  0
   -0.0000  -19.5000    0.0000 C   0  0  0  0  0  0  0  0  0  0  0  0
   -0.0000  -21.0000    0.0000 C   0  0  0  0  0  0  0  0  0  0  0  0
   -0.0000  -22.5000    0.0000 C   0  0  0  0  0  0  0  0  0  0  0  0
   -0.0000  -24.0000    0.0000 C   0  0  0  0  0  0  0  0  0  0  0  0
   -0.0000  -25.5000    0.0000 C   0  0  0  0  0  0  0  0  0  0  0  0
   -0.0000  -27.0000    0.0000 C   0  0  0  0  0  0  0  0  0  0  0  0
   -0.0000  -28.5000    0.0000 C   0  0  0  0  0  0  0  0  0  0  0  0
   -0.0000  -30.0000    0.0000 C   0  0  0  0  0  0  0  0  0  0  0  0
   -0.0000  -31.5000    0.0000 C   0  0  0  0  0  0  0  0  0  0  0  0
   -0.0000  -33.0000    0.0000 C   0  0  0  0  0  0  0  0  0  0  0  0
   -0.0000  -34.5000    0.0000 C   0  0  0  0  0  0  0  0  0  0  0  0
   -0.0000  -36.0000    0.0000 C   0  0  0  0  0  0  0  0  0  0  0  0
   -0.0000  -37.5000    0.0000 C   0  0  0  0  0  0  0  0  0  0  0  0
   -0.0000  -39.0000    0.0000 C   0  0  0  0  0  0  0  0  0  0  0  0
   -0.0000  -40.5000    0.0000 C   0  0  0  0  0  0  0  0  0  0  0  0
   -0.0000  -42.0000    0.0000 C   0  0  0  0  0  0  0  0  0  0  0  0
   -0.0000  -43.5000    0.0000 C   0  0  0  0  0  0  0  0  0  0  0  0
   -0.0000  -45.0000    0.0000 C   0  0  0  0  0  0  0  0  0  0  0  0
   -0.0000  -46.5000    0.0000 C   0  0  0  0  0  0  0  0  0  0  0  0
   -0.0000  -48.0000    0.0000 C   0  0  0  0  0  0  0  0  0  0  0  0
   -0.0000  -49.5000    0.0000 C   0  0  0  0  0  0  0  0  0  0  0  0
   -0.0000  -51.0000    0.0000 C   0  0  0  0  0  0  0  0  0  0  0  0
   -0.0000  -52.5000    0.0000 C   0  0  0  0  0  0  0  0  0  0  0  0
   -0.0000  -54.0000    0.0000 C   0  0  0  0  0  0  0  0  0  0  0  0
   -0.0000  -55.5000    0.0000 C   0  0  0  0  0  0  0  0  0  0  0  0
   -0.0000  -57.0000    0.0000 C   0  0  0  0  0  0  0  0  0  0  0  0
   -0.0000  -58.5000    0.0000 C   0  0  0  0  0  0  0  0  0  0  0  0
   -0.0000  -60.0000    0.0000 C   0  0  0  0  0  0  0  0  0  0  0  0
   -0.0000  -61.5000    0.0000 C   0  0  0  0  0  0  0  0  0  0  0  0
   -0.0000  -63.0000    0.0000 C   0  0  0  0  0  0  0  0  0  0  0  0
   -0.0000  -64.5000    0.0000 C   0  0  0  0  0  0  0  0  0  0  0  0
   -0.0000  -66.0000    0.0000 C   0  0  0  0  0  0  0  0  0  0  0  0
   -0.0000  -67.5000    0.0000 C   0  0  0  0  0  0  0  0  0  0  0  0
   -0.0000  -69.0000    0.0000 C   0  0  0  0  0  0  0  0  0  0  0  0
   -0.0000  -70.5000    0.0000 C   0  0  0  0  0  0  0  0  0  0  0  0
   -0.0000  -72.0000    0.0000 C   0  0  0  0  0  0  0  0  0  0  0  0
   -0.0000  -73.5000    0.0000 C   0  0  0  0  0  0  0  0  0  0  0  0
   -0.0000  -75.0000    0.0000 C   0  0  0  0  0  0  0  0  0  0  0  0
   -0.0000  -76.5000    0.0000 C   0  0  0  0  0  0  0  0  0  0  0  0
   -0.0000  -78.0000    0.0000 C   0  0  0  0  0  0  0  0  0  0  0  0
   -0.0000  -79.5000    0.0000 C   0  0  0  0  0  0  0  0  0  0  0  0
   -0.0000  -81.0000    0.0000 C   0  0  0  0  0  0  0  0  0  0  0  0
   -0.0000  -82.5000    0.0000 C   0  0  0  0  0  0  0  0  0  0  0  0
   -0.0000  -84.0000    0.0000 C   0  0  0  0  0  0  0  0  0  0  0  0
   -0.0000  -85.5000    0.0000 C   0  0  0  0  0  0  0  0  0  0  0  0
   -0.0000  -87.0000    0.0000 C   0  0  0  0  0  0  0  0  0  0  0  0
   -0.0000  -88.5000    0.0000 C   0  0  0  0  0  0  0  0  0  0  0  0
   -0.0000  -90.0000    0.0000 C   0  0  0  0  0  0  0  0  0  0  0  0
   -0.0000  -91.5000    0.0000 C   0  0  0  0  0  0  0  0  0  0  0  0
   -0.0000  -93.0000    0.0000 C   0  0  0  0  0  0  0  0  0  0  0  0
   -0.0000  -94.5000    0.0000 C   0  0  0  0  0  0  0  0  0  0  0  0
   -0.0000  -96.0000    0.0000 C   0  0  0  0  0  0  0  0  0  0  0  0
   -0.0000  -97.5000    0.0000 C   0  0  0  0  0  0  0  0  0  0  0  0
   -0.0000  -99.0000    0.0000 C   0  0  0  0  0  0  0  0  0  0  0  0
   -0.0000 -100.5000    0.0000 C   0  0  0  0  0  0  0  0  0  0  0  0
   -0.0000 -102.0000    0.0000 C   0  0  0  0  0  0  0  0  0  0  0  0
   -0.0000 -103.5000    0.0000 C   0  0  0  0  0  0  0  0  0  0  0  0
   -0.0000 -105.0000    0.0000 C   0  0  0  0  0  0  0  0  0  0  0  0
   -0.0000 -106.5000    0.0000 C   0  0  0  0  0  0  0  0  0  0  0  0
   -0.0000 -108.0000    0.0000 C   0  0  0  0  0  0  0  0  0  0  0  0
   -0.0000 -109.5000    0.0000 C   0  0  0  0  0  0  0  0  0  0  0  0
   -0.0000 -111.0000    0.0000 C   0  0  0  0  0  0  0  0  0  0  0  0
   -0.0000 -112.5000    0.0000 C   0  0  0  0  0  0  0  0  0  0  0  0
   -0.0000 -114.0000    0.0000 C   0  0  0  0  0  0  0  0  0  0  0  0
   -0.0000 -115.5000    0.0000 C   0  0  0  0  0  0  0  0  0  0  0  0
   -0.0000 -117.0000    0.0000 C   0  0  0  0  0  0  0  0  0  0  0  0
    1.2990 -117.7500    0.0000 C   0  0  0  0  0  0  0  0  0  0  0  0
    1.2990 -119.2500    0.0000 C   0  0  0  0  0  0  0  0  0  0  0  0
  1  2  3  0
  2  3  1  0
  3  4  3  0
  4  5  1  0
  5  6  3  0
  6  7  1  0
  7  8  3  0
  8  9  1  0
  9 10  3  0
 10 11  1  0
 11 12  3  0
 12 13  1  0
 13 14  3  0
 14 15  1  0
 15 16  3  0
 16 17  1  0
 17 18  3  0
 18 19  1  0
 19 20  3  0
 20 21  1  0
 21 22  3  0
 22 23  1  0
 23 24  3  0
 24 25  1  0
 25 26  3  0
 26 27  1  0
 27 28  3  0
 28 29  1  0
 29 30  3  0
 30 31  1  0
 31 32  3  0
 32 33  1  0
 33 34  3  0
 34 35  1  0
 35 36  3  0
 36 37  1  0
 37 38  3  0
 38 39  1  0
 39 40  3  0
 40 41  1  0
 41 42  3  0
 42 43  1  0
 43 44  3  0
 44 45  1  0
 45 46  3  0
 46 47  1  0
 47 48  3  0
 48 49  1  0
 49 50  3  0
 50 51  1  0
 51 52  3  0
 52 53  1  0
 53 54  3  0
 54 55  1  0
 55 56  3  0
 56 57  1  0
 57 58  3  0
 58 59  1  0
 59 60  3  0
 60 61  1  0
 61 62  3  0
 62 63  1  0
 63 64  3  0
 64 65  1  0
 65 66  3  0
 66 67  1  0
 67 68  3  0
 68 69  1  0
 69 70  3  0
 70 71  1  0
 71 72  3  0
 72 73  1  0
 73 74  3  0
 74 75  1  0
 75 76  3  0
 76 77  1  0
 77 78  3  0
 78 79  1  0
 79 80  1  0
 80 81  2  0
M  END
>  <Title>  (1062) 
idABMXgen13

$$$$

     RDKit          2D

 12 13  0  0  0  0  0  0  0  0999 V2000
   -3.2595   -3.4715    0.0000 C   0  0  0  0  0  0  0  0  0  0  0  0
   -1.8107   -3.8597    0.0000 C   0  0  0  0  0  0  0  0  0  0  0  0
   -1.4224   -5.3086    0.0000 O   0  0  0  0  0  0  0  0  0  0  0  0
   -0.7500   -2.7990    0.0000 N   0  0  0  0  0  0  0  0  0  0  0  0
    0.7500   -2.7990    0.0000 C   0  0  0  0  0  0  0  0  0  0  0  0
    0.7500   -1.2990    0.0000 C   0  0  0  0  0  0  0  0  0  0  0  0
    1.5000    0.0000    0.0000 C   0  0  0  0  0  0  0  0  0  0  0  0
    0.7500    1.2990    0.0000 C   0  0  0  0  0  0  0  0  0  0  0  0
   -0.7500    1.2990    0.0000 C   0  0  0  0  0  0  0  0  0  0  0  0
   -1.5000    2.5981    0.0000 F   0  0  0  0  0  0  0  0  0  0  0  0
   -1.5000    0.0000    0.0000 C   0  0  0  0  0  0  0  0  0  0  0  0
   -0.7500   -1.2990    0.0000 C   0  0  0  0  0  0  0  0  0  0  0  0
  1  2  1  0
  2  3  2  0
  2  4  1  0
  4  5  1  0
  5  6  1  0
  6  7  2  0
  7  8  1  0
  8  9  2  0
  9 10  1  0
  9 11  1  0
 11 12  2  0
 12  4  1  0
 12  6  1  0
M  END
>  <Title>  (1063) 
idABMYgen13

$$$$

     RDKit          2D

 98 99  0  0  0  0  0  0  0  0999 V2000
    2.8631    3.9774    0.0000 C   0  0  0  0  0  0  0  0  0  0  0  0
    3.6178    4.2341    0.0000 C   0  0  0  0  0  0  0  0  0  0  0  0
    3.1922    5.6725    0.0000 C   0  0  0  0  0  0  0  0  0  0  0  0
    2.8837    7.1404    0.0000 C   0  0  0  0  0  0  0  0  0  0  0  0
    2.6943    8.6284    0.0000 C   0  0  0  0  0  0  0  0  0  0  0  0
    2.6253   10.1268    0.0000 C   0  0  0  0  0  0  0  0  0  0  0  0
    2.6771   11.6259    0.0000 C   0  0  0  0  0  0  0  0  0  0  0  0
    2.8493   13.1160    0.0000 C   0  0  0  0  0  0  0  0  0  0  0  0
    3.1409   14.5874    0.0000 C   0  0  0  0  0  0  0  0  0  0  0  0
    3.5499   16.0306    0.0000 C   0  0  0  0  0  0  0  0  0  0  0  0
    4.0737   17.4361    0.0000 C   0  0  0  0  0  0  0  0  0  0  0  0
    4.7090   18.7950    0.0000 C   0  0  0  0  0  0  0  0  0  0  0  0
    5.4515   20.0983    0.0000 C   0  0  0  0  0  0  0  0  0  0  0  0
    6.2964   21.3377    0.0000 C   0  0  0  0  0  0  0  0  0  0  0  0
    7.2384   22.5050    0.0000 C   0  0  0  0  0  0  0  0  0  0  0  0
    8.2713   23.5928    0.0000 C   0  0  0  0  0  0  0  0  0  0  0  0
    9.3883   24.5939    0.0000 C   0  0  0  0  0  0  0  0  0  0  0  0
   10.5822   25.5019    0.0000 C   0  0  0  0  0  0  0  0  0  0  0  0
   11.8454   26.3109    0.0000 C   0  0  0  0  0  0  0  0  0  0  0  0
   13.1695   27.0156    0.0000 C   0  0  0  0  0  0  0  0  0  0  0  0
   14.5461   27.6115    0.0000 C   0  0  0  0  0  0  0  0  0  0  0  0
   15.9662   28.0947    0.0000 C   0  0  0  0  0  0  0  0  0  0  0  0
   17.4205   28.4620    0.0000 C   0  0  0  0  0  0  0  0  0  0  0  0
   18.8996   28.7111    0.0000 C   0  0  0  0  0  0  0  0  0  0  0  0
   20.3941   28.8404    0.0000 C   0  0  0  0  0  0  0  0  0  0  0  0
   21.8940   28.8491    0.0000 C   0  0  0  0  0  0  0  0  0  0  0  0
   23.3898   28.7370    0.0000 C   0  0  0  0  0  0  0  0  0  0  0  0
   24.8718   28.5049    0.0000 C   0  0  0  0  0  0  0  0  0  0  0  0
   26.3302   28.1543    0.0000 C   0  0  0  0  0  0  0  0  0  0  0  0
   27.7557   27.6875    0.0000 C   0  0  0  0  0  0  0  0  0  0  0  0
   29.1391   27.1075    0.0000 C   0  0  0  0  0  0  0  0  0  0  0  0
   30.4713   26.4181    0.0000 C   0  0  0  0  0  0  0  0  0  0  0  0
   31.7436   25.6237    0.0000 C   0  0  0  0  0  0  0  0  0  0  0  0
   32.9480   24.7295    0.0000 C   0  0  0  0  0  0  0  0  0  0  0  0
   34.0764   23.7413    0.0000 C   0  0  0  0  0  0  0  0  0  0  0  0
   35.1217   22.6655    0.0000 C   0  0  0  0  0  0  0  0  0  0  0  0
   36.0771   21.5090    0.0000 C   0  0  0  0  0  0  0  0  0  0  0  0
   36.9362   20.2795    0.0000 C   0  0  0  0  0  0  0  0  0  0  0  0
   37.6937   18.9848    0.0000 C   0  0  0  0  0  0  0  0  0  0  0  0
   38.3445   17.6333    0.0000 C   0  0  0  0  0  0  0  0  0  0  0  0
   38.8845   16.2339    0.0000 C   0  0  0  0  0  0  0  0  0  0  0  0
   39.3101   14.7955    0.0000 C   0  0  0  0  0  0  0  0  0  0  0  0
   39.6186   13.3276    0.0000 C   0  0  0  0  0  0  0  0  0  0  0  0
   39.8080   11.8396    0.0000 C   0  0  0  0  0  0  0  0  0  0  0  0
   39.8770   10.3412    0.0000 C   0  0  0  0  0  0  0  0  0  0  0  0
   39.8252    8.8421    0.0000 C   0  0  0  0  0  0  0  0  0  0  0  0
   39.6530    7.3520    0.0000 C   0  0  0  0  0  0  0  0  0  0  0  0
   39.3614    5.8806    0.0000 C   0  0  0  0  0  0  0  0  0  0  0  0
   38.9524    4.4375    0.0000 C   0  0  0  0  0  0  0  0  0  0  0  0
   38.4285    3.0319    0.0000 C   0  0  0  0  0  0  0  0  0  0  0  0
   37.7933    1.6730    0.0000 C   0  0  0  0  0  0  0  0  0  0  0  0
   37.0508    0.3697    0.0000 C   0  0  0  0  0  0  0  0  0  0  0  0
   36.2058   -0.8697    0.0000 C   0  0  0  0  0  0  0  0  0  0  0  0
   35.2639   -2.0370    0.0000 C   0  0  0  0  0  0  0  0  0  0  0  0
   34.2310   -3.1248    0.0000 C   0  0  0  0  0  0  0  0  0  0  0  0
   33.1140   -4.1259    0.0000 C   0  0  0  0  0  0  0  0  0  0  0  0
   31.9200   -5.0339    0.0000 C   0  0  0  0  0  0  0  0  0  0  0  0
   30.6569   -5.8429    0.0000 C   0  0  0  0  0  0  0  0  0  0  0  0
   29.3327   -6.5476    0.0000 C   0  0  0  0  0  0  0  0  0  0  0  0
   27.9562   -7.1435    0.0000 C   0  0  0  0  0  0  0  0  0  0  0  0
   26.5361   -7.6266    0.0000 C   0  0  0  0  0  0  0  0  0  0  0  0
   25.0818   -7.9940    0.0000 C   0  0  0  0  0  0  0  0  0  0  0  0
   23.6026   -8.2431    0.0000 C   0  0  0  0  0  0  0  0  0  0  0  0
   22.1082   -8.3724    0.0000 C   0  0  0  0  0  0  0  0  0  0  0  0
   20.6082   -8.3811    0.0000 C   0  0  0  0  0  0  0  0  0  0  0  0
   19.1124   -8.2690    0.0000 C   0  0  0  0  0  0  0  0  0  0  0  0
   17.6305   -8.0369    0.0000 C   0  0  0  0  0  0  0  0  0  0  0  0
   16.1720   -7.6863    0.0000 C   0  0  0  0  0  0  0  0  0  0  0  0
   14.7465   -7.2195    0.0000 C   0  0  0  0  0  0  0  0  0  0  0  0
   13.3632   -6.6395    0.0000 C   0  0  0  0  0  0  0  0  0  0  0  0
   12.0310   -5.9500    0.0000 C   0  0  0  0  0  0  0  0  0  0  0  0
   10.7586   -5.1557    0.0000 C   0  0  0  0  0  0  0  0  0  0  0  0
    9.5543   -4.2615    0.0000 C   0  0  0  0  0  0  0  0  0  0  0  0
    8.4258   -3.2732    0.0000 C   0  0  0  0  0  0  0  0  0  0  0  0
    7.3806   -2.1974    0.0000 C   0  0  0  0  0  0  0  0  0  0  0  0
    6.4252   -1.0410    0.0000 C   0  0  0  0  0  0  0  0  0  0  0  0
    5.5660    0.1885    0.0000 C   0  0  0  0  0  0  0  0  0  0  0  0
    4.8086    1.4832    0.0000 C   0  0  0  0  0  0  0  0  0  0  0  0
    4.3321    0.0000    0.0000 C   0  0  0  0  0  0  0  0  0  0  0  0
    4.1397   -1.2769    0.0000 C   0  0  0  0  0  0  0  0  0  0  0  0
    3.5794   -2.4404    0.0000 C   0  0  0  0  0  0  0  0  0  0  0  0
    2.7010   -3.3870    0.0000 C   0  0  0  0  0  0  0  0  0  0  0  0
    1.5827   -4.0327    0.0000 C   0  0  0  0  0  0  0  0  0  0  0  0
    0.3237   -4.3200    0.0000 C   0  0  0  0  0  0  0  0  0  0  0  0
   -0.9640   -4.2235    0.0000 C   0  0  0  0  0  0  0  0  0  0  0  0
   -2.1661   -3.7517    0.0000 C   0  0  0  0  0  0  0  0  0  0  0  0
   -3.1757   -2.9466    0.0000 C   0  0  0  0  0  0  0  0  0  0  0  0
   -3.9031   -1.8796    0.0000 C   0  0  0  0  0  0  0  0  0  0  0  0
   -4.2837   -0.6457    0.0000 C   0  0  0  0  0  0  0  0  0  0  0  0
   -4.2837    0.6457    0.0000 C   0  0  0  0  0  0  0  0  0  0  0  0
   -3.9031    1.8796    0.0000 C   0  0  0  0  0  0  0  0  0  0  0  0
   -3.1757    2.9466    0.0000 C   0  0  0  0  0  0  0  0  0  0  0  0
   -2.1661    3.7517    0.0000 C   0  0  0  0  0  0  0  0  0  0  0  0
   -0.9640    4.2235    0.0000 C   0  0  0  0  0  0  0  0  0  0  0  0
    0.3237    4.3200    0.0000 C   0  0  0  0  0  0  0  0  0  0  0  0
    1.5827    4.0327    0.0000 C   0  0  0  0  0  0  0  0  0  0  0  0
    2.7010    3.3870    0.0000 C   0  0  0  0  0  0  0  0  0  0  0  0
    4.1577    2.8347    0.0000 C   0  0  0  0  0  0  0  0  0  0  0  0
  1  2  1  0
  2  3  1  0
  3  4  1  0
  4  5  1  0
  5  6  1  0
  6  7  1  0
  7  8  1  0
  8  9  1  0
  9 10  1  0
 10 11  1  0
 11 12  1  0
 12 13  1  0
 13 14  1  0
 14 15  1  0
 15 16  1  0
 16 17  1  0
 17 18  1  0
 18 19  1  0
 19 20  1  0
 20 21  1  0
 21 22  1  0
 22 23  1  0
 23 24  1  0
 24 25  1  0
 25 26  1  0
 26 27  1  0
 27 28  1  0
 28 29  1  0
 29 30  1  0
 30 31  1  0
 31 32  1  0
 32 33  1  0
 33 34  1  0
 34 35  1  0
 35 36  1  0
 36 37  1  0
 37 38  1  0
 38 39  1  0
 39 40  1  0
 40 41  1  0
 41 42  1  0
 42 43  1  0
 43 44  1  0
 44 45  1  0
 45 46  1  0
 46 47  1  0
 47 48  1  0
 48 49  1  0
 49 50  1  0
 50 51  1  0
 51 52  1  0
 52 53  1  0
 53 54  1  0
 54 55  1  0
 55 56  1  0
 56 57  1  0
 57 58  1  0
 58 59  1  0
 59 60  1  0
 60 61  1  0
 61 62  1  0
 62 63  1  0
 63 64  1  0
 64 65  1  0
 65 66  1  0
 66 67  1  0
 67 68  1  0
 68 69  1  0
 69 70  1  0
 70 71  1  0
 71 72  1  0
 72 73  1  0
 73 74  1  0
 74 75  1  0
 75 76  1  0
 76 77  1  0
 77 78  1  0
 78 79  1  0
 79 80  1  0
 80 81  1  0
 81 82  1  0
 82 83  1  0
 83 84  1  0
 84 85  1  0
 85 86  2  0
 86 87  1  0
 87 88  2  0
 88 89  1  0
 89 90  2  0
 90 91  1  0
 91 92  2  0
 92 93  1  0
 93 94  2  0
 94 95  1  0
 95 96  2  0
 96 97  1  0
 97 98  2  0
 98  2  1  0
 98 78  1  0
M  END
>  <Title>  (1064) 
idABMZgen13

$$$$

     RDKit          2D

 34 38  0  0  0  0  0  0  0  0999 V2000
   -3.1476   -2.1380    0.0000 C   0  0  0  0  0  0  0  0  0  0  0  0
   -1.6852   -2.4718    0.0000 C   0  0  0  0  0  0  0  0  0  0  0  0
   -1.3515   -3.9342    0.0000 C   0  0  0  0  0  0  0  0  0  0  0  0
   -0.0000   -4.5850    0.0000 C   0  0  0  0  0  0  0  0  0  0  0  0
    1.3515   -3.9342    0.0000 C   0  0  0  0  0  0  0  0  0  0  0  0
    1.6852   -2.4718    0.0000 C   0  0  0  0  0  0  0  0  0  0  0  0
    3.1476   -2.1380    0.0000 C   0  0  0  0  0  0  0  0  0  0  0  0
    3.5898   -0.7046    0.0000 O   0  0  0  0  0  0  0  0  0  0  0  0
    4.1679   -3.2376    0.0000 N   0  0  0  0  0  0  0  0  0  0  0  0
    5.6303   -2.9038    0.0000 C   0  0  0  0  0  0  0  0  0  0  0  0
    6.2198   -1.5245    0.0000 N   0  0  0  0  0  0  0  0  0  0  0  0
    7.7138   -1.6590    0.0000 N   0  0  0  0  0  0  0  0  0  0  0  0
    8.0476   -3.1214    0.0000 N   0  0  0  0  0  0  0  0  0  0  0  0
    6.7599   -3.8907    0.0000 N   0  0  0  0  0  0  0  0  0  0  0  0
    6.6254   -5.3847    0.0000 N   0  0  0  0  0  0  0  0  0  0  0  0
    5.4740   -6.3460    0.0000 C   0  0  0  0  0  0  0  0  0  0  0  0
    6.4353   -7.4975    0.0000 C   0  0  0  0  0  0  0  0  0  0  0  0
    6.3008   -8.9914    0.0000 C   0  0  0  0  0  0  0  0  0  0  0  0
    7.5274   -9.8548    0.0000 O   0  0  0  0  0  0  0  0  0  0  0  0
    4.9398   -9.6219    0.0000 N   0  0  0  0  0  0  0  0  0  0  0  0
    4.8053  -11.1159    0.0000 C   0  0  0  0  0  0  0  0  0  0  0  0
    3.4443  -11.7464    0.0000 N   0  0  0  0  0  0  0  0  0  0  0  0
    3.3098  -13.2404    0.0000 N   0  0  0  0  0  0  0  0  0  0  0  0
    4.5364  -14.1038    0.0000 N   0  0  0  0  0  0  0  0  0  0  0  0
    5.8974  -13.4733    0.0000 N   0  0  0  0  0  0  0  0  0  0  0  0
    6.0319  -11.9793    0.0000 N   0  0  0  0  0  0  0  0  0  0  0  0
    7.5867   -6.5361    0.0000 C   0  0  0  0  0  0  0  0  0  0  0  0
    9.0807   -6.6706    0.0000 O   0  0  0  0  0  0  0  0  0  0  0  0
    0.7500   -1.2990    0.0000 C   0  0  0  0  0  0  0  0  0  0  0  0
    1.5000    0.0000    0.0000 C   0  0  0  0  0  0  0  0  0  0  0  0
    0.7500    1.2990    0.0000 C   0  0  0  0  0  0  0  0  0  0  0  0
   -0.7500    1.2990    0.0000 C   0  0  0  0  0  0  0  0  0  0  0  0
   -1.5000    0.0000    0.0000 C   0  0  0  0  0  0  0  0  0  0  0  0
   -0.7500   -1.2990    0.0000 C   0  0  0  0  0  0  0  0  0  0  0  0
  1  2  1  0
  2  3  1  0
  3  4  2  0
  4  5  1  0
  5  6  1  0
  6  7  1  0
  7  8  2  0
  7  9  1  0
  9 10  1  0
 10 11  2  0
 11 12  1  0
 12 13  2  0
 13 14  1  0
 14 15  1  0
 15 16  1  0
 16 17  2  0
 17 18  1  0
 18 19  2  0
 18 20  1  0
 20 21  1  0
 21 22  2  0
 22 23  1  0
 23 24  2  0
 24 25  1  0
 25 26  2  0
 17 27  1  0
 27 28  2  0
  6 29  1  0
 29 30  2  0
 30 31  1  0
 31 32  2  0
 32 33  1  0
 33 34  2  0
 34  2  1  0
 14 10  1  0
 27 15  1  0
 34 29  1  0
 26 21  1  0
M  END
>  <Title>  (1065) 
idABNAgen13

$$$$

     RDKit          2D

 88 89  0  0  0  0  0  0  0  0999 V2000
    9.9565    4.4837    0.0000 C   0  0  0  0  0  0  0  0  0  0  0  0
   10.7535    4.4646    0.0000 C   0  0  0  0  0  0  0  0  0  0  0  0
   10.9012    5.9574    0.0000 C   0  0  0  0  0  0  0  0  0  0  0  0
   11.2698    7.4114    0.0000 C   0  0  0  0  0  0  0  0  0  0  0  0
   11.8510    8.7942    0.0000 C   0  0  0  0  0  0  0  0  0  0  0  0
   12.6318   10.0750    0.0000 C   0  0  0  0  0  0  0  0  0  0  0  0
   13.5948   11.2250    0.0000 C   0  0  0  0  0  0  0  0  0  0  0  0
   14.7184   12.2188    0.0000 C   0  0  0  0  0  0  0  0  0  0  0  0
   15.9776   13.0339    0.0000 C   0  0  0  0  0  0  0  0  0  0  0  0
   17.3442   13.6523    0.0000 C   0  0  0  0  0  0  0  0  0  0  0  0
   18.7877   14.0601    0.0000 C   0  0  0  0  0  0  0  0  0  0  0  0
   20.2758   14.2482    0.0000 C   0  0  0  0  0  0  0  0  0  0  0  0
   21.7754   14.2124    0.0000 C   0  0  0  0  0  0  0  0  0  0  0  0
   23.2529   13.9535    0.0000 C   0  0  0  0  0  0  0  0  0  0  0  0
   24.6753   13.4773    0.0000 C   0  0  0  0  0  0  0  0  0  0  0  0
   26.0108   12.7944    0.0000 C   0  0  0  0  0  0  0  0  0  0  0  0
   27.2296   11.9200    0.0000 C   0  0  0  0  0  0  0  0  0  0  0  0
   28.3046   10.8738    0.0000 C   0  0  0  0  0  0  0  0  0  0  0  0
   29.2115    9.6791    0.0000 C   0  0  0  0  0  0  0  0  0  0  0  0
   29.9303    8.3625    0.0000 C   0  0  0  0  0  0  0  0  0  0  0  0
   30.4448    6.9535    0.0000 C   0  0  0  0  0  0  0  0  0  0  0  0
   30.7436    5.4836    0.0000 C   0  0  0  0  0  0  0  0  0  0  0  0
   30.8200    3.9855    0.0000 C   0  0  0  0  0  0  0  0  0  0  0  0
   30.6722    2.4928    0.0000 C   0  0  0  0  0  0  0  0  0  0  0  0
   30.3036    1.0388    0.0000 C   0  0  0  0  0  0  0  0  0  0  0  0
   29.7224   -0.3440    0.0000 C   0  0  0  0  0  0  0  0  0  0  0  0
   28.9416   -1.6248    0.0000 C   0  0  0  0  0  0  0  0  0  0  0  0
   27.9787   -2.7749    0.0000 C   0  0  0  0  0  0  0  0  0  0  0  0
   26.8551   -3.7686    0.0000 C   0  0  0  0  0  0  0  0  0  0  0  0
   25.5959   -4.5838    0.0000 C   0  0  0  0  0  0  0  0  0  0  0  0
   24.2293   -5.2021    0.0000 C   0  0  0  0  0  0  0  0  0  0  0  0
   22.7858   -5.6099    0.0000 C   0  0  0  0  0  0  0  0  0  0  0  0
   21.2976   -5.7980    0.0000 C   0  0  0  0  0  0  0  0  0  0  0  0
   19.7980   -5.7622    0.0000 C   0  0  0  0  0  0  0  0  0  0  0  0
   18.3205   -5.5033    0.0000 C   0  0  0  0  0  0  0  0  0  0  0  0
   16.8982   -5.0271    0.0000 C   0  0  0  0  0  0  0  0  0  0  0  0
   15.5626   -4.3442    0.0000 C   0  0  0  0  0  0  0  0  0  0  0  0
   14.3438   -3.4699    0.0000 C   0  0  0  0  0  0  0  0  0  0  0  0
   13.2689   -2.4237    0.0000 C   0  0  0  0  0  0  0  0  0  0  0  0
   12.3619   -1.2289    0.0000 C   0  0  0  0  0  0  0  0  0  0  0  0
   11.6431    0.0877    0.0000 C   0  0  0  0  0  0  0  0  0  0  0  0
   11.1286    1.4967    0.0000 C   0  0  0  0  0  0  0  0  0  0  0  0
   10.5288   -0.0000    0.0000 C   0  0  0  0  0  0  0  0  0  0  0  0
   10.4348   -1.4033    0.0000 C   0  0  0  0  0  0  0  0  0  0  0  0
   10.1547   -2.7817    0.0000 C   0  0  0  0  0  0  0  0  0  0  0  0
    9.6933   -4.1103    0.0000 C   0  0  0  0  0  0  0  0  0  0  0  0
    9.0590   -5.3656    0.0000 C   0  0  0  0  0  0  0  0  0  0  0  0
    8.2630   -6.5252    0.0000 C   0  0  0  0  0  0  0  0  0  0  0  0
    7.3195   -7.5683    0.0000 C   0  0  0  0  0  0  0  0  0  0  0  0
    6.2455   -8.4764    0.0000 C   0  0  0  0  0  0  0  0  0  0  0  0
    5.0599   -9.2332    0.0000 C   0  0  0  0  0  0  0  0  0  0  0  0
    3.7841   -9.8253    0.0000 C   0  0  0  0  0  0  0  0  0  0  0  0
    2.4408  -10.2420    0.0000 C   0  0  0  0  0  0  0  0  0  0  0  0
    1.0539  -10.4759    0.0000 C   0  0  0  0  0  0  0  0  0  0  0  0
   -0.3518  -10.5229    0.0000 C   0  0  0  0  0  0  0  0  0  0  0  0
   -1.7512  -10.3821    0.0000 C   0  0  0  0  0  0  0  0  0  0  0  0
   -3.1194  -10.0561    0.0000 C   0  0  0  0  0  0  0  0  0  0  0  0
   -4.4319   -9.5506    0.0000 C   0  0  0  0  0  0  0  0  0  0  0  0
   -5.6654   -8.8746    0.0000 C   0  0  0  0  0  0  0  0  0  0  0  0
   -6.7977   -8.0403    0.0000 C   0  0  0  0  0  0  0  0  0  0  0  0
   -7.8087   -7.0625    0.0000 C   0  0  0  0  0  0  0  0  0  0  0  0
   -8.6804   -5.9587    0.0000 C   0  0  0  0  0  0  0  0  0  0  0  0
   -9.3971   -4.7486    0.0000 C   0  0  0  0  0  0  0  0  0  0  0  0
   -9.9462   -3.4537    0.0000 C   0  0  0  0  0  0  0  0  0  0  0  0
  -10.3178   -2.0972    0.0000 C   0  0  0  0  0  0  0  0  0  0  0  0
  -10.5053   -0.7032    0.0000 C   0  0  0  0  0  0  0  0  0  0  0  0
  -10.5053    0.7032    0.0000 C   0  0  0  0  0  0  0  0  0  0  0  0
  -10.3178    2.0972    0.0000 C   0  0  0  0  0  0  0  0  0  0  0  0
   -9.9462    3.4537    0.0000 C   0  0  0  0  0  0  0  0  0  0  0  0
   -9.3971    4.7486    0.0000 C   0  0  0  0  0  0  0  0  0  0  0  0
   -8.6804    5.9587    0.0000 C   0  0  0  0  0  0  0  0  0  0  0  0
   -7.8087    7.0625    0.0000 C   0  0  0  0  0  0  0  0  0  0  0  0
   -6.7977    8.0403    0.0000 C   0  0  0  0  0  0  0  0  0  0  0  0
   -5.6654    8.8746    0.0000 C   0  0  0  0  0  0  0  0  0  0  0  0
   -4.4319    9.5506    0.0000 C   0  0  0  0  0  0  0  0  0  0  0  0
   -3.1194   10.0561    0.0000 C   0  0  0  0  0  0  0  0  0  0  0  0
   -1.7512   10.3821    0.0000 C   0  0  0  0  0  0  0  0  0  0  0  0
   -0.3518   10.5229    0.0000 C   0  0  0  0  0  0  0  0  0  0  0  0
    1.0539   10.4759    0.0000 C   0  0  0  0  0  0  0  0  0  0  0  0
    2.4408   10.2420    0.0000 C   0  0  0  0  0  0  0  0  0  0  0  0
    3.7841    9.8253    0.0000 C   0  0  0  0  0  0  0  0  0  0  0  0
    5.0599    9.2332    0.0000 C   0  0  0  0  0  0  0  0  0  0  0  0
    6.2455    8.4764    0.0000 C   0  0  0  0  0  0  0  0  0  0  0  0
    7.3195    7.5683    0.0000 C   0  0  0  0  0  0  0  0  0  0  0  0
    8.2630    6.5252    0.0000 C   0  0  0  0  0  0  0  0  0  0  0  0
    9.0590    5.3656    0.0000 C   0  0  0  0  0  0  0  0  0  0  0  0
    9.6933    4.1103    0.0000 C   0  0  0  0  0  0  0  0  0  0  0  0
   10.8298    2.9666    0.0000 C   0  0  0  0  0  0  0  0  0  0  0  0
  1  2  1  0
  2  3  1  0
  3  4  1  0
  4  5  1  0
  5  6  1  0
  6  7  1  0
  7  8  1  0
  8  9  1  0
  9 10  1  0
 10 11  1  0
 11 12  1  0
 12 13  1  0
 13 14  1  0
 14 15  1  0
 15 16  1  0
 16 17  1  0
 17 18  1  0
 18 19  1  0
 19 20  1  0
 20 21  1  0
 21 22  1  0
 22 23  1  0
 23 24  1  0
 24 25  1  0
 25 26  1  0
 26 27  1  0
 27 28  1  0
 28 29  1  0
 29 30  1  0
 30 31  1  0
 31 32  1  0
 32 33  1  0
 33 34  1  0
 34 35  1  0
 35 36  1  0
 36 37  1  0
 37 38  1  0
 38 39  1  0
 39 40  1  0
 40 41  1  0
 41 42  1  0
 42 43  1  0
 43 44  1  0
 44 45  1  0
 45 46  2  0
 46 47  1  0
 47 48  2  0
 48 49  1  0
 49 50  2  0
 50 51  1  0
 51 52  2  0
 52 53  1  0
 53 54  2  0
 54 55  1  0
 55 56  2  0
 56 57  1  0
 57 58  2  0
 58 59  1  0
 59 60  2  0
 60 61  1  0
 61 62  2  0
 62 63  1  0
 63 64  2  0
 64 65  1  0
 65 66  2  0
 66 67  1  0
 67 68  2  0
 68 69  1  0
 69 70  2  0
 70 71  1  0
 71 72  2  0
 72 73  1  0
 73 74  2  0
 74 75  1  0
 75 76  2  0
 76 77  1  0
 77 78  2  0
 78 79  1  0
 79 80  2  0
 80 81  1  0
 81 82  2  0
 82 83  1  0
 83 84  2  0
 84 85  1  0
 85 86  2  0
 86 87  1  0
 87 88  2  0
 88  2  1  0
 88 42  1  0
M  END
>  <Title>  (1066) 
idABNBgen13

$$$$

     RDKit          2D

 26 28  0  0  0  0  0  0  0  0999 V2000
   -8.2500   -6.4952    0.0000 C   0  0  0  0  0  0  0  0  0  0  0  0
   -7.5000   -5.1962    0.0000 C   0  0  0  0  0  0  0  0  0  0  0  0
   -6.0000   -5.1962    0.0000 C   0  0  0  0  0  0  0  0  0  0  0  0
   -5.2500   -3.8971    0.0000 C   0  0  0  0  0  0  0  0  0  0  0  0
   -3.7500   -3.8971    0.0000 N   0  0  0  0  0  0  0  0  0  0  0  0
   -3.0000   -2.5981    0.0000 C   0  0  0  0  0  0  0  0  0  0  0  0
   -3.7500   -1.2990    0.0000 O   0  0  0  0  0  0  0  0  0  0  0  0
   -1.5000   -2.5981    0.0000 C   0  0  0  0  0  0  0  0  0  0  0  0
   -0.7500   -3.8971    0.0000 C   0  0  0  0  0  0  0  0  0  0  0  0
    0.7500   -3.8971    0.0000 C   0  0  0  0  0  0  0  0  0  0  0  0
    1.5000   -2.5981    0.0000 C   0  0  0  0  0  0  0  0  0  0  0  0
    3.0000   -2.5981    0.0000 C   0  0  0  0  0  0  0  0  0  0  0  0
    3.7500   -1.2990    0.0000 O   0  0  0  0  0  0  0  0  0  0  0  0
    3.7500   -3.8971    0.0000 O   0  0  0  0  0  0  0  0  0  0  0  0
    5.2500   -3.8971    0.0000 C   0  0  0  0  0  0  0  0  0  0  0  0
    6.0000   -5.1962    0.0000 C   0  0  0  0  0  0  0  0  0  0  0  0
    7.5000   -5.1962    0.0000 C   0  0  0  0  0  0  0  0  0  0  0  0
    8.2500   -3.8971    0.0000 N   0  0  0  0  0  0  0  0  0  0  0  0
    7.5000   -2.5981    0.0000 N   0  0  0  0  0  0  0  0  0  0  0  0
    6.0000   -2.5981    0.0000 N   0  0  0  0  0  0  0  0  0  0  0  0
    0.7500   -1.2990    0.0000 C   0  0  0  0  0  0  0  0  0  0  0  0
    1.5000    0.0000    0.0000 C   0  0  0  0  0  0  0  0  0  0  0  0
    0.7500    1.2990    0.0000 C   0  0  0  0  0  0  0  0  0  0  0  0
   -0.7500    1.2990    0.0000 C   0  0  0  0  0  0  0  0  0  0  0  0
   -1.5000    0.0000    0.0000 C   0  0  0  0  0  0  0  0  0  0  0  0
   -0.7500   -1.2990    0.0000 C   0  0  0  0  0  0  0  0  0  0  0  0
  1  2  2  0
  2  3  1  0
  3  4  1  0
  4  5  1  0
  5  6  1  0
  6  7  2  0
  6  8  1  0
  8  9  2  0
  9 10  1  0
 10 11  2  0
 11 12  1  0
 12 13  2  0
 12 14  1  0
 14 15  1  0
 15 16  2  0
 16 17  1  0
 17 18  2  0
 18 19  1  0
 19 20  2  0
 11 21  1  0
 21 22  2  0
 22 23  1  0
 23 24  2  0
 24 25  1  0
 25 26  2  0
 26  8  1  0
 20 15  1  0
 26 21  1  0
M  END
>  <Title>  (1067) 
idABNCgen13

$$$$

     RDKit          2D

 21 20  0  0  0  0  0  0  0  0999 V2000
    0.0000    0.0000    0.0000 C   0  0  0  0  0  0  0  0  0  0  0  0
   -0.0000   -1.5000    0.0000 C   0  0  0  0  0  0  0  0  0  0  0  0
   -0.0000   -3.0000    0.0000 C   0  0  0  0  0  0  0  0  0  0  0  0
   -0.0000   -4.5000    0.0000 C   0  0  0  0  0  0  0  0  0  0  0  0
   -0.0000   -6.0000    0.0000 C   0  0  0  0  0  0  0  0  0  0  0  0
   -0.0000   -7.5000    0.0000 C   0  0  0  0  0  0  0  0  0  0  0  0
   -0.0000   -9.0000    0.0000 C   0  0  0  0  0  0  0  0  0  0  0  0
   -0.0000  -10.5000    0.0000 C   0  0  0  0  0  0  0  0  0  0  0  0
   -0.0000  -12.0000    0.0000 C   0  0  0  0  0  0  0  0  0  0  0  0
   -0.0000  -13.5000    0.0000 C   0  0  0  0  0  0  0  0  0  0  0  0
   -0.0000  -15.0000    0.0000 C   0  0  0  0  0  0  0  0  0  0  0  0
   -0.0000  -16.5000    0.0000 C   0  0  0  0  0  0  0  0  0  0  0  0
   -0.0000  -18.0000    0.0000 C   0  0  0  0  0  0  0  0  0  0  0  0
   -0.0000  -19.5000    0.0000 C   0  0  0  0  0  0  0  0  0  0  0  0
   -0.0000  -21.0000    0.0000 C   0  0  0  0  0  0  0  0  0  0  0  0
   -0.0000  -22.5000    0.0000 C   0  0  0  0  0  0  0  0  0  0  0  0
   -0.0000  -24.0000    0.0000 C   0  0  0  0  0  0  0  0  0  0  0  0
    1.2990  -24.7500    0.0000 C   0  0  0  0  0  0  0  0  0  0  0  0
    1.2990  -26.2500    0.0000 C   0  0  0  0  0  0  0  0  0  0  0  0
    2.5981  -27.0000    0.0000 C   0  0  0  0  0  0  0  0  0  0  0  0
    2.5981  -28.5000    0.0000 C   0  0  0  0  0  0  0  0  0  0  0  0
  1  2  3  0
  2  3  1  0
  3  4  3  0
  4  5  1  0
  5  6  3  0
  6  7  1  0
  7  8  3  0
  8  9  1  0
  9 10  3  0
 10 11  1  0
 11 12  3  0
 12 13  1  0
 13 14  3  0
 14 15  1  0
 15 16  3  0
 16 17  1  0
 17 18  1  0
 18 19  1  0
 19 20  2  3
 20 21  1  0
M  END
>  <Title>  (1068) 
idABNDgen13

$$$$

     RDKit          2D

 44 49  0  0  0  0  0  0  0  0999 V2000
   -1.1005    7.1750    0.0000 C   0  0  0  0  0  0  0  0  0  0  0  0
   -1.5641    5.7484    0.0000 C   0  0  0  0  0  0  0  0  0  0  0  0
   -2.0276    4.3218    0.0000 C   0  0  0  0  0  0  0  0  0  0  0  0
   -2.4911    2.8952    0.0000 C   0  0  0  0  0  0  0  0  0  0  0  0
   -2.9546    1.4686    0.0000 C   0  0  0  0  0  0  0  0  0  0  0  0
   -3.4182    0.0420    0.0000 C   0  0  0  0  0  0  0  0  0  0  0  0
   -3.8817   -1.3846    0.0000 C   0  0  0  0  0  0  0  0  0  0  0  0
   -5.3083   -1.8481    0.0000 N   0  0  0  0  0  0  0  0  0  0  0  0
   -5.3083   -3.3481    0.0000 N   0  0  0  0  0  0  0  0  0  0  0  0
   -3.8817   -3.8116    0.0000 N   0  0  0  0  0  0  0  0  0  0  0  0
   -3.0000   -2.5981    0.0000 N   0  0  0  0  0  0  0  0  0  0  0  0
   -1.5000   -2.5981    0.0000 C   0  0  0  0  0  0  0  0  0  0  0  0
   -0.7500   -3.8971    0.0000 C   0  0  0  0  0  0  0  0  0  0  0  0
    0.7500   -3.8971    0.0000 C   0  0  0  0  0  0  0  0  0  0  0  0
    1.5000   -2.5981    0.0000 C   0  0  0  0  0  0  0  0  0  0  0  0
    3.0000   -2.5981    0.0000 C   0  0  0  0  0  0  0  0  0  0  0  0
    3.7500   -1.2990    0.0000 O   0  0  0  0  0  0  0  0  0  0  0  0
    3.7500   -3.8971    0.0000 N   0  0  0  0  0  0  0  0  0  0  0  0
    5.2500   -3.8971    0.0000 C   0  0  0  0  0  0  0  0  0  0  0  0
    6.1317   -2.6836    0.0000 N   0  0  0  0  0  0  0  0  0  0  0  0
    7.5583   -3.1471    0.0000 N   0  0  0  0  0  0  0  0  0  0  0  0
    7.5583   -4.6471    0.0000 N   0  0  0  0  0  0  0  0  0  0  0  0
    6.1317   -5.1106    0.0000 N   0  0  0  0  0  0  0  0  0  0  0  0
    5.6682   -6.5372    0.0000 N   0  0  0  0  0  0  0  0  0  0  0  0
    6.5498   -7.7508    0.0000 C   0  0  0  0  0  0  0  0  0  0  0  0
    5.6682   -8.9643    0.0000 C   0  0  0  0  0  0  0  0  0  0  0  0
    4.2416   -8.5008    0.0000 N   0  0  0  0  0  0  0  0  0  0  0  0
    3.0280   -9.3824    0.0000 C   0  0  0  0  0  0  0  0  0  0  0  0
    3.1848  -10.8742    0.0000 O   0  0  0  0  0  0  0  0  0  0  0  0
    1.6577   -8.7723    0.0000 N   0  0  0  0  0  0  0  0  0  0  0  0
    0.4442   -9.6540    0.0000 C   0  0  0  0  0  0  0  0  0  0  0  0
   -0.9261   -9.0439    0.0000 N   0  0  0  0  0  0  0  0  0  0  0  0
   -2.1396   -9.9256    0.0000 N   0  0  0  0  0  0  0  0  0  0  0  0
   -1.9829  -11.4174    0.0000 N   0  0  0  0  0  0  0  0  0  0  0  0
   -0.6125  -12.0275    0.0000 N   0  0  0  0  0  0  0  0  0  0  0  0
    0.6010  -11.1458    0.0000 N   0  0  0  0  0  0  0  0  0  0  0  0
    4.2416   -7.0008    0.0000 C   0  0  0  0  0  0  0  0  0  0  0  0
    3.0280   -6.1191    0.0000 O   0  0  0  0  0  0  0  0  0  0  0  0
    0.7500   -1.2990    0.0000 C   0  0  0  0  0  0  0  0  0  0  0  0
    1.5000    0.0000    0.0000 C   0  0  0  0  0  0  0  0  0  0  0  0
    0.7500    1.2990    0.0000 C   0  0  0  0  0  0  0  0  0  0  0  0
   -0.7500    1.2990    0.0000 C   0  0  0  0  0  0  0  0  0  0  0  0
   -1.5000    0.0000    0.0000 C   0  0  0  0  0  0  0  0  0  0  0  0
   -0.7500   -1.2990    0.0000 C   0  0  0  0  0  0  0  0  0  0  0  0
  1  2  3  0
  2  3  1  0
  3  4  3  0
  4  5  1  0
  5  6  3  0
  6  7  1  0
  7  8  2  0
  8  9  1  0
  9 10  2  0
 10 11  1  0
 11 12  1  0
 12 13  2  0
 13 14  1  0
 14 15  2  0
 15 16  1  0
 16 17  2  0
 16 18  1  0
 18 19  1  0
 19 20  2  0
 20 21  1  0
 21 22  2  0
 22 23  1  0
 23 24  1  0
 24 25  1  0
 25 26  1  0
 26 27  1  0
 27 28  1  0
 28 29  2  0
 28 30  1  0
 30 31  1  0
 31 32  2  0
 32 33  1  0
 33 34  2  0
 34 35  1  0
 35 36  2  0
 27 37  1  0
 37 38  2  0
 15 39  1  0
 39 40  2  0
 40 41  1  0
 41 42  2  0
 42 43  1  0
 43 44  2  0
 11  7  1  0
 44 12  1  0
 23 19  1  0
 37 24  1  0
 44 39  1  0
 36 31  1  0
M  END
>  <Title>  (1069) 
idABNEgen13

$$$$

     RDKit          2D

  8  8  0  0  0  0  0  0  0  0999 V2000
    3.2286   -0.0000    0.0000 C   0  0  0  0  0  0  0  0  0  0  0  0
    1.7286    0.0000    0.0000 C   0  0  0  0  0  0  0  0  0  0  0  0
    1.0777    1.3515    0.0000 C   0  0  0  0  0  0  0  0  0  0  0  0
   -0.3846    1.6852    0.0000 C   0  0  0  0  0  0  0  0  0  0  0  0
   -1.5574    0.7500    0.0000 C   0  0  0  0  0  0  0  0  0  0  0  0
   -1.5574   -0.7500    0.0000 C   0  0  0  0  0  0  0  0  0  0  0  0
   -0.3846   -1.6852    0.0000 C   0  0  0  0  0  0  0  0  0  0  0  0
    1.0777   -1.3515    0.0000 C   0  0  0  0  0  0  0  0  0  0  0  0
  1  2  1  0
  2  3  1  0
  3  4  2  0
  4  5  1  0
  5  6  1  0
  6  7  1  0
  7  8  1  0
  8  2  1  0
M  END
>  <Title>  (1070) 
idABNFgen13

$$$$

     RDKit          2D

 34 38  0  0  0  0  0  0  0  0999 V2000
   -3.0000   -2.5981    0.0000 C   0  0  0  0  0  0  0  0  0  0  0  0
   -1.5000   -2.5981    0.0000 C   0  0  0  0  0  0  0  0  0  0  0  0
   -0.7500   -3.8971    0.0000 C   0  0  0  0  0  0  0  0  0  0  0  0
    0.7500   -3.8971    0.0000 C   0  0  0  0  0  0  0  0  0  0  0  0
    1.5000   -2.5981    0.0000 C   0  0  0  0  0  0  0  0  0  0  0  0
    3.0000   -2.5981    0.0000 C   0  0  0  0  0  0  0  0  0  0  0  0
    3.7500   -1.2990    0.0000 O   0  0  0  0  0  0  0  0  0  0  0  0
    3.7500   -3.8971    0.0000 N   0  0  0  0  0  0  0  0  0  0  0  0
    5.2500   -3.8971    0.0000 C   0  0  0  0  0  0  0  0  0  0  0  0
    6.1317   -2.6836    0.0000 N   0  0  0  0  0  0  0  0  0  0  0  0
    7.5583   -3.1471    0.0000 N   0  0  0  0  0  0  0  0  0  0  0  0
    7.5583   -4.6471    0.0000 N   0  0  0  0  0  0  0  0  0  0  0  0
    6.1317   -5.1106    0.0000 N   0  0  0  0  0  0  0  0  0  0  0  0
    5.6682   -6.5372    0.0000 N   0  0  0  0  0  0  0  0  0  0  0  0
    6.5498   -7.7508    0.0000 C   0  0  0  0  0  0  0  0  0  0  0  0
    5.6682   -8.9643    0.0000 C   0  0  0  0  0  0  0  0  0  0  0  0
    4.2416   -8.5008    0.0000 C   0  0  0  0  0  0  0  0  0  0  0  0
    3.0280   -9.3824    0.0000 C   0  0  0  0  0  0  0  0  0  0  0  0
    3.1848  -10.8742    0.0000 O   0  0  0  0  0  0  0  0  0  0  0  0
    1.6577   -8.7723    0.0000 N   0  0  0  0  0  0  0  0  0  0  0  0
    0.4442   -9.6540    0.0000 C   0  0  0  0  0  0  0  0  0  0  0  0
   -0.9261   -9.0439    0.0000 N   0  0  0  0  0  0  0  0  0  0  0  0
   -2.1396   -9.9256    0.0000 N   0  0  0  0  0  0  0  0  0  0  0  0
   -1.9829  -11.4174    0.0000 N   0  0  0  0  0  0  0  0  0  0  0  0
   -0.6125  -12.0275    0.0000 N   0  0  0  0  0  0  0  0  0  0  0  0
    0.6010  -11.1458    0.0000 N   0  0  0  0  0  0  0  0  0  0  0  0
    4.2416   -7.0008    0.0000 C   0  0  0  0  0  0  0  0  0  0  0  0
    3.0280   -6.1191    0.0000 O   0  0  0  0  0  0  0  0  0  0  0  0
    0.7500   -1.2990    0.0000 C   0  0  0  0  0  0  0  0  0  0  0  0
    1.5000    0.0000    0.0000 C   0  0  0  0  0  0  0  0  0  0  0  0
    0.7500    1.2990    0.0000 C   0  0  0  0  0  0  0  0  0  0  0  0
   -0.7500    1.2990    0.0000 C   0  0  0  0  0  0  0  0  0  0  0  0
   -1.5000    0.0000    0.0000 C   0  0  0  0  0  0  0  0  0  0  0  0
   -0.7500   -1.2990    0.0000 C   0  0  0  0  0  0  0  0  0  0  0  0
  1  2  1  0
  2  3  2  0
  3  4  1  0
  4  5  2  0
  5  6  1  0
  6  7  2  0
  6  8  1  0
  8  9  1  0
  9 10  2  0
 10 11  1  0
 11 12  2  0
 12 13  1  0
 13 14  1  0
 14 15  1  0
 15 16  1  0
 16 17  1  0
 17 18  1  0
 18 19  2  0
 18 20  1  0
 20 21  1  0
 21 22  2  0
 22 23  1  0
 23 24  2  0
 24 25  1  0
 25 26  2  0
 17 27  1  0
 27 28  2  0
  5 29  1  0
 29 30  2  0
 30 31  1  0
 31 32  2  0
 32 33  1  0
 33 34  2  0
 34  2  1  0
 13  9  1  0
 27 14  1  0
 34 29  1  0
 26 21  1  0
M  END
>  <Title>  (1071) 
idABNGgen13

$$$$

     RDKit          2D

 52 54  0  0  0  0  0  0  0  0999 V2000
   -2.3201   -3.9334    0.0000 C   0  0  0  0  0  0  0  0  0  0  0  0
   -3.7296   -3.4203    0.0000 C   0  0  0  0  0  0  0  0  0  0  0  0
   -3.6773   -1.9213    0.0000 C   0  0  0  0  0  0  0  0  0  0  0  0
   -5.0476   -2.5314    0.0000 C   0  0  0  0  0  0  0  0  0  0  0  0
   -6.3197   -3.3262    0.0000 C   0  0  0  0  0  0  0  0  0  0  0  0
   -7.4688   -4.2904    0.0000 C   0  0  0  0  0  0  0  0  0  0  0  0
   -8.4724   -5.4051    0.0000 C   0  0  0  0  0  0  0  0  0  0  0  0
   -9.3112   -6.6487    0.0000 C   0  0  0  0  0  0  0  0  0  0  0  0
   -9.9688   -7.9969    0.0000 C   0  0  0  0  0  0  0  0  0  0  0  0
  -10.4323   -9.4235    0.0000 C   0  0  0  0  0  0  0  0  0  0  0  0
  -10.6928  -10.9007    0.0000 C   0  0  0  0  0  0  0  0  0  0  0  0
  -10.7451  -12.3998    0.0000 C   0  0  0  0  0  0  0  0  0  0  0  0
  -10.5883  -13.8915    0.0000 C   0  0  0  0  0  0  0  0  0  0  0  0
  -10.2255  -15.3470    0.0000 C   0  0  0  0  0  0  0  0  0  0  0  0
   -9.6636  -16.7378    0.0000 C   0  0  0  0  0  0  0  0  0  0  0  0
   -8.9136  -18.0368    0.0000 C   0  0  0  0  0  0  0  0  0  0  0  0
   -7.9901  -19.2188    0.0000 C   0  0  0  0  0  0  0  0  0  0  0  0
   -6.9111  -20.2608    0.0000 C   0  0  0  0  0  0  0  0  0  0  0  0
   -5.6975  -21.1425    0.0000 C   0  0  0  0  0  0  0  0  0  0  0  0
   -4.3731  -21.8467    0.0000 C   0  0  0  0  0  0  0  0  0  0  0  0
   -2.9636  -22.3597    0.0000 C   0  0  0  0  0  0  0  0  0  0  0  0
   -1.4963  -22.6716    0.0000 C   0  0  0  0  0  0  0  0  0  0  0  0
    0.0000  -22.7762    0.0000 C   0  0  0  0  0  0  0  0  0  0  0  0
    1.4963  -22.6716    0.0000 C   0  0  0  0  0  0  0  0  0  0  0  0
    2.9636  -22.3597    0.0000 C   0  0  0  0  0  0  0  0  0  0  0  0
    4.3731  -21.8467    0.0000 C   0  0  0  0  0  0  0  0  0  0  0  0
    5.6975  -21.1425    0.0000 C   0  0  0  0  0  0  0  0  0  0  0  0
    6.9111  -20.2608    0.0000 C   0  0  0  0  0  0  0  0  0  0  0  0
    7.9901  -19.2188    0.0000 C   0  0  0  0  0  0  0  0  0  0  0  0
    8.9136  -18.0368    0.0000 C   0  0  0  0  0  0  0  0  0  0  0  0
    9.6636  -16.7378    0.0000 C   0  0  0  0  0  0  0  0  0  0  0  0
   10.2255  -15.3470    0.0000 C   0  0  0  0  0  0  0  0  0  0  0  0
   10.5883  -13.8915    0.0000 C   0  0  0  0  0  0  0  0  0  0  0  0
   10.7451  -12.3998    0.0000 C   0  0  0  0  0  0  0  0  0  0  0  0
   10.6928  -10.9007    0.0000 C   0  0  0  0  0  0  0  0  0  0  0  0
   10.4323   -9.4235    0.0000 C   0  0  0  0  0  0  0  0  0  0  0  0
    9.9688   -7.9969    0.0000 C   0  0  0  0  0  0  0  0  0  0  0  0
    9.3112   -6.6487    0.0000 C   0  0  0  0  0  0  0  0  0  0  0  0
    8.4724   -5.4051    0.0000 C   0  0  0  0  0  0  0  0  0  0  0  0
    7.4688   -4.2904    0.0000 C   0  0  0  0  0  0  0  0  0  0  0  0
    6.3197   -3.3262    0.0000 C   0  0  0  0  0  0  0  0  0  0  0  0
    5.0476   -2.5314    0.0000 C   0  0  0  0  0  0  0  0  0  0  0  0
    3.6773   -1.9213    0.0000 C   0  0  0  0  0  0  0  0  0  0  0  0
    2.2354   -1.5078    0.0000 C   0  0  0  0  0  0  0  0  0  0  0  0
    0.7500   -1.2990    0.0000 C   0  0  0  0  0  0  0  0  0  0  0  0
    1.5000    0.0000    0.0000 C   0  0  0  0  0  0  0  0  0  0  0  0
    0.7500    1.2990    0.0000 C   0  0  0  0  0  0  0  0  0  0  0  0
   -0.7500    1.2990    0.0000 C   0  0  0  0  0  0  0  0  0  0  0  0
   -1.5000    0.0000    0.0000 C   0  0  0  0  0  0  0  0  0  0  0  0
   -0.7500   -1.2990    0.0000 C   0  0  0  0  0  0  0  0  0  0  0  0
   -2.2354   -1.5078    0.0000 C   0  0  0  0  0  0  0  0  0  0  0  0
   -1.3966   -2.7514    0.0000 C   0  0  0  0  0  0  0  0  0  0  0  0
  1  2  2  0
  2  3  1  0
  3  4  1  0
  4  5  1  0
  5  6  1  0
  6  7  1  0
  7  8  1  0
  8  9  1  0
  9 10  1  0
 10 11  1  0
 11 12  1  0
 12 13  1  0
 13 14  1  0
 14 15  1  0
 15 16  1  0
 16 17  1  0
 17 18  1  0
 18 19  1  0
 19 20  1  0
 20 21  1  0
 21 22  1  0
 22 23  1  0
 23 24  1  0
 24 25  1  0
 25 26  1  0
 26 27  1  0
 27 28  1  0
 28 29  1  0
 29 30  1  0
 30 31  1  0
 31 32  1  0
 32 33  1  0
 33 34  1  0
 34 35  1  0
 35 36  1  0
 36 37  1  0
 37 38  1  0
 38 39  1  0
 39 40  1  0
 40 41  1  0
 41 42  1  0
 42 43  1  0
 43 44  1  0
 44 45  1  0
 45 46  2  0
 46 47  1  0
 47 48  2  0
 48 49  1  0
 49 50  2  0
 50 51  1  0
 51 52  2  0
 52  1  1  0
 51  3  1  0
 50 45  1  0
M  END
>  <Title>  (1072) 
idABNHgen13

$$$$

     RDKit          2D

 54 61  0  0  0  0  0  0  0  0999 V2000
    1.0838   -9.3334    0.0000 C   0  0  0  0  0  0  0  0  0  0  0  0
    0.7500   -7.8710    0.0000 C   0  0  0  0  0  0  0  0  0  0  0  0
    2.1015   -7.2201    0.0000 C   0  0  0  0  0  0  0  0  0  0  0  0
    3.0367   -6.0474    0.0000 C   0  0  0  0  0  0  0  0  0  0  0  0
    3.3705   -4.5850    0.0000 C   0  0  0  0  0  0  0  0  0  0  0  0
    3.0367   -3.1226    0.0000 C   0  0  0  0  0  0  0  0  0  0  0  0
    2.1015   -1.9499    0.0000 C   0  0  0  0  0  0  0  0  0  0  0  0
    3.0367   -0.7771    0.0000 C   0  0  0  0  0  0  0  0  0  0  0  0
    2.4887    0.6192    0.0000 O   0  0  0  0  0  0  0  0  0  0  0  0
    4.5199   -1.0007    0.0000 N   0  0  0  0  0  0  0  0  0  0  0  0
    5.4552    0.1721    0.0000 C   0  0  0  0  0  0  0  0  0  0  0  0
    5.0561    1.6180    0.0000 N   0  0  0  0  0  0  0  0  0  0  0  0
    6.3080    2.4444    0.0000 N   0  0  0  0  0  0  0  0  0  0  0  0
    7.4807    1.5091    0.0000 N   0  0  0  0  0  0  0  0  0  0  0  0
    6.9537    0.1048    0.0000 N   0  0  0  0  0  0  0  0  0  0  0  0
    7.7800   -1.1471    0.0000 N   0  0  0  0  0  0  0  0  0  0  0  0
    9.2785   -1.2144    0.0000 C   0  0  0  0  0  0  0  0  0  0  0  0
    9.6775   -2.6603    0.0000 C   0  0  0  0  0  0  0  0  0  0  0  0
    8.4257   -3.4867    0.0000 C   0  0  0  0  0  0  0  0  0  0  0  0
    8.3584   -4.9852    0.0000 C   0  0  0  0  0  0  0  0  0  0  0  0
    9.6225   -5.7927    0.0000 O   0  0  0  0  0  0  0  0  0  0  0  0
    7.0270   -5.6761    0.0000 N   0  0  0  0  0  0  0  0  0  0  0  0
    6.9597   -7.1746    0.0000 C   0  0  0  0  0  0  0  0  0  0  0  0
    5.6283   -7.8656    0.0000 N   0  0  0  0  0  0  0  0  0  0  0  0
    5.5610   -9.3641    0.0000 N   0  0  0  0  0  0  0  0  0  0  0  0
    6.8251  -10.1716    0.0000 N   0  0  0  0  0  0  0  0  0  0  0  0
    8.1565   -9.4806    0.0000 N   0  0  0  0  0  0  0  0  0  0  0  0
    8.2238   -7.9821    0.0000 N   0  0  0  0  0  0  0  0  0  0  0  0
    7.2529   -2.5514    0.0000 C   0  0  0  0  0  0  0  0  0  0  0  0
    5.8070   -2.9505    0.0000 O   0  0  0  0  0  0  0  0  0  0  0  0
    0.7500   -1.2990    0.0000 C   0  0  0  0  0  0  0  0  0  0  0  0
    1.5000    0.0000    0.0000 C   0  0  0  0  0  0  0  0  0  0  0  0
    0.7500    1.2990    0.0000 C   0  0  0  0  0  0  0  0  0  0  0  0
   -0.7500    1.2990    0.0000 C   0  0  0  0  0  0  0  0  0  0  0  0
   -1.5000    0.0000    0.0000 C   0  0  0  0  0  0  0  0  0  0  0  0
   -0.7500   -1.2990    0.0000 C   0  0  0  0  0  0  0  0  0  0  0  0
   -2.1015   -1.9499    0.0000 C   0  0  0  0  0  0  0  0  0  0  0  0
   -2.6495   -0.5536    0.0000 C   0  0  0  0  0  0  0  0  0  0  0  0
   -4.1327   -0.3300    0.0000 C   0  0  0  0  0  0  0  0  0  0  0  0
   -5.0679   -1.5027    0.0000 C   0  0  0  0  0  0  0  0  0  0  0  0
   -4.5199   -2.8990    0.0000 C   0  0  0  0  0  0  0  0  0  0  0  0
   -3.0367   -3.1226    0.0000 C   0  0  0  0  0  0  0  0  0  0  0  0
   -3.3705   -4.5850    0.0000 C   0  0  0  0  0  0  0  0  0  0  0  0
   -4.8038   -4.1429    0.0000 C   0  0  0  0  0  0  0  0  0  0  0  0
   -5.9034   -5.1631    0.0000 C   0  0  0  0  0  0  0  0  0  0  0  0
   -5.5696   -6.6255    0.0000 C   0  0  0  0  0  0  0  0  0  0  0  0
   -4.1363   -7.0677    0.0000 C   0  0  0  0  0  0  0  0  0  0  0  0
   -3.0367   -6.0474    0.0000 C   0  0  0  0  0  0  0  0  0  0  0  0
   -2.1015   -7.2201    0.0000 C   0  0  0  0  0  0  0  0  0  0  0  0
   -3.3408   -8.0651    0.0000 C   0  0  0  0  0  0  0  0  0  0  0  0
   -3.2287   -9.5609    0.0000 C   0  0  0  0  0  0  0  0  0  0  0  0
   -1.8773  -10.2118    0.0000 C   0  0  0  0  0  0  0  0  0  0  0  0
   -0.6379   -9.3668    0.0000 C   0  0  0  0  0  0  0  0  0  0  0  0
   -0.7500   -7.8710    0.0000 C   0  0  0  0  0  0  0  0  0  0  0  0
  1  2  1  0
  2  3  1  0
  3  4  2  0
  4  5  1  0
  5  6  1  0
  6  7  1  0
  7  8  1  0
  8  9  2  0
  8 10  1  0
 10 11  1  0
 11 12  2  0
 12 13  1  0
 13 14  2  0
 14 15  1  0
 15 16  1  0
 16 17  1  0
 17 18  1  0
 18 19  1  0
 19 20  1  0
 20 21  2  0
 20 22  1  0
 22 23  1  0
 23 24  2  0
 24 25  1  0
 25 26  2  0
 26 27  1  0
 27 28  2  0
 19 29  1  0
 29 30  2  0
  7 31  1  0
 31 32  2  0
 32 33  1  0
 33 34  2  0
 34 35  1  0
 35 36  2  0
 36 37  1  0
 37 38  2  0
 38 39  1  0
 39 40  2  0
 40 41  1  0
 41 42  2  0
 42 43  1  0
 43 44  2  0
 44 45  1  0
 45 46  2  0
 46 47  1  0
 47 48  2  0
 48 49  1  0
 49 50  2  0
 50 51  1  0
 51 52  2  0
 52 53  1  0
 53 54  2  0
 54  2  1  0
 15 11  1  0
 29 16  1  0
 36 31  1  0
 42 37  1  0
 48 43  1  0
 54 49  1  0
 28 23  1  0
M  END
>  <Title>  (1073) 
idABNIgen13

$$$$

     RDKit          2D

 38 42  0  0  0  0  0  0  0  0999 V2000
    3.0000    0.0000    0.0000 C   0  0  0  0  0  0  0  0  0  0  0  0
    1.5000    0.0000    0.0000 C   0  0  0  0  0  0  0  0  0  0  0  0
    0.7500    1.2990    0.0000 C   0  0  0  0  0  0  0  0  0  0  0  0
   -0.7500    1.2990    0.0000 C   0  0  0  0  0  0  0  0  0  0  0  0
   -1.5000    0.0000    0.0000 C   0  0  0  0  0  0  0  0  0  0  0  0
   -3.0000    0.0000    0.0000 C   0  0  0  0  0  0  0  0  0  0  0  0
   -3.7500   -1.2990    0.0000 O   0  0  0  0  0  0  0  0  0  0  0  0
   -3.7500    1.2990    0.0000 N   0  0  0  0  0  0  0  0  0  0  0  0
   -5.2500    1.2990    0.0000 C   0  0  0  0  0  0  0  0  0  0  0  0
   -6.1317    0.0855    0.0000 N   0  0  0  0  0  0  0  0  0  0  0  0
   -7.5583    0.5490    0.0000 N   0  0  0  0  0  0  0  0  0  0  0  0
   -7.5583    2.0490    0.0000 N   0  0  0  0  0  0  0  0  0  0  0  0
   -6.1317    2.5126    0.0000 N   0  0  0  0  0  0  0  0  0  0  0  0
   -5.6682    3.9391    0.0000 C   0  0  0  0  0  0  0  0  0  0  0  0
   -6.5498    5.1527    0.0000 C   0  0  0  0  0  0  0  0  0  0  0  0
   -5.6682    6.3662    0.0000 C   0  0  0  0  0  0  0  0  0  0  0  0
   -4.2416    5.9027    0.0000 C   0  0  0  0  0  0  0  0  0  0  0  0
   -3.0280    6.7844    0.0000 O   0  0  0  0  0  0  0  0  0  0  0  0
   -1.6577    6.1742    0.0000 C   0  0  0  0  0  0  0  0  0  0  0  0
   -1.5009    4.6825    0.0000 O   0  0  0  0  0  0  0  0  0  0  0  0
   -0.4442    7.0559    0.0000 N   0  0  0  0  0  0  0  0  0  0  0  0
    0.9261    6.4458    0.0000 C   0  0  0  0  0  0  0  0  0  0  0  0
    1.0829    4.9540    0.0000 N   0  0  0  0  0  0  0  0  0  0  0  0
    2.4532    4.3439    0.0000 N   0  0  0  0  0  0  0  0  0  0  0  0
    3.6668    5.2256    0.0000 N   0  0  0  0  0  0  0  0  0  0  0  0
    3.5100    6.7174    0.0000 N   0  0  0  0  0  0  0  0  0  0  0  0
    2.1396    7.3275    0.0000 N   0  0  0  0  0  0  0  0  0  0  0  0
   -4.2416    4.4027    0.0000 C   0  0  0  0  0  0  0  0  0  0  0  0
   -3.0280    3.5210    0.0000 O   0  0  0  0  0  0  0  0  0  0  0  0
   -0.7500   -1.2990    0.0000 C   0  0  0  0  0  0  0  0  0  0  0  0
   -1.5000   -2.5981    0.0000 O   0  0  0  0  0  0  0  0  0  0  0  0
    0.7500   -1.2990    0.0000 N   0  0  0  0  0  0  0  0  0  0  0  0
    1.5000   -2.5981    0.0000 C   0  0  0  0  0  0  0  0  0  0  0  0
    0.7500   -3.8971    0.0000 C   0  0  0  0  0  0  0  0  0  0  0  0
    1.5000   -5.1962    0.0000 C   0  0  0  0  0  0  0  0  0  0  0  0
    3.0000   -5.1962    0.0000 C   0  0  0  0  0  0  0  0  0  0  0  0
    3.7500   -3.8971    0.0000 C   0  0  0  0  0  0  0  0  0  0  0  0
    3.0000   -2.5981    0.0000 C   0  0  0  0  0  0  0  0  0  0  0  0
  1  2  1  0
  2  3  1  0
  3  4  2  0
  4  5  1  0
  5  6  1  0
  6  7  2  0
  6  8  1  0
  8  9  1  0
  9 10  2  0
 10 11  1  0
 11 12  2  0
 12 13  1  0
 13 14  1  0
 14 15  2  0
 15 16  1  0
 16 17  2  0
 17 18  1  0
 18 19  1  0
 19 20  2  0
 19 21  1  0
 21 22  1  0
 22 23  2  0
 23 24  1  0
 24 25  2  0
 25 26  1  0
 26 27  2  0
 17 28  1  0
 28 29  2  0
  5 30  1  0
 30 31  2  0
 30 32  1  0
 32 33  1  0
 33 34  2  0
 34 35  1  0
 35 36  2  0
 36 37  1  0
 37 38  2  0
 32  2  1  0
 38 33  1  0
 13  9  1  0
 28 14  1  0
 27 22  1  0
M  END
>  <Title>  (1074) 
idABNJgen13

$$$$

     RDKit          2D

 20 19  0  0  0  0  0  0  0  0999 V2000
    0.0000    0.0000    0.0000 C   0  0  0  0  0  0  0  0  0  0  0  0
   -0.0000   -1.5000    0.0000 C   0  0  0  0  0  0  0  0  0  0  0  0
   -0.0000   -3.0000    0.0000 C   0  0  0  0  0  0  0  0  0  0  0  0
   -0.0000   -4.5000    0.0000 C   0  0  0  0  0  0  0  0  0  0  0  0
   -0.0000   -6.0000    0.0000 C   0  0  0  0  0  0  0  0  0  0  0  0
   -0.0000   -7.5000    0.0000 C   0  0  0  0  0  0  0  0  0  0  0  0
   -0.0000   -9.0000    0.0000 C   0  0  0  0  0  0  0  0  0  0  0  0
   -0.0000  -10.5000    0.0000 C   0  0  0  0  0  0  0  0  0  0  0  0
   -0.0000  -12.0000    0.0000 C   0  0  0  0  0  0  0  0  0  0  0  0
   -0.0000  -13.5000    0.0000 C   0  0  0  0  0  0  0  0  0  0  0  0
   -0.0000  -15.0000    0.0000 C   0  0  0  0  0  0  0  0  0  0  0  0
   -0.0000  -16.5000    0.0000 C   0  0  0  0  0  0  0  0  0  0  0  0
   -0.0000  -18.0000    0.0000 C   0  0  0  0  0  0  0  0  0  0  0  0
   -0.0000  -19.5000    0.0000 C   0  0  0  0  0  0  0  0  0  0  0  0
   -0.0000  -21.0000    0.0000 C   0  0  0  0  0  0  0  0  0  0  0  0
   -0.0000  -22.5000    0.0000 C   0  0  0  0  0  0  0  0  0  0  0  0
   -0.0000  -24.0000    0.0000 C   0  0  0  0  0  0  0  0  0  0  0  0
   -0.0000  -25.5000    0.0000 C   0  0  0  0  0  0  0  0  0  0  0  0
   -0.0000  -27.0000    0.0000 C   0  0  0  0  0  0  0  0  0  0  0  0
   -0.0000  -28.5000    0.0000 C   0  0  0  0  0  0  0  0  0  0  0  0
  1  2  3  0
  2  3  1  0
  3  4  3  0
  4  5  1  0
  5  6  3  0
  6  7  1  0
  7  8  3  0
  8  9  1  0
  9 10  3  0
 10 11  1  0
 11 12  3  0
 12 13  1  0
 13 14  3  0
 14 15  1  0
 15 16  3  0
 16 17  1  0
 17 18  3  0
 18 19  1  0
 19 20  3  0
M  END
>  <Title>  (1075) 
idABNKgen13

$$$$

     RDKit          2D

  9  8  0  0  0  0  0  0  0  0999 V2000
    0.0000    0.0000    0.0000 C   0  0  0  0  0  0  0  0  0  0  0  0
    1.2990    0.7500    0.0000 C   0  0  0  0  0  0  0  0  0  0  0  0
    2.5981   -0.0000    0.0000 C   0  0  0  0  0  0  0  0  0  0  0  0
    3.8971    0.7500    0.0000 C   0  0  0  0  0  0  0  0  0  0  0  0
    3.8971    2.2500    0.0000 O   0  0  0  0  0  0  0  0  0  0  0  0
    5.1962   -0.0000    0.0000 N   0  0  0  0  0  0  0  0  0  0  0  0
    6.4952    0.7500    0.0000 C   0  0  0  0  0  0  0  0  0  0  0  0
    7.7942   -0.0000    0.0000 C   0  0  0  0  0  0  0  0  0  0  0  0
    6.4952    2.2500    0.0000 O   0  0  0  0  0  0  0  0  0  0  0  0
  1  2  1  0
  2  3  1  0
  3  4  1  0
  4  5  2  0
  4  6  1  0
  6  7  1  0
  7  8  1  0
  7  9  2  0
M  END
>  <Title>  (1076) 
idABNLgen13

$$$$

     RDKit          2D

 11 12  0  0  0  0  0  0  0  0999 V2000
   -3.0000   -2.5981    0.0000 C   0  0  0  0  0  0  0  0  0  0  0  0
   -1.5000   -2.5981    0.0000 C   0  0  0  0  0  0  0  0  0  0  0  0
   -0.7500   -3.8971    0.0000 C   0  0  0  0  0  0  0  0  0  0  0  0
    0.7500   -3.8971    0.0000 C   0  0  0  0  0  0  0  0  0  0  0  0
    1.5000   -2.5981    0.0000 C   0  0  0  0  0  0  0  0  0  0  0  0
    0.7500   -1.2990    0.0000 C   0  0  0  0  0  0  0  0  0  0  0  0
    1.5000    0.0000    0.0000 C   0  0  0  0  0  0  0  0  0  0  0  0
    0.7500    1.2990    0.0000 C   0  0  0  0  0  0  0  0  0  0  0  0
   -0.7500    1.2990    0.0000 C   0  0  0  0  0  0  0  0  0  0  0  0
   -1.5000    0.0000    0.0000 C   0  0  0  0  0  0  0  0  0  0  0  0
   -0.7500   -1.2990    0.0000 C   0  0  0  0  0  0  0  0  0  0  0  0
  1  2  1  0
  2  3  1  0
  3  4  1  0
  4  5  1  0
  5  6  1  0
  6  7  2  0
  7  8  1  0
  8  9  2  0
  9 10  1  0
 10 11  2  0
 11  2  1  0
 11  6  1  0
M  END
>  <Title>  (1077) 
idABNMgen13

$$$$

     RDKit          2D

 37 42  0  0  0  0  0  0  0  0999 V2000
   -1.3240   -6.3062    0.0000 C   0  0  0  0  0  0  0  0  0  0  0  0
   -0.7500   -4.9204    0.0000 N   0  0  0  0  0  0  0  0  0  0  0  0
    0.7500   -4.9204    0.0000 C   0  0  0  0  0  0  0  0  0  0  0  0
    1.8107   -3.8597    0.0000 C   0  0  0  0  0  0  0  0  0  0  0  0
    1.8107   -2.3597    0.0000 C   0  0  0  0  0  0  0  0  0  0  0  0
    3.1965   -1.7857    0.0000 C   0  0  0  0  0  0  0  0  0  0  0  0
    3.5466   -0.3271    0.0000 N   0  0  0  0  0  0  0  0  0  0  0  0
    5.0420   -0.2094    0.0000 N   0  0  0  0  0  0  0  0  0  0  0  0
    5.6160   -1.5952    0.0000 N   0  0  0  0  0  0  0  0  0  0  0  0
    4.4754   -2.5694    0.0000 N   0  0  0  0  0  0  0  0  0  0  0  0
    4.5931   -4.0648    0.0000 N   0  0  0  0  0  0  0  0  0  0  0  0
    5.8721   -4.8485    0.0000 C   0  0  0  0  0  0  0  0  0  0  0  0
    5.5219   -6.3071    0.0000 C   0  0  0  0  0  0  0  0  0  0  0  0
    4.0265   -6.4248    0.0000 N   0  0  0  0  0  0  0  0  0  0  0  0
    3.2428   -7.7037    0.0000 C   0  0  0  0  0  0  0  0  0  0  0  0
    1.7433   -7.6645    0.0000 O   0  0  0  0  0  0  0  0  0  0  0  0
    3.9585   -9.0220    0.0000 N   0  0  0  0  0  0  0  0  0  0  0  0
    3.1748  -10.3009    0.0000 C   0  0  0  0  0  0  0  0  0  0  0  0
    1.6753  -10.2617    0.0000 N   0  0  0  0  0  0  0  0  0  0  0  0
    0.8916  -11.5406    0.0000 N   0  0  0  0  0  0  0  0  0  0  0  0
    1.6073  -12.8589    0.0000 N   0  0  0  0  0  0  0  0  0  0  0  0
    3.1068  -12.8981    0.0000 N   0  0  0  0  0  0  0  0  0  0  0  0
    3.8905  -11.6192    0.0000 N   0  0  0  0  0  0  0  0  0  0  0  0
    3.4525   -5.0390    0.0000 C   0  0  0  0  0  0  0  0  0  0  0  0
    1.9940   -4.6888    0.0000 O   0  0  0  0  0  0  0  0  0  0  0  0
    0.7500   -1.2990    0.0000 C   0  0  0  0  0  0  0  0  0  0  0  0
    1.5000    0.0000    0.0000 C   0  0  0  0  0  0  0  0  0  0  0  0
    0.7500    1.2990    0.0000 C   0  0  0  0  0  0  0  0  0  0  0  0
   -0.7500    1.2990    0.0000 C   0  0  0  0  0  0  0  0  0  0  0  0
   -1.5000    0.0000    0.0000 C   0  0  0  0  0  0  0  0  0  0  0  0
   -0.7500   -1.2990    0.0000 C   0  0  0  0  0  0  0  0  0  0  0  0
   -1.8107   -2.3597    0.0000 C   0  0  0  0  0  0  0  0  0  0  0  0
   -3.1097   -1.6097    0.0000 C   0  0  0  0  0  0  0  0  0  0  0  0
   -4.4087   -2.3597    0.0000 C   0  0  0  0  0  0  0  0  0  0  0  0
   -4.4087   -3.8597    0.0000 C   0  0  0  0  0  0  0  0  0  0  0  0
   -3.1097   -4.6097    0.0000 C   0  0  0  0  0  0  0  0  0  0  0  0
   -1.8107   -3.8597    0.0000 C   0  0  0  0  0  0  0  0  0  0  0  0
  1  2  1  0
  2  3  1  0
  3  4  2  0
  4  5  1  0
  5  6  1  0
  6  7  2  0
  7  8  1  0
  8  9  2  0
  9 10  1  0
 10 11  1  0
 11 12  1  0
 12 13  1  0
 13 14  1  0
 14 15  1  0
 15 16  2  0
 15 17  1  0
 17 18  1  0
 18 19  2  0
 19 20  1  0
 20 21  2  0
 21 22  1  0
 22 23  2  0
 14 24  1  0
 24 25  2  0
  5 26  1  0
 26 27  2  0
 27 28  1  0
 28 29  2  0
 29 30  1  0
 30 31  2  0
 31 32  1  0
 32 33  2  0
 33 34  1  0
 34 35  2  0
 35 36  1  0
 36 37  2  0
 37  2  1  0
 10  6  1  0
 24 11  1  0
 31 26  1  0
 37 32  1  0
 23 18  1  0
M  END
>  <Title>  (1078) 
idABNNgen13

$$$$

     RDKit          2D

  7  7  0  0  0  0  0  0  0  0999 V2000
    3.0000    0.0000    0.0000 C   0  0  0  0  0  0  0  0  0  0  0  0
    1.5000    0.0000    0.0000 C   0  0  0  0  0  0  0  0  0  0  0  0
    0.7500   -1.2990    0.0000 C   0  0  0  0  0  0  0  0  0  0  0  0
   -0.7500   -1.2990    0.0000 C   0  0  0  0  0  0  0  0  0  0  0  0
   -1.5000    0.0000    0.0000 C   0  0  0  0  0  0  0  0  0  0  0  0
   -0.7500    1.2990    0.0000 C   0  0  0  0  0  0  0  0  0  0  0  0
    0.7500    1.2990    0.0000 C   0  0  0  0  0  0  0  0  0  0  0  0
  1  2  1  0
  2  3  1  0
  3  4  2  0
  4  5  1  0
  5  6  1  0
  6  7  2  0
  7  2  1  0
M  END
>  <Title>  (1079) 
idABNOgen13

$$$$

     RDKit          2D

 58 57  0  0  0  0  0  0  0  0999 V2000
    0.0000    0.0000    0.0000 C   0  0  0  0  0  0  0  0  0  0  0  0
   -0.0000   -1.5000    0.0000 C   0  0  0  0  0  0  0  0  0  0  0  0
   -0.0000   -3.0000    0.0000 C   0  0  0  0  0  0  0  0  0  0  0  0
   -0.0000   -4.5000    0.0000 C   0  0  0  0  0  0  0  0  0  0  0  0
   -0.0000   -6.0000    0.0000 C   0  0  0  0  0  0  0  0  0  0  0  0
   -0.0000   -7.5000    0.0000 C   0  0  0  0  0  0  0  0  0  0  0  0
   -0.0000   -9.0000    0.0000 C   0  0  0  0  0  0  0  0  0  0  0  0
   -0.0000  -10.5000    0.0000 C   0  0  0  0  0  0  0  0  0  0  0  0
   -0.0000  -12.0000    0.0000 C   0  0  0  0  0  0  0  0  0  0  0  0
   -0.0000  -13.5000    0.0000 C   0  0  0  0  0  0  0  0  0  0  0  0
   -0.0000  -15.0000    0.0000 C   0  0  0  0  0  0  0  0  0  0  0  0
   -0.0000  -16.5000    0.0000 C   0  0  0  0  0  0  0  0  0  0  0  0
   -0.0000  -18.0000    0.0000 C   0  0  0  0  0  0  0  0  0  0  0  0
   -0.0000  -19.5000    0.0000 C   0  0  0  0  0  0  0  0  0  0  0  0
   -0.0000  -21.0000    0.0000 C   0  0  0  0  0  0  0  0  0  0  0  0
   -0.0000  -22.5000    0.0000 C   0  0  0  0  0  0  0  0  0  0  0  0
   -0.0000  -24.0000    0.0000 C   0  0  0  0  0  0  0  0  0  0  0  0
   -0.0000  -25.5000    0.0000 C   0  0  0  0  0  0  0  0  0  0  0  0
   -0.0000  -27.0000    0.0000 C   0  0  0  0  0  0  0  0  0  0  0  0
   -0.0000  -28.5000    0.0000 C   0  0  0  0  0  0  0  0  0  0  0  0
   -0.0000  -30.0000    0.0000 C   0  0  0  0  0  0  0  0  0  0  0  0
   -0.0000  -31.5000    0.0000 C   0  0  0  0  0  0  0  0  0  0  0  0
   -0.0000  -33.0000    0.0000 C   0  0  0  0  0  0  0  0  0  0  0  0
   -0.0000  -34.5000    0.0000 C   0  0  0  0  0  0  0  0  0  0  0  0
   -0.0000  -36.0000    0.0000 C   0  0  0  0  0  0  0  0  0  0  0  0
   -0.0000  -37.5000    0.0000 C   0  0  0  0  0  0  0  0  0  0  0  0
   -0.0000  -39.0000    0.0000 C   0  0  0  0  0  0  0  0  0  0  0  0
   -0.0000  -40.5000    0.0000 C   0  0  0  0  0  0  0  0  0  0  0  0
   -0.0000  -42.0000    0.0000 C   0  0  0  0  0  0  0  0  0  0  0  0
   -0.0000  -43.5000    0.0000 C   0  0  0  0  0  0  0  0  0  0  0  0
   -0.0000  -45.0000    0.0000 C   0  0  0  0  0  0  0  0  0  0  0  0
   -0.0000  -46.5000    0.0000 C   0  0  0  0  0  0  0  0  0  0  0  0
   -0.0000  -48.0000    0.0000 C   0  0  0  0  0  0  0  0  0  0  0  0
   -0.0000  -49.5000    0.0000 C   0  0  0  0  0  0  0  0  0  0  0  0
   -0.0000  -51.0000    0.0000 C   0  0  0  0  0  0  0  0  0  0  0  0
   -0.0000  -52.5000    0.0000 C   0  0  0  0  0  0  0  0  0  0  0  0
   -0.0000  -54.0000    0.0000 C   0  0  0  0  0  0  0  0  0  0  0  0
   -0.0000  -55.5000    0.0000 C   0  0  0  0  0  0  0  0  0  0  0  0
   -0.0000  -57.0000    0.0000 C   0  0  0  0  0  0  0  0  0  0  0  0
   -0.0000  -58.5000    0.0000 C   0  0  0  0  0  0  0  0  0  0  0  0
   -0.0000  -60.0000    0.0000 C   0  0  0  0  0  0  0  0  0  0  0  0
   -0.0000  -61.5000    0.0000 C   0  0  0  0  0  0  0  0  0  0  0  0
   -0.0000  -63.0000    0.0000 C   0  0  0  0  0  0  0  0  0  0  0  0
   -0.0000  -64.5000    0.0000 C   0  0  0  0  0  0  0  0  0  0  0  0
   -0.0000  -66.0000    0.0000 C   0  0  0  0  0  0  0  0  0  0  0  0
   -0.0000  -67.5000    0.0000 C   0  0  0  0  0  0  0  0  0  0  0  0
   -0.0000  -69.0000    0.0000 C   0  0  0  0  0  0  0  0  0  0  0  0
   -0.0000  -70.5000    0.0000 C   0  0  0  0  0  0  0  0  0  0  0  0
   -0.0000  -72.0000    0.0000 C   0  0  0  0  0  0  0  0  0  0  0  0
   -0.0000  -73.5000    0.0000 C   0  0  0  0  0  0  0  0  0  0  0  0
   -0.0000  -75.0000    0.0000 C   0  0  0  0  0  0  0  0  0  0  0  0
   -0.0000  -76.5000    0.0000 C   0  0  0  0  0  0  0  0  0  0  0  0
   -0.0000  -78.0000    0.0000 C   0  0  0  0  0  0  0  0  0  0  0  0
   -0.0000  -79.5000    0.0000 C   0  0  0  0  0  0  0  0  0  0  0  0
   -0.0000  -81.0000    0.0000 C   0  0  0  0  0  0  0  0  0  0  0  0
   -0.0000  -82.5000    0.0000 C   0  0  0  0  0  0  0  0  0  0  0  0
   -0.0000  -84.0000    0.0000 C   0  0  0  0  0  0  0  0  0  0  0  0
    1.2990  -84.7500    0.0000 C   0  0  0  0  0  0  0  0  0  0  0  0
  1  2  3  0
  2  3  1  0
  3  4  3  0
  4  5  1  0
  5  6  3  0
  6  7  1  0
  7  8  3  0
  8  9  1  0
  9 10  3  0
 10 11  1  0
 11 12  3  0
 12 13  1  0
 13 14  3  0
 14 15  1  0
 15 16  3  0
 16 17  1  0
 17 18  3  0
 18 19  1  0
 19 20  3  0
 20 21  1  0
 21 22  3  0
 22 23  1  0
 23 24  3  0
 24 25  1  0
 25 26  3  0
 26 27  1  0
 27 28  3  0
 28 29  1  0
 29 30  3  0
 30 31  1  0
 31 32  3  0
 32 33  1  0
 33 34  3  0
 34 35  1  0
 35 36  3  0
 36 37  1  0
 37 38  3  0
 38 39  1  0
 39 40  3  0
 40 41  1  0
 41 42  3  0
 42 43  1  0
 43 44  3  0
 44 45  1  0
 45 46  3  0
 46 47  1  0
 47 48  3  0
 48 49  1  0
 49 50  3  0
 50 51  1  0
 51 52  3  0
 52 53  1  0
 53 54  3  0
 54 55  1  0
 55 56  3  0
 56 57  1  0
 57 58  2  0
M  END
>  <Title>  (1080) 
idABNPgen13

$$$$

     RDKit          2D

 38 37  0  0  0  0  0  0  0  0999 V2000
    0.0000    0.0000    0.0000 C   0  0  0  0  0  0  0  0  0  0  0  0
   -0.0000   -1.5000    0.0000 C   0  0  0  0  0  0  0  0  0  0  0  0
   -0.0000   -3.0000    0.0000 C   0  0  0  0  0  0  0  0  0  0  0  0
   -0.0000   -4.5000    0.0000 C   0  0  0  0  0  0  0  0  0  0  0  0
   -0.0000   -6.0000    0.0000 C   0  0  0  0  0  0  0  0  0  0  0  0
   -0.0000   -7.5000    0.0000 C   0  0  0  0  0  0  0  0  0  0  0  0
   -0.0000   -9.0000    0.0000 C   0  0  0  0  0  0  0  0  0  0  0  0
   -0.0000  -10.5000    0.0000 C   0  0  0  0  0  0  0  0  0  0  0  0
   -0.0000  -12.0000    0.0000 C   0  0  0  0  0  0  0  0  0  0  0  0
   -0.0000  -13.5000    0.0000 C   0  0  0  0  0  0  0  0  0  0  0  0
   -0.0000  -15.0000    0.0000 C   0  0  0  0  0  0  0  0  0  0  0  0
   -0.0000  -16.5000    0.0000 C   0  0  0  0  0  0  0  0  0  0  0  0
   -0.0000  -18.0000    0.0000 C   0  0  0  0  0  0  0  0  0  0  0  0
   -0.0000  -19.5000    0.0000 C   0  0  0  0  0  0  0  0  0  0  0  0
   -0.0000  -21.0000    0.0000 C   0  0  0  0  0  0  0  0  0  0  0  0
   -0.0000  -22.5000    0.0000 C   0  0  0  0  0  0  0  0  0  0  0  0
   -0.0000  -24.0000    0.0000 C   0  0  0  0  0  0  0  0  0  0  0  0
   -0.0000  -25.5000    0.0000 C   0  0  0  0  0  0  0  0  0  0  0  0
   -0.0000  -27.0000    0.0000 C   0  0  0  0  0  0  0  0  0  0  0  0
   -0.0000  -28.5000    0.0000 C   0  0  0  0  0  0  0  0  0  0  0  0
   -0.0000  -30.0000    0.0000 C   0  0  0  0  0  0  0  0  0  0  0  0
   -0.0000  -31.5000    0.0000 C   0  0  0  0  0  0  0  0  0  0  0  0
   -0.0000  -33.0000    0.0000 C   0  0  0  0  0  0  0  0  0  0  0  0
   -0.0000  -34.5000    0.0000 C   0  0  0  0  0  0  0  0  0  0  0  0
   -0.0000  -36.0000    0.0000 C   0  0  0  0  0  0  0  0  0  0  0  0
   -0.0000  -37.5000    0.0000 C   0  0  0  0  0  0  0  0  0  0  0  0
   -0.0000  -39.0000    0.0000 C   0  0  0  0  0  0  0  0  0  0  0  0
   -0.0000  -40.5000    0.0000 C   0  0  0  0  0  0  0  0  0  0  0  0
   -0.0000  -42.0000    0.0000 C   0  0  0  0  0  0  0  0  0  0  0  0
   -0.0000  -43.5000    0.0000 C   0  0  0  0  0  0  0  0  0  0  0  0
   -0.0000  -45.0000    0.0000 C   0  0  0  0  0  0  0  0  0  0  0  0
   -0.0000  -46.5000    0.0000 C   0  0  0  0  0  0  0  0  0  0  0  0
   -0.0000  -48.0000    0.0000 C   0  0  0  0  0  0  0  0  0  0  0  0
   -0.0000  -49.5000    0.0000 C   0  0  0  0  0  0  0  0  0  0  0  0
   -0.0000  -51.0000    0.0000 C   0  0  0  0  0  0  0  0  0  0  0  0
    1.2990  -51.7500    0.0000 C   0  0  0  0  0  0  0  0  0  0  0  0
    1.2990  -53.2500    0.0000 C   0  0  0  0  0  0  0  0  0  0  0  0
    1.2990  -54.7500    0.0000 C   0  0  0  0  0  0  0  0  0  0  0  0
  1  2  3  0
  2  3  1  0
  3  4  3  0
  4  5  1  0
  5  6  3  0
  6  7  1  0
  7  8  3  0
  8  9  1  0
  9 10  3  0
 10 11  1  0
 11 12  3  0
 12 13  1  0
 13 14  3  0
 14 15  1  0
 15 16  3  0
 16 17  1  0
 17 18  3  0
 18 19  1  0
 19 20  3  0
 20 21  1  0
 21 22  3  0
 22 23  1  0
 23 24  3  0
 24 25  1  0
 25 26  3  0
 26 27  1  0
 27 28  3  0
 28 29  1  0
 29 30  3  0
 30 31  1  0
 31 32  3  0
 32 33  1  0
 33 34  3  0
 34 35  1  0
 35 36  2  3
 36 37  1  0
 37 38  3  0
M  END
>  <Title>  (1081) 
idABNQgen13

$$$$

     RDKit          2D

 34 38  0  0  0  0  0  0  0  0999 V2000
   -3.0000   -2.5981    0.0000 C   0  0  0  0  0  0  0  0  0  0  0  0
   -1.5000   -2.5981    0.0000 C   0  0  0  0  0  0  0  0  0  0  0  0
   -0.7500   -3.8971    0.0000 C   0  0  0  0  0  0  0  0  0  0  0  0
    0.7500   -3.8971    0.0000 C   0  0  0  0  0  0  0  0  0  0  0  0
    1.5000   -2.5981    0.0000 C   0  0  0  0  0  0  0  0  0  0  0  0
    3.0000   -2.5981    0.0000 C   0  0  0  0  0  0  0  0  0  0  0  0
    3.7500   -1.2990    0.0000 O   0  0  0  0  0  0  0  0  0  0  0  0
    3.7500   -3.8971    0.0000 N   0  0  0  0  0  0  0  0  0  0  0  0
    5.2500   -3.8971    0.0000 C   0  0  0  0  0  0  0  0  0  0  0  0
    6.1317   -2.6836    0.0000 N   0  0  0  0  0  0  0  0  0  0  0  0
    7.5583   -3.1471    0.0000 N   0  0  0  0  0  0  0  0  0  0  0  0
    7.5583   -4.6471    0.0000 N   0  0  0  0  0  0  0  0  0  0  0  0
    6.1317   -5.1106    0.0000 N   0  0  0  0  0  0  0  0  0  0  0  0
    5.6682   -6.5372    0.0000 C   0  0  0  0  0  0  0  0  0  0  0  0
    6.5498   -7.7508    0.0000 C   0  0  0  0  0  0  0  0  0  0  0  0
    5.6682   -8.9643    0.0000 C   0  0  0  0  0  0  0  0  0  0  0  0
    4.2416   -8.5008    0.0000 C   0  0  0  0  0  0  0  0  0  0  0  0
    3.0280   -9.3824    0.0000 C   0  0  0  0  0  0  0  0  0  0  0  0
    3.1848  -10.8742    0.0000 O   0  0  0  0  0  0  0  0  0  0  0  0
    1.6577   -8.7723    0.0000 N   0  0  0  0  0  0  0  0  0  0  0  0
    0.4442   -9.6540    0.0000 C   0  0  0  0  0  0  0  0  0  0  0  0
   -0.9261   -9.0439    0.0000 N   0  0  0  0  0  0  0  0  0  0  0  0
   -2.1396   -9.9256    0.0000 N   0  0  0  0  0  0  0  0  0  0  0  0
   -1.9829  -11.4174    0.0000 N   0  0  0  0  0  0  0  0  0  0  0  0
   -0.6125  -12.0275    0.0000 N   0  0  0  0  0  0  0  0  0  0  0  0
    0.6010  -11.1458    0.0000 N   0  0  0  0  0  0  0  0  0  0  0  0
    4.2416   -7.0008    0.0000 C   0  0  0  0  0  0  0  0  0  0  0  0
    3.0280   -6.1191    0.0000 O   0  0  0  0  0  0  0  0  0  0  0  0
    0.7500   -1.2990    0.0000 C   0  0  0  0  0  0  0  0  0  0  0  0
    1.5000    0.0000    0.0000 C   0  0  0  0  0  0  0  0  0  0  0  0
    0.7500    1.2990    0.0000 C   0  0  0  0  0  0  0  0  0  0  0  0
   -0.7500    1.2990    0.0000 C   0  0  0  0  0  0  0  0  0  0  0  0
   -1.5000    0.0000    0.0000 C   0  0  0  0  0  0  0  0  0  0  0  0
   -0.7500   -1.2990    0.0000 C   0  0  0  0  0  0  0  0  0  0  0  0
  1  2  1  0
  2  3  1  0
  3  4  2  0
  4  5  1  0
  5  6  1  0
  6  7  2  0
  6  8  1  0
  8  9  1  0
  9 10  2  0
 10 11  1  0
 11 12  2  0
 12 13  1  0
 13 14  1  0
 14 15  2  0
 15 16  1  0
 16 17  2  0
 17 18  1  0
 18 19  2  0
 18 20  1  0
 20 21  1  0
 21 22  2  0
 22 23  1  0
 23 24  2  0
 24 25  1  0
 25 26  2  0
 17 27  1  0
 27 28  2  0
  5 29  1  0
 29 30  2  0
 30 31  1  0
 31 32  2  0
 32 33  1  0
 33 34  2  0
 34  2  1  0
 13  9  1  0
 27 14  1  0
 34 29  1  0
 26 21  1  0
M  END
>  <Title>  (1082) 
idABNRgen13

$$$$

     RDKit          2D

 10 11  0  0  0  0  0  0  0  0999 V2000
   -2.9108    4.3555    0.0000 C   0  0  0  0  0  0  0  0  0  0  0  0
   -2.8323    2.8576    0.0000 C   0  0  0  0  0  0  0  0  0  0  0  0
   -4.0903    2.0406    0.0000 O   0  0  0  0  0  0  0  0  0  0  0  0
   -1.4958    2.1766    0.0000 N   0  0  0  0  0  0  0  0  0  0  0  0
   -0.0692    2.6401    0.0000 C   0  0  0  0  0  0  0  0  0  0  0  0
    0.3943    1.2135    0.0000 C   0  0  0  0  0  0  0  0  0  0  0  0
    1.2760    0.0000    0.0000 C   0  0  0  0  0  0  0  0  0  0  0  0
    0.3943   -1.2135    0.0000 C   0  0  0  0  0  0  0  0  0  0  0  0
   -1.0323   -0.7500    0.0000 C   0  0  0  0  0  0  0  0  0  0  0  0
   -1.0323    0.7500    0.0000 C   0  0  0  0  0  0  0  0  0  0  0  0
  1  2  1  0
  2  3  2  0
  2  4  1  0
  4  5  1  0
  5  6  1  0
  6  7  2  0
  7  8  1  0
  8  9  2  0
  9 10  1  0
 10  4  1  0
 10  6  1  0
M  END
>  <Title>  (1083) 
idABNSgen13

$$$$

     RDKit          2D

 11 11  0  0  0  0  0  0  0  0999 V2000
    6.7500   -3.8971    0.0000 C   0  0  0  0  0  0  0  0  0  0  0  0
    6.0000   -2.5981    0.0000 C   0  0  0  0  0  0  0  0  0  0  0  0
    5.2500   -1.2990    0.0000 C   0  0  0  0  0  0  0  0  0  0  0  0
    3.7500   -1.2990    0.0000 C   0  0  0  0  0  0  0  0  0  0  0  0
    3.0000    0.0000    0.0000 N   0  0  0  0  0  0  0  0  0  0  0  0
    1.5000    0.0000    0.0000 C   0  0  0  0  0  0  0  0  0  0  0  0
    0.7500   -1.2990    0.0000 C   0  0  0  0  0  0  0  0  0  0  0  0
   -0.7500   -1.2990    0.0000 C   0  0  0  0  0  0  0  0  0  0  0  0
   -1.5000    0.0000    0.0000 C   0  0  0  0  0  0  0  0  0  0  0  0
   -0.7500    1.2990    0.0000 C   0  0  0  0  0  0  0  0  0  0  0  0
    0.7500    1.2990    0.0000 C   0  0  0  0  0  0  0  0  0  0  0  0
  1  2  3  0
  2  3  1  0
  3  4  1  0
  4  5  1  0
  5  6  1  0
  6  7  2  0
  7  8  1  0
  8  9  2  0
  9 10  1  0
 10 11  2  0
 11  6  1  0
M  END
>  <Title>  (1084) 
idABNTgen13

$$$$

     RDKit          2D

 41 46  0  0  0  0  0  0  0  0999 V2000
   -2.3737   -6.1885    0.0000 C   0  0  0  0  0  0  0  0  0  0  0  0
   -1.4095   -5.0395    0.0000 C   0  0  0  0  0  0  0  0  0  0  0  0
   -0.0000   -5.5525    0.0000 C   0  0  0  0  0  0  0  0  0  0  0  0
    1.4095   -5.0395    0.0000 C   0  0  0  0  0  0  0  0  0  0  0  0
    2.1595   -3.7404    0.0000 C   0  0  0  0  0  0  0  0  0  0  0  0
    1.8991   -2.2632    0.0000 C   0  0  0  0  0  0  0  0  0  0  0  0
    3.1981   -1.5132    0.0000 C   0  0  0  0  0  0  0  0  0  0  0  0
    3.1981   -0.0132    0.0000 O   0  0  0  0  0  0  0  0  0  0  0  0
    4.4971   -2.2632    0.0000 N   0  0  0  0  0  0  0  0  0  0  0  0
    5.7962   -1.5132    0.0000 C   0  0  0  0  0  0  0  0  0  0  0  0
    5.9530   -0.0214    0.0000 N   0  0  0  0  0  0  0  0  0  0  0  0
    7.4202    0.2904    0.0000 N   0  0  0  0  0  0  0  0  0  0  0  0
    8.1702   -1.0086    0.0000 N   0  0  0  0  0  0  0  0  0  0  0  0
    7.1665   -2.1233    0.0000 N   0  0  0  0  0  0  0  0  0  0  0  0
    7.4784   -3.5905    0.0000 N   0  0  0  0  0  0  0  0  0  0  0  0
    8.8487   -4.2007    0.0000 C   0  0  0  0  0  0  0  0  0  0  0  0
    8.6919   -5.6924    0.0000 C   0  0  0  0  0  0  0  0  0  0  0  0
    7.2247   -6.0043    0.0000 N   0  0  0  0  0  0  0  0  0  0  0  0
    6.6146   -7.3746    0.0000 C   0  0  0  0  0  0  0  0  0  0  0  0
    7.4962   -8.5881    0.0000 O   0  0  0  0  0  0  0  0  0  0  0  0
    5.1228   -7.5314    0.0000 N   0  0  0  0  0  0  0  0  0  0  0  0
    4.5127   -8.9017    0.0000 C   0  0  0  0  0  0  0  0  0  0  0  0
    3.0209   -9.0585    0.0000 N   0  0  0  0  0  0  0  0  0  0  0  0
    2.4108  -10.4288    0.0000 N   0  0  0  0  0  0  0  0  0  0  0  0
    3.2925  -11.6424    0.0000 N   0  0  0  0  0  0  0  0  0  0  0  0
    4.7843  -11.4856    0.0000 N   0  0  0  0  0  0  0  0  0  0  0  0
    5.3944  -10.1153    0.0000 N   0  0  0  0  0  0  0  0  0  0  0  0
    6.4747   -4.7053    0.0000 C   0  0  0  0  0  0  0  0  0  0  0  0
    4.9829   -4.5485    0.0000 O   0  0  0  0  0  0  0  0  0  0  0  0
    0.7500   -1.2990    0.0000 C   0  0  0  0  0  0  0  0  0  0  0  0
    1.5000    0.0000    0.0000 C   0  0  0  0  0  0  0  0  0  0  0  0
    0.7500    1.2990    0.0000 C   0  0  0  0  0  0  0  0  0  0  0  0
   -0.7500    1.2990    0.0000 C   0  0  0  0  0  0  0  0  0  0  0  0
   -1.5000    0.0000    0.0000 C   0  0  0  0  0  0  0  0  0  0  0  0
   -0.7500   -1.2990    0.0000 C   0  0  0  0  0  0  0  0  0  0  0  0
   -1.8991   -2.2632    0.0000 C   0  0  0  0  0  0  0  0  0  0  0  0
   -3.0481   -1.2990    0.0000 C   0  0  0  0  0  0  0  0  0  0  0  0
   -4.4577   -1.8121    0.0000 C   0  0  0  0  0  0  0  0  0  0  0  0
   -4.7181   -3.2893    0.0000 C   0  0  0  0  0  0  0  0  0  0  0  0
   -3.5691   -4.2535    0.0000 C   0  0  0  0  0  0  0  0  0  0  0  0
   -2.1595   -3.7404    0.0000 C   0  0  0  0  0  0  0  0  0  0  0  0
  1  2  1  0
  2  3  1  0
  3  4  2  0
  4  5  1  0
  5  6  2  0
  6  7  1  0
  7  8  2  0
  7  9  1  0
  9 10  1  0
 10 11  2  0
 11 12  1  0
 12 13  2  0
 13 14  1  0
 14 15  1  0
 15 16  1  0
 16 17  1  0
 17 18  1  0
 18 19  1  0
 19 20  2  0
 19 21  1  0
 21 22  1  0
 22 23  2  0
 23 24  1  0
 24 25  2  0
 25 26  1  0
 26 27  2  0
 18 28  1  0
 28 29  2  0
  6 30  1  0
 30 31  2  0
 31 32  1  0
 32 33  2  0
 33 34  1  0
 34 35  2  0
 35 36  1  0
 36 37  2  0
 37 38  1  0
 38 39  2  0
 39 40  1  0
 40 41  2  0
 41  2  1  0
 14 10  1  0
 28 15  1  0
 35 30  1  0
 41 36  1  0
 27 22  1  0
M  END
>  <Title>  (1085) 
idABNUgen13

$$$$

     RDKit          2D

  3  2  0  0  0  0  0  0  0  0999 V2000
    0.0000    0.0000    0.0000 C   0  0  0  0  0  0  0  0  0  0  0  0
    1.2990    0.7500    0.0000 C   0  0  0  0  0  0  0  0  0  0  0  0
    2.5981   -0.0000    0.0000 C   0  0  0  0  0  0  0  0  0  0  0  0
  1  2  2  0
  2  3  1  0
M  END
>  <Title>  (1086) 
idABNVgen13

$$$$

     RDKit          2D

 14 15  0  0  0  0  0  0  0  0999 V2000
    7.2760   -0.0000    0.0000 C   0  0  0  0  0  0  0  0  0  0  0  0
    5.7760   -0.0000    0.0000 C   0  0  0  0  0  0  0  0  0  0  0  0
    4.2760   -0.0000    0.0000 C   0  0  0  0  0  0  0  0  0  0  0  0
    2.7760    0.0000    0.0000 C   0  0  0  0  0  0  0  0  0  0  0  0
    1.2760    0.0000    0.0000 C   0  0  0  0  0  0  0  0  0  0  0  0
    0.3943    1.2135    0.0000 N   0  0  0  0  0  0  0  0  0  0  0  0
   -1.0323    0.7500    0.0000 N   0  0  0  0  0  0  0  0  0  0  0  0
   -1.0323   -0.7500    0.0000 N   0  0  0  0  0  0  0  0  0  0  0  0
    0.3943   -1.2135    0.0000 N   0  0  0  0  0  0  0  0  0  0  0  0
    0.8578   -2.6401    0.0000 C   0  0  0  0  0  0  0  0  0  0  0  0
    2.2844   -3.1036    0.0000 C   0  0  0  0  0  0  0  0  0  0  0  0
    2.2844   -4.6036    0.0000 C   0  0  0  0  0  0  0  0  0  0  0  0
    0.8578   -5.0672    0.0000 C   0  0  0  0  0  0  0  0  0  0  0  0
   -0.0239   -3.8536    0.0000 C   0  0  0  0  0  0  0  0  0  0  0  0
  1  2  3  0
  2  3  1  0
  3  4  3  0
  4  5  1  0
  5  6  2  0
  6  7  1  0
  7  8  2  0
  8  9  1  0
  9 10  1  0
 10 11  2  0
 11 12  1  0
 12 13  1  0
 13 14  1  0
  9  5  1  0
 14 10  1  0
M  END
>  <Title>  (1087) 
idABNWgen13

$$$$

     RDKit          2D

 55 54  0  0  0  0  0  0  0  0999 V2000
    0.0000    0.0000    0.0000 C   0  0  0  0  0  0  0  0  0  0  0  0
   -0.0000   -1.5000    0.0000 C   0  0  0  0  0  0  0  0  0  0  0  0
   -0.0000   -3.0000    0.0000 C   0  0  0  0  0  0  0  0  0  0  0  0
   -0.0000   -4.5000    0.0000 C   0  0  0  0  0  0  0  0  0  0  0  0
   -0.0000   -6.0000    0.0000 C   0  0  0  0  0  0  0  0  0  0  0  0
   -0.0000   -7.5000    0.0000 C   0  0  0  0  0  0  0  0  0  0  0  0
   -0.0000   -9.0000    0.0000 C   0  0  0  0  0  0  0  0  0  0  0  0
   -0.0000  -10.5000    0.0000 C   0  0  0  0  0  0  0  0  0  0  0  0
   -0.0000  -12.0000    0.0000 C   0  0  0  0  0  0  0  0  0  0  0  0
   -0.0000  -13.5000    0.0000 C   0  0  0  0  0  0  0  0  0  0  0  0
   -0.0000  -15.0000    0.0000 C   0  0  0  0  0  0  0  0  0  0  0  0
   -0.0000  -16.5000    0.0000 C   0  0  0  0  0  0  0  0  0  0  0  0
   -0.0000  -18.0000    0.0000 C   0  0  0  0  0  0  0  0  0  0  0  0
   -0.0000  -19.5000    0.0000 C   0  0  0  0  0  0  0  0  0  0  0  0
   -0.0000  -21.0000    0.0000 C   0  0  0  0  0  0  0  0  0  0  0  0
   -0.0000  -22.5000    0.0000 C   0  0  0  0  0  0  0  0  0  0  0  0
   -0.0000  -24.0000    0.0000 C   0  0  0  0  0  0  0  0  0  0  0  0
   -0.0000  -25.5000    0.0000 C   0  0  0  0  0  0  0  0  0  0  0  0
   -0.0000  -27.0000    0.0000 C   0  0  0  0  0  0  0  0  0  0  0  0
   -0.0000  -28.5000    0.0000 C   0  0  0  0  0  0  0  0  0  0  0  0
   -0.0000  -30.0000    0.0000 C   0  0  0  0  0  0  0  0  0  0  0  0
   -0.0000  -31.5000    0.0000 C   0  0  0  0  0  0  0  0  0  0  0  0
   -0.0000  -33.0000    0.0000 C   0  0  0  0  0  0  0  0  0  0  0  0
   -0.0000  -34.5000    0.0000 C   0  0  0  0  0  0  0  0  0  0  0  0
   -0.0000  -36.0000    0.0000 C   0  0  0  0  0  0  0  0  0  0  0  0
   -0.0000  -37.5000    0.0000 C   0  0  0  0  0  0  0  0  0  0  0  0
   -0.0000  -39.0000    0.0000 C   0  0  0  0  0  0  0  0  0  0  0  0
   -0.0000  -40.5000    0.0000 C   0  0  0  0  0  0  0  0  0  0  0  0
   -0.0000  -42.0000    0.0000 C   0  0  0  0  0  0  0  0  0  0  0  0
   -0.0000  -43.5000    0.0000 C   0  0  0  0  0  0  0  0  0  0  0  0
   -0.0000  -45.0000    0.0000 C   0  0  0  0  0  0  0  0  0  0  0  0
   -0.0000  -46.5000    0.0000 C   0  0  0  0  0  0  0  0  0  0  0  0
   -0.0000  -48.0000    0.0000 C   0  0  0  0  0  0  0  0  0  0  0  0
   -0.0000  -49.5000    0.0000 C   0  0  0  0  0  0  0  0  0  0  0  0
   -0.0000  -51.0000    0.0000 C   0  0  0  0  0  0  0  0  0  0  0  0
   -0.0000  -52.5000    0.0000 C   0  0  0  0  0  0  0  0  0  0  0  0
   -0.0000  -54.0000    0.0000 C   0  0  0  0  0  0  0  0  0  0  0  0
   -0.0000  -55.5000    0.0000 C   0  0  0  0  0  0  0  0  0  0  0  0
   -0.0000  -57.0000    0.0000 C   0  0  0  0  0  0  0  0  0  0  0  0
   -0.0000  -58.5000    0.0000 C   0  0  0  0  0  0  0  0  0  0  0  0
   -0.0000  -60.0000    0.0000 C   0  0  0  0  0  0  0  0  0  0  0  0
   -0.0000  -61.5000    0.0000 C   0  0  0  0  0  0  0  0  0  0  0  0
   -0.0000  -63.0000    0.0000 C   0  0  0  0  0  0  0  0  0  0  0  0
    1.2990  -63.7500    0.0000 C   0  0  0  0  0  0  0  0  0  0  0  0
    1.2990  -65.2500    0.0000 C   0  0  0  0  0  0  0  0  0  0  0  0
    2.5981  -66.0000    0.0000 C   0  0  0  0  0  0  0  0  0  0  0  0
    2.5981  -67.5000    0.0000 C   0  0  0  0  0  0  0  0  0  0  0  0
    3.8971  -68.2500    0.0000 C   0  0  0  0  0  0  0  0  0  0  0  0
    5.1962  -69.0000    0.0000 C   0  0  0  0  0  0  0  0  0  0  0  0
    6.4952  -69.7500    0.0000 C   0  0  0  0  0  0  0  0  0  0  0  0
    7.7942  -70.5000    0.0000 C   0  0  0  0  0  0  0  0  0  0  0  0
    9.0933  -71.2500    0.0000 C   0  0  0  0  0  0  0  0  0  0  0  0
   10.3923  -72.0000    0.0000 C   0  0  0  0  0  0  0  0  0  0  0  0
   11.6913  -72.7500    0.0000 C   0  0  0  0  0  0  0  0  0  0  0  0
   12.9904  -73.5000    0.0000 C   0  0  0  0  0  0  0  0  0  0  0  0
  1  2  3  0
  2  3  1  0
  3  4  3  0
  4  5  1  0
  5  6  3  0
  6  7  1  0
  7  8  3  0
  8  9  1  0
  9 10  3  0
 10 11  1  0
 11 12  3  0
 12 13  1  0
 13 14  3  0
 14 15  1  0
 15 16  3  0
 16 17  1  0
 17 18  3  0
 18 19  1  0
 19 20  3  0
 20 21  1  0
 21 22  3  0
 22 23  1  0
 23 24  3  0
 24 25  1  0
 25 26  3  0
 26 27  1  0
 27 28  3  0
 28 29  1  0
 29 30  3  0
 30 31  1  0
 31 32  3  0
 32 33  1  0
 33 34  3  0
 34 35  1  0
 35 36  3  0
 36 37  1  0
 37 38  3  0
 38 39  1  0
 39 40  3  0
 40 41  1  0
 41 42  3  0
 42 43  1  0
 43 44  1  0
 44 45  1  0
 45 46  1  0
 46 47  2  3
 47 48  1  0
 48 49  3  0
 49 50  1  0
 50 51  3  0
 51 52  1  0
 52 53  3  0
 53 54  1  0
 54 55  3  0
M  END
>  <Title>  (1088) 
idABNXgen13

$$$$

     RDKit          2D

  5  5  0  0  0  0  0  0  0  0999 V2000
    1.2760    0.0000    0.0000 C   0  0  0  0  0  0  0  0  0  0  0  0
    0.3943    1.2135    0.0000 C   0  0  0  0  0  0  0  0  0  0  0  0
   -1.0323    0.7500    0.0000 C   0  0  0  0  0  0  0  0  0  0  0  0
   -1.0323   -0.7500    0.0000 O   0  0  0  0  0  0  0  0  0  0  0  0
    0.3943   -1.2135    0.0000 C   0  0  0  0  0  0  0  0  0  0  0  0
  1  2  1  0
  2  3  2  0
  3  4  1  0
  4  5  1  0
  5  1  2  0
M  END
>  <Title>  (1089) 
idABNYgen13

$$$$

     RDKit          2D

 40 45  0  0  0  0  0  0  0  0999 V2000
   -1.3240   -6.3062    0.0000 C   0  0  0  0  0  0  0  0  0  0  0  0
   -0.7500   -4.9204    0.0000 C   0  0  0  0  0  0  0  0  0  0  0  0
    0.7500   -4.9204    0.0000 C   0  0  0  0  0  0  0  0  0  0  0  0
    1.8107   -3.8597    0.0000 N   0  0  0  0  0  0  0  0  0  0  0  0
    1.8107   -2.3597    0.0000 C   0  0  0  0  0  0  0  0  0  0  0  0
    3.1965   -1.7857    0.0000 C   0  0  0  0  0  0  0  0  0  0  0  0
    3.3923   -0.2985    0.0000 O   0  0  0  0  0  0  0  0  0  0  0  0
    4.3865   -2.6988    0.0000 N   0  0  0  0  0  0  0  0  0  0  0  0
    5.7723   -2.1248    0.0000 C   0  0  0  0  0  0  0  0  0  0  0  0
    6.1225   -0.6662    0.0000 N   0  0  0  0  0  0  0  0  0  0  0  0
    7.6179   -0.5485    0.0000 N   0  0  0  0  0  0  0  0  0  0  0  0
    8.1919   -1.9344    0.0000 N   0  0  0  0  0  0  0  0  0  0  0  0
    7.0513   -2.9085    0.0000 N   0  0  0  0  0  0  0  0  0  0  0  0
    7.1690   -4.4039    0.0000 N   0  0  0  0  0  0  0  0  0  0  0  0
    8.4479   -5.1877    0.0000 C   0  0  0  0  0  0  0  0  0  0  0  0
    8.0978   -6.6462    0.0000 C   0  0  0  0  0  0  0  0  0  0  0  0
    6.6024   -6.7639    0.0000 C   0  0  0  0  0  0  0  0  0  0  0  0
    5.8186   -8.0429    0.0000 C   0  0  0  0  0  0  0  0  0  0  0  0
    6.5344   -9.3611    0.0000 O   0  0  0  0  0  0  0  0  0  0  0  0
    4.3192   -8.0036    0.0000 N   0  0  0  0  0  0  0  0  0  0  0  0
    3.5354   -9.2826    0.0000 C   0  0  0  0  0  0  0  0  0  0  0  0
    2.0359   -9.2433    0.0000 N   0  0  0  0  0  0  0  0  0  0  0  0
    1.2522  -10.5223    0.0000 N   0  0  0  0  0  0  0  0  0  0  0  0
    1.9679  -11.8405    0.0000 N   0  0  0  0  0  0  0  0  0  0  0  0
    3.4674  -11.8797    0.0000 N   0  0  0  0  0  0  0  0  0  0  0  0
    4.2512  -10.6008    0.0000 N   0  0  0  0  0  0  0  0  0  0  0  0
    6.0284   -5.3781    0.0000 C   0  0  0  0  0  0  0  0  0  0  0  0
    4.5698   -5.0279    0.0000 O   0  0  0  0  0  0  0  0  0  0  0  0
    0.7500   -1.2990    0.0000 C   0  0  0  0  0  0  0  0  0  0  0  0
    1.5000    0.0000    0.0000 C   0  0  0  0  0  0  0  0  0  0  0  0
    0.7500    1.2990    0.0000 C   0  0  0  0  0  0  0  0  0  0  0  0
   -0.7500    1.2990    0.0000 C   0  0  0  0  0  0  0  0  0  0  0  0
   -1.5000    0.0000    0.0000 C   0  0  0  0  0  0  0  0  0  0  0  0
   -0.7500   -1.2990    0.0000 C   0  0  0  0  0  0  0  0  0  0  0  0
   -1.8107   -2.3597    0.0000 C   0  0  0  0  0  0  0  0  0  0  0  0
   -3.1097   -1.6097    0.0000 C   0  0  0  0  0  0  0  0  0  0  0  0
   -4.4087   -2.3597    0.0000 C   0  0  0  0  0  0  0  0  0  0  0  0
   -4.4087   -3.8597    0.0000 C   0  0  0  0  0  0  0  0  0  0  0  0
   -3.1097   -4.6097    0.0000 C   0  0  0  0  0  0  0  0  0  0  0  0
   -1.8107   -3.8597    0.0000 C   0  0  0  0  0  0  0  0  0  0  0  0
  1  2  1  0
  2  3  1  0
  3  4  1  0
  4  5  1  0
  5  6  1  0
  6  7  2  0
  6  8  1  0
  8  9  1  0
  9 10  2  0
 10 11  1  0
 11 12  2  0
 12 13  1  0
 13 14  1  0
 14 15  1  0
 15 16  1  0
 16 17  1  0
 17 18  1  0
 18 19  2  0
 18 20  1  0
 20 21  1  0
 21 22  2  0
 22 23  1  0
 23 24  2  0
 24 25  1  0
 25 26  2  0
 17 27  1  0
 27 28  2  0
  5 29  1  0
 29 30  2  0
 30 31  1  0
 31 32  2  0
 32 33  1  0
 33 34  2  0
 34 35  1  0
 35 36  2  0
 36 37  1  0
 37 38  2  0
 38 39  1  0
 39 40  2  0
 40  2  1  0
 13  9  1  0
 27 14  1  0
 34 29  1  0
 40 35  1  0
 26 21  1  0
M  END
>  <Title>  (1090) 
idABNZgen13

$$$$

     RDKit          2D

 92 96  0  0  0  0  0  0  0  0999 V2000
   -8.6297   -1.7800    0.0000 C   0  0  0  0  0  0  0  0  0  0  0  0
   -7.9709   -3.1276    0.0000 C   0  0  0  0  0  0  0  0  0  0  0  0
   -9.2901   -3.8415    0.0000 C   0  0  0  0  0  0  0  0  0  0  0  0
  -10.5459   -4.6620    0.0000 C   0  0  0  0  0  0  0  0  0  0  0  0
  -11.7296   -5.5833    0.0000 C   0  0  0  0  0  0  0  0  0  0  0  0
  -12.8332   -6.5992    0.0000 C   0  0  0  0  0  0  0  0  0  0  0  0
  -13.8491   -7.7028    0.0000 C   0  0  0  0  0  0  0  0  0  0  0  0
  -14.7704   -8.8865    0.0000 C   0  0  0  0  0  0  0  0  0  0  0  0
  -15.5908  -10.1423    0.0000 C   0  0  0  0  0  0  0  0  0  0  0  0
  -16.3047  -11.4615    0.0000 C   0  0  0  0  0  0  0  0  0  0  0  0
  -16.9073  -12.8351    0.0000 C   0  0  0  0  0  0  0  0  0  0  0  0
  -17.3943  -14.2538    0.0000 C   0  0  0  0  0  0  0  0  0  0  0  0
  -17.7626  -15.7079    0.0000 C   0  0  0  0  0  0  0  0  0  0  0  0
  -18.0095  -17.1875    0.0000 C   0  0  0  0  0  0  0  0  0  0  0  0
  -18.1333  -18.6824    0.0000 C   0  0  0  0  0  0  0  0  0  0  0  0
  -18.1333  -20.1824    0.0000 C   0  0  0  0  0  0  0  0  0  0  0  0
  -18.0095  -21.6772    0.0000 C   0  0  0  0  0  0  0  0  0  0  0  0
  -17.7626  -23.1568    0.0000 C   0  0  0  0  0  0  0  0  0  0  0  0
  -17.3943  -24.6109    0.0000 C   0  0  0  0  0  0  0  0  0  0  0  0
  -16.9073  -26.0296    0.0000 C   0  0  0  0  0  0  0  0  0  0  0  0
  -16.3047  -27.4033    0.0000 C   0  0  0  0  0  0  0  0  0  0  0  0
  -15.5908  -28.7225    0.0000 C   0  0  0  0  0  0  0  0  0  0  0  0
  -14.7704  -29.9782    0.0000 C   0  0  0  0  0  0  0  0  0  0  0  0
  -13.8491  -31.1619    0.0000 C   0  0  0  0  0  0  0  0  0  0  0  0
  -12.8332  -32.2655    0.0000 C   0  0  0  0  0  0  0  0  0  0  0  0
  -11.7296  -33.2815    0.0000 C   0  0  0  0  0  0  0  0  0  0  0  0
  -10.5459  -34.2028    0.0000 C   0  0  0  0  0  0  0  0  0  0  0  0
   -9.2901  -35.0232    0.0000 C   0  0  0  0  0  0  0  0  0  0  0  0
   -7.9709  -35.7371    0.0000 C   0  0  0  0  0  0  0  0  0  0  0  0
   -6.5972  -36.3397    0.0000 C   0  0  0  0  0  0  0  0  0  0  0  0
   -5.1785  -36.8267    0.0000 C   0  0  0  0  0  0  0  0  0  0  0  0
   -3.7244  -37.1949    0.0000 C   0  0  0  0  0  0  0  0  0  0  0  0
   -2.2449  -37.4418    0.0000 C   0  0  0  0  0  0  0  0  0  0  0  0
   -0.7500  -37.5657    0.0000 C   0  0  0  0  0  0  0  0  0  0  0  0
    0.7500  -37.5657    0.0000 C   0  0  0  0  0  0  0  0  0  0  0  0
    2.2449  -37.4418    0.0000 C   0  0  0  0  0  0  0  0  0  0  0  0
    3.7244  -37.1949    0.0000 C   0  0  0  0  0  0  0  0  0  0  0  0
    5.1785  -36.8267    0.0000 C   0  0  0  0  0  0  0  0  0  0  0  0
    6.5972  -36.3397    0.0000 C   0  0  0  0  0  0  0  0  0  0  0  0
    7.9709  -35.7371    0.0000 C   0  0  0  0  0  0  0  0  0  0  0  0
    9.2901  -35.0232    0.0000 C   0  0  0  0  0  0  0  0  0  0  0  0
   10.5459  -34.2028    0.0000 C   0  0  0  0  0  0  0  0  0  0  0  0
   11.7296  -33.2815    0.0000 C   0  0  0  0  0  0  0  0  0  0  0  0
   12.8332  -32.2655    0.0000 C   0  0  0  0  0  0  0  0  0  0  0  0
   13.8491  -31.1619    0.0000 C   0  0  0  0  0  0  0  0  0  0  0  0
   14.7704  -29.9782    0.0000 C   0  0  0  0  0  0  0  0  0  0  0  0
   15.5908  -28.7225    0.0000 C   0  0  0  0  0  0  0  0  0  0  0  0
   16.3047  -27.4033    0.0000 C   0  0  0  0  0  0  0  0  0  0  0  0
   16.9073  -26.0296    0.0000 C   0  0  0  0  0  0  0  0  0  0  0  0
   17.3943  -24.6109    0.0000 C   0  0  0  0  0  0  0  0  0  0  0  0
   17.7626  -23.1568    0.0000 C   0  0  0  0  0  0  0  0  0  0  0  0
   18.0095  -21.6772    0.0000 C   0  0  0  0  0  0  0  0  0  0  0  0
   18.1333  -20.1824    0.0000 C   0  0  0  0  0  0  0  0  0  0  0  0
   18.1333  -18.6824    0.0000 C   0  0  0  0  0  0  0  0  0  0  0  0
   18.0095  -17.1875    0.0000 C   0  0  0  0  0  0  0  0  0  0  0  0
   17.7626  -15.7079    0.0000 C   0  0  0  0  0  0  0  0  0  0  0  0
   17.3943  -14.2538    0.0000 C   0  0  0  0  0  0  0  0  0  0  0  0
   16.9073  -12.8351    0.0000 C   0  0  0  0  0  0  0  0  0  0  0  0
   16.3047  -11.4615    0.0000 C   0  0  0  0  0  0  0  0  0  0  0  0
   15.5908  -10.1423    0.0000 C   0  0  0  0  0  0  0  0  0  0  0  0
   14.7704   -8.8865    0.0000 C   0  0  0  0  0  0  0  0  0  0  0  0
   13.8491   -7.7028    0.0000 C   0  0  0  0  0  0  0  0  0  0  0  0
   12.8332   -6.5992    0.0000 C   0  0  0  0  0  0  0  0  0  0  0  0
   11.7296   -5.5833    0.0000 C   0  0  0  0  0  0  0  0  0  0  0  0
   10.5459   -4.6620    0.0000 C   0  0  0  0  0  0  0  0  0  0  0  0
    9.2901   -3.8415    0.0000 C   0  0  0  0  0  0  0  0  0  0  0  0
    7.9709   -3.1276    0.0000 C   0  0  0  0  0  0  0  0  0  0  0  0
    6.5972   -2.5251    0.0000 C   0  0  0  0  0  0  0  0  0  0  0  0
    5.1785   -2.0380    0.0000 C   0  0  0  0  0  0  0  0  0  0  0  0
    3.7244   -1.6698    0.0000 C   0  0  0  0  0  0  0  0  0  0  0  0
    3.9468   -3.1532    0.0000 C   0  0  0  0  0  0  0  0  0  0  0  0
    2.6047   -3.8231    0.0000 C   0  0  0  0  0  0  0  0  0  0  0  0
    1.5529   -2.7537    0.0000 C   0  0  0  0  0  0  0  0  0  0  0  0
    2.2449   -1.4229    0.0000 C   0  0  0  0  0  0  0  0  0  0  0  0
    0.7500   -1.2990    0.0000 C   0  0  0  0  0  0  0  0  0  0  0  0
    1.5000    0.0000    0.0000 C   0  0  0  0  0  0  0  0  0  0  0  0
    0.7500    1.2990    0.0000 C   0  0  0  0  0  0  0  0  0  0  0  0
   -0.7500    1.2990    0.0000 C   0  0  0  0  0  0  0  0  0  0  0  0
   -1.5000    0.0000    0.0000 C   0  0  0  0  0  0  0  0  0  0  0  0
   -0.7500   -1.2990    0.0000 C   0  0  0  0  0  0  0  0  0  0  0  0
   -2.2449   -1.4229    0.0000 C   0  0  0  0  0  0  0  0  0  0  0  0
   -1.2913   -2.5808    0.0000 C   0  0  0  0  0  0  0  0  0  0  0  0
   -1.8172   -3.9855    0.0000 C   0  0  0  0  0  0  0  0  0  0  0  0
   -3.2968   -4.2324    0.0000 C   0  0  0  0  0  0  0  0  0  0  0  0
   -4.2504   -3.0746    0.0000 C   0  0  0  0  0  0  0  0  0  0  0  0
   -3.7244   -1.6698    0.0000 C   0  0  0  0  0  0  0  0  0  0  0  0
   -5.1785   -2.0380    0.0000 C   0  0  0  0  0  0  0  0  0  0  0  0
   -4.8910   -0.5659    0.0000 C   0  0  0  0  0  0  0  0  0  0  0  0
   -6.0221    0.4193    0.0000 C   0  0  0  0  0  0  0  0  0  0  0  0
   -7.4408   -0.0678    0.0000 C   0  0  0  0  0  0  0  0  0  0  0  0
   -7.7284   -1.5399    0.0000 C   0  0  0  0  0  0  0  0  0  0  0  0
   -6.5972   -2.5251    0.0000 C   0  0  0  0  0  0  0  0  0  0  0  0
  1  2  1  0
  2  3  1  0
  3  4  1  0
  4  5  1  0
  5  6  1  0
  6  7  1  0
  7  8  1  0
  8  9  1  0
  9 10  1  0
 10 11  1  0
 11 12  1  0
 12 13  1  0
 13 14  1  0
 14 15  1  0
 15 16  1  0
 16 17  1  0
 17 18  1  0
 18 19  1  0
 19 20  1  0
 20 21  1  0
 21 22  1  0
 22 23  1  0
 23 24  1  0
 24 25  1  0
 25 26  1  0
 26 27  1  0
 27 28  1  0
 28 29  1  0
 29 30  1  0
 30 31  1  0
 31 32  1  0
 32 33  1  0
 33 34  1  0
 34 35  1  0
 35 36  1  0
 36 37  1  0
 37 38  1  0
 38 39  1  0
 39 40  1  0
 40 41  1  0
 41 42  1  0
 42 43  1  0
 43 44  1  0
 44 45  1  0
 45 46  1  0
 46 47  1  0
 47 48  1  0
 48 49  1  0
 49 50  2  0
 50 51  1  0
 51 52  2  0
 52 53  1  0
 53 54  2  0
 54 55  1  0
 55 56  2  0
 56 57  1  0
 57 58  2  0
 58 59  1  0
 59 60  2  0
 60 61  1  0
 61 62  2  0
 62 63  1  0
 63 64  2  0
 64 65  1  0
 65 66  2  0
 66 67  1  0
 67 68  2  0
 68 69  1  0
 69 70  2  0
 70 71  1  0
 71 72  2  0
 72 73  1  0
 73 74  2  0
 74 75  1  0
 75 76  2  0
 76 77  1  0
 77 78  2  0
 78 79  1  0
 79 80  2  0
 80 81  1  0
 81 82  2  0
 82 83  1  0
 83 84  2  0
 84 85  1  0
 85 86  2  0
 86 87  1  0
 87 88  2  0
 88 89  1  0
 89 90  2  0
 90 91  1  0
 91 92  2  0
 92  2  1  0
 74 70  1  0
 80 75  1  0
 86 81  1  0
 92 87  1  0
M  END
>  <Title>  (1091) 
idABOAgen13

$$$$

     RDKit          2D

 22 24  0  0  0  0  0  0  0  0999 V2000
   -9.2353  -11.2843    0.0000 C   0  0  0  0  0  0  0  0  0  0  0  0
   -8.1746  -10.2237    0.0000 C   0  0  0  0  0  0  0  0  0  0  0  0
   -7.1140   -9.1630    0.0000 C   0  0  0  0  0  0  0  0  0  0  0  0
   -6.0533   -8.1023    0.0000 C   0  0  0  0  0  0  0  0  0  0  0  0
   -4.9926   -7.0417    0.0000 C   0  0  0  0  0  0  0  0  0  0  0  0
   -3.9320   -5.9810    0.0000 C   0  0  0  0  0  0  0  0  0  0  0  0
   -2.8713   -4.9204    0.0000 C   0  0  0  0  0  0  0  0  0  0  0  0
   -1.8107   -3.8597    0.0000 C   0  0  0  0  0  0  0  0  0  0  0  0
   -0.7500   -2.7990    0.0000 N   0  0  0  0  0  0  0  0  0  0  0  0
    0.7500   -2.7990    0.0000 C   0  0  0  0  0  0  0  0  0  0  0  0
    0.7500   -1.2990    0.0000 C   0  0  0  0  0  0  0  0  0  0  0  0
    1.5000    0.0000    0.0000 C   0  0  0  0  0  0  0  0  0  0  0  0
    0.7500    1.2990    0.0000 C   0  0  0  0  0  0  0  0  0  0  0  0
   -0.7500    1.2990    0.0000 C   0  0  0  0  0  0  0  0  0  0  0  0
   -1.5000    2.5981    0.0000 C   0  0  0  0  0  0  0  0  0  0  0  0
   -0.7500    3.8971    0.0000 C   0  0  0  0  0  0  0  0  0  0  0  0
   -1.5000    5.1962    0.0000 C   0  0  0  0  0  0  0  0  0  0  0  0
   -3.0000    5.1962    0.0000 C   0  0  0  0  0  0  0  0  0  0  0  0
   -3.7500    3.8971    0.0000 C   0  0  0  0  0  0  0  0  0  0  0  0
   -3.0000    2.5981    0.0000 C   0  0  0  0  0  0  0  0  0  0  0  0
   -1.5000    0.0000    0.0000 C   0  0  0  0  0  0  0  0  0  0  0  0
   -0.7500   -1.2990    0.0000 C   0  0  0  0  0  0  0  0  0  0  0  0
  1  2  3  0
  2  3  1  0
  3  4  3  0
  4  5  1  0
  5  6  3  0
  6  7  1  0
  7  8  3  0
  8  9  1  0
  9 10  1  0
 10 11  1  0
 11 12  2  0
 12 13  1  0
 13 14  2  0
 14 15  1  0
 15 16  2  0
 16 17  1  0
 17 18  2  0
 18 19  1  0
 19 20  2  0
 14 21  1  0
 21 22  2  0
 22  9  1  0
 22 11  1  0
 20 15  1  0
M  END
>  <Title>  (1092) 
idABOBgen13

$$$$

     RDKit          2D

 88 90  0  0  0  0  0  0  0  0999 V2000
    4.6768   -7.5107    0.0000 C   0  0  0  0  0  0  0  0  0  0  0  0
    6.1713   -7.3824    0.0000 C   0  0  0  0  0  0  0  0  0  0  0  0
    6.3848   -8.8671    0.0000 C   0  0  0  0  0  0  0  0  0  0  0  0
    6.7661  -10.3178    0.0000 C   0  0  0  0  0  0  0  0  0  0  0  0
    7.3104  -11.7156    0.0000 C   0  0  0  0  0  0  0  0  0  0  0  0
    8.0104  -13.0423    0.0000 C   0  0  0  0  0  0  0  0  0  0  0  0
    8.8570  -14.2805    0.0000 C   0  0  0  0  0  0  0  0  0  0  0  0
    9.8393  -15.4141    0.0000 C   0  0  0  0  0  0  0  0  0  0  0  0
   10.9444  -16.4284    0.0000 C   0  0  0  0  0  0  0  0  0  0  0  0
   12.1580  -17.3100    0.0000 C   0  0  0  0  0  0  0  0  0  0  0  0
   13.4641  -18.0476    0.0000 C   0  0  0  0  0  0  0  0  0  0  0  0
   14.8458  -18.6316    0.0000 C   0  0  0  0  0  0  0  0  0  0  0  0
   16.2850  -19.0542    0.0000 C   0  0  0  0  0  0  0  0  0  0  0  0
   17.7630  -19.3099    0.0000 C   0  0  0  0  0  0  0  0  0  0  0  0
   19.2606  -19.3956    0.0000 C   0  0  0  0  0  0  0  0  0  0  0  0
   20.7581  -19.3099    0.0000 C   0  0  0  0  0  0  0  0  0  0  0  0
   22.2362  -19.0542    0.0000 C   0  0  0  0  0  0  0  0  0  0  0  0
   23.6754  -18.6316    0.0000 C   0  0  0  0  0  0  0  0  0  0  0  0
   25.0571  -18.0476    0.0000 C   0  0  0  0  0  0  0  0  0  0  0  0
   26.3632  -17.3100    0.0000 C   0  0  0  0  0  0  0  0  0  0  0  0
   27.5767  -16.4284    0.0000 C   0  0  0  0  0  0  0  0  0  0  0  0
   28.6818  -15.4141    0.0000 C   0  0  0  0  0  0  0  0  0  0  0  0
   29.6641  -14.2805    0.0000 C   0  0  0  0  0  0  0  0  0  0  0  0
   30.5108  -13.0423    0.0000 C   0  0  0  0  0  0  0  0  0  0  0  0
   31.2108  -11.7156    0.0000 C   0  0  0  0  0  0  0  0  0  0  0  0
   31.7550  -10.3178    0.0000 C   0  0  0  0  0  0  0  0  0  0  0  0
   32.1363   -8.8671    0.0000 C   0  0  0  0  0  0  0  0  0  0  0  0
   32.3498   -7.3824    0.0000 C   0  0  0  0  0  0  0  0  0  0  0  0
   32.3926   -5.8830    0.0000 C   0  0  0  0  0  0  0  0  0  0  0  0
   32.2643   -4.3885    0.0000 C   0  0  0  0  0  0  0  0  0  0  0  0
   31.9664   -2.9184    0.0000 C   0  0  0  0  0  0  0  0  0  0  0  0
   31.5029   -1.4918    0.0000 C   0  0  0  0  0  0  0  0  0  0  0  0
   30.8798   -0.1273    0.0000 C   0  0  0  0  0  0  0  0  0  0  0  0
   30.1052    1.1572    0.0000 C   0  0  0  0  0  0  0  0  0  0  0  0
   29.1892    2.3450    0.0000 C   0  0  0  0  0  0  0  0  0  0  0  0
   28.1438    3.4207    0.0000 C   0  0  0  0  0  0  0  0  0  0  0  0
   26.9826    4.3703    0.0000 C   0  0  0  0  0  0  0  0  0  0  0  0
   25.7207    5.1812    0.0000 C   0  0  0  0  0  0  0  0  0  0  0  0
   24.3746    5.8431    0.0000 C   0  0  0  0  0  0  0  0  0  0  0  0
   22.9618    6.3471    0.0000 C   0  0  0  0  0  0  0  0  0  0  0  0
   21.5008    6.6869    0.0000 C   0  0  0  0  0  0  0  0  0  0  0  0
   20.0106    6.8579    0.0000 C   0  0  0  0  0  0  0  0  0  0  0  0
   18.5106    6.8579    0.0000 C   0  0  0  0  0  0  0  0  0  0  0  0
   17.0204    6.6869    0.0000 C   0  0  0  0  0  0  0  0  0  0  0  0
   15.5593    6.3471    0.0000 C   0  0  0  0  0  0  0  0  0  0  0  0
   14.1466    5.8431    0.0000 C   0  0  0  0  0  0  0  0  0  0  0  0
   12.8005    5.1812    0.0000 C   0  0  0  0  0  0  0  0  0  0  0  0
   11.5386    4.3703    0.0000 C   0  0  0  0  0  0  0  0  0  0  0  0
   10.3774    3.4207    0.0000 C   0  0  0  0  0  0  0  0  0  0  0  0
    9.3320    2.3450    0.0000 C   0  0  0  0  0  0  0  0  0  0  0  0
    8.4160    1.1572    0.0000 C   0  0  0  0  0  0  0  0  0  0  0  0
    7.6414   -0.1273    0.0000 C   0  0  0  0  0  0  0  0  0  0  0  0
    7.0183   -1.4918    0.0000 C   0  0  0  0  0  0  0  0  0  0  0  0
    6.4751   -0.0000    0.0000 C   0  0  0  0  0  0  0  0  0  0  0  0
    6.3336    1.3462    0.0000 C   0  0  0  0  0  0  0  0  0  0  0  0
    5.9153    2.6337    0.0000 C   0  0  0  0  0  0  0  0  0  0  0  0
    5.2384    3.8060    0.0000 C   0  0  0  0  0  0  0  0  0  0  0  0
    4.3327    4.8119    0.0000 C   0  0  0  0  0  0  0  0  0  0  0  0
    3.2375    5.6076    0.0000 C   0  0  0  0  0  0  0  0  0  0  0  0
    2.0009    6.1582    0.0000 C   0  0  0  0  0  0  0  0  0  0  0  0
    0.6768    6.4396    0.0000 C   0  0  0  0  0  0  0  0  0  0  0  0
   -0.6768    6.4396    0.0000 C   0  0  0  0  0  0  0  0  0  0  0  0
   -2.0009    6.1582    0.0000 C   0  0  0  0  0  0  0  0  0  0  0  0
   -3.2375    5.6076    0.0000 C   0  0  0  0  0  0  0  0  0  0  0  0
   -4.3327    4.8119    0.0000 C   0  0  0  0  0  0  0  0  0  0  0  0
   -5.2384    3.8060    0.0000 C   0  0  0  0  0  0  0  0  0  0  0  0
   -5.9153    2.6337    0.0000 C   0  0  0  0  0  0  0  0  0  0  0  0
   -6.3336    1.3462    0.0000 C   0  0  0  0  0  0  0  0  0  0  0  0
   -6.4751    0.0000    0.0000 C   0  0  0  0  0  0  0  0  0  0  0  0
   -6.3336   -1.3462    0.0000 C   0  0  0  0  0  0  0  0  0  0  0  0
   -5.9153   -2.6337    0.0000 C   0  0  0  0  0  0  0  0  0  0  0  0
   -5.2384   -3.8060    0.0000 C   0  0  0  0  0  0  0  0  0  0  0  0
   -4.3327   -4.8119    0.0000 C   0  0  0  0  0  0  0  0  0  0  0  0
   -3.2375   -5.6076    0.0000 C   0  0  0  0  0  0  0  0  0  0  0  0
   -2.0009   -6.1582    0.0000 C   0  0  0  0  0  0  0  0  0  0  0  0
   -0.6768   -6.4396    0.0000 C   0  0  0  0  0  0  0  0  0  0  0  0
    0.6768   -6.4396    0.0000 C   0  0  0  0  0  0  0  0  0  0  0  0
    2.0009   -6.1582    0.0000 C   0  0  0  0  0  0  0  0  0  0  0  0
    3.2375   -5.6076    0.0000 C   0  0  0  0  0  0  0  0  0  0  0  0
    4.3327   -4.8119    0.0000 C   0  0  0  0  0  0  0  0  0  0  0  0
    5.2384   -3.8060    0.0000 C   0  0  0  0  0  0  0  0  0  0  0  0
    6.5548   -2.9184    0.0000 C   0  0  0  0  0  0  0  0  0  0  0  0
    6.2569   -4.3885    0.0000 C   0  0  0  0  0  0  0  0  0  0  0  0
    7.6153   -3.7524    0.0000 C   0  0  0  0  0  0  0  0  0  0  0  0
    8.8454   -4.6108    0.0000 C   0  0  0  0  0  0  0  0  0  0  0  0
    8.7171   -6.1053    0.0000 C   0  0  0  0  0  0  0  0  0  0  0  0
    7.3586   -6.7414    0.0000 C   0  0  0  0  0  0  0  0  0  0  0  0
    6.1285   -5.8830    0.0000 C   0  0  0  0  0  0  0  0  0  0  0  0
  1  2  1  0
  2  3  1  0
  3  4  1  0
  4  5  1  0
  5  6  1  0
  6  7  1  0
  7  8  1  0
  8  9  1  0
  9 10  1  0
 10 11  1  0
 11 12  1  0
 12 13  1  0
 13 14  1  0
 14 15  1  0
 15 16  1  0
 16 17  1  0
 17 18  1  0
 18 19  1  0
 19 20  1  0
 20 21  1  0
 21 22  1  0
 22 23  1  0
 23 24  1  0
 24 25  1  0
 25 26  1  0
 26 27  1  0
 27 28  1  0
 28 29  1  0
 29 30  1  0
 30 31  1  0
 31 32  1  0
 32 33  1  0
 33 34  1  0
 34 35  1  0
 35 36  1  0
 36 37  1  0
 37 38  1  0
 38 39  1  0
 39 40  1  0
 40 41  1  0
 41 42  1  0
 42 43  1  0
 43 44  1  0
 44 45  1  0
 45 46  1  0
 46 47  1  0
 47 48  1  0
 48 49  1  0
 49 50  1  0
 50 51  1  0
 51 52  1  0
 52 53  1  0
 53 54  1  0
 54 55  1  0
 55 56  1  0
 56 57  1  0
 57 58  2  0
 58 59  1  0
 59 60  2  0
 60 61  1  0
 61 62  2  0
 62 63  1  0
 63 64  2  0
 64 65  1  0
 65 66  2  0
 66 67  1  0
 67 68  2  0
 68 69  1  0
 69 70  2  0
 70 71  1  0
 71 72  2  0
 72 73  1  0
 73 74  2  0
 74 75  1  0
 75 76  2  0
 76 77  1  0
 77 78  2  0
 78 79  1  0
 79 80  2  0
 80 81  1  0
 81 82  2  0
 82 83  1  0
 83 84  2  0
 84 85  1  0
 85 86  2  0
 86 87  1  0
 87 88  2  0
 88  2  1  0
 82 53  1  0
 88 83  1  0
M  END
>  <Title>  (1093) 
idABOCgen13

$$$$

     RDKit          2D

 80 81  0  0  0  0  0  0  0  0999 V2000
   -2.2088   -1.0671    0.0000 C   0  0  0  0  0  0  0  0  0  0  0  0
   -2.4923    0.4059    0.0000 C   0  0  0  0  0  0  0  0  0  0  0  0
   -3.9757    0.1835    0.0000 C   0  0  0  0  0  0  0  0  0  0  0  0
   -5.4724    0.0843    0.0000 C   0  0  0  0  0  0  0  0  0  0  0  0
   -6.9722    0.1091    0.0000 C   0  0  0  0  0  0  0  0  0  0  0  0
   -8.4648    0.2577    0.0000 C   0  0  0  0  0  0  0  0  0  0  0  0
   -9.9401    0.5290    0.0000 C   0  0  0  0  0  0  0  0  0  0  0  0
  -11.3879    0.9212    0.0000 C   0  0  0  0  0  0  0  0  0  0  0  0
  -12.7984    1.4317    0.0000 C   0  0  0  0  0  0  0  0  0  0  0  0
  -14.1619    2.0569    0.0000 C   0  0  0  0  0  0  0  0  0  0  0  0
  -15.4691    2.7925    0.0000 C   0  0  0  0  0  0  0  0  0  0  0  0
  -16.7111    3.6336    0.0000 C   0  0  0  0  0  0  0  0  0  0  0  0
  -17.8795    4.5743    0.0000 C   0  0  0  0  0  0  0  0  0  0  0  0
  -18.9661    5.6084    0.0000 C   0  0  0  0  0  0  0  0  0  0  0  0
  -19.9636    6.7286    0.0000 C   0  0  0  0  0  0  0  0  0  0  0  0
  -20.8652    7.9274    0.0000 C   0  0  0  0  0  0  0  0  0  0  0  0
  -21.6648    9.1965    0.0000 C   0  0  0  0  0  0  0  0  0  0  0  0
  -22.3568   10.5273    0.0000 C   0  0  0  0  0  0  0  0  0  0  0  0
  -22.9366   11.9108    0.0000 C   0  0  0  0  0  0  0  0  0  0  0  0
  -23.4001   13.3374    0.0000 C   0  0  0  0  0  0  0  0  0  0  0  0
  -23.7442   14.7974    0.0000 C   0  0  0  0  0  0  0  0  0  0  0  0
  -23.9666   16.2808    0.0000 C   0  0  0  0  0  0  0  0  0  0  0  0
  -24.0658   17.7775    0.0000 C   0  0  0  0  0  0  0  0  0  0  0  0
  -24.0409   19.2773    0.0000 C   0  0  0  0  0  0  0  0  0  0  0  0
  -23.8924   20.7699    0.0000 C   0  0  0  0  0  0  0  0  0  0  0  0
  -23.6211   22.2452    0.0000 C   0  0  0  0  0  0  0  0  0  0  0  0
  -23.2288   23.6930    0.0000 C   0  0  0  0  0  0  0  0  0  0  0  0
  -22.7184   25.1035    0.0000 C   0  0  0  0  0  0  0  0  0  0  0  0
  -22.0932   26.4670    0.0000 C   0  0  0  0  0  0  0  0  0  0  0  0
  -21.3576   27.7742    0.0000 C   0  0  0  0  0  0  0  0  0  0  0  0
  -20.5165   29.0162    0.0000 C   0  0  0  0  0  0  0  0  0  0  0  0
  -19.5758   30.1845    0.0000 C   0  0  0  0  0  0  0  0  0  0  0  0
  -18.5417   31.2712    0.0000 C   0  0  0  0  0  0  0  0  0  0  0  0
  -17.4215   32.2687    0.0000 C   0  0  0  0  0  0  0  0  0  0  0  0
  -16.2227   33.1703    0.0000 C   0  0  0  0  0  0  0  0  0  0  0  0
  -14.9536   33.9699    0.0000 C   0  0  0  0  0  0  0  0  0  0  0  0
  -13.6227   34.6619    0.0000 C   0  0  0  0  0  0  0  0  0  0  0  0
  -12.2393   35.2416    0.0000 C   0  0  0  0  0  0  0  0  0  0  0  0
  -10.8127   35.7052    0.0000 C   0  0  0  0  0  0  0  0  0  0  0  0
   -9.3527   36.0493    0.0000 C   0  0  0  0  0  0  0  0  0  0  0  0
   -7.8693   36.2717    0.0000 C   0  0  0  0  0  0  0  0  0  0  0  0
   -6.3726   36.3708    0.0000 C   0  0  0  0  0  0  0  0  0  0  0  0
   -4.8728   36.3460    0.0000 C   0  0  0  0  0  0  0  0  0  0  0  0
   -3.3802   36.1975    0.0000 C   0  0  0  0  0  0  0  0  0  0  0  0
   -1.9049   35.9261    0.0000 C   0  0  0  0  0  0  0  0  0  0  0  0
   -0.4571   35.5339    0.0000 C   0  0  0  0  0  0  0  0  0  0  0  0
    0.9534   35.0235    0.0000 C   0  0  0  0  0  0  0  0  0  0  0  0
    2.3169   34.3983    0.0000 C   0  0  0  0  0  0  0  0  0  0  0  0
    3.6241   33.6627    0.0000 C   0  0  0  0  0  0  0  0  0  0  0  0
    4.8661   32.8216    0.0000 C   0  0  0  0  0  0  0  0  0  0  0  0
    6.0345   31.8808    0.0000 C   0  0  0  0  0  0  0  0  0  0  0  0
    7.1211   30.8468    0.0000 C   0  0  0  0  0  0  0  0  0  0  0  0
    8.1186   29.7266    0.0000 C   0  0  0  0  0  0  0  0  0  0  0  0
    9.0202   28.5278    0.0000 C   0  0  0  0  0  0  0  0  0  0  0  0
    9.8198   27.2587    0.0000 C   0  0  0  0  0  0  0  0  0  0  0  0
   10.5118   25.9278    0.0000 C   0  0  0  0  0  0  0  0  0  0  0  0
   11.0916   24.5444    0.0000 C   0  0  0  0  0  0  0  0  0  0  0  0
   11.5551   23.1178    0.0000 C   0  0  0  0  0  0  0  0  0  0  0  0
   11.8992   21.6578    0.0000 C   0  0  0  0  0  0  0  0  0  0  0  0
   12.1216   20.1744    0.0000 C   0  0  0  0  0  0  0  0  0  0  0  0
   12.2207   18.6777    0.0000 C   0  0  0  0  0  0  0  0  0  0  0  0
   12.1959   17.1779    0.0000 C   0  0  0  0  0  0  0  0  0  0  0  0
   12.0474   15.6852    0.0000 C   0  0  0  0  0  0  0  0  0  0  0  0
   11.7761   14.2100    0.0000 C   0  0  0  0  0  0  0  0  0  0  0  0
   11.3838   12.7622    0.0000 C   0  0  0  0  0  0  0  0  0  0  0  0
   10.8734   11.3517    0.0000 C   0  0  0  0  0  0  0  0  0  0  0  0
   10.2482    9.9882    0.0000 C   0  0  0  0  0  0  0  0  0  0  0  0
    9.5126    8.6810    0.0000 C   0  0  0  0  0  0  0  0  0  0  0  0
    8.6715    7.4389    0.0000 C   0  0  0  0  0  0  0  0  0  0  0  0
    7.7308    6.2706    0.0000 C   0  0  0  0  0  0  0  0  0  0  0  0
    6.6967    5.1840    0.0000 C   0  0  0  0  0  0  0  0  0  0  0  0
    5.5765    4.1865    0.0000 C   0  0  0  0  0  0  0  0  0  0  0  0
    4.3777    3.2848    0.0000 C   0  0  0  0  0  0  0  0  0  0  0  0
    3.1086    2.4853    0.0000 C   0  0  0  0  0  0  0  0  0  0  0  0
    1.7777    1.7933    0.0000 C   0  0  0  0  0  0  0  0  0  0  0  0
    0.3943    1.2135    0.0000 C   0  0  0  0  0  0  0  0  0  0  0  0
    1.2760    0.0000    0.0000 C   0  0  0  0  0  0  0  0  0  0  0  0
    0.3943   -1.2135    0.0000 C   0  0  0  0  0  0  0  0  0  0  0  0
   -1.0323   -0.7500    0.0000 C   0  0  0  0  0  0  0  0  0  0  0  0
   -1.0323    0.7500    0.0000 C   0  0  0  0  0  0  0  0  0  0  0  0
  1  2  1  0
  2  3  1  0
  3  4  1  0
  4  5  1  0
  5  6  1  0
  6  7  1  0
  7  8  1  0
  8  9  1  0
  9 10  1  0
 10 11  1  0
 11 12  1  0
 12 13  1  0
 13 14  1  0
 14 15  1  0
 15 16  1  0
 16 17  1  0
 17 18  1  0
 18 19  1  0
 19 20  1  0
 20 21  1  0
 21 22  1  0
 22 23  1  0
 23 24  1  0
 24 25  1  0
 25 26  1  0
 26 27  1  0
 27 28  1  0
 28 29  1  0
 29 30  1  0
 30 31  1  0
 31 32  1  0
 32 33  1  0
 33 34  1  0
 34 35  1  0
 35 36  1  0
 36 37  1  0
 37 38  1  0
 38 39  1  0
 39 40  1  0
 40 41  1  0
 41 42  1  0
 42 43  1  0
 43 44  1  0
 44 45  1  0
 45 46  1  0
 46 47  1  0
 47 48  1  0
 48 49  1  0
 49 50  1  0
 50 51  1  0
 51 52  1  0
 52 53  1  0
 53 54  1  0
 54 55  1  0
 55 56  1  0
 56 57  1  0
 57 58  1  0
 58 59  1  0
 59 60  1  0
 60 61  1  0
 61 62  1  0
 62 63  1  0
 63 64  1  0
 64 65  1  0
 65 66  2  0
 66 67  1  0
 67 68  2  0
 68 69  1  0
 69 70  2  0
 70 71  1  0
 71 72  2  0
 72 73  1  0
 73 74  2  0
 74 75  1  0
 75 76  2  0
 76 77  1  0
 77 78  2  0
 78 79  1  0
 79 80  2  0
 80  2  1  0
 80 76  1  0
M  END
>  <Title>  (1094) 
idABODgen13

$$$$

     RDKit          2D

  7  6  0  0  0  0  0  0  0  0999 V2000
    0.0000    0.0000    0.0000 C   0  0  0  0  0  0  0  0  0  0  0  0
   -0.0000   -1.5000    0.0000 C   0  0  0  0  0  0  0  0  0  0  0  0
   -0.0000   -3.0000    0.0000 C   0  0  0  0  0  0  0  0  0  0  0  0
    1.2990   -3.7500    0.0000 C   0  0  0  0  0  0  0  0  0  0  0  0
    1.2990   -5.2500    0.0000 C   0  0  0  0  0  0  0  0  0  0  0  0
    2.5981   -6.0000    0.0000 C   0  0  0  0  0  0  0  0  0  0  0  0
    2.5981   -7.5000    0.0000 C   0  0  0  0  0  0  0  0  0  0  0  0
  1  2  3  0
  2  3  1  0
  3  4  1  0
  4  5  1  0
  5  6  2  3
  6  7  1  0
M  END
>  <Title>  (1095) 
idABOEgen13

$$$$

     RDKit          2D

 18 19  0  0  0  0  0  0  0  0999 V2000
   13.2760   -0.0000    0.0000 C   0  0  0  0  0  0  0  0  0  0  0  0
   11.7760   -0.0000    0.0000 C   0  0  0  0  0  0  0  0  0  0  0  0
   10.2760   -0.0000    0.0000 C   0  0  0  0  0  0  0  0  0  0  0  0
    8.7760   -0.0000    0.0000 C   0  0  0  0  0  0  0  0  0  0  0  0
    7.2760   -0.0000    0.0000 C   0  0  0  0  0  0  0  0  0  0  0  0
    5.7760   -0.0000    0.0000 C   0  0  0  0  0  0  0  0  0  0  0  0
    4.2760   -0.0000    0.0000 C   0  0  0  0  0  0  0  0  0  0  0  0
    2.7760    0.0000    0.0000 C   0  0  0  0  0  0  0  0  0  0  0  0
    1.2760    0.0000    0.0000 C   0  0  0  0  0  0  0  0  0  0  0  0
    0.3943    1.2135    0.0000 N   0  0  0  0  0  0  0  0  0  0  0  0
   -1.0323    0.7500    0.0000 N   0  0  0  0  0  0  0  0  0  0  0  0
   -1.0323   -0.7500    0.0000 N   0  0  0  0  0  0  0  0  0  0  0  0
    0.3943   -1.2135    0.0000 N   0  0  0  0  0  0  0  0  0  0  0  0
    0.8578   -2.6401    0.0000 C   0  0  0  0  0  0  0  0  0  0  0  0
    2.2844   -3.1036    0.0000 C   0  0  0  0  0  0  0  0  0  0  0  0
    2.2844   -4.6036    0.0000 C   0  0  0  0  0  0  0  0  0  0  0  0
    0.8578   -5.0672    0.0000 C   0  0  0  0  0  0  0  0  0  0  0  0
   -0.0239   -3.8536    0.0000 C   0  0  0  0  0  0  0  0  0  0  0  0
  1  2  3  0
  2  3  1  0
  3  4  3  0
  4  5  1  0
  5  6  3  0
  6  7  1  0
  7  8  3  0
  8  9  1  0
  9 10  2  0
 10 11  1  0
 11 12  2  0
 12 13  1  0
 13 14  1  0
 14 15  2  0
 15 16  1  0
 16 17  1  0
 17 18  2  0
 13  9  1  0
 18 14  1  0
M  END
>  <Title>  (1096) 
idABOFgen13

$$$$

     RDKit          2D

 28 27  0  0  0  0  0  0  0  0999 V2000
    0.0000    0.0000    0.0000 C   0  0  0  0  0  0  0  0  0  0  0  0
   -0.0000   -1.5000    0.0000 C   0  0  0  0  0  0  0  0  0  0  0  0
   -0.0000   -3.0000    0.0000 C   0  0  0  0  0  0  0  0  0  0  0  0
   -0.0000   -4.5000    0.0000 C   0  0  0  0  0  0  0  0  0  0  0  0
   -0.0000   -6.0000    0.0000 C   0  0  0  0  0  0  0  0  0  0  0  0
   -0.0000   -7.5000    0.0000 C   0  0  0  0  0  0  0  0  0  0  0  0
   -0.0000   -9.0000    0.0000 C   0  0  0  0  0  0  0  0  0  0  0  0
   -0.0000  -10.5000    0.0000 C   0  0  0  0  0  0  0  0  0  0  0  0
   -0.0000  -12.0000    0.0000 C   0  0  0  0  0  0  0  0  0  0  0  0
   -0.0000  -13.5000    0.0000 C   0  0  0  0  0  0  0  0  0  0  0  0
   -0.0000  -15.0000    0.0000 C   0  0  0  0  0  0  0  0  0  0  0  0
   -0.0000  -16.5000    0.0000 C   0  0  0  0  0  0  0  0  0  0  0  0
   -0.0000  -18.0000    0.0000 C   0  0  0  0  0  0  0  0  0  0  0  0
   -0.0000  -19.5000    0.0000 C   0  0  0  0  0  0  0  0  0  0  0  0
   -0.0000  -21.0000    0.0000 C   0  0  0  0  0  0  0  0  0  0  0  0
   -0.0000  -22.5000    0.0000 C   0  0  0  0  0  0  0  0  0  0  0  0
   -0.0000  -24.0000    0.0000 C   0  0  0  0  0  0  0  0  0  0  0  0
   -0.0000  -25.5000    0.0000 C   0  0  0  0  0  0  0  0  0  0  0  0
   -0.0000  -27.0000    0.0000 C   0  0  0  0  0  0  0  0  0  0  0  0
   -0.0000  -28.5000    0.0000 C   0  0  0  0  0  0  0  0  0  0  0  0
   -0.0000  -30.0000    0.0000 C   0  0  0  0  0  0  0  0  0  0  0  0
   -0.0000  -31.5000    0.0000 C   0  0  0  0  0  0  0  0  0  0  0  0
   -0.0000  -33.0000    0.0000 C   0  0  0  0  0  0  0  0  0  0  0  0
   -0.0000  -34.5000    0.0000 C   0  0  0  0  0  0  0  0  0  0  0  0
   -0.0000  -36.0000    0.0000 C   0  0  0  0  0  0  0  0  0  0  0  0
    1.2990  -36.7500    0.0000 C   0  0  0  0  0  0  0  0  0  0  0  0
    1.2990  -38.2500    0.0000 C   0  0  0  0  0  0  0  0  0  0  0  0
    1.2990  -39.7500    0.0000 C   0  0  0  0  0  0  0  0  0  0  0  0
  1  2  3  0
  2  3  1  0
  3  4  3  0
  4  5  1  0
  5  6  3  0
  6  7  1  0
  7  8  3  0
  8  9  1  0
  9 10  3  0
 10 11  1  0
 11 12  3  0
 12 13  1  0
 13 14  3  0
 14 15  1  0
 15 16  3  0
 16 17  1  0
 17 18  3  0
 18 19  1  0
 19 20  3  0
 20 21  1  0
 21 22  3  0
 22 23  1  0
 23 24  3  0
 24 25  1  0
 25 26  2  3
 26 27  1  0
 27 28  3  0
M  END
>  <Title>  (1097) 
idABOGgen13

$$$$

     RDKit          2D

 90 92  0  0  0  0  0  0  0  0999 V2000
    5.9363   -7.6294    0.0000 C   0  0  0  0  0  0  0  0  0  0  0  0
    7.4205   -7.4116    0.0000 C   0  0  0  0  0  0  0  0  0  0  0  0
    7.7275   -8.8799    0.0000 C   0  0  0  0  0  0  0  0  0  0  0  0
    8.2092  -10.3004    0.0000 C   0  0  0  0  0  0  0  0  0  0  0  0
    8.8586  -11.6525    0.0000 C   0  0  0  0  0  0  0  0  0  0  0  0
    9.6663  -12.9165    0.0000 C   0  0  0  0  0  0  0  0  0  0  0  0
   10.6205  -14.0739    0.0000 C   0  0  0  0  0  0  0  0  0  0  0  0
   11.7072  -15.1079    0.0000 C   0  0  0  0  0  0  0  0  0  0  0  0
   12.9106  -16.0033    0.0000 C   0  0  0  0  0  0  0  0  0  0  0  0
   14.2132  -16.7471    0.0000 C   0  0  0  0  0  0  0  0  0  0  0  0
   15.5960  -17.3285    0.0000 C   0  0  0  0  0  0  0  0  0  0  0  0
   17.0387  -17.7390    0.0000 C   0  0  0  0  0  0  0  0  0  0  0  0
   18.5204  -17.9726    0.0000 C   0  0  0  0  0  0  0  0  0  0  0  0
   20.0194  -18.0259    0.0000 C   0  0  0  0  0  0  0  0  0  0  0  0
   21.5140  -17.8981    0.0000 C   0  0  0  0  0  0  0  0  0  0  0  0
   22.9822  -17.5911    0.0000 C   0  0  0  0  0  0  0  0  0  0  0  0
   24.4028  -17.1094    0.0000 C   0  0  0  0  0  0  0  0  0  0  0  0
   25.7549  -16.4599    0.0000 C   0  0  0  0  0  0  0  0  0  0  0  0
   27.0189  -15.6522    0.0000 C   0  0  0  0  0  0  0  0  0  0  0  0
   28.1763  -14.6981    0.0000 C   0  0  0  0  0  0  0  0  0  0  0  0
   29.2102  -13.6114    0.0000 C   0  0  0  0  0  0  0  0  0  0  0  0
   30.1056  -12.4079    0.0000 C   0  0  0  0  0  0  0  0  0  0  0  0
   30.8495  -11.1054    0.0000 C   0  0  0  0  0  0  0  0  0  0  0  0
   31.4309   -9.7226    0.0000 C   0  0  0  0  0  0  0  0  0  0  0  0
   31.8414   -8.2799    0.0000 C   0  0  0  0  0  0  0  0  0  0  0  0
   32.0750   -6.7982    0.0000 C   0  0  0  0  0  0  0  0  0  0  0  0
   32.1283   -5.2991    0.0000 C   0  0  0  0  0  0  0  0  0  0  0  0
   32.0005   -3.8046    0.0000 C   0  0  0  0  0  0  0  0  0  0  0  0
   31.6935   -2.3363    0.0000 C   0  0  0  0  0  0  0  0  0  0  0  0
   31.2117   -0.9158    0.0000 C   0  0  0  0  0  0  0  0  0  0  0  0
   30.5623    0.4363    0.0000 C   0  0  0  0  0  0  0  0  0  0  0  0
   29.7546    1.7003    0.0000 C   0  0  0  0  0  0  0  0  0  0  0  0
   28.8004    2.8577    0.0000 C   0  0  0  0  0  0  0  0  0  0  0  0
   27.7137    3.8916    0.0000 C   0  0  0  0  0  0  0  0  0  0  0  0
   26.5103    4.7871    0.0000 C   0  0  0  0  0  0  0  0  0  0  0  0
   25.2077    5.5309    0.0000 C   0  0  0  0  0  0  0  0  0  0  0  0
   23.8250    6.1123    0.0000 C   0  0  0  0  0  0  0  0  0  0  0  0
   22.3822    6.5228    0.0000 C   0  0  0  0  0  0  0  0  0  0  0  0
   20.9005    6.7564    0.0000 C   0  0  0  0  0  0  0  0  0  0  0  0
   19.4015    6.8097    0.0000 C   0  0  0  0  0  0  0  0  0  0  0  0
   17.9069    6.6819    0.0000 C   0  0  0  0  0  0  0  0  0  0  0  0
   16.4387    6.3749    0.0000 C   0  0  0  0  0  0  0  0  0  0  0  0
   15.0182    5.8932    0.0000 C   0  0  0  0  0  0  0  0  0  0  0  0
   13.6660    5.2437    0.0000 C   0  0  0  0  0  0  0  0  0  0  0  0
   12.4021    4.4360    0.0000 C   0  0  0  0  0  0  0  0  0  0  0  0
   11.2447    3.4819    0.0000 C   0  0  0  0  0  0  0  0  0  0  0  0
   10.2107    2.3951    0.0000 C   0  0  0  0  0  0  0  0  0  0  0  0
    9.3153    1.1917    0.0000 C   0  0  0  0  0  0  0  0  0  0  0  0
    8.5715   -0.1109    0.0000 C   0  0  0  0  0  0  0  0  0  0  0  0
    7.9901   -1.4936    0.0000 C   0  0  0  0  0  0  0  0  0  0  0  0
    7.4285    0.0000    0.0000 C   0  0  0  0  0  0  0  0  0  0  0  0
    7.3020    1.3650    0.0000 C   0  0  0  0  0  0  0  0  0  0  0  0
    6.9268    2.6835    0.0000 C   0  0  0  0  0  0  0  0  0  0  0  0
    6.3158    3.9106    0.0000 C   0  0  0  0  0  0  0  0  0  0  0  0
    5.4897    5.0045    0.0000 C   0  0  0  0  0  0  0  0  0  0  0  0
    4.4766    5.9280    0.0000 C   0  0  0  0  0  0  0  0  0  0  0  0
    3.3112    6.6497    0.0000 C   0  0  0  0  0  0  0  0  0  0  0  0
    2.0329    7.1449    0.0000 C   0  0  0  0  0  0  0  0  0  0  0  0
    0.6854    7.3968    0.0000 C   0  0  0  0  0  0  0  0  0  0  0  0
   -0.6854    7.3968    0.0000 C   0  0  0  0  0  0  0  0  0  0  0  0
   -2.0329    7.1449    0.0000 C   0  0  0  0  0  0  0  0  0  0  0  0
   -3.3112    6.6497    0.0000 C   0  0  0  0  0  0  0  0  0  0  0  0
   -4.4766    5.9280    0.0000 C   0  0  0  0  0  0  0  0  0  0  0  0
   -5.4897    5.0045    0.0000 C   0  0  0  0  0  0  0  0  0  0  0  0
   -6.3158    3.9106    0.0000 C   0  0  0  0  0  0  0  0  0  0  0  0
   -6.9268    2.6835    0.0000 C   0  0  0  0  0  0  0  0  0  0  0  0
   -7.3020    1.3650    0.0000 C   0  0  0  0  0  0  0  0  0  0  0  0
   -7.4285    0.0000    0.0000 C   0  0  0  0  0  0  0  0  0  0  0  0
   -7.3020   -1.3650    0.0000 C   0  0  0  0  0  0  0  0  0  0  0  0
   -6.9268   -2.6835    0.0000 C   0  0  0  0  0  0  0  0  0  0  0  0
   -6.3158   -3.9106    0.0000 C   0  0  0  0  0  0  0  0  0  0  0  0
   -5.4897   -5.0045    0.0000 C   0  0  0  0  0  0  0  0  0  0  0  0
   -4.4766   -5.9280    0.0000 C   0  0  0  0  0  0  0  0  0  0  0  0
   -3.3112   -6.6497    0.0000 C   0  0  0  0  0  0  0  0  0  0  0  0
   -2.0329   -7.1449    0.0000 C   0  0  0  0  0  0  0  0  0  0  0  0
   -0.6854   -7.3968    0.0000 C   0  0  0  0  0  0  0  0  0  0  0  0
    0.6854   -7.3968    0.0000 C   0  0  0  0  0  0  0  0  0  0  0  0
    2.0329   -7.1449    0.0000 C   0  0  0  0  0  0  0  0  0  0  0  0
    3.3112   -6.6497    0.0000 C   0  0  0  0  0  0  0  0  0  0  0  0
    4.4766   -5.9280    0.0000 C   0  0  0  0  0  0  0  0  0  0  0  0
    5.4897   -5.0045    0.0000 C   0  0  0  0  0  0  0  0  0  0  0  0
    6.3158   -3.9106    0.0000 C   0  0  0  0  0  0  0  0  0  0  0  0
    7.5796   -2.9363    0.0000 C   0  0  0  0  0  0  0  0  0  0  0  0
    7.3460   -4.4180    0.0000 C   0  0  0  0  0  0  0  0  0  0  0  0
    8.5512   -3.5251    0.0000 C   0  0  0  0  0  0  0  0  0  0  0  0
   10.0008   -3.9106    0.0000 C   0  0  0  0  0  0  0  0  0  0  0  0
   10.6032   -5.2843    0.0000 C   0  0  0  0  0  0  0  0  0  0  0  0
    9.9048   -6.6118    0.0000 C   0  0  0  0  0  0  0  0  0  0  0  0
    8.4314   -6.8934    0.0000 C   0  0  0  0  0  0  0  0  0  0  0  0
    7.2927   -5.9171    0.0000 C   0  0  0  0  0  0  0  0  0  0  0  0
  1  2  1  0
  2  3  1  0
  3  4  1  0
  4  5  1  0
  5  6  1  0
  6  7  1  0
  7  8  1  0
  8  9  1  0
  9 10  1  0
 10 11  1  0
 11 12  1  0
 12 13  1  0
 13 14  1  0
 14 15  1  0
 15 16  1  0
 16 17  1  0
 17 18  1  0
 18 19  1  0
 19 20  1  0
 20 21  1  0
 21 22  1  0
 22 23  1  0
 23 24  1  0
 24 25  1  0
 25 26  1  0
 26 27  1  0
 27 28  1  0
 28 29  1  0
 29 30  1  0
 30 31  1  0
 31 32  1  0
 32 33  1  0
 33 34  1  0
 34 35  1  0
 35 36  1  0
 36 37  1  0
 37 38  1  0
 38 39  1  0
 39 40  1  0
 40 41  1  0
 41 42  1  0
 42 43  1  0
 43 44  1  0
 44 45  1  0
 45 46  1  0
 46 47  1  0
 47 48  1  0
 48 49  1  0
 49 50  1  0
 50 51  1  0
 51 52  1  0
 52 53  2  0
 53 54  1  0
 54 55  2  0
 55 56  1  0
 56 57  2  0
 57 58  1  0
 58 59  2  0
 59 60  1  0
 60 61  2  0
 61 62  1  0
 62 63  2  0
 63 64  1  0
 64 65  2  0
 65 66  1  0
 66 67  2  0
 67 68  1  0
 68 69  2  0
 69 70  1  0
 70 71  2  0
 71 72  1  0
 72 73  2  0
 73 74  1  0
 74 75  2  0
 75 76  1  0
 76 77  2  0
 77 78  1  0
 78 79  2  0
 79 80  1  0
 80 81  2  0
 81 82  1  0
 82 83  2  0
 83 84  1  0
 84 85  2  0
 85 86  1  0
 86 87  2  0
 87 88  2  0
 88 89  1  0
 89 90  2  0
 90  2  1  0
 83 50  1  0
 90 84  1  0
M  END
>  <Title>  (1098) 
idABOHgen13

$$$$

     RDKit          2D

  7  7  0  0  0  0  0  0  0  0999 V2000
    3.0000    0.0000    0.0000 C   0  0  0  0  0  0  0  0  0  0  0  0
    1.5000    0.0000    0.0000 C   0  0  0  0  0  0  0  0  0  0  0  0
    0.7500   -1.2990    0.0000 C   0  0  0  0  0  0  0  0  0  0  0  0
   -0.7500   -1.2990    0.0000 C   0  0  0  0  0  0  0  0  0  0  0  0
   -1.5000    0.0000    0.0000 C   0  0  0  0  0  0  0  0  0  0  0  0
   -0.7500    1.2990    0.0000 C   0  0  0  0  0  0  0  0  0  0  0  0
    0.7500    1.2990    0.0000 N   0  0  0  0  0  0  0  0  0  0  0  0
  1  2  1  0
  2  3  2  0
  3  4  1  0
  4  5  1  0
  5  6  2  0
  6  7  1  0
  7  2  1  0
M  END
>  <Title>  (1099) 
idABOIgen13

$$$$

     RDKit          2D

 43 48  0  0  0  0  0  0  0  0999 V2000
   -3.1771   -5.9156    0.0000 C   0  0  0  0  0  0  0  0  0  0  0  0
   -1.9635   -5.0339    0.0000 C   0  0  0  0  0  0  0  0  0  0  0  0
   -0.7500   -5.9156    0.0000 C   0  0  0  0  0  0  0  0  0  0  0  0
    0.7500   -5.9156    0.0000 C   0  0  0  0  0  0  0  0  0  0  0  0
    1.9635   -5.0339    0.0000 C   0  0  0  0  0  0  0  0  0  0  0  0
    2.4271   -3.6073    0.0000 C   0  0  0  0  0  0  0  0  0  0  0  0
    1.9635   -2.1807    0.0000 C   0  0  0  0  0  0  0  0  0  0  0  0
    3.1771   -1.2990    0.0000 C   0  0  0  0  0  0  0  0  0  0  0  0
    3.0203    0.1927    0.0000 O   0  0  0  0  0  0  0  0  0  0  0  0
    4.5474   -1.9091    0.0000 N   0  0  0  0  0  0  0  0  0  0  0  0
    5.7609   -1.0275    0.0000 C   0  0  0  0  0  0  0  0  0  0  0  0
    5.7609    0.4725    0.0000 N   0  0  0  0  0  0  0  0  0  0  0  0
    7.1875    0.9361    0.0000 N   0  0  0  0  0  0  0  0  0  0  0  0
    8.0692   -0.2775    0.0000 N   0  0  0  0  0  0  0  0  0  0  0  0
    7.1875   -1.4910    0.0000 N   0  0  0  0  0  0  0  0  0  0  0  0
    7.6510   -2.9176    0.0000 C   0  0  0  0  0  0  0  0  0  0  0  0
    9.0776   -3.3811    0.0000 C   0  0  0  0  0  0  0  0  0  0  0  0
    9.0776   -4.8811    0.0000 C   0  0  0  0  0  0  0  0  0  0  0  0
    7.6510   -5.3446    0.0000 C   0  0  0  0  0  0  0  0  0  0  0  0
    7.1875   -6.7712    0.0000 O   0  0  0  0  0  0  0  0  0  0  0  0
    5.7203   -7.0831    0.0000 C   0  0  0  0  0  0  0  0  0  0  0  0
    4.7166   -5.9684    0.0000 O   0  0  0  0  0  0  0  0  0  0  0  0
    5.2567   -8.5097    0.0000 N   0  0  0  0  0  0  0  0  0  0  0  0
    3.7895   -8.8215    0.0000 C   0  0  0  0  0  0  0  0  0  0  0  0
    2.7858   -7.7068    0.0000 N   0  0  0  0  0  0  0  0  0  0  0  0
    1.3186   -8.0187    0.0000 N   0  0  0  0  0  0  0  0  0  0  0  0
    0.8551   -9.4453    0.0000 N   0  0  0  0  0  0  0  0  0  0  0  0
    1.8588  -10.5600    0.0000 N   0  0  0  0  0  0  0  0  0  0  0  0
    3.3260  -10.2481    0.0000 N   0  0  0  0  0  0  0  0  0  0  0  0
    6.7693   -4.1311    0.0000 C   0  0  0  0  0  0  0  0  0  0  0  0
    5.2693   -4.1311    0.0000 O   0  0  0  0  0  0  0  0  0  0  0  0
    0.7500   -1.2990    0.0000 C   0  0  0  0  0  0  0  0  0  0  0  0
    1.5000    0.0000    0.0000 C   0  0  0  0  0  0  0  0  0  0  0  0
    0.7500    1.2990    0.0000 C   0  0  0  0  0  0  0  0  0  0  0  0
   -0.7500    1.2990    0.0000 C   0  0  0  0  0  0  0  0  0  0  0  0
   -1.5000    0.0000    0.0000 C   0  0  0  0  0  0  0  0  0  0  0  0
   -0.7500   -1.2990    0.0000 C   0  0  0  0  0  0  0  0  0  0  0  0
   -1.9635   -2.1807    0.0000 C   0  0  0  0  0  0  0  0  0  0  0  0
   -2.9672   -1.0660    0.0000 C   0  0  0  0  0  0  0  0  0  0  0  0
   -4.4344   -1.3779    0.0000 C   0  0  0  0  0  0  0  0  0  0  0  0
   -4.8980   -2.8045    0.0000 C   0  0  0  0  0  0  0  0  0  0  0  0
   -3.8943   -3.9192    0.0000 C   0  0  0  0  0  0  0  0  0  0  0  0
   -2.4271   -3.6073    0.0000 C   0  0  0  0  0  0  0  0  0  0  0  0
  1  2  1  0
  2  3  1  0
  3  4  2  0
  4  5  1  0
  5  6  1  0
  6  7  1  0
  7  8  1  0
  8  9  2  0
  8 10  1  0
 10 11  1  0
 11 12  2  0
 12 13  1  0
 13 14  2  0
 14 15  1  0
 15 16  1  0
 16 17  2  0
 17 18  1  0
 18 19  2  0
 19 20  1  0
 20 21  1  0
 21 22  2  0
 21 23  1  0
 23 24  1  0
 24 25  2  0
 25 26  1  0
 26 27  2  0
 27 28  1  0
 28 29  2  0
 19 30  1  0
 30 31  2  0
  7 32  1  0
 32 33  2  0
 33 34  1  0
 34 35  2  0
 35 36  1  0
 36 37  2  0
 37 38  1  0
 38 39  2  0
 39 40  1  0
 40 41  2  0
 41 42  1  0
 42 43  2  0
 43  2  1  0
 15 11  1  0
 30 16  1  0
 37 32  1  0
 43 38  1  0
 29 24  1  0
M  END
>  <Title>  (1100) 
idABOJgen13

$$$$

     RDKit          2D

 97 98  0  0  0  0  0  0  0  0999 V2000
   13.7460   -4.5677    0.0000 C   0  0  0  0  0  0  0  0  0  0  0  0
   14.5384   -4.4804    0.0000 C   0  0  0  0  0  0  0  0  0  0  0  0
   14.8321   -5.9514    0.0000 C   0  0  0  0  0  0  0  0  0  0  0  0
   15.3767   -7.3490    0.0000 C   0  0  0  0  0  0  0  0  0  0  0  0
   16.1558   -8.6308    0.0000 C   0  0  0  0  0  0  0  0  0  0  0  0
   17.1456   -9.7579    0.0000 C   0  0  0  0  0  0  0  0  0  0  0  0
   18.3161  -10.6959    0.0000 C   0  0  0  0  0  0  0  0  0  0  0  0
   19.6317  -11.4165    0.0000 C   0  0  0  0  0  0  0  0  0  0  0  0
   21.0524  -11.8977    0.0000 C   0  0  0  0  0  0  0  0  0  0  0  0
   22.5351  -12.1248    0.0000 C   0  0  0  0  0  0  0  0  0  0  0  0
   24.0347  -12.0910    0.0000 C   0  0  0  0  0  0  0  0  0  0  0  0
   25.5057  -11.7974    0.0000 C   0  0  0  0  0  0  0  0  0  0  0  0
   26.9033  -11.2527    0.0000 C   0  0  0  0  0  0  0  0  0  0  0  0
   28.1852  -10.4736    0.0000 C   0  0  0  0  0  0  0  0  0  0  0  0
   29.3122   -9.4838    0.0000 C   0  0  0  0  0  0  0  0  0  0  0  0
   30.2503   -8.3134    0.0000 C   0  0  0  0  0  0  0  0  0  0  0  0
   30.9708   -6.9978    0.0000 C   0  0  0  0  0  0  0  0  0  0  0  0
   31.4520   -5.5770    0.0000 C   0  0  0  0  0  0  0  0  0  0  0  0
   31.6791   -4.0943    0.0000 C   0  0  0  0  0  0  0  0  0  0  0  0
   31.6454   -2.5947    0.0000 C   0  0  0  0  0  0  0  0  0  0  0  0
   31.3517   -1.1237    0.0000 C   0  0  0  0  0  0  0  0  0  0  0  0
   30.8070    0.2739    0.0000 C   0  0  0  0  0  0  0  0  0  0  0  0
   30.0280    1.5557    0.0000 C   0  0  0  0  0  0  0  0  0  0  0  0
   29.0382    2.6828    0.0000 C   0  0  0  0  0  0  0  0  0  0  0  0
   27.8677    3.6208    0.0000 C   0  0  0  0  0  0  0  0  0  0  0  0
   26.5521    4.3414    0.0000 C   0  0  0  0  0  0  0  0  0  0  0  0
   25.1314    4.8226    0.0000 C   0  0  0  0  0  0  0  0  0  0  0  0
   23.6487    5.0497    0.0000 C   0  0  0  0  0  0  0  0  0  0  0  0
   22.1490    5.0159    0.0000 C   0  0  0  0  0  0  0  0  0  0  0  0
   20.6781    4.7223    0.0000 C   0  0  0  0  0  0  0  0  0  0  0  0
   19.2804    4.1776    0.0000 C   0  0  0  0  0  0  0  0  0  0  0  0
   17.9986    3.3986    0.0000 C   0  0  0  0  0  0  0  0  0  0  0  0
   16.8716    2.4087    0.0000 C   0  0  0  0  0  0  0  0  0  0  0  0
   15.9335    1.2383    0.0000 C   0  0  0  0  0  0  0  0  0  0  0  0
   15.2129   -0.0773    0.0000 C   0  0  0  0  0  0  0  0  0  0  0  0
   14.7318   -1.4981    0.0000 C   0  0  0  0  0  0  0  0  0  0  0  0
   14.1077   -0.0000    0.0000 C   0  0  0  0  0  0  0  0  0  0  0  0
   14.0354    1.4273    0.0000 C   0  0  0  0  0  0  0  0  0  0  0  0
   13.8190    2.8399    0.0000 C   0  0  0  0  0  0  0  0  0  0  0  0
   13.4608    4.2233    0.0000 C   0  0  0  0  0  0  0  0  0  0  0  0
   12.9644    5.5635    0.0000 C   0  0  0  0  0  0  0  0  0  0  0  0
   12.3351    6.8465    0.0000 C   0  0  0  0  0  0  0  0  0  0  0  0
   11.5791    8.0593    0.0000 C   0  0  0  0  0  0  0  0  0  0  0  0
   10.7044    9.1894    0.0000 C   0  0  0  0  0  0  0  0  0  0  0  0
    9.7198   10.2252    0.0000 C   0  0  0  0  0  0  0  0  0  0  0  0
    8.6354   11.1561    0.0000 C   0  0  0  0  0  0  0  0  0  0  0  0
    7.4625   11.9725    0.0000 C   0  0  0  0  0  0  0  0  0  0  0  0
    6.2130   12.6660    0.0000 C   0  0  0  0  0  0  0  0  0  0  0  0
    4.8997   13.2296    0.0000 C   0  0  0  0  0  0  0  0  0  0  0  0
    3.5361   13.6574    0.0000 C   0  0  0  0  0  0  0  0  0  0  0  0
    2.1363   13.9451    0.0000 C   0  0  0  0  0  0  0  0  0  0  0  0
    0.7145   14.0896    0.0000 C   0  0  0  0  0  0  0  0  0  0  0  0
   -0.7145   14.0896    0.0000 C   0  0  0  0  0  0  0  0  0  0  0  0
   -2.1363   13.9451    0.0000 C   0  0  0  0  0  0  0  0  0  0  0  0
   -3.5361   13.6574    0.0000 C   0  0  0  0  0  0  0  0  0  0  0  0
   -4.8997   13.2296    0.0000 C   0  0  0  0  0  0  0  0  0  0  0  0
   -6.2130   12.6660    0.0000 C   0  0  0  0  0  0  0  0  0  0  0  0
   -7.4625   11.9725    0.0000 C   0  0  0  0  0  0  0  0  0  0  0  0
   -8.6354   11.1561    0.0000 C   0  0  0  0  0  0  0  0  0  0  0  0
   -9.7198   10.2252    0.0000 C   0  0  0  0  0  0  0  0  0  0  0  0
  -10.7044    9.1894    0.0000 C   0  0  0  0  0  0  0  0  0  0  0  0
  -11.5791    8.0593    0.0000 C   0  0  0  0  0  0  0  0  0  0  0  0
  -12.3351    6.8465    0.0000 C   0  0  0  0  0  0  0  0  0  0  0  0
  -12.9644    5.5635    0.0000 C   0  0  0  0  0  0  0  0  0  0  0  0
  -13.4608    4.2233    0.0000 C   0  0  0  0  0  0  0  0  0  0  0  0
  -13.8190    2.8399    0.0000 C   0  0  0  0  0  0  0  0  0  0  0  0
  -14.0354    1.4273    0.0000 C   0  0  0  0  0  0  0  0  0  0  0  0
  -14.1077    0.0000    0.0000 C   0  0  0  0  0  0  0  0  0  0  0  0
  -14.0354   -1.4273    0.0000 C   0  0  0  0  0  0  0  0  0  0  0  0
  -13.8190   -2.8399    0.0000 C   0  0  0  0  0  0  0  0  0  0  0  0
  -13.4608   -4.2233    0.0000 C   0  0  0  0  0  0  0  0  0  0  0  0
  -12.9644   -5.5635    0.0000 C   0  0  0  0  0  0  0  0  0  0  0  0
  -12.3351   -6.8465    0.0000 C   0  0  0  0  0  0  0  0  0  0  0  0
  -11.5791   -8.0593    0.0000 C   0  0  0  0  0  0  0  0  0  0  0  0
  -10.7044   -9.1894    0.0000 C   0  0  0  0  0  0  0  0  0  0  0  0
   -9.7198  -10.2252    0.0000 C   0  0  0  0  0  0  0  0  0  0  0  0
   -8.6354  -11.1561    0.0000 C   0  0  0  0  0  0  0  0  0  0  0  0
   -7.4625  -11.9725    0.0000 C   0  0  0  0  0  0  0  0  0  0  0  0
   -6.2130  -12.6660    0.0000 C   0  0  0  0  0  0  0  0  0  0  0  0
   -4.8997  -13.2296    0.0000 C   0  0  0  0  0  0  0  0  0  0  0  0
   -3.5361  -13.6574    0.0000 C   0  0  0  0  0  0  0  0  0  0  0  0
   -2.1363  -13.9451    0.0000 C   0  0  0  0  0  0  0  0  0  0  0  0
   -0.7145  -14.0896    0.0000 C   0  0  0  0  0  0  0  0  0  0  0  0
    0.7145  -14.0896    0.0000 C   0  0  0  0  0  0  0  0  0  0  0  0
    2.1363  -13.9451    0.0000 C   0  0  0  0  0  0  0  0  0  0  0  0
    3.5361  -13.6574    0.0000 C   0  0  0  0  0  0  0  0  0  0  0  0
    4.8997  -13.2296    0.0000 C   0  0  0  0  0  0  0  0  0  0  0  0
    6.2130  -12.6660    0.0000 C   0  0  0  0  0  0  0  0  0  0  0  0
    7.4625  -11.9725    0.0000 C   0  0  0  0  0  0  0  0  0  0  0  0
    8.6354  -11.1561    0.0000 C   0  0  0  0  0  0  0  0  0  0  0  0
    9.7198  -10.2252    0.0000 C   0  0  0  0  0  0  0  0  0  0  0  0
   10.7044   -9.1894    0.0000 C   0  0  0  0  0  0  0  0  0  0  0  0
   11.5791   -8.0593    0.0000 C   0  0  0  0  0  0  0  0  0  0  0  0
   12.3351   -6.8465    0.0000 C   0  0  0  0  0  0  0  0  0  0  0  0
   12.9644   -5.5635    0.0000 C   0  0  0  0  0  0  0  0  0  0  0  0
   13.4608   -4.2233    0.0000 C   0  0  0  0  0  0  0  0  0  0  0  0
   14.5046   -2.9808    0.0000 C   0  0  0  0  0  0  0  0  0  0  0  0
  1  2  1  0
  2  3  1  0
  3  4  1  0
  4  5  1  0
  5  6  1  0
  6  7  1  0
  7  8  1  0
  8  9  1  0
  9 10  1  0
 10 11  1  0
 11 12  1  0
 12 13  1  0
 13 14  1  0
 14 15  1  0
 15 16  1  0
 16 17  1  0
 17 18  1  0
 18 19  1  0
 19 20  1  0
 20 21  1  0
 21 22  1  0
 22 23  1  0
 23 24  1  0
 24 25  1  0
 25 26  1  0
 26 27  1  0
 27 28  1  0
 28 29  1  0
 29 30  1  0
 30 31  1  0
 31 32  1  0
 32 33  1  0
 33 34  1  0
 34 35  1  0
 35 36  1  0
 36 37  1  0
 37 38  1  0
 38 39  1  0
 39 40  1  0
 40 41  1  0
 41 42  1  0
 42 43  1  0
 43 44  1  0
 44 45  1  0
 45 46  1  0
 46 47  1  0
 47 48  1  0
 48 49  1  0
 49 50  1  0
 50 51  1  0
 51 52  1  0
 52 53  1  0
 53 54  1  0
 54 55  1  0
 55 56  1  0
 56 57  1  0
 57 58  1  0
 58 59  1  0
 59 60  1  0
 60 61  1  0
 61 62  1  0
 62 63  1  0
 63 64  1  0
 64 65  1  0
 65 66  1  0
 66 67  1  0
 67 68  1  0
 68 69  2  0
 69 70  1  0
 70 71  2  0
 71 72  1  0
 72 73  2  0
 73 74  1  0
 74 75  2  0
 75 76  1  0
 76 77  2  0
 77 78  1  0
 78 79  2  0
 79 80  1  0
 80 81  2  0
 81 82  1  0
 82 83  2  0
 83 84  1  0
 84 85  2  0
 85 86  1  0
 86 87  2  0
 87 88  1  0
 88 89  2  0
 89 90  1  0
 90 91  2  0
 91 92  1  0
 92 93  2  0
 93 94  1  0
 94 95  2  0
 95 96  1  0
 96 97  2  0
 97  2  1  0
 97 36  1  0
M  END
>  <Title>  (1101) 
idABOKgen13

$$$$

     RDKit          2D

 18 19  0  0  0  0  0  0  0  0999 V2000
   -4.9023   -9.1838    0.0000 C   0  0  0  0  0  0  0  0  0  0  0  0
   -4.4388   -7.7572    0.0000 C   0  0  0  0  0  0  0  0  0  0  0  0
   -2.9716   -7.4453    0.0000 C   0  0  0  0  0  0  0  0  0  0  0  0
   -2.5081   -6.0187    0.0000 C   0  0  0  0  0  0  0  0  0  0  0  0
   -1.0409   -5.7068    0.0000 C   0  0  0  0  0  0  0  0  0  0  0  0
   -0.0372   -6.8216    0.0000 O   0  0  0  0  0  0  0  0  0  0  0  0
   -0.5773   -4.2803    0.0000 N   0  0  0  0  0  0  0  0  0  0  0  0
    0.8899   -3.9684    0.0000 C   0  0  0  0  0  0  0  0  0  0  0  0
    2.0046   -4.9721    0.0000 N   0  0  0  0  0  0  0  0  0  0  0  0
    3.3037   -4.2221    0.0000 N   0  0  0  0  0  0  0  0  0  0  0  0
    2.9918   -2.7549    0.0000 N   0  0  0  0  0  0  0  0  0  0  0  0
    1.5000   -2.5981    0.0000 N   0  0  0  0  0  0  0  0  0  0  0  0
    0.7500   -1.2990    0.0000 C   0  0  0  0  0  0  0  0  0  0  0  0
    1.5000    0.0000    0.0000 C   0  0  0  0  0  0  0  0  0  0  0  0
    0.7500    1.2990    0.0000 C   0  0  0  0  0  0  0  0  0  0  0  0
   -0.7500    1.2990    0.0000 C   0  0  0  0  0  0  0  0  0  0  0  0
   -1.5000    0.0000    0.0000 C   0  0  0  0  0  0  0  0  0  0  0  0
   -0.7500   -1.2990    0.0000 C   0  0  0  0  0  0  0  0  0  0  0  0
  1  2  2  0
  2  3  1  0
  3  4  1  0
  4  5  1  0
  5  6  2  0
  5  7  1  0
  7  8  1  0
  8  9  2  0
  9 10  1  0
 10 11  2  0
 11 12  1  0
 12 13  1  0
 13 14  2  0
 14 15  1  0
 15 16  1  0
 16 17  2  0
 17 18  1  0
 12  8  1  0
 18 13  1  0
M  END
>  <Title>  (1102) 
idABOLgen13

$$$$

     RDKit          2D

 17 18  0  0  0  0  0  0  0  0999 V2000
    8.0260    3.8971    0.0000 C   0  0  0  0  0  0  0  0  0  0  0  0
    7.2760    2.5981    0.0000 C   0  0  0  0  0  0  0  0  0  0  0  0
    5.7760    2.5981    0.0000 C   0  0  0  0  0  0  0  0  0  0  0  0
    5.0260    1.2990    0.0000 C   0  0  0  0  0  0  0  0  0  0  0  0
    3.5260    1.2990    0.0000 C   0  0  0  0  0  0  0  0  0  0  0  0
    2.7760    2.5981    0.0000 O   0  0  0  0  0  0  0  0  0  0  0  0
    2.7760    0.0000    0.0000 N   0  0  0  0  0  0  0  0  0  0  0  0
    1.2760    0.0000    0.0000 C   0  0  0  0  0  0  0  0  0  0  0  0
    0.3943    1.2135    0.0000 C   0  0  0  0  0  0  0  0  0  0  0  0
   -1.0323    0.7500    0.0000 C   0  0  0  0  0  0  0  0  0  0  0  0
   -1.0323   -0.7500    0.0000 N   0  0  0  0  0  0  0  0  0  0  0  0
    0.3943   -1.2135    0.0000 N   0  0  0  0  0  0  0  0  0  0  0  0
    0.8578   -2.6401    0.0000 C   0  0  0  0  0  0  0  0  0  0  0  0
   -0.0239   -3.8536    0.0000 C   0  0  0  0  0  0  0  0  0  0  0  0
    0.8578   -5.0672    0.0000 C   0  0  0  0  0  0  0  0  0  0  0  0
    2.2844   -4.6036    0.0000 C   0  0  0  0  0  0  0  0  0  0  0  0
    2.2844   -3.1036    0.0000 C   0  0  0  0  0  0  0  0  0  0  0  0
  1  2  2  0
  2  3  1  0
  3  4  1  0
  4  5  1  0
  5  6  2  0
  5  7  1  0
  7  8  1  0
  8  9  2  0
  9 10  1  0
 10 11  1  0
 11 12  1  0
 12 13  1  0
 13 14  2  0
 14 15  1  0
 15 16  1  0
 16 17  1  0
 12  8  1  0
 17 13  1  0
M  END
>  <Title>  (1103) 
idABOMgen13

$$$$

     RDKit          2D

  4  3  0  0  0  0  0  0  0  0999 V2000
    0.0000    0.0000    0.0000 C   0  0  0  0  0  0  0  0  0  0  0  0
    1.2990    0.7500    0.0000 C   0  0  0  0  0  0  0  0  0  0  0  0
    2.5981   -0.0000    0.0000 C   0  0  0  0  0  0  0  0  0  0  0  0
    3.8971    0.7500    0.0000 C   0  0  0  0  0  0  0  0  0  0  0  0
  1  2  1  0
  2  3  2  3
  3  4  1  0
M  END
>  <Title>  (1104) 
idABONgen13

$$$$

     RDKit          2D

 26 25  0  0  0  0  0  0  0  0999 V2000
    0.0000    0.0000    0.0000 C   0  0  0  0  0  0  0  0  0  0  0  0
   -0.0000   -1.5000    0.0000 C   0  0  0  0  0  0  0  0  0  0  0  0
   -0.0000   -3.0000    0.0000 C   0  0  0  0  0  0  0  0  0  0  0  0
   -0.0000   -4.5000    0.0000 C   0  0  0  0  0  0  0  0  0  0  0  0
   -0.0000   -6.0000    0.0000 C   0  0  0  0  0  0  0  0  0  0  0  0
   -0.0000   -7.5000    0.0000 C   0  0  0  0  0  0  0  0  0  0  0  0
   -0.0000   -9.0000    0.0000 C   0  0  0  0  0  0  0  0  0  0  0  0
   -0.0000  -10.5000    0.0000 C   0  0  0  0  0  0  0  0  0  0  0  0
   -0.0000  -12.0000    0.0000 C   0  0  0  0  0  0  0  0  0  0  0  0
   -0.0000  -13.5000    0.0000 C   0  0  0  0  0  0  0  0  0  0  0  0
   -0.0000  -15.0000    0.0000 C   0  0  0  0  0  0  0  0  0  0  0  0
   -0.0000  -16.5000    0.0000 C   0  0  0  0  0  0  0  0  0  0  0  0
   -0.0000  -18.0000    0.0000 C   0  0  0  0  0  0  0  0  0  0  0  0
   -0.0000  -19.5000    0.0000 C   0  0  0  0  0  0  0  0  0  0  0  0
   -0.0000  -21.0000    0.0000 C   0  0  0  0  0  0  0  0  0  0  0  0
   -0.0000  -22.5000    0.0000 C   0  0  0  0  0  0  0  0  0  0  0  0
   -0.0000  -24.0000    0.0000 C   0  0  0  0  0  0  0  0  0  0  0  0
   -0.0000  -25.5000    0.0000 C   0  0  0  0  0  0  0  0  0  0  0  0
   -0.0000  -27.0000    0.0000 C   0  0  0  0  0  0  0  0  0  0  0  0
   -0.0000  -28.5000    0.0000 C   0  0  0  0  0  0  0  0  0  0  0  0
   -0.0000  -30.0000    0.0000 C   0  0  0  0  0  0  0  0  0  0  0  0
   -0.0000  -31.5000    0.0000 C   0  0  0  0  0  0  0  0  0  0  0  0
   -0.0000  -33.0000    0.0000 C   0  0  0  0  0  0  0  0  0  0  0  0
    1.2990  -33.7500    0.0000 C   0  0  0  0  0  0  0  0  0  0  0  0
    1.2990  -35.2500    0.0000 C   0  0  0  0  0  0  0  0  0  0  0  0
    1.2990  -36.7500    0.0000 C   0  0  0  0  0  0  0  0  0  0  0  0
  1  2  3  0
  2  3  1  0
  3  4  3  0
  4  5  1  0
  5  6  3  0
  6  7  1  0
  7  8  3  0
  8  9  1  0
  9 10  3  0
 10 11  1  0
 11 12  3  0
 12 13  1  0
 13 14  3  0
 14 15  1  0
 15 16  3  0
 16 17  1  0
 17 18  3  0
 18 19  1  0
 19 20  3  0
 20 21  1  0
 21 22  3  0
 22 23  1  0
 23 24  2  3
 24 25  1  0
 25 26  3  0
M  END
>  <Title>  (1105) 
idABOOgen13

$$$$

     RDKit          2D

 53 60  0  0  0  0  0  0  0  0999 V2000
    2.1535   -8.4451    0.0000 C   0  0  0  0  0  0  0  0  0  0  0  0
    1.4564   -7.1169    0.0000 C   0  0  0  0  0  0  0  0  0  0  0  0
    2.5792   -6.1222    0.0000 C   0  0  0  0  0  0  0  0  0  0  0  0
    3.1111   -4.7197    0.0000 C   0  0  0  0  0  0  0  0  0  0  0  0
    2.9303   -3.2306    0.0000 C   0  0  0  0  0  0  0  0  0  0  0  0
    2.0782   -1.9961    0.0000 C   0  0  0  0  0  0  0  0  0  0  0  0
    3.0729   -0.8734    0.0000 C   0  0  0  0  0  0  0  0  0  0  0  0
    2.5979    0.5494    0.0000 O   0  0  0  0  0  0  0  0  0  0  0  0
    4.5426   -1.1734    0.0000 N   0  0  0  0  0  0  0  0  0  0  0  0
    5.5372   -0.0506    0.0000 C   0  0  0  0  0  0  0  0  0  0  0  0
    5.2136    1.4140    0.0000 N   0  0  0  0  0  0  0  0  0  0  0  0
    6.5065    2.1745    0.0000 N   0  0  0  0  0  0  0  0  0  0  0  0
    7.6293    1.1798    0.0000 N   0  0  0  0  0  0  0  0  0  0  0  0
    7.0302   -0.1954    0.0000 N   0  0  0  0  0  0  0  0  0  0  0  0
    7.7907   -1.4884    0.0000 N   0  0  0  0  0  0  0  0  0  0  0  0
    9.2837   -1.6331    0.0000 C   0  0  0  0  0  0  0  0  0  0  0  0
    9.6073   -3.0978    0.0000 C   0  0  0  0  0  0  0  0  0  0  0  0
    8.3144   -3.8582    0.0000 N   0  0  0  0  0  0  0  0  0  0  0  0
    8.1696   -5.3512    0.0000 C   0  0  0  0  0  0  0  0  0  0  0  0
    9.3902   -6.2231    0.0000 O   0  0  0  0  0  0  0  0  0  0  0  0
    6.8043   -5.9723    0.0000 N   0  0  0  0  0  0  0  0  0  0  0  0
    6.6595   -7.4653    0.0000 C   0  0  0  0  0  0  0  0  0  0  0  0
    5.2941   -8.0865    0.0000 N   0  0  0  0  0  0  0  0  0  0  0  0
    5.1494   -9.5795    0.0000 N   0  0  0  0  0  0  0  0  0  0  0  0
    6.3700  -10.4513    0.0000 N   0  0  0  0  0  0  0  0  0  0  0  0
    7.7353   -9.8302    0.0000 N   0  0  0  0  0  0  0  0  0  0  0  0
    7.8801   -8.3372    0.0000 N   0  0  0  0  0  0  0  0  0  0  0  0
    7.1916   -2.8635    0.0000 C   0  0  0  0  0  0  0  0  0  0  0  0
    5.7270   -3.1872    0.0000 O   0  0  0  0  0  0  0  0  0  0  0  0
    0.7500   -1.2990    0.0000 C   0  0  0  0  0  0  0  0  0  0  0  0
    1.5000    0.0000    0.0000 C   0  0  0  0  0  0  0  0  0  0  0  0
    0.7500    1.2990    0.0000 C   0  0  0  0  0  0  0  0  0  0  0  0
   -0.7500    1.2990    0.0000 C   0  0  0  0  0  0  0  0  0  0  0  0
   -1.5000    0.0000    0.0000 C   0  0  0  0  0  0  0  0  0  0  0  0
   -0.7500   -1.2990    0.0000 C   0  0  0  0  0  0  0  0  0  0  0  0
   -2.0782   -1.9961    0.0000 C   0  0  0  0  0  0  0  0  0  0  0  0
   -2.7212   -0.6409    0.0000 C   0  0  0  0  0  0  0  0  0  0  0  0
   -4.2164   -0.5202    0.0000 C   0  0  0  0  0  0  0  0  0  0  0  0
   -5.0685   -1.7547    0.0000 C   0  0  0  0  0  0  0  0  0  0  0  0
   -4.4254   -3.1099    0.0000 C   0  0  0  0  0  0  0  0  0  0  0  0
   -2.9303   -3.2306    0.0000 C   0  0  0  0  0  0  0  0  0  0  0  0
   -3.1111   -4.7197    0.0000 C   0  0  0  0  0  0  0  0  0  0  0  0
   -4.5917   -4.4790    0.0000 C   0  0  0  0  0  0  0  0  0  0  0  0
   -5.5403   -5.6410    0.0000 C   0  0  0  0  0  0  0  0  0  0  0  0
   -5.0084   -7.0435    0.0000 C   0  0  0  0  0  0  0  0  0  0  0  0
   -3.5278   -7.2841    0.0000 C   0  0  0  0  0  0  0  0  0  0  0  0
   -2.5792   -6.1222    0.0000 C   0  0  0  0  0  0  0  0  0  0  0  0
   -1.4564   -7.1169    0.0000 C   0  0  0  0  0  0  0  0  0  0  0  0
   -2.4955   -8.1987    0.0000 C   0  0  0  0  0  0  0  0  0  0  0  0
   -2.0782   -9.6395    0.0000 C   0  0  0  0  0  0  0  0  0  0  0  0
   -0.6218   -9.9984    0.0000 C   0  0  0  0  0  0  0  0  0  0  0  0
    0.4173   -8.9166    0.0000 C   0  0  0  0  0  0  0  0  0  0  0  0
   -0.0000   -7.4758    0.0000 C   0  0  0  0  0  0  0  0  0  0  0  0
  1  2  1  0
  2  3  1  0
  3  4  2  0
  4  5  1  0
  5  6  1  0
  6  7  1  0
  7  8  2  0
  7  9  1  0
  9 10  1  0
 10 11  2  0
 11 12  1  0
 12 13  2  0
 13 14  1  0
 14 15  1  0
 15 16  1  0
 16 17  1  0
 17 18  1  0
 18 19  1  0
 19 20  2  0
 19 21  1  0
 21 22  1  0
 22 23  2  0
 23 24  1  0
 24 25  2  0
 25 26  1  0
 26 27  2  0
 18 28  1  0
 28 29  2  0
  6 30  1  0
 30 31  2  0
 31 32  1  0
 32 33  2  0
 33 34  1  0
 34 35  2  0
 35 36  1  0
 36 37  2  0
 37 38  1  0
 38 39  2  0
 39 40  1  0
 40 41  2  0
 41 42  1  0
 42 43  2  0
 43 44  1  0
 44 45  2  0
 45 46  1  0
 46 47  2  0
 47 48  1  0
 48 49  2  0
 49 50  1  0
 50 51  2  0
 51 52  1  0
 52 53  2  0
 53  2  1  0
 14 10  1  0
 28 15  1  0
 35 30  1  0
 41 36  1  0
 47 42  1  0
 53 48  1  0
 27 22  1  0
M  END
>  <Title>  (1106) 
idABOPgen13

$$$$

     RDKit          2D

 88 92  0  0  0  0  0  0  0  0999 V2000
   -8.6320   -1.8949    0.0000 C   0  0  0  0  0  0  0  0  0  0  0  0
   -7.9394   -3.2254    0.0000 C   0  0  0  0  0  0  0  0  0  0  0  0
   -9.2384   -3.9754    0.0000 C   0  0  0  0  0  0  0  0  0  0  0  0
  -10.4672   -4.8358    0.0000 C   0  0  0  0  0  0  0  0  0  0  0  0
  -11.6162   -5.8000    0.0000 C   0  0  0  0  0  0  0  0  0  0  0  0
  -12.6769   -6.8606    0.0000 C   0  0  0  0  0  0  0  0  0  0  0  0
  -13.6411   -8.0097    0.0000 C   0  0  0  0  0  0  0  0  0  0  0  0
  -14.5014   -9.2384    0.0000 C   0  0  0  0  0  0  0  0  0  0  0  0
  -15.2514  -10.5375    0.0000 C   0  0  0  0  0  0  0  0  0  0  0  0
  -15.8854  -11.8969    0.0000 C   0  0  0  0  0  0  0  0  0  0  0  0
  -16.3984  -13.3065    0.0000 C   0  0  0  0  0  0  0  0  0  0  0  0
  -16.7866  -14.7554    0.0000 C   0  0  0  0  0  0  0  0  0  0  0  0
  -17.0471  -16.2326    0.0000 C   0  0  0  0  0  0  0  0  0  0  0  0
  -17.1778  -17.7269    0.0000 C   0  0  0  0  0  0  0  0  0  0  0  0
  -17.1778  -19.2269    0.0000 C   0  0  0  0  0  0  0  0  0  0  0  0
  -17.0471  -20.7212    0.0000 C   0  0  0  0  0  0  0  0  0  0  0  0
  -16.7866  -22.1984    0.0000 C   0  0  0  0  0  0  0  0  0  0  0  0
  -16.3984  -23.6473    0.0000 C   0  0  0  0  0  0  0  0  0  0  0  0
  -15.8854  -25.0568    0.0000 C   0  0  0  0  0  0  0  0  0  0  0  0
  -15.2514  -26.4163    0.0000 C   0  0  0  0  0  0  0  0  0  0  0  0
  -14.5014  -27.7153    0.0000 C   0  0  0  0  0  0  0  0  0  0  0  0
  -13.6411  -28.9440    0.0000 C   0  0  0  0  0  0  0  0  0  0  0  0
  -12.6769  -30.0931    0.0000 C   0  0  0  0  0  0  0  0  0  0  0  0
  -11.6162  -31.1537    0.0000 C   0  0  0  0  0  0  0  0  0  0  0  0
  -10.4672  -32.1179    0.0000 C   0  0  0  0  0  0  0  0  0  0  0  0
   -9.2384  -32.9783    0.0000 C   0  0  0  0  0  0  0  0  0  0  0  0
   -7.9394  -33.7283    0.0000 C   0  0  0  0  0  0  0  0  0  0  0  0
   -6.5799  -34.3622    0.0000 C   0  0  0  0  0  0  0  0  0  0  0  0
   -5.1704  -34.8753    0.0000 C   0  0  0  0  0  0  0  0  0  0  0  0
   -3.7215  -35.2635    0.0000 C   0  0  0  0  0  0  0  0  0  0  0  0
   -2.2443  -35.5240    0.0000 C   0  0  0  0  0  0  0  0  0  0  0  0
   -0.7500  -35.6547    0.0000 C   0  0  0  0  0  0  0  0  0  0  0  0
    0.7500  -35.6547    0.0000 C   0  0  0  0  0  0  0  0  0  0  0  0
    2.2443  -35.5240    0.0000 C   0  0  0  0  0  0  0  0  0  0  0  0
    3.7215  -35.2635    0.0000 C   0  0  0  0  0  0  0  0  0  0  0  0
    5.1704  -34.8753    0.0000 C   0  0  0  0  0  0  0  0  0  0  0  0
    6.5799  -34.3622    0.0000 C   0  0  0  0  0  0  0  0  0  0  0  0
    7.9394  -33.7283    0.0000 C   0  0  0  0  0  0  0  0  0  0  0  0
    9.2384  -32.9783    0.0000 C   0  0  0  0  0  0  0  0  0  0  0  0
   10.4672  -32.1179    0.0000 C   0  0  0  0  0  0  0  0  0  0  0  0
   11.6162  -31.1537    0.0000 C   0  0  0  0  0  0  0  0  0  0  0  0
   12.6769  -30.0931    0.0000 C   0  0  0  0  0  0  0  0  0  0  0  0
   13.6411  -28.9440    0.0000 C   0  0  0  0  0  0  0  0  0  0  0  0
   14.5014  -27.7153    0.0000 C   0  0  0  0  0  0  0  0  0  0  0  0
   15.2514  -26.4163    0.0000 C   0  0  0  0  0  0  0  0  0  0  0  0
   15.8854  -25.0568    0.0000 C   0  0  0  0  0  0  0  0  0  0  0  0
   16.3984  -23.6473    0.0000 C   0  0  0  0  0  0  0  0  0  0  0  0
   16.7866  -22.1984    0.0000 C   0  0  0  0  0  0  0  0  0  0  0  0
   17.0471  -20.7212    0.0000 C   0  0  0  0  0  0  0  0  0  0  0  0
   17.1778  -19.2269    0.0000 C   0  0  0  0  0  0  0  0  0  0  0  0
   17.1778  -17.7269    0.0000 C   0  0  0  0  0  0  0  0  0  0  0  0
   17.0471  -16.2326    0.0000 C   0  0  0  0  0  0  0  0  0  0  0  0
   16.7866  -14.7554    0.0000 C   0  0  0  0  0  0  0  0  0  0  0  0
   16.3984  -13.3065    0.0000 C   0  0  0  0  0  0  0  0  0  0  0  0
   15.8854  -11.8969    0.0000 C   0  0  0  0  0  0  0  0  0  0  0  0
   15.2514  -10.5375    0.0000 C   0  0  0  0  0  0  0  0  0  0  0  0
   14.5014   -9.2384    0.0000 C   0  0  0  0  0  0  0  0  0  0  0  0
   13.6411   -8.0097    0.0000 C   0  0  0  0  0  0  0  0  0  0  0  0
   12.6769   -6.8606    0.0000 C   0  0  0  0  0  0  0  0  0  0  0  0
   11.6162   -5.8000    0.0000 C   0  0  0  0  0  0  0  0  0  0  0  0
   10.4672   -4.8358    0.0000 C   0  0  0  0  0  0  0  0  0  0  0  0
    9.2384   -3.9754    0.0000 C   0  0  0  0  0  0  0  0  0  0  0  0
    7.9394   -3.2254    0.0000 C   0  0  0  0  0  0  0  0  0  0  0  0
    6.5799   -2.5915    0.0000 C   0  0  0  0  0  0  0  0  0  0  0  0
    5.1704   -2.0785    0.0000 C   0  0  0  0  0  0  0  0  0  0  0  0
    3.7215   -1.6902    0.0000 C   0  0  0  0  0  0  0  0  0  0  0  0
    3.9303   -3.1756    0.0000 C   0  0  0  0  0  0  0  0  0  0  0  0
    2.5821   -3.8332    0.0000 C   0  0  0  0  0  0  0  0  0  0  0  0
    1.5401   -2.7542    0.0000 C   0  0  0  0  0  0  0  0  0  0  0  0
    2.2443   -1.4298    0.0000 C   0  0  0  0  0  0  0  0  0  0  0  0
    0.7500   -1.2990    0.0000 C   0  0  0  0  0  0  0  0  0  0  0  0
    1.5000    0.0000    0.0000 C   0  0  0  0  0  0  0  0  0  0  0  0
    0.7500    1.2990    0.0000 C   0  0  0  0  0  0  0  0  0  0  0  0
   -0.7500    1.2990    0.0000 C   0  0  0  0  0  0  0  0  0  0  0  0
   -1.5000    0.0000    0.0000 C   0  0  0  0  0  0  0  0  0  0  0  0
   -0.7500   -1.2990    0.0000 C   0  0  0  0  0  0  0  0  0  0  0  0
   -2.2443   -1.4298    0.0000 C   0  0  0  0  0  0  0  0  0  0  0  0
   -1.2801   -2.5788    0.0000 C   0  0  0  0  0  0  0  0  0  0  0  0
   -1.7931   -3.9884    0.0000 C   0  0  0  0  0  0  0  0  0  0  0  0
   -3.2704   -4.2488    0.0000 C   0  0  0  0  0  0  0  0  0  0  0  0
   -4.2345   -3.0998    0.0000 C   0  0  0  0  0  0  0  0  0  0  0  0
   -3.7215   -1.6902    0.0000 C   0  0  0  0  0  0  0  0  0  0  0  0
   -5.1704   -2.0785    0.0000 C   0  0  0  0  0  0  0  0  0  0  0  0
   -4.9099   -0.6013    0.0000 C   0  0  0  0  0  0  0  0  0  0  0  0
   -6.0590    0.3629    0.0000 C   0  0  0  0  0  0  0  0  0  0  0  0
   -7.4685   -0.1501    0.0000 C   0  0  0  0  0  0  0  0  0  0  0  0
   -7.7290   -1.6273    0.0000 C   0  0  0  0  0  0  0  0  0  0  0  0
   -6.5799   -2.5915    0.0000 C   0  0  0  0  0  0  0  0  0  0  0  0
  1  2  1  0
  2  3  1  0
  3  4  1  0
  4  5  1  0
  5  6  1  0
  6  7  1  0
  7  8  1  0
  8  9  1  0
  9 10  1  0
 10 11  1  0
 11 12  1  0
 12 13  1  0
 13 14  1  0
 14 15  1  0
 15 16  1  0
 16 17  1  0
 17 18  1  0
 18 19  1  0
 19 20  1  0
 20 21  1  0
 21 22  1  0
 22 23  1  0
 23 24  1  0
 24 25  1  0
 25 26  1  0
 26 27  1  0
 27 28  1  0
 28 29  1  0
 29 30  1  0
 30 31  1  0
 31 32  1  0
 32 33  1  0
 33 34  2  0
 34 35  1  0
 35 36  2  0
 36 37  1  0
 37 38  2  0
 38 39  1  0
 39 40  2  0
 40 41  1  0
 41 42  2  0
 42 43  1  0
 43 44  2  0
 44 45  1  0
 45 46  2  0
 46 47  1  0
 47 48  2  0
 48 49  1  0
 49 50  2  0
 50 51  1  0
 51 52  2  0
 52 53  1  0
 53 54  2  0
 54 55  1  0
 55 56  2  0
 56 57  1  0
 57 58  2  0
 58 59  1  0
 59 60  2  0
 60 61  1  0
 61 62  2  0
 62 63  1  0
 63 64  2  0
 64 65  1  0
 65 66  2  0
 66 67  1  0
 67 68  2  0
 68 69  1  0
 69 70  2  0
 70 71  1  0
 71 72  2  0
 72 73  1  0
 73 74  2  0
 74 75  1  0
 75 76  2  0
 76 77  1  0
 77 78  2  0
 78 79  1  0
 79 80  2  0
 80 81  1  0
 81 82  2  0
 82 83  1  0
 83 84  2  0
 84 85  1  0
 85 86  2  0
 86 87  1  0
 87 88  2  0
 88  2  1  0
 70 66  1  0
 76 71  1  0
 82 77  1  0
 88 83  1  0
M  END
>  <Title>  (1107) 
idABOQgen13

$$$$

     RDKit          2D

 90 91  0  0  0  0  0  0  0  0999 V2000
   -2.1842   -1.0769    0.0000 C   0  0  0  0  0  0  0  0  0  0  0  0
   -2.4889    0.3918    0.0000 C   0  0  0  0  0  0  0  0  0  0  0  0
   -3.9678    0.1410    0.0000 C   0  0  0  0  0  0  0  0  0  0  0  0
   -5.4610   -0.0013    0.0000 C   0  0  0  0  0  0  0  0  0  0  0  0
   -6.9607   -0.0342    0.0000 C   0  0  0  0  0  0  0  0  0  0  0  0
   -8.4587    0.0425    0.0000 C   0  0  0  0  0  0  0  0  0  0  0  0
   -9.9471    0.2283    0.0000 C   0  0  0  0  0  0  0  0  0  0  0  0
  -11.4180    0.5223    0.0000 C   0  0  0  0  0  0  0  0  0  0  0  0
  -12.8636    0.9229    0.0000 C   0  0  0  0  0  0  0  0  0  0  0  0
  -14.2760    1.4279    0.0000 C   0  0  0  0  0  0  0  0  0  0  0  0
  -15.6478    2.0347    0.0000 C   0  0  0  0  0  0  0  0  0  0  0  0
  -16.9717    2.7400    0.0000 C   0  0  0  0  0  0  0  0  0  0  0  0
  -18.2405    3.5400    0.0000 C   0  0  0  0  0  0  0  0  0  0  0  0
  -19.4475    4.4305    0.0000 C   0  0  0  0  0  0  0  0  0  0  0  0
  -20.5864    5.4068    0.0000 C   0  0  0  0  0  0  0  0  0  0  0  0
  -21.6509    6.4635    0.0000 C   0  0  0  0  0  0  0  0  0  0  0  0
  -22.6354    7.5952    0.0000 C   0  0  0  0  0  0  0  0  0  0  0  0
  -23.5348    8.7957    0.0000 C   0  0  0  0  0  0  0  0  0  0  0  0
  -24.3440   10.0587    0.0000 C   0  0  0  0  0  0  0  0  0  0  0  0
  -25.0590   11.3773    0.0000 C   0  0  0  0  0  0  0  0  0  0  0  0
  -25.6758   12.7447    0.0000 C   0  0  0  0  0  0  0  0  0  0  0  0
  -26.1911   14.1534    0.0000 C   0  0  0  0  0  0  0  0  0  0  0  0
  -26.6022   15.5959    0.0000 C   0  0  0  0  0  0  0  0  0  0  0  0
  -26.9069   17.0647    0.0000 C   0  0  0  0  0  0  0  0  0  0  0  0
  -27.1036   18.5517    0.0000 C   0  0  0  0  0  0  0  0  0  0  0  0
  -27.1912   20.0491    0.0000 C   0  0  0  0  0  0  0  0  0  0  0  0
  -27.1693   21.5490    0.0000 C   0  0  0  0  0  0  0  0  0  0  0  0
  -27.0380   23.0432    0.0000 C   0  0  0  0  0  0  0  0  0  0  0  0
  -26.7979   24.5239    0.0000 C   0  0  0  0  0  0  0  0  0  0  0  0
  -26.4504   25.9831    0.0000 C   0  0  0  0  0  0  0  0  0  0  0  0
  -25.9973   27.4130    0.0000 C   0  0  0  0  0  0  0  0  0  0  0  0
  -25.4410   28.8061    0.0000 C   0  0  0  0  0  0  0  0  0  0  0  0
  -24.7846   30.1548    0.0000 C   0  0  0  0  0  0  0  0  0  0  0  0
  -24.0314   31.4520    0.0000 C   0  0  0  0  0  0  0  0  0  0  0  0
  -23.1856   32.6908    0.0000 C   0  0  0  0  0  0  0  0  0  0  0  0
  -22.2516   33.8645    0.0000 C   0  0  0  0  0  0  0  0  0  0  0  0
  -21.2344   34.9669    0.0000 C   0  0  0  0  0  0  0  0  0  0  0  0
  -20.1394   35.9921    0.0000 C   0  0  0  0  0  0  0  0  0  0  0  0
  -18.9726   36.9347    0.0000 C   0  0  0  0  0  0  0  0  0  0  0  0
  -17.7400   37.7895    0.0000 C   0  0  0  0  0  0  0  0  0  0  0  0
  -16.4483   38.5522    0.0000 C   0  0  0  0  0  0  0  0  0  0  0  0
  -15.1044   39.2185    0.0000 C   0  0  0  0  0  0  0  0  0  0  0  0
  -13.7155   39.7849    0.0000 C   0  0  0  0  0  0  0  0  0  0  0  0
  -12.2889   40.2484    0.0000 C   0  0  0  0  0  0  0  0  0  0  0  0
  -10.8323   40.6066    0.0000 C   0  0  0  0  0  0  0  0  0  0  0  0
   -9.3534   40.8574    0.0000 C   0  0  0  0  0  0  0  0  0  0  0  0
   -7.8602   40.9997    0.0000 C   0  0  0  0  0  0  0  0  0  0  0  0
   -6.3605   41.0326    0.0000 C   0  0  0  0  0  0  0  0  0  0  0  0
   -4.8625   40.9559    0.0000 C   0  0  0  0  0  0  0  0  0  0  0  0
   -3.3741   40.7701    0.0000 C   0  0  0  0  0  0  0  0  0  0  0  0
   -1.9031   40.4761    0.0000 C   0  0  0  0  0  0  0  0  0  0  0  0
   -0.4576   40.0755    0.0000 C   0  0  0  0  0  0  0  0  0  0  0  0
    0.9548   39.5705    0.0000 C   0  0  0  0  0  0  0  0  0  0  0  0
    2.3266   38.9637    0.0000 C   0  0  0  0  0  0  0  0  0  0  0  0
    3.6505   38.2585    0.0000 C   0  0  0  0  0  0  0  0  0  0  0  0
    4.9193   37.4584    0.0000 C   0  0  0  0  0  0  0  0  0  0  0  0
    6.1263   36.5679    0.0000 C   0  0  0  0  0  0  0  0  0  0  0  0
    7.2652   35.5917    0.0000 C   0  0  0  0  0  0  0  0  0  0  0  0
    8.3297   34.5349    0.0000 C   0  0  0  0  0  0  0  0  0  0  0  0
    9.3143   33.4032    0.0000 C   0  0  0  0  0  0  0  0  0  0  0  0
   10.2136   32.2027    0.0000 C   0  0  0  0  0  0  0  0  0  0  0  0
   11.0229   30.9397    0.0000 C   0  0  0  0  0  0  0  0  0  0  0  0
   11.7378   29.6211    0.0000 C   0  0  0  0  0  0  0  0  0  0  0  0
   12.3546   28.2537    0.0000 C   0  0  0  0  0  0  0  0  0  0  0  0
   12.8699   26.8450    0.0000 C   0  0  0  0  0  0  0  0  0  0  0  0
   13.2810   25.4025    0.0000 C   0  0  0  0  0  0  0  0  0  0  0  0
   13.5857   23.9338    0.0000 C   0  0  0  0  0  0  0  0  0  0  0  0
   13.7824   22.4467    0.0000 C   0  0  0  0  0  0  0  0  0  0  0  0
   13.8700   20.9493    0.0000 C   0  0  0  0  0  0  0  0  0  0  0  0
   13.8481   19.4494    0.0000 C   0  0  0  0  0  0  0  0  0  0  0  0
   13.7168   17.9552    0.0000 C   0  0  0  0  0  0  0  0  0  0  0  0
   13.4767   16.4745    0.0000 C   0  0  0  0  0  0  0  0  0  0  0  0
   13.1292   15.0153    0.0000 C   0  0  0  0  0  0  0  0  0  0  0  0
   12.6761   13.5854    0.0000 C   0  0  0  0  0  0  0  0  0  0  0  0
   12.1199   12.1924    0.0000 C   0  0  0  0  0  0  0  0  0  0  0  0
   11.4634   10.8436    0.0000 C   0  0  0  0  0  0  0  0  0  0  0  0
   10.7102    9.5464    0.0000 C   0  0  0  0  0  0  0  0  0  0  0  0
    9.8644    8.3077    0.0000 C   0  0  0  0  0  0  0  0  0  0  0  0
    8.9304    7.1339    0.0000 C   0  0  0  0  0  0  0  0  0  0  0  0
    7.9132    6.0315    0.0000 C   0  0  0  0  0  0  0  0  0  0  0  0
    6.8182    5.0063    0.0000 C   0  0  0  0  0  0  0  0  0  0  0  0
    5.6514    4.0637    0.0000 C   0  0  0  0  0  0  0  0  0  0  0  0
    4.4188    3.2089    0.0000 C   0  0  0  0  0  0  0  0  0  0  0  0
    3.1271    2.4462    0.0000 C   0  0  0  0  0  0  0  0  0  0  0  0
    1.7832    1.7799    0.0000 C   0  0  0  0  0  0  0  0  0  0  0  0
    0.3943    1.2135    0.0000 C   0  0  0  0  0  0  0  0  0  0  0  0
    1.2760    0.0000    0.0000 C   0  0  0  0  0  0  0  0  0  0  0  0
    0.3943   -1.2135    0.0000 C   0  0  0  0  0  0  0  0  0  0  0  0
   -1.0323   -0.7500    0.0000 C   0  0  0  0  0  0  0  0  0  0  0  0
   -1.0323    0.7500    0.0000 C   0  0  0  0  0  0  0  0  0  0  0  0
  1  2  1  0
  2  3  1  0
  3  4  1  0
  4  5  1  0
  5  6  1  0
  6  7  1  0
  7  8  1  0
  8  9  1  0
  9 10  1  0
 10 11  1  0
 11 12  1  0
 12 13  1  0
 13 14  1  0
 14 15  1  0
 15 16  1  0
 16 17  1  0
 17 18  1  0
 18 19  1  0
 19 20  1  0
 20 21  1  0
 21 22  1  0
 22 23  1  0
 23 24  1  0
 24 25  1  0
 25 26  1  0
 26 27  1  0
 27 28  1  0
 28 29  1  0
 29 30  1  0
 30 31  1  0
 31 32  1  0
 32 33  1  0
 33 34  1  0
 34 35  1  0
 35 36  1  0
 36 37  1  0
 37 38  2  0
 38 39  1  0
 39 40  2  0
 40 41  1  0
 41 42  2  0
 42 43  1  0
 43 44  2  0
 44 45  1  0
 45 46  2  0
 46 47  1  0
 47 48  2  0
 48 49  1  0
 49 50  2  0
 50 51  1  0
 51 52  2  0
 52 53  1  0
 53 54  2  0
 54 55  1  0
 55 56  2  0
 56 57  1  0
 57 58  2  0
 58 59  1  0
 59 60  2  0
 60 61  1  0
 61 62  2  0
 62 63  1  0
 63 64  2  0
 64 65  1  0
 65 66  2  0
 66 67  1  0
 67 68  2  0
 68 69  1  0
 69 70  2  0
 70 71  1  0
 71 72  2  0
 72 73  1  0
 73 74  2  0
 74 75  1  0
 75 76  2  0
 76 77  1  0
 77 78  2  0
 78 79  1  0
 79 80  2  0
 80 81  1  0
 81 82  2  0
 82 83  1  0
 83 84  2  0
 84 85  1  0
 85 86  2  0
 86 87  1  0
 87 88  2  0
 88 89  1  0
 89 90  2  0
 90  2  1  0
 90 86  1  0
M  END
>  <Title>  (1108) 
idABORgen13

$$$$

     RDKit          2D

  7  6  0  0  0  0  0  0  0  0999 V2000
    0.0000    0.0000    0.0000 C   0  0  0  0  0  0  0  0  0  0  0  0
    1.2990    0.7500    0.0000 C   0  0  0  0  0  0  0  0  0  0  0  0
    2.5981   -0.0000    0.0000 C   0  0  0  0  0  0  0  0  0  0  0  0
    3.8971    0.7500    0.0000 C   0  0  0  0  0  0  0  0  0  0  0  0
    5.1962   -0.0000    0.0000 C   0  0  0  0  0  0  0  0  0  0  0  0
    6.4952    0.7500    0.0000 C   0  0  0  0  0  0  0  0  0  0  0  0
    5.1962   -1.5000    0.0000 O   0  0  0  0  0  0  0  0  0  0  0  0
  1  2  1  0
  2  3  1  0
  3  4  1  0
  4  5  1  0
  5  6  1  0
  5  7  2  0
M  END
>  <Title>  (1109) 
idABOSgen13

$$$$

     RDKit          2D

 93 94  0  0  0  0  0  0  0  0999 V2000
   10.9294    3.8533    0.0000 C   0  0  0  0  0  0  0  0  0  0  0  0
   12.4064    3.5915    0.0000 C   0  0  0  0  0  0  0  0  0  0  0  0
   13.3716    4.7398    0.0000 C   0  0  0  0  0  0  0  0  0  0  0  0
   14.8486    4.4780    0.0000 C   0  0  0  0  0  0  0  0  0  0  0  0
   15.2685    5.9180    0.0000 C   0  0  0  0  0  0  0  0  0  0  0  0
   15.9881    7.2341    0.0000 C   0  0  0  0  0  0  0  0  0  0  0  0
   16.9738    8.3648    0.0000 C   0  0  0  0  0  0  0  0  0  0  0  0
   18.1796    9.2570    0.0000 C   0  0  0  0  0  0  0  0  0  0  0  0
   19.5490    9.8693    0.0000 C   0  0  0  0  0  0  0  0  0  0  0  0
   21.0179   10.1728    0.0000 C   0  0  0  0  0  0  0  0  0  0  0  0
   22.5178   10.1535    0.0000 C   0  0  0  0  0  0  0  0  0  0  0  0
   23.9785    9.8121    0.0000 C   0  0  0  0  0  0  0  0  0  0  0  0
   25.3316    9.1648    0.0000 C   0  0  0  0  0  0  0  0  0  0  0  0
   26.5139    8.2417    0.0000 C   0  0  0  0  0  0  0  0  0  0  0  0
   27.4702    7.0860    0.0000 C   0  0  0  0  0  0  0  0  0  0  0  0
   28.1556    5.7518    0.0000 C   0  0  0  0  0  0  0  0  0  0  0  0
   28.5383    4.3015    0.0000 C   0  0  0  0  0  0  0  0  0  0  0  0
   28.6001    2.8027    0.0000 C   0  0  0  0  0  0  0  0  0  0  0  0
   28.3384    1.3257    0.0000 C   0  0  0  0  0  0  0  0  0  0  0  0
   27.7653   -0.0604    0.0000 C   0  0  0  0  0  0  0  0  0  0  0  0
   26.9076   -1.2910    0.0000 C   0  0  0  0  0  0  0  0  0  0  0  0
   25.8053   -2.3084    0.0000 C   0  0  0  0  0  0  0  0  0  0  0  0
   24.5102   -3.0651    0.0000 C   0  0  0  0  0  0  0  0  0  0  0  0
   23.0827   -3.5257    0.0000 C   0  0  0  0  0  0  0  0  0  0  0  0
   21.5895   -3.6686    0.0000 C   0  0  0  0  0  0  0  0  0  0  0  0
   20.1005   -3.4873    0.0000 C   0  0  0  0  0  0  0  0  0  0  0  0
   18.6853   -2.9900    0.0000 C   0  0  0  0  0  0  0  0  0  0  0  0
   17.4101   -2.2002    0.0000 C   0  0  0  0  0  0  0  0  0  0  0  0
   16.3345   -1.1547    0.0000 C   0  0  0  0  0  0  0  0  0  0  0  0
   15.5088    0.0976    0.0000 C   0  0  0  0  0  0  0  0  0  0  0  0
   14.9716    1.4981    0.0000 C   0  0  0  0  0  0  0  0  0  0  0  0
   14.3464    0.0000    0.0000 C   0  0  0  0  0  0  0  0  0  0  0  0
   14.2751   -1.4284    0.0000 C   0  0  0  0  0  0  0  0  0  0  0  0
   14.0619   -2.8427    0.0000 C   0  0  0  0  0  0  0  0  0  0  0  0
   13.7090   -4.2287    0.0000 C   0  0  0  0  0  0  0  0  0  0  0  0
   13.2198   -5.5726    0.0000 C   0  0  0  0  0  0  0  0  0  0  0  0
   12.5993   -6.8612    0.0000 C   0  0  0  0  0  0  0  0  0  0  0  0
   11.8535   -8.0816    0.0000 C   0  0  0  0  0  0  0  0  0  0  0  0
   10.9900   -9.2217    0.0000 C   0  0  0  0  0  0  0  0  0  0  0  0
   10.0172  -10.2701    0.0000 C   0  0  0  0  0  0  0  0  0  0  0  0
    8.9448  -11.2164    0.0000 C   0  0  0  0  0  0  0  0  0  0  0  0
    7.7836  -12.0513    0.0000 C   0  0  0  0  0  0  0  0  0  0  0  0
    6.5450  -12.7664    0.0000 C   0  0  0  0  0  0  0  0  0  0  0  0
    5.2413  -13.3547    0.0000 C   0  0  0  0  0  0  0  0  0  0  0  0
    3.8856  -13.8102    0.0000 C   0  0  0  0  0  0  0  0  0  0  0  0
    2.4912  -14.1284    0.0000 C   0  0  0  0  0  0  0  0  0  0  0  0
    1.0721  -14.3063    0.0000 C   0  0  0  0  0  0  0  0  0  0  0  0
   -0.3577  -14.3419    0.0000 C   0  0  0  0  0  0  0  0  0  0  0  0
   -1.7839  -14.2350    0.0000 C   0  0  0  0  0  0  0  0  0  0  0  0
   -3.1924  -13.9867    0.0000 C   0  0  0  0  0  0  0  0  0  0  0  0
   -4.5691  -13.5993    0.0000 C   0  0  0  0  0  0  0  0  0  0  0  0
   -5.9005  -13.0768    0.0000 C   0  0  0  0  0  0  0  0  0  0  0  0
   -7.1732  -12.4243    0.0000 C   0  0  0  0  0  0  0  0  0  0  0  0
   -8.3746  -11.6484    0.0000 C   0  0  0  0  0  0  0  0  0  0  0  0
   -9.4928  -10.7566    0.0000 C   0  0  0  0  0  0  0  0  0  0  0  0
  -10.5166   -9.7580    0.0000 C   0  0  0  0  0  0  0  0  0  0  0  0
  -11.4360   -8.6624    0.0000 C   0  0  0  0  0  0  0  0  0  0  0  0
  -12.2416   -7.4807    0.0000 C   0  0  0  0  0  0  0  0  0  0  0  0
  -12.9256   -6.2247    0.0000 C   0  0  0  0  0  0  0  0  0  0  0  0
  -13.4812   -4.9068    0.0000 C   0  0  0  0  0  0  0  0  0  0  0  0
  -13.9027   -3.5401    0.0000 C   0  0  0  0  0  0  0  0  0  0  0  0
  -14.1861   -2.1382    0.0000 C   0  0  0  0  0  0  0  0  0  0  0  0
  -14.3285   -0.7151    0.0000 C   0  0  0  0  0  0  0  0  0  0  0  0
  -14.3285    0.7151    0.0000 C   0  0  0  0  0  0  0  0  0  0  0  0
  -14.1861    2.1382    0.0000 C   0  0  0  0  0  0  0  0  0  0  0  0
  -13.9027    3.5401    0.0000 C   0  0  0  0  0  0  0  0  0  0  0  0
  -13.4812    4.9068    0.0000 C   0  0  0  0  0  0  0  0  0  0  0  0
  -12.9256    6.2247    0.0000 C   0  0  0  0  0  0  0  0  0  0  0  0
  -12.2416    7.4807    0.0000 C   0  0  0  0  0  0  0  0  0  0  0  0
  -11.4360    8.6624    0.0000 C   0  0  0  0  0  0  0  0  0  0  0  0
  -10.5166    9.7580    0.0000 C   0  0  0  0  0  0  0  0  0  0  0  0
   -9.4928   10.7566    0.0000 C   0  0  0  0  0  0  0  0  0  0  0  0
   -8.3746   11.6484    0.0000 C   0  0  0  0  0  0  0  0  0  0  0  0
   -7.1732   12.4243    0.0000 C   0  0  0  0  0  0  0  0  0  0  0  0
   -5.9005   13.0768    0.0000 C   0  0  0  0  0  0  0  0  0  0  0  0
   -4.5691   13.5993    0.0000 C   0  0  0  0  0  0  0  0  0  0  0  0
   -3.1924   13.9867    0.0000 C   0  0  0  0  0  0  0  0  0  0  0  0
   -1.7839   14.2350    0.0000 C   0  0  0  0  0  0  0  0  0  0  0  0
   -0.3577   14.3419    0.0000 C   0  0  0  0  0  0  0  0  0  0  0  0
    1.0721   14.3063    0.0000 C   0  0  0  0  0  0  0  0  0  0  0  0
    2.4912   14.1284    0.0000 C   0  0  0  0  0  0  0  0  0  0  0  0
    3.8856   13.8102    0.0000 C   0  0  0  0  0  0  0  0  0  0  0  0
    5.2413   13.3547    0.0000 C   0  0  0  0  0  0  0  0  0  0  0  0
    6.5450   12.7664    0.0000 C   0  0  0  0  0  0  0  0  0  0  0  0
    7.7836   12.0513    0.0000 C   0  0  0  0  0  0  0  0  0  0  0  0
    8.9448   11.2164    0.0000 C   0  0  0  0  0  0  0  0  0  0  0  0
   10.0172   10.2701    0.0000 C   0  0  0  0  0  0  0  0  0  0  0  0
   10.9900    9.2217    0.0000 C   0  0  0  0  0  0  0  0  0  0  0  0
   11.8535    8.0816    0.0000 C   0  0  0  0  0  0  0  0  0  0  0  0
   12.5993    6.8612    0.0000 C   0  0  0  0  0  0  0  0  0  0  0  0
   13.2198    5.5726    0.0000 C   0  0  0  0  0  0  0  0  0  0  0  0
   13.7090    4.2287    0.0000 C   0  0  0  0  0  0  0  0  0  0  0  0
   14.7480    2.9814    0.0000 C   0  0  0  0  0  0  0  0  0  0  0  0
  1  2  1  0
  2  3  1  0
  3  4  1  0
  4  5  1  0
  5  6  1  0
  6  7  1  0
  7  8  1  0
  8  9  1  0
  9 10  1  0
 10 11  1  0
 11 12  1  0
 12 13  1  0
 13 14  1  0
 14 15  1  0
 15 16  1  0
 16 17  1  0
 17 18  1  0
 18 19  1  0
 19 20  1  0
 20 21  1  0
 21 22  1  0
 22 23  1  0
 23 24  1  0
 24 25  1  0
 25 26  1  0
 26 27  1  0
 27 28  1  0
 28 29  1  0
 29 30  1  0
 30 31  1  0
 31 32  1  0
 32 33  1  0
 33 34  1  0
 34 35  2  0
 35 36  1  0
 36 37  2  0
 37 38  1  0
 38 39  2  0
 39 40  1  0
 40 41  2  0
 41 42  1  0
 42 43  2  0
 43 44  1  0
 44 45  2  0
 45 46  1  0
 46 47  2  0
 47 48  1  0
 48 49  2  0
 49 50  1  0
 50 51  2  0
 51 52  1  0
 52 53  2  0
 53 54  1  0
 54 55  2  0
 55 56  1  0
 56 57  2  0
 57 58  1  0
 58 59  2  0
 59 60  1  0
 60 61  2  0
 61 62  1  0
 62 63  2  0
 63 64  1  0
 64 65  2  0
 65 66  1  0
 66 67  2  0
 67 68  1  0
 68 69  2  0
 69 70  1  0
 70 71  2  0
 71 72  1  0
 72 73  2  0
 73 74  1  0
 74 75  2  0
 75 76  1  0
 76 77  2  0
 77 78  1  0
 78 79  2  0
 79 80  1  0
 80 81  2  0
 81 82  1  0
 82 83  2  0
 83 84  1  0
 84 85  2  0
 85 86  1  0
 86 87  2  0
 87 88  1  0
 88 89  2  0
 89 90  1  0
 90 91  2  0
 91 92  1  0
 92 93  2  0
 93  4  1  0
 93 31  1  0
M  END
>  <Title>  (1110) 
idABOTgen13

$$$$

     RDKit          2D

104106  0  0  0  0  0  0  0  0999 V2000
   -2.3938    0.0956    0.0000 C   0  0  0  0  0  0  0  0  0  0  0  0
   -2.2468   -1.3971    0.0000 C   0  0  0  0  0  0  0  0  0  0  0  0
   -3.7340   -1.5929    0.0000 C   0  0  0  0  0  0  0  0  0  0  0  0
   -5.2051   -1.8856    0.0000 C   0  0  0  0  0  0  0  0  0  0  0  0
   -6.6540   -2.2738    0.0000 C   0  0  0  0  0  0  0  0  0  0  0  0
   -8.0744   -2.7560    0.0000 C   0  0  0  0  0  0  0  0  0  0  0  0
   -9.4602   -3.3300    0.0000 C   0  0  0  0  0  0  0  0  0  0  0  0
  -10.8055   -3.9934    0.0000 C   0  0  0  0  0  0  0  0  0  0  0  0
  -12.1046   -4.7434    0.0000 C   0  0  0  0  0  0  0  0  0  0  0  0
  -13.3518   -5.5768    0.0000 C   0  0  0  0  0  0  0  0  0  0  0  0
  -14.5418   -6.4899    0.0000 C   0  0  0  0  0  0  0  0  0  0  0  0
  -15.6696   -7.4789    0.0000 C   0  0  0  0  0  0  0  0  0  0  0  0
  -16.7302   -8.5396    0.0000 C   0  0  0  0  0  0  0  0  0  0  0  0
  -17.7193   -9.6673    0.0000 C   0  0  0  0  0  0  0  0  0  0  0  0
  -18.6324  -10.8574    0.0000 C   0  0  0  0  0  0  0  0  0  0  0  0
  -19.4658  -12.1046    0.0000 C   0  0  0  0  0  0  0  0  0  0  0  0
  -20.2158  -13.4036    0.0000 C   0  0  0  0  0  0  0  0  0  0  0  0
  -20.8792  -14.7489    0.0000 C   0  0  0  0  0  0  0  0  0  0  0  0
  -21.4532  -16.1348    0.0000 C   0  0  0  0  0  0  0  0  0  0  0  0
  -21.9354  -17.5551    0.0000 C   0  0  0  0  0  0  0  0  0  0  0  0
  -22.3236  -19.0040    0.0000 C   0  0  0  0  0  0  0  0  0  0  0  0
  -22.6162  -20.4752    0.0000 C   0  0  0  0  0  0  0  0  0  0  0  0
  -22.8120  -21.9624    0.0000 C   0  0  0  0  0  0  0  0  0  0  0  0
  -22.9101  -23.4592    0.0000 C   0  0  0  0  0  0  0  0  0  0  0  0
  -22.9101  -24.9592    0.0000 C   0  0  0  0  0  0  0  0  0  0  0  0
  -22.8120  -26.4560    0.0000 C   0  0  0  0  0  0  0  0  0  0  0  0
  -22.6162  -27.9431    0.0000 C   0  0  0  0  0  0  0  0  0  0  0  0
  -22.3236  -29.4143    0.0000 C   0  0  0  0  0  0  0  0  0  0  0  0
  -21.9354  -30.8632    0.0000 C   0  0  0  0  0  0  0  0  0  0  0  0
  -21.4532  -32.2836    0.0000 C   0  0  0  0  0  0  0  0  0  0  0  0
  -20.8792  -33.6694    0.0000 C   0  0  0  0  0  0  0  0  0  0  0  0
  -20.2158  -35.0147    0.0000 C   0  0  0  0  0  0  0  0  0  0  0  0
  -19.4658  -36.3138    0.0000 C   0  0  0  0  0  0  0  0  0  0  0  0
  -18.6324  -37.5610    0.0000 C   0  0  0  0  0  0  0  0  0  0  0  0
  -17.7193  -38.7510    0.0000 C   0  0  0  0  0  0  0  0  0  0  0  0
  -16.7302  -39.8787    0.0000 C   0  0  0  0  0  0  0  0  0  0  0  0
  -15.6696  -40.9394    0.0000 C   0  0  0  0  0  0  0  0  0  0  0  0
  -14.5418  -41.9284    0.0000 C   0  0  0  0  0  0  0  0  0  0  0  0
  -13.3518  -42.8416    0.0000 C   0  0  0  0  0  0  0  0  0  0  0  0
  -12.1046  -43.6749    0.0000 C   0  0  0  0  0  0  0  0  0  0  0  0
  -10.8055  -44.4249    0.0000 C   0  0  0  0  0  0  0  0  0  0  0  0
   -9.4602  -45.0884    0.0000 C   0  0  0  0  0  0  0  0  0  0  0  0
   -8.0744  -45.6624    0.0000 C   0  0  0  0  0  0  0  0  0  0  0  0
   -6.6540  -46.1445    0.0000 C   0  0  0  0  0  0  0  0  0  0  0  0
   -5.2051  -46.5328    0.0000 C   0  0  0  0  0  0  0  0  0  0  0  0
   -3.7340  -46.8254    0.0000 C   0  0  0  0  0  0  0  0  0  0  0  0
   -2.2468  -47.0212    0.0000 C   0  0  0  0  0  0  0  0  0  0  0  0
   -0.7500  -47.1193    0.0000 C   0  0  0  0  0  0  0  0  0  0  0  0
    0.7500  -47.1193    0.0000 C   0  0  0  0  0  0  0  0  0  0  0  0
    2.2468  -47.0212    0.0000 C   0  0  0  0  0  0  0  0  0  0  0  0
    3.7340  -46.8254    0.0000 C   0  0  0  0  0  0  0  0  0  0  0  0
    5.2051  -46.5328    0.0000 C   0  0  0  0  0  0  0  0  0  0  0  0
    6.6540  -46.1445    0.0000 C   0  0  0  0  0  0  0  0  0  0  0  0
    8.0744  -45.6624    0.0000 C   0  0  0  0  0  0  0  0  0  0  0  0
    9.4602  -45.0884    0.0000 C   0  0  0  0  0  0  0  0  0  0  0  0
   10.8055  -44.4249    0.0000 C   0  0  0  0  0  0  0  0  0  0  0  0
   12.1046  -43.6749    0.0000 C   0  0  0  0  0  0  0  0  0  0  0  0
   13.3518  -42.8416    0.0000 C   0  0  0  0  0  0  0  0  0  0  0  0
   14.5418  -41.9284    0.0000 C   0  0  0  0  0  0  0  0  0  0  0  0
   15.6696  -40.9394    0.0000 C   0  0  0  0  0  0  0  0  0  0  0  0
   16.7302  -39.8787    0.0000 C   0  0  0  0  0  0  0  0  0  0  0  0
   17.7193  -38.7510    0.0000 C   0  0  0  0  0  0  0  0  0  0  0  0
   18.6324  -37.5610    0.0000 C   0  0  0  0  0  0  0  0  0  0  0  0
   19.4658  -36.3138    0.0000 C   0  0  0  0  0  0  0  0  0  0  0  0
   20.2158  -35.0147    0.0000 C   0  0  0  0  0  0  0  0  0  0  0  0
   20.8792  -33.6694    0.0000 C   0  0  0  0  0  0  0  0  0  0  0  0
   21.4532  -32.2836    0.0000 C   0  0  0  0  0  0  0  0  0  0  0  0
   21.9354  -30.8632    0.0000 C   0  0  0  0  0  0  0  0  0  0  0  0
   22.3236  -29.4143    0.0000 C   0  0  0  0  0  0  0  0  0  0  0  0
   22.6162  -27.9431    0.0000 C   0  0  0  0  0  0  0  0  0  0  0  0
   22.8120  -26.4560    0.0000 C   0  0  0  0  0  0  0  0  0  0  0  0
   22.9101  -24.9592    0.0000 C   0  0  0  0  0  0  0  0  0  0  0  0
   22.9101  -23.4592    0.0000 C   0  0  0  0  0  0  0  0  0  0  0  0
   22.8120  -21.9624    0.0000 C   0  0  0  0  0  0  0  0  0  0  0  0
   22.6162  -20.4752    0.0000 C   0  0  0  0  0  0  0  0  0  0  0  0
   22.3236  -19.0040    0.0000 C   0  0  0  0  0  0  0  0  0  0  0  0
   21.9354  -17.5551    0.0000 C   0  0  0  0  0  0  0  0  0  0  0  0
   21.4532  -16.1348    0.0000 C   0  0  0  0  0  0  0  0  0  0  0  0
   20.8792  -14.7489    0.0000 C   0  0  0  0  0  0  0  0  0  0  0  0
   20.2158  -13.4036    0.0000 C   0  0  0  0  0  0  0  0  0  0  0  0
   19.4658  -12.1046    0.0000 C   0  0  0  0  0  0  0  0  0  0  0  0
   18.6324  -10.8574    0.0000 C   0  0  0  0  0  0  0  0  0  0  0  0
   17.7193   -9.6673    0.0000 C   0  0  0  0  0  0  0  0  0  0  0  0
   16.7302   -8.5396    0.0000 C   0  0  0  0  0  0  0  0  0  0  0  0
   15.6696   -7.4789    0.0000 C   0  0  0  0  0  0  0  0  0  0  0  0
   14.5418   -6.4899    0.0000 C   0  0  0  0  0  0  0  0  0  0  0  0
   13.3518   -5.5768    0.0000 C   0  0  0  0  0  0  0  0  0  0  0  0
   12.1046   -4.7434    0.0000 C   0  0  0  0  0  0  0  0  0  0  0  0
   10.8055   -3.9934    0.0000 C   0  0  0  0  0  0  0  0  0  0  0  0
    9.4602   -3.3300    0.0000 C   0  0  0  0  0  0  0  0  0  0  0  0
    8.0744   -2.7560    0.0000 C   0  0  0  0  0  0  0  0  0  0  0  0
    6.6540   -2.2738    0.0000 C   0  0  0  0  0  0  0  0  0  0  0  0
    5.2051   -1.8856    0.0000 C   0  0  0  0  0  0  0  0  0  0  0  0
    3.7340   -1.5929    0.0000 C   0  0  0  0  0  0  0  0  0  0  0  0
    4.0073   -3.0678    0.0000 C   0  0  0  0  0  0  0  0  0  0  0  0
    2.6891   -3.7836    0.0000 C   0  0  0  0  0  0  0  0  0  0  0  0
    1.6010   -2.7510    0.0000 C   0  0  0  0  0  0  0  0  0  0  0  0
    2.2468   -1.3971    0.0000 C   0  0  0  0  0  0  0  0  0  0  0  0
    0.7500   -1.2990    0.0000 C   0  0  0  0  0  0  0  0  0  0  0  0
    1.5000    0.0000    0.0000 C   0  0  0  0  0  0  0  0  0  0  0  0
    0.7500    1.2990    0.0000 C   0  0  0  0  0  0  0  0  0  0  0  0
   -0.7500    1.2990    0.0000 C   0  0  0  0  0  0  0  0  0  0  0  0
   -1.5000    0.0000    0.0000 C   0  0  0  0  0  0  0  0  0  0  0  0
   -0.7500   -1.2990    0.0000 C   0  0  0  0  0  0  0  0  0  0  0  0
  1  2  1  0
  2  3  1  0
  3  4  1  0
  4  5  1  0
  5  6  1  0
  6  7  1  0
  7  8  1  0
  8  9  1  0
  9 10  1  0
 10 11  1  0
 11 12  1  0
 12 13  1  0
 13 14  1  0
 14 15  1  0
 15 16  1  0
 16 17  1  0
 17 18  1  0
 18 19  1  0
 19 20  1  0
 20 21  1  0
 21 22  1  0
 22 23  1  0
 23 24  1  0
 24 25  1  0
 25 26  1  0
 26 27  1  0
 27 28  1  0
 28 29  1  0
 29 30  1  0
 30 31  1  0
 31 32  1  0
 32 33  1  0
 33 34  1  0
 34 35  1  0
 35 36  1  0
 36 37  1  0
 37 38  1  0
 38 39  1  0
 39 40  1  0
 40 41  1  0
 41 42  1  0
 42 43  1  0
 43 44  1  0
 44 45  1  0
 45 46  1  0
 46 47  1  0
 47 48  1  0
 48 49  1  0
 49 50  1  0
 50 51  1  0
 51 52  1  0
 52 53  1  0
 53 54  1  0
 54 55  1  0
 55 56  1  0
 56 57  1  0
 57 58  1  0
 58 59  1  0
 59 60  1  0
 60 61  1  0
 61 62  1  0
 62 63  1  0
 63 64  1  0
 64 65  1  0
 65 66  1  0
 66 67  1  0
 67 68  1  0
 68 69  1  0
 69 70  1  0
 70 71  1  0
 71 72  1  0
 72 73  1  0
 73 74  1  0
 74 75  1  0
 75 76  1  0
 76 77  1  0
 77 78  2  0
 78 79  1  0
 79 80  2  0
 80 81  1  0
 81 82  2  0
 82 83  1  0
 83 84  2  0
 84 85  1  0
 85 86  2  0
 86 87  1  0
 87 88  2  0
 88 89  1  0
 89 90  2  0
 90 91  1  0
 91 92  2  0
 92 93  1  0
 93 94  2  0
 94 95  1  0
 95 96  2  0
 96 97  1  0
 97 98  2  0
 98 99  1  0
 99100  2  0
100101  1  0
101102  2  0
102103  1  0
103104  2  0
104  2  1  0
 98 94  1  0
104 99  1  0
M  END
>  <Title>  (1111) 
idABOUgen13

$$$$

     RDKit          2D

 12 12  0  0  0  0  0  0  0  0999 V2000
    8.7760   -2.5981    0.0000 C   0  0  0  0  0  0  0  0  0  0  0  0
    7.2760   -2.5981    0.0000 C   0  0  0  0  0  0  0  0  0  0  0  0
    5.7760   -2.5981    0.0000 C   0  0  0  0  0  0  0  0  0  0  0  0
    5.0260   -1.2990    0.0000 C   0  0  0  0  0  0  0  0  0  0  0  0
    3.5260   -1.2990    0.0000 C   0  0  0  0  0  0  0  0  0  0  0  0
    2.7760   -2.5981    0.0000 O   0  0  0  0  0  0  0  0  0  0  0  0
    2.7760    0.0000    0.0000 N   0  0  0  0  0  0  0  0  0  0  0  0
    1.2760    0.0000    0.0000 C   0  0  0  0  0  0  0  0  0  0  0  0
    0.3943    1.2135    0.0000 C   0  0  0  0  0  0  0  0  0  0  0  0
   -1.0323    0.7500    0.0000 C   0  0  0  0  0  0  0  0  0  0  0  0
   -1.0323   -0.7500    0.0000 C   0  0  0  0  0  0  0  0  0  0  0  0
    0.3943   -1.2135    0.0000 C   0  0  0  0  0  0  0  0  0  0  0  0
  1  2  3  0
  2  3  1  0
  3  4  1  0
  4  5  1  0
  5  6  2  0
  5  7  1  0
  7  8  1  0
  8  9  2  0
  9 10  1  0
 10 11  2  0
 11 12  1  0
 12  8  1  0
M  END
>  <Title>  (1112) 
idABOVgen13

$$$$

     RDKit          2D

 56 57  0  0  0  0  0  0  0  0999 V2000
   -2.3956    0.8257    0.0000 C   0  0  0  0  0  0  0  0  0  0  0  0
   -1.7937    2.1997    0.0000 C   0  0  0  0  0  0  0  0  0  0  0  0
   -3.1271    2.8866    0.0000 C   0  0  0  0  0  0  0  0  0  0  0  0
   -4.3639    3.7353    0.0000 C   0  0  0  0  0  0  0  0  0  0  0  0
   -5.4846    4.7323    0.0000 C   0  0  0  0  0  0  0  0  0  0  0  0
   -6.4715    5.8619    0.0000 C   0  0  0  0  0  0  0  0  0  0  0  0
   -7.3091    7.1063    0.0000 C   0  0  0  0  0  0  0  0  0  0  0  0
   -7.9841    8.4459    0.0000 C   0  0  0  0  0  0  0  0  0  0  0  0
   -8.4858    9.8595    0.0000 C   0  0  0  0  0  0  0  0  0  0  0  0
   -8.8065   11.3248    0.0000 C   0  0  0  0  0  0  0  0  0  0  0  0
   -8.9409   12.8188    0.0000 C   0  0  0  0  0  0  0  0  0  0  0  0
   -8.8871   14.3178    0.0000 C   0  0  0  0  0  0  0  0  0  0  0  0
   -8.6458   15.7983    0.0000 C   0  0  0  0  0  0  0  0  0  0  0  0
   -8.2209   17.2368    0.0000 C   0  0  0  0  0  0  0  0  0  0  0  0
   -7.6190   18.6108    0.0000 C   0  0  0  0  0  0  0  0  0  0  0  0
   -6.8496   19.8984    0.0000 C   0  0  0  0  0  0  0  0  0  0  0  0
   -5.9249   21.0795    0.0000 C   0  0  0  0  0  0  0  0  0  0  0  0
   -4.8595   22.1354    0.0000 C   0  0  0  0  0  0  0  0  0  0  0  0
   -3.6702   23.0494    0.0000 C   0  0  0  0  0  0  0  0  0  0  0  0
   -2.3757   23.8072    0.0000 C   0  0  0  0  0  0  0  0  0  0  0  0
   -0.9964   24.3967    0.0000 C   0  0  0  0  0  0  0  0  0  0  0  0
    0.4459   24.8088    0.0000 C   0  0  0  0  0  0  0  0  0  0  0  0
    1.9285   25.0368    0.0000 C   0  0  0  0  0  0  0  0  0  0  0  0
    3.4280   25.0772    0.0000 C   0  0  0  0  0  0  0  0  0  0  0  0
    4.9207   24.9293    0.0000 C   0  0  0  0  0  0  0  0  0  0  0  0
    6.3831   24.5955    0.0000 C   0  0  0  0  0  0  0  0  0  0  0  0
    7.7921   24.0811    0.0000 C   0  0  0  0  0  0  0  0  0  0  0  0
    9.1255   23.3941    0.0000 C   0  0  0  0  0  0  0  0  0  0  0  0
   10.3623   22.5454    0.0000 C   0  0  0  0  0  0  0  0  0  0  0  0
   11.4830   21.5484    0.0000 C   0  0  0  0  0  0  0  0  0  0  0  0
   12.4700   20.4188    0.0000 C   0  0  0  0  0  0  0  0  0  0  0  0
   13.3075   19.1744    0.0000 C   0  0  0  0  0  0  0  0  0  0  0  0
   13.9825   17.8348    0.0000 C   0  0  0  0  0  0  0  0  0  0  0  0
   14.4843   16.4213    0.0000 C   0  0  0  0  0  0  0  0  0  0  0  0
   14.8049   14.9559    0.0000 C   0  0  0  0  0  0  0  0  0  0  0  0
   14.9394   13.4620    0.0000 C   0  0  0  0  0  0  0  0  0  0  0  0
   14.8855   11.9629    0.0000 C   0  0  0  0  0  0  0  0  0  0  0  0
   14.6442   10.4825    0.0000 C   0  0  0  0  0  0  0  0  0  0  0  0
   14.2193    9.0439    0.0000 C   0  0  0  0  0  0  0  0  0  0  0  0
   13.6174    7.6700    0.0000 C   0  0  0  0  0  0  0  0  0  0  0  0
   12.8480    6.3823    0.0000 C   0  0  0  0  0  0  0  0  0  0  0  0
   11.9233    5.2012    0.0000 C   0  0  0  0  0  0  0  0  0  0  0  0
   10.8579    4.1453    0.0000 C   0  0  0  0  0  0  0  0  0  0  0  0
    9.6686    3.2313    0.0000 C   0  0  0  0  0  0  0  0  0  0  0  0
    8.3741    2.4735    0.0000 C   0  0  0  0  0  0  0  0  0  0  0  0
    6.9948    1.8840    0.0000 C   0  0  0  0  0  0  0  0  0  0  0  0
    5.5525    1.4720    0.0000 C   0  0  0  0  0  0  0  0  0  0  0  0
    4.0699    1.2440    0.0000 C   0  0  0  0  0  0  0  0  0  0  0  0
    2.5704    1.2036    0.0000 C   0  0  0  0  0  0  0  0  0  0  0  0
    1.0777    1.3515    0.0000 C   0  0  0  0  0  0  0  0  0  0  0  0
    1.7286    0.0000    0.0000 C   0  0  0  0  0  0  0  0  0  0  0  0
    1.0777   -1.3515    0.0000 C   0  0  0  0  0  0  0  0  0  0  0  0
   -0.3846   -1.6852    0.0000 C   0  0  0  0  0  0  0  0  0  0  0  0
   -1.5574   -0.7500    0.0000 C   0  0  0  0  0  0  0  0  0  0  0  0
   -1.5574    0.7500    0.0000 C   0  0  0  0  0  0  0  0  0  0  0  0
   -0.3846    1.6852    0.0000 C   0  0  0  0  0  0  0  0  0  0  0  0
  1  2  1  0
  2  3  1  0
  3  4  1  0
  4  5  1  0
  5  6  1  0
  6  7  1  0
  7  8  1  0
  8  9  1  0
  9 10  1  0
 10 11  1  0
 11 12  1  0
 12 13  1  0
 13 14  1  0
 14 15  1  0
 15 16  1  0
 16 17  1  0
 17 18  1  0
 18 19  1  0
 19 20  1  0
 20 21  1  0
 21 22  1  0
 22 23  1  0
 23 24  1  0
 24 25  1  0
 25 26  1  0
 26 27  1  0
 27 28  1  0
 28 29  1  0
 29 30  1  0
 30 31  1  0
 31 32  1  0
 32 33  1  0
 33 34  1  0
 34 35  1  0
 35 36  1  0
 36 37  1  0
 37 38  1  0
 38 39  1  0
 39 40  1  0
 40 41  1  0
 41 42  1  0
 42 43  1  0
 43 44  1  0
 44 45  1  0
 45 46  1  0
 46 47  1  0
 47 48  1  0
 48 49  1  0
 49 50  1  0
 50 51  1  0
 51 52  2  0
 52 53  1  0
 53 54  2  0
 54 55  1  0
 55 56  2  0
 56  2  1  0
 56 50  1  0
M  END
>  <Title>  (1113) 
idABOWgen13

$$$$

     RDKit          2D

 75 76  0  0  0  0  0  0  0  0999 V2000
   -2.2236   -1.0610    0.0000 C   0  0  0  0  0  0  0  0  0  0  0  0
   -2.4943    0.4144    0.0000 C   0  0  0  0  0  0  0  0  0  0  0  0
   -3.9802    0.2093    0.0000 C   0  0  0  0  0  0  0  0  0  0  0  0
   -5.4784    0.1363    0.0000 C   0  0  0  0  0  0  0  0  0  0  0  0
   -6.9772    0.1960    0.0000 C   0  0  0  0  0  0  0  0  0  0  0  0
   -8.4649    0.3880    0.0000 C   0  0  0  0  0  0  0  0  0  0  0  0
   -9.9297    0.7106    0.0000 C   0  0  0  0  0  0  0  0  0  0  0  0
  -11.3604    1.1615    0.0000 C   0  0  0  0  0  0  0  0  0  0  0  0
  -12.7456    1.7371    0.0000 C   0  0  0  0  0  0  0  0  0  0  0  0
  -14.0745    2.4328    0.0000 C   0  0  0  0  0  0  0  0  0  0  0  0
  -15.3367    3.2433    0.0000 C   0  0  0  0  0  0  0  0  0  0  0  0
  -16.5223    4.1621    0.0000 C   0  0  0  0  0  0  0  0  0  0  0  0
  -17.6221    5.1821    0.0000 C   0  0  0  0  0  0  0  0  0  0  0  0
  -18.6274    6.2954    0.0000 C   0  0  0  0  0  0  0  0  0  0  0  0
  -19.5305    7.4931    0.0000 C   0  0  0  0  0  0  0  0  0  0  0  0
  -20.3241    8.7659    0.0000 C   0  0  0  0  0  0  0  0  0  0  0  0
  -21.0021   10.1039    0.0000 C   0  0  0  0  0  0  0  0  0  0  0  0
  -21.5592   11.4967    0.0000 C   0  0  0  0  0  0  0  0  0  0  0  0
  -21.9911   12.9331    0.0000 C   0  0  0  0  0  0  0  0  0  0  0  0
  -22.2943   14.4022    0.0000 C   0  0  0  0  0  0  0  0  0  0  0  0
  -22.4665   15.8923    0.0000 C   0  0  0  0  0  0  0  0  0  0  0  0
  -22.5063   17.3917    0.0000 C   0  0  0  0  0  0  0  0  0  0  0  0
  -22.4134   18.8889    0.0000 C   0  0  0  0  0  0  0  0  0  0  0  0
  -22.1886   20.3719    0.0000 C   0  0  0  0  0  0  0  0  0  0  0  0
  -21.8336   21.8293    0.0000 C   0  0  0  0  0  0  0  0  0  0  0  0
  -21.3512   23.2496    0.0000 C   0  0  0  0  0  0  0  0  0  0  0  0
  -20.7451   24.6217    0.0000 C   0  0  0  0  0  0  0  0  0  0  0  0
  -20.0202   25.9349    0.0000 C   0  0  0  0  0  0  0  0  0  0  0  0
  -19.1820   27.1789    0.0000 C   0  0  0  0  0  0  0  0  0  0  0  0
  -18.2372   28.3439    0.0000 C   0  0  0  0  0  0  0  0  0  0  0  0
  -17.1930   29.4208    0.0000 C   0  0  0  0  0  0  0  0  0  0  0  0
  -16.0578   30.4013    0.0000 C   0  0  0  0  0  0  0  0  0  0  0  0
  -14.8404   31.2776    0.0000 C   0  0  0  0  0  0  0  0  0  0  0  0
  -13.5503   32.0429    0.0000 C   0  0  0  0  0  0  0  0  0  0  0  0
  -12.1976   32.6911    0.0000 C   0  0  0  0  0  0  0  0  0  0  0  0
  -10.7930   33.2173    0.0000 C   0  0  0  0  0  0  0  0  0  0  0  0
   -9.3473   33.6173    0.0000 C   0  0  0  0  0  0  0  0  0  0  0  0
   -7.8719   33.8879    0.0000 C   0  0  0  0  0  0  0  0  0  0  0  0
   -6.3784   34.0271    0.0000 C   0  0  0  0  0  0  0  0  0  0  0  0
   -4.8784   34.0337    0.0000 C   0  0  0  0  0  0  0  0  0  0  0  0
   -3.3837   33.9078    0.0000 C   0  0  0  0  0  0  0  0  0  0  0  0
   -1.9059   33.6502    0.0000 C   0  0  0  0  0  0  0  0  0  0  0  0
   -0.4568   33.2631    0.0000 C   0  0  0  0  0  0  0  0  0  0  0  0
    0.9525   32.7493    0.0000 C   0  0  0  0  0  0  0  0  0  0  0  0
    2.3109   32.1131    0.0000 C   0  0  0  0  0  0  0  0  0  0  0  0
    3.6077   31.3592    0.0000 C   0  0  0  0  0  0  0  0  0  0  0  0
    4.8328   30.4937    0.0000 C   0  0  0  0  0  0  0  0  0  0  0  0
    5.9767   29.5234    0.0000 C   0  0  0  0  0  0  0  0  0  0  0  0
    7.0303   28.4557    0.0000 C   0  0  0  0  0  0  0  0  0  0  0  0
    7.9854   27.2991    0.0000 C   0  0  0  0  0  0  0  0  0  0  0  0
    8.8345   26.0626    0.0000 C   0  0  0  0  0  0  0  0  0  0  0  0
    9.5711   24.7559    0.0000 C   0  0  0  0  0  0  0  0  0  0  0  0
   10.1892   23.3892    0.0000 C   0  0  0  0  0  0  0  0  0  0  0  0
   10.6842   21.9732    0.0000 C   0  0  0  0  0  0  0  0  0  0  0  0
   11.0521   20.5190    0.0000 C   0  0  0  0  0  0  0  0  0  0  0  0
   11.2900   19.0380    0.0000 C   0  0  0  0  0  0  0  0  0  0  0  0
   11.3961   17.5417    0.0000 C   0  0  0  0  0  0  0  0  0  0  0  0
   11.3696   16.0420    0.0000 C   0  0  0  0  0  0  0  0  0  0  0  0
   11.2106   14.5504    0.0000 C   0  0  0  0  0  0  0  0  0  0  0  0
   10.9204   13.0788    0.0000 C   0  0  0  0  0  0  0  0  0  0  0  0
   10.5013   11.6385    0.0000 C   0  0  0  0  0  0  0  0  0  0  0  0
    9.9565   10.2409    0.0000 C   0  0  0  0  0  0  0  0  0  0  0  0
    9.2904    8.8970    0.0000 C   0  0  0  0  0  0  0  0  0  0  0  0
    8.5080    7.6171    0.0000 C   0  0  0  0  0  0  0  0  0  0  0  0
    7.6156    6.4115    0.0000 C   0  0  0  0  0  0  0  0  0  0  0  0
    6.6202    5.2894    0.0000 C   0  0  0  0  0  0  0  0  0  0  0  0
    5.5295    4.2597    0.0000 C   0  0  0  0  0  0  0  0  0  0  0  0
    4.3520    3.3304    0.0000 C   0  0  0  0  0  0  0  0  0  0  0  0
    3.0970    2.5088    0.0000 C   0  0  0  0  0  0  0  0  0  0  0  0
    1.7743    1.8013    0.0000 C   0  0  0  0  0  0  0  0  0  0  0  0
    0.3943    1.2135    0.0000 C   0  0  0  0  0  0  0  0  0  0  0  0
    1.2760    0.0000    0.0000 C   0  0  0  0  0  0  0  0  0  0  0  0
    0.3943   -1.2135    0.0000 C   0  0  0  0  0  0  0  0  0  0  0  0
   -1.0323   -0.7500    0.0000 C   0  0  0  0  0  0  0  0  0  0  0  0
   -1.0323    0.7500    0.0000 C   0  0  0  0  0  0  0  0  0  0  0  0
  1  2  1  0
  2  3  1  0
  3  4  1  0
  4  5  1  0
  5  6  1  0
  6  7  1  0
  7  8  1  0
  8  9  1  0
  9 10  1  0
 10 11  1  0
 11 12  1  0
 12 13  1  0
 13 14  1  0
 14 15  1  0
 15 16  1  0
 16 17  1  0
 17 18  1  0
 18 19  1  0
 19 20  1  0
 20 21  1  0
 21 22  1  0
 22 23  1  0
 23 24  1  0
 24 25  1  0
 25 26  1  0
 26 27  1  0
 27 28  1  0
 28 29  1  0
 29 30  1  0
 30 31  1  0
 31 32  1  0
 32 33  1  0
 33 34  1  0
 34 35  1  0
 35 36  1  0
 36 37  1  0
 37 38  1  0
 38 39  1  0
 39 40  1  0
 40 41  1  0
 41 42  1  0
 42 43  1  0
 43 44  1  0
 44 45  1  0
 45 46  1  0
 46 47  1  0
 47 48  1  0
 48 49  1  0
 49 50  1  0
 50 51  1  0
 51 52  1  0
 52 53  1  0
 53 54  1  0
 54 55  1  0
 55 56  1  0
 56 57  1  0
 57 58  1  0
 58 59  2  0
 59 60  1  0
 60 61  2  0
 61 62  1  0
 62 63  2  0
 63 64  1  0
 64 65  2  0
 65 66  1  0
 66 67  2  0
 67 68  1  0
 68 69  2  0
 69 70  1  0
 70 71  2  0
 71 72  1  0
 72 73  2  0
 73 74  1  0
 74 75  2  0
 75  2  1  0
 75 71  1  0
M  END
>  <Title>  (1114) 
idABOXgen13

$$$$

     RDKit          2D

 46 52  0  0  0  0  0  0  0  0999 V2000
    1.2135   -7.3421    0.0000 C   0  0  0  0  0  0  0  0  0  0  0  0
    0.7500   -5.9156    0.0000 C   0  0  0  0  0  0  0  0  0  0  0  0
    1.9635   -5.0339    0.0000 C   0  0  0  0  0  0  0  0  0  0  0  0
    2.4271   -3.6073    0.0000 C   0  0  0  0  0  0  0  0  0  0  0  0
    1.9635   -2.1807    0.0000 C   0  0  0  0  0  0  0  0  0  0  0  0
    3.1771   -1.2990    0.0000 C   0  0  0  0  0  0  0  0  0  0  0  0
    3.0203    0.1927    0.0000 O   0  0  0  0  0  0  0  0  0  0  0  0
    4.5474   -1.9091    0.0000 N   0  0  0  0  0  0  0  0  0  0  0  0
    5.7609   -1.0275    0.0000 C   0  0  0  0  0  0  0  0  0  0  0  0
    5.7609    0.4725    0.0000 N   0  0  0  0  0  0  0  0  0  0  0  0
    7.1875    0.9361    0.0000 N   0  0  0  0  0  0  0  0  0  0  0  0
    8.0692   -0.2775    0.0000 N   0  0  0  0  0  0  0  0  0  0  0  0
    7.1875   -1.4910    0.0000 N   0  0  0  0  0  0  0  0  0  0  0  0
    7.6510   -2.9176    0.0000 N   0  0  0  0  0  0  0  0  0  0  0  0
    9.0776   -3.3811    0.0000 C   0  0  0  0  0  0  0  0  0  0  0  0
    9.0776   -4.8811    0.0000 C   0  0  0  0  0  0  0  0  0  0  0  0
    7.6510   -5.3446    0.0000 N   0  0  0  0  0  0  0  0  0  0  0  0
    7.1875   -6.7712    0.0000 C   0  0  0  0  0  0  0  0  0  0  0  0
    8.1912   -7.8859    0.0000 O   0  0  0  0  0  0  0  0  0  0  0  0
    5.7203   -7.0831    0.0000 N   0  0  0  0  0  0  0  0  0  0  0  0
    5.2567   -8.5097    0.0000 C   0  0  0  0  0  0  0  0  0  0  0  0
    3.7895   -8.8215    0.0000 N   0  0  0  0  0  0  0  0  0  0  0  0
    3.3260  -10.2481    0.0000 N   0  0  0  0  0  0  0  0  0  0  0  0
    4.3297  -11.3628    0.0000 N   0  0  0  0  0  0  0  0  0  0  0  0
    5.7969  -11.0510    0.0000 N   0  0  0  0  0  0  0  0  0  0  0  0
    6.2604   -9.6244    0.0000 N   0  0  0  0  0  0  0  0  0  0  0  0
    6.7693   -4.1311    0.0000 C   0  0  0  0  0  0  0  0  0  0  0  0
    5.2693   -4.1311    0.0000 O   0  0  0  0  0  0  0  0  0  0  0  0
    0.7500   -1.2990    0.0000 C   0  0  0  0  0  0  0  0  0  0  0  0
    1.5000    0.0000    0.0000 C   0  0  0  0  0  0  0  0  0  0  0  0
    0.7500    1.2990    0.0000 C   0  0  0  0  0  0  0  0  0  0  0  0
   -0.7500    1.2990    0.0000 C   0  0  0  0  0  0  0  0  0  0  0  0
   -1.5000    0.0000    0.0000 C   0  0  0  0  0  0  0  0  0  0  0  0
   -0.7500   -1.2990    0.0000 C   0  0  0  0  0  0  0  0  0  0  0  0
   -1.9635   -2.1807    0.0000 C   0  0  0  0  0  0  0  0  0  0  0  0
   -2.9672   -1.0660    0.0000 C   0  0  0  0  0  0  0  0  0  0  0  0
   -4.4344   -1.3779    0.0000 C   0  0  0  0  0  0  0  0  0  0  0  0
   -4.8980   -2.8045    0.0000 C   0  0  0  0  0  0  0  0  0  0  0  0
   -3.8943   -3.9192    0.0000 C   0  0  0  0  0  0  0  0  0  0  0  0
   -2.4271   -3.6073    0.0000 C   0  0  0  0  0  0  0  0  0  0  0  0
   -1.9635   -5.0339    0.0000 C   0  0  0  0  0  0  0  0  0  0  0  0
   -3.3338   -5.6440    0.0000 C   0  0  0  0  0  0  0  0  0  0  0  0
   -3.4906   -7.1358    0.0000 C   0  0  0  0  0  0  0  0  0  0  0  0
   -2.2771   -8.0175    0.0000 C   0  0  0  0  0  0  0  0  0  0  0  0
   -0.9068   -7.4073    0.0000 C   0  0  0  0  0  0  0  0  0  0  0  0
   -0.7500   -5.9156    0.0000 C   0  0  0  0  0  0  0  0  0  0  0  0
  1  2  1  0
  2  3  2  0
  3  4  1  0
  4  5  2  0
  5  6  1  0
  6  7  2  0
  6  8  1  0
  8  9  1  0
  9 10  2  0
 10 11  1  0
 11 12  2  0
 12 13  1  0
 13 14  1  0
 14 15  1  0
 15 16  1  0
 16 17  1  0
 17 18  1  0
 18 19  2  0
 18 20  1  0
 20 21  1  0
 21 22  2  0
 22 23  1  0
 23 24  2  0
 24 25  1  0
 25 26  2  0
 17 27  1  0
 27 28  2  0
  5 29  1  0
 29 30  2  0
 30 31  1  0
 31 32  2  0
 32 33  1  0
 33 34  2  0
 34 35  1  0
 35 36  2  0
 36 37  1  0
 37 38  2  0
 38 39  1  0
 39 40  2  0
 40 41  1  0
 41 42  2  0
 42 43  1  0
 43 44  2  0
 44 45  1  0
 45 46  2  0
 46  2  1  0
 13  9  1  0
 27 14  1  0
 34 29  1  0
 40 35  1  0
 46 41  1  0
 26 21  1  0
M  END
>  <Title>  (1115) 
idABOYgen13

$$$$

     RDKit          2D

 97 99  0  0  0  0  0  0  0  0999 V2000
   -2.4048    0.0868    0.0000 C   0  0  0  0  0  0  0  0  0  0  0  0
   -2.2463   -1.4048    0.0000 C   0  0  0  0  0  0  0  0  0  0  0  0
   -3.7313   -1.6159    0.0000 C   0  0  0  0  0  0  0  0  0  0  0  0
   -5.1978   -1.9313    0.0000 C   0  0  0  0  0  0  0  0  0  0  0  0
   -6.6384   -2.3492    0.0000 C   0  0  0  0  0  0  0  0  0  0  0  0
   -8.0459   -2.8678    0.0000 C   0  0  0  0  0  0  0  0  0  0  0  0
   -9.4134   -3.4843    0.0000 C   0  0  0  0  0  0  0  0  0  0  0  0
  -10.7339   -4.1958    0.0000 C   0  0  0  0  0  0  0  0  0  0  0  0
  -12.0009   -4.9987    0.0000 C   0  0  0  0  0  0  0  0  0  0  0  0
  -13.2082   -5.8889    0.0000 C   0  0  0  0  0  0  0  0  0  0  0  0
  -14.3497   -6.8620    0.0000 C   0  0  0  0  0  0  0  0  0  0  0  0
  -15.4197   -7.9133    0.0000 C   0  0  0  0  0  0  0  0  0  0  0  0
  -16.4128   -9.0374    0.0000 C   0  0  0  0  0  0  0  0  0  0  0  0
  -17.3242  -10.2288    0.0000 C   0  0  0  0  0  0  0  0  0  0  0  0
  -18.1493  -11.4815    0.0000 C   0  0  0  0  0  0  0  0  0  0  0  0
  -18.8840  -12.7893    0.0000 C   0  0  0  0  0  0  0  0  0  0  0  0
  -19.5245  -14.1456    0.0000 C   0  0  0  0  0  0  0  0  0  0  0  0
  -20.0679  -15.5437    0.0000 C   0  0  0  0  0  0  0  0  0  0  0  0
  -20.5112  -16.9767    0.0000 C   0  0  0  0  0  0  0  0  0  0  0  0
  -20.8524  -18.4374    0.0000 C   0  0  0  0  0  0  0  0  0  0  0  0
  -21.0896  -19.9185    0.0000 C   0  0  0  0  0  0  0  0  0  0  0  0
  -21.2218  -21.4127    0.0000 C   0  0  0  0  0  0  0  0  0  0  0  0
  -21.2483  -22.9125    0.0000 C   0  0  0  0  0  0  0  0  0  0  0  0
  -21.1689  -24.4104    0.0000 C   0  0  0  0  0  0  0  0  0  0  0  0
  -20.9841  -25.8989    0.0000 C   0  0  0  0  0  0  0  0  0  0  0  0
  -20.6947  -27.3707    0.0000 C   0  0  0  0  0  0  0  0  0  0  0  0
  -20.3022  -28.8185    0.0000 C   0  0  0  0  0  0  0  0  0  0  0  0
  -19.8085  -30.2349    0.0000 C   0  0  0  0  0  0  0  0  0  0  0  0
  -19.2162  -31.6130    0.0000 C   0  0  0  0  0  0  0  0  0  0  0  0
  -18.5282  -32.9459    0.0000 C   0  0  0  0  0  0  0  0  0  0  0  0
  -17.7478  -34.2269    0.0000 C   0  0  0  0  0  0  0  0  0  0  0  0
  -16.8790  -35.4497    0.0000 C   0  0  0  0  0  0  0  0  0  0  0  0
  -15.9262  -36.6082    0.0000 C   0  0  0  0  0  0  0  0  0  0  0  0
  -14.8940  -37.6966    0.0000 C   0  0  0  0  0  0  0  0  0  0  0  0
  -13.7875  -38.7094    0.0000 C   0  0  0  0  0  0  0  0  0  0  0  0
  -12.6124  -39.6417    0.0000 C   0  0  0  0  0  0  0  0  0  0  0  0
  -11.3745  -40.4887    0.0000 C   0  0  0  0  0  0  0  0  0  0  0  0
  -10.0799  -41.2464    0.0000 C   0  0  0  0  0  0  0  0  0  0  0  0
   -8.7351  -41.9108    0.0000 C   0  0  0  0  0  0  0  0  0  0  0  0
   -7.3467  -42.4787    0.0000 C   0  0  0  0  0  0  0  0  0  0  0  0
   -5.9218  -42.9473    0.0000 C   0  0  0  0  0  0  0  0  0  0  0  0
   -4.4674  -43.3141    0.0000 C   0  0  0  0  0  0  0  0  0  0  0  0
   -2.9907  -43.5775    0.0000 C   0  0  0  0  0  0  0  0  0  0  0  0
   -1.4991  -43.7361    0.0000 C   0  0  0  0  0  0  0  0  0  0  0  0
   -0.0000  -43.7890    0.0000 C   0  0  0  0  0  0  0  0  0  0  0  0
    1.4991  -43.7361    0.0000 C   0  0  0  0  0  0  0  0  0  0  0  0
    2.9907  -43.5775    0.0000 C   0  0  0  0  0  0  0  0  0  0  0  0
    4.4674  -43.3141    0.0000 C   0  0  0  0  0  0  0  0  0  0  0  0
    5.9218  -42.9473    0.0000 C   0  0  0  0  0  0  0  0  0  0  0  0
    7.3467  -42.4787    0.0000 C   0  0  0  0  0  0  0  0  0  0  0  0
    8.7351  -41.9108    0.0000 C   0  0  0  0  0  0  0  0  0  0  0  0
   10.0799  -41.2464    0.0000 C   0  0  0  0  0  0  0  0  0  0  0  0
   11.3745  -40.4887    0.0000 C   0  0  0  0  0  0  0  0  0  0  0  0
   12.6124  -39.6417    0.0000 C   0  0  0  0  0  0  0  0  0  0  0  0
   13.7875  -38.7094    0.0000 C   0  0  0  0  0  0  0  0  0  0  0  0
   14.8940  -37.6966    0.0000 C   0  0  0  0  0  0  0  0  0  0  0  0
   15.9262  -36.6082    0.0000 C   0  0  0  0  0  0  0  0  0  0  0  0
   16.8790  -35.4497    0.0000 C   0  0  0  0  0  0  0  0  0  0  0  0
   17.7478  -34.2269    0.0000 C   0  0  0  0  0  0  0  0  0  0  0  0
   18.5282  -32.9459    0.0000 C   0  0  0  0  0  0  0  0  0  0  0  0
   19.2162  -31.6130    0.0000 C   0  0  0  0  0  0  0  0  0  0  0  0
   19.8085  -30.2349    0.0000 C   0  0  0  0  0  0  0  0  0  0  0  0
   20.3022  -28.8185    0.0000 C   0  0  0  0  0  0  0  0  0  0  0  0
   20.6947  -27.3707    0.0000 C   0  0  0  0  0  0  0  0  0  0  0  0
   20.9841  -25.8989    0.0000 C   0  0  0  0  0  0  0  0  0  0  0  0
   21.1689  -24.4104    0.0000 C   0  0  0  0  0  0  0  0  0  0  0  0
   21.2483  -22.9125    0.0000 C   0  0  0  0  0  0  0  0  0  0  0  0
   21.2218  -21.4127    0.0000 C   0  0  0  0  0  0  0  0  0  0  0  0
   21.0896  -19.9185    0.0000 C   0  0  0  0  0  0  0  0  0  0  0  0
   20.8524  -18.4374    0.0000 C   0  0  0  0  0  0  0  0  0  0  0  0
   20.5112  -16.9767    0.0000 C   0  0  0  0  0  0  0  0  0  0  0  0
   20.0679  -15.5437    0.0000 C   0  0  0  0  0  0  0  0  0  0  0  0
   19.5245  -14.1456    0.0000 C   0  0  0  0  0  0  0  0  0  0  0  0
   18.8840  -12.7893    0.0000 C   0  0  0  0  0  0  0  0  0  0  0  0
   18.1493  -11.4815    0.0000 C   0  0  0  0  0  0  0  0  0  0  0  0
   17.3242  -10.2288    0.0000 C   0  0  0  0  0  0  0  0  0  0  0  0
   16.4128   -9.0374    0.0000 C   0  0  0  0  0  0  0  0  0  0  0  0
   15.4197   -7.9133    0.0000 C   0  0  0  0  0  0  0  0  0  0  0  0
   14.3497   -6.8620    0.0000 C   0  0  0  0  0  0  0  0  0  0  0  0
   13.2082   -5.8889    0.0000 C   0  0  0  0  0  0  0  0  0  0  0  0
   12.0009   -4.9987    0.0000 C   0  0  0  0  0  0  0  0  0  0  0  0
   10.7339   -4.1958    0.0000 C   0  0  0  0  0  0  0  0  0  0  0  0
    9.4134   -3.4843    0.0000 C   0  0  0  0  0  0  0  0  0  0  0  0
    8.0459   -2.8678    0.0000 C   0  0  0  0  0  0  0  0  0  0  0  0
    6.6384   -2.3492    0.0000 C   0  0  0  0  0  0  0  0  0  0  0  0
    5.1978   -1.9313    0.0000 C   0  0  0  0  0  0  0  0  0  0  0  0
    3.7313   -1.6159    0.0000 C   0  0  0  0  0  0  0  0  0  0  0  0
    3.9895   -3.0936    0.0000 C   0  0  0  0  0  0  0  0  0  0  0  0
    2.6640   -3.7957    0.0000 C   0  0  0  0  0  0  0  0  0  0  0  0
    1.5866   -2.7520    0.0000 C   0  0  0  0  0  0  0  0  0  0  0  0
    2.2463   -1.4048    0.0000 C   0  0  0  0  0  0  0  0  0  0  0  0
    0.7500   -1.2990    0.0000 C   0  0  0  0  0  0  0  0  0  0  0  0
    1.5000    0.0000    0.0000 C   0  0  0  0  0  0  0  0  0  0  0  0
    0.7500    1.2990    0.0000 C   0  0  0  0  0  0  0  0  0  0  0  0
   -0.7500    1.2990    0.0000 C   0  0  0  0  0  0  0  0  0  0  0  0
   -1.5000    0.0000    0.0000 C   0  0  0  0  0  0  0  0  0  0  0  0
   -0.7500   -1.2990    0.0000 C   0  0  0  0  0  0  0  0  0  0  0  0
  1  2  1  0
  2  3  1  0
  3  4  1  0
  4  5  1  0
  5  6  1  0
  6  7  1  0
  7  8  1  0
  8  9  1  0
  9 10  1  0
 10 11  1  0
 11 12  1  0
 12 13  1  0
 13 14  1  0
 14 15  1  0
 15 16  1  0
 16 17  1  0
 17 18  1  0
 18 19  1  0
 19 20  1  0
 20 21  1  0
 21 22  1  0
 22 23  1  0
 23 24  1  0
 24 25  1  0
 25 26  1  0
 26 27  1  0
 27 28  1  0
 28 29  1  0
 29 30  1  0
 30 31  1  0
 31 32  1  0
 32 33  1  0
 33 34  1  0
 34 35  1  0
 35 36  1  0
 36 37  1  0
 37 38  1  0
 38 39  1  0
 39 40  1  0
 40 41  1  0
 41 42  1  0
 42 43  1  0
 43 44  1  0
 44 45  1  0
 45 46  1  0
 46 47  1  0
 47 48  1  0
 48 49  1  0
 49 50  1  0
 50 51  1  0
 51 52  1  0
 52 53  1  0
 53 54  1  0
 54 55  1  0
 55 56  1  0
 56 57  1  0
 57 58  1  0
 58 59  1  0
 59 60  1  0
 60 61  1  0
 61 62  1  0
 62 63  1  0
 63 64  1  0
 64 65  1  0
 65 66  1  0
 66 67  1  0
 67 68  1  0
 68 69  1  0
 69 70  1  0
 70 71  2  0
 71 72  1  0
 72 73  2  0
 73 74  1  0
 74 75  2  0
 75 76  1  0
 76 77  2  0
 77 78  1  0
 78 79  2  0
 79 80  1  0
 80 81  2  0
 81 82  1  0
 82 83  2  0
 83 84  1  0
 84 85  2  0
 85 86  1  0
 86 87  2  0
 87 88  1  0
 88 89  2  0
 89 90  1  0
 90 91  2  0
 91 92  1  0
 92 93  2  0
 93 94  1  0
 94 95  2  0
 95 96  1  0
 96 97  2  0
 97  2  1  0
 91 87  1  0
 97 92  1  0
M  END
>  <Title>  (1116) 
idABOZgen13

$$$$

     RDKit          2D

 91 93  0  0  0  0  0  0  0  0999 V2000
    3.3705    0.0000    0.0000 C   0  0  0  0  0  0  0  0  0  0  0  0
    3.0367   -1.4624    0.0000 C   0  0  0  0  0  0  0  0  0  0  0  0
    2.1015   -2.6351    0.0000 C   0  0  0  0  0  0  0  0  0  0  0  0
    0.7500   -3.2860    0.0000 C   0  0  0  0  0  0  0  0  0  0  0  0
   -0.7500   -3.2860    0.0000 C   0  0  0  0  0  0  0  0  0  0  0  0
   -2.1015   -2.6351    0.0000 C   0  0  0  0  0  0  0  0  0  0  0  0
   -1.2676   -3.8820    0.0000 C   0  0  0  0  0  0  0  0  0  0  0  0
   -2.7674   -3.8551    0.0000 C   0  0  0  0  0  0  0  0  0  0  0  0
   -3.5406   -5.1405    0.0000 C   0  0  0  0  0  0  0  0  0  0  0  0
   -2.8140   -6.4528    0.0000 C   0  0  0  0  0  0  0  0  0  0  0  0
   -1.3143   -6.4797    0.0000 C   0  0  0  0  0  0  0  0  0  0  0  0
   -0.5411   -5.1943    0.0000 C   0  0  0  0  0  0  0  0  0  0  0  0
    0.0731   -6.5628    0.0000 C   0  0  0  0  0  0  0  0  0  0  0  0
    0.5707   -7.9779    0.0000 C   0  0  0  0  0  0  0  0  0  0  0  0
    0.9480   -9.4296    0.0000 C   0  0  0  0  0  0  0  0  0  0  0  0
    1.2026  -10.9079    0.0000 C   0  0  0  0  0  0  0  0  0  0  0  0
    1.3326  -12.4022    0.0000 C   0  0  0  0  0  0  0  0  0  0  0  0
    1.3371  -13.9022    0.0000 C   0  0  0  0  0  0  0  0  0  0  0  0
    1.2161  -15.3973    0.0000 C   0  0  0  0  0  0  0  0  0  0  0  0
    0.9703  -16.8771    0.0000 C   0  0  0  0  0  0  0  0  0  0  0  0
    0.6016  -18.3311    0.0000 C   0  0  0  0  0  0  0  0  0  0  0  0
    0.1126  -19.7491    0.0000 C   0  0  0  0  0  0  0  0  0  0  0  0
   -0.4934  -21.1212    0.0000 C   0  0  0  0  0  0  0  0  0  0  0  0
   -1.2121  -22.4379    0.0000 C   0  0  0  0  0  0  0  0  0  0  0  0
   -2.0385  -23.6897    0.0000 C   0  0  0  0  0  0  0  0  0  0  0  0
   -2.9667  -24.8680    0.0000 C   0  0  0  0  0  0  0  0  0  0  0  0
   -3.9902  -25.9646    0.0000 C   0  0  0  0  0  0  0  0  0  0  0  0
   -5.1019  -26.9716    0.0000 C   0  0  0  0  0  0  0  0  0  0  0  0
   -6.2940  -27.8820    0.0000 C   0  0  0  0  0  0  0  0  0  0  0  0
   -7.5581  -28.6896    0.0000 C   0  0  0  0  0  0  0  0  0  0  0  0
   -8.8853  -29.3885    0.0000 C   0  0  0  0  0  0  0  0  0  0  0  0
  -10.2663  -29.9739    0.0000 C   0  0  0  0  0  0  0  0  0  0  0  0
  -11.6915  -30.4417    0.0000 C   0  0  0  0  0  0  0  0  0  0  0  0
  -13.1509  -30.7886    0.0000 C   0  0  0  0  0  0  0  0  0  0  0  0
  -14.6341  -31.0122    0.0000 C   0  0  0  0  0  0  0  0  0  0  0  0
  -16.1309  -31.1108    0.0000 C   0  0  0  0  0  0  0  0  0  0  0  0
  -17.6306  -31.0839    0.0000 C   0  0  0  0  0  0  0  0  0  0  0  0
  -19.1229  -30.9316    0.0000 C   0  0  0  0  0  0  0  0  0  0  0  0
  -20.5971  -30.6549    0.0000 C   0  0  0  0  0  0  0  0  0  0  0  0
  -22.0431  -30.2558    0.0000 C   0  0  0  0  0  0  0  0  0  0  0  0
  -23.4506  -29.7372    0.0000 C   0  0  0  0  0  0  0  0  0  0  0  0
  -24.8097  -29.1026    0.0000 C   0  0  0  0  0  0  0  0  0  0  0  0
  -26.1110  -28.3565    0.0000 C   0  0  0  0  0  0  0  0  0  0  0  0
  -27.3453  -27.5041    0.0000 C   0  0  0  0  0  0  0  0  0  0  0  0
  -28.5039  -26.5514    0.0000 C   0  0  0  0  0  0  0  0  0  0  0  0
  -29.5787  -25.5051    0.0000 C   0  0  0  0  0  0  0  0  0  0  0  0
  -30.5623  -24.3726    0.0000 C   0  0  0  0  0  0  0  0  0  0  0  0
  -31.4476  -23.1617    0.0000 C   0  0  0  0  0  0  0  0  0  0  0  0
  -32.2284  -21.8810    0.0000 C   0  0  0  0  0  0  0  0  0  0  0  0
  -32.8994  -20.5394    0.0000 C   0  0  0  0  0  0  0  0  0  0  0  0
  -33.4558  -19.1464    0.0000 C   0  0  0  0  0  0  0  0  0  0  0  0
  -33.8936  -17.7117    0.0000 C   0  0  0  0  0  0  0  0  0  0  0  0
  -34.2099  -16.2455    0.0000 C   0  0  0  0  0  0  0  0  0  0  0  0
  -34.4023  -14.7579    0.0000 C   0  0  0  0  0  0  0  0  0  0  0  0
  -34.4696  -13.2594    0.0000 C   0  0  0  0  0  0  0  0  0  0  0  0
  -34.4113  -11.7605    0.0000 C   0  0  0  0  0  0  0  0  0  0  0  0
  -34.2277  -10.2718    0.0000 C   0  0  0  0  0  0  0  0  0  0  0  0
  -33.9203   -8.8036    0.0000 C   0  0  0  0  0  0  0  0  0  0  0  0
  -33.4910   -7.3664    0.0000 C   0  0  0  0  0  0  0  0  0  0  0  0
  -32.9430   -5.9700    0.0000 C   0  0  0  0  0  0  0  0  0  0  0  0
  -32.2801   -4.6245    0.0000 C   0  0  0  0  0  0  0  0  0  0  0  0
  -31.5069   -3.3391    0.0000 C   0  0  0  0  0  0  0  0  0  0  0  0
  -30.6288   -2.1230    0.0000 C   0  0  0  0  0  0  0  0  0  0  0  0
  -29.6521   -0.9845    0.0000 C   0  0  0  0  0  0  0  0  0  0  0  0
  -28.5835    0.0682    0.0000 C   0  0  0  0  0  0  0  0  0  0  0  0
  -27.4306    1.0277    0.0000 C   0  0  0  0  0  0  0  0  0  0  0  0
  -26.2015    1.8875    0.0000 C   0  0  0  0  0  0  0  0  0  0  0  0
  -24.9047    2.6414    0.0000 C   0  0  0  0  0  0  0  0  0  0  0  0
  -23.5494    3.2841    0.0000 C   0  0  0  0  0  0  0  0  0  0  0  0
  -22.1450    3.8112    0.0000 C   0  0  0  0  0  0  0  0  0  0  0  0
  -20.7015    4.2189    0.0000 C   0  0  0  0  0  0  0  0  0  0  0  0
  -19.2289    4.5043    0.0000 C   0  0  0  0  0  0  0  0  0  0  0  0
  -17.7376    4.6656    0.0000 C   0  0  0  0  0  0  0  0  0  0  0  0
  -16.2380    4.7015    0.0000 C   0  0  0  0  0  0  0  0  0  0  0  0
  -14.7407    4.6118    0.0000 C   0  0  0  0  0  0  0  0  0  0  0  0
  -13.2561    4.3971    0.0000 C   0  0  0  0  0  0  0  0  0  0  0  0
  -11.7948    4.0590    0.0000 C   0  0  0  0  0  0  0  0  0  0  0  0
  -10.3668    3.5997    0.0000 C   0  0  0  0  0  0  0  0  0  0  0  0
   -8.9823    3.0226    0.0000 C   0  0  0  0  0  0  0  0  0  0  0  0
   -7.6509    2.3316    0.0000 C   0  0  0  0  0  0  0  0  0  0  0  0
   -6.3820    1.5317    0.0000 C   0  0  0  0  0  0  0  0  0  0  0  0
   -5.1845    0.6283    0.0000 C   0  0  0  0  0  0  0  0  0  0  0  0
   -4.0668   -0.3720    0.0000 C   0  0  0  0  0  0  0  0  0  0  0  0
   -3.0367   -1.4624    0.0000 C   0  0  0  0  0  0  0  0  0  0  0  0
   -3.3705    0.0000    0.0000 C   0  0  0  0  0  0  0  0  0  0  0  0
   -3.0367    1.4624    0.0000 C   0  0  0  0  0  0  0  0  0  0  0  0
   -2.1015    2.6351    0.0000 C   0  0  0  0  0  0  0  0  0  0  0  0
   -0.7500    3.2860    0.0000 C   0  0  0  0  0  0  0  0  0  0  0  0
    0.7500    3.2860    0.0000 C   0  0  0  0  0  0  0  0  0  0  0  0
    2.1015    2.6351    0.0000 C   0  0  0  0  0  0  0  0  0  0  0  0
    3.0367    1.4624    0.0000 C   0  0  0  0  0  0  0  0  0  0  0  0
  1  2  2  0
  2  3  1  0
  3  4  2  0
  4  5  1  0
  5  6  2  0
  6  7  1  0
  7  8  2  0
  8  9  1  0
  9 10  2  0
 10 11  1  0
 11 12  2  0
 12 13  1  0
 13 14  1  0
 14 15  1  0
 15 16  1  0
 16 17  1  0
 17 18  1  0
 18 19  1  0
 19 20  1  0
 20 21  1  0
 21 22  1  0
 22 23  1  0
 23 24  1  0
 24 25  1  0
 25 26  1  0
 26 27  1  0
 27 28  1  0
 28 29  1  0
 29 30  1  0
 30 31  1  0
 31 32  1  0
 32 33  1  0
 33 34  1  0
 34 35  1  0
 35 36  1  0
 36 37  1  0
 37 38  1  0
 38 39  1  0
 39 40  1  0
 40 41  1  0
 41 42  1  0
 42 43  1  0
 43 44  1  0
 44 45  1  0
 45 46  1  0
 46 47  1  0
 47 48  1  0
 48 49  1  0
 49 50  1  0
 50 51  1  0
 51 52  1  0
 52 53  1  0
 53 54  1  0
 54 55  1  0
 55 56  1  0
 56 57  1  0
 57 58  1  0
 58 59  1  0
 59 60  1  0
 60 61  1  0
 61 62  1  0
 62 63  1  0
 63 64  1  0
 64 65  1  0
 65 66  1  0
 66 67  1  0
 67 68  1  0
 68 69  1  0
 69 70  1  0
 70 71  1  0
 71 72  1  0
 72 73  1  0
 73 74  1  0
 74 75  1  0
 75 76  1  0
 76 77  1  0
 77 78  1  0
 78 79  1  0
 79 80  1  0
 80 81  1  0
 81 82  1  0
 82 83  1  0
 83 84  1  0
 84 85  1  0
 85 86  1  0
 86 87  1  0
 87 88  1  0
 88 89  2  0
 89 90  1  0
 90 91  2  0
 91  1  1  0
 84  6  1  0
 12  7  1  0
M  END
>  <Title>  (1117) 
idABPAgen13

$$$$

     RDKit          2D

  6  5  0  0  0  0  0  0  0  0999 V2000
    0.0000    0.0000    0.0000 C   0  0  0  0  0  0  0  0  0  0  0  0
    1.2990    0.7500    0.0000 C   0  0  0  0  0  0  0  0  0  0  0  0
    2.5981   -0.0000    0.0000 C   0  0  0  0  0  0  0  0  0  0  0  0
    3.8971    0.7500    0.0000 C   0  0  0  0  0  0  0  0  0  0  0  0
    5.1962   -0.0000    0.0000 C   0  0  0  0  0  0  0  0  0  0  0  0
    3.8971    2.2500    0.0000 N   0  0  0  0  0  0  0  0  0  0  0  0
  1  2  2  0
  2  3  1  0
  3  4  1  0
  4  5  1  0
  4  6  1  0
M  END
>  <Title>  (1118) 
idABPBgen13

$$$$

     RDKit          2D

 31 34  0  0  0  0  0  0  0  0999 V2000
    3.0000    0.0000    0.0000 C   0  0  0  0  0  0  0  0  0  0  0  0
    1.5000    0.0000    0.0000 C   0  0  0  0  0  0  0  0  0  0  0  0
    0.7500   -1.2990    0.0000 C   0  0  0  0  0  0  0  0  0  0  0  0
   -0.7500   -1.2990    0.0000 C   0  0  0  0  0  0  0  0  0  0  0  0
   -1.5000    0.0000    0.0000 C   0  0  0  0  0  0  0  0  0  0  0  0
   -3.0000    0.0000    0.0000 C   0  0  0  0  0  0  0  0  0  0  0  0
   -3.7500   -1.2990    0.0000 O   0  0  0  0  0  0  0  0  0  0  0  0
   -3.7500    1.2990    0.0000 N   0  0  0  0  0  0  0  0  0  0  0  0
   -5.2500    1.2990    0.0000 C   0  0  0  0  0  0  0  0  0  0  0  0
   -6.1317    0.0855    0.0000 N   0  0  0  0  0  0  0  0  0  0  0  0
   -7.5583    0.5490    0.0000 N   0  0  0  0  0  0  0  0  0  0  0  0
   -7.5583    2.0490    0.0000 N   0  0  0  0  0  0  0  0  0  0  0  0
   -6.1317    2.5126    0.0000 N   0  0  0  0  0  0  0  0  0  0  0  0
   -5.6682    3.9391    0.0000 N   0  0  0  0  0  0  0  0  0  0  0  0
   -6.5498    5.1527    0.0000 C   0  0  0  0  0  0  0  0  0  0  0  0
   -5.6682    6.3662    0.0000 C   0  0  0  0  0  0  0  0  0  0  0  0
   -4.2416    5.9027    0.0000 N   0  0  0  0  0  0  0  0  0  0  0  0
   -3.0280    6.7844    0.0000 C   0  0  0  0  0  0  0  0  0  0  0  0
   -3.1848    8.2761    0.0000 O   0  0  0  0  0  0  0  0  0  0  0  0
   -1.6577    6.1742    0.0000 N   0  0  0  0  0  0  0  0  0  0  0  0
   -0.4442    7.0559    0.0000 C   0  0  0  0  0  0  0  0  0  0  0  0
    0.9261    6.4458    0.0000 N   0  0  0  0  0  0  0  0  0  0  0  0
    2.1396    7.3275    0.0000 N   0  0  0  0  0  0  0  0  0  0  0  0
    1.9829    8.8193    0.0000 N   0  0  0  0  0  0  0  0  0  0  0  0
    0.6125    9.4294    0.0000 N   0  0  0  0  0  0  0  0  0  0  0  0
   -0.6010    8.5477    0.0000 N   0  0  0  0  0  0  0  0  0  0  0  0
   -4.2416    4.4027    0.0000 C   0  0  0  0  0  0  0  0  0  0  0  0
   -3.0280    3.5210    0.0000 O   0  0  0  0  0  0  0  0  0  0  0  0
   -0.7500    1.2990    0.0000 C   0  0  0  0  0  0  0  0  0  0  0  0
   -1.5000    2.5981    0.0000 O   0  0  0  0  0  0  0  0  0  0  0  0
    0.7500    1.2990    0.0000 N   0  0  0  0  0  0  0  0  0  0  0  0
  1  2  1  0
  2  3  2  0
  3  4  1  0
  4  5  2  0
  5  6  1  0
  6  7  2  0
  6  8  1  0
  8  9  1  0
  9 10  2  0
 10 11  1  0
 11 12  2  0
 12 13  1  0
 13 14  1  0
 14 15  1  0
 15 16  1  0
 16 17  1  0
 17 18  1  0
 18 19  2  0
 18 20  1  0
 20 21  1  0
 21 22  2  0
 22 23  1  0
 23 24  2  0
 24 25  1  0
 25 26  2  0
 17 27  1  0
 27 28  2  0
  5 29  1  0
 29 30  2  0
 29 31  1  0
 31  2  1  0
 13  9  1  0
 27 14  1  0
 26 21  1  0
M  END
>  <Title>  (1119) 
idABPCgen13

$$$$

     RDKit          2D

 37 41  0  0  0  0  0  0  0  0999 V2000
   -3.1965   -1.7857    0.0000 C   0  0  0  0  0  0  0  0  0  0  0  0
   -1.8107   -2.3597    0.0000 C   0  0  0  0  0  0  0  0  0  0  0  0
   -1.8107   -3.8597    0.0000 C   0  0  0  0  0  0  0  0  0  0  0  0
   -0.7500   -4.9204    0.0000 C   0  0  0  0  0  0  0  0  0  0  0  0
    0.7500   -4.9204    0.0000 C   0  0  0  0  0  0  0  0  0  0  0  0
    1.3240   -6.3062    0.0000 C   0  0  0  0  0  0  0  0  0  0  0  0
    2.8112   -6.5020    0.0000 O   0  0  0  0  0  0  0  0  0  0  0  0
    0.4109   -7.4962    0.0000 N   0  0  0  0  0  0  0  0  0  0  0  0
    0.9849   -8.8820    0.0000 C   0  0  0  0  0  0  0  0  0  0  0  0
    2.4435   -9.2322    0.0000 N   0  0  0  0  0  0  0  0  0  0  0  0
    2.5612  -10.7276    0.0000 N   0  0  0  0  0  0  0  0  0  0  0  0
    1.1753  -11.3016    0.0000 N   0  0  0  0  0  0  0  0  0  0  0  0
    0.2012  -10.1610    0.0000 N   0  0  0  0  0  0  0  0  0  0  0  0
   -1.2942  -10.2787    0.0000 N   0  0  0  0  0  0  0  0  0  0  0  0
   -2.0780  -11.5576    0.0000 C   0  0  0  0  0  0  0  0  0  0  0  0
   -3.5365  -11.2075    0.0000 C   0  0  0  0  0  0  0  0  0  0  0  0
   -3.6542   -9.7121    0.0000 C   0  0  0  0  0  0  0  0  0  0  0  0
   -4.9332   -8.9283    0.0000 C   0  0  0  0  0  0  0  0  0  0  0  0
   -6.2514   -9.6441    0.0000 O   0  0  0  0  0  0  0  0  0  0  0  0
   -4.8939   -7.4289    0.0000 N   0  0  0  0  0  0  0  0  0  0  0  0
   -6.1729   -6.6451    0.0000 C   0  0  0  0  0  0  0  0  0  0  0  0
   -6.1336   -5.1456    0.0000 N   0  0  0  0  0  0  0  0  0  0  0  0
   -7.4126   -4.3619    0.0000 N   0  0  0  0  0  0  0  0  0  0  0  0
   -8.7308   -5.0776    0.0000 N   0  0  0  0  0  0  0  0  0  0  0  0
   -8.7700   -6.5771    0.0000 N   0  0  0  0  0  0  0  0  0  0  0  0
   -7.4911   -7.3608    0.0000 N   0  0  0  0  0  0  0  0  0  0  0  0
   -2.2684   -9.1381    0.0000 C   0  0  0  0  0  0  0  0  0  0  0  0
   -1.9182   -7.6795    0.0000 O   0  0  0  0  0  0  0  0  0  0  0  0
    1.8107   -3.8597    0.0000 C   0  0  0  0  0  0  0  0  0  0  0  0
    3.1965   -4.4337    0.0000 O   0  0  0  0  0  0  0  0  0  0  0  0
    1.8107   -2.3597    0.0000 O   0  0  0  0  0  0  0  0  0  0  0  0
    0.7500   -1.2990    0.0000 C   0  0  0  0  0  0  0  0  0  0  0  0
    1.5000    0.0000    0.0000 C   0  0  0  0  0  0  0  0  0  0  0  0
    0.7500    1.2990    0.0000 C   0  0  0  0  0  0  0  0  0  0  0  0
   -0.7500    1.2990    0.0000 C   0  0  0  0  0  0  0  0  0  0  0  0
   -1.5000    0.0000    0.0000 C   0  0  0  0  0  0  0  0  0  0  0  0
   -0.7500   -1.2990    0.0000 C   0  0  0  0  0  0  0  0  0  0  0  0
  1  2  1  0
  2  3  2  0
  3  4  1  0
  4  5  2  0
  5  6  1  0
  6  7  2  0
  6  8  1  0
  8  9  1  0
  9 10  2  0
 10 11  1  0
 11 12  2  0
 12 13  1  0
 13 14  1  0
 14 15  1  0
 15 16  1  0
 16 17  1  0
 17 18  1  0
 18 19  2  0
 18 20  1  0
 20 21  1  0
 21 22  2  0
 22 23  1  0
 23 24  2  0
 24 25  1  0
 25 26  2  0
 17 27  1  0
 27 28  2  0
  5 29  1  0
 29 30  2  0
 29 31  1  0
 31 32  1  0
 32 33  2  0
 33 34  1  0
 34 35  2  0
 35 36  1  0
 36 37  2  0
 37  2  1  0
 13  9  1  0
 27 14  1  0
 37 32  1  0
 26 21  1  0
M  END
>  <Title>  (1120) 
idABPDgen13

$$$$

     RDKit          2D

 23 26  0  0  0  0  0  0  0  0999 V2000
   -1.3240   -6.3062    0.0000 C   0  0  0  0  0  0  0  0  0  0  0  0
   -0.7500   -4.9204    0.0000 C   0  0  0  0  0  0  0  0  0  0  0  0
    0.7500   -4.9204    0.0000 C   0  0  0  0  0  0  0  0  0  0  0  0
    1.8107   -3.8597    0.0000 C   0  0  0  0  0  0  0  0  0  0  0  0
    1.8107   -2.3597    0.0000 C   0  0  0  0  0  0  0  0  0  0  0  0
    3.1965   -1.7857    0.0000 N   0  0  0  0  0  0  0  0  0  0  0  0
    4.3865   -2.6988    0.0000 C   0  0  0  0  0  0  0  0  0  0  0  0
    5.7723   -2.1248    0.0000 C   0  0  0  0  0  0  0  0  0  0  0  0
    5.9681   -0.6376    0.0000 N   0  0  0  0  0  0  0  0  0  0  0  0
    4.7781    0.2755    0.0000 N   0  0  0  0  0  0  0  0  0  0  0  0
    3.3923   -0.2985    0.0000 N   0  0  0  0  0  0  0  0  0  0  0  0
    0.7500   -1.2990    0.0000 C   0  0  0  0  0  0  0  0  0  0  0  0
    1.5000    0.0000    0.0000 C   0  0  0  0  0  0  0  0  0  0  0  0
    0.7500    1.2990    0.0000 C   0  0  0  0  0  0  0  0  0  0  0  0
   -0.7500    1.2990    0.0000 C   0  0  0  0  0  0  0  0  0  0  0  0
   -1.5000    0.0000    0.0000 C   0  0  0  0  0  0  0  0  0  0  0  0
   -0.7500   -1.2990    0.0000 C   0  0  0  0  0  0  0  0  0  0  0  0
   -1.8107   -2.3597    0.0000 C   0  0  0  0  0  0  0  0  0  0  0  0
   -3.1097   -1.6097    0.0000 C   0  0  0  0  0  0  0  0  0  0  0  0
   -4.4087   -2.3597    0.0000 C   0  0  0  0  0  0  0  0  0  0  0  0
   -4.4087   -3.8597    0.0000 C   0  0  0  0  0  0  0  0  0  0  0  0
   -3.1097   -4.6097    0.0000 C   0  0  0  0  0  0  0  0  0  0  0  0
   -1.8107   -3.8597    0.0000 C   0  0  0  0  0  0  0  0  0  0  0  0
  1  2  1  0
  2  3  2  0
  3  4  1  0
  4  5  2  0
  5  6  1  0
  6  7  1  0
  7  8  1  0
  8  9  2  0
  9 10  1  0
 10 11  2  0
  5 12  1  0
 12 13  2  0
 13 14  1  0
 14 15  2  0
 15 16  1  0
 16 17  2  0
 17 18  1  0
 18 19  2  0
 19 20  1  0
 20 21  2  0
 21 22  1  0
 22 23  2  0
 23  2  1  0
 11  6  1  0
 17 12  1  0
 23 18  1  0
M  END
>  <Title>  (1121) 
idABPEgen13

$$$$

     RDKit          2D

  8  8  0  0  0  0  0  0  0  0999 V2000
    3.2286   -0.0000    0.0000 C   0  0  0  0  0  0  0  0  0  0  0  0
    1.7286    0.0000    0.0000 C   0  0  0  0  0  0  0  0  0  0  0  0
    1.0777    1.3515    0.0000 C   0  0  0  0  0  0  0  0  0  0  0  0
   -0.3846    1.6852    0.0000 C   0  0  0  0  0  0  0  0  0  0  0  0
   -1.5574    0.7500    0.0000 C   0  0  0  0  0  0  0  0  0  0  0  0
   -1.5574   -0.7500    0.0000 C   0  0  0  0  0  0  0  0  0  0  0  0
   -0.3846   -1.6852    0.0000 C   0  0  0  0  0  0  0  0  0  0  0  0
    1.0777   -1.3515    0.0000 N   0  0  0  0  0  0  0  0  0  0  0  0
  1  2  1  0
  2  3  2  0
  3  4  1  0
  4  5  1  0
  5  6  2  0
  6  7  1  0
  7  8  1  0
  8  2  1  0
M  END
>  <Title>  (1122) 
idABPFgen13

$$$$

     RDKit          2D

 19 20  0  0  0  0  0  0  0  0999 V2000
   -6.3696   -9.4956    0.0000 C   0  0  0  0  0  0  0  0  0  0  0  0
   -4.9023   -9.1838    0.0000 C   0  0  0  0  0  0  0  0  0  0  0  0
   -4.4388   -7.7572    0.0000 C   0  0  0  0  0  0  0  0  0  0  0  0
   -2.9716   -7.4453    0.0000 C   0  0  0  0  0  0  0  0  0  0  0  0
   -2.5081   -6.0187    0.0000 C   0  0  0  0  0  0  0  0  0  0  0  0
   -1.0409   -5.7068    0.0000 C   0  0  0  0  0  0  0  0  0  0  0  0
   -0.0372   -6.8216    0.0000 O   0  0  0  0  0  0  0  0  0  0  0  0
   -0.5773   -4.2803    0.0000 N   0  0  0  0  0  0  0  0  0  0  0  0
    0.8899   -3.9684    0.0000 C   0  0  0  0  0  0  0  0  0  0  0  0
    2.0046   -4.9721    0.0000 N   0  0  0  0  0  0  0  0  0  0  0  0
    3.3037   -4.2221    0.0000 N   0  0  0  0  0  0  0  0  0  0  0  0
    2.9918   -2.7549    0.0000 N   0  0  0  0  0  0  0  0  0  0  0  0
    1.5000   -2.5981    0.0000 N   0  0  0  0  0  0  0  0  0  0  0  0
    0.7500   -1.2990    0.0000 C   0  0  0  0  0  0  0  0  0  0  0  0
    1.5000    0.0000    0.0000 C   0  0  0  0  0  0  0  0  0  0  0  0
    0.7500    1.2990    0.0000 C   0  0  0  0  0  0  0  0  0  0  0  0
   -0.7500    1.2990    0.0000 C   0  0  0  0  0  0  0  0  0  0  0  0
   -1.5000    0.0000    0.0000 C   0  0  0  0  0  0  0  0  0  0  0  0
   -0.7500   -1.2990    0.0000 C   0  0  0  0  0  0  0  0  0  0  0  0
  1  2  2  0
  2  3  1  0
  3  4  1  0
  4  5  1  0
  5  6  1  0
  6  7  2  0
  6  8  1  0
  8  9  1  0
  9 10  2  0
 10 11  1  0
 11 12  2  0
 12 13  1  0
 13 14  1  0
 14 15  2  0
 15 16  1  0
 16 17  2  0
 17 18  1  0
 18 19  1  0
 13  9  1  0
 19 14  1  0
M  END
>  <Title>  (1123) 
idABPGgen13

$$$$

     RDKit          2D

  8  7  0  0  0  0  0  0  0  0999 V2000
    0.0000    0.0000    0.0000 C   0  0  0  0  0  0  0  0  0  0  0  0
   -0.0000   -1.5000    0.0000 C   0  0  0  0  0  0  0  0  0  0  0  0
   -0.0000   -3.0000    0.0000 C   0  0  0  0  0  0  0  0  0  0  0  0
    1.2990   -3.7500    0.0000 C   0  0  0  0  0  0  0  0  0  0  0  0
    1.2990   -5.2500    0.0000 C   0  0  0  0  0  0  0  0  0  0  0  0
    2.5981   -6.0000    0.0000 C   0  0  0  0  0  0  0  0  0  0  0  0
    2.5981   -7.5000    0.0000 C   0  0  0  0  0  0  0  0  0  0  0  0
    3.8971   -5.2500    0.0000 O   0  0  0  0  0  0  0  0  0  0  0  0
  1  2  3  0
  2  3  1  0
  3  4  2  3
  4  5  1  0
  5  6  1  0
  6  7  1  0
  6  8  2  0
M  END
>  <Title>  (1124) 
idABPHgen13

$$$$

     RDKit          2D

 30 29  0  0  0  0  0  0  0  0999 V2000
    0.0000    0.0000    0.0000 C   0  0  0  0  0  0  0  0  0  0  0  0
   -0.0000   -1.5000    0.0000 C   0  0  0  0  0  0  0  0  0  0  0  0
   -0.0000   -3.0000    0.0000 C   0  0  0  0  0  0  0  0  0  0  0  0
   -0.0000   -4.5000    0.0000 C   0  0  0  0  0  0  0  0  0  0  0  0
   -0.0000   -6.0000    0.0000 C   0  0  0  0  0  0  0  0  0  0  0  0
   -0.0000   -7.5000    0.0000 C   0  0  0  0  0  0  0  0  0  0  0  0
   -0.0000   -9.0000    0.0000 C   0  0  0  0  0  0  0  0  0  0  0  0
   -0.0000  -10.5000    0.0000 C   0  0  0  0  0  0  0  0  0  0  0  0
   -0.0000  -12.0000    0.0000 C   0  0  0  0  0  0  0  0  0  0  0  0
   -0.0000  -13.5000    0.0000 C   0  0  0  0  0  0  0  0  0  0  0  0
   -0.0000  -15.0000    0.0000 C   0  0  0  0  0  0  0  0  0  0  0  0
   -0.0000  -16.5000    0.0000 C   0  0  0  0  0  0  0  0  0  0  0  0
   -0.0000  -18.0000    0.0000 C   0  0  0  0  0  0  0  0  0  0  0  0
   -0.0000  -19.5000    0.0000 C   0  0  0  0  0  0  0  0  0  0  0  0
   -0.0000  -21.0000    0.0000 C   0  0  0  0  0  0  0  0  0  0  0  0
   -0.0000  -22.5000    0.0000 C   0  0  0  0  0  0  0  0  0  0  0  0
   -0.0000  -24.0000    0.0000 C   0  0  0  0  0  0  0  0  0  0  0  0
   -0.0000  -25.5000    0.0000 C   0  0  0  0  0  0  0  0  0  0  0  0
   -0.0000  -27.0000    0.0000 C   0  0  0  0  0  0  0  0  0  0  0  0
   -0.0000  -28.5000    0.0000 C   0  0  0  0  0  0  0  0  0  0  0  0
   -0.0000  -30.0000    0.0000 C   0  0  0  0  0  0  0  0  0  0  0  0
   -0.0000  -31.5000    0.0000 C   0  0  0  0  0  0  0  0  0  0  0  0
   -0.0000  -33.0000    0.0000 C   0  0  0  0  0  0  0  0  0  0  0  0
   -0.0000  -34.5000    0.0000 C   0  0  0  0  0  0  0  0  0  0  0  0
   -0.0000  -36.0000    0.0000 C   0  0  0  0  0  0  0  0  0  0  0  0
   -0.0000  -37.5000    0.0000 C   0  0  0  0  0  0  0  0  0  0  0  0
   -0.0000  -39.0000    0.0000 C   0  0  0  0  0  0  0  0  0  0  0  0
   -0.0000  -40.5000    0.0000 C   0  0  0  0  0  0  0  0  0  0  0  0
   -0.0000  -42.0000    0.0000 C   0  0  0  0  0  0  0  0  0  0  0  0
   -0.0000  -43.5000    0.0000 C   0  0  0  0  0  0  0  0  0  0  0  0
  1  2  3  0
  2  3  1  0
  3  4  3  0
  4  5  1  0
  5  6  3  0
  6  7  1  0
  7  8  3  0
  8  9  1  0
  9 10  3  0
 10 11  1  0
 11 12  3  0
 12 13  1  0
 13 14  3  0
 14 15  1  0
 15 16  3  0
 16 17  1  0
 17 18  3  0
 18 19  1  0
 19 20  3  0
 20 21  1  0
 21 22  3  0
 22 23  1  0
 23 24  3  0
 24 25  1  0
 25 26  3  0
 26 27  1  0
 27 28  3  0
 28 29  1  0
 29 30  3  0
M  END
>  <Title>  (1125) 
idABPIgen13

$$$$

     RDKit          2D

 15 16  0  0  0  0  0  0  0  0999 V2000
    7.2760   -2.5981    0.0000 C   0  0  0  0  0  0  0  0  0  0  0  0
    5.7760   -2.5981    0.0000 C   0  0  0  0  0  0  0  0  0  0  0  0
    5.0260   -1.2990    0.0000 C   0  0  0  0  0  0  0  0  0  0  0  0
    3.5260   -1.2990    0.0000 C   0  0  0  0  0  0  0  0  0  0  0  0
    2.7760    0.0000    0.0000 N   0  0  0  0  0  0  0  0  0  0  0  0
    1.2760    0.0000    0.0000 C   0  0  0  0  0  0  0  0  0  0  0  0
    0.3943    1.2135    0.0000 N   0  0  0  0  0  0  0  0  0  0  0  0
   -1.0323    0.7500    0.0000 N   0  0  0  0  0  0  0  0  0  0  0  0
   -1.0323   -0.7500    0.0000 N   0  0  0  0  0  0  0  0  0  0  0  0
    0.3943   -1.2135    0.0000 N   0  0  0  0  0  0  0  0  0  0  0  0
    0.8578   -2.6401    0.0000 C   0  0  0  0  0  0  0  0  0  0  0  0
    2.2844   -3.1036    0.0000 C   0  0  0  0  0  0  0  0  0  0  0  0
    2.2844   -4.6036    0.0000 C   0  0  0  0  0  0  0  0  0  0  0  0
    0.8578   -5.0672    0.0000 C   0  0  0  0  0  0  0  0  0  0  0  0
   -0.0239   -3.8536    0.0000 C   0  0  0  0  0  0  0  0  0  0  0  0
  1  2  2  0
  2  3  1  0
  3  4  1  0
  4  5  1  0
  5  6  1  0
  6  7  2  0
  7  8  1  0
  8  9  2  0
  9 10  1  0
 10 11  1  0
 11 12  2  0
 12 13  1  0
 13 14  2  0
 14 15  1  0
 10  6  1  0
 15 11  1  0
M  END
>  <Title>  (1126) 
idABPJgen13

$$$$

     RDKit          2D

 33 37  0  0  0  0  0  0  0  0999 V2000
   -3.0000   -2.5981    0.0000 C   0  0  0  0  0  0  0  0  0  0  0  0
   -1.5000   -2.5981    0.0000 C   0  0  0  0  0  0  0  0  0  0  0  0
   -0.7500   -3.8971    0.0000 C   0  0  0  0  0  0  0  0  0  0  0  0
    0.7500   -3.8971    0.0000 C   0  0  0  0  0  0  0  0  0  0  0  0
    1.5000   -2.5981    0.0000 C   0  0  0  0  0  0  0  0  0  0  0  0
    3.0000   -2.5981    0.0000 C   0  0  0  0  0  0  0  0  0  0  0  0
    3.7500   -1.2990    0.0000 O   0  0  0  0  0  0  0  0  0  0  0  0
    3.7500   -3.8971    0.0000 N   0  0  0  0  0  0  0  0  0  0  0  0
    5.2500   -3.8971    0.0000 C   0  0  0  0  0  0  0  0  0  0  0  0
    6.1317   -2.6836    0.0000 N   0  0  0  0  0  0  0  0  0  0  0  0
    7.5583   -3.1471    0.0000 N   0  0  0  0  0  0  0  0  0  0  0  0
    7.5583   -4.6471    0.0000 N   0  0  0  0  0  0  0  0  0  0  0  0
    6.1317   -5.1106    0.0000 N   0  0  0  0  0  0  0  0  0  0  0  0
    5.6682   -6.5372    0.0000 N   0  0  0  0  0  0  0  0  0  0  0  0
    4.3316   -7.2182    0.0000 C   0  0  0  0  0  0  0  0  0  0  0  0
    5.0126   -8.5547    0.0000 C   0  0  0  0  0  0  0  0  0  0  0  0
    4.5491   -9.9813    0.0000 C   0  0  0  0  0  0  0  0  0  0  0  0
    5.5528  -11.0960    0.0000 O   0  0  0  0  0  0  0  0  0  0  0  0
    3.0819  -10.2932    0.0000 N   0  0  0  0  0  0  0  0  0  0  0  0
    2.6184  -11.7198    0.0000 C   0  0  0  0  0  0  0  0  0  0  0  0
    1.1511  -12.0316    0.0000 N   0  0  0  0  0  0  0  0  0  0  0  0
    0.6876  -13.4582    0.0000 N   0  0  0  0  0  0  0  0  0  0  0  0
    1.6913  -14.5729    0.0000 N   0  0  0  0  0  0  0  0  0  0  0  0
    3.1585  -14.2611    0.0000 N   0  0  0  0  0  0  0  0  0  0  0  0
    3.6221  -12.8345    0.0000 N   0  0  0  0  0  0  0  0  0  0  0  0
    6.3491   -7.8737    0.0000 C   0  0  0  0  0  0  0  0  0  0  0  0
    7.7757   -8.3373    0.0000 O   0  0  0  0  0  0  0  0  0  0  0  0
    0.7500   -1.2990    0.0000 C   0  0  0  0  0  0  0  0  0  0  0  0
    1.5000    0.0000    0.0000 C   0  0  0  0  0  0  0  0  0  0  0  0
    0.7500    1.2990    0.0000 C   0  0  0  0  0  0  0  0  0  0  0  0
   -0.7500    1.2990    0.0000 C   0  0  0  0  0  0  0  0  0  0  0  0
   -1.5000    0.0000    0.0000 C   0  0  0  0  0  0  0  0  0  0  0  0
   -0.7500   -1.2990    0.0000 C   0  0  0  0  0  0  0  0  0  0  0  0
  1  2  1  0
  2  3  2  0
  3  4  1  0
  4  5  2  0
  5  6  1  0
  6  7  2  0
  6  8  1  0
  8  9  1  0
  9 10  2  0
 10 11  1  0
 11 12  2  0
 12 13  1  0
 13 14  1  0
 14 15  1  0
 15 16  2  0
 16 17  1  0
 17 18  2  0
 17 19  1  0
 19 20  1  0
 20 21  2  0
 21 22  1  0
 22 23  2  0
 23 24  1  0
 24 25  2  0
 16 26  1  0
 26 27  2  0
  5 28  1  0
 28 29  2  0
 29 30  1  0
 30 31  2  0
 31 32  1  0
 32 33  2  0
 33  2  1  0
 13  9  1  0
 26 14  1  0
 33 28  1  0
 25 20  1  0
M  END
>  <Title>  (1127) 
idABPKgen13

$$$$

     RDKit          2D

 34 38  0  0  0  0  0  0  0  0999 V2000
   -3.0000   -2.5981    0.0000 C   0  0  0  0  0  0  0  0  0  0  0  0
   -1.5000   -2.5981    0.0000 C   0  0  0  0  0  0  0  0  0  0  0  0
   -0.7500   -3.8971    0.0000 C   0  0  0  0  0  0  0  0  0  0  0  0
    0.7500   -3.8971    0.0000 C   0  0  0  0  0  0  0  0  0  0  0  0
    1.5000   -2.5981    0.0000 C   0  0  0  0  0  0  0  0  0  0  0  0
    3.0000   -2.5981    0.0000 C   0  0  0  0  0  0  0  0  0  0  0  0
    3.7500   -1.2990    0.0000 O   0  0  0  0  0  0  0  0  0  0  0  0
    3.7500   -3.8971    0.0000 N   0  0  0  0  0  0  0  0  0  0  0  0
    5.2500   -3.8971    0.0000 C   0  0  0  0  0  0  0  0  0  0  0  0
    6.1317   -2.6836    0.0000 N   0  0  0  0  0  0  0  0  0  0  0  0
    7.5583   -3.1471    0.0000 N   0  0  0  0  0  0  0  0  0  0  0  0
    7.5583   -4.6471    0.0000 N   0  0  0  0  0  0  0  0  0  0  0  0
    6.1317   -5.1106    0.0000 N   0  0  0  0  0  0  0  0  0  0  0  0
    5.6682   -6.5372    0.0000 N   0  0  0  0  0  0  0  0  0  0  0  0
    6.5498   -7.7508    0.0000 C   0  0  0  0  0  0  0  0  0  0  0  0
    5.6682   -8.9643    0.0000 C   0  0  0  0  0  0  0  0  0  0  0  0
    4.2416   -8.5008    0.0000 N   0  0  0  0  0  0  0  0  0  0  0  0
    3.0280   -9.3824    0.0000 C   0  0  0  0  0  0  0  0  0  0  0  0
    3.1848  -10.8742    0.0000 O   0  0  0  0  0  0  0  0  0  0  0  0
    1.6577   -8.7723    0.0000 N   0  0  0  0  0  0  0  0  0  0  0  0
    0.4442   -9.6540    0.0000 C   0  0  0  0  0  0  0  0  0  0  0  0
   -0.9261   -9.0439    0.0000 N   0  0  0  0  0  0  0  0  0  0  0  0
   -2.1396   -9.9256    0.0000 N   0  0  0  0  0  0  0  0  0  0  0  0
   -1.9829  -11.4174    0.0000 N   0  0  0  0  0  0  0  0  0  0  0  0
   -0.6125  -12.0275    0.0000 N   0  0  0  0  0  0  0  0  0  0  0  0
    0.6010  -11.1458    0.0000 N   0  0  0  0  0  0  0  0  0  0  0  0
    4.2416   -7.0008    0.0000 C   0  0  0  0  0  0  0  0  0  0  0  0
    3.0280   -6.1191    0.0000 O   0  0  0  0  0  0  0  0  0  0  0  0
    0.7500   -1.2990    0.0000 C   0  0  0  0  0  0  0  0  0  0  0  0
    1.5000    0.0000    0.0000 C   0  0  0  0  0  0  0  0  0  0  0  0
    0.7500    1.2990    0.0000 C   0  0  0  0  0  0  0  0  0  0  0  0
   -0.7500    1.2990    0.0000 C   0  0  0  0  0  0  0  0  0  0  0  0
   -1.5000    0.0000    0.0000 C   0  0  0  0  0  0  0  0  0  0  0  0
   -0.7500   -1.2990    0.0000 C   0  0  0  0  0  0  0  0  0  0  0  0
  1  2  1  0
  2  3  1  0
  3  4  2  0
  4  5  1  0
  5  6  1  0
  6  7  2  0
  6  8  1  0
  8  9  1  0
  9 10  2  0
 10 11  1  0
 11 12  2  0
 12 13  1  0
 13 14  1  0
 14 15  1  0
 15 16  1  0
 16 17  1  0
 17 18  1  0
 18 19  2  0
 18 20  1  0
 20 21  1  0
 21 22  2  0
 22 23  1  0
 23 24  2  0
 24 25  1  0
 25 26  2  0
 17 27  1  0
 27 28  2  0
  5 29  1  0
 29 30  2  0
 30 31  1  0
 31 32  2  0
 32 33  1  0
 33 34  2  0
 34  2  1  0
 13  9  1  0
 27 14  1  0
 34 29  1  0
 26 21  1  0
M  END
>  <Title>  (1128) 
idABPLgen13

$$$$

     RDKit          2D

 48 53  0  0  0  0  0  0  0  0999 V2000
   -6.0424    8.7807    0.0000 C   0  0  0  0  0  0  0  0  0  0  0  0
   -5.0387    7.6659    0.0000 C   0  0  0  0  0  0  0  0  0  0  0  0
   -5.5022    6.2394    0.0000 C   0  0  0  0  0  0  0  0  0  0  0  0
   -4.4985    5.1246    0.0000 C   0  0  0  0  0  0  0  0  0  0  0  0
   -4.9620    3.6981    0.0000 C   0  0  0  0  0  0  0  0  0  0  0  0
   -3.9583    2.5833    0.0000 O   0  0  0  0  0  0  0  0  0  0  0  0
   -4.4218    1.1568    0.0000 C   0  0  0  0  0  0  0  0  0  0  0  0
   -5.8891    0.8449    0.0000 O   0  0  0  0  0  0  0  0  0  0  0  0
   -3.4182    0.0420    0.0000 N   0  0  0  0  0  0  0  0  0  0  0  0
   -3.8817   -1.3846    0.0000 C   0  0  0  0  0  0  0  0  0  0  0  0
   -5.3083   -1.8481    0.0000 N   0  0  0  0  0  0  0  0  0  0  0  0
   -5.3083   -3.3481    0.0000 N   0  0  0  0  0  0  0  0  0  0  0  0
   -3.8817   -3.8116    0.0000 N   0  0  0  0  0  0  0  0  0  0  0  0
   -3.0000   -2.5981    0.0000 N   0  0  0  0  0  0  0  0  0  0  0  0
   -1.5000   -2.5981    0.0000 C   0  0  0  0  0  0  0  0  0  0  0  0
   -0.7500   -3.8971    0.0000 C   0  0  0  0  0  0  0  0  0  0  0  0
    0.7500   -3.8971    0.0000 C   0  0  0  0  0  0  0  0  0  0  0  0
    1.5000   -2.5981    0.0000 C   0  0  0  0  0  0  0  0  0  0  0  0
    3.0000   -2.5981    0.0000 O   0  0  0  0  0  0  0  0  0  0  0  0
    3.7500   -3.8971    0.0000 C   0  0  0  0  0  0  0  0  0  0  0  0
    3.0000   -5.1962    0.0000 O   0  0  0  0  0  0  0  0  0  0  0  0
    5.2500   -3.8971    0.0000 N   0  0  0  0  0  0  0  0  0  0  0  0
    6.0000   -5.1962    0.0000 C   0  0  0  0  0  0  0  0  0  0  0  0
    5.3899   -6.5665    0.0000 N   0  0  0  0  0  0  0  0  0  0  0  0
    6.5046   -7.5702    0.0000 N   0  0  0  0  0  0  0  0  0  0  0  0
    7.8037   -6.8202    0.0000 N   0  0  0  0  0  0  0  0  0  0  0  0
    7.4918   -5.3529    0.0000 N   0  0  0  0  0  0  0  0  0  0  0  0
    8.4955   -4.2382    0.0000 N   0  0  0  0  0  0  0  0  0  0  0  0
    8.1836   -2.7710    0.0000 C   0  0  0  0  0  0  0  0  0  0  0  0
    9.4826   -2.0210    0.0000 C   0  0  0  0  0  0  0  0  0  0  0  0
   10.5974   -3.0247    0.0000 C   0  0  0  0  0  0  0  0  0  0  0  0
   12.0646   -2.7128    0.0000 C   0  0  0  0  0  0  0  0  0  0  0  0
   13.0683   -3.8276    0.0000 O   0  0  0  0  0  0  0  0  0  0  0  0
   12.5281   -1.2863    0.0000 N   0  0  0  0  0  0  0  0  0  0  0  0
   11.5244   -0.1715    0.0000 C   0  0  0  0  0  0  0  0  0  0  0  0
   11.9879    1.2551    0.0000 N   0  0  0  0  0  0  0  0  0  0  0  0
   10.9842    2.3698    0.0000 N   0  0  0  0  0  0  0  0  0  0  0  0
    9.5170    2.0579    0.0000 N   0  0  0  0  0  0  0  0  0  0  0  0
    9.0535    0.6313    0.0000 N   0  0  0  0  0  0  0  0  0  0  0  0
   10.0572   -0.4834    0.0000 N   0  0  0  0  0  0  0  0  0  0  0  0
    9.9873   -4.3950    0.0000 C   0  0  0  0  0  0  0  0  0  0  0  0
   10.7373   -5.6941    0.0000 O   0  0  0  0  0  0  0  0  0  0  0  0
    0.7500   -1.2990    0.0000 C   0  0  0  0  0  0  0  0  0  0  0  0
    1.5000    0.0000    0.0000 C   0  0  0  0  0  0  0  0  0  0  0  0
    0.7500    1.2990    0.0000 C   0  0  0  0  0  0  0  0  0  0  0  0
   -0.7500    1.2990    0.0000 C   0  0  0  0  0  0  0  0  0  0  0  0
   -1.5000    0.0000    0.0000 C   0  0  0  0  0  0  0  0  0  0  0  0
   -0.7500   -1.2990    0.0000 C   0  0  0  0  0  0  0  0  0  0  0  0
  1  2  2  0
  2  3  1  0
  3  4  2  3
  4  5  1  0
  5  6  1  0
  6  7  1  0
  7  8  2  0
  7  9  1  0
  9 10  1  0
 10 11  2  0
 11 12  1  0
 12 13  2  0
 13 14  1  0
 14 15  1  0
 15 16  2  0
 16 17  1  0
 17 18  2  0
 18 19  1  0
 19 20  1  0
 20 21  2  0
 20 22  1  0
 22 23  1  0
 23 24  2  0
 24 25  1  0
 25 26  2  0
 26 27  1  0
 27 28  1  0
 28 29  1  0
 29 30  1  0
 30 31  1  0
 31 32  1  0
 32 33  2  0
 32 34  1  0
 34 35  1  0
 35 36  2  0
 36 37  1  0
 37 38  2  0
 38 39  1  0
 39 40  2  0
 31 41  1  0
 41 42  2  0
 18 43  1  0
 43 44  2  0
 44 45  1  0
 45 46  2  0
 46 47  1  0
 47 48  2  0
 14 10  1  0
 48 15  1  0
 27 23  1  0
 41 28  1  0
 48 43  1  0
 40 35  1  0
M  END
>  <Title>  (1129) 
idABPMgen13

$$$$

     RDKit          2D

 10 11  0  0  0  0  0  0  0  0999 V2000
   -2.9108    4.3555    0.0000 C   0  0  0  0  0  0  0  0  0  0  0  0
   -2.8323    2.8576    0.0000 C   0  0  0  0  0  0  0  0  0  0  0  0
   -4.0903    2.0406    0.0000 O   0  0  0  0  0  0  0  0  0  0  0  0
   -1.4958    2.1766    0.0000 N   0  0  0  0  0  0  0  0  0  0  0  0
   -0.0692    2.6401    0.0000 C   0  0  0  0  0  0  0  0  0  0  0  0
    0.3943    1.2135    0.0000 C   0  0  0  0  0  0  0  0  0  0  0  0
    1.2760    0.0000    0.0000 C   0  0  0  0  0  0  0  0  0  0  0  0
    0.3943   -1.2135    0.0000 C   0  0  0  0  0  0  0  0  0  0  0  0
   -1.0323   -0.7500    0.0000 C   0  0  0  0  0  0  0  0  0  0  0  0
   -1.0323    0.7500    0.0000 C   0  0  0  0  0  0  0  0  0  0  0  0
  1  2  1  0
  2  3  2  0
  2  4  1  0
  4  5  1  0
  5  6  1  0
  6  7  1  0
  7  8  1  0
  8  9  1  0
  9 10  2  0
 10  4  1  0
 10  6  1  0
M  END
>  <Title>  (1130) 
idABPNgen13

$$$$

     RDKit          2D

 13 12  0  0  0  0  0  0  0  0999 V2000
    0.0000    0.0000    0.0000 C   0  0  0  0  0  0  0  0  0  0  0  0
   -0.0000   -1.5000    0.0000 C   0  0  0  0  0  0  0  0  0  0  0  0
   -0.0000   -3.0000    0.0000 C   0  0  0  0  0  0  0  0  0  0  0  0
    1.2990   -3.7500    0.0000 C   0  0  0  0  0  0  0  0  0  0  0  0
    1.2990   -5.2500    0.0000 C   0  0  0  0  0  0  0  0  0  0  0  0
   -0.0000   -6.0000    0.0000 O   0  0  0  0  0  0  0  0  0  0  0  0
    2.5981   -6.0000    0.0000 N   0  0  0  0  0  0  0  0  0  0  0  0
    2.5981   -7.5000    0.0000 C   0  0  0  0  0  0  0  0  0  0  0  0
    3.8971   -8.2500    0.0000 C   0  0  0  0  0  0  0  0  0  0  0  0
    1.2990   -8.2500    0.0000 N   0  0  0  0  0  0  0  0  0  0  0  0
    1.2990   -9.7500    0.0000 C   0  0  0  0  0  0  0  0  0  0  0  0
   -0.0000  -10.5000    0.0000 C   0  0  0  0  0  0  0  0  0  0  0  0
    2.5981  -10.5000    0.0000 C   0  0  0  0  0  0  0  0  0  0  0  0
  1  2  3  0
  2  3  1  0
  3  4  1  0
  4  5  1  0
  5  6  2  0
  5  7  1  0
  7  8  1  0
  8  9  1  0
  8 10  1  0
 10 11  1  0
 11 12  1  0
 11 13  1  0
M  END
>  <Title>  (1131) 
idABPOgen13

$$$$

     RDKit          2D

 42 43  0  0  0  0  0  0  0  0999 V2000
   -2.4166   -0.9691    0.0000 C   0  0  0  0  0  0  0  0  0  0  0  0
   -2.5157    0.5276    0.0000 C   0  0  0  0  0  0  0  0  0  0  0  0
   -4.0155    0.5524    0.0000 C   0  0  0  0  0  0  0  0  0  0  0  0
   -5.4908    0.8237    0.0000 C   0  0  0  0  0  0  0  0  0  0  0  0
   -6.9012    1.3342    0.0000 C   0  0  0  0  0  0  0  0  0  0  0  0
   -8.2085    2.0698    0.0000 C   0  0  0  0  0  0  0  0  0  0  0  0
   -9.3768    3.0106    0.0000 C   0  0  0  0  0  0  0  0  0  0  0  0
  -10.3743    4.1308    0.0000 C   0  0  0  0  0  0  0  0  0  0  0  0
  -11.1739    5.3999    0.0000 C   0  0  0  0  0  0  0  0  0  0  0  0
  -11.7536    6.7834    0.0000 C   0  0  0  0  0  0  0  0  0  0  0  0
  -12.0978    8.2434    0.0000 C   0  0  0  0  0  0  0  0  0  0  0  0
  -12.1969    9.7401    0.0000 C   0  0  0  0  0  0  0  0  0  0  0  0
  -12.0483   11.2327    0.0000 C   0  0  0  0  0  0  0  0  0  0  0  0
  -11.6561   12.6805    0.0000 C   0  0  0  0  0  0  0  0  0  0  0  0
  -11.0309   14.0440    0.0000 C   0  0  0  0  0  0  0  0  0  0  0  0
  -10.1899   15.2860    0.0000 C   0  0  0  0  0  0  0  0  0  0  0  0
   -9.1558   16.3727    0.0000 C   0  0  0  0  0  0  0  0  0  0  0  0
   -7.9570   17.2743    0.0000 C   0  0  0  0  0  0  0  0  0  0  0  0
   -6.6262   17.9663    0.0000 C   0  0  0  0  0  0  0  0  0  0  0  0
   -5.1996   18.4298    0.0000 C   0  0  0  0  0  0  0  0  0  0  0  0
   -3.7162   18.6522    0.0000 C   0  0  0  0  0  0  0  0  0  0  0  0
   -2.2164   18.6274    0.0000 C   0  0  0  0  0  0  0  0  0  0  0  0
   -0.7411   18.3561    0.0000 C   0  0  0  0  0  0  0  0  0  0  0  0
    0.6693   17.8457    0.0000 C   0  0  0  0  0  0  0  0  0  0  0  0
    1.9766   17.1100    0.0000 C   0  0  0  0  0  0  0  0  0  0  0  0
    3.1449   16.1693    0.0000 C   0  0  0  0  0  0  0  0  0  0  0  0
    4.1424   15.0490    0.0000 C   0  0  0  0  0  0  0  0  0  0  0  0
    4.9420   13.7799    0.0000 C   0  0  0  0  0  0  0  0  0  0  0  0
    5.5217   12.3965    0.0000 C   0  0  0  0  0  0  0  0  0  0  0  0
    5.8658   10.9365    0.0000 C   0  0  0  0  0  0  0  0  0  0  0  0
    5.9650    9.4398    0.0000 C   0  0  0  0  0  0  0  0  0  0  0  0
    5.8164    7.9471    0.0000 C   0  0  0  0  0  0  0  0  0  0  0  0
    5.4242    6.4993    0.0000 C   0  0  0  0  0  0  0  0  0  0  0  0
    4.7990    5.1358    0.0000 C   0  0  0  0  0  0  0  0  0  0  0  0
    3.9579    3.8938    0.0000 C   0  0  0  0  0  0  0  0  0  0  0  0
    2.9239    2.8072    0.0000 C   0  0  0  0  0  0  0  0  0  0  0  0
    1.7251    1.9055    0.0000 C   0  0  0  0  0  0  0  0  0  0  0  0
    0.3943    1.2135    0.0000 C   0  0  0  0  0  0  0  0  0  0  0  0
    1.2760    0.0000    0.0000 C   0  0  0  0  0  0  0  0  0  0  0  0
    0.3943   -1.2135    0.0000 C   0  0  0  0  0  0  0  0  0  0  0  0
   -1.0323   -0.7500    0.0000 C   0  0  0  0  0  0  0  0  0  0  0  0
   -1.0323    0.7500    0.0000 C   0  0  0  0  0  0  0  0  0  0  0  0
  1  2  1  0
  2  3  1  0
  3  4  1  0
  4  5  1  0
  5  6  1  0
  6  7  1  0
  7  8  1  0
  8  9  1  0
  9 10  2  0
 10 11  1  0
 11 12  2  0
 12 13  1  0
 13 14  2  0
 14 15  1  0
 15 16  2  0
 16 17  1  0
 17 18  2  0
 18 19  1  0
 19 20  2  0
 20 21  1  0
 21 22  2  0
 22 23  1  0
 23 24  2  0
 24 25  1  0
 25 26  2  0
 26 27  1  0
 27 28  2  0
 28 29  1  0
 29 30  2  0
 30 31  1  0
 31 32  2  0
 32 33  1  0
 33 34  2  0
 34 35  1  0
 35 36  2  0
 36 37  1  0
 37 38  2  0
 38 39  1  0
 39 40  2  0
 40 41  1  0
 41 42  2  0
 42  2  1  0
 42 38  1  0
M  END
>  <Title>  (1132) 
idABPPgen13

$$$$

     RDKit          2D

 58 58  0  0  0  0  0  0  0  0999 V2000
   79.5000    0.0000    0.0000 C   0  0  0  0  0  0  0  0  0  0  0  0
   78.0000    0.0000    0.0000 C   0  0  0  0  0  0  0  0  0  0  0  0
   76.5000    0.0000    0.0000 C   0  0  0  0  0  0  0  0  0  0  0  0
   75.0000    0.0000    0.0000 C   0  0  0  0  0  0  0  0  0  0  0  0
   73.5000    0.0000    0.0000 C   0  0  0  0  0  0  0  0  0  0  0  0
   72.0000    0.0000    0.0000 C   0  0  0  0  0  0  0  0  0  0  0  0
   70.5000    0.0000    0.0000 C   0  0  0  0  0  0  0  0  0  0  0  0
   69.0000    0.0000    0.0000 C   0  0  0  0  0  0  0  0  0  0  0  0
   67.5000    0.0000    0.0000 C   0  0  0  0  0  0  0  0  0  0  0  0
   66.0000    0.0000    0.0000 C   0  0  0  0  0  0  0  0  0  0  0  0
   64.5000    0.0000    0.0000 C   0  0  0  0  0  0  0  0  0  0  0  0
   63.0000    0.0000    0.0000 C   0  0  0  0  0  0  0  0  0  0  0  0
   61.5000    0.0000    0.0000 C   0  0  0  0  0  0  0  0  0  0  0  0
   60.0000    0.0000    0.0000 C   0  0  0  0  0  0  0  0  0  0  0  0
   58.5000    0.0000    0.0000 C   0  0  0  0  0  0  0  0  0  0  0  0
   57.0000    0.0000    0.0000 C   0  0  0  0  0  0  0  0  0  0  0  0
   55.5000    0.0000    0.0000 C   0  0  0  0  0  0  0  0  0  0  0  0
   54.0000    0.0000    0.0000 C   0  0  0  0  0  0  0  0  0  0  0  0
   52.5000    0.0000    0.0000 C   0  0  0  0  0  0  0  0  0  0  0  0
   51.0000    0.0000    0.0000 C   0  0  0  0  0  0  0  0  0  0  0  0
   49.5000    0.0000    0.0000 C   0  0  0  0  0  0  0  0  0  0  0  0
   48.0000    0.0000    0.0000 C   0  0  0  0  0  0  0  0  0  0  0  0
   46.5000    0.0000    0.0000 C   0  0  0  0  0  0  0  0  0  0  0  0
   45.0000    0.0000    0.0000 C   0  0  0  0  0  0  0  0  0  0  0  0
   43.5000    0.0000    0.0000 C   0  0  0  0  0  0  0  0  0  0  0  0
   42.0000    0.0000    0.0000 C   0  0  0  0  0  0  0  0  0  0  0  0
   40.5000    0.0000    0.0000 C   0  0  0  0  0  0  0  0  0  0  0  0
   39.0000    0.0000    0.0000 C   0  0  0  0  0  0  0  0  0  0  0  0
   37.5000    0.0000    0.0000 C   0  0  0  0  0  0  0  0  0  0  0  0
   36.0000    0.0000    0.0000 C   0  0  0  0  0  0  0  0  0  0  0  0
   34.5000    0.0000    0.0000 C   0  0  0  0  0  0  0  0  0  0  0  0
   33.0000    0.0000    0.0000 C   0  0  0  0  0  0  0  0  0  0  0  0
   31.5000    0.0000    0.0000 C   0  0  0  0  0  0  0  0  0  0  0  0
   30.0000    0.0000    0.0000 C   0  0  0  0  0  0  0  0  0  0  0  0
   28.5000    0.0000    0.0000 C   0  0  0  0  0  0  0  0  0  0  0  0
   27.0000    0.0000    0.0000 C   0  0  0  0  0  0  0  0  0  0  0  0
   25.5000    0.0000    0.0000 C   0  0  0  0  0  0  0  0  0  0  0  0
   24.0000    0.0000    0.0000 C   0  0  0  0  0  0  0  0  0  0  0  0
   22.5000    0.0000    0.0000 C   0  0  0  0  0  0  0  0  0  0  0  0
   21.0000    0.0000    0.0000 C   0  0  0  0  0  0  0  0  0  0  0  0
   19.5000    0.0000    0.0000 C   0  0  0  0  0  0  0  0  0  0  0  0
   18.0000    0.0000    0.0000 C   0  0  0  0  0  0  0  0  0  0  0  0
   16.5000    0.0000    0.0000 C   0  0  0  0  0  0  0  0  0  0  0  0
   15.0000    0.0000    0.0000 C   0  0  0  0  0  0  0  0  0  0  0  0
   13.5000    0.0000    0.0000 C   0  0  0  0  0  0  0  0  0  0  0  0
   12.0000    0.0000    0.0000 C   0  0  0  0  0  0  0  0  0  0  0  0
   10.5000    0.0000    0.0000 C   0  0  0  0  0  0  0  0  0  0  0  0
    9.0000    0.0000    0.0000 C   0  0  0  0  0  0  0  0  0  0  0  0
    7.5000    0.0000    0.0000 C   0  0  0  0  0  0  0  0  0  0  0  0
    6.0000    0.0000    0.0000 C   0  0  0  0  0  0  0  0  0  0  0  0
    4.5000    0.0000    0.0000 C   0  0  0  0  0  0  0  0  0  0  0  0
    3.0000    0.0000    0.0000 C   0  0  0  0  0  0  0  0  0  0  0  0
    1.5000    0.0000    0.0000 C   0  0  0  0  0  0  0  0  0  0  0  0
    0.7500   -1.2990    0.0000 C   0  0  0  0  0  0  0  0  0  0  0  0
   -0.7500   -1.2990    0.0000 C   0  0  0  0  0  0  0  0  0  0  0  0
   -1.5000    0.0000    0.0000 C   0  0  0  0  0  0  0  0  0  0  0  0
   -0.7500    1.2990    0.0000 C   0  0  0  0  0  0  0  0  0  0  0  0
    0.7500    1.2990    0.0000 C   0  0  0  0  0  0  0  0  0  0  0  0
  1  2  3  0
  2  3  1  0
  3  4  3  0
  4  5  1  0
  5  6  3  0
  6  7  1  0
  7  8  3  0
  8  9  1  0
  9 10  3  0
 10 11  1  0
 11 12  3  0
 12 13  1  0
 13 14  3  0
 14 15  1  0
 15 16  3  0
 16 17  1  0
 17 18  3  0
 18 19  1  0
 19 20  3  0
 20 21  1  0
 21 22  3  0
 22 23  1  0
 23 24  3  0
 24 25  1  0
 25 26  3  0
 26 27  1  0
 27 28  3  0
 28 29  1  0
 29 30  3  0
 30 31  1  0
 31 32  3  0
 32 33  1  0
 33 34  3  0
 34 35  1  0
 35 36  3  0
 36 37  1  0
 37 38  3  0
 38 39  1  0
 39 40  3  0
 40 41  1  0
 41 42  3  0
 42 43  1  0
 43 44  3  0
 44 45  1  0
 45 46  3  0
 46 47  1  0
 47 48  3  0
 48 49  1  0
 49 50  3  0
 50 51  1  0
 51 52  3  0
 52 53  1  0
 53 54  2  0
 54 55  1  0
 55 56  2  0
 56 57  1  0
 57 58  2  0
 58 53  1  0
M  END
>  <Title>  (1133) 
idABPQgen13

$$$$

     RDKit          2D

 18 19  0  0  0  0  0  0  0  0999 V2000
   -4.9023   -9.1838    0.0000 C   0  0  0  0  0  0  0  0  0  0  0  0
   -4.4388   -7.7572    0.0000 C   0  0  0  0  0  0  0  0  0  0  0  0
   -2.9716   -7.4453    0.0000 C   0  0  0  0  0  0  0  0  0  0  0  0
   -2.5081   -6.0187    0.0000 C   0  0  0  0  0  0  0  0  0  0  0  0
   -1.0409   -5.7068    0.0000 C   0  0  0  0  0  0  0  0  0  0  0  0
   -0.0372   -6.8216    0.0000 O   0  0  0  0  0  0  0  0  0  0  0  0
   -0.5773   -4.2803    0.0000 N   0  0  0  0  0  0  0  0  0  0  0  0
    0.8899   -3.9684    0.0000 C   0  0  0  0  0  0  0  0  0  0  0  0
    2.0046   -4.9721    0.0000 N   0  0  0  0  0  0  0  0  0  0  0  0
    3.3037   -4.2221    0.0000 N   0  0  0  0  0  0  0  0  0  0  0  0
    2.9918   -2.7549    0.0000 N   0  0  0  0  0  0  0  0  0  0  0  0
    1.5000   -2.5981    0.0000 N   0  0  0  0  0  0  0  0  0  0  0  0
    0.7500   -1.2990    0.0000 C   0  0  0  0  0  0  0  0  0  0  0  0
    1.5000    0.0000    0.0000 C   0  0  0  0  0  0  0  0  0  0  0  0
    0.7500    1.2990    0.0000 C   0  0  0  0  0  0  0  0  0  0  0  0
   -0.7500    1.2990    0.0000 C   0  0  0  0  0  0  0  0  0  0  0  0
   -1.5000    0.0000    0.0000 C   0  0  0  0  0  0  0  0  0  0  0  0
   -0.7500   -1.2990    0.0000 C   0  0  0  0  0  0  0  0  0  0  0  0
  1  2  2  0
  2  3  1  0
  3  4  1  0
  4  5  1  0
  5  6  2  0
  5  7  1  0
  7  8  1  0
  8  9  2  0
  9 10  1  0
 10 11  2  0
 11 12  1  0
 12 13  1  0
 13 14  2  0
 14 15  1  0
 15 16  2  0
 16 17  1  0
 17 18  2  0
 12  8  1  0
 18 13  1  0
M  END
>  <Title>  (1134) 
idABPRgen13

$$$$

     RDKit          2D

 40 45  0  0  0  0  0  0  0  0999 V2000
   -1.3240   -6.3062    0.0000 C   0  0  0  0  0  0  0  0  0  0  0  0
   -0.7500   -4.9204    0.0000 C   0  0  0  0  0  0  0  0  0  0  0  0
    0.7500   -4.9204    0.0000 C   0  0  0  0  0  0  0  0  0  0  0  0
    1.8107   -3.8597    0.0000 C   0  0  0  0  0  0  0  0  0  0  0  0
    1.8107   -2.3597    0.0000 C   0  0  0  0  0  0  0  0  0  0  0  0
    3.1965   -1.7857    0.0000 C   0  0  0  0  0  0  0  0  0  0  0  0
    3.3923   -0.2985    0.0000 O   0  0  0  0  0  0  0  0  0  0  0  0
    4.3865   -2.6988    0.0000 N   0  0  0  0  0  0  0  0  0  0  0  0
    5.7723   -2.1248    0.0000 C   0  0  0  0  0  0  0  0  0  0  0  0
    6.1225   -0.6662    0.0000 N   0  0  0  0  0  0  0  0  0  0  0  0
    7.6179   -0.5485    0.0000 N   0  0  0  0  0  0  0  0  0  0  0  0
    8.1919   -1.9344    0.0000 N   0  0  0  0  0  0  0  0  0  0  0  0
    7.0513   -2.9085    0.0000 N   0  0  0  0  0  0  0  0  0  0  0  0
    7.1690   -4.4039    0.0000 N   0  0  0  0  0  0  0  0  0  0  0  0
    8.4479   -5.1877    0.0000 C   0  0  0  0  0  0  0  0  0  0  0  0
    8.0978   -6.6462    0.0000 C   0  0  0  0  0  0  0  0  0  0  0  0
    6.6024   -6.7639    0.0000 N   0  0  0  0  0  0  0  0  0  0  0  0
    5.8186   -8.0429    0.0000 C   0  0  0  0  0  0  0  0  0  0  0  0
    6.5344   -9.3611    0.0000 O   0  0  0  0  0  0  0  0  0  0  0  0
    4.3192   -8.0036    0.0000 N   0  0  0  0  0  0  0  0  0  0  0  0
    3.5354   -9.2826    0.0000 C   0  0  0  0  0  0  0  0  0  0  0  0
    2.0359   -9.2433    0.0000 N   0  0  0  0  0  0  0  0  0  0  0  0
    1.2522  -10.5223    0.0000 N   0  0  0  0  0  0  0  0  0  0  0  0
    1.9679  -11.8405    0.0000 N   0  0  0  0  0  0  0  0  0  0  0  0
    3.4674  -11.8797    0.0000 N   0  0  0  0  0  0  0  0  0  0  0  0
    4.2512  -10.6008    0.0000 N   0  0  0  0  0  0  0  0  0  0  0  0
    6.0284   -5.3781    0.0000 C   0  0  0  0  0  0  0  0  0  0  0  0
    4.5698   -5.0279    0.0000 O   0  0  0  0  0  0  0  0  0  0  0  0
    0.7500   -1.2990    0.0000 C   0  0  0  0  0  0  0  0  0  0  0  0
    1.5000    0.0000    0.0000 C   0  0  0  0  0  0  0  0  0  0  0  0
    0.7500    1.2990    0.0000 C   0  0  0  0  0  0  0  0  0  0  0  0
   -0.7500    1.2990    0.0000 C   0  0  0  0  0  0  0  0  0  0  0  0
   -1.5000    0.0000    0.0000 C   0  0  0  0  0  0  0  0  0  0  0  0
   -0.7500   -1.2990    0.0000 C   0  0  0  0  0  0  0  0  0  0  0  0
   -1.8107   -2.3597    0.0000 C   0  0  0  0  0  0  0  0  0  0  0  0
   -3.1097   -1.6097    0.0000 C   0  0  0  0  0  0  0  0  0  0  0  0
   -4.4087   -2.3597    0.0000 C   0  0  0  0  0  0  0  0  0  0  0  0
   -4.4087   -3.8597    0.0000 C   0  0  0  0  0  0  0  0  0  0  0  0
   -3.1097   -4.6097    0.0000 C   0  0  0  0  0  0  0  0  0  0  0  0
   -1.8107   -3.8597    0.0000 C   0  0  0  0  0  0  0  0  0  0  0  0
  1  2  1  0
  2  3  1  0
  3  4  1  0
  4  5  1  0
  5  6  1  0
  6  7  2  0
  6  8  1  0
  8  9  1  0
  9 10  2  0
 10 11  1  0
 11 12  2  0
 12 13  1  0
 13 14  1  0
 14 15  1  0
 15 16  1  0
 16 17  1  0
 17 18  1  0
 18 19  2  0
 18 20  1  0
 20 21  1  0
 21 22  2  0
 22 23  1  0
 23 24  2  0
 24 25  1  0
 25 26  2  0
 17 27  1  0
 27 28  2  0
  5 29  1  0
 29 30  2  0
 30 31  1  0
 31 32  2  0
 32 33  1  0
 33 34  2  0
 34 35  1  0
 35 36  2  0
 36 37  1  0
 37 38  2  0
 38 39  1  0
 39 40  2  0
 40  2  1  0
 13  9  1  0
 27 14  1  0
 34 29  1  0
 40 35  1  0
 26 21  1  0
M  END
>  <Title>  (1135) 
idABPSgen13

$$$$

     RDKit          2D

 92 94  0  0  0  0  0  0  0  0999 V2000
   10.4602    7.9241    0.0000 C   0  0  0  0  0  0  0  0  0  0  0  0
   11.8654    7.3992    0.0000 C   0  0  0  0  0  0  0  0  0  0  0  0
   12.4988    8.7589    0.0000 C   0  0  0  0  0  0  0  0  0  0  0  0
   13.3372   10.0028    0.0000 C   0  0  0  0  0  0  0  0  0  0  0  0
   14.3598   11.1002    0.0000 C   0  0  0  0  0  0  0  0  0  0  0  0
   15.5415   12.0241    0.0000 C   0  0  0  0  0  0  0  0  0  0  0  0
   16.8531   12.7518    0.0000 C   0  0  0  0  0  0  0  0  0  0  0  0
   18.2625   13.2653    0.0000 C   0  0  0  0  0  0  0  0  0  0  0  0
   19.7348   13.5521    0.0000 C   0  0  0  0  0  0  0  0  0  0  0  0
   21.2339   13.6049    0.0000 C   0  0  0  0  0  0  0  0  0  0  0  0
   22.7228   13.4227    0.0000 C   0  0  0  0  0  0  0  0  0  0  0  0
   24.1648   13.0097    0.0000 C   0  0  0  0  0  0  0  0  0  0  0  0
   25.5245   12.3763    0.0000 C   0  0  0  0  0  0  0  0  0  0  0  0
   26.7684   11.5379    0.0000 C   0  0  0  0  0  0  0  0  0  0  0  0
   27.8658   10.5153    0.0000 C   0  0  0  0  0  0  0  0  0  0  0  0
   28.7897    9.3336    0.0000 C   0  0  0  0  0  0  0  0  0  0  0  0
   29.5174    8.0220    0.0000 C   0  0  0  0  0  0  0  0  0  0  0  0
   30.0309    6.6126    0.0000 C   0  0  0  0  0  0  0  0  0  0  0  0
   30.3176    5.1403    0.0000 C   0  0  0  0  0  0  0  0  0  0  0  0
   30.3705    3.6412    0.0000 C   0  0  0  0  0  0  0  0  0  0  0  0
   30.1882    2.1523    0.0000 C   0  0  0  0  0  0  0  0  0  0  0  0
   29.7753    0.7103    0.0000 C   0  0  0  0  0  0  0  0  0  0  0  0
   29.1419   -0.6494    0.0000 C   0  0  0  0  0  0  0  0  0  0  0  0
   28.3035   -1.8933    0.0000 C   0  0  0  0  0  0  0  0  0  0  0  0
   27.2809   -2.9907    0.0000 C   0  0  0  0  0  0  0  0  0  0  0  0
   26.0992   -3.9146    0.0000 C   0  0  0  0  0  0  0  0  0  0  0  0
   24.7876   -4.6423    0.0000 C   0  0  0  0  0  0  0  0  0  0  0  0
   23.3782   -5.1558    0.0000 C   0  0  0  0  0  0  0  0  0  0  0  0
   21.9059   -5.4425    0.0000 C   0  0  0  0  0  0  0  0  0  0  0  0
   20.4068   -5.4954    0.0000 C   0  0  0  0  0  0  0  0  0  0  0  0
   18.9179   -5.3131    0.0000 C   0  0  0  0  0  0  0  0  0  0  0  0
   17.4759   -4.9002    0.0000 C   0  0  0  0  0  0  0  0  0  0  0  0
   16.1162   -4.2667    0.0000 C   0  0  0  0  0  0  0  0  0  0  0  0
   14.8723   -3.4284    0.0000 C   0  0  0  0  0  0  0  0  0  0  0  0
   13.7749   -2.4058    0.0000 C   0  0  0  0  0  0  0  0  0  0  0  0
   12.8510   -1.2241    0.0000 C   0  0  0  0  0  0  0  0  0  0  0  0
   12.1233    0.0876    0.0000 C   0  0  0  0  0  0  0  0  0  0  0  0
   11.6098    1.4969    0.0000 C   0  0  0  0  0  0  0  0  0  0  0  0
   11.0059   -0.0000    0.0000 C   0  0  0  0  0  0  0  0  0  0  0  0
   10.9155   -1.4074    0.0000 C   0  0  0  0  0  0  0  0  0  0  0  0
   10.6460   -2.7917    0.0000 C   0  0  0  0  0  0  0  0  0  0  0  0
   10.2016   -4.1302    0.0000 C   0  0  0  0  0  0  0  0  0  0  0  0
    9.5897   -5.4008    0.0000 C   0  0  0  0  0  0  0  0  0  0  0  0
    8.8203   -6.5827    0.0000 C   0  0  0  0  0  0  0  0  0  0  0  0
    7.9061   -7.6566    0.0000 C   0  0  0  0  0  0  0  0  0  0  0  0
    6.8621   -8.6048    0.0000 C   0  0  0  0  0  0  0  0  0  0  0  0
    5.7054   -9.4116    0.0000 C   0  0  0  0  0  0  0  0  0  0  0  0
    4.4550  -10.0639    0.0000 C   0  0  0  0  0  0  0  0  0  0  0  0
    3.1315  -10.5510    0.0000 C   0  0  0  0  0  0  0  0  0  0  0  0
    1.7565  -10.8648    0.0000 C   0  0  0  0  0  0  0  0  0  0  0  0
    0.3528  -11.0003    0.0000 C   0  0  0  0  0  0  0  0  0  0  0  0
   -1.0568  -10.9550    0.0000 C   0  0  0  0  0  0  0  0  0  0  0  0
   -2.4490  -10.7300    0.0000 C   0  0  0  0  0  0  0  0  0  0  0  0
   -3.8011  -10.3287    0.0000 C   0  0  0  0  0  0  0  0  0  0  0  0
   -5.0907   -9.7578    0.0000 C   0  0  0  0  0  0  0  0  0  0  0  0
   -6.2967   -9.0267    0.0000 C   0  0  0  0  0  0  0  0  0  0  0  0
   -7.3993   -8.1474    0.0000 C   0  0  0  0  0  0  0  0  0  0  0  0
   -8.3804   -7.1343    0.0000 C   0  0  0  0  0  0  0  0  0  0  0  0
   -9.2239   -6.0041    0.0000 C   0  0  0  0  0  0  0  0  0  0  0  0
   -9.9160   -4.7753    0.0000 C   0  0  0  0  0  0  0  0  0  0  0  0
  -10.4452   -3.4681    0.0000 C   0  0  0  0  0  0  0  0  0  0  0  0
  -10.8029   -2.1039    0.0000 C   0  0  0  0  0  0  0  0  0  0  0  0
  -10.9833   -0.7052    0.0000 C   0  0  0  0  0  0  0  0  0  0  0  0
  -10.9833    0.7052    0.0000 C   0  0  0  0  0  0  0  0  0  0  0  0
  -10.8029    2.1039    0.0000 C   0  0  0  0  0  0  0  0  0  0  0  0
  -10.4452    3.4681    0.0000 C   0  0  0  0  0  0  0  0  0  0  0  0
   -9.9160    4.7753    0.0000 C   0  0  0  0  0  0  0  0  0  0  0  0
   -9.2239    6.0041    0.0000 C   0  0  0  0  0  0  0  0  0  0  0  0
   -8.3804    7.1343    0.0000 C   0  0  0  0  0  0  0  0  0  0  0  0
   -7.3993    8.1474    0.0000 C   0  0  0  0  0  0  0  0  0  0  0  0
   -6.2967    9.0267    0.0000 C   0  0  0  0  0  0  0  0  0  0  0  0
   -5.0907    9.7578    0.0000 C   0  0  0  0  0  0  0  0  0  0  0  0
   -3.8011   10.3287    0.0000 C   0  0  0  0  0  0  0  0  0  0  0  0
   -2.4490   10.7300    0.0000 C   0  0  0  0  0  0  0  0  0  0  0  0
   -1.0568   10.9550    0.0000 C   0  0  0  0  0  0  0  0  0  0  0  0
    0.3528   11.0003    0.0000 C   0  0  0  0  0  0  0  0  0  0  0  0
    1.7565   10.8648    0.0000 C   0  0  0  0  0  0  0  0  0  0  0  0
    3.1315   10.5510    0.0000 C   0  0  0  0  0  0  0  0  0  0  0  0
    4.4550   10.0639    0.0000 C   0  0  0  0  0  0  0  0  0  0  0  0
    5.7054    9.4116    0.0000 C   0  0  0  0  0  0  0  0  0  0  0  0
    6.8621    8.6048    0.0000 C   0  0  0  0  0  0  0  0  0  0  0  0
    7.9061    7.6566    0.0000 C   0  0  0  0  0  0  0  0  0  0  0  0
    8.8203    6.5827    0.0000 C   0  0  0  0  0  0  0  0  0  0  0  0
    9.5897    5.4008    0.0000 C   0  0  0  0  0  0  0  0  0  0  0  0
   10.2016    4.1302    0.0000 C   0  0  0  0  0  0  0  0  0  0  0  0
   11.3231    2.9693    0.0000 C   0  0  0  0  0  0  0  0  0  0  0  0
   11.2702    4.4683    0.0000 C   0  0  0  0  0  0  0  0  0  0  0  0
   12.4685    3.5660    0.0000 C   0  0  0  0  0  0  0  0  0  0  0  0
   13.8490    4.1526    0.0000 C   0  0  0  0  0  0  0  0  0  0  0  0
   14.0313    5.6415    0.0000 C   0  0  0  0  0  0  0  0  0  0  0  0
   12.8330    6.5438    0.0000 C   0  0  0  0  0  0  0  0  0  0  0  0
   11.4525    5.9572    0.0000 C   0  0  0  0  0  0  0  0  0  0  0  0
  1  2  1  0
  2  3  1  0
  3  4  1  0
  4  5  1  0
  5  6  1  0
  6  7  1  0
  7  8  1  0
  8  9  1  0
  9 10  1  0
 10 11  1  0
 11 12  1  0
 12 13  1  0
 13 14  1  0
 14 15  1  0
 15 16  1  0
 16 17  1  0
 17 18  1  0
 18 19  1  0
 19 20  1  0
 20 21  1  0
 21 22  1  0
 22 23  1  0
 23 24  1  0
 24 25  1  0
 25 26  1  0
 26 27  1  0
 27 28  1  0
 28 29  1  0
 29 30  1  0
 30 31  1  0
 31 32  1  0
 32 33  1  0
 33 34  1  0
 34 35  1  0
 35 36  1  0
 36 37  1  0
 37 38  1  0
 38 39  1  0
 39 40  2  0
 40 41  1  0
 41 42  2  0
 42 43  1  0
 43 44  2  0
 44 45  1  0
 45 46  2  0
 46 47  1  0
 47 48  2  0
 48 49  1  0
 49 50  2  0
 50 51  1  0
 51 52  2  0
 52 53  1  0
 53 54  2  0
 54 55  1  0
 55 56  2  0
 56 57  1  0
 57 58  2  0
 58 59  1  0
 59 60  2  0
 60 61  1  0
 61 62  2  0
 62 63  1  0
 63 64  2  0
 64 65  1  0
 65 66  2  0
 66 67  1  0
 67 68  2  0
 68 69  1  0
 69 70  2  0
 70 71  1  0
 71 72  2  0
 72 73  1  0
 73 74  2  0
 74 75  1  0
 75 76  2  0
 76 77  1  0
 77 78  2  0
 78 79  1  0
 79 80  2  0
 80 81  1  0
 81 82  2  0
 82 83  1  0
 83 84  2  0
 84 85  1  0
 85 86  2  0
 86 87  1  0
 87 88  2  0
 88 89  1  0
 89 90  2  0
 90 91  1  0
 91 92  2  0
 92  2  1  0
 86 38  1  0
 92 87  1  0
M  END
>  <Title>  (1136) 
idABPTgen13

$$$$

     RDKit          2D

106108  0  0  0  0  0  0  0  0999 V2000
   -2.3910    0.0979    0.0000 C   0  0  0  0  0  0  0  0  0  0  0  0
   -2.2469   -1.3951    0.0000 C   0  0  0  0  0  0  0  0  0  0  0  0
   -3.7346   -1.5870    0.0000 C   0  0  0  0  0  0  0  0  0  0  0  0
   -5.2069   -1.8737    0.0000 C   0  0  0  0  0  0  0  0  0  0  0  0
   -6.6579   -2.2542    0.0000 C   0  0  0  0  0  0  0  0  0  0  0  0
   -8.0815   -2.7268    0.0000 C   0  0  0  0  0  0  0  0  0  0  0  0
   -9.4718   -3.2897    0.0000 C   0  0  0  0  0  0  0  0  0  0  0  0
  -10.8233   -3.9406    0.0000 C   0  0  0  0  0  0  0  0  0  0  0  0
  -12.1303   -4.6766    0.0000 C   0  0  0  0  0  0  0  0  0  0  0  0
  -13.3874   -5.4949    0.0000 C   0  0  0  0  0  0  0  0  0  0  0  0
  -14.5895   -6.3921    0.0000 C   0  0  0  0  0  0  0  0  0  0  0  0
  -15.7317   -7.3645    0.0000 C   0  0  0  0  0  0  0  0  0  0  0  0
  -16.8092   -8.4080    0.0000 C   0  0  0  0  0  0  0  0  0  0  0  0
  -17.8177   -9.5184    0.0000 C   0  0  0  0  0  0  0  0  0  0  0  0
  -18.7529  -10.6911    0.0000 C   0  0  0  0  0  0  0  0  0  0  0  0
  -19.6111  -11.9214    0.0000 C   0  0  0  0  0  0  0  0  0  0  0  0
  -20.3887  -13.2041    0.0000 C   0  0  0  0  0  0  0  0  0  0  0  0
  -21.0825  -14.5340    0.0000 C   0  0  0  0  0  0  0  0  0  0  0  0
  -21.6897  -15.9056    0.0000 C   0  0  0  0  0  0  0  0  0  0  0  0
  -22.2077  -17.3133    0.0000 C   0  0  0  0  0  0  0  0  0  0  0  0
  -22.6345  -18.7513    0.0000 C   0  0  0  0  0  0  0  0  0  0  0  0
  -22.9683  -20.2137    0.0000 C   0  0  0  0  0  0  0  0  0  0  0  0
  -23.2077  -21.6945    0.0000 C   0  0  0  0  0  0  0  0  0  0  0  0
  -23.3517  -23.1876    0.0000 C   0  0  0  0  0  0  0  0  0  0  0  0
  -23.3998  -24.6868    0.0000 C   0  0  0  0  0  0  0  0  0  0  0  0
  -23.3517  -26.1860    0.0000 C   0  0  0  0  0  0  0  0  0  0  0  0
  -23.2077  -27.6791    0.0000 C   0  0  0  0  0  0  0  0  0  0  0  0
  -22.9683  -29.1599    0.0000 C   0  0  0  0  0  0  0  0  0  0  0  0
  -22.6345  -30.6223    0.0000 C   0  0  0  0  0  0  0  0  0  0  0  0
  -22.2077  -32.0603    0.0000 C   0  0  0  0  0  0  0  0  0  0  0  0
  -21.6897  -33.4680    0.0000 C   0  0  0  0  0  0  0  0  0  0  0  0
  -21.0825  -34.8396    0.0000 C   0  0  0  0  0  0  0  0  0  0  0  0
  -20.3887  -36.1695    0.0000 C   0  0  0  0  0  0  0  0  0  0  0  0
  -19.6111  -37.4522    0.0000 C   0  0  0  0  0  0  0  0  0  0  0  0
  -18.7529  -38.6825    0.0000 C   0  0  0  0  0  0  0  0  0  0  0  0
  -17.8177  -39.8552    0.0000 C   0  0  0  0  0  0  0  0  0  0  0  0
  -16.8092  -40.9656    0.0000 C   0  0  0  0  0  0  0  0  0  0  0  0
  -15.7317  -42.0091    0.0000 C   0  0  0  0  0  0  0  0  0  0  0  0
  -14.5895  -42.9815    0.0000 C   0  0  0  0  0  0  0  0  0  0  0  0
  -13.3874  -43.8787    0.0000 C   0  0  0  0  0  0  0  0  0  0  0  0
  -12.1303  -44.6970    0.0000 C   0  0  0  0  0  0  0  0  0  0  0  0
  -10.8233  -45.4330    0.0000 C   0  0  0  0  0  0  0  0  0  0  0  0
   -9.4718  -46.0839    0.0000 C   0  0  0  0  0  0  0  0  0  0  0  0
   -8.0815  -46.6468    0.0000 C   0  0  0  0  0  0  0  0  0  0  0  0
   -6.6579  -47.1194    0.0000 C   0  0  0  0  0  0  0  0  0  0  0  0
   -5.2069  -47.4999    0.0000 C   0  0  0  0  0  0  0  0  0  0  0  0
   -3.7346  -47.7866    0.0000 C   0  0  0  0  0  0  0  0  0  0  0  0
   -2.2469  -47.9785    0.0000 C   0  0  0  0  0  0  0  0  0  0  0  0
   -0.7500  -48.0746    0.0000 C   0  0  0  0  0  0  0  0  0  0  0  0
    0.7500  -48.0746    0.0000 C   0  0  0  0  0  0  0  0  0  0  0  0
    2.2469  -47.9785    0.0000 C   0  0  0  0  0  0  0  0  0  0  0  0
    3.7346  -47.7866    0.0000 C   0  0  0  0  0  0  0  0  0  0  0  0
    5.2069  -47.4999    0.0000 C   0  0  0  0  0  0  0  0  0  0  0  0
    6.6579  -47.1194    0.0000 C   0  0  0  0  0  0  0  0  0  0  0  0
    8.0815  -46.6468    0.0000 C   0  0  0  0  0  0  0  0  0  0  0  0
    9.4718  -46.0839    0.0000 C   0  0  0  0  0  0  0  0  0  0  0  0
   10.8233  -45.4330    0.0000 C   0  0  0  0  0  0  0  0  0  0  0  0
   12.1303  -44.6970    0.0000 C   0  0  0  0  0  0  0  0  0  0  0  0
   13.3874  -43.8787    0.0000 C   0  0  0  0  0  0  0  0  0  0  0  0
   14.5895  -42.9815    0.0000 C   0  0  0  0  0  0  0  0  0  0  0  0
   15.7317  -42.0091    0.0000 C   0  0  0  0  0  0  0  0  0  0  0  0
   16.8092  -40.9656    0.0000 C   0  0  0  0  0  0  0  0  0  0  0  0
   17.8177  -39.8552    0.0000 C   0  0  0  0  0  0  0  0  0  0  0  0
   18.7529  -38.6825    0.0000 C   0  0  0  0  0  0  0  0  0  0  0  0
   19.6111  -37.4522    0.0000 C   0  0  0  0  0  0  0  0  0  0  0  0
   20.3887  -36.1695    0.0000 C   0  0  0  0  0  0  0  0  0  0  0  0
   21.0825  -34.8396    0.0000 C   0  0  0  0  0  0  0  0  0  0  0  0
   21.6897  -33.4680    0.0000 C   0  0  0  0  0  0  0  0  0  0  0  0
   22.2077  -32.0603    0.0000 C   0  0  0  0  0  0  0  0  0  0  0  0
   22.6345  -30.6223    0.0000 C   0  0  0  0  0  0  0  0  0  0  0  0
   22.9683  -29.1599    0.0000 C   0  0  0  0  0  0  0  0  0  0  0  0
   23.2077  -27.6791    0.0000 C   0  0  0  0  0  0  0  0  0  0  0  0
   23.3517  -26.1860    0.0000 C   0  0  0  0  0  0  0  0  0  0  0  0
   23.3998  -24.6868    0.0000 C   0  0  0  0  0  0  0  0  0  0  0  0
   23.3517  -23.1876    0.0000 C   0  0  0  0  0  0  0  0  0  0  0  0
   23.2077  -21.6945    0.0000 C   0  0  0  0  0  0  0  0  0  0  0  0
   22.9683  -20.2137    0.0000 C   0  0  0  0  0  0  0  0  0  0  0  0
   22.6345  -18.7513    0.0000 C   0  0  0  0  0  0  0  0  0  0  0  0
   22.2077  -17.3133    0.0000 C   0  0  0  0  0  0  0  0  0  0  0  0
   21.6897  -15.9056    0.0000 C   0  0  0  0  0  0  0  0  0  0  0  0
   21.0825  -14.5340    0.0000 C   0  0  0  0  0  0  0  0  0  0  0  0
   20.3887  -13.2041    0.0000 C   0  0  0  0  0  0  0  0  0  0  0  0
   19.6111  -11.9214    0.0000 C   0  0  0  0  0  0  0  0  0  0  0  0
   18.7529  -10.6911    0.0000 C   0  0  0  0  0  0  0  0  0  0  0  0
   17.8177   -9.5184    0.0000 C   0  0  0  0  0  0  0  0  0  0  0  0
   16.8092   -8.4080    0.0000 C   0  0  0  0  0  0  0  0  0  0  0  0
   15.7317   -7.3645    0.0000 C   0  0  0  0  0  0  0  0  0  0  0  0
   14.5895   -6.3921    0.0000 C   0  0  0  0  0  0  0  0  0  0  0  0
   13.3874   -5.4949    0.0000 C   0  0  0  0  0  0  0  0  0  0  0  0
   12.1303   -4.6766    0.0000 C   0  0  0  0  0  0  0  0  0  0  0  0
   10.8233   -3.9406    0.0000 C   0  0  0  0  0  0  0  0  0  0  0  0
    9.4718   -3.2897    0.0000 C   0  0  0  0  0  0  0  0  0  0  0  0
    8.0815   -2.7268    0.0000 C   0  0  0  0  0  0  0  0  0  0  0  0
    6.6579   -2.2542    0.0000 C   0  0  0  0  0  0  0  0  0  0  0  0
    5.2069   -1.8737    0.0000 C   0  0  0  0  0  0  0  0  0  0  0  0
    3.7346   -1.5870    0.0000 C   0  0  0  0  0  0  0  0  0  0  0  0
    4.0119   -3.0611    0.0000 C   0  0  0  0  0  0  0  0  0  0  0  0
    2.6956   -3.7804    0.0000 C   0  0  0  0  0  0  0  0  0  0  0  0
    1.6048   -2.7507    0.0000 C   0  0  0  0  0  0  0  0  0  0  0  0
    2.2469   -1.3951    0.0000 C   0  0  0  0  0  0  0  0  0  0  0  0
    0.7500   -1.2990    0.0000 C   0  0  0  0  0  0  0  0  0  0  0  0
    1.5000    0.0000    0.0000 C   0  0  0  0  0  0  0  0  0  0  0  0
    0.7500    1.2990    0.0000 C   0  0  0  0  0  0  0  0  0  0  0  0
   -0.7500    1.2990    0.0000 C   0  0  0  0  0  0  0  0  0  0  0  0
   -1.5000    0.0000    0.0000 C   0  0  0  0  0  0  0  0  0  0  0  0
   -0.7500   -1.2990    0.0000 C   0  0  0  0  0  0  0  0  0  0  0  0
  1  2  1  0
  2  3  1  0
  3  4  1  0
  4  5  1  0
  5  6  1  0
  6  7  1  0
  7  8  1  0
  8  9  1  0
  9 10  1  0
 10 11  1  0
 11 12  1  0
 12 13  1  0
 13 14  1  0
 14 15  1  0
 15 16  1  0
 16 17  1  0
 17 18  1  0
 18 19  1  0
 19 20  1  0
 20 21  1  0
 21 22  1  0
 22 23  1  0
 23 24  1  0
 24 25  1  0
 25 26  1  0
 26 27  1  0
 27 28  1  0
 28 29  1  0
 29 30  1  0
 30 31  1  0
 31 32  1  0
 32 33  1  0
 33 34  1  0
 34 35  1  0
 35 36  1  0
 36 37  1  0
 37 38  1  0
 38 39  1  0
 39 40  1  0
 40 41  1  0
 41 42  1  0
 42 43  1  0
 43 44  1  0
 44 45  1  0
 45 46  1  0
 46 47  1  0
 47 48  1  0
 48 49  1  0
 49 50  1  0
 50 51  1  0
 51 52  1  0
 52 53  1  0
 53 54  1  0
 54 55  1  0
 55 56  1  0
 56 57  1  0
 57 58  1  0
 58 59  1  0
 59 60  1  0
 60 61  1  0
 61 62  1  0
 62 63  1  0
 63 64  1  0
 64 65  1  0
 65 66  1  0
 66 67  1  0
 67 68  1  0
 68 69  1  0
 69 70  1  0
 70 71  1  0
 71 72  1  0
 72 73  1  0
 73 74  1  0
 74 75  1  0
 75 76  1  0
 76 77  1  0
 77 78  1  0
 78 79  1  0
 79 80  1  0
 80 81  1  0
 81 82  1  0
 82 83  1  0
 83 84  1  0
 84 85  1  0
 85 86  1  0
 86 87  1  0
 87 88  1  0
 88 89  1  0
 89 90  1  0
 90 91  1  0
 91 92  2  0
 92 93  1  0
 93 94  2  0
 94 95  1  0
 95 96  2  0
 96 97  1  0
 97 98  2  0
 98 99  1  0
 99100  2  0
100101  1  0
101102  2  0
102103  1  0
103104  2  0
104105  1  0
105106  2  0
106  2  1  0
100 96  1  0
106101  1  0
M  END
>  <Title>  (1137) 
idABPUgen13

$$$$

     RDKit          2D

 36 40  0  0  0  0  0  0  0  0999 V2000
   -5.2500   -3.8971    0.0000 C   0  0  0  0  0  0  0  0  0  0  0  0
   -3.7500   -3.8971    0.0000 C   0  0  0  0  0  0  0  0  0  0  0  0
   -3.0000   -2.5981    0.0000 C   0  0  0  0  0  0  0  0  0  0  0  0
   -1.5000   -2.5981    0.0000 C   0  0  0  0  0  0  0  0  0  0  0  0
   -0.7500   -3.8971    0.0000 C   0  0  0  0  0  0  0  0  0  0  0  0
    0.7500   -3.8971    0.0000 C   0  0  0  0  0  0  0  0  0  0  0  0
    1.5000   -2.5981    0.0000 C   0  0  0  0  0  0  0  0  0  0  0  0
    3.0000   -2.5981    0.0000 C   0  0  0  0  0  0  0  0  0  0  0  0
    3.7500   -1.2990    0.0000 O   0  0  0  0  0  0  0  0  0  0  0  0
    3.7500   -3.8971    0.0000 N   0  0  0  0  0  0  0  0  0  0  0  0
    5.2500   -3.8971    0.0000 C   0  0  0  0  0  0  0  0  0  0  0  0
    6.1317   -2.6836    0.0000 N   0  0  0  0  0  0  0  0  0  0  0  0
    7.5583   -3.1471    0.0000 N   0  0  0  0  0  0  0  0  0  0  0  0
    7.5583   -4.6471    0.0000 N   0  0  0  0  0  0  0  0  0  0  0  0
    6.1317   -5.1106    0.0000 N   0  0  0  0  0  0  0  0  0  0  0  0
    5.6682   -6.5372    0.0000 C   0  0  0  0  0  0  0  0  0  0  0  0
    6.5498   -7.7508    0.0000 C   0  0  0  0  0  0  0  0  0  0  0  0
    5.6682   -8.9643    0.0000 C   0  0  0  0  0  0  0  0  0  0  0  0
    4.2416   -8.5008    0.0000 C   0  0  0  0  0  0  0  0  0  0  0  0
    3.0280   -9.3824    0.0000 C   0  0  0  0  0  0  0  0  0  0  0  0
    3.1848  -10.8742    0.0000 O   0  0  0  0  0  0  0  0  0  0  0  0
    1.6577   -8.7723    0.0000 N   0  0  0  0  0  0  0  0  0  0  0  0
    0.4442   -9.6540    0.0000 C   0  0  0  0  0  0  0  0  0  0  0  0
   -0.9261   -9.0439    0.0000 N   0  0  0  0  0  0  0  0  0  0  0  0
   -2.1396   -9.9256    0.0000 N   0  0  0  0  0  0  0  0  0  0  0  0
   -1.9829  -11.4174    0.0000 N   0  0  0  0  0  0  0  0  0  0  0  0
   -0.6125  -12.0275    0.0000 N   0  0  0  0  0  0  0  0  0  0  0  0
    0.6010  -11.1458    0.0000 N   0  0  0  0  0  0  0  0  0  0  0  0
    4.2416   -7.0008    0.0000 C   0  0  0  0  0  0  0  0  0  0  0  0
    3.0280   -6.1191    0.0000 O   0  0  0  0  0  0  0  0  0  0  0  0
    0.7500   -1.2990    0.0000 C   0  0  0  0  0  0  0  0  0  0  0  0
    1.5000    0.0000    0.0000 C   0  0  0  0  0  0  0  0  0  0  0  0
    0.7500    1.2990    0.0000 C   0  0  0  0  0  0  0  0  0  0  0  0
   -0.7500    1.2990    0.0000 C   0  0  0  0  0  0  0  0  0  0  0  0
   -1.5000    0.0000    0.0000 C   0  0  0  0  0  0  0  0  0  0  0  0
   -0.7500   -1.2990    0.0000 C   0  0  0  0  0  0  0  0  0  0  0  0
  1  2  1  0
  2  3  1  0
  3  4  1  0
  4  5  1  0
  5  6  1  0
  6  7  1  0
  7  8  1  0
  8  9  2  0
  8 10  1  0
 10 11  1  0
 11 12  2  0
 12 13  1  0
 13 14  2  0
 14 15  1  0
 15 16  1  0
 16 17  2  0
 17 18  1  0
 18 19  2  0
 19 20  1  0
 20 21  2  0
 20 22  1  0
 22 23  1  0
 23 24  2  0
 24 25  1  0
 25 26  2  0
 26 27  1  0
 27 28  2  0
 19 29  1  0
 29 30  2  0
  7 31  1  0
 31 32  2  0
 32 33  1  0
 33 34  2  0
 34 35  1  0
 35 36  2  0
 36  4  1  0
 15 11  1  0
 29 16  1  0
 36 31  1  0
 28 23  1  0
M  END
>  <Title>  (1138) 
idABPVgen13

$$$$

     RDKit          2D

 60 60  0  0  0  0  0  0  0  0999 V2000
   82.5000    0.0000    0.0000 C   0  0  0  0  0  0  0  0  0  0  0  0
   81.0000    0.0000    0.0000 C   0  0  0  0  0  0  0  0  0  0  0  0
   79.5000    0.0000    0.0000 C   0  0  0  0  0  0  0  0  0  0  0  0
   78.0000    0.0000    0.0000 C   0  0  0  0  0  0  0  0  0  0  0  0
   76.5000    0.0000    0.0000 C   0  0  0  0  0  0  0  0  0  0  0  0
   75.0000    0.0000    0.0000 C   0  0  0  0  0  0  0  0  0  0  0  0
   73.5000    0.0000    0.0000 C   0  0  0  0  0  0  0  0  0  0  0  0
   72.0000    0.0000    0.0000 C   0  0  0  0  0  0  0  0  0  0  0  0
   70.5000    0.0000    0.0000 C   0  0  0  0  0  0  0  0  0  0  0  0
   69.0000    0.0000    0.0000 C   0  0  0  0  0  0  0  0  0  0  0  0
   67.5000    0.0000    0.0000 C   0  0  0  0  0  0  0  0  0  0  0  0
   66.0000    0.0000    0.0000 C   0  0  0  0  0  0  0  0  0  0  0  0
   64.5000    0.0000    0.0000 C   0  0  0  0  0  0  0  0  0  0  0  0
   63.0000    0.0000    0.0000 C   0  0  0  0  0  0  0  0  0  0  0  0
   61.5000    0.0000    0.0000 C   0  0  0  0  0  0  0  0  0  0  0  0
   60.0000    0.0000    0.0000 C   0  0  0  0  0  0  0  0  0  0  0  0
   58.5000    0.0000    0.0000 C   0  0  0  0  0  0  0  0  0  0  0  0
   57.0000    0.0000    0.0000 C   0  0  0  0  0  0  0  0  0  0  0  0
   55.5000    0.0000    0.0000 C   0  0  0  0  0  0  0  0  0  0  0  0
   54.0000    0.0000    0.0000 C   0  0  0  0  0  0  0  0  0  0  0  0
   52.5000    0.0000    0.0000 C   0  0  0  0  0  0  0  0  0  0  0  0
   51.0000    0.0000    0.0000 C   0  0  0  0  0  0  0  0  0  0  0  0
   49.5000    0.0000    0.0000 C   0  0  0  0  0  0  0  0  0  0  0  0
   48.0000    0.0000    0.0000 C   0  0  0  0  0  0  0  0  0  0  0  0
   46.5000    0.0000    0.0000 C   0  0  0  0  0  0  0  0  0  0  0  0
   45.0000    0.0000    0.0000 C   0  0  0  0  0  0  0  0  0  0  0  0
   43.5000    0.0000    0.0000 C   0  0  0  0  0  0  0  0  0  0  0  0
   42.0000    0.0000    0.0000 C   0  0  0  0  0  0  0  0  0  0  0  0
   40.5000    0.0000    0.0000 C   0  0  0  0  0  0  0  0  0  0  0  0
   39.0000    0.0000    0.0000 C   0  0  0  0  0  0  0  0  0  0  0  0
   37.5000    0.0000    0.0000 C   0  0  0  0  0  0  0  0  0  0  0  0
   36.0000    0.0000    0.0000 C   0  0  0  0  0  0  0  0  0  0  0  0
   34.5000    0.0000    0.0000 C   0  0  0  0  0  0  0  0  0  0  0  0
   33.0000    0.0000    0.0000 C   0  0  0  0  0  0  0  0  0  0  0  0
   31.5000    0.0000    0.0000 C   0  0  0  0  0  0  0  0  0  0  0  0
   30.0000    0.0000    0.0000 C   0  0  0  0  0  0  0  0  0  0  0  0
   28.5000    0.0000    0.0000 C   0  0  0  0  0  0  0  0  0  0  0  0
   27.0000    0.0000    0.0000 C   0  0  0  0  0  0  0  0  0  0  0  0
   25.5000    0.0000    0.0000 C   0  0  0  0  0  0  0  0  0  0  0  0
   24.0000    0.0000    0.0000 C   0  0  0  0  0  0  0  0  0  0  0  0
   22.5000    0.0000    0.0000 C   0  0  0  0  0  0  0  0  0  0  0  0
   21.0000    0.0000    0.0000 C   0  0  0  0  0  0  0  0  0  0  0  0
   19.5000    0.0000    0.0000 C   0  0  0  0  0  0  0  0  0  0  0  0
   18.0000    0.0000    0.0000 C   0  0  0  0  0  0  0  0  0  0  0  0
   16.5000    0.0000    0.0000 C   0  0  0  0  0  0  0  0  0  0  0  0
   15.0000    0.0000    0.0000 C   0  0  0  0  0  0  0  0  0  0  0  0
   13.5000    0.0000    0.0000 C   0  0  0  0  0  0  0  0  0  0  0  0
   12.0000    0.0000    0.0000 C   0  0  0  0  0  0  0  0  0  0  0  0
   10.5000    0.0000    0.0000 C   0  0  0  0  0  0  0  0  0  0  0  0
    9.0000    0.0000    0.0000 C   0  0  0  0  0  0  0  0  0  0  0  0
    7.5000    0.0000    0.0000 C   0  0  0  0  0  0  0  0  0  0  0  0
    6.0000    0.0000    0.0000 C   0  0  0  0  0  0  0  0  0  0  0  0
    4.5000    0.0000    0.0000 C   0  0  0  0  0  0  0  0  0  0  0  0
    3.0000    0.0000    0.0000 C   0  0  0  0  0  0  0  0  0  0  0  0
    1.5000    0.0000    0.0000 C   0  0  0  0  0  0  0  0  0  0  0  0
    0.7500   -1.2990    0.0000 C   0  0  0  0  0  0  0  0  0  0  0  0
   -0.7500   -1.2990    0.0000 C   0  0  0  0  0  0  0  0  0  0  0  0
   -1.5000    0.0000    0.0000 C   0  0  0  0  0  0  0  0  0  0  0  0
   -0.7500    1.2990    0.0000 C   0  0  0  0  0  0  0  0  0  0  0  0
    0.7500    1.2990    0.0000 C   0  0  0  0  0  0  0  0  0  0  0  0
  1  2  3  0
  2  3  1  0
  3  4  3  0
  4  5  1  0
  5  6  3  0
  6  7  1  0
  7  8  3  0
  8  9  1  0
  9 10  3  0
 10 11  1  0
 11 12  3  0
 12 13  1  0
 13 14  3  0
 14 15  1  0
 15 16  3  0
 16 17  1  0
 17 18  3  0
 18 19  1  0
 19 20  3  0
 20 21  1  0
 21 22  3  0
 22 23  1  0
 23 24  3  0
 24 25  1  0
 25 26  3  0
 26 27  1  0
 27 28  3  0
 28 29  1  0
 29 30  3  0
 30 31  1  0
 31 32  3  0
 32 33  1  0
 33 34  3  0
 34 35  1  0
 35 36  3  0
 36 37  1  0
 37 38  3  0
 38 39  1  0
 39 40  3  0
 40 41  1  0
 41 42  3  0
 42 43  1  0
 43 44  3  0
 44 45  1  0
 45 46  3  0
 46 47  1  0
 47 48  3  0
 48 49  1  0
 49 50  3  0
 50 51  1  0
 51 52  3  0
 52 53  1  0
 53 54  3  0
 54 55  1  0
 55 56  2  0
 56 57  1  0
 57 58  2  0
 58 59  1  0
 59 60  2  0
 60 55  1  0
M  END
>  <Title>  (1139) 
idABPWgen13

$$$$

     RDKit          2D

 52 59  0  0  0  0  0  0  0  0999 V2000
    3.1097   -7.2078    0.0000 C   0  0  0  0  0  0  0  0  0  0  0  0
    2.0490   -6.1471    0.0000 C   0  0  0  0  0  0  0  0  0  0  0  0
    2.7990   -4.8481    0.0000 C   0  0  0  0  0  0  0  0  0  0  0  0
    2.7990   -3.3481    0.0000 C   0  0  0  0  0  0  0  0  0  0  0  0
    2.0490   -2.0490    0.0000 C   0  0  0  0  0  0  0  0  0  0  0  0
    3.1097   -0.9884    0.0000 C   0  0  0  0  0  0  0  0  0  0  0  0
    2.7215    0.4605    0.0000 O   0  0  0  0  0  0  0  0  0  0  0  0
    4.5586   -1.3766    0.0000 N   0  0  0  0  0  0  0  0  0  0  0  0
    5.6192   -0.3159    0.0000 C   0  0  0  0  0  0  0  0  0  0  0  0
    5.3846    1.1656    0.0000 N   0  0  0  0  0  0  0  0  0  0  0  0
    6.7211    1.8466    0.0000 N   0  0  0  0  0  0  0  0  0  0  0  0
    7.7818    0.7859    0.0000 N   0  0  0  0  0  0  0  0  0  0  0  0
    7.1008   -0.5506    0.0000 N   0  0  0  0  0  0  0  0  0  0  0  0
    7.7818   -1.8871    0.0000 C   0  0  0  0  0  0  0  0  0  0  0  0
    9.2633   -2.1218    0.0000 C   0  0  0  0  0  0  0  0  0  0  0  0
    9.4979   -3.6033    0.0000 C   0  0  0  0  0  0  0  0  0  0  0  0
    8.1614   -4.2843    0.0000 C   0  0  0  0  0  0  0  0  0  0  0  0
    7.9268   -5.7658    0.0000 C   0  0  0  0  0  0  0  0  0  0  0  0
    9.0925   -6.7098    0.0000 O   0  0  0  0  0  0  0  0  0  0  0  0
    6.5264   -6.3034    0.0000 N   0  0  0  0  0  0  0  0  0  0  0  0
    6.2918   -7.7849    0.0000 C   0  0  0  0  0  0  0  0  0  0  0  0
    4.8914   -8.3224    0.0000 N   0  0  0  0  0  0  0  0  0  0  0  0
    4.6567   -9.8040    0.0000 N   0  0  0  0  0  0  0  0  0  0  0  0
    5.8225  -10.7480    0.0000 N   0  0  0  0  0  0  0  0  0  0  0  0
    7.2228  -10.2104    0.0000 N   0  0  0  0  0  0  0  0  0  0  0  0
    7.4575   -8.7289    0.0000 N   0  0  0  0  0  0  0  0  0  0  0  0
    7.1008   -3.2236    0.0000 C   0  0  0  0  0  0  0  0  0  0  0  0
    5.6192   -3.4583    0.0000 O   0  0  0  0  0  0  0  0  0  0  0  0
    0.7500   -1.2990    0.0000 C   0  0  0  0  0  0  0  0  0  0  0  0
    1.5000    0.0000    0.0000 C   0  0  0  0  0  0  0  0  0  0  0  0
    0.7500    1.2990    0.0000 C   0  0  0  0  0  0  0  0  0  0  0  0
   -0.7500    1.2990    0.0000 C   0  0  0  0  0  0  0  0  0  0  0  0
   -1.5000    0.0000    0.0000 C   0  0  0  0  0  0  0  0  0  0  0  0
   -0.7500   -1.2990    0.0000 C   0  0  0  0  0  0  0  0  0  0  0  0
   -2.0490   -2.0490    0.0000 C   0  0  0  0  0  0  0  0  0  0  0  0
   -2.7990   -0.7500    0.0000 C   0  0  0  0  0  0  0  0  0  0  0  0
   -4.2990   -0.7500    0.0000 C   0  0  0  0  0  0  0  0  0  0  0  0
   -5.0490   -2.0490    0.0000 C   0  0  0  0  0  0  0  0  0  0  0  0
   -4.2990   -3.3481    0.0000 C   0  0  0  0  0  0  0  0  0  0  0  0
   -2.7990   -3.3481    0.0000 C   0  0  0  0  0  0  0  0  0  0  0  0
   -2.7990   -4.8481    0.0000 C   0  0  0  0  0  0  0  0  0  0  0  0
   -4.2990   -4.8481    0.0000 C   0  0  0  0  0  0  0  0  0  0  0  0
   -5.0490   -6.1471    0.0000 C   0  0  0  0  0  0  0  0  0  0  0  0
   -4.2990   -7.4462    0.0000 C   0  0  0  0  0  0  0  0  0  0  0  0
   -2.7990   -7.4462    0.0000 C   0  0  0  0  0  0  0  0  0  0  0  0
   -2.0490   -6.1471    0.0000 C   0  0  0  0  0  0  0  0  0  0  0  0
   -0.7500   -6.8971    0.0000 C   0  0  0  0  0  0  0  0  0  0  0  0
   -1.5000   -8.1962    0.0000 C   0  0  0  0  0  0  0  0  0  0  0  0
   -0.7500   -9.4952    0.0000 C   0  0  0  0  0  0  0  0  0  0  0  0
    0.7500   -9.4952    0.0000 C   0  0  0  0  0  0  0  0  0  0  0  0
    1.5000   -8.1962    0.0000 C   0  0  0  0  0  0  0  0  0  0  0  0
    0.7500   -6.8971    0.0000 C   0  0  0  0  0  0  0  0  0  0  0  0
  1  2  1  0
  2  3  1  0
  3  4  2  0
  4  5  1  0
  5  6  1  0
  6  7  2  0
  6  8  1  0
  8  9  1  0
  9 10  2  0
 10 11  1  0
 11 12  2  0
 12 13  1  0
 13 14  1  0
 14 15  2  0
 15 16  1  0
 16 17  2  0
 17 18  1  0
 18 19  2  0
 18 20  1  0
 20 21  1  0
 21 22  2  0
 22 23  1  0
 23 24  2  0
 24 25  1  0
 25 26  2  0
 17 27  1  0
 27 28  2  0
  5 29  1  0
 29 30  2  0
 30 31  1  0
 31 32  2  0
 32 33  1  0
 33 34  2  0
 34 35  1  0
 35 36  2  0
 36 37  1  0
 37 38  2  0
 38 39  1  0
 39 40  2  0
 40 41  1  0
 41 42  2  0
 42 43  1  0
 43 44  2  0
 44 45  1  0
 45 46  2  0
 46 47  1  0
 47 48  2  0
 48 49  1  0
 49 50  2  0
 50 51  1  0
 51 52  2  0
 52  2  1  0
 13  9  1  0
 27 14  1  0
 34 29  1  0
 40 35  1  0
 46 41  1  0
 52 47  1  0
 26 21  1  0
M  END
>  <Title>  (1140) 
idABPXgen13

$$$$

     RDKit          2D

 10 11  0  0  0  0  0  0  0  0999 V2000
    1.2760    0.0000    0.0000 C   0  0  0  0  0  0  0  0  0  0  0  0
    0.3943    1.2135    0.0000 C   0  0  0  0  0  0  0  0  0  0  0  0
   -1.0323    0.7500    0.0000 C   0  0  0  0  0  0  0  0  0  0  0  0
   -1.0323   -0.7500    0.0000 C   0  0  0  0  0  0  0  0  0  0  0  0
   -2.2458   -1.6317    0.0000 N   0  0  0  0  0  0  0  0  0  0  0  0
   -2.2458   -3.1317    0.0000 N   0  0  0  0  0  0  0  0  0  0  0  0
   -3.6724   -3.5952    0.0000 N   0  0  0  0  0  0  0  0  0  0  0  0
   -4.5541   -2.3817    0.0000 N   0  0  0  0  0  0  0  0  0  0  0  0
   -3.6724   -1.1682    0.0000 N   0  0  0  0  0  0  0  0  0  0  0  0
    0.3943   -1.2135    0.0000 C   0  0  0  0  0  0  0  0  0  0  0  0
  1  2  2  0
  2  3  1  0
  3  4  1  0
  4  5  1  0
  5  6  1  0
  6  7  2  0
  7  8  1  0
  8  9  2  0
  4 10  1  0
 10  1  1  0
  9  5  1  0
M  END
>  <Title>  (1141) 
idABPYgen13

$$$$

     RDKit          2D

 18 18  0  0  0  0  0  0  0  0999 V2000
   19.5000    0.0000    0.0000 C   0  0  0  0  0  0  0  0  0  0  0  0
   18.0000    0.0000    0.0000 C   0  0  0  0  0  0  0  0  0  0  0  0
   16.5000    0.0000    0.0000 C   0  0  0  0  0  0  0  0  0  0  0  0
   15.0000    0.0000    0.0000 C   0  0  0  0  0  0  0  0  0  0  0  0
   13.5000    0.0000    0.0000 C   0  0  0  0  0  0  0  0  0  0  0  0
   12.0000    0.0000    0.0000 C   0  0  0  0  0  0  0  0  0  0  0  0
   10.5000    0.0000    0.0000 C   0  0  0  0  0  0  0  0  0  0  0  0
    9.0000    0.0000    0.0000 C   0  0  0  0  0  0  0  0  0  0  0  0
    7.5000    0.0000    0.0000 C   0  0  0  0  0  0  0  0  0  0  0  0
    6.0000    0.0000    0.0000 C   0  0  0  0  0  0  0  0  0  0  0  0
    4.5000    0.0000    0.0000 C   0  0  0  0  0  0  0  0  0  0  0  0
    3.0000    0.0000    0.0000 C   0  0  0  0  0  0  0  0  0  0  0  0
    1.5000    0.0000    0.0000 C   0  0  0  0  0  0  0  0  0  0  0  0
    0.7500   -1.2990    0.0000 C   0  0  0  0  0  0  0  0  0  0  0  0
   -0.7500   -1.2990    0.0000 C   0  0  0  0  0  0  0  0  0  0  0  0
   -1.5000    0.0000    0.0000 C   0  0  0  0  0  0  0  0  0  0  0  0
   -0.7500    1.2990    0.0000 C   0  0  0  0  0  0  0  0  0  0  0  0
    0.7500    1.2990    0.0000 C   0  0  0  0  0  0  0  0  0  0  0  0
  1  2  3  0
  2  3  1  0
  3  4  3  0
  4  5  1  0
  5  6  3  0
  6  7  1  0
  7  8  3  0
  8  9  1  0
  9 10  3  0
 10 11  1  0
 11 12  3  0
 12 13  1  0
 13 14  2  0
 14 15  1  0
 15 16  2  0
 16 17  1  0
 17 18  2  0
 18 13  1  0
M  END
>  <Title>  (1142) 
idABPZgen13

$$$$

     RDKit          2D

  8  8  0  0  0  0  0  0  0  0999 V2000
    3.5260   -1.2990    0.0000 C   0  0  0  0  0  0  0  0  0  0  0  0
    2.7760    0.0000    0.0000 C   0  0  0  0  0  0  0  0  0  0  0  0
    3.5260    1.2990    0.0000 O   0  0  0  0  0  0  0  0  0  0  0  0
    1.2760    0.0000    0.0000 C   0  0  0  0  0  0  0  0  0  0  0  0
    0.3943    1.2135    0.0000 C   0  0  0  0  0  0  0  0  0  0  0  0
   -1.0323    0.7500    0.0000 C   0  0  0  0  0  0  0  0  0  0  0  0
   -1.0323   -0.7500    0.0000 C   0  0  0  0  0  0  0  0  0  0  0  0
    0.3943   -1.2135    0.0000 C   0  0  0  0  0  0  0  0  0  0  0  0
  1  2  1  0
  2  3  2  0
  2  4  1  0
  4  5  2  0
  5  6  1  0
  6  7  2  0
  7  8  1  0
  8  4  1  0
M  END
>  <Title>  (1143) 
idABQAgen13

$$$$

     RDKit          2D

 17 17  0  0  0  0  0  0  0  0999 V2000
   19.2760   -0.0000    0.0000 C   0  0  0  0  0  0  0  0  0  0  0  0
   17.7760   -0.0000    0.0000 C   0  0  0  0  0  0  0  0  0  0  0  0
   16.2760   -0.0000    0.0000 C   0  0  0  0  0  0  0  0  0  0  0  0
   14.7760   -0.0000    0.0000 C   0  0  0  0  0  0  0  0  0  0  0  0
   13.2760   -0.0000    0.0000 C   0  0  0  0  0  0  0  0  0  0  0  0
   11.7760   -0.0000    0.0000 C   0  0  0  0  0  0  0  0  0  0  0  0
   10.2760   -0.0000    0.0000 C   0  0  0  0  0  0  0  0  0  0  0  0
    8.7760   -0.0000    0.0000 C   0  0  0  0  0  0  0  0  0  0  0  0
    7.2760   -0.0000    0.0000 C   0  0  0  0  0  0  0  0  0  0  0  0
    5.7760   -0.0000    0.0000 C   0  0  0  0  0  0  0  0  0  0  0  0
    4.2760   -0.0000    0.0000 C   0  0  0  0  0  0  0  0  0  0  0  0
    2.7760    0.0000    0.0000 C   0  0  0  0  0  0  0  0  0  0  0  0
    1.2760    0.0000    0.0000 C   0  0  0  0  0  0  0  0  0  0  0  0
    0.3943    1.2135    0.0000 C   0  0  0  0  0  0  0  0  0  0  0  0
   -1.0323    0.7500    0.0000 C   0  0  0  0  0  0  0  0  0  0  0  0
   -1.0323   -0.7500    0.0000 C   0  0  0  0  0  0  0  0  0  0  0  0
    0.3943   -1.2135    0.0000 C   0  0  0  0  0  0  0  0  0  0  0  0
  1  2  3  0
  2  3  1  0
  3  4  3  0
  4  5  1  0
  5  6  3  0
  6  7  1  0
  7  8  3  0
  8  9  1  0
  9 10  3  0
 10 11  1  0
 11 12  3  0
 12 13  1  0
 13 14  2  0
 14 15  1  0
 15 16  2  0
 16 17  1  0
 17 13  1  0
M  END
>  <Title>  (1144) 
idABQBgen13

$$$$

     RDKit          2D

 43 48  0  0  0  0  0  0  0  0999 V2000
   -3.7860   -5.5823    0.0000 C   0  0  0  0  0  0  0  0  0  0  0  0
   -2.4215   -4.9592    0.0000 C   0  0  0  0  0  0  0  0  0  0  0  0
   -1.4392   -6.0928    0.0000 C   0  0  0  0  0  0  0  0  0  0  0  0
   -0.0000   -6.5154    0.0000 C   0  0  0  0  0  0  0  0  0  0  0  0
    1.4392   -6.0928    0.0000 C   0  0  0  0  0  0  0  0  0  0  0  0
    2.4215   -4.9592    0.0000 C   0  0  0  0  0  0  0  0  0  0  0  0
    2.6350   -3.4744    0.0000 C   0  0  0  0  0  0  0  0  0  0  0  0
    2.0119   -2.1100    0.0000 C   0  0  0  0  0  0  0  0  0  0  0  0
    3.1455   -1.1277    0.0000 C   0  0  0  0  0  0  0  0  0  0  0  0
    2.8616    0.3452    0.0000 O   0  0  0  0  0  0  0  0  0  0  0  0
    4.5630   -1.6183    0.0000 N   0  0  0  0  0  0  0  0  0  0  0  0
    5.6966   -0.6360    0.0000 C   0  0  0  0  0  0  0  0  0  0  0  0
    5.5683    0.8585    0.0000 N   0  0  0  0  0  0  0  0  0  0  0  0
    6.9500    1.4424    0.0000 N   0  0  0  0  0  0  0  0  0  0  0  0
    7.9322    0.3088    0.0000 N   0  0  0  0  0  0  0  0  0  0  0  0
    7.1576   -0.9758    0.0000 N   0  0  0  0  0  0  0  0  0  0  0  0
    7.7416   -2.3574    0.0000 N   0  0  0  0  0  0  0  0  0  0  0  0
    9.2026   -2.6972    0.0000 C   0  0  0  0  0  0  0  0  0  0  0  0
    9.3309   -4.1917    0.0000 C   0  0  0  0  0  0  0  0  0  0  0  0
    7.9492   -4.7756    0.0000 C   0  0  0  0  0  0  0  0  0  0  0  0
    7.6095   -6.2366    0.0000 C   0  0  0  0  0  0  0  0  0  0  0  0
    8.7049   -7.2614    0.0000 O   0  0  0  0  0  0  0  0  0  0  0  0
    6.1744   -6.6729    0.0000 N   0  0  0  0  0  0  0  0  0  0  0  0
    5.8346   -8.1339    0.0000 C   0  0  0  0  0  0  0  0  0  0  0  0
    4.3995   -8.5702    0.0000 N   0  0  0  0  0  0  0  0  0  0  0  0
    4.0597  -10.0312    0.0000 N   0  0  0  0  0  0  0  0  0  0  0  0
    5.1551  -11.0560    0.0000 N   0  0  0  0  0  0  0  0  0  0  0  0
    6.5903  -10.6197    0.0000 N   0  0  0  0  0  0  0  0  0  0  0  0
    6.9300   -9.1587    0.0000 N   0  0  0  0  0  0  0  0  0  0  0  0
    6.9670   -3.6420    0.0000 C   0  0  0  0  0  0  0  0  0  0  0  0
    5.4725   -3.7703    0.0000 O   0  0  0  0  0  0  0  0  0  0  0  0
    0.7500   -1.2990    0.0000 C   0  0  0  0  0  0  0  0  0  0  0  0
    1.5000    0.0000    0.0000 C   0  0  0  0  0  0  0  0  0  0  0  0
    0.7500    1.2990    0.0000 C   0  0  0  0  0  0  0  0  0  0  0  0
   -0.7500    1.2990    0.0000 C   0  0  0  0  0  0  0  0  0  0  0  0
   -1.5000    0.0000    0.0000 C   0  0  0  0  0  0  0  0  0  0  0  0
   -0.7500   -1.2990    0.0000 C   0  0  0  0  0  0  0  0  0  0  0  0
   -2.0119   -2.1100    0.0000 C   0  0  0  0  0  0  0  0  0  0  0  0
   -2.8820   -0.8881    0.0000 C   0  0  0  0  0  0  0  0  0  0  0  0
   -4.3752   -1.0307    0.0000 C   0  0  0  0  0  0  0  0  0  0  0  0
   -4.9983   -2.3952    0.0000 C   0  0  0  0  0  0  0  0  0  0  0  0
   -4.1282   -3.6170    0.0000 C   0  0  0  0  0  0  0  0  0  0  0  0
   -2.6350   -3.4744    0.0000 C   0  0  0  0  0  0  0  0  0  0  0  0
  1  2  1  0
  2  3  1  0
  3  4  1  0
  4  5  1  0
  5  6  1  0
  6  7  1  0
  7  8  1  0
  8  9  1  0
  9 10  2  0
  9 11  1  0
 11 12  1  0
 12 13  2  0
 13 14  1  0
 14 15  2  0
 15 16  1  0
 16 17  1  0
 17 18  1  0
 18 19  1  0
 19 20  1  0
 20 21  1  0
 21 22  2  0
 21 23  1  0
 23 24  1  0
 24 25  2  0
 25 26  1  0
 26 27  2  0
 27 28  1  0
 28 29  2  0
 20 30  1  0
 30 31  2  0
  8 32  1  0
 32 33  2  0
 33 34  1  0
 34 35  2  0
 35 36  1  0
 36 37  2  0
 37 38  1  0
 38 39  2  0
 39 40  1  0
 40 41  2  0
 41 42  1  0
 42 43  2  0
 43  2  1  0
 16 12  1  0
 30 17  1  0
 37 32  1  0
 43 38  1  0
 29 24  1  0
M  END
>  <Title>  (1145) 
idABQCgen13

$$$$

     RDKit          2D

 53 60  0  0  0  0  0  0  0  0999 V2000
    2.1535   -8.4451    0.0000 C   0  0  0  0  0  0  0  0  0  0  0  0
    1.4564   -7.1169    0.0000 C   0  0  0  0  0  0  0  0  0  0  0  0
    2.5792   -6.1222    0.0000 C   0  0  0  0  0  0  0  0  0  0  0  0
    3.1111   -4.7197    0.0000 C   0  0  0  0  0  0  0  0  0  0  0  0
    2.9303   -3.2306    0.0000 C   0  0  0  0  0  0  0  0  0  0  0  0
    2.0782   -1.9961    0.0000 C   0  0  0  0  0  0  0  0  0  0  0  0
    3.0729   -0.8734    0.0000 C   0  0  0  0  0  0  0  0  0  0  0  0
    2.5979    0.5494    0.0000 O   0  0  0  0  0  0  0  0  0  0  0  0
    4.5426   -1.1734    0.0000 N   0  0  0  0  0  0  0  0  0  0  0  0
    5.5372   -0.0506    0.0000 C   0  0  0  0  0  0  0  0  0  0  0  0
    5.2136    1.4140    0.0000 N   0  0  0  0  0  0  0  0  0  0  0  0
    6.5065    2.1745    0.0000 N   0  0  0  0  0  0  0  0  0  0  0  0
    7.6293    1.1798    0.0000 N   0  0  0  0  0  0  0  0  0  0  0  0
    7.0302   -0.1954    0.0000 N   0  0  0  0  0  0  0  0  0  0  0  0
    7.7907   -1.4884    0.0000 C   0  0  0  0  0  0  0  0  0  0  0  0
    9.2837   -1.6331    0.0000 C   0  0  0  0  0  0  0  0  0  0  0  0
    9.6073   -3.0978    0.0000 C   0  0  0  0  0  0  0  0  0  0  0  0
    8.3144   -3.8582    0.0000 C   0  0  0  0  0  0  0  0  0  0  0  0
    8.1696   -5.3512    0.0000 C   0  0  0  0  0  0  0  0  0  0  0  0
    9.3902   -6.2231    0.0000 O   0  0  0  0  0  0  0  0  0  0  0  0
    6.8043   -5.9723    0.0000 N   0  0  0  0  0  0  0  0  0  0  0  0
    6.6595   -7.4653    0.0000 C   0  0  0  0  0  0  0  0  0  0  0  0
    5.2941   -8.0865    0.0000 N   0  0  0  0  0  0  0  0  0  0  0  0
    5.1494   -9.5795    0.0000 N   0  0  0  0  0  0  0  0  0  0  0  0
    6.3700  -10.4513    0.0000 N   0  0  0  0  0  0  0  0  0  0  0  0
    7.7353   -9.8302    0.0000 N   0  0  0  0  0  0  0  0  0  0  0  0
    7.8801   -8.3372    0.0000 N   0  0  0  0  0  0  0  0  0  0  0  0
    7.1916   -2.8635    0.0000 C   0  0  0  0  0  0  0  0  0  0  0  0
    5.7270   -3.1872    0.0000 O   0  0  0  0  0  0  0  0  0  0  0  0
    0.7500   -1.2990    0.0000 C   0  0  0  0  0  0  0  0  0  0  0  0
    1.5000    0.0000    0.0000 C   0  0  0  0  0  0  0  0  0  0  0  0
    0.7500    1.2990    0.0000 C   0  0  0  0  0  0  0  0  0  0  0  0
   -0.7500    1.2990    0.0000 C   0  0  0  0  0  0  0  0  0  0  0  0
   -1.5000    0.0000    0.0000 C   0  0  0  0  0  0  0  0  0  0  0  0
   -0.7500   -1.2990    0.0000 C   0  0  0  0  0  0  0  0  0  0  0  0
   -2.0782   -1.9961    0.0000 C   0  0  0  0  0  0  0  0  0  0  0  0
   -2.7212   -0.6409    0.0000 C   0  0  0  0  0  0  0  0  0  0  0  0
   -4.2164   -0.5202    0.0000 C   0  0  0  0  0  0  0  0  0  0  0  0
   -5.0685   -1.7547    0.0000 C   0  0  0  0  0  0  0  0  0  0  0  0
   -4.4254   -3.1099    0.0000 C   0  0  0  0  0  0  0  0  0  0  0  0
   -2.9303   -3.2306    0.0000 C   0  0  0  0  0  0  0  0  0  0  0  0
   -3.1111   -4.7197    0.0000 C   0  0  0  0  0  0  0  0  0  0  0  0
   -4.5917   -4.4790    0.0000 C   0  0  0  0  0  0  0  0  0  0  0  0
   -5.5403   -5.6410    0.0000 C   0  0  0  0  0  0  0  0  0  0  0  0
   -5.0084   -7.0435    0.0000 C   0  0  0  0  0  0  0  0  0  0  0  0
   -3.5278   -7.2841    0.0000 C   0  0  0  0  0  0  0  0  0  0  0  0
   -2.5792   -6.1222    0.0000 C   0  0  0  0  0  0  0  0  0  0  0  0
   -1.4564   -7.1169    0.0000 C   0  0  0  0  0  0  0  0  0  0  0  0
   -2.4955   -8.1987    0.0000 C   0  0  0  0  0  0  0  0  0  0  0  0
   -2.0782   -9.6395    0.0000 C   0  0  0  0  0  0  0  0  0  0  0  0
   -0.6218   -9.9984    0.0000 C   0  0  0  0  0  0  0  0  0  0  0  0
    0.4173   -8.9166    0.0000 C   0  0  0  0  0  0  0  0  0  0  0  0
   -0.0000   -7.4758    0.0000 C   0  0  0  0  0  0  0  0  0  0  0  0
  1  2  1  0
  2  3  1  0
  3  4  2  0
  4  5  1  0
  5  6  1  0
  6  7  1  0
  7  8  2  0
  7  9  1  0
  9 10  1  0
 10 11  2  0
 11 12  1  0
 12 13  2  0
 13 14  1  0
 14 15  1  0
 15 16  2  0
 16 17  1  0
 17 18  2  0
 18 19  1  0
 19 20  2  0
 19 21  1  0
 21 22  1  0
 22 23  2  0
 23 24  1  0
 24 25  2  0
 25 26  1  0
 26 27  2  0
 18 28  1  0
 28 29  2  0
  6 30  1  0
 30 31  2  0
 31 32  1  0
 32 33  2  0
 33 34  1  0
 34 35  2  0
 35 36  1  0
 36 37  2  0
 37 38  1  0
 38 39  2  0
 39 40  1  0
 40 41  2  0
 41 42  1  0
 42 43  2  0
 43 44  1  0
 44 45  2  0
 45 46  1  0
 46 47  2  0
 47 48  1  0
 48 49  2  0
 49 50  1  0
 50 51  2  0
 51 52  1  0
 52 53  2  0
 53  2  1  0
 14 10  1  0
 28 15  1  0
 35 30  1  0
 41 36  1  0
 47 42  1  0
 53 48  1  0
 27 22  1  0
M  END
>  <Title>  (1146) 
idABQDgen13

$$$$

     RDKit          2D

 31 35  0  0  0  0  0  0  0  0999 V2000
   -4.5000   -2.5981    0.0000 C   0  0  0  0  0  0  0  0  0  0  0  0
   -3.0000   -2.5981    0.0000 C   0  0  0  0  0  0  0  0  0  0  0  0
   -1.5000   -2.5981    0.0000 C   0  0  0  0  0  0  0  0  0  0  0  0
   -0.7500   -3.8971    0.0000 C   0  0  0  0  0  0  0  0  0  0  0  0
    0.7500   -3.8971    0.0000 C   0  0  0  0  0  0  0  0  0  0  0  0
    1.5000   -2.5981    0.0000 C   0  0  0  0  0  0  0  0  0  0  0  0
    3.0000   -2.5981    0.0000 O   0  0  0  0  0  0  0  0  0  0  0  0
    3.7500   -3.8971    0.0000 C   0  0  0  0  0  0  0  0  0  0  0  0
    5.2418   -4.0539    0.0000 N   0  0  0  0  0  0  0  0  0  0  0  0
    5.5537   -5.5211    0.0000 N   0  0  0  0  0  0  0  0  0  0  0  0
    4.2546   -6.2711    0.0000 N   0  0  0  0  0  0  0  0  0  0  0  0
    3.1399   -5.2674    0.0000 N   0  0  0  0  0  0  0  0  0  0  0  0
    1.6727   -5.5793    0.0000 C   0  0  0  0  0  0  0  0  0  0  0  0
    1.0626   -6.9496    0.0000 C   0  0  0  0  0  0  0  0  0  0  0  0
   -0.4292   -6.7928    0.0000 C   0  0  0  0  0  0  0  0  0  0  0  0
   -0.7411   -5.3256    0.0000 C   0  0  0  0  0  0  0  0  0  0  0  0
   -2.1114   -4.7155    0.0000 C   0  0  0  0  0  0  0  0  0  0  0  0
   -3.3249   -5.5972    0.0000 N   0  0  0  0  0  0  0  0  0  0  0  0
   -4.6952   -4.9871    0.0000 C   0  0  0  0  0  0  0  0  0  0  0  0
   -5.9088   -5.8687    0.0000 C   0  0  0  0  0  0  0  0  0  0  0  0
   -5.7520   -7.3605    0.0000 C   0  0  0  0  0  0  0  0  0  0  0  0
   -4.3817   -7.9706    0.0000 N   0  0  0  0  0  0  0  0  0  0  0  0
   -3.1681   -7.0890    0.0000 N   0  0  0  0  0  0  0  0  0  0  0  0
    0.5580   -4.5756    0.0000 C   0  0  0  0  0  0  0  0  0  0  0  0
    0.7147   -3.0838    0.0000 O   0  0  0  0  0  0  0  0  0  0  0  0
    0.7500   -1.2990    0.0000 C   0  0  0  0  0  0  0  0  0  0  0  0
    1.5000    0.0000    0.0000 C   0  0  0  0  0  0  0  0  0  0  0  0
    0.7500    1.2990    0.0000 C   0  0  0  0  0  0  0  0  0  0  0  0
   -0.7500    1.2990    0.0000 C   0  0  0  0  0  0  0  0  0  0  0  0
   -1.5000    0.0000    0.0000 C   0  0  0  0  0  0  0  0  0  0  0  0
   -0.7500   -1.2990    0.0000 C   0  0  0  0  0  0  0  0  0  0  0  0
  1  2  3  0
  2  3  1  0
  3  4  2  0
  4  5  1  0
  5  6  2  0
  6  7  1  0
  7  8  1  0
  8  9  2  0
  9 10  1  0
 10 11  2  0
 11 12  1  0
 12 13  1  0
 13 14  2  0
 14 15  1  0
 15 16  2  0
 16 17  1  0
 17 18  1  0
 18 19  1  0
 19 20  1  0
 20 21  2  0
 21 22  1  0
 22 23  2  0
 16 24  1  0
 24 25  2  0
  6 26  1  0
 26 27  2  0
 27 28  1  0
 28 29  2  0
 29 30  1  0
 30 31  2  0
 31  3  1  0
 12  8  1  0
 24 13  1  0
 31 26  1  0
 23 18  1  0
M  END
>  <Title>  (1147) 
idABQEgen13

$$$$

     RDKit          2D

 86 87  0  0  0  0  0  0  0  0999 V2000
   -2.1933   -1.0733    0.0000 C   0  0  0  0  0  0  0  0  0  0  0  0
   -2.4902    0.3970    0.0000 C   0  0  0  0  0  0  0  0  0  0  0  0
   -3.9708    0.1567    0.0000 C   0  0  0  0  0  0  0  0  0  0  0  0
   -5.4655    0.0304    0.0000 C   0  0  0  0  0  0  0  0  0  0  0  0
   -6.9654    0.0189    0.0000 C   0  0  0  0  0  0  0  0  0  0  0  0
   -8.4619    0.1223    0.0000 C   0  0  0  0  0  0  0  0  0  0  0  0
   -9.9460    0.3399    0.0000 C   0  0  0  0  0  0  0  0  0  0  0  0
  -11.4091    0.6705    0.0000 C   0  0  0  0  0  0  0  0  0  0  0  0
  -12.8426    1.1121    0.0000 C   0  0  0  0  0  0  0  0  0  0  0  0
  -14.2381    1.6621    0.0000 C   0  0  0  0  0  0  0  0  0  0  0  0
  -15.5874    2.3174    0.0000 C   0  0  0  0  0  0  0  0  0  0  0  0
  -16.8826    3.0740    0.0000 C   0  0  0  0  0  0  0  0  0  0  0  0
  -18.1161    3.9276    0.0000 C   0  0  0  0  0  0  0  0  0  0  0  0
  -19.2806    4.8731    0.0000 C   0  0  0  0  0  0  0  0  0  0  0  0
  -20.3693    5.9049    0.0000 C   0  0  0  0  0  0  0  0  0  0  0  0
  -21.3759    7.0170    0.0000 C   0  0  0  0  0  0  0  0  0  0  0  0
  -22.2943    8.2030    0.0000 C   0  0  0  0  0  0  0  0  0  0  0  0
  -23.1193    9.4557    0.0000 C   0  0  0  0  0  0  0  0  0  0  0  0
  -23.8460   10.7680    0.0000 C   0  0  0  0  0  0  0  0  0  0  0  0
  -24.4700   12.1320    0.0000 C   0  0  0  0  0  0  0  0  0  0  0  0
  -24.9879   13.5398    0.0000 C   0  0  0  0  0  0  0  0  0  0  0  0
  -25.3964   14.9831    0.0000 C   0  0  0  0  0  0  0  0  0  0  0  0
  -25.6933   16.4534    0.0000 C   0  0  0  0  0  0  0  0  0  0  0  0
  -25.8767   17.9421    0.0000 C   0  0  0  0  0  0  0  0  0  0  0  0
  -25.9456   19.4406    0.0000 C   0  0  0  0  0  0  0  0  0  0  0  0
  -25.8997   20.9399    0.0000 C   0  0  0  0  0  0  0  0  0  0  0  0
  -25.7391   22.4312    0.0000 C   0  0  0  0  0  0  0  0  0  0  0  0
  -25.4648   23.9059    0.0000 C   0  0  0  0  0  0  0  0  0  0  0  0
  -25.0784   25.3553    0.0000 C   0  0  0  0  0  0  0  0  0  0  0  0
  -24.5822   26.7709    0.0000 C   0  0  0  0  0  0  0  0  0  0  0  0
  -23.9791   28.1443    0.0000 C   0  0  0  0  0  0  0  0  0  0  0  0
  -23.2726   29.4675    0.0000 C   0  0  0  0  0  0  0  0  0  0  0  0
  -22.4670   30.7328    0.0000 C   0  0  0  0  0  0  0  0  0  0  0  0
  -21.5668   31.9326    0.0000 C   0  0  0  0  0  0  0  0  0  0  0  0
  -20.5774   33.0601    0.0000 C   0  0  0  0  0  0  0  0  0  0  0  0
  -19.5046   34.1085    0.0000 C   0  0  0  0  0  0  0  0  0  0  0  0
  -18.3547   35.0717    0.0000 C   0  0  0  0  0  0  0  0  0  0  0  0
  -17.1345   35.9440    0.0000 C   0  0  0  0  0  0  0  0  0  0  0  0
  -15.8511   36.7204    0.0000 C   0  0  0  0  0  0  0  0  0  0  0  0
  -14.5120   37.3963    0.0000 C   0  0  0  0  0  0  0  0  0  0  0  0
  -13.1250   37.9677    0.0000 C   0  0  0  0  0  0  0  0  0  0  0  0
  -11.6985   38.4312    0.0000 C   0  0  0  0  0  0  0  0  0  0  0  0
  -10.2406   38.7841    0.0000 C   0  0  0  0  0  0  0  0  0  0  0  0
   -8.7599   39.0245    0.0000 C   0  0  0  0  0  0  0  0  0  0  0  0
   -7.2653   39.1507    0.0000 C   0  0  0  0  0  0  0  0  0  0  0  0
   -5.7653   39.1622    0.0000 C   0  0  0  0  0  0  0  0  0  0  0  0
   -4.2689   39.0589    0.0000 C   0  0  0  0  0  0  0  0  0  0  0  0
   -2.7847   38.8413    0.0000 C   0  0  0  0  0  0  0  0  0  0  0  0
   -1.3216   38.5107    0.0000 C   0  0  0  0  0  0  0  0  0  0  0  0
    0.1119   38.0691    0.0000 C   0  0  0  0  0  0  0  0  0  0  0  0
    1.5074   37.5190    0.0000 C   0  0  0  0  0  0  0  0  0  0  0  0
    2.8567   36.8638    0.0000 C   0  0  0  0  0  0  0  0  0  0  0  0
    4.1519   36.1071    0.0000 C   0  0  0  0  0  0  0  0  0  0  0  0
    5.3854   35.2536    0.0000 C   0  0  0  0  0  0  0  0  0  0  0  0
    6.5499   34.3081    0.0000 C   0  0  0  0  0  0  0  0  0  0  0  0
    7.6386   33.2763    0.0000 C   0  0  0  0  0  0  0  0  0  0  0  0
    8.6451   32.1641    0.0000 C   0  0  0  0  0  0  0  0  0  0  0  0
    9.5636   30.9782    0.0000 C   0  0  0  0  0  0  0  0  0  0  0  0
   10.3886   29.7254    0.0000 C   0  0  0  0  0  0  0  0  0  0  0  0
   11.1152   28.4132    0.0000 C   0  0  0  0  0  0  0  0  0  0  0  0
   11.7393   27.0492    0.0000 C   0  0  0  0  0  0  0  0  0  0  0  0
   12.2571   25.6414    0.0000 C   0  0  0  0  0  0  0  0  0  0  0  0
   12.6657   24.1981    0.0000 C   0  0  0  0  0  0  0  0  0  0  0  0
   12.9625   22.7278    0.0000 C   0  0  0  0  0  0  0  0  0  0  0  0
   13.1460   21.2390    0.0000 C   0  0  0  0  0  0  0  0  0  0  0  0
   13.2149   19.7406    0.0000 C   0  0  0  0  0  0  0  0  0  0  0  0
   13.1689   18.2413    0.0000 C   0  0  0  0  0  0  0  0  0  0  0  0
   13.0083   16.7500    0.0000 C   0  0  0  0  0  0  0  0  0  0  0  0
   12.7340   15.2752    0.0000 C   0  0  0  0  0  0  0  0  0  0  0  0
   12.3477   13.8259    0.0000 C   0  0  0  0  0  0  0  0  0  0  0  0
   11.8515   12.4103    0.0000 C   0  0  0  0  0  0  0  0  0  0  0  0
   11.2484   11.0369    0.0000 C   0  0  0  0  0  0  0  0  0  0  0  0
   10.5419    9.7137    0.0000 C   0  0  0  0  0  0  0  0  0  0  0  0
    9.7362    8.4484    0.0000 C   0  0  0  0  0  0  0  0  0  0  0  0
    8.8361    7.2485    0.0000 C   0  0  0  0  0  0  0  0  0  0  0  0
    7.8467    6.1211    0.0000 C   0  0  0  0  0  0  0  0  0  0  0  0
    6.7739    5.0727    0.0000 C   0  0  0  0  0  0  0  0  0  0  0  0
    5.6240    4.1095    0.0000 C   0  0  0  0  0  0  0  0  0  0  0  0
    4.4038    3.2371    0.0000 C   0  0  0  0  0  0  0  0  0  0  0  0
    3.1203    2.4608    0.0000 C   0  0  0  0  0  0  0  0  0  0  0  0
    1.7812    1.7849    0.0000 C   0  0  0  0  0  0  0  0  0  0  0  0
    0.3943    1.2135    0.0000 C   0  0  0  0  0  0  0  0  0  0  0  0
    1.2760    0.0000    0.0000 C   0  0  0  0  0  0  0  0  0  0  0  0
    0.3943   -1.2135    0.0000 C   0  0  0  0  0  0  0  0  0  0  0  0
   -1.0323   -0.7500    0.0000 C   0  0  0  0  0  0  0  0  0  0  0  0
   -1.0323    0.7500    0.0000 C   0  0  0  0  0  0  0  0  0  0  0  0
  1  2  1  0
  2  3  1  0
  3  4  1  0
  4  5  1  0
  5  6  1  0
  6  7  1  0
  7  8  1  0
  8  9  1  0
  9 10  1  0
 10 11  1  0
 11 12  1  0
 12 13  1  0
 13 14  1  0
 14 15  1  0
 15 16  1  0
 16 17  1  0
 17 18  1  0
 18 19  1  0
 19 20  1  0
 20 21  1  0
 21 22  1  0
 22 23  1  0
 23 24  1  0
 24 25  1  0
 25 26  1  0
 26 27  1  0
 27 28  1  0
 28 29  1  0
 29 30  1  0
 30 31  1  0
 31 32  1  0
 32 33  1  0
 33 34  1  0
 34 35  1  0
 35 36  1  0
 36 37  1  0
 37 38  1  0
 38 39  1  0
 39 40  1  0
 40 41  1  0
 41 42  1  0
 42 43  1  0
 43 44  1  0
 44 45  1  0
 45 46  1  0
 46 47  1  0
 47 48  1  0
 48 49  1  0
 49 50  1  0
 50 51  1  0
 51 52  1  0
 52 53  1  0
 53 54  1  0
 54 55  1  0
 55 56  1  0
 56 57  1  0
 57 58  1  0
 58 59  1  0
 59 60  1  0
 60 61  1  0
 61 62  1  0
 62 63  1  0
 63 64  1  0
 64 65  1  0
 65 66  1  0
 66 67  1  0
 67 68  1  0
 68 69  1  0
 69 70  2  0
 70 71  1  0
 71 72  2  0
 72 73  1  0
 73 74  2  0
 74 75  1  0
 75 76  2  0
 76 77  1  0
 77 78  2  0
 78 79  1  0
 79 80  2  0
 80 81  1  0
 81 82  2  0
 82 83  1  0
 83 84  2  0
 84 85  1  0
 85 86  2  0
 86  2  1  0
 86 82  1  0
M  END
>  <Title>  (1148) 
idABQFgen13

$$$$

     RDKit          2D

 32 36  0  0  0  0  0  0  0  0999 V2000
   -1.3240   -6.3062    0.0000 C   0  0  0  0  0  0  0  0  0  0  0  0
   -0.7500   -4.9204    0.0000 C   0  0  0  0  0  0  0  0  0  0  0  0
    0.7500   -4.9204    0.0000 N   0  0  0  0  0  0  0  0  0  0  0  0
    1.8107   -3.8597    0.0000 C   0  0  0  0  0  0  0  0  0  0  0  0
    1.8107   -2.3597    0.0000 C   0  0  0  0  0  0  0  0  0  0  0  0
    3.1965   -1.7857    0.0000 N   0  0  0  0  0  0  0  0  0  0  0  0
    3.5466   -0.3271    0.0000 C   0  0  0  0  0  0  0  0  0  0  0  0
    5.0420   -0.2094    0.0000 C   0  0  0  0  0  0  0  0  0  0  0  0
    5.6160   -1.5952    0.0000 C   0  0  0  0  0  0  0  0  0  0  0  0
    7.0746   -1.9454    0.0000 C   0  0  0  0  0  0  0  0  0  0  0  0
    8.1071   -0.8574    0.0000 O   0  0  0  0  0  0  0  0  0  0  0  0
    7.5006   -3.3836    0.0000 N   0  0  0  0  0  0  0  0  0  0  0  0
    8.9592   -3.7338    0.0000 C   0  0  0  0  0  0  0  0  0  0  0  0
    9.3852   -5.1720    0.0000 N   0  0  0  0  0  0  0  0  0  0  0  0
   10.8438   -5.5222    0.0000 N   0  0  0  0  0  0  0  0  0  0  0  0
   11.8763   -4.4342    0.0000 N   0  0  0  0  0  0  0  0  0  0  0  0
   11.4503   -2.9959    0.0000 N   0  0  0  0  0  0  0  0  0  0  0  0
    9.9917   -2.6458    0.0000 N   0  0  0  0  0  0  0  0  0  0  0  0
    4.4754   -2.5694    0.0000 C   0  0  0  0  0  0  0  0  0  0  0  0
    4.5931   -4.0648    0.0000 O   0  0  0  0  0  0  0  0  0  0  0  0
    0.7500   -1.2990    0.0000 C   0  0  0  0  0  0  0  0  0  0  0  0
    1.5000    0.0000    0.0000 C   0  0  0  0  0  0  0  0  0  0  0  0
    0.7500    1.2990    0.0000 C   0  0  0  0  0  0  0  0  0  0  0  0
   -0.7500    1.2990    0.0000 C   0  0  0  0  0  0  0  0  0  0  0  0
   -1.5000    0.0000    0.0000 C   0  0  0  0  0  0  0  0  0  0  0  0
   -0.7500   -1.2990    0.0000 C   0  0  0  0  0  0  0  0  0  0  0  0
   -1.8107   -2.3597    0.0000 C   0  0  0  0  0  0  0  0  0  0  0  0
   -3.1097   -1.6097    0.0000 C   0  0  0  0  0  0  0  0  0  0  0  0
   -4.4087   -2.3597    0.0000 C   0  0  0  0  0  0  0  0  0  0  0  0
   -4.4087   -3.8597    0.0000 C   0  0  0  0  0  0  0  0  0  0  0  0
   -3.1097   -4.6097    0.0000 C   0  0  0  0  0  0  0  0  0  0  0  0
   -1.8107   -3.8597    0.0000 C   0  0  0  0  0  0  0  0  0  0  0  0
  1  2  1  0
  2  3  2  0
  3  4  1  0
  4  5  2  0
  5  6  1  0
  6  7  1  0
  7  8  1  0
  8  9  2  0
  9 10  1  0
 10 11  2  0
 10 12  1  0
 12 13  1  0
 13 14  2  0
 14 15  1  0
 15 16  2  0
 16 17  1  0
 17 18  2  0
  9 19  1  0
 19 20  2  0
  5 21  1  0
 21 22  2  0
 22 23  1  0
 23 24  2  0
 24 25  1  0
 25 26  2  0
 26 27  1  0
 27 28  2  0
 28 29  1  0
 29 30  2  0
 30 31  1  0
 31 32  2  0
 32  2  1  0
 19  6  1  0
 26 21  1  0
 32 27  1  0
 18 13  1  0
M  END
>  <Title>  (1149) 
idABQGgen13

$$$$

     RDKit          2D

 22 24  0  0  0  0  0  0  0  0999 V2000
   -3.1965   -1.7857    0.0000 C   0  0  0  0  0  0  0  0  0  0  0  0
   -1.8107   -2.3597    0.0000 C   0  0  0  0  0  0  0  0  0  0  0  0
   -1.8107   -3.8597    0.0000 C   0  0  0  0  0  0  0  0  0  0  0  0
   -0.7500   -4.9204    0.0000 C   0  0  0  0  0  0  0  0  0  0  0  0
    0.7500   -4.9204    0.0000 C   0  0  0  0  0  0  0  0  0  0  0  0
    1.8107   -3.8597    0.0000 C   0  0  0  0  0  0  0  0  0  0  0  0
    1.8107   -2.3597    0.0000 C   0  0  0  0  0  0  0  0  0  0  0  0
    3.1965   -1.7857    0.0000 C   0  0  0  0  0  0  0  0  0  0  0  0
    3.3923   -0.2985    0.0000 O   0  0  0  0  0  0  0  0  0  0  0  0
    4.3865   -2.6988    0.0000 N   0  0  0  0  0  0  0  0  0  0  0  0
    5.7723   -2.1248    0.0000 C   0  0  0  0  0  0  0  0  0  0  0  0
    6.1225   -0.6662    0.0000 N   0  0  0  0  0  0  0  0  0  0  0  0
    7.6179   -0.5485    0.0000 N   0  0  0  0  0  0  0  0  0  0  0  0
    8.1919   -1.9344    0.0000 N   0  0  0  0  0  0  0  0  0  0  0  0
    7.0513   -2.9085    0.0000 N   0  0  0  0  0  0  0  0  0  0  0  0
    7.1690   -4.4039    0.0000 C   0  0  0  0  0  0  0  0  0  0  0  0
    0.7500   -1.2990    0.0000 C   0  0  0  0  0  0  0  0  0  0  0  0
    1.5000    0.0000    0.0000 C   0  0  0  0  0  0  0  0  0  0  0  0
    0.7500    1.2990    0.0000 C   0  0  0  0  0  0  0  0  0  0  0  0
   -0.7500    1.2990    0.0000 C   0  0  0  0  0  0  0  0  0  0  0  0
   -1.5000    0.0000    0.0000 C   0  0  0  0  0  0  0  0  0  0  0  0
   -0.7500   -1.2990    0.0000 C   0  0  0  0  0  0  0  0  0  0  0  0
  1  2  1  0
  2  3  1  0
  3  4  1  0
  4  5  1  0
  5  6  1  0
  6  7  1  0
  7  8  1  0
  8  9  2  0
  8 10  1  0
 10 11  1  0
 11 12  2  0
 12 13  1  0
 13 14  2  0
 14 15  1  0
 15 16  1  0
  7 17  1  0
 17 18  2  0
 18 19  1  0
 19 20  2  0
 20 21  1  0
 21 22  2  0
 22  2  1  0
 15 11  1  0
 22 17  1  0
M  END
>  <Title>  (1150) 
idABQHgen13

$$$$

     RDKit          2D

 41 46  0  0  0  0  0  0  0  0999 V2000
   -3.1476   -2.1380    0.0000 C   0  0  0  0  0  0  0  0  0  0  0  0
   -1.6852   -2.4718    0.0000 C   0  0  0  0  0  0  0  0  0  0  0  0
   -1.3515   -3.9342    0.0000 C   0  0  0  0  0  0  0  0  0  0  0  0
   -0.0000   -4.5850    0.0000 C   0  0  0  0  0  0  0  0  0  0  0  0
    1.3515   -3.9342    0.0000 C   0  0  0  0  0  0  0  0  0  0  0  0
    1.6852   -2.4718    0.0000 C   0  0  0  0  0  0  0  0  0  0  0  0
    3.1476   -2.1380    0.0000 C   0  0  0  0  0  0  0  0  0  0  0  0
    3.5898   -0.7046    0.0000 O   0  0  0  0  0  0  0  0  0  0  0  0
    4.1679   -3.2376    0.0000 N   0  0  0  0  0  0  0  0  0  0  0  0
    5.6303   -2.9038    0.0000 C   0  0  0  0  0  0  0  0  0  0  0  0
    6.2198   -1.5245    0.0000 N   0  0  0  0  0  0  0  0  0  0  0  0
    7.7138   -1.6590    0.0000 N   0  0  0  0  0  0  0  0  0  0  0  0
    8.0476   -3.1214    0.0000 N   0  0  0  0  0  0  0  0  0  0  0  0
    6.7599   -3.8907    0.0000 N   0  0  0  0  0  0  0  0  0  0  0  0
    6.6254   -5.3847    0.0000 N   0  0  0  0  0  0  0  0  0  0  0  0
    5.2644   -6.0152    0.0000 C   0  0  0  0  0  0  0  0  0  0  0  0
    5.1299   -7.5092    0.0000 N   0  0  0  0  0  0  0  0  0  0  0  0
    6.3565   -8.3726    0.0000 N   0  0  0  0  0  0  0  0  0  0  0  0
    7.7175   -7.7421    0.0000 N   0  0  0  0  0  0  0  0  0  0  0  0
    7.8520   -6.2481    0.0000 N   0  0  0  0  0  0  0  0  0  0  0  0
    9.2130   -5.6176    0.0000 N   0  0  0  0  0  0  0  0  0  0  0  0
    9.5029   -4.1458    0.0000 C   0  0  0  0  0  0  0  0  0  0  0  0
   10.9922   -3.9667    0.0000 C   0  0  0  0  0  0  0  0  0  0  0  0
   11.6227   -5.3278    0.0000 N   0  0  0  0  0  0  0  0  0  0  0  0
   13.0945   -5.6177    0.0000 C   0  0  0  0  0  0  0  0  0  0  0  0
   14.0814   -4.4881    0.0000 O   0  0  0  0  0  0  0  0  0  0  0  0
   13.5793   -7.0372    0.0000 N   0  0  0  0  0  0  0  0  0  0  0  0
   15.0510   -7.3270    0.0000 C   0  0  0  0  0  0  0  0  0  0  0  0
   15.5358   -8.7465    0.0000 N   0  0  0  0  0  0  0  0  0  0  0  0
   17.0075   -9.0364    0.0000 N   0  0  0  0  0  0  0  0  0  0  0  0
   17.9944   -7.9068    0.0000 N   0  0  0  0  0  0  0  0  0  0  0  0
   17.5096   -6.4873    0.0000 N   0  0  0  0  0  0  0  0  0  0  0  0
   16.0379   -6.1974    0.0000 N   0  0  0  0  0  0  0  0  0  0  0  0
   10.5232   -6.3480    0.0000 C   0  0  0  0  0  0  0  0  0  0  0  0
   10.7022   -7.8373    0.0000 O   0  0  0  0  0  0  0  0  0  0  0  0
    0.7500   -1.2990    0.0000 C   0  0  0  0  0  0  0  0  0  0  0  0
    1.5000    0.0000    0.0000 C   0  0  0  0  0  0  0  0  0  0  0  0
    0.7500    1.2990    0.0000 C   0  0  0  0  0  0  0  0  0  0  0  0
   -0.7500    1.2990    0.0000 C   0  0  0  0  0  0  0  0  0  0  0  0
   -1.5000    0.0000    0.0000 C   0  0  0  0  0  0  0  0  0  0  0  0
   -0.7500   -1.2990    0.0000 C   0  0  0  0  0  0  0  0  0  0  0  0
  1  2  1  0
  2  3  1  0
  3  4  2  0
  4  5  1  0
  5  6  1  0
  6  7  1  0
  7  8  2  0
  7  9  1  0
  9 10  1  0
 10 11  2  0
 11 12  1  0
 12 13  2  0
 13 14  1  0
 14 15  1  0
 15 16  1  0
 16 17  2  0
 17 18  1  0
 18 19  2  0
 19 20  1  0
 20 21  1  0
 21 22  1  0
 22 23  1  0
 23 24  1  0
 24 25  1  0
 25 26  2  0
 25 27  1  0
 27 28  1  0
 28 29  2  0
 29 30  1  0
 30 31  2  0
 31 32  1  0
 32 33  2  0
 24 34  1  0
 34 35  2  0
  6 36  1  0
 36 37  2  0
 37 38  1  0
 38 39  2  0
 39 40  1  0
 40 41  2  0
 41  2  1  0
 14 10  1  0
 20 15  1  0
 34 21  1  0
 41 36  1  0
 33 28  1  0
M  END
>  <Title>  (1151) 
idABQIgen13

$$$$

     RDKit          2D

  4  3  0  0  0  0  0  0  0  0999 V2000
    0.0000    0.0000    0.0000 C   0  0  0  0  0  0  0  0  0  0  0  0
    1.2990    0.7500    0.0000 C   0  0  0  0  0  0  0  0  0  0  0  0
    2.5981   -0.0000    0.0000 C   0  0  0  0  0  0  0  0  0  0  0  0
    1.2990    2.2500    0.0000 O   0  0  0  0  0  0  0  0  0  0  0  0
  1  2  1  0
  2  3  1  0
  2  4  2  0
M  END
>  <Title>  (1152) 
idABQJgen13

$$$$

     RDKit          2D

  7  7  0  0  0  0  0  0  0  0999 V2000
    4.8107   -1.2990    0.0000 C   0  0  0  0  0  0  0  0  0  0  0  0
    3.3107   -1.2990    0.0000 C   0  0  0  0  0  0  0  0  0  0  0  0
    2.5607    0.0000    0.0000 C   0  0  0  0  0  0  0  0  0  0  0  0
    1.0607    0.0000    0.0000 N   0  0  0  0  0  0  0  0  0  0  0  0
   -0.0000   -1.0607    0.0000 C   0  0  0  0  0  0  0  0  0  0  0  0
   -1.0607    0.0000    0.0000 C   0  0  0  0  0  0  0  0  0  0  0  0
    0.0000    1.0607    0.0000 C   0  0  0  0  0  0  0  0  0  0  0  0
  1  2  1  0
  2  3  2  3
  3  4  1  0
  4  5  1  0
  5  6  2  0
  6  7  1  0
  7  4  1  0
M  END
>  <Title>  (1153) 
idABQKgen13

$$$$

     RDKit          2D

  8  8  0  0  0  0  0  0  0  0999 V2000
    5.0260   -1.2990    0.0000 C   0  0  0  0  0  0  0  0  0  0  0  0
    3.5260   -1.2990    0.0000 C   0  0  0  0  0  0  0  0  0  0  0  0
    2.7760    0.0000    0.0000 C   0  0  0  0  0  0  0  0  0  0  0  0
    1.2760    0.0000    0.0000 N   0  0  0  0  0  0  0  0  0  0  0  0
    0.3943    1.2135    0.0000 C   0  0  0  0  0  0  0  0  0  0  0  0
   -1.0323    0.7500    0.0000 C   0  0  0  0  0  0  0  0  0  0  0  0
   -1.0323   -0.7500    0.0000 C   0  0  0  0  0  0  0  0  0  0  0  0
    0.3943   -1.2135    0.0000 C   0  0  0  0  0  0  0  0  0  0  0  0
  1  2  1  0
  2  3  1  0
  3  4  1  0
  4  5  1  0
  5  6  1  0
  6  7  1  0
  7  8  1  0
  8  4  1  0
M  END
>  <Title>  (1154) 
idABQLgen13

$$$$

     RDKit          2D

 31 34  0  0  0  0  0  0  0  0999 V2000
    3.0000    0.0000    0.0000 C   0  0  0  0  0  0  0  0  0  0  0  0
    1.5000    0.0000    0.0000 C   0  0  0  0  0  0  0  0  0  0  0  0
    0.7500   -1.2990    0.0000 C   0  0  0  0  0  0  0  0  0  0  0  0
   -0.7500   -1.2990    0.0000 C   0  0  0  0  0  0  0  0  0  0  0  0
   -1.5000    0.0000    0.0000 C   0  0  0  0  0  0  0  0  0  0  0  0
   -3.0000    0.0000    0.0000 C   0  0  0  0  0  0  0  0  0  0  0  0
   -3.7500   -1.2990    0.0000 O   0  0  0  0  0  0  0  0  0  0  0  0
   -3.7500    1.2990    0.0000 N   0  0  0  0  0  0  0  0  0  0  0  0
   -5.2500    1.2990    0.0000 C   0  0  0  0  0  0  0  0  0  0  0  0
   -6.1317    0.0855    0.0000 N   0  0  0  0  0  0  0  0  0  0  0  0
   -7.5583    0.5490    0.0000 N   0  0  0  0  0  0  0  0  0  0  0  0
   -7.5583    2.0490    0.0000 N   0  0  0  0  0  0  0  0  0  0  0  0
   -6.1317    2.5126    0.0000 N   0  0  0  0  0  0  0  0  0  0  0  0
   -5.6682    3.9391    0.0000 N   0  0  0  0  0  0  0  0  0  0  0  0
   -6.5498    5.1527    0.0000 C   0  0  0  0  0  0  0  0  0  0  0  0
   -5.6682    6.3662    0.0000 C   0  0  0  0  0  0  0  0  0  0  0  0
   -4.2416    5.9027    0.0000 N   0  0  0  0  0  0  0  0  0  0  0  0
   -3.0280    6.7844    0.0000 C   0  0  0  0  0  0  0  0  0  0  0  0
   -3.1848    8.2761    0.0000 O   0  0  0  0  0  0  0  0  0  0  0  0
   -1.6577    6.1742    0.0000 N   0  0  0  0  0  0  0  0  0  0  0  0
   -0.4442    7.0559    0.0000 C   0  0  0  0  0  0  0  0  0  0  0  0
    0.9261    6.4458    0.0000 N   0  0  0  0  0  0  0  0  0  0  0  0
    2.1396    7.3275    0.0000 N   0  0  0  0  0  0  0  0  0  0  0  0
    1.9829    8.8193    0.0000 N   0  0  0  0  0  0  0  0  0  0  0  0
    0.6125    9.4294    0.0000 N   0  0  0  0  0  0  0  0  0  0  0  0
   -0.6010    8.5477    0.0000 N   0  0  0  0  0  0  0  0  0  0  0  0
   -4.2416    4.4027    0.0000 C   0  0  0  0  0  0  0  0  0  0  0  0
   -3.0280    3.5210    0.0000 O   0  0  0  0  0  0  0  0  0  0  0  0
   -0.7500    1.2990    0.0000 C   0  0  0  0  0  0  0  0  0  0  0  0
   -1.5000    2.5981    0.0000 O   0  0  0  0  0  0  0  0  0  0  0  0
    0.7500    1.2990    0.0000 O   0  0  0  0  0  0  0  0  0  0  0  0
  1  2  1  0
  2  3  2  0
  3  4  1  0
  4  5  2  0
  5  6  1  0
  6  7  2  0
  6  8  1  0
  8  9  1  0
  9 10  2  0
 10 11  1  0
 11 12  2  0
 12 13  1  0
 13 14  1  0
 14 15  1  0
 15 16  1  0
 16 17  1  0
 17 18  1  0
 18 19  2  0
 18 20  1  0
 20 21  1  0
 21 22  2  0
 22 23  1  0
 23 24  2  0
 24 25  1  0
 25 26  2  0
 17 27  1  0
 27 28  2  0
  5 29  1  0
 29 30  2  0
 29 31  1  0
 31  2  1  0
 13  9  1  0
 27 14  1  0
 26 21  1  0
M  END
>  <Title>  (1155) 
idABQMgen13

$$$$

     RDKit          2D

 34 33  0  0  0  0  0  0  0  0999 V2000
    0.0000    0.0000    0.0000 C   0  0  0  0  0  0  0  0  0  0  0  0
   -0.0000   -1.5000    0.0000 C   0  0  0  0  0  0  0  0  0  0  0  0
   -0.0000   -3.0000    0.0000 C   0  0  0  0  0  0  0  0  0  0  0  0
   -0.0000   -4.5000    0.0000 C   0  0  0  0  0  0  0  0  0  0  0  0
   -0.0000   -6.0000    0.0000 C   0  0  0  0  0  0  0  0  0  0  0  0
   -0.0000   -7.5000    0.0000 C   0  0  0  0  0  0  0  0  0  0  0  0
   -0.0000   -9.0000    0.0000 C   0  0  0  0  0  0  0  0  0  0  0  0
   -0.0000  -10.5000    0.0000 C   0  0  0  0  0  0  0  0  0  0  0  0
   -0.0000  -12.0000    0.0000 C   0  0  0  0  0  0  0  0  0  0  0  0
   -0.0000  -13.5000    0.0000 C   0  0  0  0  0  0  0  0  0  0  0  0
   -0.0000  -15.0000    0.0000 C   0  0  0  0  0  0  0  0  0  0  0  0
   -0.0000  -16.5000    0.0000 C   0  0  0  0  0  0  0  0  0  0  0  0
   -0.0000  -18.0000    0.0000 C   0  0  0  0  0  0  0  0  0  0  0  0
   -0.0000  -19.5000    0.0000 C   0  0  0  0  0  0  0  0  0  0  0  0
   -0.0000  -21.0000    0.0000 C   0  0  0  0  0  0  0  0  0  0  0  0
   -0.0000  -22.5000    0.0000 C   0  0  0  0  0  0  0  0  0  0  0  0
   -0.0000  -24.0000    0.0000 C   0  0  0  0  0  0  0  0  0  0  0  0
   -0.0000  -25.5000    0.0000 C   0  0  0  0  0  0  0  0  0  0  0  0
   -0.0000  -27.0000    0.0000 C   0  0  0  0  0  0  0  0  0  0  0  0
   -0.0000  -28.5000    0.0000 C   0  0  0  0  0  0  0  0  0  0  0  0
   -0.0000  -30.0000    0.0000 C   0  0  0  0  0  0  0  0  0  0  0  0
   -0.0000  -31.5000    0.0000 C   0  0  0  0  0  0  0  0  0  0  0  0
   -0.0000  -33.0000    0.0000 C   0  0  0  0  0  0  0  0  0  0  0  0
   -0.0000  -34.5000    0.0000 C   0  0  0  0  0  0  0  0  0  0  0  0
   -0.0000  -36.0000    0.0000 C   0  0  0  0  0  0  0  0  0  0  0  0
   -0.0000  -37.5000    0.0000 C   0  0  0  0  0  0  0  0  0  0  0  0
   -0.0000  -39.0000    0.0000 C   0  0  0  0  0  0  0  0  0  0  0  0
   -0.0000  -40.5000    0.0000 C   0  0  0  0  0  0  0  0  0  0  0  0
   -0.0000  -42.0000    0.0000 N   0  0  0  0  0  0  0  0  0  0  0  0
    1.2990  -42.7500    0.0000 C   0  0  0  0  0  0  0  0  0  0  0  0
    2.5981  -42.0000    0.0000 O   0  0  0  0  0  0  0  0  0  0  0  0
    1.2990  -44.2500    0.0000 C   0  0  0  0  0  0  0  0  0  0  0  0
    2.5981  -45.0000    0.0000 C   0  0  0  0  0  0  0  0  0  0  0  0
    2.5981  -46.5000    0.0000 C   0  0  0  0  0  0  0  0  0  0  0  0
  1  2  3  0
  2  3  1  0
  3  4  3  0
  4  5  1  0
  5  6  3  0
  6  7  1  0
  7  8  3  0
  8  9  1  0
  9 10  3  0
 10 11  1  0
 11 12  3  0
 12 13  1  0
 13 14  3  0
 14 15  1  0
 15 16  3  0
 16 17  1  0
 17 18  3  0
 18 19  1  0
 19 20  3  0
 20 21  1  0
 21 22  3  0
 22 23  1  0
 23 24  3  0
 24 25  1  0
 25 26  3  0
 26 27  1  0
 27 28  3  0
 28 29  1  0
 29 30  1  0
 30 31  2  0
 30 32  1  0
 32 33  1  0
 33 34  1  0
M  END
>  <Title>  (1156) 
idABQNgen13

$$$$

     RDKit          2D

  8  7  0  0  0  0  0  0  0  0999 V2000
    0.0000    0.0000    0.0000 C   0  0  0  0  0  0  0  0  0  0  0  0
   -0.0000   -1.5000    0.0000 C   0  0  0  0  0  0  0  0  0  0  0  0
   -0.0000   -3.0000    0.0000 C   0  0  0  0  0  0  0  0  0  0  0  0
    1.2990   -3.7500    0.0000 C   0  0  0  0  0  0  0  0  0  0  0  0
    1.2990   -5.2500    0.0000 C   0  0  0  0  0  0  0  0  0  0  0  0
    2.5981   -6.0000    0.0000 C   0  0  0  0  0  0  0  0  0  0  0  0
    2.5981   -7.5000    0.0000 O   0  0  0  0  0  0  0  0  0  0  0  0
    3.8971   -5.2500    0.0000 F   0  0  0  0  0  0  0  0  0  0  0  0
  1  2  3  0
  2  3  1  0
  3  4  1  0
  4  5  1  0
  5  6  1  0
  6  7  1  0
  6  8  1  0
M  END
>  <Title>  (1157) 
idABQOgen13

$$$$

     RDKit          2D

 35 40  0  0  0  0  0  0  0  0999 V2000
   -1.3240   -6.3062    0.0000 C   0  0  0  0  0  0  0  0  0  0  0  0
   -0.7500   -4.9204    0.0000 C   0  0  0  0  0  0  0  0  0  0  0  0
    0.7500   -4.9204    0.0000 C   0  0  0  0  0  0  0  0  0  0  0  0
    1.8107   -3.8597    0.0000 C   0  0  0  0  0  0  0  0  0  0  0  0
    1.8107   -2.3597    0.0000 C   0  0  0  0  0  0  0  0  0  0  0  0
    3.1965   -1.7857    0.0000 N   0  0  0  0  0  0  0  0  0  0  0  0
    3.5466   -0.3271    0.0000 C   0  0  0  0  0  0  0  0  0  0  0  0
    5.0420   -0.2094    0.0000 C   0  0  0  0  0  0  0  0  0  0  0  0
    5.6160   -1.5952    0.0000 N   0  0  0  0  0  0  0  0  0  0  0  0
    4.4754   -2.5694    0.0000 N   0  0  0  0  0  0  0  0  0  0  0  0
    4.5931   -4.0648    0.0000 N   0  0  0  0  0  0  0  0  0  0  0  0
    5.8721   -4.8485    0.0000 C   0  0  0  0  0  0  0  0  0  0  0  0
    5.5219   -6.3071    0.0000 C   0  0  0  0  0  0  0  0  0  0  0  0
    4.0265   -6.4248    0.0000 N   0  0  0  0  0  0  0  0  0  0  0  0
    3.2428   -7.7037    0.0000 N   0  0  0  0  0  0  0  0  0  0  0  0
    3.9585   -9.0220    0.0000 C   0  0  0  0  0  0  0  0  0  0  0  0
    3.1748  -10.3009    0.0000 N   0  0  0  0  0  0  0  0  0  0  0  0
    3.8905  -11.6192    0.0000 N   0  0  0  0  0  0  0  0  0  0  0  0
    5.3900  -11.6584    0.0000 N   0  0  0  0  0  0  0  0  0  0  0  0
    6.1738  -10.3795    0.0000 N   0  0  0  0  0  0  0  0  0  0  0  0
    5.4580   -9.0612    0.0000 N   0  0  0  0  0  0  0  0  0  0  0  0
    3.4525   -5.0390    0.0000 C   0  0  0  0  0  0  0  0  0  0  0  0
    1.9940   -4.6888    0.0000 O   0  0  0  0  0  0  0  0  0  0  0  0
    0.7500   -1.2990    0.0000 C   0  0  0  0  0  0  0  0  0  0  0  0
    1.5000    0.0000    0.0000 C   0  0  0  0  0  0  0  0  0  0  0  0
    0.7500    1.2990    0.0000 C   0  0  0  0  0  0  0  0  0  0  0  0
   -0.7500    1.2990    0.0000 C   0  0  0  0  0  0  0  0  0  0  0  0
   -1.5000    0.0000    0.0000 C   0  0  0  0  0  0  0  0  0  0  0  0
   -0.7500   -1.2990    0.0000 C   0  0  0  0  0  0  0  0  0  0  0  0
   -1.8107   -2.3597    0.0000 C   0  0  0  0  0  0  0  0  0  0  0  0
   -3.1097   -1.6097    0.0000 C   0  0  0  0  0  0  0  0  0  0  0  0
   -4.4087   -2.3597    0.0000 C   0  0  0  0  0  0  0  0  0  0  0  0
   -4.4087   -3.8597    0.0000 C   0  0  0  0  0  0  0  0  0  0  0  0
   -3.1097   -4.6097    0.0000 C   0  0  0  0  0  0  0  0  0  0  0  0
   -1.8107   -3.8597    0.0000 C   0  0  0  0  0  0  0  0  0  0  0  0
  1  2  1  0
  2  3  2  0
  3  4  1  0
  4  5  2  0
  5  6  1  0
  6  7  1  0
  7  8  1  0
  8  9  2  0
  9 10  1  0
 10 11  1  0
 11 12  1  0
 12 13  1  0
 13 14  1  0
 14 15  1  0
 15 16  1  0
 16 17  2  0
 17 18  1  0
 18 19  2  0
 19 20  1  0
 20 21  2  0
 14 22  1  0
 22 23  2  0
  5 24  1  0
 24 25  2  0
 25 26  1  0
 26 27  2  0
 27 28  1  0
 28 29  2  0
 29 30  1  0
 30 31  2  0
 31 32  1  0
 32 33  2  0
 33 34  1  0
 34 35  2  0
 35  2  1  0
 10  6  1  0
 22 11  1  0
 29 24  1  0
 35 30  1  0
 21 16  1  0
M  END
>  <Title>  (1158) 
idABQPgen13

$$$$

     RDKit          2D

 80 81  0  0  0  0  0  0  0  0999 V2000
    4.0714    4.1654    0.0000 C   0  0  0  0  0  0  0  0  0  0  0  0
    4.8513    4.3306    0.0000 C   0  0  0  0  0  0  0  0  0  0  0  0
    4.6233    5.8131    0.0000 C   0  0  0  0  0  0  0  0  0  0  0  0
    4.5627    7.3119    0.0000 C   0  0  0  0  0  0  0  0  0  0  0  0
    4.6703    8.8080    0.0000 C   0  0  0  0  0  0  0  0  0  0  0  0
    4.9448   10.2827    0.0000 C   0  0  0  0  0  0  0  0  0  0  0  0
    5.3826   11.7174    0.0000 C   0  0  0  0  0  0  0  0  0  0  0  0
    5.9784   13.0940    0.0000 C   0  0  0  0  0  0  0  0  0  0  0  0
    6.7245   14.3953    0.0000 C   0  0  0  0  0  0  0  0  0  0  0  0
    7.6116   15.6049    0.0000 C   0  0  0  0  0  0  0  0  0  0  0  0
    8.6286   16.7075    0.0000 C   0  0  0  0  0  0  0  0  0  0  0  0
    9.7626   17.6893    0.0000 C   0  0  0  0  0  0  0  0  0  0  0  0
   10.9994   18.5380    0.0000 C   0  0  0  0  0  0  0  0  0  0  0  0
   12.3235   19.2429    0.0000 C   0  0  0  0  0  0  0  0  0  0  0  0
   13.7181   19.7950    0.0000 C   0  0  0  0  0  0  0  0  0  0  0  0
   15.1659   20.1876    0.0000 C   0  0  0  0  0  0  0  0  0  0  0  0
   16.6484   20.4156    0.0000 C   0  0  0  0  0  0  0  0  0  0  0  0
   18.1472   20.4762    0.0000 C   0  0  0  0  0  0  0  0  0  0  0  0
   19.6433   20.3686    0.0000 C   0  0  0  0  0  0  0  0  0  0  0  0
   21.1180   20.0941    0.0000 C   0  0  0  0  0  0  0  0  0  0  0  0
   22.5527   19.6563    0.0000 C   0  0  0  0  0  0  0  0  0  0  0  0
   23.9293   19.0605    0.0000 C   0  0  0  0  0  0  0  0  0  0  0  0
   25.2306   18.3144    0.0000 C   0  0  0  0  0  0  0  0  0  0  0  0
   26.4402   17.4273    0.0000 C   0  0  0  0  0  0  0  0  0  0  0  0
   27.5428   16.4104    0.0000 C   0  0  0  0  0  0  0  0  0  0  0  0
   28.5246   15.2763    0.0000 C   0  0  0  0  0  0  0  0  0  0  0  0
   29.3733   14.0395    0.0000 C   0  0  0  0  0  0  0  0  0  0  0  0
   30.0782   12.7154    0.0000 C   0  0  0  0  0  0  0  0  0  0  0  0
   30.6304   11.3208    0.0000 C   0  0  0  0  0  0  0  0  0  0  0  0
   31.0229    9.8730    0.0000 C   0  0  0  0  0  0  0  0  0  0  0  0
   31.2509    8.3905    0.0000 C   0  0  0  0  0  0  0  0  0  0  0  0
   31.3115    6.8917    0.0000 C   0  0  0  0  0  0  0  0  0  0  0  0
   31.2039    5.3956    0.0000 C   0  0  0  0  0  0  0  0  0  0  0  0
   30.9294    3.9209    0.0000 C   0  0  0  0  0  0  0  0  0  0  0  0
   30.4916    2.4862    0.0000 C   0  0  0  0  0  0  0  0  0  0  0  0
   29.8958    1.1096    0.0000 C   0  0  0  0  0  0  0  0  0  0  0  0
   29.1497   -0.1917    0.0000 C   0  0  0  0  0  0  0  0  0  0  0  0
   28.2626   -1.4013    0.0000 C   0  0  0  0  0  0  0  0  0  0  0  0
   27.2457   -2.5039    0.0000 C   0  0  0  0  0  0  0  0  0  0  0  0
   26.1116   -3.4857    0.0000 C   0  0  0  0  0  0  0  0  0  0  0  0
   24.8748   -4.3344    0.0000 C   0  0  0  0  0  0  0  0  0  0  0  0
   23.5507   -5.0393    0.0000 C   0  0  0  0  0  0  0  0  0  0  0  0
   22.1561   -5.5914    0.0000 C   0  0  0  0  0  0  0  0  0  0  0  0
   20.7084   -5.9840    0.0000 C   0  0  0  0  0  0  0  0  0  0  0  0
   19.2258   -6.2120    0.0000 C   0  0  0  0  0  0  0  0  0  0  0  0
   17.7270   -6.2726    0.0000 C   0  0  0  0  0  0  0  0  0  0  0  0
   16.2309   -6.1650    0.0000 C   0  0  0  0  0  0  0  0  0  0  0  0
   14.7562   -5.8905    0.0000 C   0  0  0  0  0  0  0  0  0  0  0  0
   13.3215   -5.4527    0.0000 C   0  0  0  0  0  0  0  0  0  0  0  0
   11.9449   -4.8569    0.0000 C   0  0  0  0  0  0  0  0  0  0  0  0
   10.6436   -4.1108    0.0000 C   0  0  0  0  0  0  0  0  0  0  0  0
    9.4341   -3.2237    0.0000 C   0  0  0  0  0  0  0  0  0  0  0  0
    8.3314   -2.2067    0.0000 C   0  0  0  0  0  0  0  0  0  0  0  0
    7.3496   -1.0727    0.0000 C   0  0  0  0  0  0  0  0  0  0  0  0
    6.5009    0.1641    0.0000 C   0  0  0  0  0  0  0  0  0  0  0  0
    5.7960    1.4882    0.0000 C   0  0  0  0  0  0  0  0  0  0  0  0
    5.2840    0.0000    0.0000 C   0  0  0  0  0  0  0  0  0  0  0  0
    5.1180   -1.3141    0.0000 C   0  0  0  0  0  0  0  0  0  0  0  0
    4.6304   -2.5456    0.0000 C   0  0  0  0  0  0  0  0  0  0  0  0
    3.8519   -3.6172    0.0000 C   0  0  0  0  0  0  0  0  0  0  0  0
    2.8313   -4.4615    0.0000 C   0  0  0  0  0  0  0  0  0  0  0  0
    1.6329   -5.0254    0.0000 C   0  0  0  0  0  0  0  0  0  0  0  0
    0.3318   -5.2736    0.0000 C   0  0  0  0  0  0  0  0  0  0  0  0
   -0.9901   -5.1905    0.0000 C   0  0  0  0  0  0  0  0  0  0  0  0
   -2.2498   -4.7811    0.0000 C   0  0  0  0  0  0  0  0  0  0  0  0
   -3.3682   -4.0714    0.0000 C   0  0  0  0  0  0  0  0  0  0  0  0
   -4.2749   -3.1059    0.0000 C   0  0  0  0  0  0  0  0  0  0  0  0
   -4.9130   -1.9452    0.0000 C   0  0  0  0  0  0  0  0  0  0  0  0
   -5.2424   -0.6623    0.0000 C   0  0  0  0  0  0  0  0  0  0  0  0
   -5.2424    0.6623    0.0000 C   0  0  0  0  0  0  0  0  0  0  0  0
   -4.9130    1.9452    0.0000 C   0  0  0  0  0  0  0  0  0  0  0  0
   -4.2749    3.1059    0.0000 C   0  0  0  0  0  0  0  0  0  0  0  0
   -3.3682    4.0714    0.0000 C   0  0  0  0  0  0  0  0  0  0  0  0
   -2.2498    4.7811    0.0000 C   0  0  0  0  0  0  0  0  0  0  0  0
   -0.9901    5.1905    0.0000 C   0  0  0  0  0  0  0  0  0  0  0  0
    0.3318    5.2736    0.0000 C   0  0  0  0  0  0  0  0  0  0  0  0
    1.6329    5.0254    0.0000 C   0  0  0  0  0  0  0  0  0  0  0  0
    2.8313    4.4615    0.0000 C   0  0  0  0  0  0  0  0  0  0  0  0
    3.8519    3.6172    0.0000 C   0  0  0  0  0  0  0  0  0  0  0  0
    5.2439    2.8828    0.0000 C   0  0  0  0  0  0  0  0  0  0  0  0
  1  2  1  0
  2  3  1  0
  3  4  1  0
  4  5  1  0
  5  6  1  0
  6  7  1  0
  7  8  1  0
  8  9  1  0
  9 10  1  0
 10 11  1  0
 11 12  1  0
 12 13  1  0
 13 14  1  0
 14 15  1  0
 15 16  1  0
 16 17  1  0
 17 18  1  0
 18 19  1  0
 19 20  1  0
 20 21  1  0
 21 22  1  0
 22 23  1  0
 23 24  1  0
 24 25  1  0
 25 26  1  0
 26 27  1  0
 27 28  1  0
 28 29  1  0
 29 30  1  0
 30 31  1  0
 31 32  1  0
 32 33  1  0
 33 34  1  0
 34 35  1  0
 35 36  1  0
 36 37  1  0
 37 38  1  0
 38 39  1  0
 39 40  1  0
 40 41  1  0
 41 42  1  0
 42 43  1  0
 43 44  1  0
 44 45  1  0
 45 46  1  0
 46 47  1  0
 47 48  1  0
 48 49  1  0
 49 50  1  0
 50 51  1  0
 51 52  1  0
 52 53  1  0
 53 54  1  0
 54 55  1  0
 55 56  1  0
 56 57  1  0
 57 58  1  0
 58 59  1  0
 59 60  2  0
 60 61  1  0
 61 62  2  0
 62 63  1  0
 63 64  2  0
 64 65  1  0
 65 66  2  0
 66 67  1  0
 67 68  2  0
 68 69  1  0
 69 70  2  0
 70 71  1  0
 71 72  2  0
 72 73  1  0
 73 74  2  0
 74 75  1  0
 75 76  2  0
 76 77  1  0
 77 78  2  0
 78 79  1  0
 79 80  2  0
 80  2  1  0
 80 56  1  0
M  END
>  <Title>  (1159) 
idABQQgen13

$$$$

     RDKit          2D

 46 47  0  0  0  0  0  0  0  0999 V2000
   -3.5146   -3.3250    0.0000 C   0  0  0  0  0  0  0  0  0  0  0  0
   -3.6323   -1.8296    0.0000 C   0  0  0  0  0  0  0  0  0  0  0  0
   -2.3961   -0.9800    0.0000 C   0  0  0  0  0  0  0  0  0  0  0  0
   -2.5138    0.5153    0.0000 C   0  0  0  0  0  0  0  0  0  0  0  0
   -4.0138    0.5153    0.0000 C   0  0  0  0  0  0  0  0  0  0  0  0
   -5.4954    0.7500    0.0000 C   0  0  0  0  0  0  0  0  0  0  0  0
   -6.9219    1.2135    0.0000 C   0  0  0  0  0  0  0  0  0  0  0  0
   -8.2584    1.8945    0.0000 C   0  0  0  0  0  0  0  0  0  0  0  0
   -9.4720    2.7762    0.0000 C   0  0  0  0  0  0  0  0  0  0  0  0
  -10.5326    3.8368    0.0000 C   0  0  0  0  0  0  0  0  0  0  0  0
  -11.4143    5.0504    0.0000 C   0  0  0  0  0  0  0  0  0  0  0  0
  -12.0953    6.3869    0.0000 C   0  0  0  0  0  0  0  0  0  0  0  0
  -12.5588    7.8135    0.0000 C   0  0  0  0  0  0  0  0  0  0  0  0
  -12.7935    9.2950    0.0000 C   0  0  0  0  0  0  0  0  0  0  0  0
  -12.7935   10.7950    0.0000 C   0  0  0  0  0  0  0  0  0  0  0  0
  -12.5588   12.2765    0.0000 C   0  0  0  0  0  0  0  0  0  0  0  0
  -12.0953   13.7031    0.0000 C   0  0  0  0  0  0  0  0  0  0  0  0
  -11.4143   15.0396    0.0000 C   0  0  0  0  0  0  0  0  0  0  0  0
  -10.5326   16.2532    0.0000 C   0  0  0  0  0  0  0  0  0  0  0  0
   -9.4720   17.3138    0.0000 C   0  0  0  0  0  0  0  0  0  0  0  0
   -8.2584   18.1955    0.0000 C   0  0  0  0  0  0  0  0  0  0  0  0
   -6.9219   18.8765    0.0000 C   0  0  0  0  0  0  0  0  0  0  0  0
   -5.4954   19.3400    0.0000 C   0  0  0  0  0  0  0  0  0  0  0  0
   -4.0138   19.5747    0.0000 C   0  0  0  0  0  0  0  0  0  0  0  0
   -2.5138   19.5747    0.0000 C   0  0  0  0  0  0  0  0  0  0  0  0
   -1.0323   19.3400    0.0000 C   0  0  0  0  0  0  0  0  0  0  0  0
    0.3943   18.8765    0.0000 C   0  0  0  0  0  0  0  0  0  0  0  0
    1.7308   18.1955    0.0000 C   0  0  0  0  0  0  0  0  0  0  0  0
    2.9443   17.3138    0.0000 C   0  0  0  0  0  0  0  0  0  0  0  0
    4.0050   16.2532    0.0000 C   0  0  0  0  0  0  0  0  0  0  0  0
    4.8867   15.0396    0.0000 C   0  0  0  0  0  0  0  0  0  0  0  0
    5.5677   13.7031    0.0000 C   0  0  0  0  0  0  0  0  0  0  0  0
    6.0312   12.2765    0.0000 C   0  0  0  0  0  0  0  0  0  0  0  0
    6.2658   10.7950    0.0000 C   0  0  0  0  0  0  0  0  0  0  0  0
    6.2658    9.2950    0.0000 C   0  0  0  0  0  0  0  0  0  0  0  0
    6.0312    7.8135    0.0000 C   0  0  0  0  0  0  0  0  0  0  0  0
    5.5677    6.3869    0.0000 C   0  0  0  0  0  0  0  0  0  0  0  0
    4.8867    5.0504    0.0000 C   0  0  0  0  0  0  0  0  0  0  0  0
    4.0050    3.8368    0.0000 C   0  0  0  0  0  0  0  0  0  0  0  0
    2.9443    2.7762    0.0000 C   0  0  0  0  0  0  0  0  0  0  0  0
    1.7308    1.8945    0.0000 C   0  0  0  0  0  0  0  0  0  0  0  0
    0.3943    1.2135    0.0000 C   0  0  0  0  0  0  0  0  0  0  0  0
    1.2760    0.0000    0.0000 C   0  0  0  0  0  0  0  0  0  0  0  0
    0.3943   -1.2135    0.0000 C   0  0  0  0  0  0  0  0  0  0  0  0
   -1.0323   -0.7500    0.0000 C   0  0  0  0  0  0  0  0  0  0  0  0
   -1.0323    0.7500    0.0000 C   0  0  0  0  0  0  0  0  0  0  0  0
  1  2  1  0
  2  3  1  0
  3  4  1  0
  4  5  1  0
  5  6  1  0
  6  7  1  0
  7  8  1  0
  8  9  1  0
  9 10  1  0
 10 11  1  0
 11 12  1  0
 12 13  1  0
 13 14  1  0
 14 15  1  0
 15 16  1  0
 16 17  1  0
 17 18  1  0
 18 19  1  0
 19 20  1  0
 20 21  1  0
 21 22  1  0
 22 23  1  0
 23 24  1  0
 24 25  1  0
 25 26  1  0
 26 27  1  0
 27 28  1  0
 28 29  1  0
 29 30  1  0
 30 31  1  0
 31 32  1  0
 32 33  1  0
 33 34  1  0
 34 35  1  0
 35 36  1  0
 36 37  1  0
 37 38  1  0
 38 39  1  0
 39 40  1  0
 40 41  1  0
 41 42  1  0
 42 43  1  0
 43 44  2  0
 44 45  1  0
 45 46  2  0
 46  4  1  0
 46 42  1  0
M  END
>  <Title>  (1160) 
idABQRgen13

$$$$

     RDKit          2D

 17 19  0  0  0  0  0  0  0  0999 V2000
   -3.2595   -3.4715    0.0000 C   0  0  0  0  0  0  0  0  0  0  0  0
   -1.8107   -3.8597    0.0000 C   0  0  0  0  0  0  0  0  0  0  0  0
   -1.4224   -5.3086    0.0000 O   0  0  0  0  0  0  0  0  0  0  0  0
   -0.7500   -2.7990    0.0000 N   0  0  0  0  0  0  0  0  0  0  0  0
    0.7500   -2.7990    0.0000 C   0  0  0  0  0  0  0  0  0  0  0  0
    0.7500   -1.2990    0.0000 C   0  0  0  0  0  0  0  0  0  0  0  0
    1.5000    0.0000    0.0000 C   0  0  0  0  0  0  0  0  0  0  0  0
    0.7500    1.2990    0.0000 C   0  0  0  0  0  0  0  0  0  0  0  0
   -0.7500    1.2990    0.0000 C   0  0  0  0  0  0  0  0  0  0  0  0
   -1.5000    2.5981    0.0000 C   0  0  0  0  0  0  0  0  0  0  0  0
   -0.7500    3.8971    0.0000 N   0  0  0  0  0  0  0  0  0  0  0  0
   -1.3601    5.2674    0.0000 C   0  0  0  0  0  0  0  0  0  0  0  0
   -0.2454    6.2711    0.0000 C   0  0  0  0  0  0  0  0  0  0  0  0
    1.0537    5.5211    0.0000 C   0  0  0  0  0  0  0  0  0  0  0  0
    0.7418    4.0539    0.0000 C   0  0  0  0  0  0  0  0  0  0  0  0
   -1.5000    0.0000    0.0000 C   0  0  0  0  0  0  0  0  0  0  0  0
   -0.7500   -1.2990    0.0000 C   0  0  0  0  0  0  0  0  0  0  0  0
  1  2  1  0
  2  3  2  0
  2  4  1  0
  4  5  1  0
  5  6  1  0
  6  7  1  0
  7  8  1  0
  8  9  1  0
  9 10  1  0
 10 11  1  0
 11 12  1  0
 12 13  2  0
 13 14  1  0
 14 15  2  0
  9 16  1  0
 16 17  1  0
 17  4  1  0
 17  6  1  0
 15 11  1  0
M  END
>  <Title>  (1161) 
idABQSgen13

$$$$

     RDKit          2D

 36 41  0  0  0  0  0  0  0  0999 V2000
    6.0000   -2.5981    0.0000 C   0  0  0  0  0  0  0  0  0  0  0  0
    5.2500   -1.2990    0.0000 C   0  0  0  0  0  0  0  0  0  0  0  0
    3.7500   -1.2990    0.0000 C   0  0  0  0  0  0  0  0  0  0  0  0
    3.0000   -2.5981    0.0000 N   0  0  0  0  0  0  0  0  0  0  0  0
    3.7500   -3.8971    0.0000 C   0  0  0  0  0  0  0  0  0  0  0  0
    5.2418   -4.0539    0.0000 N   0  0  0  0  0  0  0  0  0  0  0  0
    5.5537   -5.5211    0.0000 N   0  0  0  0  0  0  0  0  0  0  0  0
    4.2546   -6.2711    0.0000 N   0  0  0  0  0  0  0  0  0  0  0  0
    3.1399   -5.2674    0.0000 N   0  0  0  0  0  0  0  0  0  0  0  0
    1.6727   -5.5793    0.0000 N   0  0  0  0  0  0  0  0  0  0  0  0
    1.0626   -6.9496    0.0000 C   0  0  0  0  0  0  0  0  0  0  0  0
   -0.4292   -6.7928    0.0000 C   0  0  0  0  0  0  0  0  0  0  0  0
   -0.7411   -5.3256    0.0000 N   0  0  0  0  0  0  0  0  0  0  0  0
   -2.1114   -4.7155    0.0000 C   0  0  0  0  0  0  0  0  0  0  0  0
   -2.2682   -3.2237    0.0000 O   0  0  0  0  0  0  0  0  0  0  0  0
   -3.3249   -5.5972    0.0000 N   0  0  0  0  0  0  0  0  0  0  0  0
   -4.6952   -4.9871    0.0000 C   0  0  0  0  0  0  0  0  0  0  0  0
   -4.8520   -3.4953    0.0000 N   0  0  0  0  0  0  0  0  0  0  0  0
   -6.2224   -2.8852    0.0000 N   0  0  0  0  0  0  0  0  0  0  0  0
   -7.4359   -3.7669    0.0000 N   0  0  0  0  0  0  0  0  0  0  0  0
   -7.2791   -5.2586    0.0000 N   0  0  0  0  0  0  0  0  0  0  0  0
   -5.9088   -5.8687    0.0000 N   0  0  0  0  0  0  0  0  0  0  0  0
    0.5580   -4.5756    0.0000 C   0  0  0  0  0  0  0  0  0  0  0  0
    0.7147   -3.0838    0.0000 O   0  0  0  0  0  0  0  0  0  0  0  0
    3.0000    0.0000    0.0000 C   0  0  0  0  0  0  0  0  0  0  0  0
    1.5000    0.0000    0.0000 C   0  0  0  0  0  0  0  0  0  0  0  0
    0.7500    1.2990    0.0000 C   0  0  0  0  0  0  0  0  0  0  0  0
    1.5000    2.5981    0.0000 C   0  0  0  0  0  0  0  0  0  0  0  0
    3.0000    2.5981    0.0000 C   0  0  0  0  0  0  0  0  0  0  0  0
    3.7500    1.2990    0.0000 C   0  0  0  0  0  0  0  0  0  0  0  0
    5.2500    1.2990    0.0000 C   0  0  0  0  0  0  0  0  0  0  0  0
    6.0000    2.5981    0.0000 C   0  0  0  0  0  0  0  0  0  0  0  0
    7.5000    2.5981    0.0000 C   0  0  0  0  0  0  0  0  0  0  0  0
    8.2500    1.2990    0.0000 C   0  0  0  0  0  0  0  0  0  0  0  0
    7.5000   -0.0000    0.0000 C   0  0  0  0  0  0  0  0  0  0  0  0
    6.0000   -0.0000    0.0000 C   0  0  0  0  0  0  0  0  0  0  0  0
  1  2  1  0
  2  3  2  0
  3  4  1  0
  4  5  2  3
  5  6  1  0
  6  7  1  0
  7  8  2  0
  8  9  1  0
  9 10  1  0
 10 11  1  0
 11 12  1  0
 12 13  1  0
 13 14  1  0
 14 15  2  0
 14 16  1  0
 16 17  1  0
 17 18  2  0
 18 19  1  0
 19 20  2  0
 20 21  1  0
 21 22  2  0
 13 23  1  0
 23 24  2  0
  3 25  1  0
 25 26  2  0
 26 27  1  0
 27 28  2  0
 28 29  1  0
 29 30  2  0
 30 31  1  0
 31 32  2  0
 32 33  1  0
 33 34  2  0
 34 35  1  0
 35 36  2  0
 36  2  1  0
  9  5  1  0
 23 10  1  0
 30 25  1  0
 36 31  1  0
 22 17  1  0
M  END
>  <Title>  (1162) 
idABQTgen13

$$$$

     RDKit          2D

  9  9  0  0  0  0  0  0  0  0999 V2000
    3.4598   -0.0000    0.0000 C   0  0  0  0  0  0  0  0  0  0  0  0
    1.9598    0.0000    0.0000 C   0  0  0  0  0  0  0  0  0  0  0  0
    1.3858   -1.3858    0.0000 C   0  0  0  0  0  0  0  0  0  0  0  0
   -0.0000   -1.9598    0.0000 C   0  0  0  0  0  0  0  0  0  0  0  0
   -1.3858   -1.3858    0.0000 C   0  0  0  0  0  0  0  0  0  0  0  0
   -1.9598    0.0000    0.0000 C   0  0  0  0  0  0  0  0  0  0  0  0
   -1.3858    1.3858    0.0000 C   0  0  0  0  0  0  0  0  0  0  0  0
    0.0000    1.9598    0.0000 C   0  0  0  0  0  0  0  0  0  0  0  0
    1.3858    1.3858    0.0000 C   0  0  0  0  0  0  0  0  0  0  0  0
  1  2  1  0
  2  3  1  0
  3  4  1  0
  4  5  1  0
  5  6  1  0
  6  7  1  0
  7  8  1  0
  8  9  1  0
  9  2  1  0
M  END
>  <Title>  (1163) 
idABQUgen13

$$$$

     RDKit          2D

 14 13  0  0  0  0  0  0  0  0999 V2000
    0.0000    0.0000    0.0000 C   0  0  0  0  0  0  0  0  0  0  0  0
   -0.0000   -1.5000    0.0000 C   0  0  0  0  0  0  0  0  0  0  0  0
   -0.0000   -3.0000    0.0000 C   0  0  0  0  0  0  0  0  0  0  0  0
   -0.0000   -4.5000    0.0000 C   0  0  0  0  0  0  0  0  0  0  0  0
   -0.0000   -6.0000    0.0000 C   0  0  0  0  0  0  0  0  0  0  0  0
   -0.0000   -7.5000    0.0000 C   0  0  0  0  0  0  0  0  0  0  0  0
   -0.0000   -9.0000    0.0000 C   0  0  0  0  0  0  0  0  0  0  0  0
   -0.0000  -10.5000    0.0000 C   0  0  0  0  0  0  0  0  0  0  0  0
   -0.0000  -12.0000    0.0000 C   0  0  0  0  0  0  0  0  0  0  0  0
   -0.0000  -13.5000    0.0000 C   0  0  0  0  0  0  0  0  0  0  0  0
   -0.0000  -15.0000    0.0000 C   0  0  0  0  0  0  0  0  0  0  0  0
   -0.0000  -16.5000    0.0000 C   0  0  0  0  0  0  0  0  0  0  0  0
   -0.0000  -18.0000    0.0000 C   0  0  0  0  0  0  0  0  0  0  0  0
   -0.0000  -19.5000    0.0000 C   0  0  0  0  0  0  0  0  0  0  0  0
  1  2  3  0
  2  3  1  0
  3  4  3  0
  4  5  1  0
  5  6  3  0
  6  7  1  0
  7  8  3  0
  8  9  1  0
  9 10  3  0
 10 11  1  0
 11 12  3  0
 12 13  1  0
 13 14  3  0
M  END
>  <Title>  (1164) 
idABQVgen13

$$$$

     RDKit          2D

 31 35  0  0  0  0  0  0  0  0999 V2000
   -3.0000   -2.5981    0.0000 C   0  0  0  0  0  0  0  0  0  0  0  0
   -1.5000   -2.5981    0.0000 C   0  0  0  0  0  0  0  0  0  0  0  0
   -0.7500   -3.8971    0.0000 C   0  0  0  0  0  0  0  0  0  0  0  0
    0.7500   -3.8971    0.0000 O   0  0  0  0  0  0  0  0  0  0  0  0
    1.5000   -2.5981    0.0000 C   0  0  0  0  0  0  0  0  0  0  0  0
    3.0000   -2.5981    0.0000 C   0  0  0  0  0  0  0  0  0  0  0  0
    3.8817   -1.3846    0.0000 N   0  0  0  0  0  0  0  0  0  0  0  0
    5.3083   -1.8481    0.0000 N   0  0  0  0  0  0  0  0  0  0  0  0
    5.3083   -3.3481    0.0000 N   0  0  0  0  0  0  0  0  0  0  0  0
    3.8817   -3.8116    0.0000 N   0  0  0  0  0  0  0  0  0  0  0  0
    3.4182   -5.2382    0.0000 N   0  0  0  0  0  0  0  0  0  0  0  0
    4.2998   -6.4517    0.0000 C   0  0  0  0  0  0  0  0  0  0  0  0
    3.4182   -7.6652    0.0000 C   0  0  0  0  0  0  0  0  0  0  0  0
    1.9916   -7.2017    0.0000 N   0  0  0  0  0  0  0  0  0  0  0  0
    0.7780   -8.0834    0.0000 C   0  0  0  0  0  0  0  0  0  0  0  0
    0.9348   -9.5752    0.0000 O   0  0  0  0  0  0  0  0  0  0  0  0
   -0.5923   -7.4733    0.0000 N   0  0  0  0  0  0  0  0  0  0  0  0
   -1.8058   -8.3550    0.0000 C   0  0  0  0  0  0  0  0  0  0  0  0
   -3.1761   -7.7449    0.0000 N   0  0  0  0  0  0  0  0  0  0  0  0
   -4.3896   -8.6265    0.0000 N   0  0  0  0  0  0  0  0  0  0  0  0
   -4.2329  -10.1183    0.0000 N   0  0  0  0  0  0  0  0  0  0  0  0
   -2.8625  -10.7284    0.0000 N   0  0  0  0  0  0  0  0  0  0  0  0
   -1.6490   -9.8467    0.0000 N   0  0  0  0  0  0  0  0  0  0  0  0
    1.9916   -5.7017    0.0000 C   0  0  0  0  0  0  0  0  0  0  0  0
    0.7780   -4.8200    0.0000 O   0  0  0  0  0  0  0  0  0  0  0  0
    0.7500   -1.2990    0.0000 C   0  0  0  0  0  0  0  0  0  0  0  0
    1.5000    0.0000    0.0000 C   0  0  0  0  0  0  0  0  0  0  0  0
    0.7500    1.2990    0.0000 C   0  0  0  0  0  0  0  0  0  0  0  0
   -0.7500    1.2990    0.0000 C   0  0  0  0  0  0  0  0  0  0  0  0
   -1.5000    0.0000    0.0000 C   0  0  0  0  0  0  0  0  0  0  0  0
   -0.7500   -1.2990    0.0000 C   0  0  0  0  0  0  0  0  0  0  0  0
  1  2  1  0
  2  3  2  0
  3  4  1  0
  4  5  1  0
  5  6  1  0
  6  7  2  0
  7  8  1  0
  8  9  2  0
  9 10  1  0
 10 11  1  0
 11 12  1  0
 12 13  1  0
 13 14  1  0
 14 15  1  0
 15 16  2  0
 15 17  1  0
 17 18  1  0
 18 19  2  0
 19 20  1  0
 20 21  2  0
 21 22  1  0
 22 23  2  0
 14 24  1  0
 24 25  2  0
  5 26  1  0
 26 27  2  0
 27 28  1  0
 28 29  2  0
 29 30  1  0
 30 31  2  0
 31  2  1  0
 10  6  1  0
 24 11  1  0
 31 26  1  0
 23 18  1  0
M  END
>  <Title>  (1165) 
idABQWgen13

$$$$

     RDKit          2D

 34 37  0  0  0  0  0  0  0  0999 V2000
   -3.6375   -7.8476    0.0000 C   0  0  0  0  0  0  0  0  0  0  0  0
   -2.4240   -8.7293    0.0000 O   0  0  0  0  0  0  0  0  0  0  0  0
   -1.0537   -8.1192    0.0000 C   0  0  0  0  0  0  0  0  0  0  0  0
    0.2454   -8.8692    0.0000 C   0  0  0  0  0  0  0  0  0  0  0  0
    1.3601   -7.8655    0.0000 C   0  0  0  0  0  0  0  0  0  0  0  0
    0.7500   -6.4952    0.0000 C   0  0  0  0  0  0  0  0  0  0  0  0
    1.5000   -5.1962    0.0000 N   0  0  0  0  0  0  0  0  0  0  0  0
    0.7500   -3.8971    0.0000 C   0  0  0  0  0  0  0  0  0  0  0  0
   -0.7500   -3.8971    0.0000 O   0  0  0  0  0  0  0  0  0  0  0  0
    1.5000   -2.5981    0.0000 N   0  0  0  0  0  0  0  0  0  0  0  0
    0.7500   -1.2990    0.0000 C   0  0  0  0  0  0  0  0  0  0  0  0
    1.5000    0.0000    0.0000 C   0  0  0  0  0  0  0  0  0  0  0  0
    0.7500    1.2990    0.0000 C   0  0  0  0  0  0  0  0  0  0  0  0
   -0.7500    1.2990    0.0000 C   0  0  0  0  0  0  0  0  0  0  0  0
   -1.5000    2.5981    0.0000 N   0  0  0  0  0  0  0  0  0  0  0  0
   -0.7500    3.8971    0.0000 C   0  0  0  0  0  0  0  0  0  0  0  0
    0.7500    3.8971    0.0000 O   0  0  0  0  0  0  0  0  0  0  0  0
   -1.5000    5.1962    0.0000 C   0  0  0  0  0  0  0  0  0  0  0  0
   -2.9918    5.3529    0.0000 N   0  0  0  0  0  0  0  0  0  0  0  0
   -3.3037    6.8202    0.0000 C   0  0  0  0  0  0  0  0  0  0  0  0
   -2.0046    7.5702    0.0000 C   0  0  0  0  0  0  0  0  0  0  0  0
   -0.8899    6.5665    0.0000 C   0  0  0  0  0  0  0  0  0  0  0  0
    0.5773    6.8783    0.0000 N   0  0  0  0  0  0  0  0  0  0  0  0
    1.6920    5.8746    0.0000 N   0  0  0  0  0  0  0  0  0  0  0  0
    2.9911    6.6246    0.0000 C   0  0  0  0  0  0  0  0  0  0  0  0
    2.6792    8.0919    0.0000 C   0  0  0  0  0  0  0  0  0  0  0  0
    1.1874    8.2487    0.0000 C   0  0  0  0  0  0  0  0  0  0  0  0
    0.4374    9.5477    0.0000 C   0  0  0  0  0  0  0  0  0  0  0  0
    1.1874   10.8467    0.0000 C   0  0  0  0  0  0  0  0  0  0  0  0
   -1.0626    9.5477    0.0000 O   0  0  0  0  0  0  0  0  0  0  0  0
   -1.5000    0.0000    0.0000 C   0  0  0  0  0  0  0  0  0  0  0  0
   -0.7500   -1.2990    0.0000 C   0  0  0  0  0  0  0  0  0  0  0  0
   -0.7418   -6.6520    0.0000 C   0  0  0  0  0  0  0  0  0  0  0  0
   -1.7455   -5.5373    0.0000 O   0  0  0  0  0  0  0  0  0  0  0  0
  1  2  1  0
  2  3  1  0
  3  4  2  0
  4  5  1  0
  5  6  2  0
  6  7  1  0
  7  8  1  0
  8  9  2  0
  8 10  1  0
 10 11  1  0
 11 12  2  0
 12 13  1  0
 13 14  2  0
 14 15  1  0
 15 16  1  0
 16 17  2  0
 16 18  1  0
 18 19  1  0
 19 20  2  0
 20 21  1  0
 21 22  2  0
 22 23  1  0
 23 24  1  0
 24 25  2  0
 25 26  1  0
 26 27  2  0
 27 28  1  0
 28 29  1  0
 28 30  2  0
 14 31  1  0
 31 32  2  0
  6 33  1  0
 33 34  2  0
 33  3  1  0
 32 11  1  0
 22 18  1  0
 27 23  1  0
M  END
>  <Title>  (1166) 
idABQXgen13

$$$$

     RDKit          2D

 24 27  0  0  0  0  0  0  0  0999 V2000
    5.2500   -6.4952    0.0000 C   0  0  0  0  0  0  0  0  0  0  0  0
    3.7500   -6.4952    0.0000 C   0  0  0  0  0  0  0  0  0  0  0  0
    3.0000   -5.1962    0.0000 C   0  0  0  0  0  0  0  0  0  0  0  0
    1.5000   -5.1962    0.0000 C   0  0  0  0  0  0  0  0  0  0  0  0
    0.7500   -3.8971    0.0000 C   0  0  0  0  0  0  0  0  0  0  0  0
    1.5000   -2.5981    0.0000 C   0  0  0  0  0  0  0  0  0  0  0  0
    3.0000   -2.5981    0.0000 C   0  0  0  0  0  0  0  0  0  0  0  0
    3.7500   -3.8971    0.0000 C   0  0  0  0  0  0  0  0  0  0  0  0
    5.2500   -3.8971    0.0000 C   0  0  0  0  0  0  0  0  0  0  0  0
    6.0000   -2.5981    0.0000 N   0  0  0  0  0  0  0  0  0  0  0  0
    5.2500   -1.2990    0.0000 N   0  0  0  0  0  0  0  0  0  0  0  0
    3.7500   -1.2990    0.0000 N   0  0  0  0  0  0  0  0  0  0  0  0
    0.7500   -1.2990    0.0000 C   0  0  0  0  0  0  0  0  0  0  0  0
    1.5000    0.0000    0.0000 C   0  0  0  0  0  0  0  0  0  0  0  0
    0.7500    1.2990    0.0000 C   0  0  0  0  0  0  0  0  0  0  0  0
   -0.7500    1.2990    0.0000 C   0  0  0  0  0  0  0  0  0  0  0  0
   -1.5000    0.0000    0.0000 C   0  0  0  0  0  0  0  0  0  0  0  0
   -0.7500   -1.2990    0.0000 C   0  0  0  0  0  0  0  0  0  0  0  0
   -1.5000   -2.5981    0.0000 C   0  0  0  0  0  0  0  0  0  0  0  0
   -3.0000   -2.5981    0.0000 C   0  0  0  0  0  0  0  0  0  0  0  0
   -3.7500   -3.8971    0.0000 C   0  0  0  0  0  0  0  0  0  0  0  0
   -3.0000   -5.1962    0.0000 C   0  0  0  0  0  0  0  0  0  0  0  0
   -1.5000   -5.1962    0.0000 C   0  0  0  0  0  0  0  0  0  0  0  0
   -0.7500   -3.8971    0.0000 C   0  0  0  0  0  0  0  0  0  0  0  0
  1  2  2  0
  2  3  1  0
  3  4  1  0
  4  5  1  0
  5  6  2  0
  6  7  1  0
  7  8  2  0
  8  9  1  0
  9 10  2  0
 10 11  1  0
 11 12  2  0
  6 13  1  0
 13 14  2  0
 14 15  1  0
 15 16  2  0
 16 17  1  0
 17 18  2  0
 18 19  1  0
 19 20  2  0
 20 21  1  0
 21 22  2  0
 22 23  1  0
 23 24  2  0
 24  5  1  0
 12  7  1  0
 18 13  1  0
 24 19  1  0
M  END
>  <Title>  (1167) 
idABQYgen13

$$$$

     RDKit          2D

  6  6  0  0  0  0  0  0  0  0999 V2000
    2.7760    0.0000    0.0000 C   0  0  0  0  0  0  0  0  0  0  0  0
    1.2760    0.0000    0.0000 N   0  0  0  0  0  0  0  0  0  0  0  0
    0.3943    1.2135    0.0000 C   0  0  0  0  0  0  0  0  0  0  0  0
   -1.0323    0.7500    0.0000 C   0  0  0  0  0  0  0  0  0  0  0  0
   -1.0323   -0.7500    0.0000 C   0  0  0  0  0  0  0  0  0  0  0  0
    0.3943   -1.2135    0.0000 C   0  0  0  0  0  0  0  0  0  0  0  0
  1  2  1  0
  2  3  1  0
  3  4  1  0
  4  5  1  0
  5  6  1  0
  6  2  1  0
M  END
>  <Title>  (1168) 
idABQZgen13

$$$$

     RDKit          2D

 12 13  0  0  0  0  0  0  0  0999 V2000
    5.0260   -1.2990    0.0000 C   0  0  0  0  0  0  0  0  0  0  0  0
    3.5260   -1.2990    0.0000 C   0  0  0  0  0  0  0  0  0  0  0  0
    2.7760    0.0000    0.0000 C   0  0  0  0  0  0  0  0  0  0  0  0
    1.2760    0.0000    0.0000 N   0  0  0  0  0  0  0  0  0  0  0  0
    0.3943    1.2135    0.0000 C   0  0  0  0  0  0  0  0  0  0  0  0
   -1.0323    0.7500    0.0000 C   0  0  0  0  0  0  0  0  0  0  0  0
   -2.4589    1.2135    0.0000 C   0  0  0  0  0  0  0  0  0  0  0  0
   -3.3405    0.0000    0.0000 C   0  0  0  0  0  0  0  0  0  0  0  0
   -4.8405    0.0000    0.0000 O   0  0  0  0  0  0  0  0  0  0  0  0
   -2.4589   -1.2135    0.0000 N   0  0  0  0  0  0  0  0  0  0  0  0
   -1.0323   -0.7500    0.0000 C   0  0  0  0  0  0  0  0  0  0  0  0
    0.3943   -1.2135    0.0000 N   0  0  0  0  0  0  0  0  0  0  0  0
  1  2  1  0
  2  3  1  0
  3  4  1  0
  4  5  1  0
  5  6  1  0
  6  7  1  0
  7  8  1  0
  8  9  1  0
  8 10  1  0
 10 11  1  0
 11 12  2  0
 12  4  1  0
 11  6  1  0
M  END
>  <Title>  (1169) 
idABRAgen13

$$$$

     RDKit          2D

 57 56  0  0  0  0  0  0  0  0999 V2000
    0.0000    0.0000    0.0000 C   0  0  0  0  0  0  0  0  0  0  0  0
   -0.0000   -1.5000    0.0000 C   0  0  0  0  0  0  0  0  0  0  0  0
   -0.0000   -3.0000    0.0000 C   0  0  0  0  0  0  0  0  0  0  0  0
   -0.0000   -4.5000    0.0000 C   0  0  0  0  0  0  0  0  0  0  0  0
   -0.0000   -6.0000    0.0000 C   0  0  0  0  0  0  0  0  0  0  0  0
   -0.0000   -7.5000    0.0000 C   0  0  0  0  0  0  0  0  0  0  0  0
   -0.0000   -9.0000    0.0000 C   0  0  0  0  0  0  0  0  0  0  0  0
   -0.0000  -10.5000    0.0000 C   0  0  0  0  0  0  0  0  0  0  0  0
   -0.0000  -12.0000    0.0000 C   0  0  0  0  0  0  0  0  0  0  0  0
   -0.0000  -13.5000    0.0000 C   0  0  0  0  0  0  0  0  0  0  0  0
   -0.0000  -15.0000    0.0000 C   0  0  0  0  0  0  0  0  0  0  0  0
   -0.0000  -16.5000    0.0000 C   0  0  0  0  0  0  0  0  0  0  0  0
   -0.0000  -18.0000    0.0000 C   0  0  0  0  0  0  0  0  0  0  0  0
   -0.0000  -19.5000    0.0000 C   0  0  0  0  0  0  0  0  0  0  0  0
   -0.0000  -21.0000    0.0000 C   0  0  0  0  0  0  0  0  0  0  0  0
   -0.0000  -22.5000    0.0000 C   0  0  0  0  0  0  0  0  0  0  0  0
   -0.0000  -24.0000    0.0000 C   0  0  0  0  0  0  0  0  0  0  0  0
   -0.0000  -25.5000    0.0000 C   0  0  0  0  0  0  0  0  0  0  0  0
   -0.0000  -27.0000    0.0000 C   0  0  0  0  0  0  0  0  0  0  0  0
   -0.0000  -28.5000    0.0000 C   0  0  0  0  0  0  0  0  0  0  0  0
   -0.0000  -30.0000    0.0000 C   0  0  0  0  0  0  0  0  0  0  0  0
   -0.0000  -31.5000    0.0000 C   0  0  0  0  0  0  0  0  0  0  0  0
   -0.0000  -33.0000    0.0000 C   0  0  0  0  0  0  0  0  0  0  0  0
   -0.0000  -34.5000    0.0000 C   0  0  0  0  0  0  0  0  0  0  0  0
   -0.0000  -36.0000    0.0000 C   0  0  0  0  0  0  0  0  0  0  0  0
   -0.0000  -37.5000    0.0000 C   0  0  0  0  0  0  0  0  0  0  0  0
   -0.0000  -39.0000    0.0000 C   0  0  0  0  0  0  0  0  0  0  0  0
   -0.0000  -40.5000    0.0000 C   0  0  0  0  0  0  0  0  0  0  0  0
   -0.0000  -42.0000    0.0000 C   0  0  0  0  0  0  0  0  0  0  0  0
   -0.0000  -43.5000    0.0000 C   0  0  0  0  0  0  0  0  0  0  0  0
   -0.0000  -45.0000    0.0000 C   0  0  0  0  0  0  0  0  0  0  0  0
   -0.0000  -46.5000    0.0000 C   0  0  0  0  0  0  0  0  0  0  0  0
   -0.0000  -48.0000    0.0000 C   0  0  0  0  0  0  0  0  0  0  0  0
   -0.0000  -49.5000    0.0000 C   0  0  0  0  0  0  0  0  0  0  0  0
   -0.0000  -51.0000    0.0000 C   0  0  0  0  0  0  0  0  0  0  0  0
   -0.0000  -52.5000    0.0000 C   0  0  0  0  0  0  0  0  0  0  0  0
   -0.0000  -54.0000    0.0000 C   0  0  0  0  0  0  0  0  0  0  0  0
   -0.0000  -55.5000    0.0000 C   0  0  0  0  0  0  0  0  0  0  0  0
   -0.0000  -57.0000    0.0000 C   0  0  0  0  0  0  0  0  0  0  0  0
   -0.0000  -58.5000    0.0000 C   0  0  0  0  0  0  0  0  0  0  0  0
   -0.0000  -60.0000    0.0000 C   0  0  0  0  0  0  0  0  0  0  0  0
   -0.0000  -61.5000    0.0000 C   0  0  0  0  0  0  0  0  0  0  0  0
   -0.0000  -63.0000    0.0000 C   0  0  0  0  0  0  0  0  0  0  0  0
   -0.0000  -64.5000    0.0000 C   0  0  0  0  0  0  0  0  0  0  0  0
   -0.0000  -66.0000    0.0000 C   0  0  0  0  0  0  0  0  0  0  0  0
   -0.0000  -67.5000    0.0000 C   0  0  0  0  0  0  0  0  0  0  0  0
   -0.0000  -69.0000    0.0000 C   0  0  0  0  0  0  0  0  0  0  0  0
   -0.0000  -70.5000    0.0000 C   0  0  0  0  0  0  0  0  0  0  0  0
   -0.0000  -72.0000    0.0000 C   0  0  0  0  0  0  0  0  0  0  0  0
   -0.0000  -73.5000    0.0000 C   0  0  0  0  0  0  0  0  0  0  0  0
   -0.0000  -75.0000    0.0000 C   0  0  0  0  0  0  0  0  0  0  0  0
   -0.0000  -76.5000    0.0000 C   0  0  0  0  0  0  0  0  0  0  0  0
   -0.0000  -78.0000    0.0000 C   0  0  0  0  0  0  0  0  0  0  0  0
   -0.0000  -79.5000    0.0000 C   0  0  0  0  0  0  0  0  0  0  0  0
   -0.0000  -81.0000    0.0000 C   0  0  0  0  0  0  0  0  0  0  0  0
    1.2990  -81.7500    0.0000 C   0  0  0  0  0  0  0  0  0  0  0  0
    1.2990  -83.2500    0.0000 C   0  0  0  0  0  0  0  0  0  0  0  0
  1  2  3  0
  2  3  1  0
  3  4  3  0
  4  5  1  0
  5  6  3  0
  6  7  1  0
  7  8  3  0
  8  9  1  0
  9 10  3  0
 10 11  1  0
 11 12  3  0
 12 13  1  0
 13 14  3  0
 14 15  1  0
 15 16  3  0
 16 17  1  0
 17 18  3  0
 18 19  1  0
 19 20  3  0
 20 21  1  0
 21 22  3  0
 22 23  1  0
 23 24  3  0
 24 25  1  0
 25 26  3  0
 26 27  1  0
 27 28  3  0
 28 29  1  0
 29 30  3  0
 30 31  1  0
 31 32  3  0
 32 33  1  0
 33 34  3  0
 34 35  1  0
 35 36  3  0
 36 37  1  0
 37 38  3  0
 38 39  1  0
 39 40  3  0
 40 41  1  0
 41 42  3  0
 42 43  1  0
 43 44  3  0
 44 45  1  0
 45 46  3  0
 46 47  1  0
 47 48  3  0
 48 49  1  0
 49 50  3  0
 50 51  1  0
 51 52  3  0
 52 53  1  0
 53 54  3  0
 54 55  1  0
 55 56  1  0
 56 57  2  0
M  END
>  <Title>  (1170) 
idABRBgen13

$$$$

     RDKit          2D

 20 22  0  0  0  0  0  0  0  0999 V2000
   -9.8290    0.6200    0.0000 C   0  0  0  0  0  0  0  0  0  0  0  0
   -8.3310    0.5415    0.0000 C   0  0  0  0  0  0  0  0  0  0  0  0
   -7.6501   -0.7950    0.0000 C   0  0  0  0  0  0  0  0  0  0  0  0
   -6.1521   -0.8735    0.0000 C   0  0  0  0  0  0  0  0  0  0  0  0
   -5.4711   -2.2100    0.0000 C   0  0  0  0  0  0  0  0  0  0  0  0
   -6.2881   -3.4680    0.0000 O   0  0  0  0  0  0  0  0  0  0  0  0
   -3.9732   -2.2885    0.0000 N   0  0  0  0  0  0  0  0  0  0  0  0
   -3.2922   -3.6250    0.0000 C   0  0  0  0  0  0  0  0  0  0  0  0
   -3.9732   -4.9616    0.0000 N   0  0  0  0  0  0  0  0  0  0  0  0
   -2.9125   -6.0222    0.0000 N   0  0  0  0  0  0  0  0  0  0  0  0
   -1.5760   -5.3412    0.0000 N   0  0  0  0  0  0  0  0  0  0  0  0
   -1.8107   -3.8597    0.0000 N   0  0  0  0  0  0  0  0  0  0  0  0
   -0.7500   -2.7990    0.0000 C   0  0  0  0  0  0  0  0  0  0  0  0
    0.7500   -2.7990    0.0000 C   0  0  0  0  0  0  0  0  0  0  0  0
    0.7500   -1.2990    0.0000 C   0  0  0  0  0  0  0  0  0  0  0  0
    1.5000    0.0000    0.0000 C   0  0  0  0  0  0  0  0  0  0  0  0
    0.7500    1.2990    0.0000 C   0  0  0  0  0  0  0  0  0  0  0  0
   -0.7500    1.2990    0.0000 C   0  0  0  0  0  0  0  0  0  0  0  0
   -1.5000    0.0000    0.0000 C   0  0  0  0  0  0  0  0  0  0  0  0
   -0.7500   -1.2990    0.0000 C   0  0  0  0  0  0  0  0  0  0  0  0
  1  2  2  0
  2  3  1  0
  3  4  1  0
  4  5  1  0
  5  6  2  0
  5  7  1  0
  7  8  1  0
  8  9  2  0
  9 10  1  0
 10 11  2  0
 11 12  1  0
 12 13  1  0
 13 14  2  0
 14 15  1  0
 15 16  2  0
 16 17  1  0
 17 18  2  0
 18 19  1  0
 19 20  2  0
 12  8  1  0
 20 13  1  0
 20 15  1  0
M  END
>  <Title>  (1171) 
idABRCgen13

$$$$

     RDKit          2D

 31 34  0  0  0  0  0  0  0  0999 V2000
    3.0000    0.0000    0.0000 C   0  0  0  0  0  0  0  0  0  0  0  0
    1.5000    0.0000    0.0000 C   0  0  0  0  0  0  0  0  0  0  0  0
    0.7500   -1.2990    0.0000 C   0  0  0  0  0  0  0  0  0  0  0  0
   -0.7500   -1.2990    0.0000 C   0  0  0  0  0  0  0  0  0  0  0  0
   -1.5000    0.0000    0.0000 C   0  0  0  0  0  0  0  0  0  0  0  0
   -3.0000    0.0000    0.0000 C   0  0  0  0  0  0  0  0  0  0  0  0
   -3.7500   -1.2990    0.0000 O   0  0  0  0  0  0  0  0  0  0  0  0
   -3.7500    1.2990    0.0000 N   0  0  0  0  0  0  0  0  0  0  0  0
   -5.2500    1.2990    0.0000 C   0  0  0  0  0  0  0  0  0  0  0  0
   -6.1317    0.0855    0.0000 N   0  0  0  0  0  0  0  0  0  0  0  0
   -7.5583    0.5490    0.0000 N   0  0  0  0  0  0  0  0  0  0  0  0
   -7.5583    2.0490    0.0000 N   0  0  0  0  0  0  0  0  0  0  0  0
   -6.1317    2.5126    0.0000 N   0  0  0  0  0  0  0  0  0  0  0  0
   -5.6682    3.9391    0.0000 N   0  0  0  0  0  0  0  0  0  0  0  0
   -6.5498    5.1527    0.0000 C   0  0  0  0  0  0  0  0  0  0  0  0
   -5.6682    6.3662    0.0000 C   0  0  0  0  0  0  0  0  0  0  0  0
   -4.2416    5.9027    0.0000 N   0  0  0  0  0  0  0  0  0  0  0  0
   -3.0280    6.7844    0.0000 C   0  0  0  0  0  0  0  0  0  0  0  0
   -3.1848    8.2761    0.0000 O   0  0  0  0  0  0  0  0  0  0  0  0
   -1.6577    6.1742    0.0000 N   0  0  0  0  0  0  0  0  0  0  0  0
   -0.4442    7.0559    0.0000 C   0  0  0  0  0  0  0  0  0  0  0  0
    0.9261    6.4458    0.0000 N   0  0  0  0  0  0  0  0  0  0  0  0
    2.1396    7.3275    0.0000 N   0  0  0  0  0  0  0  0  0  0  0  0
    1.9829    8.8193    0.0000 N   0  0  0  0  0  0  0  0  0  0  0  0
    0.6125    9.4294    0.0000 N   0  0  0  0  0  0  0  0  0  0  0  0
   -0.6010    8.5477    0.0000 N   0  0  0  0  0  0  0  0  0  0  0  0
   -4.2416    4.4027    0.0000 C   0  0  0  0  0  0  0  0  0  0  0  0
   -3.0280    3.5210    0.0000 O   0  0  0  0  0  0  0  0  0  0  0  0
   -0.7500    1.2990    0.0000 C   0  0  0  0  0  0  0  0  0  0  0  0
   -1.5000    2.5981    0.0000 O   0  0  0  0  0  0  0  0  0  0  0  0
    0.7500    1.2990    0.0000 O   0  0  0  0  0  0  0  0  0  0  0  0
  1  2  1  0
  2  3  1  0
  3  4  2  0
  4  5  1  0
  5  6  1  0
  6  7  2  0
  6  8  1  0
  8  9  1  0
  9 10  2  0
 10 11  1  0
 11 12  2  0
 12 13  1  0
 13 14  1  0
 14 15  1  0
 15 16  1  0
 16 17  1  0
 17 18  1  0
 18 19  2  0
 18 20  1  0
 20 21  1  0
 21 22  2  0
 22 23  1  0
 23 24  2  0
 24 25  1  0
 25 26  2  0
 17 27  1  0
 27 28  2  0
  5 29  1  0
 29 30  2  0
 29 31  1  0
 31  2  1  0
 13  9  1  0
 27 14  1  0
 26 21  1  0
M  END
>  <Title>  (1172) 
idABRDgen13

$$$$

     RDKit          2D

 99103  0  0  0  0  0  0  0  0999 V2000
   -2.7861  -12.3594    0.0000 C   0  0  0  0  0  0  0  0  0  0  0  0
   -1.2870  -12.4139    0.0000 C   0  0  0  0  0  0  0  0  0  0  0  0
   -1.2779  -13.9139    0.0000 C   0  0  0  0  0  0  0  0  0  0  0  0
   -1.1417  -15.4077    0.0000 C   0  0  0  0  0  0  0  0  0  0  0  0
   -0.8792  -16.8846    0.0000 C   0  0  0  0  0  0  0  0  0  0  0  0
   -0.4925  -18.3338    0.0000 C   0  0  0  0  0  0  0  0  0  0  0  0
    0.0158  -19.7451    0.0000 C   0  0  0  0  0  0  0  0  0  0  0  0
    0.6420  -21.1082    0.0000 C   0  0  0  0  0  0  0  0  0  0  0  0
    1.3814  -22.4132    0.0000 C   0  0  0  0  0  0  0  0  0  0  0  0
    2.2289  -23.6509    0.0000 C   0  0  0  0  0  0  0  0  0  0  0  0
    3.1783  -24.8122    0.0000 C   0  0  0  0  0  0  0  0  0  0  0  0
    4.2228  -25.8888    0.0000 C   0  0  0  0  0  0  0  0  0  0  0  0
    5.3548  -26.8730    0.0000 C   0  0  0  0  0  0  0  0  0  0  0  0
    6.5661  -27.7576    0.0000 C   0  0  0  0  0  0  0  0  0  0  0  0
    7.8482  -28.5363    0.0000 C   0  0  0  0  0  0  0  0  0  0  0  0
    9.1916  -29.2035    0.0000 C   0  0  0  0  0  0  0  0  0  0  0  0
   10.5868  -29.7543    0.0000 C   0  0  0  0  0  0  0  0  0  0  0  0
   12.0237  -30.1848    0.0000 C   0  0  0  0  0  0  0  0  0  0  0  0
   13.4920  -30.4920    0.0000 C   0  0  0  0  0  0  0  0  0  0  0  0
   14.9809  -30.6735    0.0000 C   0  0  0  0  0  0  0  0  0  0  0  0
   16.4799  -30.7280    0.0000 C   0  0  0  0  0  0  0  0  0  0  0  0
   17.9782  -30.6553    0.0000 C   0  0  0  0  0  0  0  0  0  0  0  0
   19.4648  -30.4557    0.0000 C   0  0  0  0  0  0  0  0  0  0  0  0
   20.9292  -30.1308    0.0000 C   0  0  0  0  0  0  0  0  0  0  0  0
   22.3608  -29.6829    0.0000 C   0  0  0  0  0  0  0  0  0  0  0  0
   23.7492  -29.1152    0.0000 C   0  0  0  0  0  0  0  0  0  0  0  0
   25.0845  -28.4318    0.0000 C   0  0  0  0  0  0  0  0  0  0  0  0
   26.3570  -27.6376    0.0000 C   0  0  0  0  0  0  0  0  0  0  0  0
   27.5575  -26.7383    0.0000 C   0  0  0  0  0  0  0  0  0  0  0  0
   28.6775  -25.7405    0.0000 C   0  0  0  0  0  0  0  0  0  0  0  0
   29.7088  -24.6513    0.0000 C   0  0  0  0  0  0  0  0  0  0  0  0
   30.6441  -23.4785    0.0000 C   0  0  0  0  0  0  0  0  0  0  0  0
   31.4765  -22.2307    0.0000 C   0  0  0  0  0  0  0  0  0  0  0  0
   32.2001  -20.9168    0.0000 C   0  0  0  0  0  0  0  0  0  0  0  0
   32.8096  -19.5462    0.0000 C   0  0  0  0  0  0  0  0  0  0  0  0
   33.3007  -18.1289    0.0000 C   0  0  0  0  0  0  0  0  0  0  0  0
   33.6699  -16.6750    0.0000 C   0  0  0  0  0  0  0  0  0  0  0  0
   33.9144  -15.1951    0.0000 C   0  0  0  0  0  0  0  0  0  0  0  0
   34.0326  -13.6998    0.0000 C   0  0  0  0  0  0  0  0  0  0  0  0
   34.0235  -12.1998    0.0000 C   0  0  0  0  0  0  0  0  0  0  0  0
   33.8872  -10.7060    0.0000 C   0  0  0  0  0  0  0  0  0  0  0  0
   33.6247   -9.2291    0.0000 C   0  0  0  0  0  0  0  0  0  0  0  0
   33.2380   -7.7798    0.0000 C   0  0  0  0  0  0  0  0  0  0  0  0
   32.7297   -6.3686    0.0000 C   0  0  0  0  0  0  0  0  0  0  0  0
   32.1036   -5.0055    0.0000 C   0  0  0  0  0  0  0  0  0  0  0  0
   31.3641   -3.7005    0.0000 C   0  0  0  0  0  0  0  0  0  0  0  0
   30.5166   -2.4628    0.0000 C   0  0  0  0  0  0  0  0  0  0  0  0
   29.5672   -1.3015    0.0000 C   0  0  0  0  0  0  0  0  0  0  0  0
   28.5228   -0.2249    0.0000 C   0  0  0  0  0  0  0  0  0  0  0  0
   27.3908    0.7593    0.0000 C   0  0  0  0  0  0  0  0  0  0  0  0
   26.1794    1.6439    0.0000 C   0  0  0  0  0  0  0  0  0  0  0  0
   24.8973    2.4226    0.0000 C   0  0  0  0  0  0  0  0  0  0  0  0
   23.5539    3.0898    0.0000 C   0  0  0  0  0  0  0  0  0  0  0  0
   22.1587    3.6406    0.0000 C   0  0  0  0  0  0  0  0  0  0  0  0
   20.7218    4.0711    0.0000 C   0  0  0  0  0  0  0  0  0  0  0  0
   19.2536    4.3783    0.0000 C   0  0  0  0  0  0  0  0  0  0  0  0
   17.7646    4.5598    0.0000 C   0  0  0  0  0  0  0  0  0  0  0  0
   16.2656    4.6143    0.0000 C   0  0  0  0  0  0  0  0  0  0  0  0
   14.7674    4.5416    0.0000 C   0  0  0  0  0  0  0  0  0  0  0  0
   13.2807    4.3420    0.0000 C   0  0  0  0  0  0  0  0  0  0  0  0
   11.8163    4.0171    0.0000 C   0  0  0  0  0  0  0  0  0  0  0  0
   10.3847    3.5692    0.0000 C   0  0  0  0  0  0  0  0  0  0  0  0
    8.9963    3.0015    0.0000 C   0  0  0  0  0  0  0  0  0  0  0  0
    7.6611    2.3181    0.0000 C   0  0  0  0  0  0  0  0  0  0  0  0
    6.3886    1.5239    0.0000 C   0  0  0  0  0  0  0  0  0  0  0  0
    5.1880    0.6246    0.0000 C   0  0  0  0  0  0  0  0  0  0  0  0
    4.0680   -0.3732    0.0000 C   0  0  0  0  0  0  0  0  0  0  0  0
    3.0367   -1.4624    0.0000 C   0  0  0  0  0  0  0  0  0  0  0  0
    3.3705    0.0000    0.0000 C   0  0  0  0  0  0  0  0  0  0  0  0
    3.0367    1.4624    0.0000 C   0  0  0  0  0  0  0  0  0  0  0  0
    2.1015    2.6351    0.0000 C   0  0  0  0  0  0  0  0  0  0  0  0
    0.7500    3.2860    0.0000 C   0  0  0  0  0  0  0  0  0  0  0  0
   -0.7500    3.2860    0.0000 C   0  0  0  0  0  0  0  0  0  0  0  0
   -2.1015    2.6351    0.0000 C   0  0  0  0  0  0  0  0  0  0  0  0
   -3.0367    1.4624    0.0000 C   0  0  0  0  0  0  0  0  0  0  0  0
   -3.3705    0.0000    0.0000 C   0  0  0  0  0  0  0  0  0  0  0  0
   -3.0367   -1.4624    0.0000 C   0  0  0  0  0  0  0  0  0  0  0  0
   -2.1015   -2.6351    0.0000 C   0  0  0  0  0  0  0  0  0  0  0  0
   -0.7500   -3.2860    0.0000 C   0  0  0  0  0  0  0  0  0  0  0  0
    0.7500   -3.2860    0.0000 C   0  0  0  0  0  0  0  0  0  0  0  0
    2.1015   -2.6351    0.0000 C   0  0  0  0  0  0  0  0  0  0  0  0
    1.2690   -3.8830    0.0000 C   0  0  0  0  0  0  0  0  0  0  0  0
    2.7687   -3.8527    0.0000 C   0  0  0  0  0  0  0  0  0  0  0  0
    3.5448   -5.1363    0.0000 C   0  0  0  0  0  0  0  0  0  0  0  0
    2.8213   -6.4502    0.0000 C   0  0  0  0  0  0  0  0  0  0  0  0
    1.3216   -6.4805    0.0000 C   0  0  0  0  0  0  0  0  0  0  0  0
    0.5455   -5.1969    0.0000 C   0  0  0  0  0  0  0  0  0  0  0  0
   -0.0641   -6.5675    0.0000 C   0  0  0  0  0  0  0  0  0  0  0  0
   -1.0460   -5.4335    0.0000 C   0  0  0  0  0  0  0  0  0  0  0  0
   -2.5190   -5.7168    0.0000 C   0  0  0  0  0  0  0  0  0  0  0  0
   -3.0101   -7.1341    0.0000 C   0  0  0  0  0  0  0  0  0  0  0  0
   -2.0282   -8.2681    0.0000 C   0  0  0  0  0  0  0  0  0  0  0  0
   -0.5552   -7.9848    0.0000 C   0  0  0  0  0  0  0  0  0  0  0  0
   -0.9244   -9.4387    0.0000 C   0  0  0  0  0  0  0  0  0  0  0  0
    0.4796   -8.9105    0.0000 C   0  0  0  0  0  0  0  0  0  0  0  0
    1.6389   -9.8622    0.0000 C   0  0  0  0  0  0  0  0  0  0  0  0
    1.3944  -11.3421    0.0000 C   0  0  0  0  0  0  0  0  0  0  0  0
   -0.0095  -11.8703    0.0000 C   0  0  0  0  0  0  0  0  0  0  0  0
   -1.1689  -10.9186    0.0000 C   0  0  0  0  0  0  0  0  0  0  0  0
  1  2  1  0
  2  3  1  0
  3  4  1  0
  4  5  1  0
  5  6  1  0
  6  7  1  0
  7  8  1  0
  8  9  1  0
  9 10  1  0
 10 11  1  0
 11 12  1  0
 12 13  1  0
 13 14  1  0
 14 15  1  0
 15 16  1  0
 16 17  1  0
 17 18  1  0
 18 19  1  0
 19 20  1  0
 20 21  1  0
 21 22  1  0
 22 23  1  0
 23 24  1  0
 24 25  1  0
 25 26  1  0
 26 27  1  0
 27 28  1  0
 28 29  1  0
 29 30  1  0
 30 31  1  0
 31 32  1  0
 32 33  1  0
 33 34  1  0
 34 35  1  0
 35 36  1  0
 36 37  1  0
 37 38  1  0
 38 39  1  0
 39 40  1  0
 40 41  1  0
 41 42  1  0
 42 43  1  0
 43 44  1  0
 44 45  1  0
 45 46  1  0
 46 47  1  0
 47 48  1  0
 48 49  1  0
 49 50  1  0
 50 51  1  0
 51 52  1  0
 52 53  1  0
 53 54  1  0
 54 55  1  0
 55 56  1  0
 56 57  1  0
 57 58  1  0
 58 59  1  0
 59 60  1  0
 60 61  1  0
 61 62  1  0
 62 63  1  0
 63 64  1  0
 64 65  1  0
 65 66  1  0
 66 67  1  0
 67 68  1  0
 68 69  1  0
 69 70  1  0
 70 71  1  0
 71 72  1  0
 72 73  2  0
 73 74  1  0
 74 75  2  0
 75 76  1  0
 76 77  2  0
 77 78  1  0
 78 79  2  0
 79 80  1  0
 80 81  2  0
 81 82  1  0
 82 83  2  0
 83 84  1  0
 84 85  2  0
 85 86  1  0
 86 87  2  0
 87 88  1  0
 88 89  2  0
 89 90  1  0
 90 91  2  0
 91 92  1  0
 92 93  2  0
 93 94  1  0
 94 95  2  0
 95 96  1  0
 96 97  2  0
 97 98  1  0
 98 99  2  0
 99  2  1  0
 81 68  1  0
 87 82  1  0
 93 88  1  0
 99 94  1  0
M  END
>  <Title>  (1173) 
idABREgen13

$$$$

     RDKit          2D

 34 38  0  0  0  0  0  0  0  0999 V2000
   -3.1476   -2.1380    0.0000 C   0  0  0  0  0  0  0  0  0  0  0  0
   -1.6852   -2.4718    0.0000 C   0  0  0  0  0  0  0  0  0  0  0  0
   -1.3515   -3.9342    0.0000 C   0  0  0  0  0  0  0  0  0  0  0  0
   -0.0000   -4.5850    0.0000 C   0  0  0  0  0  0  0  0  0  0  0  0
   -0.0000   -6.0850    0.0000 C   0  0  0  0  0  0  0  0  0  0  0  0
    1.2135   -6.9667    0.0000 C   0  0  0  0  0  0  0  0  0  0  0  0
    0.7500   -8.3933    0.0000 N   0  0  0  0  0  0  0  0  0  0  0  0
   -0.7500   -8.3933    0.0000 N   0  0  0  0  0  0  0  0  0  0  0  0
   -1.2135   -6.9667    0.0000 N   0  0  0  0  0  0  0  0  0  0  0  0
   -2.6401   -6.5032    0.0000 N   0  0  0  0  0  0  0  0  0  0  0  0
   -3.8536   -7.3848    0.0000 C   0  0  0  0  0  0  0  0  0  0  0  0
   -5.0672   -6.5032    0.0000 C   0  0  0  0  0  0  0  0  0  0  0  0
   -4.6036   -5.0766    0.0000 C   0  0  0  0  0  0  0  0  0  0  0  0
   -5.4853   -3.8630    0.0000 O   0  0  0  0  0  0  0  0  0  0  0  0
   -6.9771   -4.0198    0.0000 C   0  0  0  0  0  0  0  0  0  0  0  0
   -7.5872   -5.3902    0.0000 O   0  0  0  0  0  0  0  0  0  0  0  0
   -7.8588   -2.8063    0.0000 N   0  0  0  0  0  0  0  0  0  0  0  0
   -9.3506   -2.9631    0.0000 C   0  0  0  0  0  0  0  0  0  0  0  0
  -10.2322   -1.7496    0.0000 N   0  0  0  0  0  0  0  0  0  0  0  0
  -11.7240   -1.9064    0.0000 N   0  0  0  0  0  0  0  0  0  0  0  0
  -12.3341   -3.2767    0.0000 N   0  0  0  0  0  0  0  0  0  0  0  0
  -11.4524   -4.4902    0.0000 N   0  0  0  0  0  0  0  0  0  0  0  0
   -9.9607   -4.3334    0.0000 N   0  0  0  0  0  0  0  0  0  0  0  0
   -3.1036   -5.0766    0.0000 C   0  0  0  0  0  0  0  0  0  0  0  0
   -2.2220   -3.8630    0.0000 O   0  0  0  0  0  0  0  0  0  0  0  0
    1.3515   -3.9342    0.0000 C   0  0  0  0  0  0  0  0  0  0  0  0
    2.5242   -4.8694    0.0000 O   0  0  0  0  0  0  0  0  0  0  0  0
    1.6852   -2.4718    0.0000 O   0  0  0  0  0  0  0  0  0  0  0  0
    0.7500   -1.2990    0.0000 C   0  0  0  0  0  0  0  0  0  0  0  0
    1.5000    0.0000    0.0000 C   0  0  0  0  0  0  0  0  0  0  0  0
    0.7500    1.2990    0.0000 C   0  0  0  0  0  0  0  0  0  0  0  0
   -0.7500    1.2990    0.0000 C   0  0  0  0  0  0  0  0  0  0  0  0
   -1.5000    0.0000    0.0000 C   0  0  0  0  0  0  0  0  0  0  0  0
   -0.7500   -1.2990    0.0000 C   0  0  0  0  0  0  0  0  0  0  0  0
  1  2  1  0
  2  3  2  0
  3  4  1  0
  4  5  1  0
  5  6  2  0
  6  7  1  0
  7  8  2  0
  8  9  1  0
  9 10  1  0
 10 11  1  0
 11 12  1  0
 12 13  2  0
 13 14  1  0
 14 15  1  0
 15 16  2  0
 15 17  1  0
 17 18  1  0
 18 19  2  0
 19 20  1  0
 20 21  2  0
 21 22  1  0
 22 23  2  0
 13 24  1  0
 24 25  2  0
  4 26  1  0
 26 27  2  0
 26 28  1  0
 28 29  1  0
 29 30  2  0
 30 31  1  0
 31 32  2  0
 32 33  1  0
 33 34  2  0
 34  2  1  0
  9  5  1  0
 24 10  1  0
 34 29  1  0
 23 18  1  0
M  END
>  <Title>  (1174) 
idABRFgen13

$$$$

     RDKit          2D

 64 65  0  0  0  0  0  0  0  0999 V2000
   -2.2649   -1.0434    0.0000 C   0  0  0  0  0  0  0  0  0  0  0  0
   -2.4995    0.4381    0.0000 C   0  0  0  0  0  0  0  0  0  0  0  0
   -3.9913    0.2813    0.0000 C   0  0  0  0  0  0  0  0  0  0  0  0
   -5.4913    0.2813    0.0000 C   0  0  0  0  0  0  0  0  0  0  0  0
   -6.9831    0.4381    0.0000 C   0  0  0  0  0  0  0  0  0  0  0  0
   -8.4503    0.7500    0.0000 C   0  0  0  0  0  0  0  0  0  0  0  0
   -9.8769    1.2135    0.0000 C   0  0  0  0  0  0  0  0  0  0  0  0
  -11.2472    1.8236    0.0000 C   0  0  0  0  0  0  0  0  0  0  0  0
  -12.5462    2.5736    0.0000 C   0  0  0  0  0  0  0  0  0  0  0  0
  -13.7598    3.4553    0.0000 C   0  0  0  0  0  0  0  0  0  0  0  0
  -14.8745    4.4590    0.0000 C   0  0  0  0  0  0  0  0  0  0  0  0
  -15.8782    5.5737    0.0000 C   0  0  0  0  0  0  0  0  0  0  0  0
  -16.7599    6.7872    0.0000 C   0  0  0  0  0  0  0  0  0  0  0  0
  -17.5099    8.0863    0.0000 C   0  0  0  0  0  0  0  0  0  0  0  0
  -18.1200    9.4566    0.0000 C   0  0  0  0  0  0  0  0  0  0  0  0
  -18.5835   10.8832    0.0000 C   0  0  0  0  0  0  0  0  0  0  0  0
  -18.8954   12.3504    0.0000 C   0  0  0  0  0  0  0  0  0  0  0  0
  -19.0521   13.8422    0.0000 C   0  0  0  0  0  0  0  0  0  0  0  0
  -19.0521   15.3422    0.0000 C   0  0  0  0  0  0  0  0  0  0  0  0
  -18.8954   16.8340    0.0000 C   0  0  0  0  0  0  0  0  0  0  0  0
  -18.5835   18.3012    0.0000 C   0  0  0  0  0  0  0  0  0  0  0  0
  -18.1200   19.7278    0.0000 C   0  0  0  0  0  0  0  0  0  0  0  0
  -17.5099   21.0981    0.0000 C   0  0  0  0  0  0  0  0  0  0  0  0
  -16.7599   22.3971    0.0000 C   0  0  0  0  0  0  0  0  0  0  0  0
  -15.8782   23.6107    0.0000 C   0  0  0  0  0  0  0  0  0  0  0  0
  -14.8745   24.7254    0.0000 C   0  0  0  0  0  0  0  0  0  0  0  0
  -13.7598   25.7291    0.0000 C   0  0  0  0  0  0  0  0  0  0  0  0
  -12.5462   26.6108    0.0000 C   0  0  0  0  0  0  0  0  0  0  0  0
  -11.2472   27.3608    0.0000 C   0  0  0  0  0  0  0  0  0  0  0  0
   -9.8769   27.9709    0.0000 C   0  0  0  0  0  0  0  0  0  0  0  0
   -8.4503   28.4344    0.0000 C   0  0  0  0  0  0  0  0  0  0  0  0
   -6.9831   28.7463    0.0000 C   0  0  0  0  0  0  0  0  0  0  0  0
   -5.4913   28.9030    0.0000 C   0  0  0  0  0  0  0  0  0  0  0  0
   -3.9913   28.9030    0.0000 C   0  0  0  0  0  0  0  0  0  0  0  0
   -2.4995   28.7463    0.0000 C   0  0  0  0  0  0  0  0  0  0  0  0
   -1.0323   28.4344    0.0000 C   0  0  0  0  0  0  0  0  0  0  0  0
    0.3943   27.9709    0.0000 C   0  0  0  0  0  0  0  0  0  0  0  0
    1.7646   27.3608    0.0000 C   0  0  0  0  0  0  0  0  0  0  0  0
    3.0637   26.6108    0.0000 C   0  0  0  0  0  0  0  0  0  0  0  0
    4.2772   25.7291    0.0000 C   0  0  0  0  0  0  0  0  0  0  0  0
    5.3919   24.7254    0.0000 C   0  0  0  0  0  0  0  0  0  0  0  0
    6.3956   23.6107    0.0000 C   0  0  0  0  0  0  0  0  0  0  0  0
    7.2773   22.3971    0.0000 C   0  0  0  0  0  0  0  0  0  0  0  0
    8.0273   21.0981    0.0000 C   0  0  0  0  0  0  0  0  0  0  0  0
    8.6374   19.7278    0.0000 C   0  0  0  0  0  0  0  0  0  0  0  0
    9.1009   18.3012    0.0000 C   0  0  0  0  0  0  0  0  0  0  0  0
    9.4128   16.8340    0.0000 C   0  0  0  0  0  0  0  0  0  0  0  0
    9.5696   15.3422    0.0000 C   0  0  0  0  0  0  0  0  0  0  0  0
    9.5696   13.8422    0.0000 C   0  0  0  0  0  0  0  0  0  0  0  0
    9.4128   12.3504    0.0000 C   0  0  0  0  0  0  0  0  0  0  0  0
    9.1009   10.8832    0.0000 C   0  0  0  0  0  0  0  0  0  0  0  0
    8.6374    9.4566    0.0000 C   0  0  0  0  0  0  0  0  0  0  0  0
    8.0273    8.0863    0.0000 C   0  0  0  0  0  0  0  0  0  0  0  0
    7.2773    6.7872    0.0000 C   0  0  0  0  0  0  0  0  0  0  0  0
    6.3956    5.5737    0.0000 C   0  0  0  0  0  0  0  0  0  0  0  0
    5.3919    4.4590    0.0000 C   0  0  0  0  0  0  0  0  0  0  0  0
    4.2772    3.4553    0.0000 C   0  0  0  0  0  0  0  0  0  0  0  0
    3.0637    2.5736    0.0000 C   0  0  0  0  0  0  0  0  0  0  0  0
    1.7646    1.8236    0.0000 C   0  0  0  0  0  0  0  0  0  0  0  0
    0.3943    1.2135    0.0000 C   0  0  0  0  0  0  0  0  0  0  0  0
    1.2760    0.0000    0.0000 C   0  0  0  0  0  0  0  0  0  0  0  0
    0.3943   -1.2135    0.0000 C   0  0  0  0  0  0  0  0  0  0  0  0
   -1.0323   -0.7500    0.0000 C   0  0  0  0  0  0  0  0  0  0  0  0
   -1.0323    0.7500    0.0000 C   0  0  0  0  0  0  0  0  0  0  0  0
  1  2  1  0
  2  3  1  0
  3  4  1  0
  4  5  1  0
  5  6  1  0
  6  7  1  0
  7  8  1  0
  8  9  1  0
  9 10  1  0
 10 11  1  0
 11 12  1  0
 12 13  1  0
 13 14  1  0
 14 15  1  0
 15 16  1  0
 16 17  1  0
 17 18  1  0
 18 19  1  0
 19 20  1  0
 20 21  1  0
 21 22  1  0
 22 23  1  0
 23 24  1  0
 24 25  1  0
 25 26  1  0
 26 27  1  0
 27 28  1  0
 28 29  1  0
 29 30  1  0
 30 31  1  0
 31 32  1  0
 32 33  1  0
 33 34  1  0
 34 35  1  0
 35 36  1  0
 36 37  1  0
 37 38  1  0
 38 39  1  0
 39 40  1  0
 40 41  1  0
 41 42  1  0
 42 43  1  0
 43 44  1  0
 44 45  1  0
 45 46  1  0
 46 47  1  0
 47 48  2  0
 48 49  1  0
 49 50  2  0
 50 51  1  0
 51 52  2  0
 52 53  1  0
 53 54  2  0
 54 55  1  0
 55 56  2  0
 56 57  1  0
 57 58  2  0
 58 59  1  0
 59 60  2  0
 60 61  1  0
 61 62  2  0
 62 63  1  0
 63 64  2  0
 64  2  1  0
 64 60  1  0
M  END
>  <Title>  (1175) 
idABRGgen13

$$$$

     RDKit          2D

  6  6  0  0  0  0  0  0  0  0999 V2000
    1.5000    0.0000    0.0000 C   0  0  0  0  0  0  0  0  0  0  0  0
    0.7500   -1.2990    0.0000 C   0  0  0  0  0  0  0  0  0  0  0  0
   -0.7500   -1.2990    0.0000 O   0  0  0  0  0  0  0  0  0  0  0  0
   -1.5000    0.0000    0.0000 C   0  0  0  0  0  0  0  0  0  0  0  0
   -0.7500    1.2990    0.0000 C   0  0  0  0  0  0  0  0  0  0  0  0
    0.7500    1.2990    0.0000 C   0  0  0  0  0  0  0  0  0  0  0  0
  1  2  2  0
  2  3  1  0
  3  4  1  0
  4  5  2  0
  5  6  1  0
  6  1  1  0
M  END
>  <Title>  (1176) 
idABRHgen13

$$$$

     RDKit          2D

 20 22  0  0  0  0  0  0  0  0999 V2000
    3.0000    0.0000    0.0000 C   0  0  0  0  0  0  0  0  0  0  0  0
    1.5000    0.0000    0.0000 C   0  0  0  0  0  0  0  0  0  0  0  0
    0.7500   -1.2990    0.0000 C   0  0  0  0  0  0  0  0  0  0  0  0
   -0.7500   -1.2990    0.0000 C   0  0  0  0  0  0  0  0  0  0  0  0
   -1.5000    0.0000    0.0000 C   0  0  0  0  0  0  0  0  0  0  0  0
   -0.7500    1.2990    0.0000 C   0  0  0  0  0  0  0  0  0  0  0  0
    0.7500    1.2990    0.0000 C   0  0  0  0  0  0  0  0  0  0  0  0
    1.5000    2.5981    0.0000 C   0  0  0  0  0  0  0  0  0  0  0  0
    3.0000    2.5981    0.0000 O   0  0  0  0  0  0  0  0  0  0  0  0
    0.7500    3.8971    0.0000 N   0  0  0  0  0  0  0  0  0  0  0  0
    1.5000    5.1962    0.0000 C   0  0  0  0  0  0  0  0  0  0  0  0
    2.9918    5.3529    0.0000 N   0  0  0  0  0  0  0  0  0  0  0  0
    3.3037    6.8202    0.0000 N   0  0  0  0  0  0  0  0  0  0  0  0
    2.0046    7.5702    0.0000 N   0  0  0  0  0  0  0  0  0  0  0  0
    0.8899    6.5665    0.0000 N   0  0  0  0  0  0  0  0  0  0  0  0
   -0.5773    6.8783    0.0000 C   0  0  0  0  0  0  0  0  0  0  0  0
   -1.1874    8.2487    0.0000 C   0  0  0  0  0  0  0  0  0  0  0  0
   -2.6792    8.0919    0.0000 C   0  0  0  0  0  0  0  0  0  0  0  0
   -2.9911    6.6246    0.0000 C   0  0  0  0  0  0  0  0  0  0  0  0
   -1.6920    5.8746    0.0000 C   0  0  0  0  0  0  0  0  0  0  0  0
  1  2  1  0
  2  3  1  0
  3  4  1  0
  4  5  1  0
  5  6  1  0
  6  7  1  0
  7  8  1  0
  8  9  2  0
  8 10  1  0
 10 11  1  0
 11 12  2  0
 12 13  1  0
 13 14  2  0
 14 15  1  0
 15 16  1  0
 16 17  2  0
 17 18  1  0
 18 19  2  0
 19 20  1  0
  7  2  1  0
 15 11  1  0
 20 16  1  0
M  END
>  <Title>  (1177) 
idABRIgen13

$$$$

     RDKit          2D

 46 52  0  0  0  0  0  0  0  0999 V2000
   -4.6649   -4.8118    0.0000 C   0  0  0  0  0  0  0  0  0  0  0  0
   -3.8701   -6.0839    0.0000 C   0  0  0  0  0  0  0  0  0  0  0  0
   -4.4320   -7.4747    0.0000 C   0  0  0  0  0  0  0  0  0  0  0  0
   -3.2829   -8.4389    0.0000 N   0  0  0  0  0  0  0  0  0  0  0  0
   -2.0108   -7.6440    0.0000 N   0  0  0  0  0  0  0  0  0  0  0  0
   -2.3737   -6.1885    0.0000 N   0  0  0  0  0  0  0  0  0  0  0  0
   -1.4095   -5.0395    0.0000 C   0  0  0  0  0  0  0  0  0  0  0  0
    0.0000   -5.5525    0.0000 C   0  0  0  0  0  0  0  0  0  0  0  0
    1.4095   -5.0395    0.0000 C   0  0  0  0  0  0  0  0  0  0  0  0
    2.1595   -3.7404    0.0000 C   0  0  0  0  0  0  0  0  0  0  0  0
    1.8991   -2.2632    0.0000 C   0  0  0  0  0  0  0  0  0  0  0  0
    3.1981   -1.5132    0.0000 C   0  0  0  0  0  0  0  0  0  0  0  0
    3.1981   -0.0132    0.0000 O   0  0  0  0  0  0  0  0  0  0  0  0
    4.4971   -2.2632    0.0000 N   0  0  0  0  0  0  0  0  0  0  0  0
    5.7962   -1.5132    0.0000 C   0  0  0  0  0  0  0  0  0  0  0  0
    5.9530   -0.0214    0.0000 N   0  0  0  0  0  0  0  0  0  0  0  0
    7.4202    0.2904    0.0000 N   0  0  0  0  0  0  0  0  0  0  0  0
    8.1702   -1.0086    0.0000 N   0  0  0  0  0  0  0  0  0  0  0  0
    7.1665   -2.1233    0.0000 N   0  0  0  0  0  0  0  0  0  0  0  0
    7.4784   -3.5905    0.0000 C   0  0  0  0  0  0  0  0  0  0  0  0
    8.8487   -4.2007    0.0000 C   0  0  0  0  0  0  0  0  0  0  0  0
    8.6919   -5.6924    0.0000 C   0  0  0  0  0  0  0  0  0  0  0  0
    7.2247   -6.0043    0.0000 C   0  0  0  0  0  0  0  0  0  0  0  0
    6.6146   -7.3746    0.0000 C   0  0  0  0  0  0  0  0  0  0  0  0
    7.4962   -8.5881    0.0000 O   0  0  0  0  0  0  0  0  0  0  0  0
    5.1228   -7.5314    0.0000 N   0  0  0  0  0  0  0  0  0  0  0  0
    4.5127   -8.9017    0.0000 C   0  0  0  0  0  0  0  0  0  0  0  0
    3.0209   -9.0585    0.0000 N   0  0  0  0  0  0  0  0  0  0  0  0
    2.4108  -10.4288    0.0000 N   0  0  0  0  0  0  0  0  0  0  0  0
    3.2925  -11.6424    0.0000 N   0  0  0  0  0  0  0  0  0  0  0  0
    4.7843  -11.4856    0.0000 N   0  0  0  0  0  0  0  0  0  0  0  0
    5.3944  -10.1153    0.0000 N   0  0  0  0  0  0  0  0  0  0  0  0
    6.4747   -4.7053    0.0000 C   0  0  0  0  0  0  0  0  0  0  0  0
    4.9829   -4.5485    0.0000 O   0  0  0  0  0  0  0  0  0  0  0  0
    0.7500   -1.2990    0.0000 C   0  0  0  0  0  0  0  0  0  0  0  0
    1.5000    0.0000    0.0000 C   0  0  0  0  0  0  0  0  0  0  0  0
    0.7500    1.2990    0.0000 C   0  0  0  0  0  0  0  0  0  0  0  0
   -0.7500    1.2990    0.0000 C   0  0  0  0  0  0  0  0  0  0  0  0
   -1.5000    0.0000    0.0000 C   0  0  0  0  0  0  0  0  0  0  0  0
   -0.7500   -1.2990    0.0000 C   0  0  0  0  0  0  0  0  0  0  0  0
   -1.8991   -2.2632    0.0000 C   0  0  0  0  0  0  0  0  0  0  0  0
   -3.0481   -1.2990    0.0000 C   0  0  0  0  0  0  0  0  0  0  0  0
   -4.4577   -1.8121    0.0000 C   0  0  0  0  0  0  0  0  0  0  0  0
   -4.7181   -3.2893    0.0000 C   0  0  0  0  0  0  0  0  0  0  0  0
   -3.5691   -4.2535    0.0000 C   0  0  0  0  0  0  0  0  0  0  0  0
   -2.1595   -3.7404    0.0000 C   0  0  0  0  0  0  0  0  0  0  0  0
  1  2  1  0
  2  3  2  0
  3  4  1  0
  4  5  2  0
  5  6  1  0
  6  7  1  0
  7  8  2  0
  8  9  1  0
  9 10  2  0
 10 11  1  0
 11 12  1  0
 12 13  2  0
 12 14  1  0
 14 15  1  0
 15 16  2  0
 16 17  1  0
 17 18  2  0
 18 19  1  0
 19 20  1  0
 20 21  2  0
 21 22  1  0
 22 23  2  0
 23 24  1  0
 24 25  2  0
 24 26  1  0
 26 27  1  0
 27 28  2  0
 28 29  1  0
 29 30  2  0
 30 31  1  0
 31 32  2  0
 23 33  1  0
 33 34  2  0
 11 35  1  0
 35 36  2  0
 36 37  1  0
 37 38  2  0
 38 39  1  0
 39 40  2  0
 40 41  1  0
 41 42  2  0
 42 43  1  0
 43 44  2  0
 44 45  1  0
 45 46  2  0
  6  2  1  0
 46  7  1  0
 19 15  1  0
 33 20  1  0
 40 35  1  0
 46 41  1  0
 32 27  1  0
M  END
>  <Title>  (1178) 
idABRJgen13

$$$$

     RDKit          2D

  5  4  0  0  0  0  0  0  0  0999 V2000
    0.0000    0.0000    0.0000 C   0  0  0  0  0  0  0  0  0  0  0  0
    1.2990    0.7500    0.0000 N   0  0  0  0  0  0  0  0  0  0  0  0
    2.5981   -0.0000    0.0000 C   0  0  0  0  0  0  0  0  0  0  0  0
    3.8971    0.7500    0.0000 C   0  0  0  0  0  0  0  0  0  0  0  0
    2.5981   -1.5000    0.0000 C   0  0  0  0  0  0  0  0  0  0  0  0
  1  2  1  0
  2  3  1  0
  3  4  1  0
  3  5  1  0
M  END
>  <Title>  (1179) 
idABRKgen13

$$$$

     RDKit          2D

 82 81  0  0  0  0  0  0  0  0999 V2000
    0.0000    0.0000    0.0000 C   0  0  0  0  0  0  0  0  0  0  0  0
   -0.0000   -1.5000    0.0000 C   0  0  0  0  0  0  0  0  0  0  0  0
   -0.0000   -3.0000    0.0000 C   0  0  0  0  0  0  0  0  0  0  0  0
   -0.0000   -4.5000    0.0000 C   0  0  0  0  0  0  0  0  0  0  0  0
   -0.0000   -6.0000    0.0000 C   0  0  0  0  0  0  0  0  0  0  0  0
   -0.0000   -7.5000    0.0000 C   0  0  0  0  0  0  0  0  0  0  0  0
   -0.0000   -9.0000    0.0000 C   0  0  0  0  0  0  0  0  0  0  0  0
   -0.0000  -10.5000    0.0000 C   0  0  0  0  0  0  0  0  0  0  0  0
   -0.0000  -12.0000    0.0000 C   0  0  0  0  0  0  0  0  0  0  0  0
   -0.0000  -13.5000    0.0000 C   0  0  0  0  0  0  0  0  0  0  0  0
   -0.0000  -15.0000    0.0000 C   0  0  0  0  0  0  0  0  0  0  0  0
   -0.0000  -16.5000    0.0000 C   0  0  0  0  0  0  0  0  0  0  0  0
   -0.0000  -18.0000    0.0000 C   0  0  0  0  0  0  0  0  0  0  0  0
   -0.0000  -19.5000    0.0000 C   0  0  0  0  0  0  0  0  0  0  0  0
   -0.0000  -21.0000    0.0000 C   0  0  0  0  0  0  0  0  0  0  0  0
   -0.0000  -22.5000    0.0000 C   0  0  0  0  0  0  0  0  0  0  0  0
   -0.0000  -24.0000    0.0000 C   0  0  0  0  0  0  0  0  0  0  0  0
   -0.0000  -25.5000    0.0000 C   0  0  0  0  0  0  0  0  0  0  0  0
   -0.0000  -27.0000    0.0000 C   0  0  0  0  0  0  0  0  0  0  0  0
   -0.0000  -28.5000    0.0000 C   0  0  0  0  0  0  0  0  0  0  0  0
   -0.0000  -30.0000    0.0000 C   0  0  0  0  0  0  0  0  0  0  0  0
   -0.0000  -31.5000    0.0000 C   0  0  0  0  0  0  0  0  0  0  0  0
   -0.0000  -33.0000    0.0000 C   0  0  0  0  0  0  0  0  0  0  0  0
   -0.0000  -34.5000    0.0000 C   0  0  0  0  0  0  0  0  0  0  0  0
   -0.0000  -36.0000    0.0000 C   0  0  0  0  0  0  0  0  0  0  0  0
   -0.0000  -37.5000    0.0000 C   0  0  0  0  0  0  0  0  0  0  0  0
   -0.0000  -39.0000    0.0000 C   0  0  0  0  0  0  0  0  0  0  0  0
   -0.0000  -40.5000    0.0000 C   0  0  0  0  0  0  0  0  0  0  0  0
   -0.0000  -42.0000    0.0000 C   0  0  0  0  0  0  0  0  0  0  0  0
   -0.0000  -43.5000    0.0000 C   0  0  0  0  0  0  0  0  0  0  0  0
   -0.0000  -45.0000    0.0000 C   0  0  0  0  0  0  0  0  0  0  0  0
   -0.0000  -46.5000    0.0000 C   0  0  0  0  0  0  0  0  0  0  0  0
   -0.0000  -48.0000    0.0000 C   0  0  0  0  0  0  0  0  0  0  0  0
   -0.0000  -49.5000    0.0000 C   0  0  0  0  0  0  0  0  0  0  0  0
   -0.0000  -51.0000    0.0000 C   0  0  0  0  0  0  0  0  0  0  0  0
   -0.0000  -52.5000    0.0000 C   0  0  0  0  0  0  0  0  0  0  0  0
   -0.0000  -54.0000    0.0000 C   0  0  0  0  0  0  0  0  0  0  0  0
   -0.0000  -55.5000    0.0000 C   0  0  0  0  0  0  0  0  0  0  0  0
   -0.0000  -57.0000    0.0000 C   0  0  0  0  0  0  0  0  0  0  0  0
   -0.0000  -58.5000    0.0000 C   0  0  0  0  0  0  0  0  0  0  0  0
   -0.0000  -60.0000    0.0000 C   0  0  0  0  0  0  0  0  0  0  0  0
   -0.0000  -61.5000    0.0000 C   0  0  0  0  0  0  0  0  0  0  0  0
   -0.0000  -63.0000    0.0000 C   0  0  0  0  0  0  0  0  0  0  0  0
   -0.0000  -64.5000    0.0000 C   0  0  0  0  0  0  0  0  0  0  0  0
   -0.0000  -66.0000    0.0000 C   0  0  0  0  0  0  0  0  0  0  0  0
   -0.0000  -67.5000    0.0000 C   0  0  0  0  0  0  0  0  0  0  0  0
   -0.0000  -69.0000    0.0000 C   0  0  0  0  0  0  0  0  0  0  0  0
   -0.0000  -70.5000    0.0000 C   0  0  0  0  0  0  0  0  0  0  0  0
   -0.0000  -72.0000    0.0000 C   0  0  0  0  0  0  0  0  0  0  0  0
   -0.0000  -73.5000    0.0000 C   0  0  0  0  0  0  0  0  0  0  0  0
   -0.0000  -75.0000    0.0000 C   0  0  0  0  0  0  0  0  0  0  0  0
   -0.0000  -76.5000    0.0000 C   0  0  0  0  0  0  0  0  0  0  0  0
   -0.0000  -78.0000    0.0000 C   0  0  0  0  0  0  0  0  0  0  0  0
   -0.0000  -79.5000    0.0000 C   0  0  0  0  0  0  0  0  0  0  0  0
   -0.0000  -81.0000    0.0000 C   0  0  0  0  0  0  0  0  0  0  0  0
   -0.0000  -82.5000    0.0000 C   0  0  0  0  0  0  0  0  0  0  0  0
   -0.0000  -84.0000    0.0000 C   0  0  0  0  0  0  0  0  0  0  0  0
   -0.0000  -85.5000    0.0000 C   0  0  0  0  0  0  0  0  0  0  0  0
   -0.0000  -87.0000    0.0000 C   0  0  0  0  0  0  0  0  0  0  0  0
   -0.0000  -88.5000    0.0000 C   0  0  0  0  0  0  0  0  0  0  0  0
   -0.0000  -90.0000    0.0000 C   0  0  0  0  0  0  0  0  0  0  0  0
   -0.0000  -91.5000    0.0000 C   0  0  0  0  0  0  0  0  0  0  0  0
   -0.0000  -93.0000    0.0000 C   0  0  0  0  0  0  0  0  0  0  0  0
   -0.0000  -94.5000    0.0000 C   0  0  0  0  0  0  0  0  0  0  0  0
   -0.0000  -96.0000    0.0000 C   0  0  0  0  0  0  0  0  0  0  0  0
   -0.0000  -97.5000    0.0000 C   0  0  0  0  0  0  0  0  0  0  0  0
   -0.0000  -99.0000    0.0000 C   0  0  0  0  0  0  0  0  0  0  0  0
   -0.0000 -100.5000    0.0000 C   0  0  0  0  0  0  0  0  0  0  0  0
   -0.0000 -102.0000    0.0000 C   0  0  0  0  0  0  0  0  0  0  0  0
   -0.0000 -103.5000    0.0000 C   0  0  0  0  0  0  0  0  0  0  0  0
   -0.0000 -105.0000    0.0000 C   0  0  0  0  0  0  0  0  0  0  0  0
   -0.0000 -106.5000    0.0000 C   0  0  0  0  0  0  0  0  0  0  0  0
   -0.0000 -108.0000    0.0000 C   0  0  0  0  0  0  0  0  0  0  0  0
   -0.0000 -109.5000    0.0000 C   0  0  0  0  0  0  0  0  0  0  0  0
   -0.0000 -111.0000    0.0000 C   0  0  0  0  0  0  0  0  0  0  0  0
   -0.0000 -112.5000    0.0000 C   0  0  0  0  0  0  0  0  0  0  0  0
   -0.0000 -114.0000    0.0000 C   0  0  0  0  0  0  0  0  0  0  0  0
   -0.0000 -115.5000    0.0000 C   0  0  0  0  0  0  0  0  0  0  0  0
   -0.0000 -117.0000    0.0000 C   0  0  0  0  0  0  0  0  0  0  0  0
   -0.0000 -118.5000    0.0000 C   0  0  0  0  0  0  0  0  0  0  0  0
   -0.0000 -120.0000    0.0000 C   0  0  0  0  0  0  0  0  0  0  0  0
   -0.0000 -121.5000    0.0000 C   0  0  0  0  0  0  0  0  0  0  0  0
  1  2  3  0
  2  3  1  0
  3  4  3  0
  4  5  1  0
  5  6  3  0
  6  7  1  0
  7  8  3  0
  8  9  1  0
  9 10  3  0
 10 11  1  0
 11 12  3  0
 12 13  1  0
 13 14  3  0
 14 15  1  0
 15 16  3  0
 16 17  1  0
 17 18  3  0
 18 19  1  0
 19 20  3  0
 20 21  1  0
 21 22  3  0
 22 23  1  0
 23 24  3  0
 24 25  1  0
 25 26  3  0
 26 27  1  0
 27 28  3  0
 28 29  1  0
 29 30  3  0
 30 31  1  0
 31 32  3  0
 32 33  1  0
 33 34  3  0
 34 35  1  0
 35 36  3  0
 36 37  1  0
 37 38  3  0
 38 39  1  0
 39 40  3  0
 40 41  1  0
 41 42  3  0
 42 43  1  0
 43 44  3  0
 44 45  1  0
 45 46  3  0
 46 47  1  0
 47 48  3  0
 48 49  1  0
 49 50  3  0
 50 51  1  0
 51 52  3  0
 52 53  1  0
 53 54  3  0
 54 55  1  0
 55 56  3  0
 56 57  1  0
 57 58  3  0
 58 59  1  0
 59 60  3  0
 60 61  1  0
 61 62  3  0
 62 63  1  0
 63 64  3  0
 64 65  1  0
 65 66  3  0
 66 67  1  0
 67 68  3  0
 68 69  1  0
 69 70  3  0
 70 71  1  0
 71 72  3  0
 72 73  1  0
 73 74  3  0
 74 75  1  0
 75 76  3  0
 76 77  1  0
 77 78  3  0
 78 79  1  0
 79 80  3  0
 80 81  1  0
 81 82  3  0
M  END
>  <Title>  (1180) 
idABRLgen13

$$$$

     RDKit          2D

 19 20  0  0  0  0  0  0  0  0999 V2000
   -6.3696   -9.4956    0.0000 C   0  0  0  0  0  0  0  0  0  0  0  0
   -4.9023   -9.1838    0.0000 C   0  0  0  0  0  0  0  0  0  0  0  0
   -4.4388   -7.7572    0.0000 C   0  0  0  0  0  0  0  0  0  0  0  0
   -2.9716   -7.4453    0.0000 C   0  0  0  0  0  0  0  0  0  0  0  0
   -2.5081   -6.0187    0.0000 C   0  0  0  0  0  0  0  0  0  0  0  0
   -1.0409   -5.7068    0.0000 C   0  0  0  0  0  0  0  0  0  0  0  0
   -0.0372   -6.8216    0.0000 O   0  0  0  0  0  0  0  0  0  0  0  0
   -0.5773   -4.2803    0.0000 N   0  0  0  0  0  0  0  0  0  0  0  0
    0.8899   -3.9684    0.0000 C   0  0  0  0  0  0  0  0  0  0  0  0
    2.0046   -4.9721    0.0000 N   0  0  0  0  0  0  0  0  0  0  0  0
    3.3037   -4.2221    0.0000 N   0  0  0  0  0  0  0  0  0  0  0  0
    2.9918   -2.7549    0.0000 N   0  0  0  0  0  0  0  0  0  0  0  0
    1.5000   -2.5981    0.0000 N   0  0  0  0  0  0  0  0  0  0  0  0
    0.7500   -1.2990    0.0000 C   0  0  0  0  0  0  0  0  0  0  0  0
    1.5000    0.0000    0.0000 C   0  0  0  0  0  0  0  0  0  0  0  0
    0.7500    1.2990    0.0000 C   0  0  0  0  0  0  0  0  0  0  0  0
   -0.7500    1.2990    0.0000 C   0  0  0  0  0  0  0  0  0  0  0  0
   -1.5000    0.0000    0.0000 C   0  0  0  0  0  0  0  0  0  0  0  0
   -0.7500   -1.2990    0.0000 C   0  0  0  0  0  0  0  0  0  0  0  0
  1  2  2  0
  2  3  1  0
  3  4  2  3
  4  5  1  0
  5  6  1  0
  6  7  2  0
  6  8  1  0
  8  9  1  0
  9 10  2  0
 10 11  1  0
 11 12  2  0
 12 13  1  0
 13 14  1  0
 14 15  2  0
 15 16  1  0
 16 17  2  0
 17 18  1  0
 18 19  2  0
 13  9  1  0
 19 14  1  0
M  END
>  <Title>  (1181) 
idABRMgen13

$$$$

     RDKit          2D

 17 16  0  0  0  0  0  0  0  0999 V2000
    0.0000    0.0000    0.0000 C   0  0  0  0  0  0  0  0  0  0  0  0
    1.2990    0.7500    0.0000 C   0  0  0  0  0  0  0  0  0  0  0  0
    2.5981   -0.0000    0.0000 C   0  0  0  0  0  0  0  0  0  0  0  0
    3.8971    0.7500    0.0000 C   0  0  0  0  0  0  0  0  0  0  0  0
    3.8971    2.2500    0.0000 O   0  0  0  0  0  0  0  0  0  0  0  0
    5.1962   -0.0000    0.0000 N   0  0  0  0  0  0  0  0  0  0  0  0
    6.4952    0.7500    0.0000 C   0  0  0  0  0  0  0  0  0  0  0  0
    6.4952    2.2500    0.0000 O   0  0  0  0  0  0  0  0  0  0  0  0
    7.7942   -0.0000    0.0000 C   0  0  0  0  0  0  0  0  0  0  0  0
    9.0933    0.7500    0.0000 C   0  0  0  0  0  0  0  0  0  0  0  0
   10.3923   -0.0000    0.0000 C   0  0  0  0  0  0  0  0  0  0  0  0
   10.3923   -1.5000    0.0000 O   0  0  0  0  0  0  0  0  0  0  0  0
   11.6913    0.7500    0.0000 C   0  0  0  0  0  0  0  0  0  0  0  0
   12.9904   -0.0000    0.0000 C   0  0  0  0  0  0  0  0  0  0  0  0
   14.2894    0.7500    0.0000 C   0  0  0  0  0  0  0  0  0  0  0  0
   15.5885   -0.0000    0.0000 C   0  0  0  0  0  0  0  0  0  0  0  0
   16.8875    0.7500    0.0000 C   0  0  0  0  0  0  0  0  0  0  0  0
  1  2  2  0
  2  3  1  0
  3  4  1  0
  4  5  2  0
  4  6  1  0
  6  7  1  0
  7  8  2  0
  7  9  1  0
  9 10  1  0
 10 11  1  0
 11 12  2  0
 11 13  1  0
 13 14  1  0
 14 15  1  0
 15 16  1  0
 16 17  1  0
M  END
>  <Title>  (1182) 
idABRNgen13

$$$$

     RDKit          2D

  8  8  0  0  0  0  0  0  0  0999 V2000
    3.0000    0.0000    0.0000 C   0  0  0  0  0  0  0  0  0  0  0  0
    1.5000    0.0000    0.0000 C   0  0  0  0  0  0  0  0  0  0  0  0
    0.7500   -1.2990    0.0000 C   0  0  0  0  0  0  0  0  0  0  0  0
   -0.7500   -1.2990    0.0000 C   0  0  0  0  0  0  0  0  0  0  0  0
   -1.5000   -2.5981    0.0000 O   0  0  0  0  0  0  0  0  0  0  0  0
   -1.5000    0.0000    0.0000 C   0  0  0  0  0  0  0  0  0  0  0  0
   -0.7500    1.2990    0.0000 C   0  0  0  0  0  0  0  0  0  0  0  0
    0.7500    1.2990    0.0000 C   0  0  0  0  0  0  0  0  0  0  0  0
  1  2  1  0
  2  3  2  0
  3  4  1  0
  4  5  1  0
  4  6  1  0
  6  7  1  0
  7  8  1  0
  8  2  1  0
M  END
>  <Title>  (1183) 
idABROgen13

$$$$

     RDKit          2D

 86 87  0  0  0  0  0  0  0  0999 V2000
   -2.1933   -1.0733    0.0000 C   0  0  0  0  0  0  0  0  0  0  0  0
   -2.4902    0.3970    0.0000 C   0  0  0  0  0  0  0  0  0  0  0  0
   -3.9708    0.1567    0.0000 C   0  0  0  0  0  0  0  0  0  0  0  0
   -5.4655    0.0304    0.0000 C   0  0  0  0  0  0  0  0  0  0  0  0
   -6.9654    0.0189    0.0000 C   0  0  0  0  0  0  0  0  0  0  0  0
   -8.4619    0.1223    0.0000 C   0  0  0  0  0  0  0  0  0  0  0  0
   -9.9460    0.3399    0.0000 C   0  0  0  0  0  0  0  0  0  0  0  0
  -11.4091    0.6705    0.0000 C   0  0  0  0  0  0  0  0  0  0  0  0
  -12.8426    1.1121    0.0000 C   0  0  0  0  0  0  0  0  0  0  0  0
  -14.2381    1.6621    0.0000 C   0  0  0  0  0  0  0  0  0  0  0  0
  -15.5874    2.3174    0.0000 C   0  0  0  0  0  0  0  0  0  0  0  0
  -16.8826    3.0740    0.0000 C   0  0  0  0  0  0  0  0  0  0  0  0
  -18.1161    3.9276    0.0000 C   0  0  0  0  0  0  0  0  0  0  0  0
  -19.2806    4.8731    0.0000 C   0  0  0  0  0  0  0  0  0  0  0  0
  -20.3693    5.9049    0.0000 C   0  0  0  0  0  0  0  0  0  0  0  0
  -21.3759    7.0170    0.0000 C   0  0  0  0  0  0  0  0  0  0  0  0
  -22.2943    8.2030    0.0000 C   0  0  0  0  0  0  0  0  0  0  0  0
  -23.1193    9.4557    0.0000 C   0  0  0  0  0  0  0  0  0  0  0  0
  -23.8460   10.7680    0.0000 C   0  0  0  0  0  0  0  0  0  0  0  0
  -24.4700   12.1320    0.0000 C   0  0  0  0  0  0  0  0  0  0  0  0
  -24.9879   13.5398    0.0000 C   0  0  0  0  0  0  0  0  0  0  0  0
  -25.3964   14.9831    0.0000 C   0  0  0  0  0  0  0  0  0  0  0  0
  -25.6933   16.4534    0.0000 C   0  0  0  0  0  0  0  0  0  0  0  0
  -25.8767   17.9421    0.0000 C   0  0  0  0  0  0  0  0  0  0  0  0
  -25.9456   19.4406    0.0000 C   0  0  0  0  0  0  0  0  0  0  0  0
  -25.8997   20.9399    0.0000 C   0  0  0  0  0  0  0  0  0  0  0  0
  -25.7391   22.4312    0.0000 C   0  0  0  0  0  0  0  0  0  0  0  0
  -25.4648   23.9059    0.0000 C   0  0  0  0  0  0  0  0  0  0  0  0
  -25.0784   25.3553    0.0000 C   0  0  0  0  0  0  0  0  0  0  0  0
  -24.5822   26.7709    0.0000 C   0  0  0  0  0  0  0  0  0  0  0  0
  -23.9791   28.1443    0.0000 C   0  0  0  0  0  0  0  0  0  0  0  0
  -23.2726   29.4675    0.0000 C   0  0  0  0  0  0  0  0  0  0  0  0
  -22.4670   30.7328    0.0000 C   0  0  0  0  0  0  0  0  0  0  0  0
  -21.5668   31.9326    0.0000 C   0  0  0  0  0  0  0  0  0  0  0  0
  -20.5774   33.0601    0.0000 C   0  0  0  0  0  0  0  0  0  0  0  0
  -19.5046   34.1085    0.0000 C   0  0  0  0  0  0  0  0  0  0  0  0
  -18.3547   35.0717    0.0000 C   0  0  0  0  0  0  0  0  0  0  0  0
  -17.1345   35.9440    0.0000 C   0  0  0  0  0  0  0  0  0  0  0  0
  -15.8511   36.7204    0.0000 C   0  0  0  0  0  0  0  0  0  0  0  0
  -14.5120   37.3963    0.0000 C   0  0  0  0  0  0  0  0  0  0  0  0
  -13.1250   37.9677    0.0000 C   0  0  0  0  0  0  0  0  0  0  0  0
  -11.6985   38.4312    0.0000 C   0  0  0  0  0  0  0  0  0  0  0  0
  -10.2406   38.7841    0.0000 C   0  0  0  0  0  0  0  0  0  0  0  0
   -8.7599   39.0245    0.0000 C   0  0  0  0  0  0  0  0  0  0  0  0
   -7.2653   39.1507    0.0000 C   0  0  0  0  0  0  0  0  0  0  0  0
   -5.7653   39.1622    0.0000 C   0  0  0  0  0  0  0  0  0  0  0  0
   -4.2689   39.0589    0.0000 C   0  0  0  0  0  0  0  0  0  0  0  0
   -2.7847   38.8413    0.0000 C   0  0  0  0  0  0  0  0  0  0  0  0
   -1.3216   38.5107    0.0000 C   0  0  0  0  0  0  0  0  0  0  0  0
    0.1119   38.0691    0.0000 C   0  0  0  0  0  0  0  0  0  0  0  0
    1.5074   37.5190    0.0000 C   0  0  0  0  0  0  0  0  0  0  0  0
    2.8567   36.8638    0.0000 C   0  0  0  0  0  0  0  0  0  0  0  0
    4.1519   36.1071    0.0000 C   0  0  0  0  0  0  0  0  0  0  0  0
    5.3854   35.2536    0.0000 C   0  0  0  0  0  0  0  0  0  0  0  0
    6.5499   34.3081    0.0000 C   0  0  0  0  0  0  0  0  0  0  0  0
    7.6386   33.2763    0.0000 C   0  0  0  0  0  0  0  0  0  0  0  0
    8.6451   32.1641    0.0000 C   0  0  0  0  0  0  0  0  0  0  0  0
    9.5636   30.9782    0.0000 C   0  0  0  0  0  0  0  0  0  0  0  0
   10.3886   29.7254    0.0000 C   0  0  0  0  0  0  0  0  0  0  0  0
   11.1152   28.4132    0.0000 C   0  0  0  0  0  0  0  0  0  0  0  0
   11.7393   27.0492    0.0000 C   0  0  0  0  0  0  0  0  0  0  0  0
   12.2571   25.6414    0.0000 C   0  0  0  0  0  0  0  0  0  0  0  0
   12.6657   24.1981    0.0000 C   0  0  0  0  0  0  0  0  0  0  0  0
   12.9625   22.7278    0.0000 C   0  0  0  0  0  0  0  0  0  0  0  0
   13.1460   21.2390    0.0000 C   0  0  0  0  0  0  0  0  0  0  0  0
   13.2149   19.7406    0.0000 C   0  0  0  0  0  0  0  0  0  0  0  0
   13.1689   18.2413    0.0000 C   0  0  0  0  0  0  0  0  0  0  0  0
   13.0083   16.7500    0.0000 C   0  0  0  0  0  0  0  0  0  0  0  0
   12.7340   15.2752    0.0000 C   0  0  0  0  0  0  0  0  0  0  0  0
   12.3477   13.8259    0.0000 C   0  0  0  0  0  0  0  0  0  0  0  0
   11.8515   12.4103    0.0000 C   0  0  0  0  0  0  0  0  0  0  0  0
   11.2484   11.0369    0.0000 C   0  0  0  0  0  0  0  0  0  0  0  0
   10.5419    9.7137    0.0000 C   0  0  0  0  0  0  0  0  0  0  0  0
    9.7362    8.4484    0.0000 C   0  0  0  0  0  0  0  0  0  0  0  0
    8.8361    7.2485    0.0000 C   0  0  0  0  0  0  0  0  0  0  0  0
    7.8467    6.1211    0.0000 C   0  0  0  0  0  0  0  0  0  0  0  0
    6.7739    5.0727    0.0000 C   0  0  0  0  0  0  0  0  0  0  0  0
    5.6240    4.1095    0.0000 C   0  0  0  0  0  0  0  0  0  0  0  0
    4.4038    3.2371    0.0000 C   0  0  0  0  0  0  0  0  0  0  0  0
    3.1203    2.4608    0.0000 C   0  0  0  0  0  0  0  0  0  0  0  0
    1.7812    1.7849    0.0000 C   0  0  0  0  0  0  0  0  0  0  0  0
    0.3943    1.2135    0.0000 C   0  0  0  0  0  0  0  0  0  0  0  0
    1.2760    0.0000    0.0000 C   0  0  0  0  0  0  0  0  0  0  0  0
    0.3943   -1.2135    0.0000 C   0  0  0  0  0  0  0  0  0  0  0  0
   -1.0323   -0.7500    0.0000 C   0  0  0  0  0  0  0  0  0  0  0  0
   -1.0323    0.7500    0.0000 C   0  0  0  0  0  0  0  0  0  0  0  0
  1  2  1  0
  2  3  1  0
  3  4  1  0
  4  5  1  0
  5  6  1  0
  6  7  1  0
  7  8  1  0
  8  9  1  0
  9 10  1  0
 10 11  1  0
 11 12  1  0
 12 13  1  0
 13 14  1  0
 14 15  1  0
 15 16  1  0
 16 17  1  0
 17 18  1  0
 18 19  1  0
 19 20  1  0
 20 21  1  0
 21 22  1  0
 22 23  1  0
 23 24  1  0
 24 25  1  0
 25 26  1  0
 26 27  1  0
 27 28  1  0
 28 29  1  0
 29 30  1  0
 30 31  1  0
 31 32  1  0
 32 33  1  0
 33 34  1  0
 34 35  1  0
 35 36  1  0
 36 37  1  0
 37 38  1  0
 38 39  1  0
 39 40  1  0
 40 41  1  0
 41 42  1  0
 42 43  1  0
 43 44  1  0
 44 45  1  0
 45 46  1  0
 46 47  1  0
 47 48  1  0
 48 49  1  0
 49 50  1  0
 50 51  1  0
 51 52  1  0
 52 53  1  0
 53 54  1  0
 54 55  1  0
 55 56  1  0
 56 57  1  0
 57 58  1  0
 58 59  1  0
 59 60  1  0
 60 61  1  0
 61 62  1  0
 62 63  1  0
 63 64  1  0
 64 65  1  0
 65 66  1  0
 66 67  1  0
 67 68  1  0
 68 69  1  0
 69 70  1  0
 70 71  1  0
 71 72  1  0
 72 73  1  0
 73 74  1  0
 74 75  1  0
 75 76  1  0
 76 77  1  0
 77 78  2  0
 78 79  1  0
 79 80  2  0
 80 81  1  0
 81 82  2  0
 82 83  1  0
 83 84  2  0
 84 85  1  0
 85 86  2  0
 86  2  1  0
 86 82  1  0
M  END
>  <Title>  (1184) 
idABRPgen13

$$$$

     RDKit          2D

 24 27  0  0  0  0  0  0  0  0999 V2000
  -11.8219   -5.4213    0.0000 C   0  0  0  0  0  0  0  0  0  0  0  0
  -10.3239   -5.3428    0.0000 C   0  0  0  0  0  0  0  0  0  0  0  0
   -9.5070   -6.6008    0.0000 C   0  0  0  0  0  0  0  0  0  0  0  0
   -8.0090   -6.5223    0.0000 C   0  0  0  0  0  0  0  0  0  0  0  0
   -7.1921   -7.7803    0.0000 C   0  0  0  0  0  0  0  0  0  0  0  0
   -7.8731   -9.1168    0.0000 O   0  0  0  0  0  0  0  0  0  0  0  0
   -5.6941   -7.7018    0.0000 N   0  0  0  0  0  0  0  0  0  0  0  0
   -4.5794   -8.7055    0.0000 C   0  0  0  0  0  0  0  0  0  0  0  0
   -3.5757   -7.5908    0.0000 C   0  0  0  0  0  0  0  0  0  0  0  0
   -2.1491   -7.1273    0.0000 C   0  0  0  0  0  0  0  0  0  0  0  0
   -1.8373   -5.6601    0.0000 C   0  0  0  0  0  0  0  0  0  0  0  0
   -2.9520   -4.6564    0.0000 C   0  0  0  0  0  0  0  0  0  0  0  0
   -2.6401   -3.1891    0.0000 C   0  0  0  0  0  0  0  0  0  0  0  0
   -1.2135   -2.7256    0.0000 N   0  0  0  0  0  0  0  0  0  0  0  0
   -0.0000   -3.6073    0.0000 C   0  0  0  0  0  0  0  0  0  0  0  0
    1.2135   -2.7256    0.0000 C   0  0  0  0  0  0  0  0  0  0  0  0
    0.7500   -1.2990    0.0000 C   0  0  0  0  0  0  0  0  0  0  0  0
    1.5000    0.0000    0.0000 C   0  0  0  0  0  0  0  0  0  0  0  0
    0.7500    1.2990    0.0000 C   0  0  0  0  0  0  0  0  0  0  0  0
   -0.7500    1.2990    0.0000 C   0  0  0  0  0  0  0  0  0  0  0  0
   -1.5000    0.0000    0.0000 C   0  0  0  0  0  0  0  0  0  0  0  0
   -0.7500   -1.2990    0.0000 N   0  0  0  0  0  0  0  0  0  0  0  0
   -4.3786   -5.1199    0.0000 C   0  0  0  0  0  0  0  0  0  0  0  0
   -4.6904   -6.5871    0.0000 C   0  0  0  0  0  0  0  0  0  0  0  0
  1  2  2  0
  2  3  1  0
  3  4  1  0
  4  5  1  0
  5  6  2  0
  5  7  1  0
  7  8  1  0
  8  9  1  0
  9 10  2  0
 10 11  1  0
 11 12  1  0
 12 13  1  0
 13 14  1  0
 14 15  1  0
 15 16  1  0
 16 17  1  0
 17 18  1  0
 18 19  1  0
 19 20  1  0
 20 21  1  0
 21 22  1  0
 12 23  1  0
 23 24  2  0
 24  7  1  0
 24  9  1  0
 22 14  1  0
 22 17  1  0
M  END
>  <Title>  (1185) 
idABRQgen13

$$$$

     RDKit          2D

 41 46  0  0  0  0  0  0  0  0999 V2000
   -3.1771   -5.9156    0.0000 C   0  0  0  0  0  0  0  0  0  0  0  0
   -1.9635   -5.0339    0.0000 C   0  0  0  0  0  0  0  0  0  0  0  0
   -0.7500   -5.9156    0.0000 C   0  0  0  0  0  0  0  0  0  0  0  0
    0.7500   -5.9156    0.0000 C   0  0  0  0  0  0  0  0  0  0  0  0
    1.9635   -5.0339    0.0000 C   0  0  0  0  0  0  0  0  0  0  0  0
    2.4271   -3.6073    0.0000 C   0  0  0  0  0  0  0  0  0  0  0  0
    1.9635   -2.1807    0.0000 C   0  0  0  0  0  0  0  0  0  0  0  0
    3.1771   -1.2990    0.0000 C   0  0  0  0  0  0  0  0  0  0  0  0
    3.0203    0.1927    0.0000 O   0  0  0  0  0  0  0  0  0  0  0  0
    4.5474   -1.9091    0.0000 N   0  0  0  0  0  0  0  0  0  0  0  0
    5.7609   -1.0275    0.0000 C   0  0  0  0  0  0  0  0  0  0  0  0
    5.7609    0.4725    0.0000 N   0  0  0  0  0  0  0  0  0  0  0  0
    7.1875    0.9361    0.0000 N   0  0  0  0  0  0  0  0  0  0  0  0
    8.0692   -0.2775    0.0000 N   0  0  0  0  0  0  0  0  0  0  0  0
    7.1875   -1.4910    0.0000 N   0  0  0  0  0  0  0  0  0  0  0  0
    7.6510   -2.9176    0.0000 C   0  0  0  0  0  0  0  0  0  0  0  0
    9.0776   -3.3811    0.0000 C   0  0  0  0  0  0  0  0  0  0  0  0
    9.0776   -4.8811    0.0000 C   0  0  0  0  0  0  0  0  0  0  0  0
    7.6510   -5.3446    0.0000 C   0  0  0  0  0  0  0  0  0  0  0  0
    7.1875   -6.7712    0.0000 N   0  0  0  0  0  0  0  0  0  0  0  0
    5.7203   -7.0831    0.0000 C   0  0  0  0  0  0  0  0  0  0  0  0
    4.7166   -5.9684    0.0000 O   0  0  0  0  0  0  0  0  0  0  0  0
    5.2567   -8.5097    0.0000 C   0  0  0  0  0  0  0  0  0  0  0  0
    6.1384   -9.7232    0.0000 C   0  0  0  0  0  0  0  0  0  0  0  0
    5.2567  -10.9367    0.0000 C   0  0  0  0  0  0  0  0  0  0  0  0
    3.8301  -10.4732    0.0000 C   0  0  0  0  0  0  0  0  0  0  0  0
    3.8301   -8.9732    0.0000 C   0  0  0  0  0  0  0  0  0  0  0  0
    6.7693   -4.1311    0.0000 C   0  0  0  0  0  0  0  0  0  0  0  0
    5.2693   -4.1311    0.0000 O   0  0  0  0  0  0  0  0  0  0  0  0
    0.7500   -1.2990    0.0000 C   0  0  0  0  0  0  0  0  0  0  0  0
    1.5000    0.0000    0.0000 C   0  0  0  0  0  0  0  0  0  0  0  0
    0.7500    1.2990    0.0000 C   0  0  0  0  0  0  0  0  0  0  0  0
   -0.7500    1.2990    0.0000 C   0  0  0  0  0  0  0  0  0  0  0  0
   -1.5000    0.0000    0.0000 C   0  0  0  0  0  0  0  0  0  0  0  0
   -0.7500   -1.2990    0.0000 C   0  0  0  0  0  0  0  0  0  0  0  0
   -1.9635   -2.1807    0.0000 C   0  0  0  0  0  0  0  0  0  0  0  0
   -2.9672   -1.0660    0.0000 C   0  0  0  0  0  0  0  0  0  0  0  0
   -4.4344   -1.3779    0.0000 C   0  0  0  0  0  0  0  0  0  0  0  0
   -4.8980   -2.8045    0.0000 C   0  0  0  0  0  0  0  0  0  0  0  0
   -3.8943   -3.9192    0.0000 C   0  0  0  0  0  0  0  0  0  0  0  0
   -2.4271   -3.6073    0.0000 C   0  0  0  0  0  0  0  0  0  0  0  0
  1  2  1  0
  2  3  1  0
  3  4  1  0
  4  5  1  0
  5  6  1  0
  6  7  1  0
  7  8  1  0
  8  9  2  0
  8 10  1  0
 10 11  1  0
 11 12  2  0
 12 13  1  0
 13 14  2  0
 14 15  1  0
 15 16  1  0
 16 17  2  0
 17 18  1  0
 18 19  2  0
 19 20  1  0
 20 21  1  0
 21 22  2  0
 21 23  1  0
 23 24  1  0
 24 25  2  0
 25 26  1  0
 26 27  2  0
 19 28  1  0
 28 29  2  0
  7 30  1  0
 30 31  2  0
 31 32  1  0
 32 33  2  0
 33 34  1  0
 34 35  2  0
 35 36  1  0
 36 37  2  0
 37 38  1  0
 38 39  2  0
 39 40  1  0
 40 41  2  0
 41  2  1  0
 15 11  1  0
 28 16  1  0
 35 30  1  0
 41 36  1  0
 27 23  1  0
M  END
>  <Title>  (1186) 
idABRRgen13

$$$$

     RDKit          2D

  8  7  0  0  0  0  0  0  0  0999 V2000
    0.0000    0.0000    0.0000 C   0  0  0  0  0  0  0  0  0  0  0  0
    1.2990    0.7500    0.0000 C   0  0  0  0  0  0  0  0  0  0  0  0
    2.5981   -0.0000    0.0000 C   0  0  0  0  0  0  0  0  0  0  0  0
    3.8971    0.7500    0.0000 C   0  0  0  0  0  0  0  0  0  0  0  0
    5.1962   -0.0000    0.0000 C   0  0  0  0  0  0  0  0  0  0  0  0
    6.4952    0.7500    0.0000 C   0  0  0  0  0  0  0  0  0  0  0  0
    5.1962   -1.5000    0.0000 C   0  0  0  0  0  0  0  0  0  0  0  0
    6.4952   -2.2500    0.0000 O   0  0  0  0  0  0  0  0  0  0  0  0
  1  2  2  0
  2  3  1  0
  3  4  1  0
  4  5  1  0
  5  6  1  0
  5  7  1  0
  7  8  1  0
M  END
>  <Title>  (1187) 
idABRSgen13

$$$$

     RDKit          2D

 43 48  0  0  0  0  0  0  0  0999 V2000
   -3.1771   -5.9156    0.0000 C   0  0  0  0  0  0  0  0  0  0  0  0
   -1.9635   -5.0339    0.0000 C   0  0  0  0  0  0  0  0  0  0  0  0
   -0.7500   -5.9156    0.0000 C   0  0  0  0  0  0  0  0  0  0  0  0
    0.7500   -5.9156    0.0000 C   0  0  0  0  0  0  0  0  0  0  0  0
    1.9635   -5.0339    0.0000 C   0  0  0  0  0  0  0  0  0  0  0  0
    3.1771   -5.9156    0.0000 C   0  0  0  0  0  0  0  0  0  0  0  0
    4.5474   -5.3055    0.0000 O   0  0  0  0  0  0  0  0  0  0  0  0
    3.0203   -7.4073    0.0000 N   0  0  0  0  0  0  0  0  0  0  0  0
    4.2338   -8.2890    0.0000 C   0  0  0  0  0  0  0  0  0  0  0  0
    5.6604   -7.8255    0.0000 N   0  0  0  0  0  0  0  0  0  0  0  0
    6.5420   -9.0390    0.0000 N   0  0  0  0  0  0  0  0  0  0  0  0
    5.6604  -10.2525    0.0000 N   0  0  0  0  0  0  0  0  0  0  0  0
    4.2338   -9.7890    0.0000 N   0  0  0  0  0  0  0  0  0  0  0  0
    3.0203  -10.6707    0.0000 N   0  0  0  0  0  0  0  0  0  0  0  0
    3.0203  -12.1707    0.0000 C   0  0  0  0  0  0  0  0  0  0  0  0
    1.5937  -12.6342    0.0000 C   0  0  0  0  0  0  0  0  0  0  0  0
    0.7120  -11.4207    0.0000 N   0  0  0  0  0  0  0  0  0  0  0  0
   -0.7880  -11.4207    0.0000 C   0  0  0  0  0  0  0  0  0  0  0  0
   -1.5380  -12.7197    0.0000 O   0  0  0  0  0  0  0  0  0  0  0  0
   -1.5380  -10.1217    0.0000 N   0  0  0  0  0  0  0  0  0  0  0  0
   -3.0380  -10.1217    0.0000 C   0  0  0  0  0  0  0  0  0  0  0  0
   -3.7880   -8.8226    0.0000 N   0  0  0  0  0  0  0  0  0  0  0  0
   -5.2880   -8.8226    0.0000 N   0  0  0  0  0  0  0  0  0  0  0  0
   -6.0380  -10.1217    0.0000 N   0  0  0  0  0  0  0  0  0  0  0  0
   -5.2880  -11.4207    0.0000 N   0  0  0  0  0  0  0  0  0  0  0  0
   -3.7880  -11.4207    0.0000 N   0  0  0  0  0  0  0  0  0  0  0  0
    1.5937  -10.2072    0.0000 C   0  0  0  0  0  0  0  0  0  0  0  0
    1.1301   -8.7806    0.0000 O   0  0  0  0  0  0  0  0  0  0  0  0
    2.4271   -3.6073    0.0000 C   0  0  0  0  0  0  0  0  0  0  0  0
    3.9271   -3.6073    0.0000 O   0  0  0  0  0  0  0  0  0  0  0  0
    1.9635   -2.1807    0.0000 O   0  0  0  0  0  0  0  0  0  0  0  0
    0.7500   -1.2990    0.0000 C   0  0  0  0  0  0  0  0  0  0  0  0
    1.5000    0.0000    0.0000 C   0  0  0  0  0  0  0  0  0  0  0  0
    0.7500    1.2990    0.0000 C   0  0  0  0  0  0  0  0  0  0  0  0
   -0.7500    1.2990    0.0000 C   0  0  0  0  0  0  0  0  0  0  0  0
   -1.5000    0.0000    0.0000 C   0  0  0  0  0  0  0  0  0  0  0  0
   -0.7500   -1.2990    0.0000 C   0  0  0  0  0  0  0  0  0  0  0  0
   -1.9635   -2.1807    0.0000 C   0  0  0  0  0  0  0  0  0  0  0  0
   -2.9672   -1.0660    0.0000 C   0  0  0  0  0  0  0  0  0  0  0  0
   -4.4344   -1.3779    0.0000 C   0  0  0  0  0  0  0  0  0  0  0  0
   -4.8980   -2.8045    0.0000 C   0  0  0  0  0  0  0  0  0  0  0  0
   -3.8943   -3.9192    0.0000 C   0  0  0  0  0  0  0  0  0  0  0  0
   -2.4271   -3.6073    0.0000 C   0  0  0  0  0  0  0  0  0  0  0  0
  1  2  1  0
  2  3  1  0
  3  4  2  0
  4  5  1  0
  5  6  1  0
  6  7  2  0
  6  8  1  0
  8  9  1  0
  9 10  2  0
 10 11  1  0
 11 12  2  0
 12 13  1  0
 13 14  1  0
 14 15  1  0
 15 16  1  0
 16 17  1  0
 17 18  1  0
 18 19  2  0
 18 20  1  0
 20 21  1  0
 21 22  2  0
 22 23  1  0
 23 24  2  0
 24 25  1  0
 25 26  2  0
 17 27  1  0
 27 28  2  0
  5 29  1  0
 29 30  2  0
 29 31  1  0
 31 32  1  0
 32 33  2  0
 33 34  1  0
 34 35  2  0
 35 36  1  0
 36 37  2  0
 37 38  1  0
 38 39  2  0
 39 40  1  0
 40 41  2  0
 41 42  1  0
 42 43  2  0
 43  2  1  0
 13  9  1  0
 27 14  1  0
 37 32  1  0
 43 38  1  0
 26 21  1  0
M  END
>  <Title>  (1188) 
idABRTgen13

$$$$

     RDKit          2D

 45 50  0  0  0  0  0  0  0  0999 V2000
   -4.0350    6.5512    0.0000 C   0  0  0  0  0  0  0  0  0  0  0  0
   -4.4985    5.1246    0.0000 C   0  0  0  0  0  0  0  0  0  0  0  0
   -4.9620    3.6981    0.0000 C   0  0  0  0  0  0  0  0  0  0  0  0
   -3.9583    2.5833    0.0000 C   0  0  0  0  0  0  0  0  0  0  0  0
   -4.4218    1.1568    0.0000 C   0  0  0  0  0  0  0  0  0  0  0  0
   -5.8891    0.8449    0.0000 O   0  0  0  0  0  0  0  0  0  0  0  0
   -3.4182    0.0420    0.0000 N   0  0  0  0  0  0  0  0  0  0  0  0
   -3.8817   -1.3846    0.0000 C   0  0  0  0  0  0  0  0  0  0  0  0
   -5.3083   -1.8481    0.0000 C   0  0  0  0  0  0  0  0  0  0  0  0
   -5.3083   -3.3481    0.0000 N   0  0  0  0  0  0  0  0  0  0  0  0
   -3.8817   -3.8116    0.0000 N   0  0  0  0  0  0  0  0  0  0  0  0
   -3.0000   -2.5981    0.0000 N   0  0  0  0  0  0  0  0  0  0  0  0
   -1.5000   -2.5981    0.0000 C   0  0  0  0  0  0  0  0  0  0  0  0
   -0.7500   -3.8971    0.0000 C   0  0  0  0  0  0  0  0  0  0  0  0
    0.7500   -3.8971    0.0000 C   0  0  0  0  0  0  0  0  0  0  0  0
    1.5000   -2.5981    0.0000 C   0  0  0  0  0  0  0  0  0  0  0  0
    3.0000   -2.5981    0.0000 C   0  0  0  0  0  0  0  0  0  0  0  0
    3.7500   -1.2990    0.0000 O   0  0  0  0  0  0  0  0  0  0  0  0
    3.7500   -3.8971    0.0000 N   0  0  0  0  0  0  0  0  0  0  0  0
    5.2500   -3.8971    0.0000 C   0  0  0  0  0  0  0  0  0  0  0  0
    6.1317   -2.6836    0.0000 N   0  0  0  0  0  0  0  0  0  0  0  0
    7.5583   -3.1471    0.0000 N   0  0  0  0  0  0  0  0  0  0  0  0
    7.5583   -4.6471    0.0000 N   0  0  0  0  0  0  0  0  0  0  0  0
    6.1317   -5.1106    0.0000 N   0  0  0  0  0  0  0  0  0  0  0  0
    5.6682   -6.5372    0.0000 N   0  0  0  0  0  0  0  0  0  0  0  0
    6.5498   -7.7508    0.0000 C   0  0  0  0  0  0  0  0  0  0  0  0
    5.6682   -8.9643    0.0000 C   0  0  0  0  0  0  0  0  0  0  0  0
    4.2416   -8.5008    0.0000 C   0  0  0  0  0  0  0  0  0  0  0  0
    3.0280   -9.3824    0.0000 C   0  0  0  0  0  0  0  0  0  0  0  0
    3.1848  -10.8742    0.0000 O   0  0  0  0  0  0  0  0  0  0  0  0
    1.6577   -8.7723    0.0000 N   0  0  0  0  0  0  0  0  0  0  0  0
    0.4442   -9.6540    0.0000 C   0  0  0  0  0  0  0  0  0  0  0  0
   -0.9261   -9.0439    0.0000 N   0  0  0  0  0  0  0  0  0  0  0  0
   -2.1396   -9.9256    0.0000 N   0  0  0  0  0  0  0  0  0  0  0  0
   -1.9829  -11.4174    0.0000 N   0  0  0  0  0  0  0  0  0  0  0  0
   -0.6125  -12.0275    0.0000 N   0  0  0  0  0  0  0  0  0  0  0  0
    0.6010  -11.1458    0.0000 N   0  0  0  0  0  0  0  0  0  0  0  0
    4.2416   -7.0008    0.0000 C   0  0  0  0  0  0  0  0  0  0  0  0
    3.0280   -6.1191    0.0000 O   0  0  0  0  0  0  0  0  0  0  0  0
    0.7500   -1.2990    0.0000 C   0  0  0  0  0  0  0  0  0  0  0  0
    1.5000    0.0000    0.0000 C   0  0  0  0  0  0  0  0  0  0  0  0
    0.7500    1.2990    0.0000 C   0  0  0  0  0  0  0  0  0  0  0  0
   -0.7500    1.2990    0.0000 C   0  0  0  0  0  0  0  0  0  0  0  0
   -1.5000    0.0000    0.0000 C   0  0  0  0  0  0  0  0  0  0  0  0
   -0.7500   -1.2990    0.0000 C   0  0  0  0  0  0  0  0  0  0  0  0
  1  2  3  0
  2  3  1  0
  3  4  1  0
  4  5  1  0
  5  6  2  0
  5  7  1  0
  7  8  1  0
  8  9  2  0
  9 10  1  0
 10 11  2  0
 11 12  1  0
 12 13  1  0
 13 14  2  0
 14 15  1  0
 15 16  2  0
 16 17  1  0
 17 18  2  0
 17 19  1  0
 19 20  1  0
 20 21  2  0
 21 22  1  0
 22 23  2  0
 23 24  1  0
 24 25  1  0
 25 26  1  0
 26 27  1  0
 27 28  1  0
 28 29  1  0
 29 30  2  0
 29 31  1  0
 31 32  1  0
 32 33  2  0
 33 34  1  0
 34 35  2  0
 35 36  1  0
 36 37  2  0
 28 38  1  0
 38 39  2  0
 16 40  1  0
 40 41  2  0
 41 42  1  0
 42 43  2  0
 43 44  1  0
 44 45  2  0
 12  8  1  0
 45 13  1  0
 24 20  1  0
 38 25  1  0
 45 40  1  0
 37 32  1  0
M  END
>  <Title>  (1189) 
idABRUgen13

$$$$

     RDKit          2D

 44 49  0  0  0  0  0  0  0  0999 V2000
   -3.1981   -1.5132    0.0000 C   0  0  0  0  0  0  0  0  0  0  0  0
   -1.8991   -2.2632    0.0000 C   0  0  0  0  0  0  0  0  0  0  0  0
   -2.1595   -3.7404    0.0000 C   0  0  0  0  0  0  0  0  0  0  0  0
   -1.4095   -5.0395    0.0000 C   0  0  0  0  0  0  0  0  0  0  0  0
   -0.0000   -5.5525    0.0000 C   0  0  0  0  0  0  0  0  0  0  0  0
    1.4095   -5.0395    0.0000 C   0  0  0  0  0  0  0  0  0  0  0  0
    2.1595   -3.7404    0.0000 C   0  0  0  0  0  0  0  0  0  0  0  0
    1.8991   -2.2632    0.0000 C   0  0  0  0  0  0  0  0  0  0  0  0
    3.1981   -1.5132    0.0000 C   0  0  0  0  0  0  0  0  0  0  0  0
    3.1981   -0.0132    0.0000 O   0  0  0  0  0  0  0  0  0  0  0  0
    4.4971   -2.2632    0.0000 N   0  0  0  0  0  0  0  0  0  0  0  0
    5.7962   -1.5132    0.0000 C   0  0  0  0  0  0  0  0  0  0  0  0
    5.9530   -0.0214    0.0000 N   0  0  0  0  0  0  0  0  0  0  0  0
    7.4202    0.2904    0.0000 N   0  0  0  0  0  0  0  0  0  0  0  0
    8.1702   -1.0086    0.0000 N   0  0  0  0  0  0  0  0  0  0  0  0
    7.1665   -2.1233    0.0000 N   0  0  0  0  0  0  0  0  0  0  0  0
    7.4784   -3.5905    0.0000 C   0  0  0  0  0  0  0  0  0  0  0  0
    6.3636   -4.5942    0.0000 C   0  0  0  0  0  0  0  0  0  0  0  0
    6.6755   -6.0615    0.0000 C   0  0  0  0  0  0  0  0  0  0  0  0
    8.1021   -6.5250    0.0000 C   0  0  0  0  0  0  0  0  0  0  0  0
    8.4140   -7.9922    0.0000 O   0  0  0  0  0  0  0  0  0  0  0  0
    9.2168   -5.5213    0.0000 C   0  0  0  0  0  0  0  0  0  0  0  0
    8.9050   -4.0541    0.0000 C   0  0  0  0  0  0  0  0  0  0  0  0
   10.0197   -3.0504    0.0000 C   0  0  0  0  0  0  0  0  0  0  0  0
    9.8629   -1.5586    0.0000 C   0  0  0  0  0  0  0  0  0  0  0  0
   11.2332   -0.9485    0.0000 C   0  0  0  0  0  0  0  0  0  0  0  0
   12.2369   -2.0632    0.0000 C   0  0  0  0  0  0  0  0  0  0  0  0
   13.7287   -1.9064    0.0000 C   0  0  0  0  0  0  0  0  0  0  0  0
   14.3388   -0.5361    0.0000 O   0  0  0  0  0  0  0  0  0  0  0  0
   14.6104   -3.1199    0.0000 N   0  0  0  0  0  0  0  0  0  0  0  0
   16.1021   -2.9631    0.0000 C   0  0  0  0  0  0  0  0  0  0  0  0
   16.9838   -4.1767    0.0000 N   0  0  0  0  0  0  0  0  0  0  0  0
   18.4756   -4.0199    0.0000 N   0  0  0  0  0  0  0  0  0  0  0  0
   19.0857   -2.6496    0.0000 N   0  0  0  0  0  0  0  0  0  0  0  0
   18.2040   -1.4360    0.0000 N   0  0  0  0  0  0  0  0  0  0  0  0
   16.7122   -1.5928    0.0000 N   0  0  0  0  0  0  0  0  0  0  0  0
   11.4869   -3.3622    0.0000 C   0  0  0  0  0  0  0  0  0  0  0  0
   12.0970   -4.7326    0.0000 O   0  0  0  0  0  0  0  0  0  0  0  0
    0.7500   -1.2990    0.0000 C   0  0  0  0  0  0  0  0  0  0  0  0
    1.5000    0.0000    0.0000 C   0  0  0  0  0  0  0  0  0  0  0  0
    0.7500    1.2990    0.0000 C   0  0  0  0  0  0  0  0  0  0  0  0
   -0.7500    1.2990    0.0000 C   0  0  0  0  0  0  0  0  0  0  0  0
   -1.5000    0.0000    0.0000 C   0  0  0  0  0  0  0  0  0  0  0  0
   -0.7500   -1.2990    0.0000 C   0  0  0  0  0  0  0  0  0  0  0  0
  1  2  1  0
  2  3  1  0
  3  4  1  0
  4  5  1  0
  5  6  1  0
  6  7  1  0
  7  8  1  0
  8  9  1  0
  9 10  2  0
  9 11  1  0
 11 12  1  0
 12 13  2  0
 13 14  1  0
 14 15  2  0
 15 16  1  0
 16 17  1  0
 17 18  2  0
 18 19  1  0
 19 20  2  0
 20 21  1  0
 20 22  1  0
 22 23  2  0
 23 24  1  0
 24 25  2  0
 25 26  1  0
 26 27  2  0
 27 28  1  0
 28 29  2  0
 28 30  1  0
 30 31  1  0
 31 32  2  0
 32 33  1  0
 33 34  2  0
 34 35  1  0
 35 36  2  0
 27 37  1  0
 37 38  2  0
  8 39  1  0
 39 40  2  0
 40 41  1  0
 41 42  2  0
 42 43  1  0
 43 44  2  0
 44  2  1  0
 16 12  1  0
 23 17  1  0
 37 24  1  0
 44 39  1  0
 36 31  1  0
M  END
>  <Title>  (1190) 
idABRVgen13

$$$$

     RDKit          2D

 26 26  0  0  0  0  0  0  0  0999 V2000
   31.5000    0.0000    0.0000 C   0  0  0  0  0  0  0  0  0  0  0  0
   30.0000    0.0000    0.0000 C   0  0  0  0  0  0  0  0  0  0  0  0
   28.5000    0.0000    0.0000 C   0  0  0  0  0  0  0  0  0  0  0  0
   27.0000    0.0000    0.0000 C   0  0  0  0  0  0  0  0  0  0  0  0
   25.5000    0.0000    0.0000 C   0  0  0  0  0  0  0  0  0  0  0  0
   24.0000    0.0000    0.0000 C   0  0  0  0  0  0  0  0  0  0  0  0
   22.5000    0.0000    0.0000 C   0  0  0  0  0  0  0  0  0  0  0  0
   21.0000    0.0000    0.0000 C   0  0  0  0  0  0  0  0  0  0  0  0
   19.5000    0.0000    0.0000 C   0  0  0  0  0  0  0  0  0  0  0  0
   18.0000    0.0000    0.0000 C   0  0  0  0  0  0  0  0  0  0  0  0
   16.5000    0.0000    0.0000 C   0  0  0  0  0  0  0  0  0  0  0  0
   15.0000    0.0000    0.0000 C   0  0  0  0  0  0  0  0  0  0  0  0
   13.5000    0.0000    0.0000 C   0  0  0  0  0  0  0  0  0  0  0  0
   12.0000    0.0000    0.0000 C   0  0  0  0  0  0  0  0  0  0  0  0
   10.5000    0.0000    0.0000 C   0  0  0  0  0  0  0  0  0  0  0  0
    9.0000    0.0000    0.0000 C   0  0  0  0  0  0  0  0  0  0  0  0
    7.5000    0.0000    0.0000 C   0  0  0  0  0  0  0  0  0  0  0  0
    6.0000    0.0000    0.0000 C   0  0  0  0  0  0  0  0  0  0  0  0
    4.5000    0.0000    0.0000 C   0  0  0  0  0  0  0  0  0  0  0  0
    3.0000    0.0000    0.0000 C   0  0  0  0  0  0  0  0  0  0  0  0
    1.5000    0.0000    0.0000 C   0  0  0  0  0  0  0  0  0  0  0  0
    0.7500   -1.2990    0.0000 C   0  0  0  0  0  0  0  0  0  0  0  0
   -0.7500   -1.2990    0.0000 C   0  0  0  0  0  0  0  0  0  0  0  0
   -1.5000    0.0000    0.0000 C   0  0  0  0  0  0  0  0  0  0  0  0
   -0.7500    1.2990    0.0000 C   0  0  0  0  0  0  0  0  0  0  0  0
    0.7500    1.2990    0.0000 C   0  0  0  0  0  0  0  0  0  0  0  0
  1  2  3  0
  2  3  1  0
  3  4  3  0
  4  5  1  0
  5  6  3  0
  6  7  1  0
  7  8  3  0
  8  9  1  0
  9 10  3  0
 10 11  1  0
 11 12  3  0
 12 13  1  0
 13 14  3  0
 14 15  1  0
 15 16  3  0
 16 17  1  0
 17 18  3  0
 18 19  1  0
 19 20  3  0
 20 21  1  0
 21 22  2  0
 22 23  1  0
 23 24  2  0
 24 25  1  0
 25 26  2  0
 26 21  1  0
M  END
>  <Title>  (1191) 
idABRWgen13

$$$$

     RDKit          2D

 22 21  0  0  0  0  0  0  0  0999 V2000
    0.0000    0.0000    0.0000 C   0  0  0  0  0  0  0  0  0  0  0  0
   -0.0000   -1.5000    0.0000 C   0  0  0  0  0  0  0  0  0  0  0  0
   -0.0000   -3.0000    0.0000 C   0  0  0  0  0  0  0  0  0  0  0  0
   -0.0000   -4.5000    0.0000 C   0  0  0  0  0  0  0  0  0  0  0  0
   -0.0000   -6.0000    0.0000 C   0  0  0  0  0  0  0  0  0  0  0  0
   -0.0000   -7.5000    0.0000 C   0  0  0  0  0  0  0  0  0  0  0  0
   -0.0000   -9.0000    0.0000 C   0  0  0  0  0  0  0  0  0  0  0  0
   -0.0000  -10.5000    0.0000 C   0  0  0  0  0  0  0  0  0  0  0  0
   -0.0000  -12.0000    0.0000 C   0  0  0  0  0  0  0  0  0  0  0  0
   -0.0000  -13.5000    0.0000 C   0  0  0  0  0  0  0  0  0  0  0  0
   -0.0000  -15.0000    0.0000 C   0  0  0  0  0  0  0  0  0  0  0  0
   -0.0000  -16.5000    0.0000 C   0  0  0  0  0  0  0  0  0  0  0  0
   -0.0000  -18.0000    0.0000 C   0  0  0  0  0  0  0  0  0  0  0  0
   -0.0000  -19.5000    0.0000 C   0  0  0  0  0  0  0  0  0  0  0  0
   -0.0000  -21.0000    0.0000 C   0  0  0  0  0  0  0  0  0  0  0  0
   -0.0000  -22.5000    0.0000 C   0  0  0  0  0  0  0  0  0  0  0  0
   -0.0000  -24.0000    0.0000 C   0  0  0  0  0  0  0  0  0  0  0  0
   -0.0000  -25.5000    0.0000 C   0  0  0  0  0  0  0  0  0  0  0  0
   -0.0000  -27.0000    0.0000 C   0  0  0  0  0  0  0  0  0  0  0  0
   -0.0000  -28.5000    0.0000 C   0  0  0  0  0  0  0  0  0  0  0  0
   -0.0000  -30.0000    0.0000 C   0  0  0  0  0  0  0  0  0  0  0  0
   -0.0000  -31.5000    0.0000 C   0  0  0  0  0  0  0  0  0  0  0  0
  1  2  3  0
  2  3  1  0
  3  4  3  0
  4  5  1  0
  5  6  3  0
  6  7  1  0
  7  8  3  0
  8  9  1  0
  9 10  3  0
 10 11  1  0
 11 12  3  0
 12 13  1  0
 13 14  3  0
 14 15  1  0
 15 16  3  0
 16 17  1  0
 17 18  3  0
 18 19  1  0
 19 20  3  0
 20 21  1  0
 21 22  3  0
M  END
>  <Title>  (1192) 
idABRXgen13

$$$$

     RDKit          2D

  6  6  0  0  0  0  0  0  0  0999 V2000
    2.7760    0.0000    0.0000 C   0  0  0  0  0  0  0  0  0  0  0  0
    1.2760    0.0000    0.0000 C   0  0  0  0  0  0  0  0  0  0  0  0
    0.3943    1.2135    0.0000 C   0  0  0  0  0  0  0  0  0  0  0  0
   -1.0323    0.7500    0.0000 C   0  0  0  0  0  0  0  0  0  0  0  0
   -1.0323   -0.7500    0.0000 C   0  0  0  0  0  0  0  0  0  0  0  0
    0.3943   -1.2135    0.0000 N   0  0  0  0  0  0  0  0  0  0  0  0
  1  2  1  0
  2  3  1  0
  3  4  1  0
  4  5  1  0
  5  6  1  0
  6  2  1  0
M  END
>  <Title>  (1193) 
idABRYgen13

$$$$

     RDKit          2D

 35 39  0  0  0  0  0  0  0  0999 V2000
   -3.1476   -2.1380    0.0000 C   0  0  0  0  0  0  0  0  0  0  0  0
   -1.6852   -2.4718    0.0000 C   0  0  0  0  0  0  0  0  0  0  0  0
   -1.3515   -3.9342    0.0000 C   0  0  0  0  0  0  0  0  0  0  0  0
   -0.0000   -4.5850    0.0000 C   0  0  0  0  0  0  0  0  0  0  0  0
    1.3515   -3.9342    0.0000 C   0  0  0  0  0  0  0  0  0  0  0  0
    1.6852   -2.4718    0.0000 C   0  0  0  0  0  0  0  0  0  0  0  0
    3.1476   -2.1380    0.0000 N   0  0  0  0  0  0  0  0  0  0  0  0
    3.4814   -0.6756    0.0000 C   0  0  0  0  0  0  0  0  0  0  0  0
    4.8329   -0.0248    0.0000 C   0  0  0  0  0  0  0  0  0  0  0  0
    6.1843   -0.6756    0.0000 N   0  0  0  0  0  0  0  0  0  0  0  0
    6.5181   -2.1380    0.0000 N   0  0  0  0  0  0  0  0  0  0  0  0
    5.5829   -3.3108    0.0000 N   0  0  0  0  0  0  0  0  0  0  0  0
    4.0829   -3.3108    0.0000 N   0  0  0  0  0  0  0  0  0  0  0  0
    3.4320   -4.6622    0.0000 C   0  0  0  0  0  0  0  0  0  0  0  0
    1.9561   -4.9300    0.0000 C   0  0  0  0  0  0  0  0  0  0  0  0
    1.7548   -6.4165    0.0000 C   0  0  0  0  0  0  0  0  0  0  0  0
    3.1062   -7.0673    0.0000 C   0  0  0  0  0  0  0  0  0  0  0  0
    3.3741   -8.5432    0.0000 O   0  0  0  0  0  0  0  0  0  0  0  0
    2.2298   -9.5131    0.0000 C   0  0  0  0  0  0  0  0  0  0  0  0
    0.8178   -9.0071    0.0000 O   0  0  0  0  0  0  0  0  0  0  0  0
    2.4977  -10.9890    0.0000 N   0  0  0  0  0  0  0  0  0  0  0  0
    1.3534  -11.9589    0.0000 C   0  0  0  0  0  0  0  0  0  0  0  0
    1.6213  -13.4348    0.0000 N   0  0  0  0  0  0  0  0  0  0  0  0
    0.4770  -14.4047    0.0000 N   0  0  0  0  0  0  0  0  0  0  0  0
   -0.9351  -13.8987    0.0000 N   0  0  0  0  0  0  0  0  0  0  0  0
   -1.2029  -12.4228    0.0000 N   0  0  0  0  0  0  0  0  0  0  0  0
   -0.0587  -11.4529    0.0000 N   0  0  0  0  0  0  0  0  0  0  0  0
    4.1428   -5.9831    0.0000 C   0  0  0  0  0  0  0  0  0  0  0  0
    5.6293   -6.1844    0.0000 O   0  0  0  0  0  0  0  0  0  0  0  0
    0.7500   -1.2990    0.0000 C   0  0  0  0  0  0  0  0  0  0  0  0
    1.5000    0.0000    0.0000 C   0  0  0  0  0  0  0  0  0  0  0  0
    0.7500    1.2990    0.0000 C   0  0  0  0  0  0  0  0  0  0  0  0
   -0.7500    1.2990    0.0000 C   0  0  0  0  0  0  0  0  0  0  0  0
   -1.5000    0.0000    0.0000 C   0  0  0  0  0  0  0  0  0  0  0  0
   -0.7500   -1.2990    0.0000 C   0  0  0  0  0  0  0  0  0  0  0  0
  1  2  1  0
  2  3  2  0
  3  4  1  0
  4  5  2  0
  5  6  1  0
  6  7  1  0
  7  8  1  0
  8  9  1  0
  9 10  2  0
 10 11  1  0
 11 12  2  0
 12 13  1  0
 13 14  1  0
 14 15  2  0
 15 16  1  0
 16 17  2  0
 17 18  1  0
 18 19  1  0
 19 20  2  0
 19 21  1  0
 21 22  1  0
 22 23  2  0
 23 24  1  0
 24 25  2  0
 25 26  1  0
 26 27  2  0
 17 28  1  0
 28 29  2  0
  6 30  1  0
 30 31  2  0
 31 32  1  0
 32 33  2  0
 33 34  1  0
 34 35  2  0
 35  2  1  0
 13  7  1  0
 28 14  1  0
 35 30  1  0
 27 22  1  0
M  END
>  <Title>  (1194) 
idABRZgen13

$$$$

     RDKit          2D

 38 42  0  0  0  0  0  0  0  0999 V2000
    8.9217  -11.0843    0.0000 C   0  0  0  0  0  0  0  0  0  0  0  0
    8.0085   -9.8942    0.0000 C   0  0  0  0  0  0  0  0  0  0  0  0
    6.5597  -10.2825    0.0000 C   0  0  0  0  0  0  0  0  0  0  0  0
    5.2606   -9.5325    0.0000 C   0  0  0  0  0  0  0  0  0  0  0  0
    4.8724   -8.0836    0.0000 C   0  0  0  0  0  0  0  0  0  0  0  0
    3.3852   -7.8878    0.0000 O   0  0  0  0  0  0  0  0  0  0  0  0
    2.4721   -9.0778    0.0000 C   0  0  0  0  0  0  0  0  0  0  0  0
    3.0461  -10.4636    0.0000 O   0  0  0  0  0  0  0  0  0  0  0  0
    0.9849   -8.8820    0.0000 N   0  0  0  0  0  0  0  0  0  0  0  0
    0.0718  -10.0721    0.0000 C   0  0  0  0  0  0  0  0  0  0  0  0
    0.4978  -11.5103    0.0000 N   0  0  0  0  0  0  0  0  0  0  0  0
   -0.7384  -12.3599    0.0000 N   0  0  0  0  0  0  0  0  0  0  0  0
   -1.9284  -11.4468    0.0000 N   0  0  0  0  0  0  0  0  0  0  0  0
   -1.4277  -10.0328    0.0000 N   0  0  0  0  0  0  0  0  0  0  0  0
   -2.2773   -8.7966    0.0000 N   0  0  0  0  0  0  0  0  0  0  0  0
   -1.7766   -7.3826    0.0000 C   0  0  0  0  0  0  0  0  0  0  0  0
   -2.9666   -6.4695    0.0000 C   0  0  0  0  0  0  0  0  0  0  0  0
   -4.2028   -7.3191    0.0000 N   0  0  0  0  0  0  0  0  0  0  0  0
   -5.6168   -6.8184    0.0000 C   0  0  0  0  0  0  0  0  0  0  0  0
   -6.7574   -7.7926    0.0000 O   0  0  0  0  0  0  0  0  0  0  0  0
   -5.8902   -5.3435    0.0000 N   0  0  0  0  0  0  0  0  0  0  0  0
   -7.3041   -4.8428    0.0000 C   0  0  0  0  0  0  0  0  0  0  0  0
   -8.4447   -5.8170    0.0000 N   0  0  0  0  0  0  0  0  0  0  0  0
   -9.8587   -5.3163    0.0000 N   0  0  0  0  0  0  0  0  0  0  0  0
  -10.1320   -3.8414    0.0000 N   0  0  0  0  0  0  0  0  0  0  0  0
   -8.9914   -2.8672    0.0000 N   0  0  0  0  0  0  0  0  0  0  0  0
   -7.5775   -3.3679    0.0000 N   0  0  0  0  0  0  0  0  0  0  0  0
   -3.7768   -8.7573    0.0000 C   0  0  0  0  0  0  0  0  0  0  0  0
   -4.6900   -9.9474    0.0000 O   0  0  0  0  0  0  0  0  0  0  0  0
    5.6224   -6.7845    0.0000 C   0  0  0  0  0  0  0  0  0  0  0  0
    4.7092   -5.5945    0.0000 O   0  0  0  0  0  0  0  0  0  0  0  0
    7.0713   -6.3963    0.0000 O   0  0  0  0  0  0  0  0  0  0  0  0
    8.3703   -7.1463    0.0000 C   0  0  0  0  0  0  0  0  0  0  0  0
    9.4310   -6.0856    0.0000 C   0  0  0  0  0  0  0  0  0  0  0  0
   10.8799   -6.4739    0.0000 C   0  0  0  0  0  0  0  0  0  0  0  0
   11.2681   -7.9228    0.0000 C   0  0  0  0  0  0  0  0  0  0  0  0
   10.2074   -8.9834    0.0000 C   0  0  0  0  0  0  0  0  0  0  0  0
    8.7585   -8.5952    0.0000 C   0  0  0  0  0  0  0  0  0  0  0  0
  1  2  1  0
  2  3  2  0
  3  4  1  0
  4  5  2  0
  5  6  1  0
  6  7  1  0
  7  8  2  0
  7  9  1  0
  9 10  1  0
 10 11  2  0
 11 12  1  0
 12 13  2  0
 13 14  1  0
 14 15  1  0
 15 16  1  0
 16 17  1  0
 17 18  1  0
 18 19  1  0
 19 20  2  0
 19 21  1  0
 21 22  1  0
 22 23  2  0
 23 24  1  0
 24 25  2  0
 25 26  1  0
 26 27  2  0
 18 28  1  0
 28 29  2  0
  5 30  1  0
 30 31  2  0
 30 32  1  0
 32 33  1  0
 33 34  2  0
 34 35  1  0
 35 36  2  0
 36 37  1  0
 37 38  2  0
 38  2  1  0
 14 10  1  0
 28 15  1  0
 38 33  1  0
 27 22  1  0
M  END
>  <Title>  (1195) 
idABSAgen13

$$$$

     RDKit          2D

 40 45  0  0  0  0  0  0  0  0999 V2000
   -1.3240   -6.3062    0.0000 C   0  0  0  0  0  0  0  0  0  0  0  0
   -0.7500   -4.9204    0.0000 C   0  0  0  0  0  0  0  0  0  0  0  0
    0.7500   -4.9204    0.0000 C   0  0  0  0  0  0  0  0  0  0  0  0
    1.8107   -3.8597    0.0000 C   0  0  0  0  0  0  0  0  0  0  0  0
    1.8107   -2.3597    0.0000 C   0  0  0  0  0  0  0  0  0  0  0  0
    3.1965   -1.7857    0.0000 C   0  0  0  0  0  0  0  0  0  0  0  0
    3.3923   -0.2985    0.0000 O   0  0  0  0  0  0  0  0  0  0  0  0
    4.3865   -2.6988    0.0000 N   0  0  0  0  0  0  0  0  0  0  0  0
    5.7723   -2.1248    0.0000 C   0  0  0  0  0  0  0  0  0  0  0  0
    6.1225   -0.6662    0.0000 N   0  0  0  0  0  0  0  0  0  0  0  0
    7.6179   -0.5485    0.0000 N   0  0  0  0  0  0  0  0  0  0  0  0
    8.1919   -1.9344    0.0000 N   0  0  0  0  0  0  0  0  0  0  0  0
    7.0513   -2.9085    0.0000 N   0  0  0  0  0  0  0  0  0  0  0  0
    7.1690   -4.4039    0.0000 C   0  0  0  0  0  0  0  0  0  0  0  0
    8.4479   -5.1877    0.0000 C   0  0  0  0  0  0  0  0  0  0  0  0
    8.0978   -6.6462    0.0000 C   0  0  0  0  0  0  0  0  0  0  0  0
    6.6024   -6.7639    0.0000 C   0  0  0  0  0  0  0  0  0  0  0  0
    5.8186   -8.0429    0.0000 C   0  0  0  0  0  0  0  0  0  0  0  0
    6.5344   -9.3611    0.0000 O   0  0  0  0  0  0  0  0  0  0  0  0
    4.3192   -8.0036    0.0000 N   0  0  0  0  0  0  0  0  0  0  0  0
    3.5354   -9.2826    0.0000 C   0  0  0  0  0  0  0  0  0  0  0  0
    2.0359   -9.2433    0.0000 N   0  0  0  0  0  0  0  0  0  0  0  0
    1.2522  -10.5223    0.0000 N   0  0  0  0  0  0  0  0  0  0  0  0
    1.9679  -11.8405    0.0000 N   0  0  0  0  0  0  0  0  0  0  0  0
    3.4674  -11.8797    0.0000 N   0  0  0  0  0  0  0  0  0  0  0  0
    4.2512  -10.6008    0.0000 N   0  0  0  0  0  0  0  0  0  0  0  0
    6.0284   -5.3781    0.0000 C   0  0  0  0  0  0  0  0  0  0  0  0
    4.5698   -5.0279    0.0000 O   0  0  0  0  0  0  0  0  0  0  0  0
    0.7500   -1.2990    0.0000 C   0  0  0  0  0  0  0  0  0  0  0  0
    1.5000    0.0000    0.0000 C   0  0  0  0  0  0  0  0  0  0  0  0
    0.7500    1.2990    0.0000 C   0  0  0  0  0  0  0  0  0  0  0  0
   -0.7500    1.2990    0.0000 C   0  0  0  0  0  0  0  0  0  0  0  0
   -1.5000    0.0000    0.0000 C   0  0  0  0  0  0  0  0  0  0  0  0
   -0.7500   -1.2990    0.0000 C   0  0  0  0  0  0  0  0  0  0  0  0
   -1.8107   -2.3597    0.0000 C   0  0  0  0  0  0  0  0  0  0  0  0
   -3.1097   -1.6097    0.0000 C   0  0  0  0  0  0  0  0  0  0  0  0
   -4.4087   -2.3597    0.0000 C   0  0  0  0  0  0  0  0  0  0  0  0
   -4.4087   -3.8597    0.0000 C   0  0  0  0  0  0  0  0  0  0  0  0
   -3.1097   -4.6097    0.0000 C   0  0  0  0  0  0  0  0  0  0  0  0
   -1.8107   -3.8597    0.0000 C   0  0  0  0  0  0  0  0  0  0  0  0
  1  2  1  0
  2  3  2  0
  3  4  1  0
  4  5  2  0
  5  6  1  0
  6  7  2  0
  6  8  1  0
  8  9  1  0
  9 10  2  0
 10 11  1  0
 11 12  2  0
 12 13  1  0
 13 14  1  0
 14 15  2  0
 15 16  1  0
 16 17  2  0
 17 18  1  0
 18 19  2  0
 18 20  1  0
 20 21  1  0
 21 22  2  0
 22 23  1  0
 23 24  2  0
 24 25  1  0
 25 26  2  0
 17 27  1  0
 27 28  2  0
  5 29  1  0
 29 30  2  0
 30 31  1  0
 31 32  2  0
 32 33  1  0
 33 34  2  0
 34 35  1  0
 35 36  2  0
 36 37  1  0
 37 38  2  0
 38 39  1  0
 39 40  2  0
 40  2  1  0
 13  9  1  0
 27 14  1  0
 34 29  1  0
 40 35  1  0
 26 21  1  0
M  END
>  <Title>  (1196) 
idABSBgen13

$$$$

     RDKit          2D

 36 40  0  0  0  0  0  0  0  0999 V2000
   -3.1476   -2.1380    0.0000 C   0  0  0  0  0  0  0  0  0  0  0  0
   -1.6852   -2.4718    0.0000 C   0  0  0  0  0  0  0  0  0  0  0  0
   -1.3515   -3.9342    0.0000 C   0  0  0  0  0  0  0  0  0  0  0  0
   -0.0000   -4.5850    0.0000 C   0  0  0  0  0  0  0  0  0  0  0  0
    1.3515   -3.9342    0.0000 C   0  0  0  0  0  0  0  0  0  0  0  0
    1.6852   -2.4718    0.0000 C   0  0  0  0  0  0  0  0  0  0  0  0
    3.1476   -2.1380    0.0000 C   0  0  0  0  0  0  0  0  0  0  0  0
    3.5898   -0.7046    0.0000 O   0  0  0  0  0  0  0  0  0  0  0  0
    4.1679   -3.2376    0.0000 N   0  0  0  0  0  0  0  0  0  0  0  0
    5.6303   -2.9038    0.0000 C   0  0  0  0  0  0  0  0  0  0  0  0
    6.2198   -1.5245    0.0000 N   0  0  0  0  0  0  0  0  0  0  0  0
    7.7138   -1.6590    0.0000 N   0  0  0  0  0  0  0  0  0  0  0  0
    8.0476   -3.1214    0.0000 N   0  0  0  0  0  0  0  0  0  0  0  0
    6.7599   -3.8907    0.0000 N   0  0  0  0  0  0  0  0  0  0  0  0
    6.6254   -5.3847    0.0000 C   0  0  0  0  0  0  0  0  0  0  0  0
    7.7550   -6.3716    0.0000 C   0  0  0  0  0  0  0  0  0  0  0  0
    7.1655   -7.7509    0.0000 C   0  0  0  0  0  0  0  0  0  0  0  0
    5.6715   -7.6164    0.0000 C   0  0  0  0  0  0  0  0  0  0  0  0
    4.6846   -8.7460    0.0000 O   0  0  0  0  0  0  0  0  0  0  0  0
    3.2129   -8.4561    0.0000 C   0  0  0  0  0  0  0  0  0  0  0  0
    2.7281   -7.0366    0.0000 O   0  0  0  0  0  0  0  0  0  0  0  0
    2.2260   -9.5857    0.0000 N   0  0  0  0  0  0  0  0  0  0  0  0
    0.7543   -9.2959    0.0000 C   0  0  0  0  0  0  0  0  0  0  0  0
    0.2695   -7.8764    0.0000 N   0  0  0  0  0  0  0  0  0  0  0  0
   -1.2023   -7.5865    0.0000 N   0  0  0  0  0  0  0  0  0  0  0  0
   -2.1892   -8.7161    0.0000 N   0  0  0  0  0  0  0  0  0  0  0  0
   -1.7044  -10.1356    0.0000 N   0  0  0  0  0  0  0  0  0  0  0  0
   -0.2326  -10.4255    0.0000 N   0  0  0  0  0  0  0  0  0  0  0  0
    5.3378   -6.1540    0.0000 C   0  0  0  0  0  0  0  0  0  0  0  0
    3.9585   -5.5645    0.0000 O   0  0  0  0  0  0  0  0  0  0  0  0
    0.7500   -1.2990    0.0000 C   0  0  0  0  0  0  0  0  0  0  0  0
    1.5000    0.0000    0.0000 C   0  0  0  0  0  0  0  0  0  0  0  0
    0.7500    1.2990    0.0000 C   0  0  0  0  0  0  0  0  0  0  0  0
   -0.7500    1.2990    0.0000 C   0  0  0  0  0  0  0  0  0  0  0  0
   -1.5000    0.0000    0.0000 C   0  0  0  0  0  0  0  0  0  0  0  0
   -0.7500   -1.2990    0.0000 C   0  0  0  0  0  0  0  0  0  0  0  0
  1  2  1  0
  2  3  1  0
  3  4  2  0
  4  5  1  0
  5  6  1  0
  6  7  1  0
  7  8  2  0
  7  9  1  0
  9 10  1  0
 10 11  2  0
 11 12  1  0
 12 13  2  0
 13 14  1  0
 14 15  1  0
 15 16  2  0
 16 17  1  0
 17 18  2  0
 18 19  1  0
 19 20  1  0
 20 21  2  0
 20 22  1  0
 22 23  1  0
 23 24  2  0
 24 25  1  0
 25 26  2  0
 26 27  1  0
 27 28  2  0
 18 29  1  0
 29 30  2  0
  6 31  1  0
 31 32  2  0
 32 33  1  0
 33 34  2  0
 34 35  1  0
 35 36  2  0
 36  2  1  0
 14 10  1  0
 29 15  1  0
 36 31  1  0
 28 23  1  0
M  END
>  <Title>  (1197) 
idABSCgen13

$$$$

     RDKit          2D

 18 20  0  0  0  0  0  0  0  0999 V2000
   -3.2595   -3.4715    0.0000 C   0  0  0  0  0  0  0  0  0  0  0  0
   -1.8107   -3.8597    0.0000 C   0  0  0  0  0  0  0  0  0  0  0  0
   -1.4224   -5.3086    0.0000 O   0  0  0  0  0  0  0  0  0  0  0  0
   -0.7500   -2.7990    0.0000 N   0  0  0  0  0  0  0  0  0  0  0  0
    0.7500   -2.7990    0.0000 C   0  0  0  0  0  0  0  0  0  0  0  0
    0.7500   -1.2990    0.0000 C   0  0  0  0  0  0  0  0  0  0  0  0
    1.5000    0.0000    0.0000 C   0  0  0  0  0  0  0  0  0  0  0  0
    0.7500    1.2990    0.0000 C   0  0  0  0  0  0  0  0  0  0  0  0
   -0.7500    1.2990    0.0000 C   0  0  0  0  0  0  0  0  0  0  0  0
   -1.5000    2.5981    0.0000 O   0  0  0  0  0  0  0  0  0  0  0  0
   -0.7500    3.8971    0.0000 C   0  0  0  0  0  0  0  0  0  0  0  0
    0.7500    3.8971    0.0000 C   0  0  0  0  0  0  0  0  0  0  0  0
    1.5000    5.1962    0.0000 C   0  0  0  0  0  0  0  0  0  0  0  0
    0.7500    6.4952    0.0000 C   0  0  0  0  0  0  0  0  0  0  0  0
   -0.7500    6.4952    0.0000 C   0  0  0  0  0  0  0  0  0  0  0  0
   -1.5000    5.1962    0.0000 C   0  0  0  0  0  0  0  0  0  0  0  0
   -1.5000    0.0000    0.0000 C   0  0  0  0  0  0  0  0  0  0  0  0
   -0.7500   -1.2990    0.0000 C   0  0  0  0  0  0  0  0  0  0  0  0
  1  2  1  0
  2  3  2  0
  2  4  1  0
  4  5  1  0
  5  6  1  0
  6  7  1  0
  7  8  1  0
  8  9  1  0
  9 10  1  0
 10 11  1  0
 11 12  2  0
 12 13  1  0
 13 14  2  0
 14 15  1  0
 15 16  2  0
  9 17  1  0
 17 18  1  0
 18  4  1  0
 18  6  1  0
 16 11  1  0
M  END
>  <Title>  (1198) 
idABSDgen13

$$$$

     RDKit          2D

 35 39  0  0  0  0  0  0  0  0999 V2000
   -3.1476   -2.1380    0.0000 C   0  0  0  0  0  0  0  0  0  0  0  0
   -1.6852   -2.4718    0.0000 C   0  0  0  0  0  0  0  0  0  0  0  0
   -1.3515   -3.9342    0.0000 C   0  0  0  0  0  0  0  0  0  0  0  0
   -0.0000   -4.5850    0.0000 C   0  0  0  0  0  0  0  0  0  0  0  0
    1.3515   -3.9342    0.0000 C   0  0  0  0  0  0  0  0  0  0  0  0
    1.6852   -2.4718    0.0000 C   0  0  0  0  0  0  0  0  0  0  0  0
    3.1476   -2.1380    0.0000 C   0  0  0  0  0  0  0  0  0  0  0  0
    3.5898   -0.7046    0.0000 O   0  0  0  0  0  0  0  0  0  0  0  0
    4.1679   -3.2376    0.0000 N   0  0  0  0  0  0  0  0  0  0  0  0
    5.6303   -2.9038    0.0000 C   0  0  0  0  0  0  0  0  0  0  0  0
    6.2198   -1.5245    0.0000 N   0  0  0  0  0  0  0  0  0  0  0  0
    7.7138   -1.6590    0.0000 N   0  0  0  0  0  0  0  0  0  0  0  0
    8.0476   -3.1214    0.0000 N   0  0  0  0  0  0  0  0  0  0  0  0
    6.7599   -3.8907    0.0000 N   0  0  0  0  0  0  0  0  0  0  0  0
    6.6254   -5.3847    0.0000 C   0  0  0  0  0  0  0  0  0  0  0  0
    7.7550   -6.3716    0.0000 C   0  0  0  0  0  0  0  0  0  0  0  0
    7.1655   -7.7509    0.0000 C   0  0  0  0  0  0  0  0  0  0  0  0
    5.6715   -7.6164    0.0000 C   0  0  0  0  0  0  0  0  0  0  0  0
    4.6846   -8.7460    0.0000 C   0  0  0  0  0  0  0  0  0  0  0  0
    5.1694  -10.1655    0.0000 O   0  0  0  0  0  0  0  0  0  0  0  0
    3.2129   -8.4561    0.0000 N   0  0  0  0  0  0  0  0  0  0  0  0
    2.2260   -9.5857    0.0000 C   0  0  0  0  0  0  0  0  0  0  0  0
    0.7543   -9.2959    0.0000 N   0  0  0  0  0  0  0  0  0  0  0  0
   -0.2326  -10.4255    0.0000 N   0  0  0  0  0  0  0  0  0  0  0  0
    0.2522  -11.8450    0.0000 N   0  0  0  0  0  0  0  0  0  0  0  0
    1.7239  -12.1348    0.0000 N   0  0  0  0  0  0  0  0  0  0  0  0
    2.7108  -11.0052    0.0000 N   0  0  0  0  0  0  0  0  0  0  0  0
    5.3378   -6.1540    0.0000 C   0  0  0  0  0  0  0  0  0  0  0  0
    3.9585   -5.5645    0.0000 O   0  0  0  0  0  0  0  0  0  0  0  0
    0.7500   -1.2990    0.0000 C   0  0  0  0  0  0  0  0  0  0  0  0
    1.5000    0.0000    0.0000 C   0  0  0  0  0  0  0  0  0  0  0  0
    0.7500    1.2990    0.0000 C   0  0  0  0  0  0  0  0  0  0  0  0
   -0.7500    1.2990    0.0000 C   0  0  0  0  0  0  0  0  0  0  0  0
   -1.5000    0.0000    0.0000 C   0  0  0  0  0  0  0  0  0  0  0  0
   -0.7500   -1.2990    0.0000 C   0  0  0  0  0  0  0  0  0  0  0  0
  1  2  1  0
  2  3  1  0
  3  4  2  0
  4  5  1  0
  5  6  1  0
  6  7  1  0
  7  8  2  0
  7  9  1  0
  9 10  1  0
 10 11  2  0
 11 12  1  0
 12 13  2  0
 13 14  1  0
 14 15  1  0
 15 16  2  0
 16 17  1  0
 17 18  2  0
 18 19  1  0
 19 20  2  0
 19 21  1  0
 21 22  1  0
 22 23  2  0
 23 24  1  0
 24 25  2  0
 25 26  1  0
 26 27  2  0
 18 28  1  0
 28 29  2  0
  6 30  1  0
 30 31  2  0
 31 32  1  0
 32 33  2  0
 33 34  1  0
 34 35  2  0
 35  2  1  0
 14 10  1  0
 28 15  1  0
 35 30  1  0
 27 22  1  0
M  END
>  <Title>  (1199) 
idABSEgen13

$$$$

     RDKit          2D

108110  0  0  0  0  0  0  0  0999 V2000
   13.1439   -7.9053    0.0000 C   0  0  0  0  0  0  0  0  0  0  0  0
   14.5622   -7.4170    0.0000 C   0  0  0  0  0  0  0  0  0  0  0  0
   15.1483   -8.7977    0.0000 C   0  0  0  0  0  0  0  0  0  0  0  0
   15.9208  -10.0835    0.0000 C   0  0  0  0  0  0  0  0  0  0  0  0
   16.8648  -11.2492    0.0000 C   0  0  0  0  0  0  0  0  0  0  0  0
   17.9619  -12.2722    0.0000 C   0  0  0  0  0  0  0  0  0  0  0  0
   19.1906  -13.1325    0.0000 C   0  0  0  0  0  0  0  0  0  0  0  0
   20.5271  -13.8135    0.0000 C   0  0  0  0  0  0  0  0  0  0  0  0
   21.9454  -14.3019    0.0000 C   0  0  0  0  0  0  0  0  0  0  0  0
   23.4178  -14.5881    0.0000 C   0  0  0  0  0  0  0  0  0  0  0  0
   24.9158  -14.6666    0.0000 C   0  0  0  0  0  0  0  0  0  0  0  0
   26.4100  -14.5359    0.0000 C   0  0  0  0  0  0  0  0  0  0  0  0
   27.8716  -14.1984    0.0000 C   0  0  0  0  0  0  0  0  0  0  0  0
   29.2720  -13.6609    0.0000 C   0  0  0  0  0  0  0  0  0  0  0  0
   30.5839  -12.9337    0.0000 C   0  0  0  0  0  0  0  0  0  0  0  0
   31.7819  -12.0310    0.0000 C   0  0  0  0  0  0  0  0  0  0  0  0
   32.8425  -10.9703    0.0000 C   0  0  0  0  0  0  0  0  0  0  0  0
   33.7452   -9.7723    0.0000 C   0  0  0  0  0  0  0  0  0  0  0  0
   34.4725   -8.4604    0.0000 C   0  0  0  0  0  0  0  0  0  0  0  0
   35.0100   -7.0600    0.0000 C   0  0  0  0  0  0  0  0  0  0  0  0
   35.3474   -5.5985    0.0000 C   0  0  0  0  0  0  0  0  0  0  0  0
   35.4782   -4.1042    0.0000 C   0  0  0  0  0  0  0  0  0  0  0  0
   35.3997   -2.6062    0.0000 C   0  0  0  0  0  0  0  0  0  0  0  0
   35.1134   -1.1338    0.0000 C   0  0  0  0  0  0  0  0  0  0  0  0
   34.6251    0.2845    0.0000 C   0  0  0  0  0  0  0  0  0  0  0  0
   33.9441    1.6210    0.0000 C   0  0  0  0  0  0  0  0  0  0  0  0
   33.0837    2.8497    0.0000 C   0  0  0  0  0  0  0  0  0  0  0  0
   32.0607    3.9467    0.0000 C   0  0  0  0  0  0  0  0  0  0  0  0
   30.8950    4.8907    0.0000 C   0  0  0  0  0  0  0  0  0  0  0  0
   29.6093    5.6633    0.0000 C   0  0  0  0  0  0  0  0  0  0  0  0
   28.2285    6.2494    0.0000 C   0  0  0  0  0  0  0  0  0  0  0  0
   26.7796    6.6376    0.0000 C   0  0  0  0  0  0  0  0  0  0  0  0
   25.2908    6.8204    0.0000 C   0  0  0  0  0  0  0  0  0  0  0  0
   23.7910    6.7942    0.0000 C   0  0  0  0  0  0  0  0  0  0  0  0
   22.3095    6.5596    0.0000 C   0  0  0  0  0  0  0  0  0  0  0  0
   20.8751    6.1210    0.0000 C   0  0  0  0  0  0  0  0  0  0  0  0
   19.5156    5.4871    0.0000 C   0  0  0  0  0  0  0  0  0  0  0  0
   18.2576    4.6701    0.0000 C   0  0  0  0  0  0  0  0  0  0  0  0
   17.1255    3.6860    0.0000 C   0  0  0  0  0  0  0  0  0  0  0  0
   16.1414    2.5540    0.0000 C   0  0  0  0  0  0  0  0  0  0  0  0
   15.3245    1.2960    0.0000 C   0  0  0  0  0  0  0  0  0  0  0  0
   14.6905   -0.0635    0.0000 C   0  0  0  0  0  0  0  0  0  0  0  0
   14.2520   -1.4979    0.0000 C   0  0  0  0  0  0  0  0  0  0  0  0
   13.6305   -0.0000    0.0000 C   0  0  0  0  0  0  0  0  0  0  0  0
   13.5558    1.4248    0.0000 C   0  0  0  0  0  0  0  0  0  0  0  0
   13.3326    2.8339    0.0000 C   0  0  0  0  0  0  0  0  0  0  0  0
   12.9634    4.2121    0.0000 C   0  0  0  0  0  0  0  0  0  0  0  0
   12.4521    5.5440    0.0000 C   0  0  0  0  0  0  0  0  0  0  0  0
   11.8044    6.8152    0.0000 C   0  0  0  0  0  0  0  0  0  0  0  0
   11.0273    8.0118    0.0000 C   0  0  0  0  0  0  0  0  0  0  0  0
   10.1294    9.1206    0.0000 C   0  0  0  0  0  0  0  0  0  0  0  0
    9.1206   10.1294    0.0000 C   0  0  0  0  0  0  0  0  0  0  0  0
    8.0118   11.0273    0.0000 C   0  0  0  0  0  0  0  0  0  0  0  0
    6.8152   11.8044    0.0000 C   0  0  0  0  0  0  0  0  0  0  0  0
    5.5440   12.4521    0.0000 C   0  0  0  0  0  0  0  0  0  0  0  0
    4.2121   12.9634    0.0000 C   0  0  0  0  0  0  0  0  0  0  0  0
    2.8339   13.3326    0.0000 C   0  0  0  0  0  0  0  0  0  0  0  0
    1.4248   13.5558    0.0000 C   0  0  0  0  0  0  0  0  0  0  0  0
    0.0000   13.6305    0.0000 C   0  0  0  0  0  0  0  0  0  0  0  0
   -1.4248   13.5558    0.0000 C   0  0  0  0  0  0  0  0  0  0  0  0
   -2.8339   13.3326    0.0000 C   0  0  0  0  0  0  0  0  0  0  0  0
   -4.2121   12.9634    0.0000 C   0  0  0  0  0  0  0  0  0  0  0  0
   -5.5440   12.4521    0.0000 C   0  0  0  0  0  0  0  0  0  0  0  0
   -6.8152   11.8044    0.0000 C   0  0  0  0  0  0  0  0  0  0  0  0
   -8.0118   11.0273    0.0000 C   0  0  0  0  0  0  0  0  0  0  0  0
   -9.1206   10.1294    0.0000 C   0  0  0  0  0  0  0  0  0  0  0  0
  -10.1294    9.1206    0.0000 C   0  0  0  0  0  0  0  0  0  0  0  0
  -11.0273    8.0118    0.0000 C   0  0  0  0  0  0  0  0  0  0  0  0
  -11.8044    6.8152    0.0000 C   0  0  0  0  0  0  0  0  0  0  0  0
  -12.4521    5.5440    0.0000 C   0  0  0  0  0  0  0  0  0  0  0  0
  -12.9634    4.2121    0.0000 C   0  0  0  0  0  0  0  0  0  0  0  0
  -13.3326    2.8339    0.0000 C   0  0  0  0  0  0  0  0  0  0  0  0
  -13.5558    1.4248    0.0000 C   0  0  0  0  0  0  0  0  0  0  0  0
  -13.6305    0.0000    0.0000 C   0  0  0  0  0  0  0  0  0  0  0  0
  -13.5558   -1.4248    0.0000 C   0  0  0  0  0  0  0  0  0  0  0  0
  -13.3326   -2.8339    0.0000 C   0  0  0  0  0  0  0  0  0  0  0  0
  -12.9634   -4.2121    0.0000 C   0  0  0  0  0  0  0  0  0  0  0  0
  -12.4521   -5.5440    0.0000 C   0  0  0  0  0  0  0  0  0  0  0  0
  -11.8044   -6.8152    0.0000 C   0  0  0  0  0  0  0  0  0  0  0  0
  -11.0273   -8.0118    0.0000 C   0  0  0  0  0  0  0  0  0  0  0  0
  -10.1294   -9.1206    0.0000 C   0  0  0  0  0  0  0  0  0  0  0  0
   -9.1206  -10.1294    0.0000 C   0  0  0  0  0  0  0  0  0  0  0  0
   -8.0118  -11.0273    0.0000 C   0  0  0  0  0  0  0  0  0  0  0  0
   -6.8152  -11.8044    0.0000 C   0  0  0  0  0  0  0  0  0  0  0  0
   -5.5440  -12.4521    0.0000 C   0  0  0  0  0  0  0  0  0  0  0  0
   -4.2121  -12.9634    0.0000 C   0  0  0  0  0  0  0  0  0  0  0  0
   -2.8339  -13.3326    0.0000 C   0  0  0  0  0  0  0  0  0  0  0  0
   -1.4248  -13.5558    0.0000 C   0  0  0  0  0  0  0  0  0  0  0  0
   -0.0000  -13.6305    0.0000 C   0  0  0  0  0  0  0  0  0  0  0  0
    1.4248  -13.5558    0.0000 C   0  0  0  0  0  0  0  0  0  0  0  0
    2.8339  -13.3326    0.0000 C   0  0  0  0  0  0  0  0  0  0  0  0
    4.2121  -12.9634    0.0000 C   0  0  0  0  0  0  0  0  0  0  0  0
    5.5440  -12.4521    0.0000 C   0  0  0  0  0  0  0  0  0  0  0  0
    6.8152  -11.8044    0.0000 C   0  0  0  0  0  0  0  0  0  0  0  0
    8.0118  -11.0273    0.0000 C   0  0  0  0  0  0  0  0  0  0  0  0
    9.1206  -10.1294    0.0000 C   0  0  0  0  0  0  0  0  0  0  0  0
   10.1294   -9.1206    0.0000 C   0  0  0  0  0  0  0  0  0  0  0  0
   11.0273   -8.0118    0.0000 C   0  0  0  0  0  0  0  0  0  0  0  0
   11.8044   -6.8152    0.0000 C   0  0  0  0  0  0  0  0  0  0  0  0
   12.4521   -5.5440    0.0000 C   0  0  0  0  0  0  0  0  0  0  0  0
   12.9634   -4.2121    0.0000 C   0  0  0  0  0  0  0  0  0  0  0  0
   14.0173   -2.9795    0.0000 C   0  0  0  0  0  0  0  0  0  0  0  0
   13.9912   -4.4792    0.0000 C   0  0  0  0  0  0  0  0  0  0  0  0
   15.1891   -3.5765    0.0000 C   0  0  0  0  0  0  0  0  0  0  0  0
   16.5699   -4.1626    0.0000 C   0  0  0  0  0  0  0  0  0  0  0  0
   16.7527   -5.6514    0.0000 C   0  0  0  0  0  0  0  0  0  0  0  0
   15.5547   -6.5542    0.0000 C   0  0  0  0  0  0  0  0  0  0  0  0
   14.1740   -5.9681    0.0000 C   0  0  0  0  0  0  0  0  0  0  0  0
  1  2  1  0
  2  3  1  0
  3  4  1  0
  4  5  1  0
  5  6  1  0
  6  7  1  0
  7  8  1  0
  8  9  1  0
  9 10  1  0
 10 11  1  0
 11 12  1  0
 12 13  1  0
 13 14  1  0
 14 15  1  0
 15 16  1  0
 16 17  1  0
 17 18  1  0
 18 19  1  0
 19 20  1  0
 20 21  1  0
 21 22  1  0
 22 23  1  0
 23 24  1  0
 24 25  1  0
 25 26  1  0
 26 27  1  0
 27 28  1  0
 28 29  1  0
 29 30  1  0
 30 31  1  0
 31 32  1  0
 32 33  1  0
 33 34  1  0
 34 35  1  0
 35 36  1  0
 36 37  1  0
 37 38  1  0
 38 39  1  0
 39 40  1  0
 40 41  1  0
 41 42  1  0
 42 43  1  0
 43 44  1  0
 44 45  1  0
 45 46  1  0
 46 47  1  0
 47 48  1  0
 48 49  1  0
 49 50  1  0
 50 51  1  0
 51 52  1  0
 52 53  1  0
 53 54  1  0
 54 55  1  0
 55 56  1  0
 56 57  1  0
 57 58  1  0
 58 59  1  0
 59 60  1  0
 60 61  1  0
 61 62  1  0
 62 63  1  0
 63 64  1  0
 64 65  1  0
 65 66  1  0
 66 67  1  0
 67 68  1  0
 68 69  1  0
 69 70  1  0
 70 71  1  0
 71 72  1  0
 72 73  1  0
 73 74  1  0
 74 75  1  0
 75 76  1  0
 76 77  1  0
 77 78  1  0
 78 79  1  0
 79 80  1  0
 80 81  1  0
 81 82  1  0
 82 83  1  0
 83 84  1  0
 84 85  1  0
 85 86  1  0
 86 87  1  0
 87 88  1  0
 88 89  1  0
 89 90  1  0
 90 91  1  0
 91 92  1  0
 92 93  1  0
 93 94  1  0
 94 95  1  0
 95 96  1  0
 96 97  1  0
 97 98  2  0
 98 99  1  0
 99100  2  0
100101  1  0
101102  2  0
102103  1  0
103104  2  0
104105  1  0
105106  2  0
106107  1  0
107108  2  0
108  2  1  0
102 43  1  0
108103  1  0
M  END
>  <Title>  (1200) 
idABSFgen13

$$$$

     RDKit          2D

 81 83  0  0  0  0  0  0  0  0999 V2000
   -2.4376    0.0595    0.0000 C   0  0  0  0  0  0  0  0  0  0  0  0
   -2.2444   -1.4280    0.0000 C   0  0  0  0  0  0  0  0  0  0  0  0
   -3.7223   -1.6849    0.0000 C   0  0  0  0  0  0  0  0  0  0  0  0
   -5.1725   -2.0680    0.0000 C   0  0  0  0  0  0  0  0  0  0  0  0
   -6.5845   -2.5742    0.0000 C   0  0  0  0  0  0  0  0  0  0  0  0
   -7.9478   -3.2000    0.0000 C   0  0  0  0  0  0  0  0  0  0  0  0
   -9.2521   -3.9407    0.0000 C   0  0  0  0  0  0  0  0  0  0  0  0
  -10.4880   -4.7907    0.0000 C   0  0  0  0  0  0  0  0  0  0  0  0
  -11.6463   -5.7439    0.0000 C   0  0  0  0  0  0  0  0  0  0  0  0
  -12.7183   -6.7931    0.0000 C   0  0  0  0  0  0  0  0  0  0  0  0
  -13.6961   -7.9305    0.0000 C   0  0  0  0  0  0  0  0  0  0  0  0
  -14.5726   -9.1478    0.0000 C   0  0  0  0  0  0  0  0  0  0  0  0
  -15.3411  -10.4360    0.0000 C   0  0  0  0  0  0  0  0  0  0  0  0
  -15.9961  -11.7854    0.0000 C   0  0  0  0  0  0  0  0  0  0  0  0
  -16.5326  -13.1862    0.0000 C   0  0  0  0  0  0  0  0  0  0  0  0
  -16.9468  -14.6279    0.0000 C   0  0  0  0  0  0  0  0  0  0  0  0
  -17.2355  -16.0999    0.0000 C   0  0  0  0  0  0  0  0  0  0  0  0
  -17.3965  -17.5912    0.0000 C   0  0  0  0  0  0  0  0  0  0  0  0
  -17.4288  -19.0908    0.0000 C   0  0  0  0  0  0  0  0  0  0  0  0
  -17.3320  -20.5877    0.0000 C   0  0  0  0  0  0  0  0  0  0  0  0
  -17.1070  -22.0707    0.0000 C   0  0  0  0  0  0  0  0  0  0  0  0
  -16.7552  -23.5289    0.0000 C   0  0  0  0  0  0  0  0  0  0  0  0
  -16.2794  -24.9514    0.0000 C   0  0  0  0  0  0  0  0  0  0  0  0
  -15.6831  -26.3278    0.0000 C   0  0  0  0  0  0  0  0  0  0  0  0
  -14.9707  -27.6478    0.0000 C   0  0  0  0  0  0  0  0  0  0  0  0
  -14.1474  -28.9017    0.0000 C   0  0  0  0  0  0  0  0  0  0  0  0
  -13.2194  -30.0802    0.0000 C   0  0  0  0  0  0  0  0  0  0  0  0
  -12.1935  -31.1745    0.0000 C   0  0  0  0  0  0  0  0  0  0  0  0
  -11.0774  -32.1766    0.0000 C   0  0  0  0  0  0  0  0  0  0  0  0
   -9.8792  -33.0791    0.0000 C   0  0  0  0  0  0  0  0  0  0  0  0
   -8.6079  -33.8752    0.0000 C   0  0  0  0  0  0  0  0  0  0  0  0
   -7.2729  -34.5590    0.0000 C   0  0  0  0  0  0  0  0  0  0  0  0
   -5.8840  -35.1256    0.0000 C   0  0  0  0  0  0  0  0  0  0  0  0
   -4.4515  -35.5707    0.0000 C   0  0  0  0  0  0  0  0  0  0  0  0
   -2.9861  -35.8909    0.0000 C   0  0  0  0  0  0  0  0  0  0  0  0
   -1.4986  -36.0841    0.0000 C   0  0  0  0  0  0  0  0  0  0  0  0
   -0.0000  -36.1486    0.0000 C   0  0  0  0  0  0  0  0  0  0  0  0
    1.4986  -36.0841    0.0000 C   0  0  0  0  0  0  0  0  0  0  0  0
    2.9861  -35.8909    0.0000 C   0  0  0  0  0  0  0  0  0  0  0  0
    4.4515  -35.5707    0.0000 C   0  0  0  0  0  0  0  0  0  0  0  0
    5.8840  -35.1256    0.0000 C   0  0  0  0  0  0  0  0  0  0  0  0
    7.2729  -34.5590    0.0000 C   0  0  0  0  0  0  0  0  0  0  0  0
    8.6079  -33.8752    0.0000 C   0  0  0  0  0  0  0  0  0  0  0  0
    9.8792  -33.0791    0.0000 C   0  0  0  0  0  0  0  0  0  0  0  0
   11.0774  -32.1766    0.0000 C   0  0  0  0  0  0  0  0  0  0  0  0
   12.1935  -31.1745    0.0000 C   0  0  0  0  0  0  0  0  0  0  0  0
   13.2194  -30.0802    0.0000 C   0  0  0  0  0  0  0  0  0  0  0  0
   14.1474  -28.9017    0.0000 C   0  0  0  0  0  0  0  0  0  0  0  0
   14.9707  -27.6478    0.0000 C   0  0  0  0  0  0  0  0  0  0  0  0
   15.6831  -26.3278    0.0000 C   0  0  0  0  0  0  0  0  0  0  0  0
   16.2794  -24.9514    0.0000 C   0  0  0  0  0  0  0  0  0  0  0  0
   16.7552  -23.5289    0.0000 C   0  0  0  0  0  0  0  0  0  0  0  0
   17.1070  -22.0707    0.0000 C   0  0  0  0  0  0  0  0  0  0  0  0
   17.3320  -20.5877    0.0000 C   0  0  0  0  0  0  0  0  0  0  0  0
   17.4288  -19.0908    0.0000 C   0  0  0  0  0  0  0  0  0  0  0  0
   17.3965  -17.5912    0.0000 C   0  0  0  0  0  0  0  0  0  0  0  0
   17.2355  -16.0999    0.0000 C   0  0  0  0  0  0  0  0  0  0  0  0
   16.9468  -14.6279    0.0000 C   0  0  0  0  0  0  0  0  0  0  0  0
   16.5326  -13.1862    0.0000 C   0  0  0  0  0  0  0  0  0  0  0  0
   15.9961  -11.7854    0.0000 C   0  0  0  0  0  0  0  0  0  0  0  0
   15.3411  -10.4360    0.0000 C   0  0  0  0  0  0  0  0  0  0  0  0
   14.5726   -9.1478    0.0000 C   0  0  0  0  0  0  0  0  0  0  0  0
   13.6961   -7.9305    0.0000 C   0  0  0  0  0  0  0  0  0  0  0  0
   12.7183   -6.7931    0.0000 C   0  0  0  0  0  0  0  0  0  0  0  0
   11.6463   -5.7439    0.0000 C   0  0  0  0  0  0  0  0  0  0  0  0
   10.4880   -4.7907    0.0000 C   0  0  0  0  0  0  0  0  0  0  0  0
    9.2521   -3.9407    0.0000 C   0  0  0  0  0  0  0  0  0  0  0  0
    7.9478   -3.2000    0.0000 C   0  0  0  0  0  0  0  0  0  0  0  0
    6.5845   -2.5742    0.0000 C   0  0  0  0  0  0  0  0  0  0  0  0
    5.1725   -2.0680    0.0000 C   0  0  0  0  0  0  0  0  0  0  0  0
    3.7223   -1.6849    0.0000 C   0  0  0  0  0  0  0  0  0  0  0  0
    3.9346   -3.1698    0.0000 C   0  0  0  0  0  0  0  0  0  0  0  0
    2.5880   -3.8306    0.0000 C   0  0  0  0  0  0  0  0  0  0  0  0
    1.5434   -2.7541    0.0000 C   0  0  0  0  0  0  0  0  0  0  0  0
    2.2444   -1.4280    0.0000 C   0  0  0  0  0  0  0  0  0  0  0  0
    0.7500   -1.2990    0.0000 C   0  0  0  0  0  0  0  0  0  0  0  0
    1.5000    0.0000    0.0000 C   0  0  0  0  0  0  0  0  0  0  0  0
    0.7500    1.2990    0.0000 C   0  0  0  0  0  0  0  0  0  0  0  0
   -0.7500    1.2990    0.0000 C   0  0  0  0  0  0  0  0  0  0  0  0
   -1.5000    0.0000    0.0000 C   0  0  0  0  0  0  0  0  0  0  0  0
   -0.7500   -1.2990    0.0000 C   0  0  0  0  0  0  0  0  0  0  0  0
  1  2  1  0
  2  3  1  0
  3  4  1  0
  4  5  1  0
  5  6  1  0
  6  7  1  0
  7  8  1  0
  8  9  1  0
  9 10  1  0
 10 11  1  0
 11 12  1  0
 12 13  1  0
 13 14  1  0
 14 15  1  0
 15 16  1  0
 16 17  1  0
 17 18  1  0
 18 19  1  0
 19 20  1  0
 20 21  1  0
 21 22  1  0
 22 23  1  0
 23 24  1  0
 24 25  1  0
 25 26  1  0
 26 27  1  0
 27 28  1  0
 28 29  1  0
 29 30  1  0
 30 31  1  0
 31 32  1  0
 32 33  1  0
 33 34  1  0
 34 35  1  0
 35 36  1  0
 36 37  1  0
 37 38  1  0
 38 39  1  0
 39 40  1  0
 40 41  1  0
 41 42  1  0
 42 43  1  0
 43 44  1  0
 44 45  1  0
 45 46  1  0
 46 47  1  0
 47 48  1  0
 48 49  1  0
 49 50  1  0
 50 51  1  0
 51 52  1  0
 52 53  1  0
 53 54  1  0
 54 55  1  0
 55 56  1  0
 56 57  1  0
 57 58  1  0
 58 59  1  0
 59 60  1  0
 60 61  1  0
 61 62  1  0
 62 63  1  0
 63 64  1  0
 64 65  1  0
 65 66  1  0
 66 67  2  0
 67 68  1  0
 68 69  2  0
 69 70  1  0
 70 71  2  0
 71 72  1  0
 72 73  2  0
 73 74  1  0
 74 75  2  0
 75 76  1  0
 76 77  2  0
 77 78  1  0
 78 79  2  0
 79 80  1  0
 80 81  2  0
 81  2  1  0
 75 71  1  0
 81 76  1  0
M  END
>  <Title>  (1201) 
idABSGgen13

$$$$

     RDKit          2D

 10 11  0  0  0  0  0  0  0  0999 V2000
   -4.2473    5.0365    0.0000 C   0  0  0  0  0  0  0  0  0  0  0  0
   -2.9108    4.3555    0.0000 C   0  0  0  0  0  0  0  0  0  0  0  0
   -2.8323    2.8576    0.0000 C   0  0  0  0  0  0  0  0  0  0  0  0
   -1.4958    2.1766    0.0000 N   0  0  0  0  0  0  0  0  0  0  0  0
   -0.0692    2.6401    0.0000 C   0  0  0  0  0  0  0  0  0  0  0  0
    0.3943    1.2135    0.0000 C   0  0  0  0  0  0  0  0  0  0  0  0
    1.2760    0.0000    0.0000 C   0  0  0  0  0  0  0  0  0  0  0  0
    0.3943   -1.2135    0.0000 C   0  0  0  0  0  0  0  0  0  0  0  0
   -1.0323   -0.7500    0.0000 C   0  0  0  0  0  0  0  0  0  0  0  0
   -1.0323    0.7500    0.0000 C   0  0  0  0  0  0  0  0  0  0  0  0
  1  2  1  0
  2  3  1  0
  3  4  1  0
  4  5  1  0
  5  6  1  0
  6  7  1  0
  7  8  1  0
  8  9  1  0
  9 10  1  0
 10  4  1  0
 10  6  1  0
M  END
>  <Title>  (1202) 
idABSHgen13

$$$$

     RDKit          2D

  6  5  0  0  0  0  0  0  0  0999 V2000
    0.0000    0.0000    0.0000 C   0  0  0  0  0  0  0  0  0  0  0  0
   -0.0000   -1.5000    0.0000 C   0  0  0  0  0  0  0  0  0  0  0  0
   -0.0000   -3.0000    0.0000 C   0  0  0  0  0  0  0  0  0  0  0  0
    1.2990   -3.7500    0.0000 C   0  0  0  0  0  0  0  0  0  0  0  0
    1.2990   -5.2500    0.0000 C   0  0  0  0  0  0  0  0  0  0  0  0
    2.5981   -6.0000    0.0000 C   0  0  0  0  0  0  0  0  0  0  0  0
  1  2  3  0
  2  3  1  0
  3  4  1  0
  4  5  2  3
  5  6  1  0
M  END
>  <Title>  (1203) 
idABSIgen13

$$$$

     RDKit          2D

 39 44  0  0  0  0  0  0  0  0999 V2000
   -3.1771   -5.9156    0.0000 C   0  0  0  0  0  0  0  0  0  0  0  0
   -1.9635   -5.0339    0.0000 C   0  0  0  0  0  0  0  0  0  0  0  0
   -0.7500   -5.9156    0.0000 C   0  0  0  0  0  0  0  0  0  0  0  0
    0.7500   -5.9156    0.0000 C   0  0  0  0  0  0  0  0  0  0  0  0
    1.9635   -5.0339    0.0000 C   0  0  0  0  0  0  0  0  0  0  0  0
    2.4271   -3.6073    0.0000 C   0  0  0  0  0  0  0  0  0  0  0  0
    1.9635   -2.1807    0.0000 C   0  0  0  0  0  0  0  0  0  0  0  0
    3.1771   -1.2990    0.0000 C   0  0  0  0  0  0  0  0  0  0  0  0
    3.0203    0.1927    0.0000 O   0  0  0  0  0  0  0  0  0  0  0  0
    4.5474   -1.9091    0.0000 N   0  0  0  0  0  0  0  0  0  0  0  0
    5.7609   -1.0275    0.0000 C   0  0  0  0  0  0  0  0  0  0  0  0
    5.7609    0.4725    0.0000 N   0  0  0  0  0  0  0  0  0  0  0  0
    7.1875    0.9361    0.0000 N   0  0  0  0  0  0  0  0  0  0  0  0
    8.0692   -0.2775    0.0000 N   0  0  0  0  0  0  0  0  0  0  0  0
    7.1875   -1.4910    0.0000 N   0  0  0  0  0  0  0  0  0  0  0  0
    7.6510   -2.9176    0.0000 N   0  0  0  0  0  0  0  0  0  0  0  0
    9.0776   -3.3811    0.0000 C   0  0  0  0  0  0  0  0  0  0  0  0
    9.0776   -4.8811    0.0000 C   0  0  0  0  0  0  0  0  0  0  0  0
    7.6510   -5.3446    0.0000 N   0  0  0  0  0  0  0  0  0  0  0  0
    7.1875   -6.7712    0.0000 C   0  0  0  0  0  0  0  0  0  0  0  0
    5.7203   -7.0831    0.0000 C   0  0  0  0  0  0  0  0  0  0  0  0
    5.2567   -8.5097    0.0000 C   0  0  0  0  0  0  0  0  0  0  0  0
    6.2604   -9.6244    0.0000 C   0  0  0  0  0  0  0  0  0  0  0  0
    7.7276   -9.3125    0.0000 C   0  0  0  0  0  0  0  0  0  0  0  0
    8.1912   -7.8859    0.0000 C   0  0  0  0  0  0  0  0  0  0  0  0
    6.7693   -4.1311    0.0000 C   0  0  0  0  0  0  0  0  0  0  0  0
    5.2693   -4.1311    0.0000 O   0  0  0  0  0  0  0  0  0  0  0  0
    0.7500   -1.2990    0.0000 C   0  0  0  0  0  0  0  0  0  0  0  0
    1.5000    0.0000    0.0000 C   0  0  0  0  0  0  0  0  0  0  0  0
    0.7500    1.2990    0.0000 C   0  0  0  0  0  0  0  0  0  0  0  0
   -0.7500    1.2990    0.0000 C   0  0  0  0  0  0  0  0  0  0  0  0
   -1.5000    0.0000    0.0000 C   0  0  0  0  0  0  0  0  0  0  0  0
   -0.7500   -1.2990    0.0000 C   0  0  0  0  0  0  0  0  0  0  0  0
   -1.9635   -2.1807    0.0000 C   0  0  0  0  0  0  0  0  0  0  0  0
   -2.9672   -1.0660    0.0000 C   0  0  0  0  0  0  0  0  0  0  0  0
   -4.4344   -1.3779    0.0000 C   0  0  0  0  0  0  0  0  0  0  0  0
   -4.8980   -2.8045    0.0000 C   0  0  0  0  0  0  0  0  0  0  0  0
   -3.8943   -3.9192    0.0000 C   0  0  0  0  0  0  0  0  0  0  0  0
   -2.4271   -3.6073    0.0000 C   0  0  0  0  0  0  0  0  0  0  0  0
  1  2  1  0
  2  3  1  0
  3  4  1  0
  4  5  1  0
  5  6  1  0
  6  7  1  0
  7  8  1  0
  8  9  2  0
  8 10  1  0
 10 11  1  0
 11 12  2  0
 12 13  1  0
 13 14  2  0
 14 15  1  0
 15 16  1  0
 16 17  1  0
 17 18  1  0
 18 19  1  0
 19 20  1  0
 20 21  2  0
 21 22  1  0
 22 23  2  0
 23 24  1  0
 24 25  2  0
 19 26  1  0
 26 27  2  0
  7 28  1  0
 28 29  2  0
 29 30  1  0
 30 31  2  0
 31 32  1  0
 32 33  2  0
 33 34  1  0
 34 35  2  0
 35 36  1  0
 36 37  2  0
 37 38  1  0
 38 39  2  0
 39  2  1  0
 15 11  1  0
 26 16  1  0
 33 28  1  0
 39 34  1  0
 25 20  1  0
M  END
>  <Title>  (1204) 
idABSJgen13

$$$$

     RDKit          2D

 17 19  0  0  0  0  0  0  0  0999 V2000
   -3.0000   -2.5981    0.0000 C   0  0  0  0  0  0  0  0  0  0  0  0
   -1.5000   -2.5981    0.0000 C   0  0  0  0  0  0  0  0  0  0  0  0
   -0.7500   -3.8971    0.0000 C   0  0  0  0  0  0  0  0  0  0  0  0
    0.7500   -3.8971    0.0000 C   0  0  0  0  0  0  0  0  0  0  0  0
    1.5000   -2.5981    0.0000 C   0  0  0  0  0  0  0  0  0  0  0  0
    3.0000   -2.5981    0.0000 N   0  0  0  0  0  0  0  0  0  0  0  0
    3.7500   -3.8971    0.0000 C   0  0  0  0  0  0  0  0  0  0  0  0
    5.2500   -3.8971    0.0000 C   0  0  0  0  0  0  0  0  0  0  0  0
    6.0000   -2.5981    0.0000 N   0  0  0  0  0  0  0  0  0  0  0  0
    5.2500   -1.2990    0.0000 N   0  0  0  0  0  0  0  0  0  0  0  0
    3.7500   -1.2990    0.0000 N   0  0  0  0  0  0  0  0  0  0  0  0
    0.7500   -1.2990    0.0000 C   0  0  0  0  0  0  0  0  0  0  0  0
    1.5000    0.0000    0.0000 C   0  0  0  0  0  0  0  0  0  0  0  0
    0.7500    1.2990    0.0000 C   0  0  0  0  0  0  0  0  0  0  0  0
   -0.7500    1.2990    0.0000 C   0  0  0  0  0  0  0  0  0  0  0  0
   -1.5000    0.0000    0.0000 C   0  0  0  0  0  0  0  0  0  0  0  0
   -0.7500   -1.2990    0.0000 C   0  0  0  0  0  0  0  0  0  0  0  0
  1  2  1  0
  2  3  1  0
  3  4  2  0
  4  5  1  0
  5  6  1  0
  6  7  1  0
  7  8  1  0
  8  9  2  0
  9 10  1  0
 10 11  2  0
  5 12  1  0
 12 13  2  0
 13 14  1  0
 14 15  2  0
 15 16  1  0
 16 17  2  0
 17  2  1  0
 11  6  1  0
 17 12  1  0
M  END
>  <Title>  (1205) 
idABSKgen13

$$$$

     RDKit          2D

 37 41  0  0  0  0  0  0  0  0999 V2000
   -3.1981   -1.5132    0.0000 C   0  0  0  0  0  0  0  0  0  0  0  0
   -1.8991   -2.2632    0.0000 C   0  0  0  0  0  0  0  0  0  0  0  0
   -2.1595   -3.7404    0.0000 C   0  0  0  0  0  0  0  0  0  0  0  0
   -1.4095   -5.0395    0.0000 C   0  0  0  0  0  0  0  0  0  0  0  0
   -0.0000   -5.5525    0.0000 C   0  0  0  0  0  0  0  0  0  0  0  0
    1.4095   -5.0395    0.0000 C   0  0  0  0  0  0  0  0  0  0  0  0
    2.1595   -3.7404    0.0000 C   0  0  0  0  0  0  0  0  0  0  0  0
    1.8991   -2.2632    0.0000 C   0  0  0  0  0  0  0  0  0  0  0  0
    3.1981   -1.5132    0.0000 C   0  0  0  0  0  0  0  0  0  0  0  0
    3.1981   -0.0132    0.0000 O   0  0  0  0  0  0  0  0  0  0  0  0
    4.4971   -2.2632    0.0000 N   0  0  0  0  0  0  0  0  0  0  0  0
    5.7962   -1.5132    0.0000 C   0  0  0  0  0  0  0  0  0  0  0  0
    5.9530   -0.0214    0.0000 N   0  0  0  0  0  0  0  0  0  0  0  0
    7.4202    0.2904    0.0000 N   0  0  0  0  0  0  0  0  0  0  0  0
    8.1702   -1.0086    0.0000 N   0  0  0  0  0  0  0  0  0  0  0  0
    7.1665   -2.1233    0.0000 N   0  0  0  0  0  0  0  0  0  0  0  0
    7.4784   -3.5905    0.0000 N   0  0  0  0  0  0  0  0  0  0  0  0
    8.8487   -4.2007    0.0000 C   0  0  0  0  0  0  0  0  0  0  0  0
    8.6919   -5.6924    0.0000 C   0  0  0  0  0  0  0  0  0  0  0  0
    7.2247   -6.0043    0.0000 N   0  0  0  0  0  0  0  0  0  0  0  0
    6.6146   -7.3746    0.0000 C   0  0  0  0  0  0  0  0  0  0  0  0
    7.4962   -8.5881    0.0000 O   0  0  0  0  0  0  0  0  0  0  0  0
    5.1228   -7.5314    0.0000 N   0  0  0  0  0  0  0  0  0  0  0  0
    4.5127   -8.9017    0.0000 C   0  0  0  0  0  0  0  0  0  0  0  0
    3.0209   -9.0585    0.0000 N   0  0  0  0  0  0  0  0  0  0  0  0
    2.4108  -10.4288    0.0000 N   0  0  0  0  0  0  0  0  0  0  0  0
    3.2925  -11.6424    0.0000 N   0  0  0  0  0  0  0  0  0  0  0  0
    4.7843  -11.4856    0.0000 N   0  0  0  0  0  0  0  0  0  0  0  0
    5.3944  -10.1153    0.0000 N   0  0  0  0  0  0  0  0  0  0  0  0
    6.4747   -4.7053    0.0000 C   0  0  0  0  0  0  0  0  0  0  0  0
    4.9829   -4.5485    0.0000 O   0  0  0  0  0  0  0  0  0  0  0  0
    0.7500   -1.2990    0.0000 C   0  0  0  0  0  0  0  0  0  0  0  0
    1.5000    0.0000    0.0000 C   0  0  0  0  0  0  0  0  0  0  0  0
    0.7500    1.2990    0.0000 C   0  0  0  0  0  0  0  0  0  0  0  0
   -0.7500    1.2990    0.0000 C   0  0  0  0  0  0  0  0  0  0  0  0
   -1.5000    0.0000    0.0000 C   0  0  0  0  0  0  0  0  0  0  0  0
   -0.7500   -1.2990    0.0000 C   0  0  0  0  0  0  0  0  0  0  0  0
  1  2  1  0
  2  3  1  0
  3  4  2  0
  4  5  1  0
  5  6  1  0
  6  7  1  0
  7  8  1  0
  8  9  1  0
  9 10  2  0
  9 11  1  0
 11 12  1  0
 12 13  2  0
 13 14  1  0
 14 15  2  0
 15 16  1  0
 16 17  1  0
 17 18  1  0
 18 19  1  0
 19 20  1  0
 20 21  1  0
 21 22  2  0
 21 23  1  0
 23 24  1  0
 24 25  2  0
 25 26  1  0
 26 27  2  0
 27 28  1  0
 28 29  2  0
 20 30  1  0
 30 31  2  0
  8 32  1  0
 32 33  2  0
 33 34  1  0
 34 35  2  0
 35 36  1  0
 36 37  2  0
 37  2  1  0
 16 12  1  0
 30 17  1  0
 37 32  1  0
 29 24  1  0
M  END
>  <Title>  (1206) 
idABSLgen13

$$$$

     RDKit          2D

 72 73  0  0  0  0  0  0  0  0999 V2000
   -1.6497   -2.5243    0.0000 C   0  0  0  0  0  0  0  0  0  0  0  0
   -0.3697   -3.3064    0.0000 C   0  0  0  0  0  0  0  0  0  0  0  0
   -1.3845   -4.4110    0.0000 C   0  0  0  0  0  0  0  0  0  0  0  0
   -2.2842   -5.6112    0.0000 C   0  0  0  0  0  0  0  0  0  0  0  0
   -3.0600   -6.8951    0.0000 C   0  0  0  0  0  0  0  0  0  0  0  0
   -3.7040   -8.2497    0.0000 C   0  0  0  0  0  0  0  0  0  0  0  0
   -4.2100   -9.6618    0.0000 C   0  0  0  0  0  0  0  0  0  0  0  0
   -4.5729  -11.1173    0.0000 C   0  0  0  0  0  0  0  0  0  0  0  0
   -4.7891  -12.6016    0.0000 C   0  0  0  0  0  0  0  0  0  0  0  0
   -4.8564  -14.1001    0.0000 C   0  0  0  0  0  0  0  0  0  0  0  0
   -4.7741  -15.5978    0.0000 C   0  0  0  0  0  0  0  0  0  0  0  0
   -4.5432  -17.0800    0.0000 C   0  0  0  0  0  0  0  0  0  0  0  0
   -4.1658  -18.5317    0.0000 C   0  0  0  0  0  0  0  0  0  0  0  0
   -3.6458  -19.9387    0.0000 C   0  0  0  0  0  0  0  0  0  0  0  0
   -2.9882  -21.2869    0.0000 C   0  0  0  0  0  0  0  0  0  0  0  0
   -2.1997  -22.5629    0.0000 C   0  0  0  0  0  0  0  0  0  0  0  0
   -1.2880  -23.7540    0.0000 C   0  0  0  0  0  0  0  0  0  0  0  0
   -0.2623  -24.8485    0.0000 C   0  0  0  0  0  0  0  0  0  0  0  0
    0.8673  -25.8354    0.0000 C   0  0  0  0  0  0  0  0  0  0  0  0
    2.0896  -26.7050    0.0000 C   0  0  0  0  0  0  0  0  0  0  0  0
    3.3923  -27.4485    0.0000 C   0  0  0  0  0  0  0  0  0  0  0  0
    4.7627  -28.0586    0.0000 C   0  0  0  0  0  0  0  0  0  0  0  0
    6.1869  -28.5292    0.0000 C   0  0  0  0  0  0  0  0  0  0  0  0
    7.6510  -28.8557    0.0000 C   0  0  0  0  0  0  0  0  0  0  0  0
    9.1402  -29.0348    0.0000 C   0  0  0  0  0  0  0  0  0  0  0  0
   10.6399  -29.0647    0.0000 C   0  0  0  0  0  0  0  0  0  0  0  0
   12.1352  -28.9452    0.0000 C   0  0  0  0  0  0  0  0  0  0  0  0
   13.6110  -28.6773    0.0000 C   0  0  0  0  0  0  0  0  0  0  0  0
   15.0529  -28.2639    0.0000 C   0  0  0  0  0  0  0  0  0  0  0  0
   16.4465  -27.7089    0.0000 C   0  0  0  0  0  0  0  0  0  0  0  0
   17.7779  -27.0179    0.0000 C   0  0  0  0  0  0  0  0  0  0  0  0
   19.0338  -26.1978    0.0000 C   0  0  0  0  0  0  0  0  0  0  0  0
   20.2019  -25.2568    0.0000 C   0  0  0  0  0  0  0  0  0  0  0  0
   21.2705  -24.2041    0.0000 C   0  0  0  0  0  0  0  0  0  0  0  0
   22.2289  -23.0502    0.0000 C   0  0  0  0  0  0  0  0  0  0  0  0
   23.0677  -21.8067    0.0000 C   0  0  0  0  0  0  0  0  0  0  0  0
   23.7785  -20.4858    0.0000 C   0  0  0  0  0  0  0  0  0  0  0  0
   24.3543  -19.1007    0.0000 C   0  0  0  0  0  0  0  0  0  0  0  0
   24.7892  -17.6651    0.0000 C   0  0  0  0  0  0  0  0  0  0  0  0
   25.0791  -16.1934    0.0000 C   0  0  0  0  0  0  0  0  0  0  0  0
   25.2210  -14.7001    0.0000 C   0  0  0  0  0  0  0  0  0  0  0  0
   25.2136  -13.2001    0.0000 C   0  0  0  0  0  0  0  0  0  0  0  0
   25.0568  -11.7084    0.0000 C   0  0  0  0  0  0  0  0  0  0  0  0
   24.7522  -10.2396    0.0000 C   0  0  0  0  0  0  0  0  0  0  0  0
   24.3029   -8.8085    0.0000 C   0  0  0  0  0  0  0  0  0  0  0  0
   23.7134   -7.4292    0.0000 C   0  0  0  0  0  0  0  0  0  0  0  0
   22.9895   -6.1154    0.0000 C   0  0  0  0  0  0  0  0  0  0  0  0
   22.1383   -4.8803    0.0000 C   0  0  0  0  0  0  0  0  0  0  0  0
   21.1684   -3.7361    0.0000 C   0  0  0  0  0  0  0  0  0  0  0  0
   20.0894   -2.6941    0.0000 C   0  0  0  0  0  0  0  0  0  0  0  0
   18.9120   -1.7647    0.0000 C   0  0  0  0  0  0  0  0  0  0  0  0
   17.6479   -0.9572    0.0000 C   0  0  0  0  0  0  0  0  0  0  0  0
   16.3097   -0.2795    0.0000 C   0  0  0  0  0  0  0  0  0  0  0  0
   14.9107    0.2615    0.0000 C   0  0  0  0  0  0  0  0  0  0  0  0
   13.4648    0.6606    0.0000 C   0  0  0  0  0  0  0  0  0  0  0  0
   11.9863    0.9137    0.0000 C   0  0  0  0  0  0  0  0  0  0  0  0
   10.4899    1.0183    0.0000 C   0  0  0  0  0  0  0  0  0  0  0  0
    8.9906    0.9734    0.0000 C   0  0  0  0  0  0  0  0  0  0  0  0
    7.5032    0.7795    0.0000 C   0  0  0  0  0  0  0  0  0  0  0  0
    6.0425    0.4384    0.0000 C   0  0  0  0  0  0  0  0  0  0  0  0
    4.6230   -0.0464    0.0000 C   0  0  0  0  0  0  0  0  0  0  0  0
    3.2588   -0.6701    0.0000 C   0  0  0  0  0  0  0  0  0  0  0  0
    1.9635   -1.4266    0.0000 C   0  0  0  0  0  0  0  0  0  0  0  0
    2.4271    0.0000    0.0000 C   0  0  0  0  0  0  0  0  0  0  0  0
    1.9635    1.4266    0.0000 C   0  0  0  0  0  0  0  0  0  0  0  0
    0.7500    2.3083    0.0000 C   0  0  0  0  0  0  0  0  0  0  0  0
   -0.7500    2.3083    0.0000 C   0  0  0  0  0  0  0  0  0  0  0  0
   -1.9635    1.4266    0.0000 C   0  0  0  0  0  0  0  0  0  0  0  0
   -2.4271    0.0000    0.0000 C   0  0  0  0  0  0  0  0  0  0  0  0
   -1.9635   -1.4266    0.0000 C   0  0  0  0  0  0  0  0  0  0  0  0
   -0.7500   -2.3083    0.0000 C   0  0  0  0  0  0  0  0  0  0  0  0
    0.7500   -2.3083    0.0000 C   0  0  0  0  0  0  0  0  0  0  0  0
  1  2  1  0
  2  3  1  0
  3  4  1  0
  4  5  1  0
  5  6  1  0
  6  7  1  0
  7  8  1  0
  8  9  1  0
  9 10  1  0
 10 11  1  0
 11 12  1  0
 12 13  1  0
 13 14  1  0
 14 15  1  0
 15 16  1  0
 16 17  1  0
 17 18  1  0
 18 19  1  0
 19 20  1  0
 20 21  1  0
 21 22  1  0
 22 23  1  0
 23 24  1  0
 24 25  1  0
 25 26  1  0
 26 27  1  0
 27 28  1  0
 28 29  1  0
 29 30  1  0
 30 31  1  0
 31 32  1  0
 32 33  1  0
 33 34  1  0
 34 35  1  0
 35 36  1  0
 36 37  1  0
 37 38  1  0
 38 39  1  0
 39 40  1  0
 40 41  1  0
 41 42  1  0
 42 43  1  0
 43 44  1  0
 44 45  1  0
 45 46  1  0
 46 47  1  0
 47 48  1  0
 48 49  1  0
 49 50  1  0
 50 51  1  0
 51 52  1  0
 52 53  1  0
 53 54  1  0
 54 55  1  0
 55 56  1  0
 56 57  1  0
 57 58  1  0
 58 59  1  0
 59 60  1  0
 60 61  1  0
 61 62  1  0
 62 63  1  0
 63 64  1  0
 64 65  1  0
 65 66  1  0
 66 67  1  0
 67 68  2  0
 68 69  1  0
 69 70  2  0
 70 71  1  0
 71 72  2  0
 72  2  1  0
 72 63  1  0
M  END
>  <Title>  (1207) 
idABSMgen13

$$$$

     RDKit          2D

 91 94  0  0  0  0  0  0  0  0999 V2000
   -5.5960   -0.5681    0.0000 C   0  0  0  0  0  0  0  0  0  0  0  0
   -5.1838   -2.0103    0.0000 C   0  0  0  0  0  0  0  0  0  0  0  0
   -6.6086   -2.4795    0.0000 C   0  0  0  0  0  0  0  0  0  0  0  0
   -7.9915   -3.0604    0.0000 C   0  0  0  0  0  0  0  0  0  0  0  0
   -9.3239   -3.7494    0.0000 C   0  0  0  0  0  0  0  0  0  0  0  0
  -10.5974   -4.5420    0.0000 C   0  0  0  0  0  0  0  0  0  0  0  0
  -11.8039   -5.4333    0.0000 C   0  0  0  0  0  0  0  0  0  0  0  0
  -12.9357   -6.4176    0.0000 C   0  0  0  0  0  0  0  0  0  0  0  0
  -13.9858   -7.4888    0.0000 C   0  0  0  0  0  0  0  0  0  0  0  0
  -14.9474   -8.6400    0.0000 C   0  0  0  0  0  0  0  0  0  0  0  0
  -15.8146   -9.8639    0.0000 C   0  0  0  0  0  0  0  0  0  0  0  0
  -16.5817  -11.1529    0.0000 C   0  0  0  0  0  0  0  0  0  0  0  0
  -17.2440  -12.4988    0.0000 C   0  0  0  0  0  0  0  0  0  0  0  0
  -17.7973  -13.8930    0.0000 C   0  0  0  0  0  0  0  0  0  0  0  0
  -18.2381  -15.3268    0.0000 C   0  0  0  0  0  0  0  0  0  0  0  0
  -18.5636  -16.7911    0.0000 C   0  0  0  0  0  0  0  0  0  0  0  0
  -18.7717  -18.2765    0.0000 C   0  0  0  0  0  0  0  0  0  0  0  0
  -18.8611  -19.7739    0.0000 C   0  0  0  0  0  0  0  0  0  0  0  0
  -18.8313  -21.2736    0.0000 C   0  0  0  0  0  0  0  0  0  0  0  0
  -18.6824  -22.7662    0.0000 C   0  0  0  0  0  0  0  0  0  0  0  0
  -18.4154  -24.2422    0.0000 C   0  0  0  0  0  0  0  0  0  0  0  0
  -18.0320  -25.6924    0.0000 C   0  0  0  0  0  0  0  0  0  0  0  0
  -17.5345  -27.1075    0.0000 C   0  0  0  0  0  0  0  0  0  0  0  0
  -16.9263  -28.4786    0.0000 C   0  0  0  0  0  0  0  0  0  0  0  0
  -16.2110  -29.7971    0.0000 C   0  0  0  0  0  0  0  0  0  0  0  0
  -15.3932  -31.0546    0.0000 C   0  0  0  0  0  0  0  0  0  0  0  0
  -14.4781  -32.2431    0.0000 C   0  0  0  0  0  0  0  0  0  0  0  0
  -13.4714  -33.3551    0.0000 C   0  0  0  0  0  0  0  0  0  0  0  0
  -12.3796  -34.3837    0.0000 C   0  0  0  0  0  0  0  0  0  0  0  0
  -11.2095  -35.3223    0.0000 C   0  0  0  0  0  0  0  0  0  0  0  0
   -9.9685  -36.1649    0.0000 C   0  0  0  0  0  0  0  0  0  0  0  0
   -8.6646  -36.9063    0.0000 C   0  0  0  0  0  0  0  0  0  0  0  0
   -7.3058  -37.5417    0.0000 C   0  0  0  0  0  0  0  0  0  0  0  0
   -5.9009  -38.0672    0.0000 C   0  0  0  0  0  0  0  0  0  0  0  0
   -4.4586  -38.4793    0.0000 C   0  0  0  0  0  0  0  0  0  0  0  0
   -2.9882  -38.7756    0.0000 C   0  0  0  0  0  0  0  0  0  0  0  0
   -1.4988  -38.9542    0.0000 C   0  0  0  0  0  0  0  0  0  0  0  0
    0.0000  -39.0138    0.0000 C   0  0  0  0  0  0  0  0  0  0  0  0
    1.4988  -38.9542    0.0000 C   0  0  0  0  0  0  0  0  0  0  0  0
    2.9882  -38.7756    0.0000 C   0  0  0  0  0  0  0  0  0  0  0  0
    4.4586  -38.4793    0.0000 C   0  0  0  0  0  0  0  0  0  0  0  0
    5.9009  -38.0672    0.0000 C   0  0  0  0  0  0  0  0  0  0  0  0
    7.3058  -37.5417    0.0000 C   0  0  0  0  0  0  0  0  0  0  0  0
    8.6646  -36.9063    0.0000 C   0  0  0  0  0  0  0  0  0  0  0  0
    9.9685  -36.1649    0.0000 C   0  0  0  0  0  0  0  0  0  0  0  0
   11.2095  -35.3223    0.0000 C   0  0  0  0  0  0  0  0  0  0  0  0
   12.3796  -34.3837    0.0000 C   0  0  0  0  0  0  0  0  0  0  0  0
   13.4714  -33.3551    0.0000 C   0  0  0  0  0  0  0  0  0  0  0  0
   14.4781  -32.2431    0.0000 C   0  0  0  0  0  0  0  0  0  0  0  0
   15.3932  -31.0546    0.0000 C   0  0  0  0  0  0  0  0  0  0  0  0
   16.2110  -29.7971    0.0000 C   0  0  0  0  0  0  0  0  0  0  0  0
   16.9263  -28.4786    0.0000 C   0  0  0  0  0  0  0  0  0  0  0  0
   17.5345  -27.1075    0.0000 C   0  0  0  0  0  0  0  0  0  0  0  0
   18.0320  -25.6924    0.0000 C   0  0  0  0  0  0  0  0  0  0  0  0
   18.4154  -24.2422    0.0000 C   0  0  0  0  0  0  0  0  0  0  0  0
   18.6824  -22.7662    0.0000 C   0  0  0  0  0  0  0  0  0  0  0  0
   18.8313  -21.2736    0.0000 C   0  0  0  0  0  0  0  0  0  0  0  0
   18.8611  -19.7739    0.0000 C   0  0  0  0  0  0  0  0  0  0  0  0
   18.7717  -18.2765    0.0000 C   0  0  0  0  0  0  0  0  0  0  0  0
   18.5636  -16.7911    0.0000 C   0  0  0  0  0  0  0  0  0  0  0  0
   18.2381  -15.3268    0.0000 C   0  0  0  0  0  0  0  0  0  0  0  0
   17.7973  -13.8930    0.0000 C   0  0  0  0  0  0  0  0  0  0  0  0
   17.2440  -12.4988    0.0000 C   0  0  0  0  0  0  0  0  0  0  0  0
   16.5817  -11.1529    0.0000 C   0  0  0  0  0  0  0  0  0  0  0  0
   15.8146   -9.8639    0.0000 C   0  0  0  0  0  0  0  0  0  0  0  0
   14.9474   -8.6400    0.0000 C   0  0  0  0  0  0  0  0  0  0  0  0
   13.9858   -7.4888    0.0000 C   0  0  0  0  0  0  0  0  0  0  0  0
   12.9357   -6.4176    0.0000 C   0  0  0  0  0  0  0  0  0  0  0  0
   11.8039   -5.4333    0.0000 C   0  0  0  0  0  0  0  0  0  0  0  0
   10.5974   -4.5420    0.0000 C   0  0  0  0  0  0  0  0  0  0  0  0
    9.3239   -3.7494    0.0000 C   0  0  0  0  0  0  0  0  0  0  0  0
    7.9915   -3.0604    0.0000 C   0  0  0  0  0  0  0  0  0  0  0  0
    6.6086   -2.4795    0.0000 C   0  0  0  0  0  0  0  0  0  0  0  0
    5.1838   -2.0103    0.0000 C   0  0  0  0  0  0  0  0  0  0  0  0
    3.7263   -1.6558    0.0000 C   0  0  0  0  0  0  0  0  0  0  0  0
    3.9580   -3.1378    0.0000 C   0  0  0  0  0  0  0  0  0  0  0  0
    2.6202   -3.8161    0.0000 C   0  0  0  0  0  0  0  0  0  0  0  0
    1.5616   -2.7534    0.0000 C   0  0  0  0  0  0  0  0  0  0  0  0
    2.2453   -1.4182    0.0000 C   0  0  0  0  0  0  0  0  0  0  0  0
    0.7500   -1.2990    0.0000 C   0  0  0  0  0  0  0  0  0  0  0  0
    1.5000    0.0000    0.0000 C   0  0  0  0  0  0  0  0  0  0  0  0
    0.7500    1.2990    0.0000 C   0  0  0  0  0  0  0  0  0  0  0  0
   -0.7500    1.2990    0.0000 C   0  0  0  0  0  0  0  0  0  0  0  0
   -1.5000    0.0000    0.0000 C   0  0  0  0  0  0  0  0  0  0  0  0
   -0.7500   -1.2990    0.0000 C   0  0  0  0  0  0  0  0  0  0  0  0
   -2.2453   -1.4182    0.0000 C   0  0  0  0  0  0  0  0  0  0  0  0
   -1.2990   -2.5821    0.0000 C   0  0  0  0  0  0  0  0  0  0  0  0
   -1.8337   -3.9835    0.0000 C   0  0  0  0  0  0  0  0  0  0  0  0
   -3.3148   -4.2211    0.0000 C   0  0  0  0  0  0  0  0  0  0  0  0
   -4.2611   -3.0572    0.0000 C   0  0  0  0  0  0  0  0  0  0  0  0
   -3.7263   -1.6558    0.0000 C   0  0  0  0  0  0  0  0  0  0  0  0
  1  2  1  0
  2  3  1  0
  3  4  1  0
  4  5  1  0
  5  6  1  0
  6  7  1  0
  7  8  1  0
  8  9  1  0
  9 10  1  0
 10 11  1  0
 11 12  1  0
 12 13  1  0
 13 14  1  0
 14 15  1  0
 15 16  1  0
 16 17  1  0
 17 18  1  0
 18 19  1  0
 19 20  1  0
 20 21  1  0
 21 22  1  0
 22 23  1  0
 23 24  1  0
 24 25  1  0
 25 26  1  0
 26 27  1  0
 27 28  1  0
 28 29  1  0
 29 30  1  0
 30 31  1  0
 31 32  1  0
 32 33  1  0
 33 34  1  0
 34 35  1  0
 35 36  1  0
 36 37  1  0
 37 38  1  0
 38 39  1  0
 39 40  1  0
 40 41  1  0
 41 42  1  0
 42 43  1  0
 43 44  1  0
 44 45  1  0
 45 46  1  0
 46 47  1  0
 47 48  1  0
 48 49  1  0
 49 50  1  0
 50 51  1  0
 51 52  1  0
 52 53  2  0
 53 54  1  0
 54 55  2  0
 55 56  1  0
 56 57  2  0
 57 58  1  0
 58 59  2  0
 59 60  1  0
 60 61  2  0
 61 62  1  0
 62 63  2  0
 63 64  1  0
 64 65  2  0
 65 66  1  0
 66 67  2  0
 67 68  1  0
 68 69  2  0
 69 70  1  0
 70 71  2  0
 71 72  1  0
 72 73  2  0
 73 74  1  0
 74 75  2  0
 75 76  1  0
 76 77  2  0
 77 78  1  0
 78 79  2  0
 79 80  1  0
 80 81  2  0
 81 82  1  0
 82 83  2  0
 83 84  1  0
 84 85  2  0
 85 86  1  0
 86 87  2  0
 87 88  1  0
 88 89  2  0
 89 90  1  0
 90 91  2  0
 91  2  1  0
 79 75  1  0
 85 80  1  0
 91 86  1  0
M  END
>  <Title>  (1208) 
idABSNgen13

$$$$

     RDKit          2D

 41 46  0  0  0  0  0  0  0  0999 V2000
   -2.3737   -6.1885    0.0000 C   0  0  0  0  0  0  0  0  0  0  0  0
   -1.4095   -5.0395    0.0000 C   0  0  0  0  0  0  0  0  0  0  0  0
   -0.0000   -5.5525    0.0000 C   0  0  0  0  0  0  0  0  0  0  0  0
    1.4095   -5.0395    0.0000 C   0  0  0  0  0  0  0  0  0  0  0  0
    2.1595   -3.7404    0.0000 C   0  0  0  0  0  0  0  0  0  0  0  0
    1.8991   -2.2632    0.0000 C   0  0  0  0  0  0  0  0  0  0  0  0
    3.1981   -1.5132    0.0000 C   0  0  0  0  0  0  0  0  0  0  0  0
    3.1981   -0.0132    0.0000 O   0  0  0  0  0  0  0  0  0  0  0  0
    4.4971   -2.2632    0.0000 N   0  0  0  0  0  0  0  0  0  0  0  0
    5.7962   -1.5132    0.0000 C   0  0  0  0  0  0  0  0  0  0  0  0
    5.9530   -0.0214    0.0000 N   0  0  0  0  0  0  0  0  0  0  0  0
    7.4202    0.2904    0.0000 N   0  0  0  0  0  0  0  0  0  0  0  0
    8.1702   -1.0086    0.0000 N   0  0  0  0  0  0  0  0  0  0  0  0
    7.1665   -2.1233    0.0000 N   0  0  0  0  0  0  0  0  0  0  0  0
    7.4784   -3.5905    0.0000 N   0  0  0  0  0  0  0  0  0  0  0  0
    8.8487   -4.2007    0.0000 C   0  0  0  0  0  0  0  0  0  0  0  0
    8.6919   -5.6924    0.0000 C   0  0  0  0  0  0  0  0  0  0  0  0
    7.2247   -6.0043    0.0000 N   0  0  0  0  0  0  0  0  0  0  0  0
    6.6146   -7.3746    0.0000 C   0  0  0  0  0  0  0  0  0  0  0  0
    7.4962   -8.5881    0.0000 O   0  0  0  0  0  0  0  0  0  0  0  0
    5.1228   -7.5314    0.0000 N   0  0  0  0  0  0  0  0  0  0  0  0
    4.5127   -8.9017    0.0000 C   0  0  0  0  0  0  0  0  0  0  0  0
    3.0209   -9.0585    0.0000 N   0  0  0  0  0  0  0  0  0  0  0  0
    2.4108  -10.4288    0.0000 N   0  0  0  0  0  0  0  0  0  0  0  0
    3.2925  -11.6424    0.0000 N   0  0  0  0  0  0  0  0  0  0  0  0
    4.7843  -11.4856    0.0000 N   0  0  0  0  0  0  0  0  0  0  0  0
    5.3944  -10.1153    0.0000 N   0  0  0  0  0  0  0  0  0  0  0  0
    6.4747   -4.7053    0.0000 C   0  0  0  0  0  0  0  0  0  0  0  0
    4.9829   -4.5485    0.0000 O   0  0  0  0  0  0  0  0  0  0  0  0
    0.7500   -1.2990    0.0000 C   0  0  0  0  0  0  0  0  0  0  0  0
    1.5000    0.0000    0.0000 C   0  0  0  0  0  0  0  0  0  0  0  0
    0.7500    1.2990    0.0000 C   0  0  0  0  0  0  0  0  0  0  0  0
   -0.7500    1.2990    0.0000 C   0  0  0  0  0  0  0  0  0  0  0  0
   -1.5000    0.0000    0.0000 C   0  0  0  0  0  0  0  0  0  0  0  0
   -0.7500   -1.2990    0.0000 C   0  0  0  0  0  0  0  0  0  0  0  0
   -1.8991   -2.2632    0.0000 C   0  0  0  0  0  0  0  0  0  0  0  0
   -3.0481   -1.2990    0.0000 C   0  0  0  0  0  0  0  0  0  0  0  0
   -4.4577   -1.8121    0.0000 C   0  0  0  0  0  0  0  0  0  0  0  0
   -4.7181   -3.2893    0.0000 C   0  0  0  0  0  0  0  0  0  0  0  0
   -3.5691   -4.2535    0.0000 C   0  0  0  0  0  0  0  0  0  0  0  0
   -2.1595   -3.7404    0.0000 C   0  0  0  0  0  0  0  0  0  0  0  0
  1  2  1  0
  2  3  2  0
  3  4  1  0
  4  5  1  0
  5  6  2  0
  6  7  1  0
  7  8  2  0
  7  9  1  0
  9 10  1  0
 10 11  2  0
 11 12  1  0
 12 13  2  0
 13 14  1  0
 14 15  1  0
 15 16  1  0
 16 17  1  0
 17 18  1  0
 18 19  1  0
 19 20  2  0
 19 21  1  0
 21 22  1  0
 22 23  2  0
 23 24  1  0
 24 25  2  0
 25 26  1  0
 26 27  2  0
 18 28  1  0
 28 29  2  0
  6 30  1  0
 30 31  2  0
 31 32  1  0
 32 33  2  0
 33 34  1  0
 34 35  2  0
 35 36  1  0
 36 37  2  0
 37 38  1  0
 38 39  2  0
 39 40  1  0
 40 41  2  0
 41  2  1  0
 14 10  1  0
 28 15  1  0
 35 30  1  0
 41 36  1  0
 27 22  1  0
M  END
>  <Title>  (1209) 
idABSOgen13

$$$$

     RDKit          2D

 11 12  0  0  0  0  0  0  0  0999 V2000
    3.3107   -5.7342    0.0000 C   0  0  0  0  0  0  0  0  0  0  0  0
    2.5607   -4.4352    0.0000 C   0  0  0  0  0  0  0  0  0  0  0  0
    1.1118   -4.0470    0.0000 N   0  0  0  0  0  0  0  0  0  0  0  0
    1.5000   -2.5981    0.0000 C   0  0  0  0  0  0  0  0  0  0  0  0
    0.7500   -1.2990    0.0000 N   0  0  0  0  0  0  0  0  0  0  0  0
    1.5000    0.0000    0.0000 C   0  0  0  0  0  0  0  0  0  0  0  0
    0.7500    1.2990    0.0000 C   0  0  0  0  0  0  0  0  0  0  0  0
   -0.7500    1.2990    0.0000 N   0  0  0  0  0  0  0  0  0  0  0  0
   -1.5000    0.0000    0.0000 N   0  0  0  0  0  0  0  0  0  0  0  0
   -0.7500   -1.2990    0.0000 N   0  0  0  0  0  0  0  0  0  0  0  0
    2.9489   -2.9863    0.0000 C   0  0  0  0  0  0  0  0  0  0  0  0
  1  2  1  0
  2  3  2  0
  3  4  1  0
  4  5  1  0
  5  6  1  0
  6  7  1  0
  7  8  2  0
  8  9  1  0
  9 10  2  0
  4 11  2  0
 11  2  1  0
 10  5  1  0
M  END
>  <Title>  (1210) 
idABSPgen13

$$$$

     RDKit          2D

 68 70  0  0  0  0  0  0  0  0999 V2000
   -2.4764    0.0257    0.0000 C   0  0  0  0  0  0  0  0  0  0  0  0
   -2.2418   -1.4558    0.0000 C   0  0  0  0  0  0  0  0  0  0  0  0
   -3.7090   -1.7677    0.0000 C   0  0  0  0  0  0  0  0  0  0  0  0
   -5.1356   -2.2312    0.0000 C   0  0  0  0  0  0  0  0  0  0  0  0
   -6.5059   -2.8413    0.0000 C   0  0  0  0  0  0  0  0  0  0  0  0
   -7.8049   -3.5913    0.0000 C   0  0  0  0  0  0  0  0  0  0  0  0
   -9.0185   -4.4730    0.0000 C   0  0  0  0  0  0  0  0  0  0  0  0
  -10.1332   -5.4767    0.0000 C   0  0  0  0  0  0  0  0  0  0  0  0
  -11.1369   -6.5914    0.0000 C   0  0  0  0  0  0  0  0  0  0  0  0
  -12.0186   -7.8049    0.0000 C   0  0  0  0  0  0  0  0  0  0  0  0
  -12.7686   -9.1040    0.0000 C   0  0  0  0  0  0  0  0  0  0  0  0
  -13.3787  -10.4743    0.0000 C   0  0  0  0  0  0  0  0  0  0  0  0
  -13.8422  -11.9009    0.0000 C   0  0  0  0  0  0  0  0  0  0  0  0
  -14.1541  -13.3681    0.0000 C   0  0  0  0  0  0  0  0  0  0  0  0
  -14.3109  -14.8599    0.0000 C   0  0  0  0  0  0  0  0  0  0  0  0
  -14.3109  -16.3599    0.0000 C   0  0  0  0  0  0  0  0  0  0  0  0
  -14.1541  -17.8517    0.0000 C   0  0  0  0  0  0  0  0  0  0  0  0
  -13.8422  -19.3189    0.0000 C   0  0  0  0  0  0  0  0  0  0  0  0
  -13.3787  -20.7455    0.0000 C   0  0  0  0  0  0  0  0  0  0  0  0
  -12.7686  -22.1158    0.0000 C   0  0  0  0  0  0  0  0  0  0  0  0
  -12.0186  -23.4148    0.0000 C   0  0  0  0  0  0  0  0  0  0  0  0
  -11.1369  -24.6284    0.0000 C   0  0  0  0  0  0  0  0  0  0  0  0
  -10.1332  -25.7431    0.0000 C   0  0  0  0  0  0  0  0  0  0  0  0
   -9.0185  -26.7468    0.0000 C   0  0  0  0  0  0  0  0  0  0  0  0
   -7.8049  -27.6285    0.0000 C   0  0  0  0  0  0  0  0  0  0  0  0
   -6.5059  -28.3785    0.0000 C   0  0  0  0  0  0  0  0  0  0  0  0
   -5.1356  -28.9886    0.0000 C   0  0  0  0  0  0  0  0  0  0  0  0
   -3.7090  -29.4521    0.0000 C   0  0  0  0  0  0  0  0  0  0  0  0
   -2.2418  -29.7640    0.0000 C   0  0  0  0  0  0  0  0  0  0  0  0
   -0.7500  -29.9207    0.0000 C   0  0  0  0  0  0  0  0  0  0  0  0
    0.7500  -29.9207    0.0000 C   0  0  0  0  0  0  0  0  0  0  0  0
    2.2418  -29.7640    0.0000 C   0  0  0  0  0  0  0  0  0  0  0  0
    3.7090  -29.4521    0.0000 C   0  0  0  0  0  0  0  0  0  0  0  0
    5.1356  -28.9886    0.0000 C   0  0  0  0  0  0  0  0  0  0  0  0
    6.5059  -28.3785    0.0000 C   0  0  0  0  0  0  0  0  0  0  0  0
    7.8049  -27.6285    0.0000 C   0  0  0  0  0  0  0  0  0  0  0  0
    9.0185  -26.7468    0.0000 C   0  0  0  0  0  0  0  0  0  0  0  0
   10.1332  -25.7431    0.0000 C   0  0  0  0  0  0  0  0  0  0  0  0
   11.1369  -24.6284    0.0000 C   0  0  0  0  0  0  0  0  0  0  0  0
   12.0186  -23.4148    0.0000 C   0  0  0  0  0  0  0  0  0  0  0  0
   12.7686  -22.1158    0.0000 C   0  0  0  0  0  0  0  0  0  0  0  0
   13.3787  -20.7455    0.0000 C   0  0  0  0  0  0  0  0  0  0  0  0
   13.8422  -19.3189    0.0000 C   0  0  0  0  0  0  0  0  0  0  0  0
   14.1541  -17.8517    0.0000 C   0  0  0  0  0  0  0  0  0  0  0  0
   14.3109  -16.3599    0.0000 C   0  0  0  0  0  0  0  0  0  0  0  0
   14.3109  -14.8599    0.0000 C   0  0  0  0  0  0  0  0  0  0  0  0
   14.1541  -13.3681    0.0000 C   0  0  0  0  0  0  0  0  0  0  0  0
   13.8422  -11.9009    0.0000 C   0  0  0  0  0  0  0  0  0  0  0  0
   13.3787  -10.4743    0.0000 C   0  0  0  0  0  0  0  0  0  0  0  0
   12.7686   -9.1040    0.0000 C   0  0  0  0  0  0  0  0  0  0  0  0
   12.0186   -7.8049    0.0000 C   0  0  0  0  0  0  0  0  0  0  0  0
   11.1369   -6.5914    0.0000 C   0  0  0  0  0  0  0  0  0  0  0  0
   10.1332   -5.4767    0.0000 C   0  0  0  0  0  0  0  0  0  0  0  0
    9.0185   -4.4730    0.0000 C   0  0  0  0  0  0  0  0  0  0  0  0
    7.8049   -3.5913    0.0000 C   0  0  0  0  0  0  0  0  0  0  0  0
    6.5059   -2.8413    0.0000 C   0  0  0  0  0  0  0  0  0  0  0  0
    5.1356   -2.2312    0.0000 C   0  0  0  0  0  0  0  0  0  0  0  0
    3.7090   -1.7677    0.0000 C   0  0  0  0  0  0  0  0  0  0  0  0
    3.8658   -3.2595    0.0000 C   0  0  0  0  0  0  0  0  0  0  0  0
    2.4955   -3.8696    0.0000 C   0  0  0  0  0  0  0  0  0  0  0  0
    1.4918   -2.7549    0.0000 C   0  0  0  0  0  0  0  0  0  0  0  0
    2.2418   -1.4558    0.0000 C   0  0  0  0  0  0  0  0  0  0  0  0
    0.7500   -1.2990    0.0000 C   0  0  0  0  0  0  0  0  0  0  0  0
    1.5000    0.0000    0.0000 C   0  0  0  0  0  0  0  0  0  0  0  0
    0.7500    1.2990    0.0000 C   0  0  0  0  0  0  0  0  0  0  0  0
   -0.7500    1.2990    0.0000 C   0  0  0  0  0  0  0  0  0  0  0  0
   -1.5000    0.0000    0.0000 C   0  0  0  0  0  0  0  0  0  0  0  0
   -0.7500   -1.2990    0.0000 C   0  0  0  0  0  0  0  0  0  0  0  0
  1  2  1  0
  2  3  1  0
  3  4  1  0
  4  5  1  0
  5  6  1  0
  6  7  1  0
  7  8  1  0
  8  9  1  0
  9 10  1  0
 10 11  1  0
 11 12  1  0
 12 13  1  0
 13 14  1  0
 14 15  1  0
 15 16  1  0
 16 17  1  0
 17 18  1  0
 18 19  1  0
 19 20  1  0
 20 21  1  0
 21 22  1  0
 22 23  1  0
 23 24  1  0
 24 25  1  0
 25 26  1  0
 26 27  1  0
 27 28  1  0
 28 29  1  0
 29 30  2  0
 30 31  1  0
 31 32  2  0
 32 33  1  0
 33 34  2  0
 34 35  1  0
 35 36  2  0
 36 37  1  0
 37 38  2  0
 38 39  1  0
 39 40  2  0
 40 41  1  0
 41 42  2  0
 42 43  1  0
 43 44  2  0
 44 45  1  0
 45 46  2  0
 46 47  1  0
 47 48  2  0
 48 49  1  0
 49 50  2  0
 50 51  1  0
 51 52  2  0
 52 53  1  0
 53 54  2  0
 54 55  1  0
 55 56  2  0
 56 57  1  0
 57 58  2  0
 58 59  1  0
 59 60  2  0
 60 61  1  0
 61 62  2  0
 62 63  1  0
 63 64  2  0
 64 65  1  0
 65 66  2  0
 66 67  1  0
 67 68  2  0
 68  2  1  0
 62 58  1  0
 68 63  1  0
M  END
>  <Title>  (1211) 
idABSQgen13

$$$$

     RDKit          2D

 42 47  0  0  0  0  0  0  0  0999 V2000
   -2.3737   -6.1885    0.0000 C   0  0  0  0  0  0  0  0  0  0  0  0
   -1.4095   -5.0395    0.0000 C   0  0  0  0  0  0  0  0  0  0  0  0
   -0.0000   -5.5525    0.0000 C   0  0  0  0  0  0  0  0  0  0  0  0
    1.4095   -5.0395    0.0000 C   0  0  0  0  0  0  0  0  0  0  0  0
    2.1595   -3.7404    0.0000 C   0  0  0  0  0  0  0  0  0  0  0  0
    1.8991   -2.2632    0.0000 C   0  0  0  0  0  0  0  0  0  0  0  0
    3.1981   -1.5132    0.0000 C   0  0  0  0  0  0  0  0  0  0  0  0
    3.1981   -0.0132    0.0000 O   0  0  0  0  0  0  0  0  0  0  0  0
    4.4971   -2.2632    0.0000 N   0  0  0  0  0  0  0  0  0  0  0  0
    5.7962   -1.5132    0.0000 C   0  0  0  0  0  0  0  0  0  0  0  0
    5.9530   -0.0214    0.0000 N   0  0  0  0  0  0  0  0  0  0  0  0
    7.4202    0.2904    0.0000 N   0  0  0  0  0  0  0  0  0  0  0  0
    8.1702   -1.0086    0.0000 N   0  0  0  0  0  0  0  0  0  0  0  0
    7.1665   -2.1233    0.0000 N   0  0  0  0  0  0  0  0  0  0  0  0
    7.4784   -3.5905    0.0000 C   0  0  0  0  0  0  0  0  0  0  0  0
    8.8487   -4.2007    0.0000 C   0  0  0  0  0  0  0  0  0  0  0  0
    8.6919   -5.6924    0.0000 C   0  0  0  0  0  0  0  0  0  0  0  0
    7.2247   -6.0043    0.0000 C   0  0  0  0  0  0  0  0  0  0  0  0
    6.6146   -7.3746    0.0000 O   0  0  0  0  0  0  0  0  0  0  0  0
    5.1228   -7.5314    0.0000 C   0  0  0  0  0  0  0  0  0  0  0  0
    4.2411   -6.3179    0.0000 O   0  0  0  0  0  0  0  0  0  0  0  0
    4.5127   -8.9017    0.0000 N   0  0  0  0  0  0  0  0  0  0  0  0
    3.0209   -9.0585    0.0000 C   0  0  0  0  0  0  0  0  0  0  0  0
    2.1392   -7.8450    0.0000 N   0  0  0  0  0  0  0  0  0  0  0  0
    0.6474   -8.0018    0.0000 N   0  0  0  0  0  0  0  0  0  0  0  0
    0.0373   -9.3721    0.0000 N   0  0  0  0  0  0  0  0  0  0  0  0
    0.9190  -10.5856    0.0000 N   0  0  0  0  0  0  0  0  0  0  0  0
    2.4108  -10.4288    0.0000 N   0  0  0  0  0  0  0  0  0  0  0  0
    6.4747   -4.7053    0.0000 C   0  0  0  0  0  0  0  0  0  0  0  0
    4.9829   -4.5485    0.0000 O   0  0  0  0  0  0  0  0  0  0  0  0
    0.7500   -1.2990    0.0000 C   0  0  0  0  0  0  0  0  0  0  0  0
    1.5000    0.0000    0.0000 C   0  0  0  0  0  0  0  0  0  0  0  0
    0.7500    1.2990    0.0000 C   0  0  0  0  0  0  0  0  0  0  0  0
   -0.7500    1.2990    0.0000 C   0  0  0  0  0  0  0  0  0  0  0  0
   -1.5000    0.0000    0.0000 C   0  0  0  0  0  0  0  0  0  0  0  0
   -0.7500   -1.2990    0.0000 C   0  0  0  0  0  0  0  0  0  0  0  0
   -1.8991   -2.2632    0.0000 C   0  0  0  0  0  0  0  0  0  0  0  0
   -3.0481   -1.2990    0.0000 C   0  0  0  0  0  0  0  0  0  0  0  0
   -4.4577   -1.8121    0.0000 C   0  0  0  0  0  0  0  0  0  0  0  0
   -4.7181   -3.2893    0.0000 C   0  0  0  0  0  0  0  0  0  0  0  0
   -3.5691   -4.2535    0.0000 C   0  0  0  0  0  0  0  0  0  0  0  0
   -2.1595   -3.7404    0.0000 C   0  0  0  0  0  0  0  0  0  0  0  0
  1  2  1  0
  2  3  1  0
  3  4  2  0
  4  5  1  0
  5  6  1  0
  6  7  1  0
  7  8  2  0
  7  9  1  0
  9 10  1  0
 10 11  2  0
 11 12  1  0
 12 13  2  0
 13 14  1  0
 14 15  1  0
 15 16  2  0
 16 17  1  0
 17 18  2  0
 18 19  1  0
 19 20  1  0
 20 21  2  0
 20 22  1  0
 22 23  1  0
 23 24  2  0
 24 25  1  0
 25 26  2  0
 26 27  1  0
 27 28  2  0
 18 29  1  0
 29 30  2  0
  6 31  1  0
 31 32  2  0
 32 33  1  0
 33 34  2  0
 34 35  1  0
 35 36  2  0
 36 37  1  0
 37 38  2  0
 38 39  1  0
 39 40  2  0
 40 41  1  0
 41 42  2  0
 42  2  1  0
 14 10  1  0
 29 15  1  0
 36 31  1  0
 42 37  1  0
 28 23  1  0
M  END
>  <Title>  (1212) 
idABSRgen13

$$$$

     RDKit          2D

 37 41  0  0  0  0  0  0  0  0999 V2000
   -3.1981   -1.5132    0.0000 C   0  0  0  0  0  0  0  0  0  0  0  0
   -1.8991   -2.2632    0.0000 C   0  0  0  0  0  0  0  0  0  0  0  0
   -2.1595   -3.7404    0.0000 C   0  0  0  0  0  0  0  0  0  0  0  0
   -1.4095   -5.0395    0.0000 C   0  0  0  0  0  0  0  0  0  0  0  0
   -0.0000   -5.5525    0.0000 C   0  0  0  0  0  0  0  0  0  0  0  0
    1.4095   -5.0395    0.0000 C   0  0  0  0  0  0  0  0  0  0  0  0
    2.1595   -3.7404    0.0000 C   0  0  0  0  0  0  0  0  0  0  0  0
    1.8991   -2.2632    0.0000 C   0  0  0  0  0  0  0  0  0  0  0  0
    3.1981   -1.5132    0.0000 C   0  0  0  0  0  0  0  0  0  0  0  0
    3.1981   -0.0132    0.0000 O   0  0  0  0  0  0  0  0  0  0  0  0
    4.4971   -2.2632    0.0000 N   0  0  0  0  0  0  0  0  0  0  0  0
    5.7962   -1.5132    0.0000 C   0  0  0  0  0  0  0  0  0  0  0  0
    5.9530   -0.0214    0.0000 N   0  0  0  0  0  0  0  0  0  0  0  0
    7.4202    0.2904    0.0000 N   0  0  0  0  0  0  0  0  0  0  0  0
    8.1702   -1.0086    0.0000 N   0  0  0  0  0  0  0  0  0  0  0  0
    7.1665   -2.1233    0.0000 N   0  0  0  0  0  0  0  0  0  0  0  0
    7.4784   -3.5905    0.0000 N   0  0  0  0  0  0  0  0  0  0  0  0
    8.8487   -4.2007    0.0000 C   0  0  0  0  0  0  0  0  0  0  0  0
    8.6919   -5.6924    0.0000 C   0  0  0  0  0  0  0  0  0  0  0  0
    7.2247   -6.0043    0.0000 N   0  0  0  0  0  0  0  0  0  0  0  0
    6.6146   -7.3746    0.0000 C   0  0  0  0  0  0  0  0  0  0  0  0
    7.4962   -8.5881    0.0000 O   0  0  0  0  0  0  0  0  0  0  0  0
    5.1228   -7.5314    0.0000 N   0  0  0  0  0  0  0  0  0  0  0  0
    4.5127   -8.9017    0.0000 C   0  0  0  0  0  0  0  0  0  0  0  0
    3.0209   -9.0585    0.0000 N   0  0  0  0  0  0  0  0  0  0  0  0
    2.4108  -10.4288    0.0000 N   0  0  0  0  0  0  0  0  0  0  0  0
    3.2925  -11.6424    0.0000 N   0  0  0  0  0  0  0  0  0  0  0  0
    4.7843  -11.4856    0.0000 N   0  0  0  0  0  0  0  0  0  0  0  0
    5.3944  -10.1153    0.0000 N   0  0  0  0  0  0  0  0  0  0  0  0
    6.4747   -4.7053    0.0000 C   0  0  0  0  0  0  0  0  0  0  0  0
    4.9829   -4.5485    0.0000 O   0  0  0  0  0  0  0  0  0  0  0  0
    0.7500   -1.2990    0.0000 C   0  0  0  0  0  0  0  0  0  0  0  0
    1.5000    0.0000    0.0000 C   0  0  0  0  0  0  0  0  0  0  0  0
    0.7500    1.2990    0.0000 C   0  0  0  0  0  0  0  0  0  0  0  0
   -0.7500    1.2990    0.0000 C   0  0  0  0  0  0  0  0  0  0  0  0
   -1.5000    0.0000    0.0000 C   0  0  0  0  0  0  0  0  0  0  0  0
   -0.7500   -1.2990    0.0000 C   0  0  0  0  0  0  0  0  0  0  0  0
  1  2  1  0
  2  3  1  0
  3  4  1  0
  4  5  1  0
  5  6  2  0
  6  7  1  0
  7  8  2  0
  8  9  1  0
  9 10  2  0
  9 11  1  0
 11 12  1  0
 12 13  2  0
 13 14  1  0
 14 15  2  0
 15 16  1  0
 16 17  1  0
 17 18  1  0
 18 19  1  0
 19 20  1  0
 20 21  1  0
 21 22  2  0
 21 23  1  0
 23 24  1  0
 24 25  2  0
 25 26  1  0
 26 27  2  0
 27 28  1  0
 28 29  2  0
 20 30  1  0
 30 31  2  0
  8 32  1  0
 32 33  2  0
 33 34  1  0
 34 35  2  0
 35 36  1  0
 36 37  2  0
 37  2  1  0
 16 12  1  0
 30 17  1  0
 37 32  1  0
 29 24  1  0
M  END
>  <Title>  (1213) 
idABSSgen13

$$$$

     RDKit          2D

 36 40  0  0  0  0  0  0  0  0999 V2000
   -3.0000   -2.5981    0.0000 C   0  0  0  0  0  0  0  0  0  0  0  0
   -1.5000   -2.5981    0.0000 C   0  0  0  0  0  0  0  0  0  0  0  0
   -0.7500   -3.8971    0.0000 C   0  0  0  0  0  0  0  0  0  0  0  0
    0.7500   -3.8971    0.0000 C   0  0  0  0  0  0  0  0  0  0  0  0
    1.5000   -2.5981    0.0000 C   0  0  0  0  0  0  0  0  0  0  0  0
    3.0000   -2.5981    0.0000 C   0  0  0  0  0  0  0  0  0  0  0  0
    3.7500   -1.2990    0.0000 O   0  0  0  0  0  0  0  0  0  0  0  0
    3.7500   -3.8971    0.0000 N   0  0  0  0  0  0  0  0  0  0  0  0
    5.2500   -3.8971    0.0000 C   0  0  0  0  0  0  0  0  0  0  0  0
    6.1317   -2.6836    0.0000 N   0  0  0  0  0  0  0  0  0  0  0  0
    7.5583   -3.1471    0.0000 N   0  0  0  0  0  0  0  0  0  0  0  0
    7.5583   -4.6471    0.0000 N   0  0  0  0  0  0  0  0  0  0  0  0
    6.1317   -5.1106    0.0000 N   0  0  0  0  0  0  0  0  0  0  0  0
    5.6682   -6.5372    0.0000 N   0  0  0  0  0  0  0  0  0  0  0  0
    6.5498   -7.7508    0.0000 C   0  0  0  0  0  0  0  0  0  0  0  0
    5.6682   -8.9643    0.0000 C   0  0  0  0  0  0  0  0  0  0  0  0
    4.2416   -8.5008    0.0000 N   0  0  0  0  0  0  0  0  0  0  0  0
    3.0280   -9.3824    0.0000 C   0  0  0  0  0  0  0  0  0  0  0  0
    3.1848  -10.8742    0.0000 O   0  0  0  0  0  0  0  0  0  0  0  0
    1.6577   -8.7723    0.0000 N   0  0  0  0  0  0  0  0  0  0  0  0
    0.4442   -9.6540    0.0000 C   0  0  0  0  0  0  0  0  0  0  0  0
   -0.9261   -9.0439    0.0000 N   0  0  0  0  0  0  0  0  0  0  0  0
   -2.1396   -9.9256    0.0000 N   0  0  0  0  0  0  0  0  0  0  0  0
   -1.9829  -11.4174    0.0000 N   0  0  0  0  0  0  0  0  0  0  0  0
   -0.6125  -12.0275    0.0000 N   0  0  0  0  0  0  0  0  0  0  0  0
    0.6010  -11.1458    0.0000 N   0  0  0  0  0  0  0  0  0  0  0  0
    4.2416   -7.0008    0.0000 C   0  0  0  0  0  0  0  0  0  0  0  0
    3.0280   -6.1191    0.0000 O   0  0  0  0  0  0  0  0  0  0  0  0
    0.7500   -1.2990    0.0000 C   0  0  0  0  0  0  0  0  0  0  0  0
    1.5000    0.0000    0.0000 C   0  0  0  0  0  0  0  0  0  0  0  0
    0.7500    1.2990    0.0000 C   0  0  0  0  0  0  0  0  0  0  0  0
   -0.7500    1.2990    0.0000 C   0  0  0  0  0  0  0  0  0  0  0  0
   -1.5000    2.5981    0.0000 C   0  0  0  0  0  0  0  0  0  0  0  0
   -2.2500    3.8971    0.0000 N   0  0  0  0  0  0  0  0  0  0  0  0
   -1.5000    0.0000    0.0000 C   0  0  0  0  0  0  0  0  0  0  0  0
   -0.7500   -1.2990    0.0000 C   0  0  0  0  0  0  0  0  0  0  0  0
  1  2  1  0
  2  3  2  0
  3  4  1  0
  4  5  2  0
  5  6  1  0
  6  7  2  0
  6  8  1  0
  8  9  1  0
  9 10  2  0
 10 11  1  0
 11 12  2  0
 12 13  1  0
 13 14  1  0
 14 15  1  0
 15 16  1  0
 16 17  1  0
 17 18  1  0
 18 19  2  0
 18 20  1  0
 20 21  1  0
 21 22  2  0
 22 23  1  0
 23 24  2  0
 24 25  1  0
 25 26  2  0
 17 27  1  0
 27 28  2  0
  5 29  1  0
 29 30  2  0
 30 31  1  0
 31 32  2  0
 32 33  1  0
 33 34  3  0
 32 35  1  0
 35 36  2  0
 36  2  1  0
 13  9  1  0
 27 14  1  0
 36 29  1  0
 26 21  1  0
M  END
>  <Title>  (1214) 
idABSTgen13

$$$$

     RDKit          2D

 73 74  0  0  0  0  0  0  0  0999 V2000
  -51.1259   84.4331    0.0000 C   0  0  0  0  0  0  0  0  0  0  0  0
  -50.3279   83.1631    0.0000 C   0  0  0  0  0  0  0  0  0  0  0  0
  -49.5298   81.8930    0.0000 C   0  0  0  0  0  0  0  0  0  0  0  0
  -48.7318   80.6229    0.0000 C   0  0  0  0  0  0  0  0  0  0  0  0
  -47.9337   79.3528    0.0000 C   0  0  0  0  0  0  0  0  0  0  0  0
  -47.1357   78.0827    0.0000 C   0  0  0  0  0  0  0  0  0  0  0  0
  -46.3377   76.8126    0.0000 C   0  0  0  0  0  0  0  0  0  0  0  0
  -45.5396   75.5425    0.0000 C   0  0  0  0  0  0  0  0  0  0  0  0
  -44.7416   74.2725    0.0000 C   0  0  0  0  0  0  0  0  0  0  0  0
  -43.9435   73.0024    0.0000 C   0  0  0  0  0  0  0  0  0  0  0  0
  -43.1455   71.7323    0.0000 C   0  0  0  0  0  0  0  0  0  0  0  0
  -42.3474   70.4622    0.0000 C   0  0  0  0  0  0  0  0  0  0  0  0
  -41.5494   69.1921    0.0000 C   0  0  0  0  0  0  0  0  0  0  0  0
  -40.7513   67.9220    0.0000 C   0  0  0  0  0  0  0  0  0  0  0  0
  -39.9533   66.6519    0.0000 C   0  0  0  0  0  0  0  0  0  0  0  0
  -39.1552   65.3819    0.0000 C   0  0  0  0  0  0  0  0  0  0  0  0
  -38.3572   64.1118    0.0000 C   0  0  0  0  0  0  0  0  0  0  0  0
  -37.5591   62.8417    0.0000 C   0  0  0  0  0  0  0  0  0  0  0  0
  -36.7611   61.5716    0.0000 C   0  0  0  0  0  0  0  0  0  0  0  0
  -35.9630   60.3015    0.0000 C   0  0  0  0  0  0  0  0  0  0  0  0
  -35.1650   59.0314    0.0000 C   0  0  0  0  0  0  0  0  0  0  0  0
  -34.3669   57.7613    0.0000 C   0  0  0  0  0  0  0  0  0  0  0  0
  -33.5689   56.4913    0.0000 C   0  0  0  0  0  0  0  0  0  0  0  0
  -32.7708   55.2212    0.0000 C   0  0  0  0  0  0  0  0  0  0  0  0
  -31.9728   53.9511    0.0000 C   0  0  0  0  0  0  0  0  0  0  0  0
  -31.1747   52.6810    0.0000 C   0  0  0  0  0  0  0  0  0  0  0  0
  -30.3767   51.4109    0.0000 C   0  0  0  0  0  0  0  0  0  0  0  0
  -29.5786   50.1408    0.0000 C   0  0  0  0  0  0  0  0  0  0  0  0
  -28.7806   48.8707    0.0000 C   0  0  0  0  0  0  0  0  0  0  0  0
  -27.9825   47.6006    0.0000 C   0  0  0  0  0  0  0  0  0  0  0  0
  -27.1845   46.3306    0.0000 C   0  0  0  0  0  0  0  0  0  0  0  0
  -26.3865   45.0605    0.0000 C   0  0  0  0  0  0  0  0  0  0  0  0
  -25.5884   43.7904    0.0000 C   0  0  0  0  0  0  0  0  0  0  0  0
  -24.7904   42.5203    0.0000 C   0  0  0  0  0  0  0  0  0  0  0  0
  -23.9923   41.2502    0.0000 C   0  0  0  0  0  0  0  0  0  0  0  0
  -23.1943   39.9801    0.0000 C   0  0  0  0  0  0  0  0  0  0  0  0
  -22.3962   38.7100    0.0000 C   0  0  0  0  0  0  0  0  0  0  0  0
  -21.5982   37.4400    0.0000 C   0  0  0  0  0  0  0  0  0  0  0  0
  -20.8001   36.1699    0.0000 C   0  0  0  0  0  0  0  0  0  0  0  0
  -20.0021   34.8998    0.0000 C   0  0  0  0  0  0  0  0  0  0  0  0
  -19.2040   33.6297    0.0000 C   0  0  0  0  0  0  0  0  0  0  0  0
  -18.4060   32.3596    0.0000 C   0  0  0  0  0  0  0  0  0  0  0  0
  -17.6079   31.0895    0.0000 C   0  0  0  0  0  0  0  0  0  0  0  0
  -16.8099   29.8194    0.0000 C   0  0  0  0  0  0  0  0  0  0  0  0
  -16.0118   28.5494    0.0000 C   0  0  0  0  0  0  0  0  0  0  0  0
  -15.2138   27.2793    0.0000 C   0  0  0  0  0  0  0  0  0  0  0  0
  -14.4157   26.0092    0.0000 C   0  0  0  0  0  0  0  0  0  0  0  0
  -13.6177   24.7391    0.0000 C   0  0  0  0  0  0  0  0  0  0  0  0
  -12.8196   23.4690    0.0000 C   0  0  0  0  0  0  0  0  0  0  0  0
  -12.0216   22.1989    0.0000 C   0  0  0  0  0  0  0  0  0  0  0  0
  -11.2235   20.9288    0.0000 C   0  0  0  0  0  0  0  0  0  0  0  0
  -10.4255   19.6587    0.0000 C   0  0  0  0  0  0  0  0  0  0  0  0
   -9.6274   18.3887    0.0000 C   0  0  0  0  0  0  0  0  0  0  0  0
   -8.8294   17.1186    0.0000 C   0  0  0  0  0  0  0  0  0  0  0  0
   -8.0313   15.8485    0.0000 C   0  0  0  0  0  0  0  0  0  0  0  0
   -7.2333   14.5784    0.0000 C   0  0  0  0  0  0  0  0  0  0  0  0
   -6.4352   13.3083    0.0000 C   0  0  0  0  0  0  0  0  0  0  0  0
   -5.6372   12.0382    0.0000 C   0  0  0  0  0  0  0  0  0  0  0  0
   -4.8392   10.7681    0.0000 C   0  0  0  0  0  0  0  0  0  0  0  0
   -4.0411    9.4981    0.0000 C   0  0  0  0  0  0  0  0  0  0  0  0
   -3.2431    8.2280    0.0000 C   0  0  0  0  0  0  0  0  0  0  0  0
   -2.4450    6.9579    0.0000 C   0  0  0  0  0  0  0  0  0  0  0  0
   -1.6470    5.6878    0.0000 C   0  0  0  0  0  0  0  0  0  0  0  0
   -0.8489    4.4177    0.0000 C   0  0  0  0  0  0  0  0  0  0  0  0
   -0.0509    3.1476    0.0000 N   0  0  0  0  0  0  0  0  0  0  0  0
    1.4115    2.8138    0.0000 C   0  0  0  0  0  0  0  0  0  0  0  0
    1.0777    1.3515    0.0000 C   0  0  0  0  0  0  0  0  0  0  0  0
    1.7286    0.0000    0.0000 C   0  0  0  0  0  0  0  0  0  0  0  0
    1.0777   -1.3515    0.0000 C   0  0  0  0  0  0  0  0  0  0  0  0
   -0.3846   -1.6852    0.0000 C   0  0  0  0  0  0  0  0  0  0  0  0
   -1.5574   -0.7500    0.0000 C   0  0  0  0  0  0  0  0  0  0  0  0
   -1.5574    0.7500    0.0000 O   0  0  0  0  0  0  0  0  0  0  0  0
   -0.3846    1.6852    0.0000 C   0  0  0  0  0  0  0  0  0  0  0  0
  1  2  3  0
  2  3  1  0
  3  4  3  0
  4  5  1  0
  5  6  3  0
  6  7  1  0
  7  8  3  0
  8  9  1  0
  9 10  3  0
 10 11  1  0
 11 12  3  0
 12 13  1  0
 13 14  3  0
 14 15  1  0
 15 16  3  0
 16 17  1  0
 17 18  3  0
 18 19  1  0
 19 20  3  0
 20 21  1  0
 21 22  3  0
 22 23  1  0
 23 24  3  0
 24 25  1  0
 25 26  3  0
 26 27  1  0
 27 28  3  0
 28 29  1  0
 29 30  3  0
 30 31  1  0
 31 32  3  0
 32 33  1  0
 33 34  3  0
 34 35  1  0
 35 36  3  0
 36 37  1  0
 37 38  3  0
 38 39  1  0
 39 40  3  0
 40 41  1  0
 41 42  3  0
 42 43  1  0
 43 44  3  0
 44 45  1  0
 45 46  3  0
 46 47  1  0
 47 48  3  0
 48 49  1  0
 49 50  3  0
 50 51  1  0
 51 52  3  0
 52 53  1  0
 53 54  3  0
 54 55  1  0
 55 56  3  0
 56 57  1  0
 57 58  3  0
 58 59  1  0
 59 60  3  0
 60 61  1  0
 61 62  3  0
 62 63  1  0
 63 64  3  0
 64 65  1  0
 65 66  1  0
 66 67  1  0
 67 68  2  0
 68 69  1  0
 69 70  2  0
 70 71  1  0
 71 72  1  0
 72 73  1  0
 73 65  1  0
 73 67  1  0
M  END
>  <Title>  (1215) 
idABSUgen13

$$$$

     RDKit          2D

 71 72  0  0  0  0  0  0  0  0999 V2000
   -2.2371   -1.0554    0.0000 C   0  0  0  0  0  0  0  0  0  0  0  0
   -2.4960    0.4221    0.0000 C   0  0  0  0  0  0  0  0  0  0  0  0
   -3.9840    0.2327    0.0000 C   0  0  0  0  0  0  0  0  0  0  0  0
   -5.4832    0.1835    0.0000 C   0  0  0  0  0  0  0  0  0  0  0  0
   -6.9804    0.2749    0.0000 C   0  0  0  0  0  0  0  0  0  0  0  0
   -8.4625    0.5060    0.0000 C   0  0  0  0  0  0  0  0  0  0  0  0
   -9.9164    0.8750    0.0000 C   0  0  0  0  0  0  0  0  0  0  0  0
  -11.3294    1.3785    0.0000 C   0  0  0  0  0  0  0  0  0  0  0  0
  -12.6890    2.0120    0.0000 C   0  0  0  0  0  0  0  0  0  0  0  0
  -13.9833    2.7701    0.0000 C   0  0  0  0  0  0  0  0  0  0  0  0
  -15.2010    3.6461    0.0000 C   0  0  0  0  0  0  0  0  0  0  0  0
  -16.3313    4.6323    0.0000 C   0  0  0  0  0  0  0  0  0  0  0  0
  -17.3642    5.7199    0.0000 C   0  0  0  0  0  0  0  0  0  0  0  0
  -18.2908    6.8995    0.0000 C   0  0  0  0  0  0  0  0  0  0  0  0
  -19.1028    8.1607    0.0000 C   0  0  0  0  0  0  0  0  0  0  0  0
  -19.7932    9.4924    0.0000 C   0  0  0  0  0  0  0  0  0  0  0  0
  -20.3558   10.8829    0.0000 C   0  0  0  0  0  0  0  0  0  0  0  0
  -20.7858   12.3199    0.0000 C   0  0  0  0  0  0  0  0  0  0  0  0
  -21.0793   13.7909    0.0000 C   0  0  0  0  0  0  0  0  0  0  0  0
  -21.2337   15.2830    0.0000 C   0  0  0  0  0  0  0  0  0  0  0  0
  -21.2478   16.7829    0.0000 C   0  0  0  0  0  0  0  0  0  0  0  0
  -21.1213   18.2776    0.0000 C   0  0  0  0  0  0  0  0  0  0  0  0
  -20.8555   19.7538    0.0000 C   0  0  0  0  0  0  0  0  0  0  0  0
  -20.4526   21.1987    0.0000 C   0  0  0  0  0  0  0  0  0  0  0  0
  -19.9161   22.5995    0.0000 C   0  0  0  0  0  0  0  0  0  0  0  0
  -19.2508   23.9439    0.0000 C   0  0  0  0  0  0  0  0  0  0  0  0
  -18.4626   25.2201    0.0000 C   0  0  0  0  0  0  0  0  0  0  0  0
  -17.5583   26.4169    0.0000 C   0  0  0  0  0  0  0  0  0  0  0  0
  -16.5459   27.5237    0.0000 C   0  0  0  0  0  0  0  0  0  0  0  0
  -15.4344   28.5309    0.0000 C   0  0  0  0  0  0  0  0  0  0  0  0
  -14.2334   29.4295    0.0000 C   0  0  0  0  0  0  0  0  0  0  0  0
  -12.9535   30.2118    0.0000 C   0  0  0  0  0  0  0  0  0  0  0  0
  -11.6060   30.8707    0.0000 C   0  0  0  0  0  0  0  0  0  0  0  0
  -10.2027   31.4006    0.0000 C   0  0  0  0  0  0  0  0  0  0  0  0
   -8.7559   31.7968    0.0000 C   0  0  0  0  0  0  0  0  0  0  0  0
   -7.2785   32.0557    0.0000 C   0  0  0  0  0  0  0  0  0  0  0  0
   -5.7832   32.1751    0.0000 C   0  0  0  0  0  0  0  0  0  0  0  0
   -4.2834   32.1540    0.0000 C   0  0  0  0  0  0  0  0  0  0  0  0
   -2.7921   31.9926    0.0000 C   0  0  0  0  0  0  0  0  0  0  0  0
   -1.3225   31.6922    0.0000 C   0  0  0  0  0  0  0  0  0  0  0  0
    0.1126   31.2555    0.0000 C   0  0  0  0  0  0  0  0  0  0  0  0
    1.5004   30.6864    0.0000 C   0  0  0  0  0  0  0  0  0  0  0  0
    2.8288   29.9898    0.0000 C   0  0  0  0  0  0  0  0  0  0  0  0
    4.0862   29.1718    0.0000 C   0  0  0  0  0  0  0  0  0  0  0  0
    5.2614   28.2397    0.0000 C   0  0  0  0  0  0  0  0  0  0  0  0
    6.3442   27.2017    0.0000 C   0  0  0  0  0  0  0  0  0  0  0  0
    7.3251   26.0668    0.0000 C   0  0  0  0  0  0  0  0  0  0  0  0
    8.1953   24.8451    0.0000 C   0  0  0  0  0  0  0  0  0  0  0  0
    8.9474   23.5472    0.0000 C   0  0  0  0  0  0  0  0  0  0  0  0
    9.5746   22.1846    0.0000 C   0  0  0  0  0  0  0  0  0  0  0  0
   10.0714   20.7693    0.0000 C   0  0  0  0  0  0  0  0  0  0  0  0
   10.4335   19.3137    0.0000 C   0  0  0  0  0  0  0  0  0  0  0  0
   10.6578   17.8305    0.0000 C   0  0  0  0  0  0  0  0  0  0  0  0
   10.7421   16.3329    0.0000 C   0  0  0  0  0  0  0  0  0  0  0  0
   10.6859   14.8339    0.0000 C   0  0  0  0  0  0  0  0  0  0  0  0
   10.4895   13.3468    0.0000 C   0  0  0  0  0  0  0  0  0  0  0  0
   10.1547   11.8847    0.0000 C   0  0  0  0  0  0  0  0  0  0  0  0
    9.6845   10.4603    0.0000 C   0  0  0  0  0  0  0  0  0  0  0  0
    9.0830    9.0862    0.0000 C   0  0  0  0  0  0  0  0  0  0  0  0
    8.3554    7.7744    0.0000 C   0  0  0  0  0  0  0  0  0  0  0  0
    7.5082    6.5366    0.0000 C   0  0  0  0  0  0  0  0  0  0  0  0
    6.5489    5.3835    0.0000 C   0  0  0  0  0  0  0  0  0  0  0  0
    5.4857    4.3253    0.0000 C   0  0  0  0  0  0  0  0  0  0  0  0
    4.3282    3.3714    0.0000 C   0  0  0  0  0  0  0  0  0  0  0  0
    3.0863    2.5300    0.0000 C   0  0  0  0  0  0  0  0  0  0  0  0
    1.7712    1.8086    0.0000 C   0  0  0  0  0  0  0  0  0  0  0  0
    0.3943    1.2135    0.0000 C   0  0  0  0  0  0  0  0  0  0  0  0
    1.2760    0.0000    0.0000 C   0  0  0  0  0  0  0  0  0  0  0  0
    0.3943   -1.2135    0.0000 C   0  0  0  0  0  0  0  0  0  0  0  0
   -1.0323   -0.7500    0.0000 C   0  0  0  0  0  0  0  0  0  0  0  0
   -1.0323    0.7500    0.0000 C   0  0  0  0  0  0  0  0  0  0  0  0
  1  2  1  0
  2  3  1  0
  3  4  2  0
  4  5  1  0
  5  6  1  0
  6  7  1  0
  7  8  1  0
  8  9  1  0
  9 10  1  0
 10 11  1  0
 11 12  1  0
 12 13  1  0
 13 14  1  0
 14 15  1  0
 15 16  1  0
 16 17  1  0
 17 18  1  0
 18 19  1  0
 19 20  1  0
 20 21  1  0
 21 22  1  0
 22 23  1  0
 23 24  1  0
 24 25  1  0
 25 26  1  0
 26 27  1  0
 27 28  1  0
 28 29  1  0
 29 30  1  0
 30 31  1  0
 31 32  1  0
 32 33  1  0
 33 34  1  0
 34 35  2  0
 35 36  1  0
 36 37  2  0
 37 38  1  0
 38 39  2  0
 39 40  1  0
 40 41  2  0
 41 42  1  0
 42 43  2  0
 43 44  1  0
 44 45  2  0
 45 46  1  0
 46 47  2  0
 47 48  1  0
 48 49  2  0
 49 50  1  0
 50 51  2  0
 51 52  1  0
 52 53  2  0
 53 54  1  0
 54 55  2  0
 55 56  1  0
 56 57  2  0
 57 58  1  0
 58 59  2  0
 59 60  1  0
 60 61  2  0
 61 62  1  0
 62 63  2  0
 63 64  1  0
 64 65  2  0
 65 66  1  0
 66 67  2  0
 67 68  1  0
 68 69  2  0
 69 70  1  0
 70 71  2  0
 71  2  1  0
 71 67  1  0
M  END
>  <Title>  (1216) 
idABSVgen13

$$$$

     RDKit          2D

 10 10  0  0  0  0  0  0  0  0999 V2000
    6.0000   -2.5981    0.0000 C   0  0  0  0  0  0  0  0  0  0  0  0
    5.2500   -1.2990    0.0000 C   0  0  0  0  0  0  0  0  0  0  0  0
    3.7500   -1.2990    0.0000 C   0  0  0  0  0  0  0  0  0  0  0  0
    3.0000    0.0000    0.0000 C   0  0  0  0  0  0  0  0  0  0  0  0
    1.5000    0.0000    0.0000 C   0  0  0  0  0  0  0  0  0  0  0  0
    0.7500   -1.2990    0.0000 C   0  0  0  0  0  0  0  0  0  0  0  0
   -0.7500   -1.2990    0.0000 C   0  0  0  0  0  0  0  0  0  0  0  0
   -1.5000    0.0000    0.0000 C   0  0  0  0  0  0  0  0  0  0  0  0
   -0.7500    1.2990    0.0000 C   0  0  0  0  0  0  0  0  0  0  0  0
    0.7500    1.2990    0.0000 C   0  0  0  0  0  0  0  0  0  0  0  0
  1  2  1  0
  2  3  1  0
  3  4  1  0
  4  5  1  0
  5  6  2  0
  6  7  1  0
  7  8  2  0
  8  9  1  0
  9 10  2  0
 10  5  1  0
M  END
>  <Title>  (1217) 
idABSWgen13

$$$$

     RDKit          2D

 36 35  0  0  0  0  0  0  0  0999 V2000
    0.0000    0.0000    0.0000 C   0  0  0  0  0  0  0  0  0  0  0  0
   -0.0000   -1.5000    0.0000 C   0  0  0  0  0  0  0  0  0  0  0  0
   -0.0000   -3.0000    0.0000 C   0  0  0  0  0  0  0  0  0  0  0  0
   -0.0000   -4.5000    0.0000 C   0  0  0  0  0  0  0  0  0  0  0  0
   -0.0000   -6.0000    0.0000 C   0  0  0  0  0  0  0  0  0  0  0  0
   -0.0000   -7.5000    0.0000 C   0  0  0  0  0  0  0  0  0  0  0  0
   -0.0000   -9.0000    0.0000 C   0  0  0  0  0  0  0  0  0  0  0  0
   -0.0000  -10.5000    0.0000 C   0  0  0  0  0  0  0  0  0  0  0  0
   -0.0000  -12.0000    0.0000 C   0  0  0  0  0  0  0  0  0  0  0  0
   -0.0000  -13.5000    0.0000 C   0  0  0  0  0  0  0  0  0  0  0  0
   -0.0000  -15.0000    0.0000 C   0  0  0  0  0  0  0  0  0  0  0  0
   -0.0000  -16.5000    0.0000 C   0  0  0  0  0  0  0  0  0  0  0  0
   -0.0000  -18.0000    0.0000 C   0  0  0  0  0  0  0  0  0  0  0  0
   -0.0000  -19.5000    0.0000 C   0  0  0  0  0  0  0  0  0  0  0  0
   -0.0000  -21.0000    0.0000 C   0  0  0  0  0  0  0  0  0  0  0  0
   -0.0000  -22.5000    0.0000 C   0  0  0  0  0  0  0  0  0  0  0  0
   -0.0000  -24.0000    0.0000 C   0  0  0  0  0  0  0  0  0  0  0  0
   -0.0000  -25.5000    0.0000 C   0  0  0  0  0  0  0  0  0  0  0  0
   -0.0000  -27.0000    0.0000 C   0  0  0  0  0  0  0  0  0  0  0  0
   -0.0000  -28.5000    0.0000 C   0  0  0  0  0  0  0  0  0  0  0  0
   -0.0000  -30.0000    0.0000 C   0  0  0  0  0  0  0  0  0  0  0  0
   -0.0000  -31.5000    0.0000 C   0  0  0  0  0  0  0  0  0  0  0  0
   -0.0000  -33.0000    0.0000 C   0  0  0  0  0  0  0  0  0  0  0  0
   -0.0000  -34.5000    0.0000 C   0  0  0  0  0  0  0  0  0  0  0  0
   -0.0000  -36.0000    0.0000 C   0  0  0  0  0  0  0  0  0  0  0  0
   -0.0000  -37.5000    0.0000 C   0  0  0  0  0  0  0  0  0  0  0  0
   -0.0000  -39.0000    0.0000 C   0  0  0  0  0  0  0  0  0  0  0  0
   -0.0000  -40.5000    0.0000 C   0  0  0  0  0  0  0  0  0  0  0  0
   -0.0000  -42.0000    0.0000 C   0  0  0  0  0  0  0  0  0  0  0  0
   -0.0000  -43.5000    0.0000 C   0  0  0  0  0  0  0  0  0  0  0  0
   -0.0000  -45.0000    0.0000 C   0  0  0  0  0  0  0  0  0  0  0  0
   -0.0000  -46.5000    0.0000 C   0  0  0  0  0  0  0  0  0  0  0  0
   -0.0000  -48.0000    0.0000 C   0  0  0  0  0  0  0  0  0  0  0  0
   -0.0000  -49.5000    0.0000 C   0  0  0  0  0  0  0  0  0  0  0  0
   -0.0000  -51.0000    0.0000 C   0  0  0  0  0  0  0  0  0  0  0  0
   -0.0000  -52.5000    0.0000 C   0  0  0  0  0  0  0  0  0  0  0  0
  1  2  3  0
  2  3  1  0
  3  4  3  0
  4  5  1  0
  5  6  3  0
  6  7  1  0
  7  8  3  0
  8  9  1  0
  9 10  3  0
 10 11  1  0
 11 12  3  0
 12 13  1  0
 13 14  3  0
 14 15  1  0
 15 16  3  0
 16 17  1  0
 17 18  3  0
 18 19  1  0
 19 20  3  0
 20 21  1  0
 21 22  3  0
 22 23  1  0
 23 24  3  0
 24 25  1  0
 25 26  3  0
 26 27  1  0
 27 28  3  0
 28 29  1  0
 29 30  3  0
 30 31  1  0
 31 32  3  0
 32 33  1  0
 33 34  3  0
 34 35  1  0
 35 36  3  0
M  END
>  <Title>  (1218) 
idABSXgen13

$$$$

     RDKit          2D

 11 12  0  0  0  0  0  0  0  0999 V2000
   -4.3202   -4.5321    0.0000 C   0  0  0  0  0  0  0  0  0  0  0  0
   -3.2595   -3.4715    0.0000 C   0  0  0  0  0  0  0  0  0  0  0  0
   -1.8107   -3.8597    0.0000 C   0  0  0  0  0  0  0  0  0  0  0  0
   -0.7500   -2.7990    0.0000 N   0  0  0  0  0  0  0  0  0  0  0  0
    0.7500   -2.7990    0.0000 C   0  0  0  0  0  0  0  0  0  0  0  0
    0.7500   -1.2990    0.0000 C   0  0  0  0  0  0  0  0  0  0  0  0
    1.5000    0.0000    0.0000 C   0  0  0  0  0  0  0  0  0  0  0  0
    0.7500    1.2990    0.0000 C   0  0  0  0  0  0  0  0  0  0  0  0
   -0.7500    1.2990    0.0000 C   0  0  0  0  0  0  0  0  0  0  0  0
   -1.5000    0.0000    0.0000 C   0  0  0  0  0  0  0  0  0  0  0  0
   -0.7500   -1.2990    0.0000 C   0  0  0  0  0  0  0  0  0  0  0  0
  1  2  1  0
  2  3  2  3
  3  4  1  0
  4  5  1  0
  5  6  1  0
  6  7  2  0
  7  8  1  0
  8  9  2  0
  9 10  1  0
 10 11  2  0
 11  4  1  0
 11  6  1  0
M  END
>  <Title>  (1219) 
idABSYgen13

$$$$

     RDKit          2D

 15 16  0  0  0  0  0  0  0  0999 V2000
    5.7760    2.5981    0.0000 C   0  0  0  0  0  0  0  0  0  0  0  0
    5.0260    1.2990    0.0000 N   0  0  0  0  0  0  0  0  0  0  0  0
    3.5260    1.2990    0.0000 C   0  0  0  0  0  0  0  0  0  0  0  0
    2.7760    2.5981    0.0000 O   0  0  0  0  0  0  0  0  0  0  0  0
    2.7760    0.0000    0.0000 N   0  0  0  0  0  0  0  0  0  0  0  0
    1.2760    0.0000    0.0000 C   0  0  0  0  0  0  0  0  0  0  0  0
    0.3943    1.2135    0.0000 N   0  0  0  0  0  0  0  0  0  0  0  0
   -1.0323    0.7500    0.0000 N   0  0  0  0  0  0  0  0  0  0  0  0
   -1.0323   -0.7500    0.0000 N   0  0  0  0  0  0  0  0  0  0  0  0
    0.3943   -1.2135    0.0000 N   0  0  0  0  0  0  0  0  0  0  0  0
    0.8578   -2.6401    0.0000 C   0  0  0  0  0  0  0  0  0  0  0  0
   -0.0239   -3.8536    0.0000 C   0  0  0  0  0  0  0  0  0  0  0  0
    0.8578   -5.0672    0.0000 C   0  0  0  0  0  0  0  0  0  0  0  0
    2.2844   -4.6036    0.0000 C   0  0  0  0  0  0  0  0  0  0  0  0
    2.2844   -3.1036    0.0000 C   0  0  0  0  0  0  0  0  0  0  0  0
  1  2  1  0
  2  3  1  0
  3  4  2  0
  3  5  1  0
  5  6  1  0
  6  7  2  0
  7  8  1  0
  8  9  2  0
  9 10  1  0
 10 11  1  0
 11 12  2  0
 12 13  1  0
 13 14  1  0
 14 15  2  0
 10  6  1  0
 15 11  1  0
M  END
>  <Title>  (1220) 
idABSZgen13

$$$$
