
     RDKit          2D

 10 10  0  0  0  0  0  0  0  0999 V2000
    4.5000    0.0000    0.0000 C   0  0  0  0  0  0  0  0  0  0  0  0
    3.0000    0.0000    0.0000 C   0  0  0  0  0  0  0  0  0  0  0  0
    1.5000    0.0000    0.0000 C   0  0  0  0  0  0  0  0  0  0  0  0
    0.7500   -1.2990    0.0000 C   0  0  0  0  0  0  0  0  0  0  0  0
   -0.7500   -1.2990    0.0000 C   0  0  0  0  0  0  0  0  0  0  0  0
   -1.5000    0.0000    0.0000 C   0  0  0  0  0  0  0  0  0  0  0  0
   -0.7500    1.2990    0.0000 C   0  0  0  0  0  0  0  0  0  0  0  0
   -1.5000    2.5981    0.0000 C   0  0  0  0  0  0  0  0  0  0  0  0
   -2.2500    3.8971    0.0000 C   0  0  0  0  0  0  0  0  0  0  0  0
    0.7500    1.2990    0.0000 C   0  0  0  0  0  0  0  0  0  0  0  0
  1  2  3  0
  2  3  1  0
  3  4  2  0
  4  5  1  0
  5  6  2  0
  6  7  1  0
  7  8  1  0
  8  9  3  0
  7 10  2  0
 10  3  1  0
M  END
>  <Title>  (1) 
idAAAAgen10

$$$$

     RDKit          2D

 10 10  0  0  0  0  0  0  0  0999 V2000
    4.5000   -2.5981    0.0000 C   0  0  0  0  0  0  0  0  0  0  0  0
    3.7500   -1.2990    0.0000 C   0  0  0  0  0  0  0  0  0  0  0  0
    3.0000    0.0000    0.0000 C   0  0  0  0  0  0  0  0  0  0  0  0
    3.7500    1.2990    0.0000 O   0  0  0  0  0  0  0  0  0  0  0  0
    1.5000    0.0000    0.0000 C   0  0  0  0  0  0  0  0  0  0  0  0
    0.7500   -1.2990    0.0000 C   0  0  0  0  0  0  0  0  0  0  0  0
   -0.7500   -1.2990    0.0000 C   0  0  0  0  0  0  0  0  0  0  0  0
   -1.5000    0.0000    0.0000 C   0  0  0  0  0  0  0  0  0  0  0  0
   -0.7500    1.2990    0.0000 C   0  0  0  0  0  0  0  0  0  0  0  0
    0.7500    1.2990    0.0000 C   0  0  0  0  0  0  0  0  0  0  0  0
  1  2  3  0
  2  3  1  0
  3  4  2  0
  3  5  1  0
  5  6  2  0
  6  7  1  0
  7  8  1  0
  8  9  2  0
  9 10  1  0
 10  5  1  0
M  END
>  <Title>  (2) 
idAAABgen10

$$$$

     RDKit          2D

 11 11  0  0  0  0  0  0  0  0999 V2000
    7.5000   -2.5981    0.0000 C   0  0  0  0  0  0  0  0  0  0  0  0
    6.0000   -2.5981    0.0000 C   0  0  0  0  0  0  0  0  0  0  0  0
    5.2500   -1.2990    0.0000 N   0  0  0  0  0  0  0  0  0  0  0  0
    3.7500   -1.2990    0.0000 C   0  0  0  0  0  0  0  0  0  0  0  0
    3.0000    0.0000    0.0000 N   0  0  0  0  0  0  0  0  0  0  0  0
    1.5000    0.0000    0.0000 C   0  0  0  0  0  0  0  0  0  0  0  0
    0.7500   -1.2990    0.0000 C   0  0  0  0  0  0  0  0  0  0  0  0
   -0.7500   -1.2990    0.0000 C   0  0  0  0  0  0  0  0  0  0  0  0
   -1.5000    0.0000    0.0000 C   0  0  0  0  0  0  0  0  0  0  0  0
   -0.7500    1.2990    0.0000 C   0  0  0  0  0  0  0  0  0  0  0  0
    0.7500    1.2990    0.0000 C   0  0  0  0  0  0  0  0  0  0  0  0
  1  2  1  0
  2  3  1  0
  3  4  1  0
  4  5  1  0
  5  6  1  0
  6  7  2  0
  7  8  1  0
  8  9  2  0
  9 10  1  0
 10 11  2  0
 11  6  1  0
M  END
>  <Title>  (3) 
idAAACgen10

$$$$

     RDKit          2D

 10 10  0  0  0  0  0  0  0  0999 V2000
    4.2760   -2.5981    0.0000 C   0  0  0  0  0  0  0  0  0  0  0  0
    3.5260   -1.2990    0.0000 C   0  0  0  0  0  0  0  0  0  0  0  0
    2.7760    0.0000    0.0000 C   0  0  0  0  0  0  0  0  0  0  0  0
    3.5260    1.2990    0.0000 O   0  0  0  0  0  0  0  0  0  0  0  0
    1.2760    0.0000    0.0000 C   0  0  0  0  0  0  0  0  0  0  0  0
    0.3943    1.2135    0.0000 C   0  0  0  0  0  0  0  0  0  0  0  0
   -1.0323    0.7500    0.0000 C   0  0  0  0  0  0  0  0  0  0  0  0
   -2.2458    1.6317    0.0000 C   0  0  0  0  0  0  0  0  0  0  0  0
   -1.0323   -0.7500    0.0000 C   0  0  0  0  0  0  0  0  0  0  0  0
    0.3943   -1.2135    0.0000 C   0  0  0  0  0  0  0  0  0  0  0  0
  1  2  3  0
  2  3  1  0
  3  4  2  0
  3  5  1  0
  5  6  2  0
  6  7  1  0
  7  8  1  0
  7  9  2  0
  9 10  1  0
 10  5  1  0
M  END
>  <Title>  (4) 
idAAADgen10

$$$$

     RDKit          2D

  8  8  0  0  0  0  0  0  0  0999 V2000
    4.5000    0.0000    0.0000 C   0  0  0  0  0  0  0  0  0  0  0  0
    3.0000    0.0000    0.0000 C   0  0  0  0  0  0  0  0  0  0  0  0
    1.5000    0.0000    0.0000 C   0  0  0  0  0  0  0  0  0  0  0  0
    0.7500   -1.2990    0.0000 C   0  0  0  0  0  0  0  0  0  0  0  0
   -0.7500   -1.2990    0.0000 C   0  0  0  0  0  0  0  0  0  0  0  0
   -1.5000    0.0000    0.0000 C   0  0  0  0  0  0  0  0  0  0  0  0
   -0.7500    1.2990    0.0000 C   0  0  0  0  0  0  0  0  0  0  0  0
    0.7500    1.2990    0.0000 C   0  0  0  0  0  0  0  0  0  0  0  0
  1  2  3  0
  2  3  1  0
  3  4  2  0
  4  5  1  0
  5  6  2  0
  6  7  1  0
  7  8  2  0
  8  3  1  0
M  END
>  <Title>  (5) 
idAAAEgen10

$$$$

     RDKit          2D

 10 10  0  0  0  0  0  0  0  0999 V2000
    4.5000   -2.5981    0.0000 C   0  0  0  0  0  0  0  0  0  0  0  0
    3.7500   -1.2990    0.0000 C   0  0  0  0  0  0  0  0  0  0  0  0
    3.0000    0.0000    0.0000 C   0  0  0  0  0  0  0  0  0  0  0  0
    3.7500    1.2990    0.0000 O   0  0  0  0  0  0  0  0  0  0  0  0
    1.5000    0.0000    0.0000 C   0  0  0  0  0  0  0  0  0  0  0  0
    0.7500   -1.2990    0.0000 C   0  0  0  0  0  0  0  0  0  0  0  0
   -0.7500   -1.2990    0.0000 C   0  0  0  0  0  0  0  0  0  0  0  0
   -1.5000    0.0000    0.0000 C   0  0  0  0  0  0  0  0  0  0  0  0
   -0.7500    1.2990    0.0000 C   0  0  0  0  0  0  0  0  0  0  0  0
    0.7500    1.2990    0.0000 C   0  0  0  0  0  0  0  0  0  0  0  0
  1  2  3  0
  2  3  1  0
  3  4  2  0
  3  5  1  0
  5  6  2  0
  6  7  1  0
  7  8  1  0
  8  9  2  0
  9 10  1  0
 10  5  1  0
M  END
>  <Title>  (6) 
idAAAFgen10

$$$$

     RDKit          2D

 10 10  0  0  0  0  0  0  0  0999 V2000
    4.5000   -2.5981    0.0000 C   0  0  0  0  0  0  0  0  0  0  0  0
    3.7500   -1.2990    0.0000 C   0  0  0  0  0  0  0  0  0  0  0  0
    3.0000    0.0000    0.0000 C   0  0  0  0  0  0  0  0  0  0  0  0
    3.7500    1.2990    0.0000 O   0  0  0  0  0  0  0  0  0  0  0  0
    1.5000    0.0000    0.0000 C   0  0  0  0  0  0  0  0  0  0  0  0
    0.7500   -1.2990    0.0000 C   0  0  0  0  0  0  0  0  0  0  0  0
   -0.7500   -1.2990    0.0000 C   0  0  0  0  0  0  0  0  0  0  0  0
   -1.5000    0.0000    0.0000 C   0  0  0  0  0  0  0  0  0  0  0  0
   -0.7500    1.2990    0.0000 C   0  0  0  0  0  0  0  0  0  0  0  0
    0.7500    1.2990    0.0000 C   0  0  0  0  0  0  0  0  0  0  0  0
  1  2  3  0
  2  3  1  0
  3  4  2  0
  3  5  1  0
  5  6  2  0
  6  7  1  0
  7  8  1  0
  8  9  2  0
  9 10  1  0
 10  5  1  0
M  END
>  <Title>  (7) 
idAAAGgen10

$$$$

     RDKit          2D

 21 22  0  0  0  0  0  0  0  0999 V2000
    3.0000    0.0000    0.0000 C   0  0  0  0  0  0  0  0  0  0  0  0
    1.5000    0.0000    0.0000 C   0  0  0  0  0  0  0  0  0  0  0  0
    0.7500   -1.2990    0.0000 C   0  0  0  0  0  0  0  0  0  0  0  0
   -0.7500   -1.2990    0.0000 C   0  0  0  0  0  0  0  0  0  0  0  0
   -1.5000    0.0000    0.0000 C   0  0  0  0  0  0  0  0  0  0  0  0
   -0.7500    1.2990    0.0000 C   0  0  0  0  0  0  0  0  0  0  0  0
    0.7500    1.2990    0.0000 N   0  0  0  0  0  0  0  0  0  0  0  0
    1.5000    2.5981    0.0000 C   0  0  0  0  0  0  0  0  0  0  0  0
    0.7500    3.8971    0.0000 C   0  0  0  0  0  0  0  0  0  0  0  0
    1.5000    5.1962    0.0000 C   0  0  0  0  0  0  0  0  0  0  0  0
    3.0000    5.1962    0.0000 O   0  0  0  0  0  0  0  0  0  0  0  0
    0.7500    6.4952    0.0000 N   0  0  0  0  0  0  0  0  0  0  0  0
    1.5000    7.7942    0.0000 C   0  0  0  0  0  0  0  0  0  0  0  0
    3.0000    7.7942    0.0000 N   0  0  0  0  0  0  0  0  0  0  0  0
    3.7500    9.0933    0.0000 N   0  0  0  0  0  0  0  0  0  0  0  0
    3.0000   10.3923    0.0000 C   0  0  0  0  0  0  0  0  0  0  0  0
    1.5000   10.3923    0.0000 C   0  0  0  0  0  0  0  0  0  0  0  0
    0.7500    9.0933    0.0000 C   0  0  0  0  0  0  0  0  0  0  0  0
   -0.7500    9.0933    0.0000 C   0  0  0  0  0  0  0  0  0  0  0  0
   -1.5000   10.3923    0.0000 C   0  0  0  0  0  0  0  0  0  0  0  0
   -3.0000   10.3923    0.0000 O   0  0  0  0  0  0  0  0  0  0  0  0
  1  2  1  0
  2  3  2  0
  3  4  1  0
  4  5  1  0
  5  6  2  0
  6  7  1  0
  7  8  1  0
  8  9  1  0
  9 10  1  0
 10 11  2  0
 10 12  1  0
 12 13  1  0
 13 14  2  0
 14 15  1  0
 15 16  2  0
 16 17  1  0
 17 18  2  0
 18 19  1  0
 19 20  1  0
 20 21  2  0
  7  2  1  0
 18 13  1  0
M  END
>  <Title>  (8) 
idAAAHgen10

$$$$

     RDKit          2D

 14 14  0  0  0  0  0  0  0  0999 V2000
    7.5000    0.0000    0.0000 C   0  0  0  0  0  0  0  0  0  0  0  0
    6.0000    0.0000    0.0000 C   0  0  0  0  0  0  0  0  0  0  0  0
    4.5000    0.0000    0.0000 C   0  0  0  0  0  0  0  0  0  0  0  0
    3.0000    0.0000    0.0000 C   0  0  0  0  0  0  0  0  0  0  0  0
    1.5000    0.0000    0.0000 C   0  0  0  0  0  0  0  0  0  0  0  0
    0.7500   -1.2990    0.0000 C   0  0  0  0  0  0  0  0  0  0  0  0
    1.5000   -2.5981    0.0000 C   0  0  0  0  0  0  0  0  0  0  0  0
    3.0000   -2.5981    0.0000 O   0  0  0  0  0  0  0  0  0  0  0  0
    0.7500   -3.8971    0.0000 C   0  0  0  0  0  0  0  0  0  0  0  0
   -0.0000   -5.1962    0.0000 C   0  0  0  0  0  0  0  0  0  0  0  0
   -0.7500   -1.2990    0.0000 C   0  0  0  0  0  0  0  0  0  0  0  0
   -1.5000    0.0000    0.0000 C   0  0  0  0  0  0  0  0  0  0  0  0
   -0.7500    1.2990    0.0000 C   0  0  0  0  0  0  0  0  0  0  0  0
    0.7500    1.2990    0.0000 C   0  0  0  0  0  0  0  0  0  0  0  0
  1  2  3  0
  2  3  1  0
  3  4  3  0
  4  5  1  0
  5  6  2  0
  6  7  1  0
  7  8  2  0
  7  9  1  0
  9 10  3  0
  6 11  1  0
 11 12  1  0
 12 13  2  0
 13 14  1  0
 14  5  1  0
M  END
>  <Title>  (9) 
idAAAIgen10

$$$$

     RDKit          2D

 10 10  0  0  0  0  0  0  0  0999 V2000
    7.5000    0.0000    0.0000 C   0  0  0  0  0  0  0  0  0  0  0  0
    6.0000    0.0000    0.0000 C   0  0  0  0  0  0  0  0  0  0  0  0
    4.5000    0.0000    0.0000 C   0  0  0  0  0  0  0  0  0  0  0  0
    3.0000    0.0000    0.0000 C   0  0  0  0  0  0  0  0  0  0  0  0
    1.5000    0.0000    0.0000 C   0  0  0  0  0  0  0  0  0  0  0  0
    0.7500   -1.2990    0.0000 C   0  0  0  0  0  0  0  0  0  0  0  0
   -0.7500   -1.2990    0.0000 C   0  0  0  0  0  0  0  0  0  0  0  0
   -1.5000    0.0000    0.0000 C   0  0  0  0  0  0  0  0  0  0  0  0
   -0.7500    1.2990    0.0000 C   0  0  0  0  0  0  0  0  0  0  0  0
    0.7500    1.2990    0.0000 C   0  0  0  0  0  0  0  0  0  0  0  0
  1  2  3  0
  2  3  1  0
  3  4  3  0
  4  5  1  0
  5  6  2  0
  6  7  1  0
  7  8  2  0
  8  9  1  0
  9 10  2  0
 10  5  1  0
M  END
>  <Title>  (10) 
idAAAJgen10

$$$$

     RDKit          2D

  9  9  0  0  0  0  0  0  0  0999 V2000
    4.2760   -0.0000    0.0000 C   0  0  0  0  0  0  0  0  0  0  0  0
    2.7760    0.0000    0.0000 C   0  0  0  0  0  0  0  0  0  0  0  0
    1.2760    0.0000    0.0000 C   0  0  0  0  0  0  0  0  0  0  0  0
    0.3943    1.2135    0.0000 C   0  0  0  0  0  0  0  0  0  0  0  0
   -1.0323    0.7500    0.0000 C   0  0  0  0  0  0  0  0  0  0  0  0
   -2.2458    1.6317    0.0000 C   0  0  0  0  0  0  0  0  0  0  0  0
   -3.4593    2.5134    0.0000 N   0  0  0  0  0  0  0  0  0  0  0  0
   -1.0323   -0.7500    0.0000 C   0  0  0  0  0  0  0  0  0  0  0  0
    0.3943   -1.2135    0.0000 C   0  0  0  0  0  0  0  0  0  0  0  0
  1  2  3  0
  2  3  1  0
  3  4  1  0
  4  5  2  0
  5  6  1  0
  6  7  3  0
  5  8  1  0
  8  9  1  0
  9  3  1  0
M  END
>  <Title>  (11) 
idAAAKgen10

$$$$

     RDKit          2D

 10 10  0  0  0  0  0  0  0  0999 V2000
    7.5000    0.0000    0.0000 C   0  0  0  0  0  0  0  0  0  0  0  0
    6.0000    0.0000    0.0000 C   0  0  0  0  0  0  0  0  0  0  0  0
    4.5000    0.0000    0.0000 C   0  0  0  0  0  0  0  0  0  0  0  0
    3.0000    0.0000    0.0000 C   0  0  0  0  0  0  0  0  0  0  0  0
    1.5000    0.0000    0.0000 C   0  0  0  0  0  0  0  0  0  0  0  0
    0.7500   -1.2990    0.0000 C   0  0  0  0  0  0  0  0  0  0  0  0
   -0.7500   -1.2990    0.0000 C   0  0  0  0  0  0  0  0  0  0  0  0
   -1.5000    0.0000    0.0000 C   0  0  0  0  0  0  0  0  0  0  0  0
   -0.7500    1.2990    0.0000 C   0  0  0  0  0  0  0  0  0  0  0  0
    0.7500    1.2990    0.0000 C   0  0  0  0  0  0  0  0  0  0  0  0
  1  2  3  0
  2  3  1  0
  3  4  3  0
  4  5  1  0
  5  6  2  0
  6  7  1  0
  7  8  2  0
  8  9  1  0
  9 10  2  0
 10  5  1  0
M  END
>  <Title>  (12) 
idAAALgen10

$$$$

     RDKit          2D

  9  9  0  0  0  0  0  0  0  0999 V2000
    5.7760   -2.5981    0.0000 C   0  0  0  0  0  0  0  0  0  0  0  0
    5.0260   -1.2990    0.0000 C   0  0  0  0  0  0  0  0  0  0  0  0
    3.5260   -1.2990    0.0000 N   0  0  0  0  0  0  0  0  0  0  0  0
    2.7760    0.0000    0.0000 C   0  0  0  0  0  0  0  0  0  0  0  0
    1.2760    0.0000    0.0000 C   0  0  0  0  0  0  0  0  0  0  0  0
    0.3943    1.2135    0.0000 C   0  0  0  0  0  0  0  0  0  0  0  0
   -1.0323    0.7500    0.0000 C   0  0  0  0  0  0  0  0  0  0  0  0
   -1.0323   -0.7500    0.0000 C   0  0  0  0  0  0  0  0  0  0  0  0
    0.3943   -1.2135    0.0000 C   0  0  0  0  0  0  0  0  0  0  0  0
  1  2  1  0
  2  3  1  0
  3  4  1  0
  4  5  1  0
  5  6  2  0
  6  7  1  0
  7  8  2  0
  8  9  1  0
  9  5  1  0
M  END
>  <Title>  (13) 
idAAAMgen10

$$$$

     RDKit          2D

 10 10  0  0  0  0  0  0  0  0999 V2000
    3.0000    0.0000    0.0000 C   0  0  0  0  0  0  0  0  0  0  0  0
    1.5000    0.0000    0.0000 C   0  0  0  0  0  0  0  0  0  0  0  0
    0.7500   -1.2990    0.0000 C   0  0  0  0  0  0  0  0  0  0  0  0
   -0.7500   -1.2990    0.0000 C   0  0  0  0  0  0  0  0  0  0  0  0
   -1.5000    0.0000    0.0000 C   0  0  0  0  0  0  0  0  0  0  0  0
   -3.0000    0.0000    0.0000 C   0  0  0  0  0  0  0  0  0  0  0  0
   -4.5000    0.0000    0.0000 N   0  0  0  0  0  0  0  0  0  0  0  0
   -0.7500    1.2990    0.0000 C   0  0  0  0  0  0  0  0  0  0  0  0
    0.7500    1.2990    0.0000 C   0  0  0  0  0  0  0  0  0  0  0  0
    1.5000    2.5981    0.0000 O   0  0  0  0  0  0  0  0  0  0  0  0
  1  2  1  0
  2  3  2  0
  3  4  1  0
  4  5  2  0
  5  6  1  0
  6  7  3  0
  5  8  1  0
  8  9  1  0
  9 10  2  0
  9  2  1  0
M  END
>  <Title>  (14) 
idAAANgen10

$$$$

     RDKit          2D

  6  6  0  0  0  0  0  0  0  0999 V2000
    1.5000    0.0000    0.0000 C   0  0  0  0  0  0  0  0  0  0  0  0
    0.7500   -1.2990    0.0000 C   0  0  0  0  0  0  0  0  0  0  0  0
   -0.7500   -1.2990    0.0000 C   0  0  0  0  0  0  0  0  0  0  0  0
   -1.5000    0.0000    0.0000 C   0  0  0  0  0  0  0  0  0  0  0  0
   -0.7500    1.2990    0.0000 C   0  0  0  0  0  0  0  0  0  0  0  0
    0.7500    1.2990    0.0000 C   0  0  0  0  0  0  0  0  0  0  0  0
  1  2  2  0
  2  3  1  0
  3  4  2  0
  4  5  1  0
  5  6  2  0
  6  1  1  0
M  END
>  <Title>  (15) 
idAAAOgen10

$$$$

     RDKit          2D

  5  5  0  0  0  0  0  0  0  0999 V2000
    1.2760    0.0000    0.0000 C   0  0  0  0  0  0  0  0  0  0  0  0
    0.3943    1.2135    0.0000 C   0  0  0  0  0  0  0  0  0  0  0  0
   -1.0323    0.7500    0.0000 C   0  0  0  0  0  0  0  0  0  0  0  0
   -1.0323   -0.7500    0.0000 C   0  0  0  0  0  0  0  0  0  0  0  0
    0.3943   -1.2135    0.0000 C   0  0  0  0  0  0  0  0  0  0  0  0
  1  2  2  0
  2  3  1  0
  3  4  1  0
  4  5  2  0
  5  1  1  0
M  END
>  <Title>  (16) 
idAAAPgen10

$$$$

     RDKit          2D

  6  6  0  0  0  0  0  0  0  0999 V2000
    1.5000    0.0000    0.0000 C   0  0  0  0  0  0  0  0  0  0  0  0
    0.7500   -1.2990    0.0000 C   0  0  0  0  0  0  0  0  0  0  0  0
   -0.7500   -1.2990    0.0000 C   0  0  0  0  0  0  0  0  0  0  0  0
   -1.5000    0.0000    0.0000 C   0  0  0  0  0  0  0  0  0  0  0  0
   -0.7500    1.2990    0.0000 C   0  0  0  0  0  0  0  0  0  0  0  0
    0.7500    1.2990    0.0000 C   0  0  0  0  0  0  0  0  0  0  0  0
  1  2  2  0
  2  3  1  0
  3  4  2  0
  4  5  1  0
  5  6  2  0
  6  1  1  0
M  END
>  <Title>  (17) 
idAAAQgen10

$$$$

     RDKit          2D

  7  7  0  0  0  0  0  0  0  0999 V2000
    4.2760   -0.0000    0.0000 C   0  0  0  0  0  0  0  0  0  0  0  0
    2.7760    0.0000    0.0000 C   0  0  0  0  0  0  0  0  0  0  0  0
    1.2760    0.0000    0.0000 C   0  0  0  0  0  0  0  0  0  0  0  0
    0.3943    1.2135    0.0000 C   0  0  0  0  0  0  0  0  0  0  0  0
   -1.0323    0.7500    0.0000 C   0  0  0  0  0  0  0  0  0  0  0  0
   -1.0323   -0.7500    0.0000 C   0  0  0  0  0  0  0  0  0  0  0  0
    0.3943   -1.2135    0.0000 C   0  0  0  0  0  0  0  0  0  0  0  0
  1  2  3  0
  2  3  1  0
  3  4  2  0
  4  5  1  0
  5  6  1  0
  6  7  2  0
  7  3  1  0
M  END
>  <Title>  (18) 
idAAARgen10

$$$$

     RDKit          2D

  6  6  0  0  0  0  0  0  0  0999 V2000
    1.5000    0.0000    0.0000 C   0  0  0  0  0  0  0  0  0  0  0  0
    0.7500   -1.2990    0.0000 C   0  0  0  0  0  0  0  0  0  0  0  0
   -0.7500   -1.2990    0.0000 C   0  0  0  0  0  0  0  0  0  0  0  0
   -1.5000    0.0000    0.0000 C   0  0  0  0  0  0  0  0  0  0  0  0
   -0.7500    1.2990    0.0000 C   0  0  0  0  0  0  0  0  0  0  0  0
    0.7500    1.2990    0.0000 C   0  0  0  0  0  0  0  0  0  0  0  0
  1  2  2  0
  2  3  1  0
  3  4  2  0
  4  5  1  0
  5  6  2  0
  6  1  1  0
M  END
>  <Title>  (19) 
idAAASgen10

$$$$

     RDKit          2D

  9  9  0  0  0  0  0  0  0  0999 V2000
    7.2760   -0.0000    0.0000 C   0  0  0  0  0  0  0  0  0  0  0  0
    5.7760   -0.0000    0.0000 C   0  0  0  0  0  0  0  0  0  0  0  0
    4.2760   -0.0000    0.0000 C   0  0  0  0  0  0  0  0  0  0  0  0
    2.7760    0.0000    0.0000 C   0  0  0  0  0  0  0  0  0  0  0  0
    1.2760    0.0000    0.0000 C   0  0  0  0  0  0  0  0  0  0  0  0
    0.3943    1.2135    0.0000 C   0  0  0  0  0  0  0  0  0  0  0  0
   -1.0323    0.7500    0.0000 C   0  0  0  0  0  0  0  0  0  0  0  0
   -1.0323   -0.7500    0.0000 C   0  0  0  0  0  0  0  0  0  0  0  0
    0.3943   -1.2135    0.0000 C   0  0  0  0  0  0  0  0  0  0  0  0
  1  2  3  0
  2  3  1  0
  3  4  3  0
  4  5  1  0
  5  6  2  0
  6  7  1  0
  7  8  1  0
  8  9  2  0
  9  5  1  0
M  END
>  <Title>  (20) 
idAAATgen10

$$$$

     RDKit          2D

  6  6  0  0  0  0  0  0  0  0999 V2000
    1.5000    0.0000    0.0000 C   0  0  0  0  0  0  0  0  0  0  0  0
    0.7500   -1.2990    0.0000 C   0  0  0  0  0  0  0  0  0  0  0  0
   -0.7500   -1.2990    0.0000 C   0  0  0  0  0  0  0  0  0  0  0  0
   -1.5000    0.0000    0.0000 C   0  0  0  0  0  0  0  0  0  0  0  0
   -0.7500    1.2990    0.0000 C   0  0  0  0  0  0  0  0  0  0  0  0
    0.7500    1.2990    0.0000 C   0  0  0  0  0  0  0  0  0  0  0  0
  1  2  2  0
  2  3  1  0
  3  4  2  0
  4  5  1  0
  5  6  2  0
  6  1  1  0
M  END
>  <Title>  (21) 
idAAAUgen10

$$$$

     RDKit          2D

  9  9  0  0  0  0  0  0  0  0999 V2000
    7.2760   -0.0000    0.0000 C   0  0  0  0  0  0  0  0  0  0  0  0
    5.7760   -0.0000    0.0000 C   0  0  0  0  0  0  0  0  0  0  0  0
    4.2760   -0.0000    0.0000 C   0  0  0  0  0  0  0  0  0  0  0  0
    2.7760    0.0000    0.0000 C   0  0  0  0  0  0  0  0  0  0  0  0
    1.2760    0.0000    0.0000 C   0  0  0  0  0  0  0  0  0  0  0  0
    0.3943    1.2135    0.0000 C   0  0  0  0  0  0  0  0  0  0  0  0
   -1.0323    0.7500    0.0000 C   0  0  0  0  0  0  0  0  0  0  0  0
   -1.0323   -0.7500    0.0000 C   0  0  0  0  0  0  0  0  0  0  0  0
    0.3943   -1.2135    0.0000 C   0  0  0  0  0  0  0  0  0  0  0  0
  1  2  3  0
  2  3  1  0
  3  4  3  0
  4  5  1  0
  5  6  2  0
  6  7  1  0
  7  8  2  0
  8  9  1  0
  9  5  1  0
M  END
>  <Title>  (22) 
idAAAVgen10

$$$$

     RDKit          2D

  6  6  0  0  0  0  0  0  0  0999 V2000
    1.5000    0.0000    0.0000 C   0  0  0  0  0  0  0  0  0  0  0  0
    0.7500   -1.2990    0.0000 C   0  0  0  0  0  0  0  0  0  0  0  0
   -0.7500   -1.2990    0.0000 C   0  0  0  0  0  0  0  0  0  0  0  0
   -1.5000    0.0000    0.0000 C   0  0  0  0  0  0  0  0  0  0  0  0
   -0.7500    1.2990    0.0000 C   0  0  0  0  0  0  0  0  0  0  0  0
    0.7500    1.2990    0.0000 C   0  0  0  0  0  0  0  0  0  0  0  0
  1  2  2  0
  2  3  1  0
  3  4  2  0
  4  5  1  0
  5  6  2  0
  6  1  1  0
M  END
>  <Title>  (23) 
idAAAWgen10

$$$$

     RDKit          2D

 19 21  0  0  0  0  0  0  0  0999 V2000
    3.0000   -2.5981    0.0000 O   0  0  0  0  0  0  0  0  0  0  0  0
    1.5000   -2.5981    0.0000 C   0  0  0  0  0  0  0  0  0  0  0  0
    0.7500   -3.8971    0.0000 O   0  0  0  0  0  0  0  0  0  0  0  0
    1.5000   -5.1962    0.0000 C   0  0  0  0  0  0  0  0  0  0  0  0
    2.9918   -5.3529    0.0000 N   0  0  0  0  0  0  0  0  0  0  0  0
    3.3037   -6.8202    0.0000 N   0  0  0  0  0  0  0  0  0  0  0  0
    2.0046   -7.5702    0.0000 N   0  0  0  0  0  0  0  0  0  0  0  0
    0.8899   -6.5665    0.0000 N   0  0  0  0  0  0  0  0  0  0  0  0
   -0.5773   -6.8783    0.0000 C   0  0  0  0  0  0  0  0  0  0  0  0
   -1.1874   -8.2487    0.0000 C   0  0  0  0  0  0  0  0  0  0  0  0
   -2.6792   -8.0919    0.0000 C   0  0  0  0  0  0  0  0  0  0  0  0
   -2.9911   -6.6246    0.0000 C   0  0  0  0  0  0  0  0  0  0  0  0
   -1.6920   -5.8746    0.0000 C   0  0  0  0  0  0  0  0  0  0  0  0
    0.7500   -1.2990    0.0000 C   0  0  0  0  0  0  0  0  0  0  0  0
    1.5000    0.0000    0.0000 C   0  0  0  0  0  0  0  0  0  0  0  0
    0.7500    1.2990    0.0000 C   0  0  0  0  0  0  0  0  0  0  0  0
   -0.7500    1.2990    0.0000 C   0  0  0  0  0  0  0  0  0  0  0  0
   -1.5000    0.0000    0.0000 C   0  0  0  0  0  0  0  0  0  0  0  0
   -0.7500   -1.2990    0.0000 C   0  0  0  0  0  0  0  0  0  0  0  0
  1  2  2  0
  2  3  1  0
  3  4  1  0
  4  5  2  0
  5  6  1  0
  6  7  2  0
  7  8  1  0
  8  9  1  0
  9 10  2  0
 10 11  1  0
 11 12  2  0
 12 13  1  0
  2 14  1  0
 14 15  1  0
 15 16  2  0
 16 17  1  0
 17 18  2  0
 18 19  1  0
  8  4  1  0
 13  9  1  0
 19 14  1  0
M  END
>  <Title>  (24) 
idAAAXgen10

$$$$

     RDKit          2D

  6  6  0  0  0  0  0  0  0  0999 V2000
    1.5000    0.0000    0.0000 C   0  0  0  0  0  0  0  0  0  0  0  0
    0.7500   -1.2990    0.0000 C   0  0  0  0  0  0  0  0  0  0  0  0
   -0.7500   -1.2990    0.0000 C   0  0  0  0  0  0  0  0  0  0  0  0
   -1.5000    0.0000    0.0000 C   0  0  0  0  0  0  0  0  0  0  0  0
   -0.7500    1.2990    0.0000 C   0  0  0  0  0  0  0  0  0  0  0  0
    0.7500    1.2990    0.0000 C   0  0  0  0  0  0  0  0  0  0  0  0
  1  2  2  0
  2  3  1  0
  3  4  2  0
  4  5  1  0
  5  6  2  0
  6  1  1  0
M  END
>  <Title>  (25) 
idAAAYgen10

$$$$

     RDKit          2D

 19 21  0  0  0  0  0  0  0  0999 V2000
    3.0000   -2.5981    0.0000 O   0  0  0  0  0  0  0  0  0  0  0  0
    1.5000   -2.5981    0.0000 C   0  0  0  0  0  0  0  0  0  0  0  0
    0.7500   -3.8971    0.0000 O   0  0  0  0  0  0  0  0  0  0  0  0
    1.5000   -5.1962    0.0000 C   0  0  0  0  0  0  0  0  0  0  0  0
    2.9918   -5.3529    0.0000 N   0  0  0  0  0  0  0  0  0  0  0  0
    3.3037   -6.8202    0.0000 N   0  0  0  0  0  0  0  0  0  0  0  0
    2.0046   -7.5702    0.0000 N   0  0  0  0  0  0  0  0  0  0  0  0
    0.8899   -6.5665    0.0000 N   0  0  0  0  0  0  0  0  0  0  0  0
   -0.5773   -6.8783    0.0000 C   0  0  0  0  0  0  0  0  0  0  0  0
   -1.1874   -8.2487    0.0000 C   0  0  0  0  0  0  0  0  0  0  0  0
   -2.6792   -8.0919    0.0000 C   0  0  0  0  0  0  0  0  0  0  0  0
   -2.9911   -6.6246    0.0000 C   0  0  0  0  0  0  0  0  0  0  0  0
   -1.6920   -5.8746    0.0000 C   0  0  0  0  0  0  0  0  0  0  0  0
    0.7500   -1.2990    0.0000 C   0  0  0  0  0  0  0  0  0  0  0  0
    1.5000    0.0000    0.0000 C   0  0  0  0  0  0  0  0  0  0  0  0
    0.7500    1.2990    0.0000 C   0  0  0  0  0  0  0  0  0  0  0  0
   -0.7500    1.2990    0.0000 C   0  0  0  0  0  0  0  0  0  0  0  0
   -1.5000    0.0000    0.0000 C   0  0  0  0  0  0  0  0  0  0  0  0
   -0.7500   -1.2990    0.0000 C   0  0  0  0  0  0  0  0  0  0  0  0
  1  2  2  0
  2  3  1  0
  3  4  1  0
  4  5  2  0
  5  6  1  0
  6  7  2  0
  7  8  1  0
  8  9  1  0
  9 10  2  0
 10 11  1  0
 11 12  2  0
 12 13  1  0
  2 14  1  0
 14 15  1  0
 15 16  2  0
 16 17  1  0
 17 18  2  0
 18 19  1  0
  8  4  1  0
 13  9  1  0
 19 14  1  0
M  END
>  <Title>  (26) 
idAAAZgen10

$$$$

     RDKit          2D

  6  6  0  0  0  0  0  0  0  0999 V2000
    1.5000    0.0000    0.0000 C   0  0  0  0  0  0  0  0  0  0  0  0
    0.7500   -1.2990    0.0000 C   0  0  0  0  0  0  0  0  0  0  0  0
   -0.7500   -1.2990    0.0000 C   0  0  0  0  0  0  0  0  0  0  0  0
   -1.5000    0.0000    0.0000 C   0  0  0  0  0  0  0  0  0  0  0  0
   -0.7500    1.2990    0.0000 C   0  0  0  0  0  0  0  0  0  0  0  0
    0.7500    1.2990    0.0000 C   0  0  0  0  0  0  0  0  0  0  0  0
  1  2  2  0
  2  3  1  0
  3  4  2  0
  4  5  1  0
  5  6  2  0
  6  1  1  0
M  END
>  <Title>  (27) 
idAABAgen10

$$$$

     RDKit          2D

 13 13  0  0  0  0  0  0  0  0999 V2000
    7.2760   -0.0000    0.0000 C   0  0  0  0  0  0  0  0  0  0  0  0
    5.7760   -0.0000    0.0000 C   0  0  0  0  0  0  0  0  0  0  0  0
    4.2760   -0.0000    0.0000 C   0  0  0  0  0  0  0  0  0  0  0  0
    2.7760    0.0000    0.0000 C   0  0  0  0  0  0  0  0  0  0  0  0
    1.2760    0.0000    0.0000 C   0  0  0  0  0  0  0  0  0  0  0  0
    0.3943    1.2135    0.0000 C   0  0  0  0  0  0  0  0  0  0  0  0
   -1.0323    0.7500    0.0000 C   0  0  0  0  0  0  0  0  0  0  0  0
   -1.0323   -0.7500    0.0000 C   0  0  0  0  0  0  0  0  0  0  0  0
   -2.2458   -1.6317    0.0000 C   0  0  0  0  0  0  0  0  0  0  0  0
   -3.4593   -2.5134    0.0000 C   0  0  0  0  0  0  0  0  0  0  0  0
   -4.6729   -3.3950    0.0000 C   0  0  0  0  0  0  0  0  0  0  0  0
   -5.8864   -4.2767    0.0000 C   0  0  0  0  0  0  0  0  0  0  0  0
    0.3943   -1.2135    0.0000 C   0  0  0  0  0  0  0  0  0  0  0  0
  1  2  3  0
  2  3  1  0
  3  4  3  0
  4  5  1  0
  5  6  2  0
  6  7  1  0
  7  8  2  0
  8  9  1  0
  9 10  3  0
 10 11  1  0
 11 12  3  0
  8 13  1  0
 13  5  1  0
M  END
>  <Title>  (28) 
idAABBgen10

$$$$

     RDKit          2D

 13 13  0  0  0  0  0  0  0  0999 V2000
   13.2760   -0.0000    0.0000 C   0  0  0  0  0  0  0  0  0  0  0  0
   11.7760   -0.0000    0.0000 C   0  0  0  0  0  0  0  0  0  0  0  0
   10.2760   -0.0000    0.0000 C   0  0  0  0  0  0  0  0  0  0  0  0
    8.7760   -0.0000    0.0000 C   0  0  0  0  0  0  0  0  0  0  0  0
    7.2760   -0.0000    0.0000 C   0  0  0  0  0  0  0  0  0  0  0  0
    5.7760   -0.0000    0.0000 C   0  0  0  0  0  0  0  0  0  0  0  0
    4.2760   -0.0000    0.0000 C   0  0  0  0  0  0  0  0  0  0  0  0
    2.7760    0.0000    0.0000 C   0  0  0  0  0  0  0  0  0  0  0  0
    1.2760    0.0000    0.0000 C   0  0  0  0  0  0  0  0  0  0  0  0
    0.3943    1.2135    0.0000 C   0  0  0  0  0  0  0  0  0  0  0  0
   -1.0323    0.7500    0.0000 C   0  0  0  0  0  0  0  0  0  0  0  0
   -1.0323   -0.7500    0.0000 C   0  0  0  0  0  0  0  0  0  0  0  0
    0.3943   -1.2135    0.0000 C   0  0  0  0  0  0  0  0  0  0  0  0
  1  2  3  0
  2  3  1  0
  3  4  3  0
  4  5  1  0
  5  6  3  0
  6  7  1  0
  7  8  3  0
  8  9  1  0
  9 10  2  0
 10 11  1  0
 11 12  2  0
 12 13  1  0
 13  9  1  0
M  END
>  <Title>  (29) 
idAABCgen10

$$$$

     RDKit          2D

  7  7  0  0  0  0  0  0  0  0999 V2000
    4.2760   -0.0000    0.0000 N   0  0  0  0  0  0  0  0  0  0  0  0
    2.7760    0.0000    0.0000 C   0  0  0  0  0  0  0  0  0  0  0  0
    1.2760    0.0000    0.0000 C   0  0  0  0  0  0  0  0  0  0  0  0
    0.3943    1.2135    0.0000 C   0  0  0  0  0  0  0  0  0  0  0  0
   -1.0323    0.7500    0.0000 C   0  0  0  0  0  0  0  0  0  0  0  0
   -1.0323   -0.7500    0.0000 C   0  0  0  0  0  0  0  0  0  0  0  0
    0.3943   -1.2135    0.0000 C   0  0  0  0  0  0  0  0  0  0  0  0
  1  2  3  0
  2  3  1  0
  3  4  2  0
  4  5  1  0
  5  6  1  0
  6  7  2  0
  7  3  1  0
M  END
>  <Title>  (30) 
idAABDgen10

$$$$

     RDKit          2D

  8  8  0  0  0  0  0  0  0  0999 V2000
    4.5000    0.0000    0.0000 N   0  0  0  0  0  0  0  0  0  0  0  0
    3.0000    0.0000    0.0000 C   0  0  0  0  0  0  0  0  0  0  0  0
    1.5000    0.0000    0.0000 C   0  0  0  0  0  0  0  0  0  0  0  0
    0.7500   -1.2990    0.0000 C   0  0  0  0  0  0  0  0  0  0  0  0
   -0.7500   -1.2990    0.0000 C   0  0  0  0  0  0  0  0  0  0  0  0
   -1.5000    0.0000    0.0000 C   0  0  0  0  0  0  0  0  0  0  0  0
   -0.7500    1.2990    0.0000 C   0  0  0  0  0  0  0  0  0  0  0  0
    0.7500    1.2990    0.0000 C   0  0  0  0  0  0  0  0  0  0  0  0
  1  2  3  0
  2  3  1  0
  3  4  2  0
  4  5  1  0
  5  6  2  0
  6  7  1  0
  7  8  2  0
  8  3  1  0
M  END
>  <Title>  (31) 
idAABEgen10

$$$$

     RDKit          2D

  7  7  0  0  0  0  0  0  0  0999 V2000
    4.2760   -0.0000    0.0000 C   0  0  0  0  0  0  0  0  0  0  0  0
    2.7760    0.0000    0.0000 C   0  0  0  0  0  0  0  0  0  0  0  0
    1.2760    0.0000    0.0000 C   0  0  0  0  0  0  0  0  0  0  0  0
    0.3943    1.2135    0.0000 C   0  0  0  0  0  0  0  0  0  0  0  0
   -1.0323    0.7500    0.0000 C   0  0  0  0  0  0  0  0  0  0  0  0
   -1.0323   -0.7500    0.0000 C   0  0  0  0  0  0  0  0  0  0  0  0
    0.3943   -1.2135    0.0000 C   0  0  0  0  0  0  0  0  0  0  0  0
  1  2  3  0
  2  3  1  0
  3  4  1  0
  4  5  2  0
  5  6  1  0
  6  7  2  0
  7  3  1  0
M  END
>  <Title>  (32) 
idAABFgen10

$$$$

     RDKit          2D

  8  8  0  0  0  0  0  0  0  0999 V2000
    4.5000    0.0000    0.0000 N   0  0  0  0  0  0  0  0  0  0  0  0
    3.0000    0.0000    0.0000 C   0  0  0  0  0  0  0  0  0  0  0  0
    1.5000    0.0000    0.0000 C   0  0  0  0  0  0  0  0  0  0  0  0
    0.7500   -1.2990    0.0000 C   0  0  0  0  0  0  0  0  0  0  0  0
   -0.7500   -1.2990    0.0000 C   0  0  0  0  0  0  0  0  0  0  0  0
   -1.5000    0.0000    0.0000 C   0  0  0  0  0  0  0  0  0  0  0  0
   -0.7500    1.2990    0.0000 C   0  0  0  0  0  0  0  0  0  0  0  0
    0.7500    1.2990    0.0000 C   0  0  0  0  0  0  0  0  0  0  0  0
  1  2  3  0
  2  3  1  0
  3  4  2  0
  4  5  1  0
  5  6  2  0
  6  7  1  0
  7  8  2  0
  8  3  1  0
M  END
>  <Title>  (33) 
idAABGgen10

$$$$

     RDKit          2D

  8  8  0  0  0  0  0  0  0  0999 V2000
    3.7500   -1.2990    0.0000 C   0  0  0  0  0  0  0  0  0  0  0  0
    3.0000    0.0000    0.0000 N   0  0  0  0  0  0  0  0  0  0  0  0
    1.5000    0.0000    0.0000 C   0  0  0  0  0  0  0  0  0  0  0  0
    0.7500   -1.2990    0.0000 C   0  0  0  0  0  0  0  0  0  0  0  0
   -0.7500   -1.2990    0.0000 C   0  0  0  0  0  0  0  0  0  0  0  0
   -1.5000    0.0000    0.0000 C   0  0  0  0  0  0  0  0  0  0  0  0
   -0.7500    1.2990    0.0000 C   0  0  0  0  0  0  0  0  0  0  0  0
    0.7500    1.2990    0.0000 C   0  0  0  0  0  0  0  0  0  0  0  0
  1  2  1  0
  2  3  1  0
  3  4  2  0
  4  5  1  0
  5  6  1  0
  6  7  1  0
  7  8  2  0
  8  3  1  0
M  END
>  <Title>  (34) 
idAABHgen10

$$$$

     RDKit          2D

  4  3  0  0  0  0  0  0  0  0999 V2000
    0.0000    0.0000    0.0000 C   0  0  0  0  0  0  0  0  0  0  0  0
    1.2990    0.7500    0.0000 C   0  0  0  0  0  0  0  0  0  0  0  0
    2.5981   -0.0000    0.0000 C   0  0  0  0  0  0  0  0  0  0  0  0
    3.8971    0.7500    0.0000 C   0  0  0  0  0  0  0  0  0  0  0  0
  1  2  1  0
  2  3  2  3
  3  4  1  0
M  END
>  <Title>  (35) 
idAABIgen10

$$$$

     RDKit          2D

  8  8  0  0  0  0  0  0  0  0999 V2000
    3.0000    0.0000    0.0000 C   0  0  0  0  0  0  0  0  0  0  0  0
    1.5000    0.0000    0.0000 C   0  0  0  0  0  0  0  0  0  0  0  0
    0.7500   -1.2990    0.0000 C   0  0  0  0  0  0  0  0  0  0  0  0
   -0.7500   -1.2990    0.0000 C   0  0  0  0  0  0  0  0  0  0  0  0
   -1.5000    0.0000    0.0000 C   0  0  0  0  0  0  0  0  0  0  0  0
   -0.7500    1.2990    0.0000 C   0  0  0  0  0  0  0  0  0  0  0  0
    0.7500    1.2990    0.0000 C   0  0  0  0  0  0  0  0  0  0  0  0
    1.5000    2.5981    0.0000 O   0  0  0  0  0  0  0  0  0  0  0  0
  1  2  1  0
  2  3  2  0
  3  4  1  0
  4  5  2  0
  5  6  1  0
  6  7  1  0
  7  8  2  0
  7  2  1  0
M  END
>  <Title>  (36) 
idAABJgen10

$$$$

     RDKit          2D

  4  3  0  0  0  0  0  0  0  0999 V2000
    0.0000    0.0000    0.0000 C   0  0  0  0  0  0  0  0  0  0  0  0
    1.2990    0.7500    0.0000 C   0  0  0  0  0  0  0  0  0  0  0  0
    2.5981   -0.0000    0.0000 C   0  0  0  0  0  0  0  0  0  0  0  0
    3.8971    0.7500    0.0000 C   0  0  0  0  0  0  0  0  0  0  0  0
  1  2  1  0
  2  3  2  3
  3  4  1  0
M  END
>  <Title>  (37) 
idAABKgen10

$$$$

     RDKit          2D

  5  4  0  0  0  0  0  0  0  0999 V2000
    0.0000    0.0000    0.0000 C   0  0  0  0  0  0  0  0  0  0  0  0
   -0.0000   -1.5000    0.0000 C   0  0  0  0  0  0  0  0  0  0  0  0
   -0.0000   -3.0000    0.0000 C   0  0  0  0  0  0  0  0  0  0  0  0
    1.2990   -3.7500    0.0000 C   0  0  0  0  0  0  0  0  0  0  0  0
    1.2990   -5.2500    0.0000 C   0  0  0  0  0  0  0  0  0  0  0  0
  1  2  3  0
  2  3  1  0
  3  4  1  0
  4  5  1  0
M  END
>  <Title>  (38) 
idAABLgen10

$$$$

     RDKit          2D

  6  5  0  0  0  0  0  0  0  0999 V2000
    0.0000    0.0000    0.0000 C   0  0  0  0  0  0  0  0  0  0  0  0
   -0.0000   -1.5000    0.0000 C   0  0  0  0  0  0  0  0  0  0  0  0
   -0.0000   -3.0000    0.0000 C   0  0  0  0  0  0  0  0  0  0  0  0
    1.2990   -3.7500    0.0000 C   0  0  0  0  0  0  0  0  0  0  0  0
    1.2990   -5.2500    0.0000 C   0  0  0  0  0  0  0  0  0  0  0  0
    2.5981   -6.0000    0.0000 C   0  0  0  0  0  0  0  0  0  0  0  0
  1  2  3  0
  2  3  1  0
  3  4  1  0
  4  5  2  3
  5  6  1  0
M  END
>  <Title>  (39) 
idAABMgen10

$$$$

     RDKit          2D

 15 15  0  0  0  0  0  0  0  0999 V2000
    7.2760   -0.0000    0.0000 C   0  0  0  0  0  0  0  0  0  0  0  0
    5.7760   -0.0000    0.0000 C   0  0  0  0  0  0  0  0  0  0  0  0
    4.2760   -0.0000    0.0000 C   0  0  0  0  0  0  0  0  0  0  0  0
    2.7760    0.0000    0.0000 C   0  0  0  0  0  0  0  0  0  0  0  0
    1.2760    0.0000    0.0000 C   0  0  0  0  0  0  0  0  0  0  0  0
    0.3943    1.2135    0.0000 C   0  0  0  0  0  0  0  0  0  0  0  0
   -1.0323    0.7500    0.0000 C   0  0  0  0  0  0  0  0  0  0  0  0
   -1.0323   -0.7500    0.0000 C   0  0  0  0  0  0  0  0  0  0  0  0
   -2.2458   -1.6317    0.0000 C   0  0  0  0  0  0  0  0  0  0  0  0
   -2.0890   -3.1235    0.0000 O   0  0  0  0  0  0  0  0  0  0  0  0
   -3.6161   -1.0216    0.0000 N   0  0  0  0  0  0  0  0  0  0  0  0
   -4.8297   -1.9033    0.0000 C   0  0  0  0  0  0  0  0  0  0  0  0
   -3.7729    0.4702    0.0000 C   0  0  0  0  0  0  0  0  0  0  0  0
   -5.1432    1.0803    0.0000 C   0  0  0  0  0  0  0  0  0  0  0  0
    0.3943   -1.2135    0.0000 C   0  0  0  0  0  0  0  0  0  0  0  0
  1  2  3  0
  2  3  1  0
  3  4  3  0
  4  5  1  0
  5  6  2  0
  6  7  1  0
  7  8  2  0
  8  9  1  0
  9 10  2  0
  9 11  1  0
 11 12  1  0
 11 13  1  0
 13 14  1  0
  8 15  1  0
 15  5  1  0
M  END
>  <Title>  (40) 
idAABNgen10

$$$$

     RDKit          2D

  8  7  0  0  0  0  0  0  0  0999 V2000
    0.0000    0.0000    0.0000 C   0  0  0  0  0  0  0  0  0  0  0  0
    1.2990    0.7500    0.0000 C   0  0  0  0  0  0  0  0  0  0  0  0
    2.5981    1.5000    0.0000 C   0  0  0  0  0  0  0  0  0  0  0  0
    3.8971    2.2500    0.0000 C   0  0  0  0  0  0  0  0  0  0  0  0
    5.1962    3.0000    0.0000 C   0  0  0  0  0  0  0  0  0  0  0  0
    6.4952    3.7500    0.0000 C   0  0  0  0  0  0  0  0  0  0  0  0
    7.7942    3.0000    0.0000 C   0  0  0  0  0  0  0  0  0  0  0  0
    9.0933    3.7500    0.0000 C   0  0  0  0  0  0  0  0  0  0  0  0
  1  2  1  0
  2  3  3  0
  3  4  1  0
  4  5  3  0
  5  6  1  0
  6  7  2  3
  7  8  1  0
M  END
>  <Title>  (41) 
idAABOgen10

$$$$

     RDKit          2D

  8  8  0  0  0  0  0  0  0  0999 V2000
    3.0000    0.0000    0.0000 C   0  0  0  0  0  0  0  0  0  0  0  0
    1.5000    0.0000    0.0000 C   0  0  0  0  0  0  0  0  0  0  0  0
    0.7500   -1.2990    0.0000 C   0  0  0  0  0  0  0  0  0  0  0  0
   -0.7500   -1.2990    0.0000 C   0  0  0  0  0  0  0  0  0  0  0  0
   -1.5000    0.0000    0.0000 C   0  0  0  0  0  0  0  0  0  0  0  0
   -0.7500    1.2990    0.0000 C   0  0  0  0  0  0  0  0  0  0  0  0
    0.7500    1.2990    0.0000 C   0  0  0  0  0  0  0  0  0  0  0  0
    1.5000    2.5981    0.0000 O   0  0  0  0  0  0  0  0  0  0  0  0
  1  2  1  0
  2  3  2  0
  3  4  1  0
  4  5  2  0
  5  6  1  0
  6  7  1  0
  7  8  2  0
  7  2  1  0
M  END
>  <Title>  (42) 
idAABPgen10

$$$$

     RDKit          2D

  8  7  0  0  0  0  0  0  0  0999 V2000
    0.0000    0.0000    0.0000 C   0  0  0  0  0  0  0  0  0  0  0  0
    1.2990    0.7500    0.0000 C   0  0  0  0  0  0  0  0  0  0  0  0
    2.5981    1.5000    0.0000 C   0  0  0  0  0  0  0  0  0  0  0  0
    3.8971    2.2500    0.0000 C   0  0  0  0  0  0  0  0  0  0  0  0
    5.1962    3.0000    0.0000 C   0  0  0  0  0  0  0  0  0  0  0  0
    6.4952    3.7500    0.0000 C   0  0  0  0  0  0  0  0  0  0  0  0
    7.7942    3.0000    0.0000 C   0  0  0  0  0  0  0  0  0  0  0  0
    9.0933    3.7500    0.0000 C   0  0  0  0  0  0  0  0  0  0  0  0
  1  2  1  0
  2  3  3  0
  3  4  1  0
  4  5  3  0
  5  6  1  0
  6  7  2  3
  7  8  1  0
M  END
>  <Title>  (43) 
idAABQgen10

$$$$

     RDKit          2D

  8  8  0  0  0  0  0  0  0  0999 V2000
    3.0000    0.0000    0.0000 C   0  0  0  0  0  0  0  0  0  0  0  0
    1.5000    0.0000    0.0000 C   0  0  0  0  0  0  0  0  0  0  0  0
    0.7500   -1.2990    0.0000 C   0  0  0  0  0  0  0  0  0  0  0  0
   -0.7500   -1.2990    0.0000 C   0  0  0  0  0  0  0  0  0  0  0  0
   -1.5000    0.0000    0.0000 C   0  0  0  0  0  0  0  0  0  0  0  0
   -0.7500    1.2990    0.0000 C   0  0  0  0  0  0  0  0  0  0  0  0
    0.7500    1.2990    0.0000 C   0  0  0  0  0  0  0  0  0  0  0  0
    1.5000    2.5981    0.0000 O   0  0  0  0  0  0  0  0  0  0  0  0
  1  2  1  0
  2  3  2  0
  3  4  1  0
  4  5  2  0
  5  6  1  0
  6  7  1  0
  7  8  2  0
  7  2  1  0
M  END
>  <Title>  (44) 
idAABRgen10

$$$$

     RDKit          2D

 12 11  0  0  0  0  0  0  0  0999 V2000
    0.0000    0.0000    0.0000 C   0  0  0  0  0  0  0  0  0  0  0  0
   -0.0000   -1.5000    0.0000 C   0  0  0  0  0  0  0  0  0  0  0  0
   -0.0000   -3.0000    0.0000 C   0  0  0  0  0  0  0  0  0  0  0  0
   -0.0000   -4.5000    0.0000 C   0  0  0  0  0  0  0  0  0  0  0  0
   -0.0000   -6.0000    0.0000 C   0  0  0  0  0  0  0  0  0  0  0  0
    1.2990   -6.7500    0.0000 C   0  0  0  0  0  0  0  0  0  0  0  0
    2.5981   -7.5000    0.0000 C   0  0  0  0  0  0  0  0  0  0  0  0
    3.8971   -8.2500    0.0000 C   0  0  0  0  0  0  0  0  0  0  0  0
    5.1962   -9.0000    0.0000 C   0  0  0  0  0  0  0  0  0  0  0  0
    6.4952   -9.7500    0.0000 C   0  0  0  0  0  0  0  0  0  0  0  0
    6.4952  -11.2500    0.0000 C   0  0  0  0  0  0  0  0  0  0  0  0
    7.7942  -12.0000    0.0000 C   0  0  0  0  0  0  0  0  0  0  0  0
  1  2  3  0
  2  3  1  0
  3  4  3  0
  4  5  1  0
  5  6  1  0
  6  7  3  0
  7  8  1  0
  8  9  3  0
  9 10  1  0
 10 11  2  3
 11 12  1  0
M  END
>  <Title>  (45) 
idAABSgen10

$$$$

     RDKit          2D

  9  9  0  0  0  0  0  0  0  0999 V2000
    4.2760   -0.0000    0.0000 C   0  0  0  0  0  0  0  0  0  0  0  0
    2.7760    0.0000    0.0000 C   0  0  0  0  0  0  0  0  0  0  0  0
    1.2760    0.0000    0.0000 C   0  0  0  0  0  0  0  0  0  0  0  0
    0.3943    1.2135    0.0000 C   0  0  0  0  0  0  0  0  0  0  0  0
   -1.0323    0.7500    0.0000 C   0  0  0  0  0  0  0  0  0  0  0  0
   -2.2458    1.6317    0.0000 C   0  0  0  0  0  0  0  0  0  0  0  0
   -3.4593    2.5134    0.0000 C   0  0  0  0  0  0  0  0  0  0  0  0
   -1.0323   -0.7500    0.0000 C   0  0  0  0  0  0  0  0  0  0  0  0
    0.3943   -1.2135    0.0000 C   0  0  0  0  0  0  0  0  0  0  0  0
  1  2  3  0
  2  3  1  0
  3  4  2  0
  4  5  1  0
  5  6  1  0
  6  7  3  0
  5  8  1  0
  8  9  2  0
  9  3  1  0
M  END
>  <Title>  (46) 
idAABTgen10

$$$$

     RDKit          2D

 12 13  0  0  0  0  0  0  0  0999 V2000
   -0.1459    3.7548    0.0000 O   0  0  0  0  0  0  0  0  0  0  0  0
    0.8578    2.6401    0.0000 C   0  0  0  0  0  0  0  0  0  0  0  0
    0.3943    1.2135    0.0000 C   0  0  0  0  0  0  0  0  0  0  0  0
    1.2760    0.0000    0.0000 C   0  0  0  0  0  0  0  0  0  0  0  0
    0.3943   -1.2135    0.0000 C   0  0  0  0  0  0  0  0  0  0  0  0
   -1.0323   -0.7500    0.0000 C   0  0  0  0  0  0  0  0  0  0  0  0
   -1.0323    0.7500    0.0000 C   0  0  0  0  0  0  0  0  0  0  0  0
    2.3250    2.9520    0.0000 N   0  0  0  0  0  0  0  0  0  0  0  0
    2.9352    4.3223    0.0000 C   0  0  0  0  0  0  0  0  0  0  0  0
    4.4269    4.1655    0.0000 C   0  0  0  0  0  0  0  0  0  0  0  0
    4.7388    2.6983    0.0000 C   0  0  0  0  0  0  0  0  0  0  0  0
    3.4398    1.9483    0.0000 C   0  0  0  0  0  0  0  0  0  0  0  0
  1  2  2  0
  2  3  1  0
  3  4  2  0
  4  5  1  0
  5  6  2  0
  6  7  1  0
  2  8  1  0
  8  9  1  0
  9 10  2  0
 10 11  1  0
 11 12  1  0
  7  3  1  0
 12  8  1  0
M  END
>  <Title>  (47) 
idAABUgen10

$$$$

     RDKit          2D

  6  5  0  0  0  0  0  0  0  0999 V2000
    0.0000    0.0000    0.0000 C   0  0  0  0  0  0  0  0  0  0  0  0
    1.2990    0.7500    0.0000 C   0  0  0  0  0  0  0  0  0  0  0  0
    1.2990    2.2500    0.0000 O   0  0  0  0  0  0  0  0  0  0  0  0
    2.5981   -0.0000    0.0000 C   0  0  0  0  0  0  0  0  0  0  0  0
    3.8971    0.7500    0.0000 C   0  0  0  0  0  0  0  0  0  0  0  0
    5.1962   -0.0000    0.0000 C   0  0  0  0  0  0  0  0  0  0  0  0
  1  2  2  0
  2  3  1  0
  2  4  1  0
  4  5  2  3
  5  6  1  0
M  END
>  <Title>  (48) 
idAABVgen10

$$$$

     RDKit          2D

 10 10  0  0  0  0  0  0  0  0999 V2000
    4.5000    0.0000    0.0000 C   0  0  0  0  0  0  0  0  0  0  0  0
    3.0000    0.0000    0.0000 C   0  0  0  0  0  0  0  0  0  0  0  0
    1.5000    0.0000    0.0000 C   0  0  0  0  0  0  0  0  0  0  0  0
    0.7500   -1.2990    0.0000 C   0  0  0  0  0  0  0  0  0  0  0  0
   -0.7500   -1.2990    0.0000 C   0  0  0  0  0  0  0  0  0  0  0  0
   -1.5000    0.0000    0.0000 C   0  0  0  0  0  0  0  0  0  0  0  0
   -3.0000    0.0000    0.0000 C   0  0  0  0  0  0  0  0  0  0  0  0
   -0.7500    1.2990    0.0000 C   0  0  0  0  0  0  0  0  0  0  0  0
   -1.5000    2.5981    0.0000 O   0  0  0  0  0  0  0  0  0  0  0  0
    0.7500    1.2990    0.0000 C   0  0  0  0  0  0  0  0  0  0  0  0
  1  2  3  0
  2  3  1  0
  3  4  2  0
  4  5  1  0
  5  6  2  0
  6  7  1  0
  6  8  1  0
  8  9  2  0
  8 10  1  0
 10  3  1  0
M  END
>  <Title>  (49) 
idAABWgen10

$$$$

     RDKit          2D

  7  6  0  0  0  0  0  0  0  0999 V2000
    0.0000    0.0000    0.0000 C   0  0  0  0  0  0  0  0  0  0  0  0
    1.2990    0.7500    0.0000 C   0  0  0  0  0  0  0  0  0  0  0  0
    2.5981   -0.0000    0.0000 C   0  0  0  0  0  0  0  0  0  0  0  0
    3.8971    0.7500    0.0000 C   0  0  0  0  0  0  0  0  0  0  0  0
    5.1962   -0.0000    0.0000 C   0  0  0  0  0  0  0  0  0  0  0  0
    6.4952    0.7500    0.0000 C   0  0  0  0  0  0  0  0  0  0  0  0
    7.7942    1.5000    0.0000 N   0  0  0  0  0  0  0  0  0  0  0  0
  1  2  1  0
  2  3  2  3
  3  4  1  0
  4  5  2  3
  5  6  1  0
  6  7  3  0
M  END
>  <Title>  (50) 
idAABXgen10

$$$$

     RDKit          2D

 11 11  0  0  0  0  0  0  0  0999 V2000
    7.5000    0.0000    0.0000 C   0  0  0  0  0  0  0  0  0  0  0  0
    6.0000    0.0000    0.0000 C   0  0  0  0  0  0  0  0  0  0  0  0
    4.5000    0.0000    0.0000 C   0  0  0  0  0  0  0  0  0  0  0  0
    3.0000    0.0000    0.0000 C   0  0  0  0  0  0  0  0  0  0  0  0
    1.5000    0.0000    0.0000 C   0  0  0  0  0  0  0  0  0  0  0  0
    0.7500   -1.2990    0.0000 C   0  0  0  0  0  0  0  0  0  0  0  0
   -0.7500   -1.2990    0.0000 C   0  0  0  0  0  0  0  0  0  0  0  0
   -1.5000   -2.5981    0.0000 C   0  0  0  0  0  0  0  0  0  0  0  0
   -1.5000    0.0000    0.0000 C   0  0  0  0  0  0  0  0  0  0  0  0
   -0.7500    1.2990    0.0000 C   0  0  0  0  0  0  0  0  0  0  0  0
    0.7500    1.2990    0.0000 C   0  0  0  0  0  0  0  0  0  0  0  0
  1  2  3  0
  2  3  1  0
  3  4  3  0
  4  5  1  0
  5  6  2  0
  6  7  1  0
  7  8  1  0
  7  9  1  0
  9 10  1  0
 10 11  1  0
 11  5  1  0
M  END
>  <Title>  (51) 
idAAAAgen10

$$$$

     RDKit          2D

 27 30  0  0  0  0  0  0  0  0999 V2000
   -2.3737   -6.1885    0.0000 C   0  0  0  0  0  0  0  0  0  0  0  0
   -1.4095   -5.0395    0.0000 C   0  0  0  0  0  0  0  0  0  0  0  0
   -0.0000   -5.5525    0.0000 C   0  0  0  0  0  0  0  0  0  0  0  0
    1.4095   -5.0395    0.0000 C   0  0  0  0  0  0  0  0  0  0  0  0
    2.1595   -3.7404    0.0000 C   0  0  0  0  0  0  0  0  0  0  0  0
    1.8991   -2.2632    0.0000 C   0  0  0  0  0  0  0  0  0  0  0  0
    3.1981   -1.5132    0.0000 C   0  0  0  0  0  0  0  0  0  0  0  0
    3.1981   -0.0132    0.0000 O   0  0  0  0  0  0  0  0  0  0  0  0
    4.4971   -2.2632    0.0000 N   0  0  0  0  0  0  0  0  0  0  0  0
    5.7962   -1.5132    0.0000 C   0  0  0  0  0  0  0  0  0  0  0  0
    7.0952   -2.2632    0.0000 N   0  0  0  0  0  0  0  0  0  0  0  0
    8.3943   -1.5132    0.0000 N   0  0  0  0  0  0  0  0  0  0  0  0
    8.3943   -0.0132    0.0000 N   0  0  0  0  0  0  0  0  0  0  0  0
    7.0952    0.7368    0.0000 N   0  0  0  0  0  0  0  0  0  0  0  0
    5.7962   -0.0132    0.0000 N   0  0  0  0  0  0  0  0  0  0  0  0
    0.7500   -1.2990    0.0000 C   0  0  0  0  0  0  0  0  0  0  0  0
    1.5000    0.0000    0.0000 C   0  0  0  0  0  0  0  0  0  0  0  0
    0.7500    1.2990    0.0000 C   0  0  0  0  0  0  0  0  0  0  0  0
   -0.7500    1.2990    0.0000 C   0  0  0  0  0  0  0  0  0  0  0  0
   -1.5000    0.0000    0.0000 C   0  0  0  0  0  0  0  0  0  0  0  0
   -0.7500   -1.2990    0.0000 C   0  0  0  0  0  0  0  0  0  0  0  0
   -1.8991   -2.2632    0.0000 C   0  0  0  0  0  0  0  0  0  0  0  0
   -3.0481   -1.2990    0.0000 C   0  0  0  0  0  0  0  0  0  0  0  0
   -4.4577   -1.8121    0.0000 C   0  0  0  0  0  0  0  0  0  0  0  0
   -4.7181   -3.2893    0.0000 C   0  0  0  0  0  0  0  0  0  0  0  0
   -3.5691   -4.2535    0.0000 C   0  0  0  0  0  0  0  0  0  0  0  0
   -2.1595   -3.7404    0.0000 C   0  0  0  0  0  0  0  0  0  0  0  0
  1  2  1  0
  2  3  1  0
  3  4  1  0
  4  5  2  0
  5  6  1  0
  6  7  1  0
  7  8  2  0
  7  9  1  0
  9 10  1  0
 10 11  2  0
 11 12  1  0
 12 13  2  0
 13 14  1  0
 14 15  2  0
  6 16  1  0
 16 17  2  0
 17 18  1  0
 18 19  2  0
 19 20  1  0
 20 21  2  0
 21 22  1  0
 22 23  2  0
 23 24  1  0
 24 25  2  0
 25 26  1  0
 26 27  2  0
 27  2  1  0
 15 10  1  0
 21 16  1  0
 27 22  1  0
M  END
>  <Title>  (52) 
idAAABgen10

$$$$

     RDKit          2D

 12 13  0  0  0  0  0  0  0  0999 V2000
   -4.7084   -3.0832    0.0000 C   0  0  0  0  0  0  0  0  0  0  0  0
   -3.2595   -3.4715    0.0000 C   0  0  0  0  0  0  0  0  0  0  0  0
   -1.8107   -3.8597    0.0000 C   0  0  0  0  0  0  0  0  0  0  0  0
   -1.4224   -5.3086    0.0000 O   0  0  0  0  0  0  0  0  0  0  0  0
   -0.7500   -2.7990    0.0000 C   0  0  0  0  0  0  0  0  0  0  0  0
    0.7500   -2.7990    0.0000 C   0  0  0  0  0  0  0  0  0  0  0  0
    0.7500   -1.2990    0.0000 C   0  0  0  0  0  0  0  0  0  0  0  0
    1.5000    0.0000    0.0000 C   0  0  0  0  0  0  0  0  0  0  0  0
    0.7500    1.2990    0.0000 C   0  0  0  0  0  0  0  0  0  0  0  0
   -0.7500    1.2990    0.0000 C   0  0  0  0  0  0  0  0  0  0  0  0
   -1.5000    0.0000    0.0000 C   0  0  0  0  0  0  0  0  0  0  0  0
   -0.7500   -1.2990    0.0000 C   0  0  0  0  0  0  0  0  0  0  0  0
  1  2  3  0
  2  3  1  0
  3  4  2  0
  3  5  1  0
  5  6  1  0
  6  7  1  0
  7  8  2  0
  8  9  1  0
  9 10  2  0
 10 11  1  0
 11 12  2  0
 12  5  1  0
 12  7  1  0
M  END
>  <Title>  (53) 
idAAACgen10

$$$$

     RDKit          2D

104106  0  0  0  0  0  0  0  0999 V2000
   -2.3938    0.0956    0.0000 C   0  0  0  0  0  0  0  0  0  0  0  0
   -2.2468   -1.3971    0.0000 C   0  0  0  0  0  0  0  0  0  0  0  0
   -3.7340   -1.5929    0.0000 C   0  0  0  0  0  0  0  0  0  0  0  0
   -5.2051   -1.8856    0.0000 C   0  0  0  0  0  0  0  0  0  0  0  0
   -6.6540   -2.2738    0.0000 C   0  0  0  0  0  0  0  0  0  0  0  0
   -8.0744   -2.7560    0.0000 C   0  0  0  0  0  0  0  0  0  0  0  0
   -9.4602   -3.3300    0.0000 C   0  0  0  0  0  0  0  0  0  0  0  0
  -10.8055   -3.9934    0.0000 C   0  0  0  0  0  0  0  0  0  0  0  0
  -12.1046   -4.7434    0.0000 C   0  0  0  0  0  0  0  0  0  0  0  0
  -13.3518   -5.5768    0.0000 C   0  0  0  0  0  0  0  0  0  0  0  0
  -14.5418   -6.4899    0.0000 C   0  0  0  0  0  0  0  0  0  0  0  0
  -15.6696   -7.4789    0.0000 C   0  0  0  0  0  0  0  0  0  0  0  0
  -16.7302   -8.5396    0.0000 C   0  0  0  0  0  0  0  0  0  0  0  0
  -17.7193   -9.6673    0.0000 C   0  0  0  0  0  0  0  0  0  0  0  0
  -18.6324  -10.8574    0.0000 C   0  0  0  0  0  0  0  0  0  0  0  0
  -19.4658  -12.1046    0.0000 C   0  0  0  0  0  0  0  0  0  0  0  0
  -20.2158  -13.4036    0.0000 C   0  0  0  0  0  0  0  0  0  0  0  0
  -20.8792  -14.7489    0.0000 C   0  0  0  0  0  0  0  0  0  0  0  0
  -21.4532  -16.1348    0.0000 C   0  0  0  0  0  0  0  0  0  0  0  0
  -21.9354  -17.5551    0.0000 C   0  0  0  0  0  0  0  0  0  0  0  0
  -22.3236  -19.0040    0.0000 C   0  0  0  0  0  0  0  0  0  0  0  0
  -22.6162  -20.4752    0.0000 C   0  0  0  0  0  0  0  0  0  0  0  0
  -22.8120  -21.9624    0.0000 C   0  0  0  0  0  0  0  0  0  0  0  0
  -22.9101  -23.4592    0.0000 C   0  0  0  0  0  0  0  0  0  0  0  0
  -22.9101  -24.9592    0.0000 C   0  0  0  0  0  0  0  0  0  0  0  0
  -22.8120  -26.4560    0.0000 C   0  0  0  0  0  0  0  0  0  0  0  0
  -22.6162  -27.9431    0.0000 C   0  0  0  0  0  0  0  0  0  0  0  0
  -22.3236  -29.4143    0.0000 C   0  0  0  0  0  0  0  0  0  0  0  0
  -21.9354  -30.8632    0.0000 C   0  0  0  0  0  0  0  0  0  0  0  0
  -21.4532  -32.2836    0.0000 C   0  0  0  0  0  0  0  0  0  0  0  0
  -20.8792  -33.6694    0.0000 C   0  0  0  0  0  0  0  0  0  0  0  0
  -20.2158  -35.0147    0.0000 C   0  0  0  0  0  0  0  0  0  0  0  0
  -19.4658  -36.3138    0.0000 C   0  0  0  0  0  0  0  0  0  0  0  0
  -18.6324  -37.5610    0.0000 C   0  0  0  0  0  0  0  0  0  0  0  0
  -17.7193  -38.7510    0.0000 C   0  0  0  0  0  0  0  0  0  0  0  0
  -16.7302  -39.8787    0.0000 C   0  0  0  0  0  0  0  0  0  0  0  0
  -15.6696  -40.9394    0.0000 C   0  0  0  0  0  0  0  0  0  0  0  0
  -14.5418  -41.9284    0.0000 C   0  0  0  0  0  0  0  0  0  0  0  0
  -13.3518  -42.8416    0.0000 C   0  0  0  0  0  0  0  0  0  0  0  0
  -12.1046  -43.6749    0.0000 C   0  0  0  0  0  0  0  0  0  0  0  0
  -10.8055  -44.4249    0.0000 C   0  0  0  0  0  0  0  0  0  0  0  0
   -9.4602  -45.0884    0.0000 C   0  0  0  0  0  0  0  0  0  0  0  0
   -8.0744  -45.6624    0.0000 C   0  0  0  0  0  0  0  0  0  0  0  0
   -6.6540  -46.1445    0.0000 C   0  0  0  0  0  0  0  0  0  0  0  0
   -5.2051  -46.5328    0.0000 C   0  0  0  0  0  0  0  0  0  0  0  0
   -3.7340  -46.8254    0.0000 C   0  0  0  0  0  0  0  0  0  0  0  0
   -2.2468  -47.0212    0.0000 C   0  0  0  0  0  0  0  0  0  0  0  0
   -0.7500  -47.1193    0.0000 C   0  0  0  0  0  0  0  0  0  0  0  0
    0.7500  -47.1193    0.0000 C   0  0  0  0  0  0  0  0  0  0  0  0
    2.2468  -47.0212    0.0000 C   0  0  0  0  0  0  0  0  0  0  0  0
    3.7340  -46.8254    0.0000 C   0  0  0  0  0  0  0  0  0  0  0  0
    5.2051  -46.5328    0.0000 C   0  0  0  0  0  0  0  0  0  0  0  0
    6.6540  -46.1445    0.0000 C   0  0  0  0  0  0  0  0  0  0  0  0
    8.0744  -45.6624    0.0000 C   0  0  0  0  0  0  0  0  0  0  0  0
    9.4602  -45.0884    0.0000 C   0  0  0  0  0  0  0  0  0  0  0  0
   10.8055  -44.4249    0.0000 C   0  0  0  0  0  0  0  0  0  0  0  0
   12.1046  -43.6749    0.0000 C   0  0  0  0  0  0  0  0  0  0  0  0
   13.3518  -42.8416    0.0000 C   0  0  0  0  0  0  0  0  0  0  0  0
   14.5418  -41.9284    0.0000 C   0  0  0  0  0  0  0  0  0  0  0  0
   15.6696  -40.9394    0.0000 C   0  0  0  0  0  0  0  0  0  0  0  0
   16.7302  -39.8787    0.0000 C   0  0  0  0  0  0  0  0  0  0  0  0
   17.7193  -38.7510    0.0000 C   0  0  0  0  0  0  0  0  0  0  0  0
   18.6324  -37.5610    0.0000 C   0  0  0  0  0  0  0  0  0  0  0  0
   19.4658  -36.3138    0.0000 C   0  0  0  0  0  0  0  0  0  0  0  0
   20.2158  -35.0147    0.0000 C   0  0  0  0  0  0  0  0  0  0  0  0
   20.8792  -33.6694    0.0000 C   0  0  0  0  0  0  0  0  0  0  0  0
   21.4532  -32.2836    0.0000 C   0  0  0  0  0  0  0  0  0  0  0  0
   21.9354  -30.8632    0.0000 C   0  0  0  0  0  0  0  0  0  0  0  0
   22.3236  -29.4143    0.0000 C   0  0  0  0  0  0  0  0  0  0  0  0
   22.6162  -27.9431    0.0000 C   0  0  0  0  0  0  0  0  0  0  0  0
   22.8120  -26.4560    0.0000 C   0  0  0  0  0  0  0  0  0  0  0  0
   22.9101  -24.9592    0.0000 C   0  0  0  0  0  0  0  0  0  0  0  0
   22.9101  -23.4592    0.0000 C   0  0  0  0  0  0  0  0  0  0  0  0
   22.8120  -21.9624    0.0000 C   0  0  0  0  0  0  0  0  0  0  0  0
   22.6162  -20.4752    0.0000 C   0  0  0  0  0  0  0  0  0  0  0  0
   22.3236  -19.0040    0.0000 C   0  0  0  0  0  0  0  0  0  0  0  0
   21.9354  -17.5551    0.0000 C   0  0  0  0  0  0  0  0  0  0  0  0
   21.4532  -16.1348    0.0000 C   0  0  0  0  0  0  0  0  0  0  0  0
   20.8792  -14.7489    0.0000 C   0  0  0  0  0  0  0  0  0  0  0  0
   20.2158  -13.4036    0.0000 C   0  0  0  0  0  0  0  0  0  0  0  0
   19.4658  -12.1046    0.0000 C   0  0  0  0  0  0  0  0  0  0  0  0
   18.6324  -10.8574    0.0000 C   0  0  0  0  0  0  0  0  0  0  0  0
   17.7193   -9.6673    0.0000 C   0  0  0  0  0  0  0  0  0  0  0  0
   16.7302   -8.5396    0.0000 C   0  0  0  0  0  0  0  0  0  0  0  0
   15.6696   -7.4789    0.0000 C   0  0  0  0  0  0  0  0  0  0  0  0
   14.5418   -6.4899    0.0000 C   0  0  0  0  0  0  0  0  0  0  0  0
   13.3518   -5.5768    0.0000 C   0  0  0  0  0  0  0  0  0  0  0  0
   12.1046   -4.7434    0.0000 C   0  0  0  0  0  0  0  0  0  0  0  0
   10.8055   -3.9934    0.0000 C   0  0  0  0  0  0  0  0  0  0  0  0
    9.4602   -3.3300    0.0000 C   0  0  0  0  0  0  0  0  0  0  0  0
    8.0744   -2.7560    0.0000 C   0  0  0  0  0  0  0  0  0  0  0  0
    6.6540   -2.2738    0.0000 C   0  0  0  0  0  0  0  0  0  0  0  0
    5.2051   -1.8856    0.0000 C   0  0  0  0  0  0  0  0  0  0  0  0
    3.7340   -1.5929    0.0000 C   0  0  0  0  0  0  0  0  0  0  0  0
    4.0073   -3.0678    0.0000 C   0  0  0  0  0  0  0  0  0  0  0  0
    2.6891   -3.7836    0.0000 C   0  0  0  0  0  0  0  0  0  0  0  0
    1.6010   -2.7510    0.0000 C   0  0  0  0  0  0  0  0  0  0  0  0
    2.2468   -1.3971    0.0000 C   0  0  0  0  0  0  0  0  0  0  0  0
    0.7500   -1.2990    0.0000 C   0  0  0  0  0  0  0  0  0  0  0  0
    1.5000    0.0000    0.0000 C   0  0  0  0  0  0  0  0  0  0  0  0
    0.7500    1.2990    0.0000 C   0  0  0  0  0  0  0  0  0  0  0  0
   -0.7500    1.2990    0.0000 C   0  0  0  0  0  0  0  0  0  0  0  0
   -1.5000    0.0000    0.0000 C   0  0  0  0  0  0  0  0  0  0  0  0
   -0.7500   -1.2990    0.0000 C   0  0  0  0  0  0  0  0  0  0  0  0
  1  2  1  0
  2  3  1  0
  3  4  1  0
  4  5  1  0
  5  6  1  0
  6  7  1  0
  7  8  1  0
  8  9  1  0
  9 10  1  0
 10 11  1  0
 11 12  1  0
 12 13  1  0
 13 14  1  0
 14 15  1  0
 15 16  1  0
 16 17  1  0
 17 18  1  0
 18 19  1  0
 19 20  1  0
 20 21  1  0
 21 22  1  0
 22 23  1  0
 23 24  1  0
 24 25  1  0
 25 26  1  0
 26 27  1  0
 27 28  1  0
 28 29  1  0
 29 30  1  0
 30 31  1  0
 31 32  1  0
 32 33  1  0
 33 34  1  0
 34 35  1  0
 35 36  1  0
 36 37  1  0
 37 38  1  0
 38 39  1  0
 39 40  1  0
 40 41  1  0
 41 42  1  0
 42 43  1  0
 43 44  1  0
 44 45  1  0
 45 46  1  0
 46 47  1  0
 47 48  1  0
 48 49  1  0
 49 50  1  0
 50 51  1  0
 51 52  1  0
 52 53  1  0
 53 54  1  0
 54 55  1  0
 55 56  1  0
 56 57  1  0
 57 58  1  0
 58 59  1  0
 59 60  1  0
 60 61  1  0
 61 62  1  0
 62 63  1  0
 63 64  1  0
 64 65  1  0
 65 66  1  0
 66 67  1  0
 67 68  1  0
 68 69  1  0
 69 70  1  0
 70 71  1  0
 71 72  1  0
 72 73  1  0
 73 74  1  0
 74 75  1  0
 75 76  1  0
 76 77  1  0
 77 78  1  0
 78 79  1  0
 79 80  1  0
 80 81  1  0
 81 82  1  0
 82 83  1  0
 83 84  2  0
 84 85  1  0
 85 86  2  0
 86 87  1  0
 87 88  2  0
 88 89  1  0
 89 90  2  0
 90 91  1  0
 91 92  2  0
 92 93  1  0
 93 94  2  0
 94 95  1  0
 95 96  2  0
 96 97  1  0
 97 98  2  0
 98 99  1  0
 99100  2  0
100101  1  0
101102  2  0
102103  1  0
103104  2  0
104  2  1  0
 98 94  1  0
104 99  1  0
M  END
>  <Title>  (54) 
idAAADgen10

$$$$

     RDKit          2D

121121  0  0  0  0  0  0  0  0999 V2000
   28.8899    0.0000    0.0000 C   0  0  0  0  0  0  0  0  0  0  0  0
   28.8509    1.4995    0.0000 C   0  0  0  0  0  0  0  0  0  0  0  0
   28.7342    2.9949    0.0000 C   0  0  0  0  0  0  0  0  0  0  0  0
   28.5400    4.4823    0.0000 C   0  0  0  0  0  0  0  0  0  0  0  0
   28.2689    5.9576    0.0000 C   0  0  0  0  0  0  0  0  0  0  0  0
   27.9216    7.4169    0.0000 C   0  0  0  0  0  0  0  0  0  0  0  0
   27.4990    8.8561    0.0000 C   0  0  0  0  0  0  0  0  0  0  0  0
   27.0023   10.2715    0.0000 C   0  0  0  0  0  0  0  0  0  0  0  0
   26.4327   11.6591    0.0000 C   0  0  0  0  0  0  0  0  0  0  0  0
   25.7919   13.0154    0.0000 C   0  0  0  0  0  0  0  0  0  0  0  0
   25.0816   14.3365    0.0000 C   0  0  0  0  0  0  0  0  0  0  0  0
   24.3037   15.6190    0.0000 C   0  0  0  0  0  0  0  0  0  0  0  0
   23.4603   16.8594    0.0000 C   0  0  0  0  0  0  0  0  0  0  0  0
   22.5536   18.0544    0.0000 C   0  0  0  0  0  0  0  0  0  0  0  0
   21.5861   19.2007    0.0000 C   0  0  0  0  0  0  0  0  0  0  0  0
   20.5604   20.2952    0.0000 C   0  0  0  0  0  0  0  0  0  0  0  0
   19.4793   21.3350    0.0000 C   0  0  0  0  0  0  0  0  0  0  0  0
   18.3457   22.3173    0.0000 C   0  0  0  0  0  0  0  0  0  0  0  0
   17.1626   23.2394    0.0000 C   0  0  0  0  0  0  0  0  0  0  0  0
   15.9332   24.0989    0.0000 C   0  0  0  0  0  0  0  0  0  0  0  0
   14.6609   24.8934    0.0000 C   0  0  0  0  0  0  0  0  0  0  0  0
   13.3491   25.6208    0.0000 C   0  0  0  0  0  0  0  0  0  0  0  0
   12.0013   26.2791    0.0000 C   0  0  0  0  0  0  0  0  0  0  0  0
   10.6211   26.8666    0.0000 C   0  0  0  0  0  0  0  0  0  0  0  0
    9.2123   27.3817    0.0000 C   0  0  0  0  0  0  0  0  0  0  0  0
    7.7787   27.8229    0.0000 C   0  0  0  0  0  0  0  0  0  0  0  0
    6.3241   28.1892    0.0000 C   0  0  0  0  0  0  0  0  0  0  0  0
    4.8524   28.4794    0.0000 C   0  0  0  0  0  0  0  0  0  0  0  0
    3.3677   28.6929    0.0000 C   0  0  0  0  0  0  0  0  0  0  0  0
    1.8739   28.8290    0.0000 C   0  0  0  0  0  0  0  0  0  0  0  0
    0.3750   28.8874    0.0000 C   0  0  0  0  0  0  0  0  0  0  0  0
   -1.1248   28.8680    0.0000 C   0  0  0  0  0  0  0  0  0  0  0  0
   -2.6217   28.7707    0.0000 C   0  0  0  0  0  0  0  0  0  0  0  0
   -4.1115   28.5958    0.0000 C   0  0  0  0  0  0  0  0  0  0  0  0
   -5.5901   28.3439    0.0000 C   0  0  0  0  0  0  0  0  0  0  0  0
   -7.0538   28.0155    0.0000 C   0  0  0  0  0  0  0  0  0  0  0  0
   -8.4984   27.6116    0.0000 C   0  0  0  0  0  0  0  0  0  0  0  0
   -9.9201   27.1333    0.0000 C   0  0  0  0  0  0  0  0  0  0  0  0
  -11.3150   26.5819    0.0000 C   0  0  0  0  0  0  0  0  0  0  0  0
  -12.6795   25.9587    0.0000 C   0  0  0  0  0  0  0  0  0  0  0  0
  -14.0097   25.2656    0.0000 C   0  0  0  0  0  0  0  0  0  0  0  0
  -15.3022   24.5044    0.0000 C   0  0  0  0  0  0  0  0  0  0  0  0
  -16.5535   23.6771    0.0000 C   0  0  0  0  0  0  0  0  0  0  0  0
  -17.7601   22.7860    0.0000 C   0  0  0  0  0  0  0  0  0  0  0  0
  -18.9188   21.8335    0.0000 C   0  0  0  0  0  0  0  0  0  0  0  0
  -20.0266   20.8221    0.0000 C   0  0  0  0  0  0  0  0  0  0  0  0
  -21.0803   19.7546    0.0000 C   0  0  0  0  0  0  0  0  0  0  0  0
  -22.0773   18.6338    0.0000 C   0  0  0  0  0  0  0  0  0  0  0  0
  -23.0147   17.4628    0.0000 C   0  0  0  0  0  0  0  0  0  0  0  0
  -23.8900   16.2447    0.0000 C   0  0  0  0  0  0  0  0  0  0  0  0
  -24.7010   14.9828    0.0000 C   0  0  0  0  0  0  0  0  0  0  0  0
  -25.4454   13.6806    0.0000 C   0  0  0  0  0  0  0  0  0  0  0  0
  -26.1211   12.3414    0.0000 C   0  0  0  0  0  0  0  0  0  0  0  0
  -26.7265   10.9690    0.0000 C   0  0  0  0  0  0  0  0  0  0  0  0
  -27.2598    9.5670    0.0000 C   0  0  0  0  0  0  0  0  0  0  0  0
  -27.7196    8.1392    0.0000 C   0  0  0  0  0  0  0  0  0  0  0  0
  -28.1047    6.6895    0.0000 C   0  0  0  0  0  0  0  0  0  0  0  0
  -28.4140    5.2217    0.0000 C   0  0  0  0  0  0  0  0  0  0  0  0
  -28.6468    3.7399    0.0000 C   0  0  0  0  0  0  0  0  0  0  0  0
  -28.8023    2.2480    0.0000 C   0  0  0  0  0  0  0  0  0  0  0  0
  -28.8801    0.7500    0.0000 C   0  0  0  0  0  0  0  0  0  0  0  0
  -28.8801   -0.7500    0.0000 C   0  0  0  0  0  0  0  0  0  0  0  0
  -28.8023   -2.2480    0.0000 C   0  0  0  0  0  0  0  0  0  0  0  0
  -28.6468   -3.7399    0.0000 C   0  0  0  0  0  0  0  0  0  0  0  0
  -28.4140   -5.2217    0.0000 C   0  0  0  0  0  0  0  0  0  0  0  0
  -28.1047   -6.6895    0.0000 C   0  0  0  0  0  0  0  0  0  0  0  0
  -27.7196   -8.1392    0.0000 C   0  0  0  0  0  0  0  0  0  0  0  0
  -27.2598   -9.5670    0.0000 C   0  0  0  0  0  0  0  0  0  0  0  0
  -26.7265  -10.9690    0.0000 C   0  0  0  0  0  0  0  0  0  0  0  0
  -26.1211  -12.3414    0.0000 C   0  0  0  0  0  0  0  0  0  0  0  0
  -25.4454  -13.6806    0.0000 C   0  0  0  0  0  0  0  0  0  0  0  0
  -24.7010  -14.9828    0.0000 C   0  0  0  0  0  0  0  0  0  0  0  0
  -23.8900  -16.2447    0.0000 C   0  0  0  0  0  0  0  0  0  0  0  0
  -23.0147  -17.4628    0.0000 C   0  0  0  0  0  0  0  0  0  0  0  0
  -22.0773  -18.6338    0.0000 C   0  0  0  0  0  0  0  0  0  0  0  0
  -21.0803  -19.7546    0.0000 C   0  0  0  0  0  0  0  0  0  0  0  0
  -20.0266  -20.8221    0.0000 C   0  0  0  0  0  0  0  0  0  0  0  0
  -18.9188  -21.8335    0.0000 C   0  0  0  0  0  0  0  0  0  0  0  0
  -17.7601  -22.7860    0.0000 C   0  0  0  0  0  0  0  0  0  0  0  0
  -16.5535  -23.6771    0.0000 C   0  0  0  0  0  0  0  0  0  0  0  0
  -15.3022  -24.5044    0.0000 C   0  0  0  0  0  0  0  0  0  0  0  0
  -14.0097  -25.2656    0.0000 C   0  0  0  0  0  0  0  0  0  0  0  0
  -12.6795  -25.9587    0.0000 C   0  0  0  0  0  0  0  0  0  0  0  0
  -11.3150  -26.5819    0.0000 C   0  0  0  0  0  0  0  0  0  0  0  0
   -9.9201  -27.1333    0.0000 C   0  0  0  0  0  0  0  0  0  0  0  0
   -8.4984  -27.6116    0.0000 C   0  0  0  0  0  0  0  0  0  0  0  0
   -7.0538  -28.0155    0.0000 C   0  0  0  0  0  0  0  0  0  0  0  0
   -5.5901  -28.3439    0.0000 C   0  0  0  0  0  0  0  0  0  0  0  0
   -4.1115  -28.5958    0.0000 C   0  0  0  0  0  0  0  0  0  0  0  0
   -2.6217  -28.7707    0.0000 C   0  0  0  0  0  0  0  0  0  0  0  0
   -1.1248  -28.8680    0.0000 C   0  0  0  0  0  0  0  0  0  0  0  0
    0.3750  -28.8874    0.0000 C   0  0  0  0  0  0  0  0  0  0  0  0
    1.8739  -28.8290    0.0000 C   0  0  0  0  0  0  0  0  0  0  0  0
    3.3677  -28.6929    0.0000 C   0  0  0  0  0  0  0  0  0  0  0  0
    4.8524  -28.4794    0.0000 C   0  0  0  0  0  0  0  0  0  0  0  0
    6.3241  -28.1892    0.0000 C   0  0  0  0  0  0  0  0  0  0  0  0
    7.7787  -27.8229    0.0000 C   0  0  0  0  0  0  0  0  0  0  0  0
    9.2123  -27.3817    0.0000 C   0  0  0  0  0  0  0  0  0  0  0  0
   10.6211  -26.8666    0.0000 C   0  0  0  0  0  0  0  0  0  0  0  0
   12.0013  -26.2791    0.0000 C   0  0  0  0  0  0  0  0  0  0  0  0
   13.3491  -25.6208    0.0000 C   0  0  0  0  0  0  0  0  0  0  0  0
   14.6609  -24.8934    0.0000 C   0  0  0  0  0  0  0  0  0  0  0  0
   15.9332  -24.0989    0.0000 C   0  0  0  0  0  0  0  0  0  0  0  0
   17.1626  -23.2394    0.0000 C   0  0  0  0  0  0  0  0  0  0  0  0
   18.3457  -22.3173    0.0000 C   0  0  0  0  0  0  0  0  0  0  0  0
   19.4793  -21.3350    0.0000 C   0  0  0  0  0  0  0  0  0  0  0  0
   20.5604  -20.2952    0.0000 C   0  0  0  0  0  0  0  0  0  0  0  0
   21.5861  -19.2007    0.0000 C   0  0  0  0  0  0  0  0  0  0  0  0
   22.5536  -18.0544    0.0000 C   0  0  0  0  0  0  0  0  0  0  0  0
   23.4603  -16.8594    0.0000 C   0  0  0  0  0  0  0  0  0  0  0  0
   24.3037  -15.6190    0.0000 C   0  0  0  0  0  0  0  0  0  0  0  0
   25.0816  -14.3365    0.0000 C   0  0  0  0  0  0  0  0  0  0  0  0
   25.7919  -13.0154    0.0000 C   0  0  0  0  0  0  0  0  0  0  0  0
   26.4327  -11.6591    0.0000 C   0  0  0  0  0  0  0  0  0  0  0  0
   27.0023  -10.2715    0.0000 C   0  0  0  0  0  0  0  0  0  0  0  0
   27.4990   -8.8561    0.0000 C   0  0  0  0  0  0  0  0  0  0  0  0
   27.9216   -7.4169    0.0000 C   0  0  0  0  0  0  0  0  0  0  0  0
   28.2689   -5.9576    0.0000 C   0  0  0  0  0  0  0  0  0  0  0  0
   28.5400   -4.4823    0.0000 C   0  0  0  0  0  0  0  0  0  0  0  0
   28.7342   -2.9949    0.0000 C   0  0  0  0  0  0  0  0  0  0  0  0
   28.8509   -1.4995    0.0000 C   0  0  0  0  0  0  0  0  0  0  0  0
  1  2  2  0
  2  3  1  0
  3  4  1  0
  4  5  1  0
  5  6  1  0
  6  7  1  0
  7  8  1  0
  8  9  1  0
  9 10  1  0
 10 11  1  0
 11 12  1  0
 12 13  1  0
 13 14  1  0
 14 15  1  0
 15 16  1  0
 16 17  1  0
 17 18  1  0
 18 19  1  0
 19 20  1  0
 20 21  1  0
 21 22  1  0
 22 23  1  0
 23 24  1  0
 24 25  1  0
 25 26  1  0
 26 27  1  0
 27 28  1  0
 28 29  1  0
 29 30  1  0
 30 31  1  0
 31 32  1  0
 32 33  1  0
 33 34  1  0
 34 35  1  0
 35 36  1  0
 36 37  1  0
 37 38  1  0
 38 39  1  0
 39 40  1  0
 40 41  1  0
 41 42  1  0
 42 43  1  0
 43 44  1  0
 44 45  1  0
 45 46  1  0
 46 47  1  0
 47 48  1  0
 48 49  1  0
 49 50  1  0
 50 51  1  0
 51 52  1  0
 52 53  1  0
 53 54  1  0
 54 55  1  0
 55 56  1  0
 56 57  1  0
 57 58  1  0
 58 59  1  0
 59 60  1  0
 60 61  1  0
 61 62  1  0
 62 63  1  0
 63 64  1  0
 64 65  1  0
 65 66  1  0
 66 67  1  0
 67 68  1  0
 68 69  1  0
 69 70  1  0
 70 71  1  0
 71 72  1  0
 72 73  1  0
 73 74  1  0
 74 75  1  0
 75 76  1  0
 76 77  1  0
 77 78  1  0
 78 79  1  0
 79 80  1  0
 80 81  1  0
 81 82  1  0
 82 83  1  0
 83 84  1  0
 84 85  1  0
 85 86  1  0
 86 87  1  0
 87 88  1  0
 88 89  1  0
 89 90  1  0
 90 91  1  0
 91 92  1  0
 92 93  1  0
 93 94  1  0
 94 95  1  0
 95 96  1  0
 96 97  1  0
 97 98  1  0
 98 99  1  0
 99100  1  0
100101  1  0
101102  1  0
102103  1  0
103104  1  0
104105  1  0
105106  1  0
106107  1  0
107108  1  0
108109  1  0
109110  1  0
110111  1  0
111112  1  0
112113  1  0
113114  1  0
114115  1  0
115116  1  0
116117  1  0
117118  1  0
118119  1  0
119120  1  0
120121  1  0
121  1  1  0
M  END
>  <Title>  (55) 
idAAAEgen10

$$$$

     RDKit          2D

  4  3  0  0  0  0  0  0  0  0999 V2000
    0.0000    0.0000    0.0000 C   0  0  0  0  0  0  0  0  0  0  0  0
    1.2990    0.7500    0.0000 C   0  0  0  0  0  0  0  0  0  0  0  0
    2.5981   -0.0000    0.0000 C   0  0  0  0  0  0  0  0  0  0  0  0
    3.8971    0.7500    0.0000 N   0  0  0  0  0  0  0  0  0  0  0  0
  1  2  2  0
  2  3  1  0
  3  4  1  0
M  END
>  <Title>  (56) 
idAAAFgen10

$$$$

     RDKit          2D

 12 12  0  0  0  0  0  0  0  0999 V2000
    4.0607    0.0000    0.0000 C   0  0  0  0  0  0  0  0  0  0  0  0
    2.5607    0.0000    0.0000 C   0  0  0  0  0  0  0  0  0  0  0  0
    1.0607    0.0000    0.0000 C   0  0  0  0  0  0  0  0  0  0  0  0
   -0.0000   -1.0607    0.0000 C   0  0  0  0  0  0  0  0  0  0  0  0
   -0.0000   -2.5607    0.0000 C   0  0  0  0  0  0  0  0  0  0  0  0
   -0.0000   -4.0607    0.0000 C   0  0  0  0  0  0  0  0  0  0  0  0
   -0.0000   -5.5607    0.0000 C   0  0  0  0  0  0  0  0  0  0  0  0
   -0.0000   -7.0607    0.0000 C   0  0  0  0  0  0  0  0  0  0  0  0
   -0.0000   -8.5607    0.0000 C   0  0  0  0  0  0  0  0  0  0  0  0
   -1.2990   -9.3107    0.0000 C   0  0  0  0  0  0  0  0  0  0  0  0
   -1.0607    0.0000    0.0000 C   0  0  0  0  0  0  0  0  0  0  0  0
    0.0000    1.0607    0.0000 C   0  0  0  0  0  0  0  0  0  0  0  0
  1  2  3  0
  2  3  1  0
  3  4  2  0
  4  5  1  0
  5  6  3  0
  6  7  1  0
  7  8  3  0
  8  9  1  0
  9 10  2  0
  4 11  1  0
 11 12  2  0
 12  3  1  0
M  END
>  <Title>  (57) 
idAAAGgen10

$$$$

     RDKit          2D

 11 11  0  0  0  0  0  0  0  0999 V2000
    7.5000   -2.5981    0.0000 C   0  0  0  0  0  0  0  0  0  0  0  0
    6.0000   -2.5981    0.0000 C   0  0  0  0  0  0  0  0  0  0  0  0
    5.2500   -1.2990    0.0000 C   0  0  0  0  0  0  0  0  0  0  0  0
    3.7500   -1.2990    0.0000 C   0  0  0  0  0  0  0  0  0  0  0  0
    3.0000    0.0000    0.0000 C   0  0  0  0  0  0  0  0  0  0  0  0
    1.5000    0.0000    0.0000 C   0  0  0  0  0  0  0  0  0  0  0  0
    0.7500   -1.2990    0.0000 C   0  0  0  0  0  0  0  0  0  0  0  0
   -0.7500   -1.2990    0.0000 C   0  0  0  0  0  0  0  0  0  0  0  0
   -1.5000    0.0000    0.0000 C   0  0  0  0  0  0  0  0  0  0  0  0
   -0.7500    1.2990    0.0000 C   0  0  0  0  0  0  0  0  0  0  0  0
    0.7500    1.2990    0.0000 C   0  0  0  0  0  0  0  0  0  0  0  0
  1  2  2  0
  2  3  1  0
  3  4  1  0
  4  5  1  0
  5  6  1  0
  6  7  2  0
  7  8  1  0
  8  9  2  0
  9 10  1  0
 10 11  2  0
 11  6  1  0
M  END
>  <Title>  (58) 
idAAAHgen10

$$$$

     RDKit          2D

 10 11  0  0  0  0  0  0  0  0999 V2000
    1.5000    0.0000    0.0000 C   0  0  0  0  0  0  0  0  0  0  0  0
    0.7500   -1.2990    0.0000 C   0  0  0  0  0  0  0  0  0  0  0  0
   -0.7500   -1.2990    0.0000 C   0  0  0  0  0  0  0  0  0  0  0  0
   -1.5000    0.0000    0.0000 C   0  0  0  0  0  0  0  0  0  0  0  0
   -3.0000    0.0000    0.0000 C   0  0  0  0  0  0  0  0  0  0  0  0
   -3.7500    1.2990    0.0000 C   0  0  0  0  0  0  0  0  0  0  0  0
   -3.0000    2.5981    0.0000 C   0  0  0  0  0  0  0  0  0  0  0  0
   -1.5000    2.5981    0.0000 C   0  0  0  0  0  0  0  0  0  0  0  0
   -0.7500    1.2990    0.0000 C   0  0  0  0  0  0  0  0  0  0  0  0
    0.7500    1.2990    0.0000 C   0  0  0  0  0  0  0  0  0  0  0  0
  1  2  2  0
  2  3  1  0
  3  4  2  0
  4  5  1  0
  5  6  1  0
  6  7  1  0
  7  8  1  0
  8  9  1  0
  9 10  2  0
 10  1  1  0
  9  4  1  0
M  END
>  <Title>  (59) 
idAAAIgen10

$$$$

     RDKit          2D

 53 61  0  0  0  0  0  0  0  0999 V2000
    6.2168   -5.0497    0.0000 C   0  0  0  0  0  0  0  0  0  0  0  0
    4.7353   -5.2844    0.0000 C   0  0  0  0  0  0  0  0  0  0  0  0
    4.2718   -3.8578    0.0000 C   0  0  0  0  0  0  0  0  0  0  0  0
    3.3901   -2.6442    0.0000 C   0  0  0  0  0  0  0  0  0  0  0  0
    2.1766   -1.7626    0.0000 C   0  0  0  0  0  0  0  0  0  0  0  0
    0.7500   -1.2990    0.0000 C   0  0  0  0  0  0  0  0  0  0  0  0
    1.5000    0.0000    0.0000 C   0  0  0  0  0  0  0  0  0  0  0  0
    0.7500    1.2990    0.0000 C   0  0  0  0  0  0  0  0  0  0  0  0
   -0.7500    1.2990    0.0000 C   0  0  0  0  0  0  0  0  0  0  0  0
   -1.5000    0.0000    0.0000 C   0  0  0  0  0  0  0  0  0  0  0  0
   -0.7500   -1.2990    0.0000 C   0  0  0  0  0  0  0  0  0  0  0  0
   -2.1766   -1.7626    0.0000 C   0  0  0  0  0  0  0  0  0  0  0  0
   -2.3334   -0.2708    0.0000 C   0  0  0  0  0  0  0  0  0  0  0  0
   -3.7037    0.3393    0.0000 C   0  0  0  0  0  0  0  0  0  0  0  0
   -4.9172   -0.5424    0.0000 C   0  0  0  0  0  0  0  0  0  0  0  0
   -4.7604   -2.0341    0.0000 C   0  0  0  0  0  0  0  0  0  0  0  0
   -3.3901   -2.6442    0.0000 C   0  0  0  0  0  0  0  0  0  0  0  0
   -4.2718   -3.8578    0.0000 C   0  0  0  0  0  0  0  0  0  0  0  0
   -5.2755   -2.7430    0.0000 C   0  0  0  0  0  0  0  0  0  0  0  0
   -6.7427   -3.0549    0.0000 C   0  0  0  0  0  0  0  0  0  0  0  0
   -7.2062   -4.4815    0.0000 C   0  0  0  0  0  0  0  0  0  0  0  0
   -6.2025   -5.5962    0.0000 C   0  0  0  0  0  0  0  0  0  0  0  0
   -4.7353   -5.2844    0.0000 C   0  0  0  0  0  0  0  0  0  0  0  0
   -4.7353   -6.7844    0.0000 C   0  0  0  0  0  0  0  0  0  0  0  0
   -6.2025   -6.4725    0.0000 C   0  0  0  0  0  0  0  0  0  0  0  0
   -7.2062   -7.5872    0.0000 C   0  0  0  0  0  0  0  0  0  0  0  0
   -6.7427   -9.0138    0.0000 C   0  0  0  0  0  0  0  0  0  0  0  0
   -5.2755   -9.3257    0.0000 C   0  0  0  0  0  0  0  0  0  0  0  0
   -4.2718   -8.2109    0.0000 C   0  0  0  0  0  0  0  0  0  0  0  0
   -3.3901   -9.4245    0.0000 C   0  0  0  0  0  0  0  0  0  0  0  0
   -4.7604  -10.0346    0.0000 C   0  0  0  0  0  0  0  0  0  0  0  0
   -4.9172  -11.5263    0.0000 C   0  0  0  0  0  0  0  0  0  0  0  0
   -3.7037  -12.4080    0.0000 C   0  0  0  0  0  0  0  0  0  0  0  0
   -2.3334  -11.7979    0.0000 C   0  0  0  0  0  0  0  0  0  0  0  0
   -2.1766  -10.3061    0.0000 C   0  0  0  0  0  0  0  0  0  0  0  0
   -0.7500  -10.7697    0.0000 C   0  0  0  0  0  0  0  0  0  0  0  0
   -1.5000  -12.0687    0.0000 C   0  0  0  0  0  0  0  0  0  0  0  0
   -0.7500  -13.3677    0.0000 C   0  0  0  0  0  0  0  0  0  0  0  0
    0.7500  -13.3677    0.0000 C   0  0  0  0  0  0  0  0  0  0  0  0
    1.5000  -12.0687    0.0000 C   0  0  0  0  0  0  0  0  0  0  0  0
    0.7500  -10.7697    0.0000 C   0  0  0  0  0  0  0  0  0  0  0  0
    2.1766  -10.3061    0.0000 C   0  0  0  0  0  0  0  0  0  0  0  0
    2.3334  -11.7979    0.0000 C   0  0  0  0  0  0  0  0  0  0  0  0
    3.7037  -12.4080    0.0000 C   0  0  0  0  0  0  0  0  0  0  0  0
    4.9172  -11.5263    0.0000 C   0  0  0  0  0  0  0  0  0  0  0  0
    4.7604  -10.0346    0.0000 C   0  0  0  0  0  0  0  0  0  0  0  0
    3.3901   -9.4245    0.0000 C   0  0  0  0  0  0  0  0  0  0  0  0
    4.2718   -8.2109    0.0000 C   0  0  0  0  0  0  0  0  0  0  0  0
    5.2755   -9.3257    0.0000 C   0  0  0  0  0  0  0  0  0  0  0  0
    6.7427   -9.0138    0.0000 C   0  0  0  0  0  0  0  0  0  0  0  0
    7.2062   -7.5872    0.0000 C   0  0  0  0  0  0  0  0  0  0  0  0
    6.2025   -6.4725    0.0000 C   0  0  0  0  0  0  0  0  0  0  0  0
    4.7353   -6.7844    0.0000 C   0  0  0  0  0  0  0  0  0  0  0  0
  1  2  1  0
  2  3  1  0
  3  4  2  0
  4  5  1  0
  5  6  1  0
  6  7  2  0
  7  8  1  0
  8  9  2  0
  9 10  1  0
 10 11  2  0
 11 12  1  0
 12 13  2  0
 13 14  1  0
 14 15  2  0
 15 16  1  0
 16 17  2  0
 17 18  1  0
 18 19  2  0
 19 20  1  0
 20 21  2  0
 21 22  1  0
 22 23  2  0
 23 24  1  0
 24 25  2  0
 25 26  1  0
 26 27  2  0
 27 28  1  0
 28 29  2  0
 29 30  1  0
 30 31  2  0
 31 32  1  0
 32 33  2  0
 33 34  1  0
 34 35  2  0
 35 36  1  0
 36 37  2  0
 37 38  1  0
 38 39  2  0
 39 40  1  0
 40 41  2  0
 41 42  1  0
 42 43  2  0
 43 44  1  0
 44 45  2  0
 45 46  1  0
 46 47  2  0
 47 48  1  0
 48 49  2  0
 49 50  1  0
 50 51  2  0
 51 52  1  0
 52 53  2  0
 53  2  1  0
 11  6  1  0
 17 12  1  0
 23 18  1  0
 29 24  1  0
 35 30  1  0
 41 36  1  0
 47 42  1  0
 53 48  1  0
M  END
>  <Title>  (60) 
idAAAJgen10

$$$$

     RDKit          2D

  9  9  0  0  0  0  0  0  0  0999 V2000
    3.0000    0.0000    0.0000 C   0  0  0  0  0  0  0  0  0  0  0  0
    1.5000    0.0000    0.0000 C   0  0  0  0  0  0  0  0  0  0  0  0
    0.7500   -1.2990    0.0000 C   0  0  0  0  0  0  0  0  0  0  0  0
   -0.7500   -1.2990    0.0000 C   0  0  0  0  0  0  0  0  0  0  0  0
   -1.5000    0.0000    0.0000 C   0  0  0  0  0  0  0  0  0  0  0  0
   -3.0000    0.0000    0.0000 C   0  0  0  0  0  0  0  0  0  0  0  0
   -4.5000    0.0000    0.0000 N   0  0  0  0  0  0  0  0  0  0  0  0
   -0.7500    1.2990    0.0000 C   0  0  0  0  0  0  0  0  0  0  0  0
    0.7500    1.2990    0.0000 C   0  0  0  0  0  0  0  0  0  0  0  0
  1  2  1  0
  2  3  2  0
  3  4  1  0
  4  5  2  0
  5  6  1  0
  6  7  3  0
  5  8  1  0
  8  9  2  0
  9  2  1  0
M  END
>  <Title>  (61) 
idAAAKgen10

$$$$

     RDKit          2D

 42 43  0  0  0  0  0  0  0  0999 V2000
    4.7286   -2.5981    0.0000 C   0  0  0  0  0  0  0  0  0  0  0  0
    3.9786   -1.2990    0.0000 C   0  0  0  0  0  0  0  0  0  0  0  0
    3.2286   -0.0000    0.0000 C   0  0  0  0  0  0  0  0  0  0  0  0
    1.7286    0.0000    0.0000 C   0  0  0  0  0  0  0  0  0  0  0  0
    1.0777    1.3515    0.0000 C   0  0  0  0  0  0  0  0  0  0  0  0
   -0.3846    1.6852    0.0000 C   0  0  0  0  0  0  0  0  0  0  0  0
   -1.5574    0.7500    0.0000 C   0  0  0  0  0  0  0  0  0  0  0  0
   -1.5574   -0.7500    0.0000 C   0  0  0  0  0  0  0  0  0  0  0  0
   -0.3846   -1.6852    0.0000 C   0  0  0  0  0  0  0  0  0  0  0  0
    1.0777   -1.3515    0.0000 C   0  0  0  0  0  0  0  0  0  0  0  0
    2.0130   -2.5242    0.0000 C   0  0  0  0  0  0  0  0  0  0  0  0
    1.4650   -3.9205    0.0000 C   0  0  0  0  0  0  0  0  0  0  0  0
    2.4002   -5.0933    0.0000 C   0  0  0  0  0  0  0  0  0  0  0  0
    1.8522   -6.4896    0.0000 C   0  0  0  0  0  0  0  0  0  0  0  0
    2.7874   -7.6623    0.0000 C   0  0  0  0  0  0  0  0  0  0  0  0
    2.2394   -9.0586    0.0000 C   0  0  0  0  0  0  0  0  0  0  0  0
    3.1747  -10.2314    0.0000 C   0  0  0  0  0  0  0  0  0  0  0  0
    2.6266  -11.6277    0.0000 C   0  0  0  0  0  0  0  0  0  0  0  0
    3.5619  -12.8004    0.0000 C   0  0  0  0  0  0  0  0  0  0  0  0
    3.0139  -14.1967    0.0000 C   0  0  0  0  0  0  0  0  0  0  0  0
    3.9491  -15.3695    0.0000 C   0  0  0  0  0  0  0  0  0  0  0  0
    3.4011  -16.7658    0.0000 C   0  0  0  0  0  0  0  0  0  0  0  0
    4.3363  -17.9385    0.0000 C   0  0  0  0  0  0  0  0  0  0  0  0
    3.7883  -19.3349    0.0000 C   0  0  0  0  0  0  0  0  0  0  0  0
    4.7235  -20.5076    0.0000 C   0  0  0  0  0  0  0  0  0  0  0  0
    4.1755  -21.9039    0.0000 C   0  0  0  0  0  0  0  0  0  0  0  0
    5.1108  -23.0767    0.0000 C   0  0  0  0  0  0  0  0  0  0  0  0
    4.5628  -24.4730    0.0000 C   0  0  0  0  0  0  0  0  0  0  0  0
    5.4980  -25.6457    0.0000 C   0  0  0  0  0  0  0  0  0  0  0  0
    4.9500  -27.0420    0.0000 C   0  0  0  0  0  0  0  0  0  0  0  0
    5.8852  -28.2148    0.0000 C   0  0  0  0  0  0  0  0  0  0  0  0
    5.3372  -29.6111    0.0000 C   0  0  0  0  0  0  0  0  0  0  0  0
    6.2724  -30.7838    0.0000 C   0  0  0  0  0  0  0  0  0  0  0  0
    5.7244  -32.1801    0.0000 C   0  0  0  0  0  0  0  0  0  0  0  0
    6.6597  -33.3529    0.0000 C   0  0  0  0  0  0  0  0  0  0  0  0
    8.1221  -33.0191    0.0000 O   0  0  0  0  0  0  0  0  0  0  0  0
    9.2948  -33.9543    0.0000 C   0  0  0  0  0  0  0  0  0  0  0  0
    9.2948  -35.4543    0.0000 C   0  0  0  0  0  0  0  0  0  0  0  0
    8.1221  -36.3896    0.0000 C   0  0  0  0  0  0  0  0  0  0  0  0
    6.6597  -36.0558    0.0000 C   0  0  0  0  0  0  0  0  0  0  0  0
    6.0088  -34.7043    0.0000 C   0  0  0  0  0  0  0  0  0  0  0  0
    4.5088  -34.7043    0.0000 C   0  0  0  0  0  0  0  0  0  0  0  0
  1  2  3  0
  2  3  1  0
  3  4  1  0
  4  5  2  0
  5  6  1  0
  6  7  1  0
  7  8  2  0
  8  9  1  0
  9 10  2  0
 10 11  1  0
 11 12  1  0
 12 13  2  3
 13 14  1  0
 14 15  2  3
 15 16  1  0
 16 17  2  3
 17 18  1  0
 18 19  2  3
 19 20  1  0
 20 21  2  3
 21 22  1  0
 22 23  2  3
 23 24  1  0
 24 25  2  3
 25 26  1  0
 26 27  2  3
 27 28  1  0
 28 29  2  3
 29 30  1  0
 30 31  2  3
 31 32  1  0
 32 33  2  3
 33 34  1  0
 34 35  2  3
 35 36  1  0
 36 37  1  0
 37 38  1  0
 38 39  2  0
 39 40  1  0
 40 41  2  0
 41 42  1  0
 10  4  1  0
 41 35  1  0
M  END
>  <Title>  (62) 
idAAALgen10

$$$$

     RDKit          2D

 11 11  0  0  0  0  0  0  0  0999 V2000
    6.5260   -1.2990    0.0000 C   0  0  0  0  0  0  0  0  0  0  0  0
    5.7760   -0.0000    0.0000 C   0  0  0  0  0  0  0  0  0  0  0  0
    4.2760   -0.0000    0.0000 C   0  0  0  0  0  0  0  0  0  0  0  0
    2.7760    0.0000    0.0000 C   0  0  0  0  0  0  0  0  0  0  0  0
    1.2760    0.0000    0.0000 C   0  0  0  0  0  0  0  0  0  0  0  0
    0.3943    1.2135    0.0000 C   0  0  0  0  0  0  0  0  0  0  0  0
    0.8578    2.6401    0.0000 C   0  0  0  0  0  0  0  0  0  0  0  0
    1.3213    4.0667    0.0000 N   0  0  0  0  0  0  0  0  0  0  0  0
   -1.0323    0.7500    0.0000 C   0  0  0  0  0  0  0  0  0  0  0  0
   -1.0323   -0.7500    0.0000 C   0  0  0  0  0  0  0  0  0  0  0  0
    0.3943   -1.2135    0.0000 C   0  0  0  0  0  0  0  0  0  0  0  0
  1  2  2  0
  2  3  1  0
  3  4  3  0
  4  5  1  0
  5  6  2  0
  6  7  1  0
  7  8  3  0
  6  9  1  0
  9 10  2  0
 10 11  1  0
 11  5  1  0
M  END
>  <Title>  (63) 
idAAAMgen10

$$$$

     RDKit          2D

  6  6  0  0  0  0  0  0  0  0999 V2000
    1.5000    0.0000    0.0000 C   0  0  0  0  0  0  0  0  0  0  0  0
    0.7500   -1.2990    0.0000 C   0  0  0  0  0  0  0  0  0  0  0  0
   -0.7500   -1.2990    0.0000 C   0  0  0  0  0  0  0  0  0  0  0  0
   -1.5000    0.0000    0.0000 C   0  0  0  0  0  0  0  0  0  0  0  0
   -0.7500    1.2990    0.0000 C   0  0  0  0  0  0  0  0  0  0  0  0
    0.7500    1.2990    0.0000 C   0  0  0  0  0  0  0  0  0  0  0  0
  1  2  2  0
  2  3  1  0
  3  4  1  0
  4  5  1  0
  5  6  1  0
  6  1  1  0
M  END
>  <Title>  (64) 
idAAANgen10

$$$$

     RDKit          2D

 16 17  0  0  0  0  0  0  0  0999 V2000
    3.0000    0.0000    0.0000 C   0  0  0  0  0  0  0  0  0  0  0  0
    1.5000    0.0000    0.0000 C   0  0  0  0  0  0  0  0  0  0  0  0
    0.7500   -1.2990    0.0000 N   0  0  0  0  0  0  0  0  0  0  0  0
   -0.7500   -1.2990    0.0000 N   0  0  0  0  0  0  0  0  0  0  0  0
   -1.5000    0.0000    0.0000 C   0  0  0  0  0  0  0  0  0  0  0  0
   -0.7500    1.2990    0.0000 C   0  0  0  0  0  0  0  0  0  0  0  0
    0.7500    1.2990    0.0000 C   0  0  0  0  0  0  0  0  0  0  0  0
    1.5000    2.5981    0.0000 C   0  0  0  0  0  0  0  0  0  0  0  0
    0.7500    3.8971    0.0000 O   0  0  0  0  0  0  0  0  0  0  0  0
    3.0000    2.5981    0.0000 O   0  0  0  0  0  0  0  0  0  0  0  0
    3.7500    3.8971    0.0000 C   0  0  0  0  0  0  0  0  0  0  0  0
    5.2500    3.8971    0.0000 C   0  0  0  0  0  0  0  0  0  0  0  0
    6.0000    5.1962    0.0000 C   0  0  0  0  0  0  0  0  0  0  0  0
    5.2500    6.4952    0.0000 C   0  0  0  0  0  0  0  0  0  0  0  0
    3.7500    6.4952    0.0000 C   0  0  0  0  0  0  0  0  0  0  0  0
    3.0000    5.1962    0.0000 C   0  0  0  0  0  0  0  0  0  0  0  0
  1  2  1  0
  2  3  2  0
  3  4  1  0
  4  5  2  0
  5  6  1  0
  6  7  2  0
  7  8  1  0
  8  9  2  0
  8 10  1  0
 10 11  1  0
 11 12  2  0
 12 13  1  0
 13 14  2  0
 14 15  1  0
 15 16  2  0
  7  2  1  0
 16 11  1  0
M  END
>  <Title>  (65) 
idAAAOgen10

$$$$

     RDKit          2D

 14 14  0  0  0  0  0  0  0  0999 V2000
   13.5000    0.0000    0.0000 C   0  0  0  0  0  0  0  0  0  0  0  0
   12.0000    0.0000    0.0000 C   0  0  0  0  0  0  0  0  0  0  0  0
   10.5000    0.0000    0.0000 C   0  0  0  0  0  0  0  0  0  0  0  0
    9.0000    0.0000    0.0000 C   0  0  0  0  0  0  0  0  0  0  0  0
    7.5000    0.0000    0.0000 C   0  0  0  0  0  0  0  0  0  0  0  0
    6.0000    0.0000    0.0000 C   0  0  0  0  0  0  0  0  0  0  0  0
    4.5000    0.0000    0.0000 C   0  0  0  0  0  0  0  0  0  0  0  0
    3.0000    0.0000    0.0000 C   0  0  0  0  0  0  0  0  0  0  0  0
    1.5000    0.0000    0.0000 C   0  0  0  0  0  0  0  0  0  0  0  0
    0.7500   -1.2990    0.0000 N   0  0  0  0  0  0  0  0  0  0  0  0
   -0.7500   -1.2990    0.0000 N   0  0  0  0  0  0  0  0  0  0  0  0
   -1.5000    0.0000    0.0000 N   0  0  0  0  0  0  0  0  0  0  0  0
   -0.7500    1.2990    0.0000 N   0  0  0  0  0  0  0  0  0  0  0  0
    0.7500    1.2990    0.0000 N   0  0  0  0  0  0  0  0  0  0  0  0
  1  2  3  0
  2  3  1  0
  3  4  3  0
  4  5  1  0
  5  6  3  0
  6  7  1  0
  7  8  3  0
  8  9  1  0
  9 10  2  0
 10 11  1  0
 11 12  2  0
 12 13  1  0
 13 14  2  0
 14  9  1  0
M  END
>  <Title>  (66) 
idAAAPgen10

$$$$

     RDKit          2D

 24 26  0  0  0  0  0  0  0  0999 V2000
    4.5000   -2.5981    0.0000 C   0  0  0  0  0  0  0  0  0  0  0  0
    3.7500   -1.2990    0.0000 C   0  0  0  0  0  0  0  0  0  0  0  0
    3.0000    0.0000    0.0000 C   0  0  0  0  0  0  0  0  0  0  0  0
    3.7500    1.2990    0.0000 O   0  0  0  0  0  0  0  0  0  0  0  0
    1.5000    0.0000    0.0000 N   0  0  0  0  0  0  0  0  0  0  0  0
    0.7500   -1.2990    0.0000 C   0  0  0  0  0  0  0  0  0  0  0  0
   -0.7500   -1.2990    0.0000 C   0  0  0  0  0  0  0  0  0  0  0  0
   -1.5000    0.0000    0.0000 C   0  0  0  0  0  0  0  0  0  0  0  0
   -3.0000    0.0000    0.0000 C   0  0  0  0  0  0  0  0  0  0  0  0
   -3.7500   -1.2990    0.0000 O   0  0  0  0  0  0  0  0  0  0  0  0
   -3.7500    1.2990    0.0000 O   0  0  0  0  0  0  0  0  0  0  0  0
   -5.2500    1.2990    0.0000 C   0  0  0  0  0  0  0  0  0  0  0  0
   -6.1317    0.0855    0.0000 N   0  0  0  0  0  0  0  0  0  0  0  0
   -7.5583    0.5490    0.0000 N   0  0  0  0  0  0  0  0  0  0  0  0
   -7.5583    2.0490    0.0000 N   0  0  0  0  0  0  0  0  0  0  0  0
   -6.1317    2.5126    0.0000 N   0  0  0  0  0  0  0  0  0  0  0  0
   -5.6682    3.9391    0.0000 C   0  0  0  0  0  0  0  0  0  0  0  0
   -4.2009    4.2510    0.0000 C   0  0  0  0  0  0  0  0  0  0  0  0
   -3.7374    5.6776    0.0000 C   0  0  0  0  0  0  0  0  0  0  0  0
   -4.7411    6.7923    0.0000 C   0  0  0  0  0  0  0  0  0  0  0  0
   -6.2083    6.4805    0.0000 C   0  0  0  0  0  0  0  0  0  0  0  0
   -6.6718    5.0539    0.0000 C   0  0  0  0  0  0  0  0  0  0  0  0
   -0.7500    1.2990    0.0000 C   0  0  0  0  0  0  0  0  0  0  0  0
    0.7500    1.2990    0.0000 C   0  0  0  0  0  0  0  0  0  0  0  0
  1  2  3  0
  2  3  1  0
  3  4  2  0
  3  5  1  0
  5  6  1  0
  6  7  1  0
  7  8  1  0
  8  9  1  0
  9 10  2  0
  9 11  1  0
 11 12  1  0
 12 13  2  0
 13 14  1  0
 14 15  2  0
 15 16  1  0
 16 17  1  0
 17 18  2  0
 18 19  1  0
 19 20  2  0
 20 21  1  0
 21 22  2  0
  8 23  1  0
 23 24  1  0
 24  5  1  0
 16 12  1  0
 22 17  1  0
M  END
>  <Title>  (67) 
idAAAQgen10

$$$$

     RDKit          2D

  6  5  0  0  0  0  0  0  0  0999 V2000
    0.0000    0.0000    0.0000 C   0  0  0  0  0  0  0  0  0  0  0  0
    1.2990    0.7500    0.0000 C   0  0  0  0  0  0  0  0  0  0  0  0
    2.5981    1.5000    0.0000 C   0  0  0  0  0  0  0  0  0  0  0  0
    3.8971    2.2500    0.0000 C   0  0  0  0  0  0  0  0  0  0  0  0
    5.1962    1.5000    0.0000 C   0  0  0  0  0  0  0  0  0  0  0  0
    6.4952    2.2500    0.0000 C   0  0  0  0  0  0  0  0  0  0  0  0
  1  2  1  0
  2  3  3  0
  3  4  1  0
  4  5  2  3
  5  6  1  0
M  END
>  <Title>  (68) 
idAAARgen10

$$$$

     RDKit          2D

 90 91  0  0  0  0  0  0  0  0999 V2000
   -2.4119    0.0810    0.0000 C   0  0  0  0  0  0  0  0  0  0  0  0
   -2.2459   -1.4098    0.0000 C   0  0  0  0  0  0  0  0  0  0  0  0
   -3.7295   -1.6308    0.0000 C   0  0  0  0  0  0  0  0  0  0  0  0
   -5.1928   -1.9607    0.0000 C   0  0  0  0  0  0  0  0  0  0  0  0
   -6.6277   -2.3978    0.0000 C   0  0  0  0  0  0  0  0  0  0  0  0
   -8.0264   -2.9396    0.0000 C   0  0  0  0  0  0  0  0  0  0  0  0
   -9.3813   -3.5833    0.0000 C   0  0  0  0  0  0  0  0  0  0  0  0
  -10.6849   -4.3253    0.0000 C   0  0  0  0  0  0  0  0  0  0  0  0
  -11.9302   -5.1615    0.0000 C   0  0  0  0  0  0  0  0  0  0  0  0
  -13.1103   -6.0875    0.0000 C   0  0  0  0  0  0  0  0  0  0  0  0
  -14.2188   -7.0980    0.0000 C   0  0  0  0  0  0  0  0  0  0  0  0
  -15.2497   -8.1876    0.0000 C   0  0  0  0  0  0  0  0  0  0  0  0
  -16.1973   -9.3505    0.0000 C   0  0  0  0  0  0  0  0  0  0  0  0
  -17.0564  -10.5801    0.0000 C   0  0  0  0  0  0  0  0  0  0  0  0
  -17.8223  -11.8698    0.0000 C   0  0  0  0  0  0  0  0  0  0  0  0
  -18.4909  -13.2125    0.0000 C   0  0  0  0  0  0  0  0  0  0  0  0
  -19.0585  -14.6010    0.0000 C   0  0  0  0  0  0  0  0  0  0  0  0
  -19.5221  -16.0275    0.0000 C   0  0  0  0  0  0  0  0  0  0  0  0
  -19.8790  -17.4845    0.0000 C   0  0  0  0  0  0  0  0  0  0  0  0
  -20.1273  -18.9638    0.0000 C   0  0  0  0  0  0  0  0  0  0  0  0
  -20.2657  -20.4574    0.0000 C   0  0  0  0  0  0  0  0  0  0  0  0
  -20.2934  -21.9571    0.0000 C   0  0  0  0  0  0  0  0  0  0  0  0
  -20.2103  -23.4548    0.0000 C   0  0  0  0  0  0  0  0  0  0  0  0
  -20.0168  -24.9423    0.0000 C   0  0  0  0  0  0  0  0  0  0  0  0
  -19.7140  -26.4114    0.0000 C   0  0  0  0  0  0  0  0  0  0  0  0
  -19.3035  -27.8541    0.0000 C   0  0  0  0  0  0  0  0  0  0  0  0
  -18.7876  -29.2626    0.0000 C   0  0  0  0  0  0  0  0  0  0  0  0
  -18.1690  -30.6291    0.0000 C   0  0  0  0  0  0  0  0  0  0  0  0
  -17.4513  -31.9463    0.0000 C   0  0  0  0  0  0  0  0  0  0  0  0
  -16.6382  -33.2068    0.0000 C   0  0  0  0  0  0  0  0  0  0  0  0
  -15.7342  -34.4038    0.0000 C   0  0  0  0  0  0  0  0  0  0  0  0
  -14.7443  -35.5308    0.0000 C   0  0  0  0  0  0  0  0  0  0  0  0
  -13.6739  -36.5816    0.0000 C   0  0  0  0  0  0  0  0  0  0  0  0
  -12.5288  -37.5505    0.0000 C   0  0  0  0  0  0  0  0  0  0  0  0
  -11.3153  -38.4322    0.0000 C   0  0  0  0  0  0  0  0  0  0  0  0
  -10.0400  -39.2218    0.0000 C   0  0  0  0  0  0  0  0  0  0  0  0
   -8.7098  -39.9151    0.0000 C   0  0  0  0  0  0  0  0  0  0  0  0
   -7.3321  -40.5083    0.0000 C   0  0  0  0  0  0  0  0  0  0  0  0
   -5.9143  -40.9981    0.0000 C   0  0  0  0  0  0  0  0  0  0  0  0
   -4.4642  -41.3819    0.0000 C   0  0  0  0  0  0  0  0  0  0  0  0
   -2.9898  -41.6575    0.0000 C   0  0  0  0  0  0  0  0  0  0  0  0
   -1.4990  -41.8235    0.0000 C   0  0  0  0  0  0  0  0  0  0  0  0
   -0.0000  -41.8789    0.0000 C   0  0  0  0  0  0  0  0  0  0  0  0
    1.4990  -41.8235    0.0000 C   0  0  0  0  0  0  0  0  0  0  0  0
    2.9898  -41.6575    0.0000 C   0  0  0  0  0  0  0  0  0  0  0  0
    4.4642  -41.3819    0.0000 C   0  0  0  0  0  0  0  0  0  0  0  0
    5.9143  -40.9981    0.0000 C   0  0  0  0  0  0  0  0  0  0  0  0
    7.3321  -40.5083    0.0000 C   0  0  0  0  0  0  0  0  0  0  0  0
    8.7098  -39.9151    0.0000 C   0  0  0  0  0  0  0  0  0  0  0  0
   10.0400  -39.2218    0.0000 C   0  0  0  0  0  0  0  0  0  0  0  0
   11.3153  -38.4322    0.0000 C   0  0  0  0  0  0  0  0  0  0  0  0
   12.5288  -37.5505    0.0000 C   0  0  0  0  0  0  0  0  0  0  0  0
   13.6739  -36.5816    0.0000 C   0  0  0  0  0  0  0  0  0  0  0  0
   14.7443  -35.5308    0.0000 C   0  0  0  0  0  0  0  0  0  0  0  0
   15.7342  -34.4038    0.0000 C   0  0  0  0  0  0  0  0  0  0  0  0
   16.6382  -33.2068    0.0000 C   0  0  0  0  0  0  0  0  0  0  0  0
   17.4513  -31.9463    0.0000 C   0  0  0  0  0  0  0  0  0  0  0  0
   18.1690  -30.6291    0.0000 C   0  0  0  0  0  0  0  0  0  0  0  0
   18.7876  -29.2626    0.0000 C   0  0  0  0  0  0  0  0  0  0  0  0
   19.3035  -27.8541    0.0000 C   0  0  0  0  0  0  0  0  0  0  0  0
   19.7140  -26.4114    0.0000 C   0  0  0  0  0  0  0  0  0  0  0  0
   20.0168  -24.9423    0.0000 C   0  0  0  0  0  0  0  0  0  0  0  0
   20.2103  -23.4548    0.0000 C   0  0  0  0  0  0  0  0  0  0  0  0
   20.2934  -21.9571    0.0000 C   0  0  0  0  0  0  0  0  0  0  0  0
   20.2657  -20.4574    0.0000 C   0  0  0  0  0  0  0  0  0  0  0  0
   20.1273  -18.9638    0.0000 C   0  0  0  0  0  0  0  0  0  0  0  0
   19.8790  -17.4845    0.0000 C   0  0  0  0  0  0  0  0  0  0  0  0
   19.5221  -16.0275    0.0000 C   0  0  0  0  0  0  0  0  0  0  0  0
   19.0585  -14.6010    0.0000 C   0  0  0  0  0  0  0  0  0  0  0  0
   18.4909  -13.2125    0.0000 C   0  0  0  0  0  0  0  0  0  0  0  0
   17.8223  -11.8698    0.0000 C   0  0  0  0  0  0  0  0  0  0  0  0
   17.0564  -10.5801    0.0000 C   0  0  0  0  0  0  0  0  0  0  0  0
   16.1973   -9.3505    0.0000 C   0  0  0  0  0  0  0  0  0  0  0  0
   15.2497   -8.1876    0.0000 C   0  0  0  0  0  0  0  0  0  0  0  0
   14.2188   -7.0980    0.0000 C   0  0  0  0  0  0  0  0  0  0  0  0
   13.1103   -6.0875    0.0000 C   0  0  0  0  0  0  0  0  0  0  0  0
   11.9302   -5.1615    0.0000 C   0  0  0  0  0  0  0  0  0  0  0  0
   10.6849   -4.3253    0.0000 C   0  0  0  0  0  0  0  0  0  0  0  0
    9.3813   -3.5833    0.0000 C   0  0  0  0  0  0  0  0  0  0  0  0
    8.0264   -2.9396    0.0000 C   0  0  0  0  0  0  0  0  0  0  0  0
    6.6277   -2.3978    0.0000 C   0  0  0  0  0  0  0  0  0  0  0  0
    5.1928   -1.9607    0.0000 C   0  0  0  0  0  0  0  0  0  0  0  0
    3.7295   -1.6308    0.0000 C   0  0  0  0  0  0  0  0  0  0  0  0
    2.2459   -1.4098    0.0000 C   0  0  0  0  0  0  0  0  0  0  0  0
    0.7500   -1.2990    0.0000 C   0  0  0  0  0  0  0  0  0  0  0  0
    1.5000    0.0000    0.0000 C   0  0  0  0  0  0  0  0  0  0  0  0
    0.7500    1.2990    0.0000 C   0  0  0  0  0  0  0  0  0  0  0  0
   -0.7500    1.2990    0.0000 C   0  0  0  0  0  0  0  0  0  0  0  0
   -1.5000    0.0000    0.0000 C   0  0  0  0  0  0  0  0  0  0  0  0
   -0.7500   -1.2990    0.0000 C   0  0  0  0  0  0  0  0  0  0  0  0
  1  2  1  0
  2  3  1  0
  3  4  1  0
  4  5  1  0
  5  6  1  0
  6  7  1  0
  7  8  1  0
  8  9  1  0
  9 10  1  0
 10 11  1  0
 11 12  1  0
 12 13  1  0
 13 14  1  0
 14 15  1  0
 15 16  1  0
 16 17  1  0
 17 18  1  0
 18 19  1  0
 19 20  1  0
 20 21  1  0
 21 22  1  0
 22 23  1  0
 23 24  1  0
 24 25  1  0
 25 26  1  0
 26 27  1  0
 27 28  1  0
 28 29  1  0
 29 30  1  0
 30 31  1  0
 31 32  1  0
 32 33  1  0
 33 34  1  0
 34 35  1  0
 35 36  1  0
 36 37  1  0
 37 38  1  0
 38 39  1  0
 39 40  1  0
 40 41  1  0
 41 42  1  0
 42 43  1  0
 43 44  1  0
 44 45  1  0
 45 46  1  0
 46 47  1  0
 47 48  1  0
 48 49  1  0
 49 50  1  0
 50 51  1  0
 51 52  1  0
 52 53  1  0
 53 54  1  0
 54 55  1  0
 55 56  1  0
 56 57  1  0
 57 58  1  0
 58 59  1  0
 59 60  1  0
 60 61  1  0
 61 62  1  0
 62 63  1  0
 63 64  1  0
 64 65  1  0
 65 66  1  0
 66 67  1  0
 67 68  1  0
 68 69  1  0
 69 70  1  0
 70 71  1  0
 71 72  1  0
 72 73  1  0
 73 74  1  0
 74 75  1  0
 75 76  1  0
 76 77  1  0
 77 78  1  0
 78 79  1  0
 79 80  1  0
 80 81  1  0
 81 82  1  0
 82 83  1  0
 83 84  1  0
 84 85  1  0
 85 86  1  0
 86 87  1  0
 87 88  1  0
 88 89  1  0
 89 90  2  0
 90  2  1  0
 90 85  1  0
M  END
>  <Title>  (69) 
idAAASgen10

$$$$

     RDKit          2D

 10 10  0  0  0  0  0  0  0  0999 V2000
    4.2760    2.5981    0.0000 C   0  0  0  0  0  0  0  0  0  0  0  0
    3.5260    1.2990    0.0000 C   0  0  0  0  0  0  0  0  0  0  0  0
    2.7760    0.0000    0.0000 C   0  0  0  0  0  0  0  0  0  0  0  0
    3.5260   -1.2990    0.0000 C   0  0  0  0  0  0  0  0  0  0  0  0
    5.0260   -1.2990    0.0000 C   0  0  0  0  0  0  0  0  0  0  0  0
    1.2760    0.0000    0.0000 N   0  0  0  0  0  0  0  0  0  0  0  0
    0.3943    1.2135    0.0000 C   0  0  0  0  0  0  0  0  0  0  0  0
   -1.0323    0.7500    0.0000 C   0  0  0  0  0  0  0  0  0  0  0  0
   -1.0323   -0.7500    0.0000 C   0  0  0  0  0  0  0  0  0  0  0  0
    0.3943   -1.2135    0.0000 C   0  0  0  0  0  0  0  0  0  0  0  0
  1  2  3  0
  2  3  1  0
  3  4  1  0
  4  5  1  0
  3  6  1  0
  6  7  1  0
  7  8  1  0
  8  9  2  0
  9 10  1  0
 10  6  1  0
M  END
>  <Title>  (70) 
idAAATgen10

$$$$

     RDKit          2D

 26 28  0  0  0  0  0  0  0  0999 V2000
    3.9271    0.0000    0.0000 C   0  0  0  0  0  0  0  0  0  0  0  0
    2.4271    0.0000    0.0000 C   0  0  0  0  0  0  0  0  0  0  0  0
    1.9635   -1.4266    0.0000 C   0  0  0  0  0  0  0  0  0  0  0  0
    0.7500   -2.3083    0.0000 C   0  0  0  0  0  0  0  0  0  0  0  0
   -0.7500   -2.3083    0.0000 C   0  0  0  0  0  0  0  0  0  0  0  0
   -1.2135   -3.7348    0.0000 C   0  0  0  0  0  0  0  0  0  0  0  0
   -0.2098   -4.8496    0.0000 O   0  0  0  0  0  0  0  0  0  0  0  0
   -2.6807   -4.0467    0.0000 N   0  0  0  0  0  0  0  0  0  0  0  0
   -3.1443   -5.4733    0.0000 C   0  0  0  0  0  0  0  0  0  0  0  0
   -2.2626   -6.6868    0.0000 N   0  0  0  0  0  0  0  0  0  0  0  0
   -3.1443   -7.9004    0.0000 N   0  0  0  0  0  0  0  0  0  0  0  0
   -4.5709   -7.4368    0.0000 N   0  0  0  0  0  0  0  0  0  0  0  0
   -4.5709   -5.9368    0.0000 N   0  0  0  0  0  0  0  0  0  0  0  0
   -5.7844   -5.0551    0.0000 C   0  0  0  0  0  0  0  0  0  0  0  0
   -5.6276   -3.5634    0.0000 C   0  0  0  0  0  0  0  0  0  0  0  0
   -6.8411   -2.6817    0.0000 C   0  0  0  0  0  0  0  0  0  0  0  0
   -8.2114   -3.2918    0.0000 C   0  0  0  0  0  0  0  0  0  0  0  0
   -8.3682   -4.7836    0.0000 C   0  0  0  0  0  0  0  0  0  0  0  0
   -7.1547   -5.6653    0.0000 C   0  0  0  0  0  0  0  0  0  0  0  0
   -1.9635   -1.4266    0.0000 C   0  0  0  0  0  0  0  0  0  0  0  0
   -2.4271    0.0000    0.0000 C   0  0  0  0  0  0  0  0  0  0  0  0
   -1.9635    1.4266    0.0000 C   0  0  0  0  0  0  0  0  0  0  0  0
   -0.7500    2.3083    0.0000 C   0  0  0  0  0  0  0  0  0  0  0  0
    0.7500    2.3083    0.0000 C   0  0  0  0  0  0  0  0  0  0  0  0
    1.2135    3.7348    0.0000 C   0  0  0  0  0  0  0  0  0  0  0  0
    1.9635    1.4266    0.0000 C   0  0  0  0  0  0  0  0  0  0  0  0
  1  2  1  0
  2  3  1  0
  3  4  2  0
  4  5  1  0
  5  6  1  0
  6  7  2  0
  6  8  1  0
  8  9  1  0
  9 10  2  0
 10 11  1  0
 11 12  2  0
 12 13  1  0
 13 14  1  0
 14 15  2  0
 15 16  1  0
 16 17  2  0
 17 18  1  0
 18 19  2  0
  5 20  1  0
 20 21  1  0
 21 22  1  0
 22 23  1  0
 23 24  1  0
 24 25  1  0
 24 26  1  0
 26  2  1  0
 13  9  1  0
 19 14  1  0
M  END
>  <Title>  (71) 
idAAAUgen10

$$$$

     RDKit          2D

 99101  0  0  0  0  0  0  0  0999 V2000
   -2.4015    0.0894    0.0000 C   0  0  0  0  0  0  0  0  0  0  0  0
   -2.2464   -1.4025    0.0000 C   0  0  0  0  0  0  0  0  0  0  0  0
   -3.7321   -1.6090    0.0000 C   0  0  0  0  0  0  0  0  0  0  0  0
   -5.2001   -1.9175    0.0000 C   0  0  0  0  0  0  0  0  0  0  0  0
   -6.6432   -2.3265    0.0000 C   0  0  0  0  0  0  0  0  0  0  0  0
   -8.0547   -2.8341    0.0000 C   0  0  0  0  0  0  0  0  0  0  0  0
   -9.4278   -3.4379    0.0000 C   0  0  0  0  0  0  0  0  0  0  0  0
  -10.7560   -4.1350    0.0000 C   0  0  0  0  0  0  0  0  0  0  0  0
  -12.0330   -4.9221    0.0000 C   0  0  0  0  0  0  0  0  0  0  0  0
  -13.2525   -5.7954    0.0000 C   0  0  0  0  0  0  0  0  0  0  0  0
  -14.4090   -6.7507    0.0000 C   0  0  0  0  0  0  0  0  0  0  0  0
  -15.4967   -7.7835    0.0000 C   0  0  0  0  0  0  0  0  0  0  0  0
  -16.5106   -8.8890    0.0000 C   0  0  0  0  0  0  0  0  0  0  0  0
  -17.4459  -10.0617    0.0000 C   0  0  0  0  0  0  0  0  0  0  0  0
  -18.2980  -11.2962    0.0000 C   0  0  0  0  0  0  0  0  0  0  0  0
  -19.0629  -12.5865    0.0000 C   0  0  0  0  0  0  0  0  0  0  0  0
  -19.7369  -13.9265    0.0000 C   0  0  0  0  0  0  0  0  0  0  0  0
  -20.3169  -15.3099    0.0000 C   0  0  0  0  0  0  0  0  0  0  0  0
  -20.8001  -16.7299    0.0000 C   0  0  0  0  0  0  0  0  0  0  0  0
  -21.1842  -18.1799    0.0000 C   0  0  0  0  0  0  0  0  0  0  0  0
  -21.4673  -19.6529    0.0000 C   0  0  0  0  0  0  0  0  0  0  0  0
  -21.6481  -21.1420    0.0000 C   0  0  0  0  0  0  0  0  0  0  0  0
  -21.7257  -22.6400    0.0000 C   0  0  0  0  0  0  0  0  0  0  0  0
  -21.6998  -24.1398    0.0000 C   0  0  0  0  0  0  0  0  0  0  0  0
  -21.5705  -25.6342    0.0000 C   0  0  0  0  0  0  0  0  0  0  0  0
  -21.3384  -27.1161    0.0000 C   0  0  0  0  0  0  0  0  0  0  0  0
  -21.0047  -28.5785    0.0000 C   0  0  0  0  0  0  0  0  0  0  0  0
  -20.5708  -30.0144    0.0000 C   0  0  0  0  0  0  0  0  0  0  0  0
  -20.0389  -31.4169    0.0000 C   0  0  0  0  0  0  0  0  0  0  0  0
  -19.4115  -32.7794    0.0000 C   0  0  0  0  0  0  0  0  0  0  0  0
  -18.6916  -34.0954    0.0000 C   0  0  0  0  0  0  0  0  0  0  0  0
  -17.8826  -35.3585    0.0000 C   0  0  0  0  0  0  0  0  0  0  0  0
  -16.9884  -36.5628    0.0000 C   0  0  0  0  0  0  0  0  0  0  0  0
  -16.0132  -37.7026    0.0000 C   0  0  0  0  0  0  0  0  0  0  0  0
  -14.9618  -38.7724    0.0000 C   0  0  0  0  0  0  0  0  0  0  0  0
  -13.8390  -39.7671    0.0000 C   0  0  0  0  0  0  0  0  0  0  0  0
  -12.6503  -40.6819    0.0000 C   0  0  0  0  0  0  0  0  0  0  0  0
  -11.4013  -41.5126    0.0000 C   0  0  0  0  0  0  0  0  0  0  0  0
  -10.0980  -42.2551    0.0000 C   0  0  0  0  0  0  0  0  0  0  0  0
   -8.7465  -42.9059    0.0000 C   0  0  0  0  0  0  0  0  0  0  0  0
   -7.3534  -43.4620    0.0000 C   0  0  0  0  0  0  0  0  0  0  0  0
   -5.9252  -43.9206    0.0000 C   0  0  0  0  0  0  0  0  0  0  0  0
   -4.4688  -44.2795    0.0000 C   0  0  0  0  0  0  0  0  0  0  0  0
   -2.9911  -44.5372    0.0000 C   0  0  0  0  0  0  0  0  0  0  0  0
   -1.4991  -44.6922    0.0000 C   0  0  0  0  0  0  0  0  0  0  0  0
   -0.0000  -44.7440    0.0000 C   0  0  0  0  0  0  0  0  0  0  0  0
    1.4991  -44.6922    0.0000 C   0  0  0  0  0  0  0  0  0  0  0  0
    2.9911  -44.5372    0.0000 C   0  0  0  0  0  0  0  0  0  0  0  0
    4.4688  -44.2795    0.0000 C   0  0  0  0  0  0  0  0  0  0  0  0
    5.9252  -43.9206    0.0000 C   0  0  0  0  0  0  0  0  0  0  0  0
    7.3534  -43.4620    0.0000 C   0  0  0  0  0  0  0  0  0  0  0  0
    8.7465  -42.9059    0.0000 C   0  0  0  0  0  0  0  0  0  0  0  0
   10.0980  -42.2551    0.0000 C   0  0  0  0  0  0  0  0  0  0  0  0
   11.4013  -41.5126    0.0000 C   0  0  0  0  0  0  0  0  0  0  0  0
   12.6503  -40.6819    0.0000 C   0  0  0  0  0  0  0  0  0  0  0  0
   13.8390  -39.7671    0.0000 C   0  0  0  0  0  0  0  0  0  0  0  0
   14.9618  -38.7724    0.0000 C   0  0  0  0  0  0  0  0  0  0  0  0
   16.0132  -37.7026    0.0000 C   0  0  0  0  0  0  0  0  0  0  0  0
   16.9884  -36.5628    0.0000 C   0  0  0  0  0  0  0  0  0  0  0  0
   17.8826  -35.3585    0.0000 C   0  0  0  0  0  0  0  0  0  0  0  0
   18.6916  -34.0954    0.0000 C   0  0  0  0  0  0  0  0  0  0  0  0
   19.4115  -32.7794    0.0000 C   0  0  0  0  0  0  0  0  0  0  0  0
   20.0389  -31.4169    0.0000 C   0  0  0  0  0  0  0  0  0  0  0  0
   20.5708  -30.0144    0.0000 C   0  0  0  0  0  0  0  0  0  0  0  0
   21.0047  -28.5785    0.0000 C   0  0  0  0  0  0  0  0  0  0  0  0
   21.3384  -27.1161    0.0000 C   0  0  0  0  0  0  0  0  0  0  0  0
   21.5705  -25.6342    0.0000 C   0  0  0  0  0  0  0  0  0  0  0  0
   21.6998  -24.1398    0.0000 C   0  0  0  0  0  0  0  0  0  0  0  0
   21.7257  -22.6400    0.0000 C   0  0  0  0  0  0  0  0  0  0  0  0
   21.6481  -21.1420    0.0000 C   0  0  0  0  0  0  0  0  0  0  0  0
   21.4673  -19.6529    0.0000 C   0  0  0  0  0  0  0  0  0  0  0  0
   21.1842  -18.1799    0.0000 C   0  0  0  0  0  0  0  0  0  0  0  0
   20.8001  -16.7299    0.0000 C   0  0  0  0  0  0  0  0  0  0  0  0
   20.3169  -15.3099    0.0000 C   0  0  0  0  0  0  0  0  0  0  0  0
   19.7369  -13.9265    0.0000 C   0  0  0  0  0  0  0  0  0  0  0  0
   19.0629  -12.5865    0.0000 C   0  0  0  0  0  0  0  0  0  0  0  0
   18.2980  -11.2962    0.0000 C   0  0  0  0  0  0  0  0  0  0  0  0
   17.4459  -10.0617    0.0000 C   0  0  0  0  0  0  0  0  0  0  0  0
   16.5106   -8.8890    0.0000 C   0  0  0  0  0  0  0  0  0  0  0  0
   15.4967   -7.7835    0.0000 C   0  0  0  0  0  0  0  0  0  0  0  0
   14.4090   -6.7507    0.0000 C   0  0  0  0  0  0  0  0  0  0  0  0
   13.2525   -5.7954    0.0000 C   0  0  0  0  0  0  0  0  0  0  0  0
   12.0330   -4.9221    0.0000 C   0  0  0  0  0  0  0  0  0  0  0  0
   10.7560   -4.1350    0.0000 C   0  0  0  0  0  0  0  0  0  0  0  0
    9.4278   -3.4379    0.0000 C   0  0  0  0  0  0  0  0  0  0  0  0
    8.0547   -2.8341    0.0000 C   0  0  0  0  0  0  0  0  0  0  0  0
    6.6432   -2.3265    0.0000 C   0  0  0  0  0  0  0  0  0  0  0  0
    5.2001   -1.9175    0.0000 C   0  0  0  0  0  0  0  0  0  0  0  0
    3.7321   -1.6090    0.0000 C   0  0  0  0  0  0  0  0  0  0  0  0
    3.9949   -3.0858    0.0000 C   0  0  0  0  0  0  0  0  0  0  0  0
    2.6715   -3.7921    0.0000 C   0  0  0  0  0  0  0  0  0  0  0  0
    1.5909   -2.7517    0.0000 C   0  0  0  0  0  0  0  0  0  0  0  0
    2.2464   -1.4025    0.0000 C   0  0  0  0  0  0  0  0  0  0  0  0
    0.7500   -1.2990    0.0000 C   0  0  0  0  0  0  0  0  0  0  0  0
    1.5000    0.0000    0.0000 C   0  0  0  0  0  0  0  0  0  0  0  0
    0.7500    1.2990    0.0000 C   0  0  0  0  0  0  0  0  0  0  0  0
   -0.7500    1.2990    0.0000 C   0  0  0  0  0  0  0  0  0  0  0  0
   -1.5000    0.0000    0.0000 C   0  0  0  0  0  0  0  0  0  0  0  0
   -0.7500   -1.2990    0.0000 C   0  0  0  0  0  0  0  0  0  0  0  0
  1  2  1  0
  2  3  1  0
  3  4  1  0
  4  5  1  0
  5  6  1  0
  6  7  1  0
  7  8  1  0
  8  9  1  0
  9 10  1  0
 10 11  1  0
 11 12  1  0
 12 13  1  0
 13 14  1  0
 14 15  1  0
 15 16  1  0
 16 17  1  0
 17 18  1  0
 18 19  1  0
 19 20  1  0
 20 21  1  0
 21 22  1  0
 22 23  1  0
 23 24  1  0
 24 25  1  0
 25 26  1  0
 26 27  1  0
 27 28  1  0
 28 29  1  0
 29 30  1  0
 30 31  1  0
 31 32  1  0
 32 33  1  0
 33 34  1  0
 34 35  1  0
 35 36  1  0
 36 37  1  0
 37 38  1  0
 38 39  1  0
 39 40  1  0
 40 41  1  0
 41 42  1  0
 42 43  1  0
 43 44  1  0
 44 45  1  0
 45 46  1  0
 46 47  1  0
 47 48  1  0
 48 49  1  0
 49 50  1  0
 50 51  1  0
 51 52  1  0
 52 53  1  0
 53 54  1  0
 54 55  1  0
 55 56  1  0
 56 57  1  0
 57 58  1  0
 58 59  1  0
 59 60  1  0
 60 61  1  0
 61 62  1  0
 62 63  1  0
 63 64  1  0
 64 65  1  0
 65 66  1  0
 66 67  1  0
 67 68  1  0
 68 69  1  0
 69 70  1  0
 70 71  1  0
 71 72  1  0
 72 73  1  0
 73 74  1  0
 74 75  2  0
 75 76  1  0
 76 77  2  0
 77 78  1  0
 78 79  2  0
 79 80  1  0
 80 81  2  0
 81 82  1  0
 82 83  2  0
 83 84  1  0
 84 85  2  0
 85 86  1  0
 86 87  2  0
 87 88  1  0
 88 89  2  0
 89 90  1  0
 90 91  2  0
 91 92  1  0
 92 93  2  0
 93 94  1  0
 94 95  2  0
 95 96  1  0
 96 97  2  0
 97 98  1  0
 98 99  2  0
 99  2  1  0
 93 89  1  0
 99 94  1  0
M  END
>  <Title>  (72) 
idAAAVgen10

$$$$

     RDKit          2D

  7  7  0  0  0  0  0  0  0  0999 V2000
    4.2760   -0.0000    0.0000 C   0  0  0  0  0  0  0  0  0  0  0  0
    2.7760    0.0000    0.0000 C   0  0  0  0  0  0  0  0  0  0  0  0
    1.2760    0.0000    0.0000 C   0  0  0  0  0  0  0  0  0  0  0  0
    0.3943    1.2135    0.0000 C   0  0  0  0  0  0  0  0  0  0  0  0
   -1.0323    0.7500    0.0000 C   0  0  0  0  0  0  0  0  0  0  0  0
   -1.0323   -0.7500    0.0000 C   0  0  0  0  0  0  0  0  0  0  0  0
    0.3943   -1.2135    0.0000 C   0  0  0  0  0  0  0  0  0  0  0  0
  1  2  3  0
  2  3  1  0
  3  4  2  0
  4  5  1  0
  5  6  1  0
  6  7  2  0
  7  3  1  0
M  END
>  <Title>  (73) 
idAAAWgen10

$$$$

     RDKit          2D

 74 77  0  0  0  0  0  0  0  0999 V2000
   -8.6242   -2.2901    0.0000 C   0  0  0  0  0  0  0  0  0  0  0  0
   -7.8192   -3.5558    0.0000 C   0  0  0  0  0  0  0  0  0  0  0  0
   -9.0417   -4.4249    0.0000 C   0  0  0  0  0  0  0  0  0  0  0  0
  -10.1684   -5.4151    0.0000 C   0  0  0  0  0  0  0  0  0  0  0  0
  -11.1873   -6.5160    0.0000 C   0  0  0  0  0  0  0  0  0  0  0  0
  -12.0877   -7.7157    0.0000 C   0  0  0  0  0  0  0  0  0  0  0  0
  -12.8599   -9.0017    0.0000 C   0  0  0  0  0  0  0  0  0  0  0  0
  -13.4957  -10.3602    0.0000 C   0  0  0  0  0  0  0  0  0  0  0  0
  -13.9885  -11.7770    0.0000 C   0  0  0  0  0  0  0  0  0  0  0  0
  -14.3331  -13.2369    0.0000 C   0  0  0  0  0  0  0  0  0  0  0  0
  -14.5257  -14.7245    0.0000 C   0  0  0  0  0  0  0  0  0  0  0  0
  -14.5643  -16.2240    0.0000 C   0  0  0  0  0  0  0  0  0  0  0  0
  -14.4485  -17.7195    0.0000 C   0  0  0  0  0  0  0  0  0  0  0  0
  -14.1796  -19.1952    0.0000 C   0  0  0  0  0  0  0  0  0  0  0  0
  -13.7604  -20.6354    0.0000 C   0  0  0  0  0  0  0  0  0  0  0  0
  -13.1953  -22.0249    0.0000 C   0  0  0  0  0  0  0  0  0  0  0  0
  -12.4903  -23.3489    0.0000 C   0  0  0  0  0  0  0  0  0  0  0  0
  -11.6530  -24.5934    0.0000 C   0  0  0  0  0  0  0  0  0  0  0  0
  -10.6921  -25.7453    0.0000 C   0  0  0  0  0  0  0  0  0  0  0  0
   -9.6178  -26.7922    0.0000 C   0  0  0  0  0  0  0  0  0  0  0  0
   -8.4417  -27.7231    0.0000 C   0  0  0  0  0  0  0  0  0  0  0  0
   -7.1760  -28.5281    0.0000 C   0  0  0  0  0  0  0  0  0  0  0  0
   -5.8343  -29.1988    0.0000 C   0  0  0  0  0  0  0  0  0  0  0  0
   -4.4307  -29.7279    0.0000 C   0  0  0  0  0  0  0  0  0  0  0  0
   -2.9801  -30.1099    0.0000 C   0  0  0  0  0  0  0  0  0  0  0  0
   -1.4980  -30.3407    0.0000 C   0  0  0  0  0  0  0  0  0  0  0  0
    0.0000  -30.4180    0.0000 C   0  0  0  0  0  0  0  0  0  0  0  0
    1.4980  -30.3407    0.0000 C   0  0  0  0  0  0  0  0  0  0  0  0
    2.9801  -30.1099    0.0000 C   0  0  0  0  0  0  0  0  0  0  0  0
    4.4307  -29.7279    0.0000 C   0  0  0  0  0  0  0  0  0  0  0  0
    5.8343  -29.1988    0.0000 C   0  0  0  0  0  0  0  0  0  0  0  0
    7.1760  -28.5281    0.0000 C   0  0  0  0  0  0  0  0  0  0  0  0
    8.4417  -27.7231    0.0000 C   0  0  0  0  0  0  0  0  0  0  0  0
    9.6178  -26.7922    0.0000 C   0  0  0  0  0  0  0  0  0  0  0  0
   10.6921  -25.7453    0.0000 C   0  0  0  0  0  0  0  0  0  0  0  0
   11.6530  -24.5934    0.0000 C   0  0  0  0  0  0  0  0  0  0  0  0
   12.4903  -23.3489    0.0000 C   0  0  0  0  0  0  0  0  0  0  0  0
   13.1953  -22.0249    0.0000 C   0  0  0  0  0  0  0  0  0  0  0  0
   13.7604  -20.6354    0.0000 C   0  0  0  0  0  0  0  0  0  0  0  0
   14.1796  -19.1952    0.0000 C   0  0  0  0  0  0  0  0  0  0  0  0
   14.4485  -17.7195    0.0000 C   0  0  0  0  0  0  0  0  0  0  0  0
   14.5643  -16.2240    0.0000 C   0  0  0  0  0  0  0  0  0  0  0  0
   14.5257  -14.7245    0.0000 C   0  0  0  0  0  0  0  0  0  0  0  0
   14.3331  -13.2369    0.0000 C   0  0  0  0  0  0  0  0  0  0  0  0
   13.9885  -11.7770    0.0000 C   0  0  0  0  0  0  0  0  0  0  0  0
   13.4957  -10.3602    0.0000 C   0  0  0  0  0  0  0  0  0  0  0  0
   12.8599   -9.0017    0.0000 C   0  0  0  0  0  0  0  0  0  0  0  0
   12.0877   -7.7157    0.0000 C   0  0  0  0  0  0  0  0  0  0  0  0
   11.1873   -6.5160    0.0000 C   0  0  0  0  0  0  0  0  0  0  0  0
   10.1684   -5.4151    0.0000 C   0  0  0  0  0  0  0  0  0  0  0  0
    9.0417   -4.4249    0.0000 C   0  0  0  0  0  0  0  0  0  0  0  0
    7.8192   -3.5558    0.0000 C   0  0  0  0  0  0  0  0  0  0  0  0
    6.5138   -2.8170    0.0000 C   0  0  0  0  0  0  0  0  0  0  0  0
    5.1393   -2.2163    0.0000 C   0  0  0  0  0  0  0  0  0  0  0  0
    3.7103   -1.7601    0.0000 C   0  0  0  0  0  0  0  0  0  0  0  0
    2.2420   -1.4533    0.0000 C   0  0  0  0  0  0  0  0  0  0  0  0
    0.7500   -1.2990    0.0000 C   0  0  0  0  0  0  0  0  0  0  0  0
    1.5000    0.0000    0.0000 C   0  0  0  0  0  0  0  0  0  0  0  0
    0.7500    1.2990    0.0000 C   0  0  0  0  0  0  0  0  0  0  0  0
   -0.7500    1.2990    0.0000 C   0  0  0  0  0  0  0  0  0  0  0  0
   -1.5000    0.0000    0.0000 C   0  0  0  0  0  0  0  0  0  0  0  0
   -0.7500   -1.2990    0.0000 C   0  0  0  0  0  0  0  0  0  0  0  0
   -2.2420   -1.4533    0.0000 C   0  0  0  0  0  0  0  0  0  0  0  0
   -1.2422   -2.5714    0.0000 C   0  0  0  0  0  0  0  0  0  0  0  0
   -1.7106   -3.9964    0.0000 C   0  0  0  0  0  0  0  0  0  0  0  0
   -3.1789   -4.3032    0.0000 C   0  0  0  0  0  0  0  0  0  0  0  0
   -4.1788   -3.1851    0.0000 C   0  0  0  0  0  0  0  0  0  0  0  0
   -3.7103   -1.7601    0.0000 C   0  0  0  0  0  0  0  0  0  0  0  0
   -5.1393   -2.2163    0.0000 C   0  0  0  0  0  0  0  0  0  0  0  0
   -4.9723   -0.7256    0.0000 C   0  0  0  0  0  0  0  0  0  0  0  0
   -6.1797    0.1644    0.0000 C   0  0  0  0  0  0  0  0  0  0  0  0
   -7.5542   -0.4363    0.0000 C   0  0  0  0  0  0  0  0  0  0  0  0
   -7.7212   -1.9270    0.0000 C   0  0  0  0  0  0  0  0  0  0  0  0
   -6.5138   -2.8170    0.0000 C   0  0  0  0  0  0  0  0  0  0  0  0
  1  2  1  0
  2  3  1  0
  3  4  1  0
  4  5  1  0
  5  6  1  0
  6  7  1  0
  7  8  1  0
  8  9  1  0
  9 10  1  0
 10 11  1  0
 11 12  1  0
 12 13  1  0
 13 14  1  0
 14 15  1  0
 15 16  1  0
 16 17  1  0
 17 18  1  0
 18 19  1  0
 19 20  1  0
 20 21  1  0
 21 22  1  0
 22 23  1  0
 23 24  1  0
 24 25  1  0
 25 26  1  0
 26 27  1  0
 27 28  1  0
 28 29  1  0
 29 30  1  0
 30 31  1  0
 31 32  1  0
 32 33  1  0
 33 34  1  0
 34 35  1  0
 35 36  1  0
 36 37  1  0
 37 38  1  0
 38 39  1  0
 39 40  1  0
 40 41  1  0
 41 42  1  0
 42 43  1  0
 43 44  1  0
 44 45  1  0
 45 46  1  0
 46 47  1  0
 47 48  1  0
 48 49  1  0
 49 50  1  0
 50 51  1  0
 51 52  1  0
 52 53  1  0
 53 54  1  0
 54 55  1  0
 55 56  1  0
 56 57  1  0
 57 58  2  0
 58 59  1  0
 59 60  2  0
 60 61  1  0
 61 62  2  0
 62 63  1  0
 63 64  2  0
 64 65  1  0
 65 66  2  0
 66 67  1  0
 67 68  2  0
 68 69  1  0
 69 70  2  0
 70 71  1  0
 71 72  2  0
 72 73  1  0
 73 74  2  0
 74  2  1  0
 62 57  1  0
 68 63  1  0
 74 69  1  0
M  END
>  <Title>  (74) 
idAAAXgen10

$$$$

     RDKit          2D

  6  6  0  0  0  0  0  0  0  0999 V2000
    2.7760    0.0000    0.0000 O   0  0  0  0  0  0  0  0  0  0  0  0
    1.2760    0.0000    0.0000 C   0  0  0  0  0  0  0  0  0  0  0  0
    0.3943    1.2135    0.0000 C   0  0  0  0  0  0  0  0  0  0  0  0
   -1.0323    0.7500    0.0000 C   0  0  0  0  0  0  0  0  0  0  0  0
   -1.0323   -0.7500    0.0000 C   0  0  0  0  0  0  0  0  0  0  0  0
    0.3943   -1.2135    0.0000 C   0  0  0  0  0  0  0  0  0  0  0  0
  1  2  1  0
  2  3  1  0
  3  4  1  0
  4  5  2  0
  5  6  1  0
  6  2  1  0
M  END
>  <Title>  (75) 
idAAAYgen10

$$$$

     RDKit          2D

 10 10  0  0  0  0  0  0  0  0999 V2000
    6.7500   -1.2990    0.0000 C   0  0  0  0  0  0  0  0  0  0  0  0
    6.0000    0.0000    0.0000 C   0  0  0  0  0  0  0  0  0  0  0  0
    4.5000    0.0000    0.0000 C   0  0  0  0  0  0  0  0  0  0  0  0
    3.0000    0.0000    0.0000 C   0  0  0  0  0  0  0  0  0  0  0  0
    1.5000    0.0000    0.0000 C   0  0  0  0  0  0  0  0  0  0  0  0
    0.7500   -1.2990    0.0000 C   0  0  0  0  0  0  0  0  0  0  0  0
   -0.7500   -1.2990    0.0000 C   0  0  0  0  0  0  0  0  0  0  0  0
   -1.5000    0.0000    0.0000 C   0  0  0  0  0  0  0  0  0  0  0  0
   -0.7500    1.2990    0.0000 C   0  0  0  0  0  0  0  0  0  0  0  0
    0.7500    1.2990    0.0000 N   0  0  0  0  0  0  0  0  0  0  0  0
  1  2  2  0
  2  3  1  0
  3  4  3  0
  4  5  1  0
  5  6  2  0
  6  7  1  0
  7  8  2  0
  8  9  1  0
  9 10  2  0
 10  5  1  0
M  END
>  <Title>  (76) 
idAAAZgen10

$$$$

     RDKit          2D

 10 10  0  0  0  0  0  0  0  0999 V2000
    6.0000   -2.5981    0.0000 C   0  0  0  0  0  0  0  0  0  0  0  0
    5.2500   -1.2990    0.0000 C   0  0  0  0  0  0  0  0  0  0  0  0
    3.7500   -1.2990    0.0000 C   0  0  0  0  0  0  0  0  0  0  0  0
    3.0000    0.0000    0.0000 C   0  0  0  0  0  0  0  0  0  0  0  0
    1.5000    0.0000    0.0000 C   0  0  0  0  0  0  0  0  0  0  0  0
    0.7500   -1.2990    0.0000 C   0  0  0  0  0  0  0  0  0  0  0  0
   -0.7500   -1.2990    0.0000 C   0  0  0  0  0  0  0  0  0  0  0  0
   -1.5000    0.0000    0.0000 C   0  0  0  0  0  0  0  0  0  0  0  0
   -0.7500    1.2990    0.0000 C   0  0  0  0  0  0  0  0  0  0  0  0
    0.7500    1.2990    0.0000 C   0  0  0  0  0  0  0  0  0  0  0  0
  1  2  2  0
  2  3  1  0
  3  4  2  3
  4  5  1  0
  5  6  2  0
  6  7  1  0
  7  8  2  0
  8  9  1  0
  9 10  2  0
 10  5  1  0
M  END
>  <Title>  (77) 
idAABAgen10

$$$$

     RDKit          2D

  9  9  0  0  0  0  0  0  0  0999 V2000
    3.2286   -0.0000    0.0000 C   0  0  0  0  0  0  0  0  0  0  0  0
    1.7286    0.0000    0.0000 C   0  0  0  0  0  0  0  0  0  0  0  0
    1.0777    1.3515    0.0000 C   0  0  0  0  0  0  0  0  0  0  0  0
   -0.3846    1.6852    0.0000 C   0  0  0  0  0  0  0  0  0  0  0  0
   -1.5574    0.7500    0.0000 C   0  0  0  0  0  0  0  0  0  0  0  0
   -1.5574   -0.7500    0.0000 C   0  0  0  0  0  0  0  0  0  0  0  0
   -0.3846   -1.6852    0.0000 C   0  0  0  0  0  0  0  0  0  0  0  0
   -0.7184   -3.1476    0.0000 C   0  0  0  0  0  0  0  0  0  0  0  0
    1.0777   -1.3515    0.0000 N   0  0  0  0  0  0  0  0  0  0  0  0
  1  2  1  0
  2  3  2  0
  3  4  1  0
  4  5  1  0
  5  6  1  0
  6  7  1  0
  7  8  1  0
  7  9  1  0
  9  2  1  0
M  END
>  <Title>  (78) 
idAABBgen10

$$$$

     RDKit          2D

 11 11  0  0  0  0  0  0  0  0999 V2000
    6.7500   -1.2990    0.0000 C   0  0  0  0  0  0  0  0  0  0  0  0
    5.2500   -1.2990    0.0000 C   0  0  0  0  0  0  0  0  0  0  0  0
    3.7500   -1.2990    0.0000 C   0  0  0  0  0  0  0  0  0  0  0  0
    3.0000   -2.5981    0.0000 O   0  0  0  0  0  0  0  0  0  0  0  0
    3.0000    0.0000    0.0000 O   0  0  0  0  0  0  0  0  0  0  0  0
    1.5000    0.0000    0.0000 C   0  0  0  0  0  0  0  0  0  0  0  0
    0.7500   -1.2990    0.0000 C   0  0  0  0  0  0  0  0  0  0  0  0
   -0.7500   -1.2990    0.0000 C   0  0  0  0  0  0  0  0  0  0  0  0
   -1.5000    0.0000    0.0000 C   0  0  0  0  0  0  0  0  0  0  0  0
   -0.7500    1.2990    0.0000 C   0  0  0  0  0  0  0  0  0  0  0  0
    0.7500    1.2990    0.0000 C   0  0  0  0  0  0  0  0  0  0  0  0
  1  2  3  0
  2  3  1  0
  3  4  2  0
  3  5  1  0
  5  6  1  0
  6  7  2  0
  7  8  1  0
  8  9  2  0
  9 10  1  0
 10 11  2  0
 11  6  1  0
M  END
>  <Title>  (79) 
idAABCgen10

$$$$

     RDKit          2D

  9  9  0  0  0  0  0  0  0  0999 V2000
    3.2286   -0.0000    0.0000 C   0  0  0  0  0  0  0  0  0  0  0  0
    1.7286    0.0000    0.0000 C   0  0  0  0  0  0  0  0  0  0  0  0
    1.0777    1.3515    0.0000 C   0  0  0  0  0  0  0  0  0  0  0  0
   -0.3846    1.6852    0.0000 C   0  0  0  0  0  0  0  0  0  0  0  0
   -0.7184    3.1476    0.0000 C   0  0  0  0  0  0  0  0  0  0  0  0
   -1.5574    0.7500    0.0000 N   0  0  0  0  0  0  0  0  0  0  0  0
   -1.5574   -0.7500    0.0000 C   0  0  0  0  0  0  0  0  0  0  0  0
   -0.3846   -1.6852    0.0000 C   0  0  0  0  0  0  0  0  0  0  0  0
    1.0777   -1.3515    0.0000 N   0  0  0  0  0  0  0  0  0  0  0  0
  1  2  1  0
  2  3  2  0
  3  4  1  0
  4  5  1  0
  4  6  1  0
  6  7  1  0
  7  8  1  0
  8  9  2  0
  9  2  1  0
M  END
>  <Title>  (80) 
idAABDgen10

$$$$

     RDKit          2D

 39 44  0  0  0  0  0  0  0  0999 V2000
    2.1535   -8.4451    0.0000 C   0  0  0  0  0  0  0  0  0  0  0  0
    1.4564   -7.1169    0.0000 C   0  0  0  0  0  0  0  0  0  0  0  0
    2.5792   -6.1222    0.0000 C   0  0  0  0  0  0  0  0  0  0  0  0
    3.1111   -4.7197    0.0000 C   0  0  0  0  0  0  0  0  0  0  0  0
    2.9303   -3.2306    0.0000 C   0  0  0  0  0  0  0  0  0  0  0  0
    2.0782   -1.9961    0.0000 C   0  0  0  0  0  0  0  0  0  0  0  0
    3.0729   -0.8734    0.0000 C   0  0  0  0  0  0  0  0  0  0  0  0
    2.5979    0.5494    0.0000 O   0  0  0  0  0  0  0  0  0  0  0  0
    4.5426   -1.1734    0.0000 N   0  0  0  0  0  0  0  0  0  0  0  0
    5.5372   -0.0506    0.0000 C   0  0  0  0  0  0  0  0  0  0  0  0
    7.0069   -0.3507    0.0000 N   0  0  0  0  0  0  0  0  0  0  0  0
    8.0016    0.7721    0.0000 N   0  0  0  0  0  0  0  0  0  0  0  0
    7.5266    2.1949    0.0000 N   0  0  0  0  0  0  0  0  0  0  0  0
    6.0569    2.4949    0.0000 N   0  0  0  0  0  0  0  0  0  0  0  0
    5.0622    1.3722    0.0000 N   0  0  0  0  0  0  0  0  0  0  0  0
    0.7500   -1.2990    0.0000 C   0  0  0  0  0  0  0  0  0  0  0  0
    1.5000    0.0000    0.0000 C   0  0  0  0  0  0  0  0  0  0  0  0
    0.7500    1.2990    0.0000 C   0  0  0  0  0  0  0  0  0  0  0  0
   -0.7500    1.2990    0.0000 C   0  0  0  0  0  0  0  0  0  0  0  0
   -1.5000    0.0000    0.0000 C   0  0  0  0  0  0  0  0  0  0  0  0
   -0.7500   -1.2990    0.0000 C   0  0  0  0  0  0  0  0  0  0  0  0
   -2.0782   -1.9961    0.0000 C   0  0  0  0  0  0  0  0  0  0  0  0
   -2.7212   -0.6409    0.0000 C   0  0  0  0  0  0  0  0  0  0  0  0
   -4.2164   -0.5202    0.0000 C   0  0  0  0  0  0  0  0  0  0  0  0
   -5.0685   -1.7547    0.0000 C   0  0  0  0  0  0  0  0  0  0  0  0
   -4.4254   -3.1099    0.0000 C   0  0  0  0  0  0  0  0  0  0  0  0
   -2.9303   -3.2306    0.0000 C   0  0  0  0  0  0  0  0  0  0  0  0
   -3.1111   -4.7197    0.0000 C   0  0  0  0  0  0  0  0  0  0  0  0
   -4.5917   -4.4790    0.0000 C   0  0  0  0  0  0  0  0  0  0  0  0
   -5.5403   -5.6410    0.0000 C   0  0  0  0  0  0  0  0  0  0  0  0
   -5.0084   -7.0435    0.0000 C   0  0  0  0  0  0  0  0  0  0  0  0
   -3.5278   -7.2841    0.0000 C   0  0  0  0  0  0  0  0  0  0  0  0
   -2.5792   -6.1222    0.0000 C   0  0  0  0  0  0  0  0  0  0  0  0
   -1.4564   -7.1169    0.0000 C   0  0  0  0  0  0  0  0  0  0  0  0
   -2.4955   -8.1987    0.0000 C   0  0  0  0  0  0  0  0  0  0  0  0
   -2.0782   -9.6395    0.0000 C   0  0  0  0  0  0  0  0  0  0  0  0
   -0.6218   -9.9984    0.0000 C   0  0  0  0  0  0  0  0  0  0  0  0
    0.4173   -8.9166    0.0000 C   0  0  0  0  0  0  0  0  0  0  0  0
   -0.0000   -7.4758    0.0000 C   0  0  0  0  0  0  0  0  0  0  0  0
  1  2  1  0
  2  3  1  0
  3  4  1  0
  4  5  1  0
  5  6  1  0
  6  7  1  0
  7  8  2  0
  7  9  1  0
  9 10  1  0
 10 11  2  0
 11 12  1  0
 12 13  2  0
 13 14  1  0
 14 15  2  0
  6 16  1  0
 16 17  2  0
 17 18  1  0
 18 19  2  0
 19 20  1  0
 20 21  2  0
 21 22  1  0
 22 23  2  0
 23 24  1  0
 24 25  2  0
 25 26  1  0
 26 27  2  0
 27 28  1  0
 28 29  2  0
 29 30  1  0
 30 31  2  0
 31 32  1  0
 32 33  2  0
 33 34  1  0
 34 35  2  0
 35 36  1  0
 36 37  2  0
 37 38  1  0
 38 39  2  0
 39  2  1  0
 15 10  1  0
 21 16  1  0
 27 22  1  0
 33 28  1  0
 39 34  1  0
M  END
>  <Title>  (81) 
idAABEgen10

$$$$

     RDKit          2D

 78 79  0  0  0  0  0  0  0  0999 V2000
   -2.4376    0.0595    0.0000 C   0  0  0  0  0  0  0  0  0  0  0  0
   -2.2444   -1.4280    0.0000 C   0  0  0  0  0  0  0  0  0  0  0  0
   -3.7223   -1.6849    0.0000 C   0  0  0  0  0  0  0  0  0  0  0  0
   -5.1725   -2.0680    0.0000 C   0  0  0  0  0  0  0  0  0  0  0  0
   -6.5845   -2.5742    0.0000 C   0  0  0  0  0  0  0  0  0  0  0  0
   -7.9478   -3.2000    0.0000 C   0  0  0  0  0  0  0  0  0  0  0  0
   -9.2521   -3.9407    0.0000 C   0  0  0  0  0  0  0  0  0  0  0  0
  -10.4880   -4.7907    0.0000 C   0  0  0  0  0  0  0  0  0  0  0  0
  -11.6463   -5.7439    0.0000 C   0  0  0  0  0  0  0  0  0  0  0  0
  -12.7183   -6.7931    0.0000 C   0  0  0  0  0  0  0  0  0  0  0  0
  -13.6961   -7.9305    0.0000 C   0  0  0  0  0  0  0  0  0  0  0  0
  -14.5726   -9.1478    0.0000 C   0  0  0  0  0  0  0  0  0  0  0  0
  -15.3411  -10.4360    0.0000 C   0  0  0  0  0  0  0  0  0  0  0  0
  -15.9961  -11.7854    0.0000 C   0  0  0  0  0  0  0  0  0  0  0  0
  -16.5326  -13.1862    0.0000 C   0  0  0  0  0  0  0  0  0  0  0  0
  -16.9468  -14.6279    0.0000 C   0  0  0  0  0  0  0  0  0  0  0  0
  -17.2355  -16.0999    0.0000 C   0  0  0  0  0  0  0  0  0  0  0  0
  -17.3965  -17.5912    0.0000 C   0  0  0  0  0  0  0  0  0  0  0  0
  -17.4288  -19.0908    0.0000 C   0  0  0  0  0  0  0  0  0  0  0  0
  -17.3320  -20.5877    0.0000 C   0  0  0  0  0  0  0  0  0  0  0  0
  -17.1070  -22.0707    0.0000 C   0  0  0  0  0  0  0  0  0  0  0  0
  -16.7552  -23.5289    0.0000 C   0  0  0  0  0  0  0  0  0  0  0  0
  -16.2794  -24.9514    0.0000 C   0  0  0  0  0  0  0  0  0  0  0  0
  -15.6831  -26.3278    0.0000 C   0  0  0  0  0  0  0  0  0  0  0  0
  -14.9707  -27.6478    0.0000 C   0  0  0  0  0  0  0  0  0  0  0  0
  -14.1474  -28.9017    0.0000 C   0  0  0  0  0  0  0  0  0  0  0  0
  -13.2194  -30.0802    0.0000 C   0  0  0  0  0  0  0  0  0  0  0  0
  -12.1935  -31.1745    0.0000 C   0  0  0  0  0  0  0  0  0  0  0  0
  -11.0774  -32.1766    0.0000 C   0  0  0  0  0  0  0  0  0  0  0  0
   -9.8792  -33.0791    0.0000 C   0  0  0  0  0  0  0  0  0  0  0  0
   -8.6079  -33.8752    0.0000 C   0  0  0  0  0  0  0  0  0  0  0  0
   -7.2729  -34.5590    0.0000 C   0  0  0  0  0  0  0  0  0  0  0  0
   -5.8840  -35.1256    0.0000 C   0  0  0  0  0  0  0  0  0  0  0  0
   -4.4515  -35.5707    0.0000 C   0  0  0  0  0  0  0  0  0  0  0  0
   -2.9861  -35.8909    0.0000 C   0  0  0  0  0  0  0  0  0  0  0  0
   -1.4986  -36.0841    0.0000 C   0  0  0  0  0  0  0  0  0  0  0  0
   -0.0000  -36.1486    0.0000 C   0  0  0  0  0  0  0  0  0  0  0  0
    1.4986  -36.0841    0.0000 C   0  0  0  0  0  0  0  0  0  0  0  0
    2.9861  -35.8909    0.0000 C   0  0  0  0  0  0  0  0  0  0  0  0
    4.4515  -35.5707    0.0000 C   0  0  0  0  0  0  0  0  0  0  0  0
    5.8840  -35.1256    0.0000 C   0  0  0  0  0  0  0  0  0  0  0  0
    7.2729  -34.5590    0.0000 C   0  0  0  0  0  0  0  0  0  0  0  0
    8.6079  -33.8752    0.0000 C   0  0  0  0  0  0  0  0  0  0  0  0
    9.8792  -33.0791    0.0000 C   0  0  0  0  0  0  0  0  0  0  0  0
   11.0774  -32.1766    0.0000 C   0  0  0  0  0  0  0  0  0  0  0  0
   12.1935  -31.1745    0.0000 C   0  0  0  0  0  0  0  0  0  0  0  0
   13.2194  -30.0802    0.0000 C   0  0  0  0  0  0  0  0  0  0  0  0
   14.1474  -28.9017    0.0000 C   0  0  0  0  0  0  0  0  0  0  0  0
   14.9707  -27.6478    0.0000 C   0  0  0  0  0  0  0  0  0  0  0  0
   15.6831  -26.3278    0.0000 C   0  0  0  0  0  0  0  0  0  0  0  0
   16.2794  -24.9514    0.0000 C   0  0  0  0  0  0  0  0  0  0  0  0
   16.7552  -23.5289    0.0000 C   0  0  0  0  0  0  0  0  0  0  0  0
   17.1070  -22.0707    0.0000 C   0  0  0  0  0  0  0  0  0  0  0  0
   17.3320  -20.5877    0.0000 C   0  0  0  0  0  0  0  0  0  0  0  0
   17.4288  -19.0908    0.0000 C   0  0  0  0  0  0  0  0  0  0  0  0
   17.3965  -17.5912    0.0000 C   0  0  0  0  0  0  0  0  0  0  0  0
   17.2355  -16.0999    0.0000 C   0  0  0  0  0  0  0  0  0  0  0  0
   16.9468  -14.6279    0.0000 C   0  0  0  0  0  0  0  0  0  0  0  0
   16.5326  -13.1862    0.0000 C   0  0  0  0  0  0  0  0  0  0  0  0
   15.9961  -11.7854    0.0000 C   0  0  0  0  0  0  0  0  0  0  0  0
   15.3411  -10.4360    0.0000 C   0  0  0  0  0  0  0  0  0  0  0  0
   14.5726   -9.1478    0.0000 C   0  0  0  0  0  0  0  0  0  0  0  0
   13.6961   -7.9305    0.0000 C   0  0  0  0  0  0  0  0  0  0  0  0
   12.7183   -6.7931    0.0000 C   0  0  0  0  0  0  0  0  0  0  0  0
   11.6463   -5.7439    0.0000 C   0  0  0  0  0  0  0  0  0  0  0  0
   10.4880   -4.7907    0.0000 C   0  0  0  0  0  0  0  0  0  0  0  0
    9.2521   -3.9407    0.0000 C   0  0  0  0  0  0  0  0  0  0  0  0
    7.9478   -3.2000    0.0000 C   0  0  0  0  0  0  0  0  0  0  0  0
    6.5845   -2.5742    0.0000 C   0  0  0  0  0  0  0  0  0  0  0  0
    5.1725   -2.0680    0.0000 C   0  0  0  0  0  0  0  0  0  0  0  0
    3.7223   -1.6849    0.0000 C   0  0  0  0  0  0  0  0  0  0  0  0
    2.2444   -1.4280    0.0000 C   0  0  0  0  0  0  0  0  0  0  0  0
    0.7500   -1.2990    0.0000 C   0  0  0  0  0  0  0  0  0  0  0  0
    1.5000    0.0000    0.0000 C   0  0  0  0  0  0  0  0  0  0  0  0
    0.7500    1.2990    0.0000 C   0  0  0  0  0  0  0  0  0  0  0  0
   -0.7500    1.2990    0.0000 C   0  0  0  0  0  0  0  0  0  0  0  0
   -1.5000    0.0000    0.0000 C   0  0  0  0  0  0  0  0  0  0  0  0
   -0.7500   -1.2990    0.0000 C   0  0  0  0  0  0  0  0  0  0  0  0
  1  2  1  0
  2  3  2  0
  3  4  1  0
  4  5  1  0
  5  6  2  0
  6  7  1  0
  7  8  2  0
  8  9  1  0
  9 10  2  0
 10 11  1  0
 11 12  2  0
 12 13  1  0
 13 14  2  0
 14 15  1  0
 15 16  2  0
 16 17  1  0
 17 18  2  0
 18 19  1  0
 19 20  1  0
 20 21  1  0
 21 22  1  0
 22 23  1  0
 23 24  1  0
 24 25  1  0
 25 26  1  0
 26 27  1  0
 27 28  1  0
 28 29  1  0
 29 30  1  0
 30 31  1  0
 31 32  1  0
 32 33  1  0
 33 34  1  0
 34 35  1  0
 35 36  1  0
 36 37  1  0
 37 38  1  0
 38 39  1  0
 39 40  1  0
 40 41  1  0
 41 42  1  0
 42 43  1  0
 43 44  1  0
 44 45  1  0
 45 46  1  0
 46 47  1  0
 47 48  1  0
 48 49  1  0
 49 50  1  0
 50 51  1  0
 51 52  1  0
 52 53  1  0
 53 54  1  0
 54 55  1  0
 55 56  1  0
 56 57  1  0
 57 58  1  0
 58 59  1  0
 59 60  1  0
 60 61  2  0
 61 62  1  0
 62 63  2  0
 63 64  1  0
 64 65  2  0
 65 66  1  0
 66 67  2  0
 67 68  1  0
 68 69  2  0
 69 70  1  0
 70 71  2  0
 71 72  1  0
 72 73  2  0
 73 74  1  0
 74 75  1  0
 75 76  2  0
 76 77  1  0
 77 78  2  0
 78  2  1  0
 78 73  1  0
M  END
>  <Title>  (82) 
idAABFgen10

$$$$

     RDKit          2D

  7  7  0  0  0  0  0  0  0  0999 V2000
    2.7760    0.0000    0.0000 C   0  0  0  0  0  0  0  0  0  0  0  0
    1.2760    0.0000    0.0000 C   0  0  0  0  0  0  0  0  0  0  0  0
    0.3943    1.2135    0.0000 C   0  0  0  0  0  0  0  0  0  0  0  0
   -1.0323    0.7500    0.0000 C   0  0  0  0  0  0  0  0  0  0  0  0
   -1.0323   -0.7500    0.0000 C   0  0  0  0  0  0  0  0  0  0  0  0
   -2.2458   -1.6317    0.0000 C   0  0  0  0  0  0  0  0  0  0  0  0
    0.3943   -1.2135    0.0000 C   0  0  0  0  0  0  0  0  0  0  0  0
  1  2  1  0
  2  3  2  0
  3  4  1  0
  4  5  1  0
  5  6  1  0
  5  7  2  0
  7  2  1  0
M  END
>  <Title>  (83) 
idAABGgen10

$$$$

     RDKit          2D

 10 10  0  0  0  0  0  0  0  0999 V2000
    4.5000    0.0000    0.0000 C   0  0  0  0  0  0  0  0  0  0  0  0
    3.0000    0.0000    0.0000 C   0  0  0  0  0  0  0  0  0  0  0  0
    1.5000    0.0000    0.0000 C   0  0  0  0  0  0  0  0  0  0  0  0
    0.7500   -1.2990    0.0000 C   0  0  0  0  0  0  0  0  0  0  0  0
   -0.7500   -1.2990    0.0000 C   0  0  0  0  0  0  0  0  0  0  0  0
   -1.5000    0.0000    0.0000 C   0  0  0  0  0  0  0  0  0  0  0  0
   -3.0000    0.0000    0.0000 C   0  0  0  0  0  0  0  0  0  0  0  0
   -4.5000    0.0000    0.0000 N   0  0  0  0  0  0  0  0  0  0  0  0
   -0.7500    1.2990    0.0000 C   0  0  0  0  0  0  0  0  0  0  0  0
    0.7500    1.2990    0.0000 C   0  0  0  0  0  0  0  0  0  0  0  0
  1  2  3  0
  2  3  1  0
  3  4  2  0
  4  5  1  0
  5  6  2  0
  6  7  1  0
  7  8  3  0
  6  9  1  0
  9 10  2  0
 10  3  1  0
M  END
>  <Title>  (84) 
idAABHgen10

$$$$

     RDKit          2D

  9  9  0  0  0  0  0  0  0  0999 V2000
    5.7760   -2.5981    0.0000 C   0  0  0  0  0  0  0  0  0  0  0  0
    5.0260   -1.2990    0.0000 C   0  0  0  0  0  0  0  0  0  0  0  0
    3.5260   -1.2990    0.0000 C   0  0  0  0  0  0  0  0  0  0  0  0
    2.7760    0.0000    0.0000 C   0  0  0  0  0  0  0  0  0  0  0  0
    1.2760    0.0000    0.0000 C   0  0  0  0  0  0  0  0  0  0  0  0
    0.3943    1.2135    0.0000 C   0  0  0  0  0  0  0  0  0  0  0  0
   -1.0323    0.7500    0.0000 C   0  0  0  0  0  0  0  0  0  0  0  0
   -1.0323   -0.7500    0.0000 C   0  0  0  0  0  0  0  0  0  0  0  0
    0.3943   -1.2135    0.0000 C   0  0  0  0  0  0  0  0  0  0  0  0
  1  2  2  0
  2  3  1  0
  3  4  2  3
  4  5  1  0
  5  6  2  0
  6  7  1  0
  7  8  1  0
  8  9  2  0
  9  5  1  0
M  END
>  <Title>  (85) 
idAABIgen10

$$$$

     RDKit          2D

112113  0  0  0  0  0  0  0  0999 V2000
   -2.3794    0.1071    0.0000 C   0  0  0  0  0  0  0  0  0  0  0  0
   -2.2474   -1.3871    0.0000 C   0  0  0  0  0  0  0  0  0  0  0  0
   -3.7371   -1.5628    0.0000 C   0  0  0  0  0  0  0  0  0  0  0  0
   -5.2139   -1.8257    0.0000 C   0  0  0  0  0  0  0  0  0  0  0  0
   -6.6727   -2.1748    0.0000 C   0  0  0  0  0  0  0  0  0  0  0  0
   -8.1085   -2.6089    0.0000 C   0  0  0  0  0  0  0  0  0  0  0  0
   -9.5163   -3.1265    0.0000 C   0  0  0  0  0  0  0  0  0  0  0  0
  -10.8914   -3.7259    0.0000 C   0  0  0  0  0  0  0  0  0  0  0  0
  -12.2289   -4.4049    0.0000 C   0  0  0  0  0  0  0  0  0  0  0  0
  -13.5243   -5.1613    0.0000 C   0  0  0  0  0  0  0  0  0  0  0  0
  -14.7730   -5.9923    0.0000 C   0  0  0  0  0  0  0  0  0  0  0  0
  -15.9708   -6.8953    0.0000 C   0  0  0  0  0  0  0  0  0  0  0  0
  -17.1135   -7.8669    0.0000 C   0  0  0  0  0  0  0  0  0  0  0  0
  -18.1973   -8.9040    0.0000 C   0  0  0  0  0  0  0  0  0  0  0  0
  -19.2183  -10.0028    0.0000 C   0  0  0  0  0  0  0  0  0  0  0  0
  -20.1731  -11.1597    0.0000 C   0  0  0  0  0  0  0  0  0  0  0  0
  -21.0583  -12.3706    0.0000 C   0  0  0  0  0  0  0  0  0  0  0  0
  -21.8710  -13.6314    0.0000 C   0  0  0  0  0  0  0  0  0  0  0  0
  -22.6082  -14.9378    0.0000 C   0  0  0  0  0  0  0  0  0  0  0  0
  -23.2676  -16.2851    0.0000 C   0  0  0  0  0  0  0  0  0  0  0  0
  -23.8467  -17.6688    0.0000 C   0  0  0  0  0  0  0  0  0  0  0  0
  -24.3436  -19.0841    0.0000 C   0  0  0  0  0  0  0  0  0  0  0  0
  -24.7566  -20.5261    0.0000 C   0  0  0  0  0  0  0  0  0  0  0  0
  -25.0842  -21.9899    0.0000 C   0  0  0  0  0  0  0  0  0  0  0  0
  -25.3254  -23.4704    0.0000 C   0  0  0  0  0  0  0  0  0  0  0  0
  -25.4792  -24.9625    0.0000 C   0  0  0  0  0  0  0  0  0  0  0  0
  -25.5453  -26.4610    0.0000 C   0  0  0  0  0  0  0  0  0  0  0  0
  -25.5233  -27.9609    0.0000 C   0  0  0  0  0  0  0  0  0  0  0  0
  -25.4133  -29.4568    0.0000 C   0  0  0  0  0  0  0  0  0  0  0  0
  -25.2157  -30.9438    0.0000 C   0  0  0  0  0  0  0  0  0  0  0  0
  -24.9311  -32.4165    0.0000 C   0  0  0  0  0  0  0  0  0  0  0  0
  -24.5606  -33.8700    0.0000 C   0  0  0  0  0  0  0  0  0  0  0  0
  -24.1055  -35.2993    0.0000 C   0  0  0  0  0  0  0  0  0  0  0  0
  -23.5673  -36.6994    0.0000 C   0  0  0  0  0  0  0  0  0  0  0  0
  -22.9478  -38.0655    0.0000 C   0  0  0  0  0  0  0  0  0  0  0  0
  -22.2492  -39.3929    0.0000 C   0  0  0  0  0  0  0  0  0  0  0  0
  -21.4739  -40.6770    0.0000 C   0  0  0  0  0  0  0  0  0  0  0  0
  -20.6246  -41.9134    0.0000 C   0  0  0  0  0  0  0  0  0  0  0  0
  -19.7042  -43.0979    0.0000 C   0  0  0  0  0  0  0  0  0  0  0  0
  -18.7159  -44.2262    0.0000 C   0  0  0  0  0  0  0  0  0  0  0  0
  -17.6630  -45.2947    0.0000 C   0  0  0  0  0  0  0  0  0  0  0  0
  -16.5493  -46.2994    0.0000 C   0  0  0  0  0  0  0  0  0  0  0  0
  -15.3785  -47.2371    0.0000 C   0  0  0  0  0  0  0  0  0  0  0  0
  -14.1547  -48.1045    0.0000 C   0  0  0  0  0  0  0  0  0  0  0  0
  -12.8821  -48.8985    0.0000 C   0  0  0  0  0  0  0  0  0  0  0  0
  -11.5651  -49.6165    0.0000 C   0  0  0  0  0  0  0  0  0  0  0  0
  -10.2083  -50.2560    0.0000 C   0  0  0  0  0  0  0  0  0  0  0  0
   -8.8162  -50.8147    0.0000 C   0  0  0  0  0  0  0  0  0  0  0  0
   -7.3938  -51.2908    0.0000 C   0  0  0  0  0  0  0  0  0  0  0  0
   -5.9458  -51.6826    0.0000 C   0  0  0  0  0  0  0  0  0  0  0  0
   -4.4774  -51.9887    0.0000 C   0  0  0  0  0  0  0  0  0  0  0  0
   -2.9935  -52.2081    0.0000 C   0  0  0  0  0  0  0  0  0  0  0  0
   -1.4994  -52.3401    0.0000 C   0  0  0  0  0  0  0  0  0  0  0  0
   -0.0000  -52.3841    0.0000 C   0  0  0  0  0  0  0  0  0  0  0  0
    1.4994  -52.3401    0.0000 C   0  0  0  0  0  0  0  0  0  0  0  0
    2.9935  -52.2081    0.0000 C   0  0  0  0  0  0  0  0  0  0  0  0
    4.4774  -51.9887    0.0000 C   0  0  0  0  0  0  0  0  0  0  0  0
    5.9458  -51.6826    0.0000 C   0  0  0  0  0  0  0  0  0  0  0  0
    7.3938  -51.2908    0.0000 C   0  0  0  0  0  0  0  0  0  0  0  0
    8.8162  -50.8147    0.0000 C   0  0  0  0  0  0  0  0  0  0  0  0
   10.2083  -50.2560    0.0000 C   0  0  0  0  0  0  0  0  0  0  0  0
   11.5651  -49.6165    0.0000 C   0  0  0  0  0  0  0  0  0  0  0  0
   12.8821  -48.8985    0.0000 C   0  0  0  0  0  0  0  0  0  0  0  0
   14.1547  -48.1045    0.0000 C   0  0  0  0  0  0  0  0  0  0  0  0
   15.3785  -47.2371    0.0000 C   0  0  0  0  0  0  0  0  0  0  0  0
   16.5493  -46.2994    0.0000 C   0  0  0  0  0  0  0  0  0  0  0  0
   17.6630  -45.2947    0.0000 C   0  0  0  0  0  0  0  0  0  0  0  0
   18.7159  -44.2262    0.0000 C   0  0  0  0  0  0  0  0  0  0  0  0
   19.7042  -43.0979    0.0000 C   0  0  0  0  0  0  0  0  0  0  0  0
   20.6246  -41.9134    0.0000 C   0  0  0  0  0  0  0  0  0  0  0  0
   21.4739  -40.6770    0.0000 C   0  0  0  0  0  0  0  0  0  0  0  0
   22.2492  -39.3929    0.0000 C   0  0  0  0  0  0  0  0  0  0  0  0
   22.9478  -38.0655    0.0000 C   0  0  0  0  0  0  0  0  0  0  0  0
   23.5673  -36.6994    0.0000 C   0  0  0  0  0  0  0  0  0  0  0  0
   24.1055  -35.2993    0.0000 C   0  0  0  0  0  0  0  0  0  0  0  0
   24.5606  -33.8700    0.0000 C   0  0  0  0  0  0  0  0  0  0  0  0
   24.9311  -32.4165    0.0000 C   0  0  0  0  0  0  0  0  0  0  0  0
   25.2157  -30.9438    0.0000 C   0  0  0  0  0  0  0  0  0  0  0  0
   25.4133  -29.4568    0.0000 C   0  0  0  0  0  0  0  0  0  0  0  0
   25.5233  -27.9609    0.0000 C   0  0  0  0  0  0  0  0  0  0  0  0
   25.5453  -26.4610    0.0000 C   0  0  0  0  0  0  0  0  0  0  0  0
   25.4792  -24.9625    0.0000 C   0  0  0  0  0  0  0  0  0  0  0  0
   25.3254  -23.4704    0.0000 C   0  0  0  0  0  0  0  0  0  0  0  0
   25.0842  -21.9899    0.0000 C   0  0  0  0  0  0  0  0  0  0  0  0
   24.7566  -20.5261    0.0000 C   0  0  0  0  0  0  0  0  0  0  0  0
   24.3436  -19.0841    0.0000 C   0  0  0  0  0  0  0  0  0  0  0  0
   23.8467  -17.6688    0.0000 C   0  0  0  0  0  0  0  0  0  0  0  0
   23.2676  -16.2851    0.0000 C   0  0  0  0  0  0  0  0  0  0  0  0
   22.6082  -14.9378    0.0000 C   0  0  0  0  0  0  0  0  0  0  0  0
   21.8710  -13.6314    0.0000 C   0  0  0  0  0  0  0  0  0  0  0  0
   21.0583  -12.3706    0.0000 C   0  0  0  0  0  0  0  0  0  0  0  0
   20.1731  -11.1597    0.0000 C   0  0  0  0  0  0  0  0  0  0  0  0
   19.2183  -10.0028    0.0000 C   0  0  0  0  0  0  0  0  0  0  0  0
   18.1973   -8.9040    0.0000 C   0  0  0  0  0  0  0  0  0  0  0  0
   17.1135   -7.8669    0.0000 C   0  0  0  0  0  0  0  0  0  0  0  0
   15.9708   -6.8953    0.0000 C   0  0  0  0  0  0  0  0  0  0  0  0
   14.7730   -5.9923    0.0000 C   0  0  0  0  0  0  0  0  0  0  0  0
   13.5243   -5.1613    0.0000 C   0  0  0  0  0  0  0  0  0  0  0  0
   12.2289   -4.4049    0.0000 C   0  0  0  0  0  0  0  0  0  0  0  0
   10.8914   -3.7259    0.0000 C   0  0  0  0  0  0  0  0  0  0  0  0
    9.5163   -3.1265    0.0000 C   0  0  0  0  0  0  0  0  0  0  0  0
    8.1085   -2.6089    0.0000 C   0  0  0  0  0  0  0  0  0  0  0  0
    6.6727   -2.1748    0.0000 C   0  0  0  0  0  0  0  0  0  0  0  0
    5.2139   -1.8257    0.0000 C   0  0  0  0  0  0  0  0  0  0  0  0
    3.7371   -1.5628    0.0000 C   0  0  0  0  0  0  0  0  0  0  0  0
    2.2474   -1.3871    0.0000 C   0  0  0  0  0  0  0  0  0  0  0  0
    0.7500   -1.2990    0.0000 C   0  0  0  0  0  0  0  0  0  0  0  0
    1.5000    0.0000    0.0000 C   0  0  0  0  0  0  0  0  0  0  0  0
    0.7500    1.2990    0.0000 C   0  0  0  0  0  0  0  0  0  0  0  0
   -0.7500    1.2990    0.0000 C   0  0  0  0  0  0  0  0  0  0  0  0
   -1.5000    0.0000    0.0000 C   0  0  0  0  0  0  0  0  0  0  0  0
   -0.7500   -1.2990    0.0000 C   0  0  0  0  0  0  0  0  0  0  0  0
  1  2  1  0
  2  3  2  0
  3  4  1  0
  4  5  1  0
  5  6  1  0
  6  7  1  0
  7  8  1  0
  8  9  1  0
  9 10  1  0
 10 11  1  0
 11 12  1  0
 12 13  1  0
 13 14  1  0
 14 15  1  0
 15 16  1  0
 16 17  1  0
 17 18  1  0
 18 19  1  0
 19 20  1  0
 20 21  1  0
 21 22  1  0
 22 23  1  0
 23 24  1  0
 24 25  1  0
 25 26  1  0
 26 27  1  0
 27 28  1  0
 28 29  1  0
 29 30  1  0
 30 31  1  0
 31 32  1  0
 32 33  1  0
 33 34  1  0
 34 35  1  0
 35 36  1  0
 36 37  1  0
 37 38  1  0
 38 39  1  0
 39 40  1  0
 40 41  1  0
 41 42  1  0
 42 43  1  0
 43 44  1  0
 44 45  1  0
 45 46  1  0
 46 47  1  0
 47 48  1  0
 48 49  1  0
 49 50  1  0
 50 51  1  0
 51 52  1  0
 52 53  1  0
 53 54  1  0
 54 55  1  0
 55 56  1  0
 56 57  1  0
 57 58  1  0
 58 59  1  0
 59 60  1  0
 60 61  1  0
 61 62  1  0
 62 63  1  0
 63 64  1  0
 64 65  1  0
 65 66  1  0
 66 67  1  0
 67 68  1  0
 68 69  1  0
 69 70  1  0
 70 71  1  0
 71 72  1  0
 72 73  1  0
 73 74  1  0
 74 75  1  0
 75 76  1  0
 76 77  1  0
 77 78  1  0
 78 79  1  0
 79 80  1  0
 80 81  1  0
 81 82  1  0
 82 83  1  0
 83 84  1  0
 84 85  1  0
 85 86  1  0
 86 87  1  0
 87 88  1  0
 88 89  1  0
 89 90  1  0
 90 91  1  0
 91 92  1  0
 92 93  1  0
 93 94  1  0
 94 95  1  0
 95 96  1  0
 96 97  1  0
 97 98  1  0
 98 99  1  0
 99100  1  0
100101  1  0
101102  1  0
102103  1  0
103104  1  0
104105  1  0
105106  1  0
106107  1  0
107108  1  0
108109  1  0
109110  2  0
110111  1  0
111112  2  0
112  2  1  0
112107  1  0
M  END
>  <Title>  (86) 
idAABJgen10

$$$$

     RDKit          2D

  8  8  0  0  0  0  0  0  0  0999 V2000
    3.2286   -0.0000    0.0000 C   0  0  0  0  0  0  0  0  0  0  0  0
    1.7286    0.0000    0.0000 C   0  0  0  0  0  0  0  0  0  0  0  0
    1.0777    1.3515    0.0000 N   0  0  0  0  0  0  0  0  0  0  0  0
   -0.3846    1.6852    0.0000 C   0  0  0  0  0  0  0  0  0  0  0  0
   -1.5574    0.7500    0.0000 C   0  0  0  0  0  0  0  0  0  0  0  0
   -1.5574   -0.7500    0.0000 C   0  0  0  0  0  0  0  0  0  0  0  0
   -0.3846   -1.6852    0.0000 C   0  0  0  0  0  0  0  0  0  0  0  0
    1.0777   -1.3515    0.0000 N   0  0  0  0  0  0  0  0  0  0  0  0
  1  2  1  0
  2  3  1  0
  3  4  2  0
  4  5  1  0
  5  6  2  0
  6  7  1  0
  7  8  2  0
  8  2  1  0
M  END
>  <Title>  (87) 
idAABKgen10

$$$$

     RDKit          2D

 70 71  0  0  0  0  0  0  0  0999 V2000
   -2.2407   -1.0539    0.0000 C   0  0  0  0  0  0  0  0  0  0  0  0
   -2.4965    0.4242    0.0000 C   0  0  0  0  0  0  0  0  0  0  0  0
   -3.9850    0.2390    0.0000 C   0  0  0  0  0  0  0  0  0  0  0  0
   -5.4844    0.1962    0.0000 C   0  0  0  0  0  0  0  0  0  0  0  0
   -6.9811    0.2961    0.0000 C   0  0  0  0  0  0  0  0  0  0  0  0
   -8.4615    0.5378    0.0000 C   0  0  0  0  0  0  0  0  0  0  0  0
   -9.9122    0.9191    0.0000 C   0  0  0  0  0  0  0  0  0  0  0  0
  -11.3201    1.4366    0.0000 C   0  0  0  0  0  0  0  0  0  0  0  0
  -12.6724    2.0856    0.0000 C   0  0  0  0  0  0  0  0  0  0  0  0
  -13.9569    2.8602    0.0000 C   0  0  0  0  0  0  0  0  0  0  0  0
  -15.1620    3.7534    0.0000 C   0  0  0  0  0  0  0  0  0  0  0  0
  -16.2767    4.7571    0.0000 C   0  0  0  0  0  0  0  0  0  0  0  0
  -17.2910    5.8622    0.0000 C   0  0  0  0  0  0  0  0  0  0  0  0
  -18.1956    7.0587    0.0000 C   0  0  0  0  0  0  0  0  0  0  0  0
  -18.9824    8.3358    0.0000 C   0  0  0  0  0  0  0  0  0  0  0  0
  -19.6442    9.6819    0.0000 C   0  0  0  0  0  0  0  0  0  0  0  0
  -20.1751   11.0848    0.0000 C   0  0  0  0  0  0  0  0  0  0  0  0
  -20.5702   12.5318    0.0000 C   0  0  0  0  0  0  0  0  0  0  0  0
  -20.8260   14.0099    0.0000 C   0  0  0  0  0  0  0  0  0  0  0  0
  -20.9402   15.5055    0.0000 C   0  0  0  0  0  0  0  0  0  0  0  0
  -20.9116   17.0052    0.0000 C   0  0  0  0  0  0  0  0  0  0  0  0
  -20.7406   18.4955    0.0000 C   0  0  0  0  0  0  0  0  0  0  0  0
  -20.4287   19.9627    0.0000 C   0  0  0  0  0  0  0  0  0  0  0  0
  -19.9788   21.3936    0.0000 C   0  0  0  0  0  0  0  0  0  0  0  0
  -19.3949   22.7753    0.0000 C   0  0  0  0  0  0  0  0  0  0  0  0
  -18.6823   24.0952    0.0000 C   0  0  0  0  0  0  0  0  0  0  0  0
  -17.8475   25.3414    0.0000 C   0  0  0  0  0  0  0  0  0  0  0  0
  -16.8980   26.5026    0.0000 C   0  0  0  0  0  0  0  0  0  0  0  0
  -15.8424   27.5683    0.0000 C   0  0  0  0  0  0  0  0  0  0  0  0
  -14.6902   28.5289    0.0000 C   0  0  0  0  0  0  0  0  0  0  0  0
  -13.4520   29.3755    0.0000 C   0  0  0  0  0  0  0  0  0  0  0  0
  -12.1389   30.1007    0.0000 C   0  0  0  0  0  0  0  0  0  0  0  0
  -10.7629   30.6977    0.0000 C   0  0  0  0  0  0  0  0  0  0  0  0
   -9.3363   31.1612    0.0000 C   0  0  0  0  0  0  0  0  0  0  0  0
   -7.8721   31.4870    0.0000 C   0  0  0  0  0  0  0  0  0  0  0  0
   -6.3836   31.6722    0.0000 C   0  0  0  0  0  0  0  0  0  0  0  0
   -4.8842   31.7150    0.0000 C   0  0  0  0  0  0  0  0  0  0  0  0
   -3.3875   31.6152    0.0000 C   0  0  0  0  0  0  0  0  0  0  0  0
   -1.9071   31.3735    0.0000 C   0  0  0  0  0  0  0  0  0  0  0  0
   -0.4564   30.9921    0.0000 C   0  0  0  0  0  0  0  0  0  0  0  0
    0.9515   30.4746    0.0000 C   0  0  0  0  0  0  0  0  0  0  0  0
    2.3038   29.8256    0.0000 C   0  0  0  0  0  0  0  0  0  0  0  0
    3.5884   29.0510    0.0000 C   0  0  0  0  0  0  0  0  0  0  0  0
    4.7934   28.1579    0.0000 C   0  0  0  0  0  0  0  0  0  0  0  0
    5.9082   27.1542    0.0000 C   0  0  0  0  0  0  0  0  0  0  0  0
    6.9224   26.0491    0.0000 C   0  0  0  0  0  0  0  0  0  0  0  0
    7.8270   24.8525    0.0000 C   0  0  0  0  0  0  0  0  0  0  0  0
    8.6138   23.5754    0.0000 C   0  0  0  0  0  0  0  0  0  0  0  0
    9.2757   22.2293    0.0000 C   0  0  0  0  0  0  0  0  0  0  0  0
    9.8065   20.8264    0.0000 C   0  0  0  0  0  0  0  0  0  0  0  0
   10.2017   19.3794    0.0000 C   0  0  0  0  0  0  0  0  0  0  0  0
   10.4574   17.9014    0.0000 C   0  0  0  0  0  0  0  0  0  0  0  0
   10.5716   16.4057    0.0000 C   0  0  0  0  0  0  0  0  0  0  0  0
   10.5430   14.9060    0.0000 C   0  0  0  0  0  0  0  0  0  0  0  0
   10.3720   13.4158    0.0000 C   0  0  0  0  0  0  0  0  0  0  0  0
   10.0602   11.9485    0.0000 C   0  0  0  0  0  0  0  0  0  0  0  0
    9.6102   10.5176    0.0000 C   0  0  0  0  0  0  0  0  0  0  0  0
    9.0263    9.1359    0.0000 C   0  0  0  0  0  0  0  0  0  0  0  0
    8.3137    7.8160    0.0000 C   0  0  0  0  0  0  0  0  0  0  0  0
    7.4789    6.5698    0.0000 C   0  0  0  0  0  0  0  0  0  0  0  0
    6.5294    5.4086    0.0000 C   0  0  0  0  0  0  0  0  0  0  0  0
    5.4738    4.3429    0.0000 C   0  0  0  0  0  0  0  0  0  0  0  0
    4.3217    3.3824    0.0000 C   0  0  0  0  0  0  0  0  0  0  0  0
    3.0834    2.5357    0.0000 C   0  0  0  0  0  0  0  0  0  0  0  0
    1.7704    1.8106    0.0000 C   0  0  0  0  0  0  0  0  0  0  0  0
    0.3943    1.2135    0.0000 C   0  0  0  0  0  0  0  0  0  0  0  0
    1.2760    0.0000    0.0000 C   0  0  0  0  0  0  0  0  0  0  0  0
    0.3943   -1.2135    0.0000 C   0  0  0  0  0  0  0  0  0  0  0  0
   -1.0323   -0.7500    0.0000 C   0  0  0  0  0  0  0  0  0  0  0  0
   -1.0323    0.7500    0.0000 C   0  0  0  0  0  0  0  0  0  0  0  0
  1  2  1  0
  2  3  1  0
  3  4  2  0
  4  5  1  0
  5  6  1  0
  6  7  1  0
  7  8  1  0
  8  9  1  0
  9 10  1  0
 10 11  1  0
 11 12  1  0
 12 13  1  0
 13 14  1  0
 14 15  1  0
 15 16  1  0
 16 17  1  0
 17 18  1  0
 18 19  1  0
 19 20  1  0
 20 21  1  0
 21 22  1  0
 22 23  1  0
 23 24  1  0
 24 25  1  0
 25 26  1  0
 26 27  1  0
 27 28  1  0
 28 29  1  0
 29 30  1  0
 30 31  1  0
 31 32  1  0
 32 33  1  0
 33 34  1  0
 34 35  1  0
 35 36  1  0
 36 37  1  0
 37 38  1  0
 38 39  1  0
 39 40  1  0
 40 41  1  0
 41 42  1  0
 42 43  1  0
 43 44  1  0
 44 45  1  0
 45 46  1  0
 46 47  1  0
 47 48  2  0
 48 49  1  0
 49 50  2  0
 50 51  1  0
 51 52  2  0
 52 53  1  0
 53 54  2  0
 54 55  1  0
 55 56  2  0
 56 57  1  0
 57 58  2  0
 58 59  1  0
 59 60  2  0
 60 61  1  0
 61 62  2  0
 62 63  1  0
 63 64  2  0
 64 65  1  0
 65 66  2  0
 66 67  1  0
 67 68  2  0
 68 69  1  0
 69 70  2  0
 70  2  1  0
 70 66  1  0
M  END
>  <Title>  (88) 
idAABLgen10

$$$$

     RDKit          2D

 10 10  0  0  0  0  0  0  0  0999 V2000
    3.6929    0.0000    0.0000 C   0  0  0  0  0  0  0  0  0  0  0  0
    2.1929    0.0000    0.0000 C   0  0  0  0  0  0  0  0  0  0  0  0
    1.6798    1.4095    0.0000 C   0  0  0  0  0  0  0  0  0  0  0  0
    0.3808    2.1595    0.0000 C   0  0  0  0  0  0  0  0  0  0  0  0
   -1.0964    1.8991    0.0000 C   0  0  0  0  0  0  0  0  0  0  0  0
   -2.0606    0.7500    0.0000 C   0  0  0  0  0  0  0  0  0  0  0  0
   -2.0606   -0.7500    0.0000 C   0  0  0  0  0  0  0  0  0  0  0  0
   -1.0964   -1.8991    0.0000 C   0  0  0  0  0  0  0  0  0  0  0  0
    0.3808   -2.1595    0.0000 C   0  0  0  0  0  0  0  0  0  0  0  0
    1.6798   -1.4095    0.0000 N   0  0  0  0  0  0  0  0  0  0  0  0
  1  2  1  0
  2  3  2  0
  3  4  1  0
  4  5  1  0
  5  6  1  0
  6  7  1  0
  7  8  1  0
  8  9  1  0
  9 10  2  0
 10  2  1  0
M  END
>  <Title>  (89) 
idAABMgen10

$$$$

     RDKit          2D

  9  9  0  0  0  0  0  0  0  0999 V2000
    4.7286   -0.0000    0.0000 C   0  0  0  0  0  0  0  0  0  0  0  0
    3.2286   -0.0000    0.0000 C   0  0  0  0  0  0  0  0  0  0  0  0
    1.7286    0.0000    0.0000 C   0  0  0  0  0  0  0  0  0  0  0  0
    1.0777    1.3515    0.0000 C   0  0  0  0  0  0  0  0  0  0  0  0
   -0.3846    1.6852    0.0000 C   0  0  0  0  0  0  0  0  0  0  0  0
   -1.5574    0.7500    0.0000 C   0  0  0  0  0  0  0  0  0  0  0  0
   -1.5574   -0.7500    0.0000 C   0  0  0  0  0  0  0  0  0  0  0  0
   -0.3846   -1.6852    0.0000 C   0  0  0  0  0  0  0  0  0  0  0  0
    1.0777   -1.3515    0.0000 C   0  0  0  0  0  0  0  0  0  0  0  0
  1  2  3  0
  2  3  1  0
  3  4  2  0
  4  5  1  0
  5  6  1  0
  6  7  2  0
  7  8  1  0
  8  9  2  0
  9  3  1  0
M  END
>  <Title>  (90) 
idAABNgen10

$$$$

     RDKit          2D

 83 85  0  0  0  0  0  0  0  0999 V2000
   -5.2779    2.1215    0.0000 C   0  0  0  0  0  0  0  0  0  0  0  0
   -4.5252    3.4190    0.0000 C   0  0  0  0  0  0  0  0  0  0  0  0
   -5.7891    4.2268    0.0000 C   0  0  0  0  0  0  0  0  0  0  0  0
   -6.9789    5.1402    0.0000 C   0  0  0  0  0  0  0  0  0  0  0  0
   -8.0858    6.1526    0.0000 C   0  0  0  0  0  0  0  0  0  0  0  0
   -9.1015    7.2563    0.0000 C   0  0  0  0  0  0  0  0  0  0  0  0
  -10.0186    8.4433    0.0000 C   0  0  0  0  0  0  0  0  0  0  0  0
  -10.8303    9.7047    0.0000 C   0  0  0  0  0  0  0  0  0  0  0  0
  -11.5305   11.0313    0.0000 C   0  0  0  0  0  0  0  0  0  0  0  0
  -12.1141   12.4131    0.0000 C   0  0  0  0  0  0  0  0  0  0  0  0
  -12.5768   13.8399    0.0000 C   0  0  0  0  0  0  0  0  0  0  0  0
  -12.9150   15.3013    0.0000 C   0  0  0  0  0  0  0  0  0  0  0  0
  -13.1264   16.7863    0.0000 C   0  0  0  0  0  0  0  0  0  0  0  0
  -13.2094   18.2840    0.0000 C   0  0  0  0  0  0  0  0  0  0  0  0
  -13.1633   19.7833    0.0000 C   0  0  0  0  0  0  0  0  0  0  0  0
  -12.9885   21.2731    0.0000 C   0  0  0  0  0  0  0  0  0  0  0  0
  -12.6862   22.7423    0.0000 C   0  0  0  0  0  0  0  0  0  0  0  0
  -12.2588   24.1801    0.0000 C   0  0  0  0  0  0  0  0  0  0  0  0
  -11.7094   25.5759    0.0000 C   0  0  0  0  0  0  0  0  0  0  0  0
  -11.0420   26.9192    0.0000 C   0  0  0  0  0  0  0  0  0  0  0  0
  -10.2616   28.2003    0.0000 C   0  0  0  0  0  0  0  0  0  0  0  0
   -9.3739   29.4094    0.0000 C   0  0  0  0  0  0  0  0  0  0  0  0
   -8.3856   30.5378    0.0000 C   0  0  0  0  0  0  0  0  0  0  0  0
   -7.3040   31.5771    0.0000 C   0  0  0  0  0  0  0  0  0  0  0  0
   -6.1370   32.5195    0.0000 C   0  0  0  0  0  0  0  0  0  0  0  0
   -4.8934   33.3581    0.0000 C   0  0  0  0  0  0  0  0  0  0  0  0
   -3.5822   34.0867    0.0000 C   0  0  0  0  0  0  0  0  0  0  0  0
   -2.2133   34.6999    0.0000 C   0  0  0  0  0  0  0  0  0  0  0  0
   -0.7967   35.1932    0.0000 C   0  0  0  0  0  0  0  0  0  0  0  0
    0.6571   35.5628    0.0000 C   0  0  0  0  0  0  0  0  0  0  0  0
    2.1372   35.8061    0.0000 C   0  0  0  0  0  0  0  0  0  0  0  0
    3.6328   35.9213    0.0000 C   0  0  0  0  0  0  0  0  0  0  0  0
    5.1327   35.9074    0.0000 C   0  0  0  0  0  0  0  0  0  0  0  0
    6.6259   35.7647    0.0000 C   0  0  0  0  0  0  0  0  0  0  0  0
    8.1013   35.4941    0.0000 C   0  0  0  0  0  0  0  0  0  0  0  0
    9.5480   35.0978    0.0000 C   0  0  0  0  0  0  0  0  0  0  0  0
   10.9552   34.5785    0.0000 C   0  0  0  0  0  0  0  0  0  0  0  0
   12.3126   33.9401    0.0000 C   0  0  0  0  0  0  0  0  0  0  0  0
   13.6101   33.1875    0.0000 C   0  0  0  0  0  0  0  0  0  0  0  0
   14.8381   32.3261    0.0000 C   0  0  0  0  0  0  0  0  0  0  0  0
   15.9875   31.3623    0.0000 C   0  0  0  0  0  0  0  0  0  0  0  0
   17.0498   30.3032    0.0000 C   0  0  0  0  0  0  0  0  0  0  0  0
   18.0171   29.1568    0.0000 C   0  0  0  0  0  0  0  0  0  0  0  0
   18.8823   27.9315    0.0000 C   0  0  0  0  0  0  0  0  0  0  0  0
   19.6390   26.6363    0.0000 C   0  0  0  0  0  0  0  0  0  0  0  0
   20.2815   25.2809    0.0000 C   0  0  0  0  0  0  0  0  0  0  0  0
   20.8051   23.8752    0.0000 C   0  0  0  0  0  0  0  0  0  0  0  0
   21.2059   22.4298    0.0000 C   0  0  0  0  0  0  0  0  0  0  0  0
   21.4810   20.9552    0.0000 C   0  0  0  0  0  0  0  0  0  0  0  0
   21.6283   19.4625    0.0000 C   0  0  0  0  0  0  0  0  0  0  0  0
   21.6467   17.9626    0.0000 C   0  0  0  0  0  0  0  0  0  0  0  0
   21.5362   16.4667    0.0000 C   0  0  0  0  0  0  0  0  0  0  0  0
   21.2974   14.9858    0.0000 C   0  0  0  0  0  0  0  0  0  0  0  0
   20.9323   13.5309    0.0000 C   0  0  0  0  0  0  0  0  0  0  0  0
   20.4434   12.1128    0.0000 C   0  0  0  0  0  0  0  0  0  0  0  0
   19.8344   10.7420    0.0000 C   0  0  0  0  0  0  0  0  0  0  0  0
   19.1098    9.4286    0.0000 C   0  0  0  0  0  0  0  0  0  0  0  0
   18.2750    8.1824    0.0000 C   0  0  0  0  0  0  0  0  0  0  0  0
   17.3362    7.0125    0.0000 C   0  0  0  0  0  0  0  0  0  0  0  0
   16.3003    5.9277    0.0000 C   0  0  0  0  0  0  0  0  0  0  0  0
   15.1749    4.9359    0.0000 C   0  0  0  0  0  0  0  0  0  0  0  0
   13.9685    4.0446    0.0000 C   0  0  0  0  0  0  0  0  0  0  0  0
   12.6899    3.2602    0.0000 C   0  0  0  0  0  0  0  0  0  0  0  0
   11.3486    2.5887    0.0000 C   0  0  0  0  0  0  0  0  0  0  0  0
    9.9545    2.0350    0.0000 C   0  0  0  0  0  0  0  0  0  0  0  0
    8.5180    1.6031    0.0000 C   0  0  0  0  0  0  0  0  0  0  0  0
    7.0497    1.2964    0.0000 C   0  0  0  0  0  0  0  0  0  0  0  0
    5.5605    1.1170    0.0000 C   0  0  0  0  0  0  0  0  0  0  0  0
    4.0614    1.0663    0.0000 C   0  0  0  0  0  0  0  0  0  0  0  0
    2.5634    1.1446    0.0000 C   0  0  0  0  0  0  0  0  0  0  0  0
    1.0777    1.3515    0.0000 C   0  0  0  0  0  0  0  0  0  0  0  0
    1.7286    0.0000    0.0000 C   0  0  0  0  0  0  0  0  0  0  0  0
    1.0777   -1.3515    0.0000 C   0  0  0  0  0  0  0  0  0  0  0  0
   -0.3846   -1.6852    0.0000 C   0  0  0  0  0  0  0  0  0  0  0  0
   -1.5574   -0.7500    0.0000 C   0  0  0  0  0  0  0  0  0  0  0  0
   -1.5574    0.7500    0.0000 C   0  0  0  0  0  0  0  0  0  0  0  0
   -0.3846    1.6852    0.0000 C   0  0  0  0  0  0  0  0  0  0  0  0
   -1.8129    2.1435    0.0000 C   0  0  0  0  0  0  0  0  0  0  0  0
   -0.6194    3.0521    0.0000 C   0  0  0  0  0  0  0  0  0  0  0  0
   -0.8095    4.5400    0.0000 C   0  0  0  0  0  0  0  0  0  0  0  0
   -2.1931    5.1193    0.0000 C   0  0  0  0  0  0  0  0  0  0  0  0
   -3.3866    4.2107    0.0000 C   0  0  0  0  0  0  0  0  0  0  0  0
   -3.1965    2.7228    0.0000 C   0  0  0  0  0  0  0  0  0  0  0  0
  1  2  1  0
  2  3  1  0
  3  4  1  0
  4  5  1  0
  5  6  1  0
  6  7  1  0
  7  8  1  0
  8  9  1  0
  9 10  1  0
 10 11  1  0
 11 12  1  0
 12 13  1  0
 13 14  1  0
 14 15  1  0
 15 16  1  0
 16 17  1  0
 17 18  1  0
 18 19  1  0
 19 20  1  0
 20 21  1  0
 21 22  1  0
 22 23  1  0
 23 24  1  0
 24 25  1  0
 25 26  1  0
 26 27  1  0
 27 28  1  0
 28 29  1  0
 29 30  1  0
 30 31  1  0
 31 32  1  0
 32 33  1  0
 33 34  1  0
 34 35  1  0
 35 36  1  0
 36 37  1  0
 37 38  1  0
 38 39  1  0
 39 40  1  0
 40 41  1  0
 41 42  1  0
 42 43  1  0
 43 44  1  0
 44 45  1  0
 45 46  1  0
 46 47  1  0
 47 48  1  0
 48 49  1  0
 49 50  1  0
 50 51  1  0
 51 52  1  0
 52 53  1  0
 53 54  1  0
 54 55  1  0
 55 56  1  0
 56 57  1  0
 57 58  1  0
 58 59  1  0
 59 60  1  0
 60 61  1  0
 61 62  1  0
 62 63  1  0
 63 64  1  0
 64 65  1  0
 65 66  1  0
 66 67  1  0
 67 68  1  0
 68 69  2  0
 69 70  1  0
 70 71  2  0
 71 72  1  0
 72 73  1  0
 73 74  1  0
 74 75  1  0
 75 76  1  0
 76 77  1  0
 77 78  1  0
 78 79  2  0
 79 80  1  0
 80 81  2  0
 81 82  1  0
 82 83  2  0
 83  2  1  0
 77 71  1  0
 83 78  1  0
M  END
>  <Title>  (91) 
idAABOgen10

$$$$

     RDKit          2D

  9  9  0  0  0  0  0  0  0  0999 V2000
    4.2760    2.5981    0.0000 C   0  0  0  0  0  0  0  0  0  0  0  0
    3.5260    1.2990    0.0000 C   0  0  0  0  0  0  0  0  0  0  0  0
    2.7760    0.0000    0.0000 C   0  0  0  0  0  0  0  0  0  0  0  0
    3.5260   -1.2990    0.0000 C   0  0  0  0  0  0  0  0  0  0  0  0
    1.2760    0.0000    0.0000 C   0  0  0  0  0  0  0  0  0  0  0  0
    0.3943    1.2135    0.0000 C   0  0  0  0  0  0  0  0  0  0  0  0
   -1.0323    0.7500    0.0000 C   0  0  0  0  0  0  0  0  0  0  0  0
   -1.0323   -0.7500    0.0000 C   0  0  0  0  0  0  0  0  0  0  0  0
    0.3943   -1.2135    0.0000 C   0  0  0  0  0  0  0  0  0  0  0  0
  1  2  3  0
  2  3  1  0
  3  4  1  0
  3  5  1  0
  5  6  2  0
  6  7  1  0
  7  8  1  0
  8  9  2  0
  9  5  1  0
M  END
>  <Title>  (92) 
idAABPgen10

$$$$

     RDKit          2D

 13 14  0  0  0  0  0  0  0  0999 V2000
   -6.9199   -4.5797    0.0000 C   0  0  0  0  0  0  0  0  0  0  0  0
   -5.4933   -4.1162    0.0000 C   0  0  0  0  0  0  0  0  0  0  0  0
   -4.0667   -3.6527    0.0000 C   0  0  0  0  0  0  0  0  0  0  0  0
   -2.6401   -3.1891    0.0000 C   0  0  0  0  0  0  0  0  0  0  0  0
   -1.2135   -2.7256    0.0000 C   0  0  0  0  0  0  0  0  0  0  0  0
   -0.0000   -3.6073    0.0000 C   0  0  0  0  0  0  0  0  0  0  0  0
    1.2135   -2.7256    0.0000 C   0  0  0  0  0  0  0  0  0  0  0  0
    0.7500   -1.2990    0.0000 C   0  0  0  0  0  0  0  0  0  0  0  0
    1.5000    0.0000    0.0000 C   0  0  0  0  0  0  0  0  0  0  0  0
    0.7500    1.2990    0.0000 C   0  0  0  0  0  0  0  0  0  0  0  0
   -0.7500    1.2990    0.0000 C   0  0  0  0  0  0  0  0  0  0  0  0
   -1.5000    0.0000    0.0000 C   0  0  0  0  0  0  0  0  0  0  0  0
   -0.7500   -1.2990    0.0000 C   0  0  0  0  0  0  0  0  0  0  0  0
  1  2  3  0
  2  3  1  0
  3  4  3  0
  4  5  1  0
  5  6  2  0
  6  7  1  0
  7  8  1  0
  8  9  2  0
  9 10  1  0
 10 11  2  0
 11 12  1  0
 12 13  2  0
 13  5  1  0
 13  8  1  0
M  END
>  <Title>  (93) 
idAABQgen10

$$$$

     RDKit          2D

 92 93  0  0  0  0  0  0  0  0999 V2000
   10.1945   -4.4760    0.0000 C   0  0  0  0  0  0  0  0  0  0  0  0
   10.9916   -4.4656    0.0000 C   0  0  0  0  0  0  0  0  0  0  0  0
   11.1158   -5.9604    0.0000 C   0  0  0  0  0  0  0  0  0  0  0  0
   11.4468   -7.4234    0.0000 C   0  0  0  0  0  0  0  0  0  0  0  0
   11.9783   -8.8261    0.0000 C   0  0  0  0  0  0  0  0  0  0  0  0
   12.6997  -10.1412    0.0000 C   0  0  0  0  0  0  0  0  0  0  0  0
   13.5972  -11.3431    0.0000 C   0  0  0  0  0  0  0  0  0  0  0  0
   14.6532  -12.4084    0.0000 C   0  0  0  0  0  0  0  0  0  0  0  0
   15.8473  -13.3163    0.0000 C   0  0  0  0  0  0  0  0  0  0  0  0
   17.1560  -14.0492    0.0000 C   0  0  0  0  0  0  0  0  0  0  0  0
   18.5540  -14.5929    0.0000 C   0  0  0  0  0  0  0  0  0  0  0  0
   20.0141  -14.9367    0.0000 C   0  0  0  0  0  0  0  0  0  0  0  0
   21.5078  -15.0740    0.0000 C   0  0  0  0  0  0  0  0  0  0  0  0
   23.0061  -15.0020    0.0000 C   0  0  0  0  0  0  0  0  0  0  0  0
   24.4797  -14.7222    0.0000 C   0  0  0  0  0  0  0  0  0  0  0  0
   25.9001  -14.2400    0.0000 C   0  0  0  0  0  0  0  0  0  0  0  0
   27.2396  -13.5649    0.0000 C   0  0  0  0  0  0  0  0  0  0  0  0
   28.4721  -12.7099    0.0000 C   0  0  0  0  0  0  0  0  0  0  0  0
   29.5736  -11.6917    0.0000 C   0  0  0  0  0  0  0  0  0  0  0  0
   30.5226  -10.5301    0.0000 C   0  0  0  0  0  0  0  0  0  0  0  0
   31.3008   -9.2477    0.0000 C   0  0  0  0  0  0  0  0  0  0  0  0
   31.8929   -7.8696    0.0000 C   0  0  0  0  0  0  0  0  0  0  0  0
   32.2874   -6.4224    0.0000 C   0  0  0  0  0  0  0  0  0  0  0  0
   32.4767   -4.9344    0.0000 C   0  0  0  0  0  0  0  0  0  0  0  0
   32.4571   -3.4345    0.0000 C   0  0  0  0  0  0  0  0  0  0  0  0
   32.2289   -1.9519    0.0000 C   0  0  0  0  0  0  0  0  0  0  0  0
   31.7966   -0.5156    0.0000 C   0  0  0  0  0  0  0  0  0  0  0  0
   31.1686    0.8466    0.0000 C   0  0  0  0  0  0  0  0  0  0  0  0
   30.3572    2.1082    0.0000 C   0  0  0  0  0  0  0  0  0  0  0  0
   29.3780    3.2445    0.0000 C   0  0  0  0  0  0  0  0  0  0  0  0
   28.2503    4.2335    0.0000 C   0  0  0  0  0  0  0  0  0  0  0  0
   26.9958    5.0560    0.0000 C   0  0  0  0  0  0  0  0  0  0  0  0
   25.6392    5.6958    0.0000 C   0  0  0  0  0  0  0  0  0  0  0  0
   24.2066    6.1407    0.0000 C   0  0  0  0  0  0  0  0  0  0  0  0
   22.7261    6.3818    0.0000 C   0  0  0  0  0  0  0  0  0  0  0  0
   21.2265    6.4145    0.0000 C   0  0  0  0  0  0  0  0  0  0  0  0
   19.7369    6.2382    0.0000 C   0  0  0  0  0  0  0  0  0  0  0  0
   18.2863    5.8563    0.0000 C   0  0  0  0  0  0  0  0  0  0  0  0
   16.9030    5.2762    0.0000 C   0  0  0  0  0  0  0  0  0  0  0  0
   15.6139    4.5093    0.0000 C   0  0  0  0  0  0  0  0  0  0  0  0
   14.4441    3.5704    0.0000 C   0  0  0  0  0  0  0  0  0  0  0  0
   13.4163    2.4778    0.0000 C   0  0  0  0  0  0  0  0  0  0  0  0
   12.5506    1.2529    0.0000 C   0  0  0  0  0  0  0  0  0  0  0  0
   11.8638   -0.0807    0.0000 C   0  0  0  0  0  0  0  0  0  0  0  0
   11.3692   -1.4968    0.0000 C   0  0  0  0  0  0  0  0  0  0  0  0
   10.7673   -0.0000    0.0000 C   0  0  0  0  0  0  0  0  0  0  0  0
   10.6752    1.4054    0.0000 C   0  0  0  0  0  0  0  0  0  0  0  0
   10.4005    2.7868    0.0000 C   0  0  0  0  0  0  0  0  0  0  0  0
    9.9477    4.1205    0.0000 C   0  0  0  0  0  0  0  0  0  0  0  0
    9.3248    5.3837    0.0000 C   0  0  0  0  0  0  0  0  0  0  0  0
    8.5423    6.5547    0.0000 C   0  0  0  0  0  0  0  0  0  0  0  0
    7.6137    7.6137    0.0000 C   0  0  0  0  0  0  0  0  0  0  0  0
    6.5547    8.5423    0.0000 C   0  0  0  0  0  0  0  0  0  0  0  0
    5.3837    9.3248    0.0000 C   0  0  0  0  0  0  0  0  0  0  0  0
    4.1205    9.9477    0.0000 C   0  0  0  0  0  0  0  0  0  0  0  0
    2.7868   10.4005    0.0000 C   0  0  0  0  0  0  0  0  0  0  0  0
    1.4054   10.6752    0.0000 C   0  0  0  0  0  0  0  0  0  0  0  0
    0.0000   10.7673    0.0000 C   0  0  0  0  0  0  0  0  0  0  0  0
   -1.4054   10.6752    0.0000 C   0  0  0  0  0  0  0  0  0  0  0  0
   -2.7868   10.4005    0.0000 C   0  0  0  0  0  0  0  0  0  0  0  0
   -4.1205    9.9477    0.0000 C   0  0  0  0  0  0  0  0  0  0  0  0
   -5.3837    9.3248    0.0000 C   0  0  0  0  0  0  0  0  0  0  0  0
   -6.5547    8.5423    0.0000 C   0  0  0  0  0  0  0  0  0  0  0  0
   -7.6137    7.6137    0.0000 C   0  0  0  0  0  0  0  0  0  0  0  0
   -8.5423    6.5547    0.0000 C   0  0  0  0  0  0  0  0  0  0  0  0
   -9.3248    5.3837    0.0000 C   0  0  0  0  0  0  0  0  0  0  0  0
   -9.9477    4.1205    0.0000 C   0  0  0  0  0  0  0  0  0  0  0  0
  -10.4005    2.7868    0.0000 C   0  0  0  0  0  0  0  0  0  0  0  0
  -10.6752    1.4054    0.0000 C   0  0  0  0  0  0  0  0  0  0  0  0
  -10.7673    0.0000    0.0000 C   0  0  0  0  0  0  0  0  0  0  0  0
  -10.6752   -1.4054    0.0000 C   0  0  0  0  0  0  0  0  0  0  0  0
  -10.4005   -2.7868    0.0000 C   0  0  0  0  0  0  0  0  0  0  0  0
   -9.9477   -4.1205    0.0000 C   0  0  0  0  0  0  0  0  0  0  0  0
   -9.3248   -5.3837    0.0000 C   0  0  0  0  0  0  0  0  0  0  0  0
   -8.5423   -6.5547    0.0000 C   0  0  0  0  0  0  0  0  0  0  0  0
   -7.6137   -7.6137    0.0000 C   0  0  0  0  0  0  0  0  0  0  0  0
   -6.5547   -8.5423    0.0000 C   0  0  0  0  0  0  0  0  0  0  0  0
   -5.3837   -9.3248    0.0000 C   0  0  0  0  0  0  0  0  0  0  0  0
   -4.1205   -9.9477    0.0000 C   0  0  0  0  0  0  0  0  0  0  0  0
   -2.7868  -10.4005    0.0000 C   0  0  0  0  0  0  0  0  0  0  0  0
   -1.4054  -10.6752    0.0000 C   0  0  0  0  0  0  0  0  0  0  0  0
   -0.0000  -10.7673    0.0000 C   0  0  0  0  0  0  0  0  0  0  0  0
    1.4054  -10.6752    0.0000 C   0  0  0  0  0  0  0  0  0  0  0  0
    2.7868  -10.4005    0.0000 C   0  0  0  0  0  0  0  0  0  0  0  0
    4.1205   -9.9477    0.0000 C   0  0  0  0  0  0  0  0  0  0  0  0
    5.3837   -9.3248    0.0000 C   0  0  0  0  0  0  0  0  0  0  0  0
    6.5547   -8.5423    0.0000 C   0  0  0  0  0  0  0  0  0  0  0  0
    7.6137   -7.6137    0.0000 C   0  0  0  0  0  0  0  0  0  0  0  0
    8.5423   -6.5547    0.0000 C   0  0  0  0  0  0  0  0  0  0  0  0
    9.3248   -5.3837    0.0000 C   0  0  0  0  0  0  0  0  0  0  0  0
    9.9477   -4.1205    0.0000 C   0  0  0  0  0  0  0  0  0  0  0  0
   11.0766   -2.9680    0.0000 C   0  0  0  0  0  0  0  0  0  0  0  0
  1  2  1  0
  2  3  1  0
  3  4  2  0
  4  5  1  0
  5  6  1  0
  6  7  1  0
  7  8  1  0
  8  9  1  0
  9 10  1  0
 10 11  1  0
 11 12  1  0
 12 13  1  0
 13 14  1  0
 14 15  1  0
 15 16  1  0
 16 17  1  0
 17 18  1  0
 18 19  1  0
 19 20  1  0
 20 21  1  0
 21 22  1  0
 22 23  1  0
 23 24  1  0
 24 25  1  0
 25 26  1  0
 26 27  1  0
 27 28  1  0
 28 29  1  0
 29 30  1  0
 30 31  1  0
 31 32  1  0
 32 33  1  0
 33 34  1  0
 34 35  1  0
 35 36  1  0
 36 37  1  0
 37 38  1  0
 38 39  1  0
 39 40  1  0
 40 41  1  0
 41 42  1  0
 42 43  1  0
 43 44  1  0
 44 45  1  0
 45 46  1  0
 46 47  1  0
 47 48  1  0
 48 49  1  0
 49 50  1  0
 50 51  1  0
 51 52  1  0
 52 53  1  0
 53 54  1  0
 54 55  1  0
 55 56  1  0
 56 57  1  0
 57 58  1  0
 58 59  1  0
 59 60  1  0
 60 61  1  0
 61 62  1  0
 62 63  1  0
 63 64  1  0
 64 65  1  0
 65 66  1  0
 66 67  1  0
 67 68  1  0
 68 69  1  0
 69 70  1  0
 70 71  1  0
 71 72  1  0
 72 73  1  0
 73 74  1  0
 74 75  1  0
 75 76  1  0
 76 77  1  0
 77 78  1  0
 78 79  1  0
 79 80  1  0
 80 81  1  0
 81 82  2  0
 82 83  1  0
 83 84  2  0
 84 85  1  0
 85 86  2  0
 86 87  1  0
 87 88  2  0
 88 89  1  0
 89 90  2  0
 90 91  1  0
 91 92  2  0
 92  2  1  0
 92 45  1  0
M  END
>  <Title>  (94) 
idAABRgen10

$$$$

     RDKit          2D

  5  5  0  0  0  0  0  0  0  0999 V2000
    1.2760    0.0000    0.0000 C   0  0  0  0  0  0  0  0  0  0  0  0
    0.3943    1.2135    0.0000 C   0  0  0  0  0  0  0  0  0  0  0  0
   -1.0323    0.7500    0.0000 C   0  0  0  0  0  0  0  0  0  0  0  0
   -1.0323   -0.7500    0.0000 C   0  0  0  0  0  0  0  0  0  0  0  0
    0.3943   -1.2135    0.0000 C   0  0  0  0  0  0  0  0  0  0  0  0
  1  2  3  0
  2  3  1  0
  3  4  1  0
  4  5  2  0
  5  1  1  0
M  END
>  <Title>  (95) 
idAABSgen10

$$$$

     RDKit          2D

 75 75  0  0  0  0  0  0  0  0999 V2000
   19.1715    0.0000    0.0000 C   0  0  0  0  0  0  0  0  0  0  0  0
   17.6715    0.0000    0.0000 C   0  0  0  0  0  0  0  0  0  0  0  0
   17.6078   -1.4986    0.0000 C   0  0  0  0  0  0  0  0  0  0  0  0
   17.4173   -2.9865    0.0000 C   0  0  0  0  0  0  0  0  0  0  0  0
   17.1013   -4.4528    0.0000 C   0  0  0  0  0  0  0  0  0  0  0  0
   16.6621   -5.8871    0.0000 C   0  0  0  0  0  0  0  0  0  0  0  0
   16.1028   -7.2789    0.0000 C   0  0  0  0  0  0  0  0  0  0  0  0
   15.4275   -8.6183    0.0000 C   0  0  0  0  0  0  0  0  0  0  0  0
   14.6410   -9.8956    0.0000 C   0  0  0  0  0  0  0  0  0  0  0  0
   13.7491  -11.1016    0.0000 C   0  0  0  0  0  0  0  0  0  0  0  0
   12.7581  -12.2276    0.0000 C   0  0  0  0  0  0  0  0  0  0  0  0
   11.6751  -13.2655    0.0000 C   0  0  0  0  0  0  0  0  0  0  0  0
   10.5081  -14.2078    0.0000 C   0  0  0  0  0  0  0  0  0  0  0  0
    9.2653  -15.0478    0.0000 C   0  0  0  0  0  0  0  0  0  0  0  0
    7.9558  -15.7793    0.0000 C   0  0  0  0  0  0  0  0  0  0  0  0
    6.5889  -16.3972    0.0000 C   0  0  0  0  0  0  0  0  0  0  0  0
    5.1746  -16.8969    0.0000 C   0  0  0  0  0  0  0  0  0  0  0  0
    3.7230  -17.2749    0.0000 C   0  0  0  0  0  0  0  0  0  0  0  0
    2.2446  -17.5284    0.0000 C   0  0  0  0  0  0  0  0  0  0  0  0
    0.7500  -17.6556    0.0000 C   0  0  0  0  0  0  0  0  0  0  0  0
   -0.7500  -17.6556    0.0000 C   0  0  0  0  0  0  0  0  0  0  0  0
   -2.2446  -17.5284    0.0000 C   0  0  0  0  0  0  0  0  0  0  0  0
   -3.7230  -17.2749    0.0000 C   0  0  0  0  0  0  0  0  0  0  0  0
   -5.1746  -16.8969    0.0000 C   0  0  0  0  0  0  0  0  0  0  0  0
   -6.5889  -16.3972    0.0000 C   0  0  0  0  0  0  0  0  0  0  0  0
   -7.9558  -15.7793    0.0000 C   0  0  0  0  0  0  0  0  0  0  0  0
   -9.2653  -15.0478    0.0000 C   0  0  0  0  0  0  0  0  0  0  0  0
  -10.5081  -14.2078    0.0000 C   0  0  0  0  0  0  0  0  0  0  0  0
  -11.6751  -13.2655    0.0000 C   0  0  0  0  0  0  0  0  0  0  0  0
  -12.7581  -12.2276    0.0000 C   0  0  0  0  0  0  0  0  0  0  0  0
  -13.7491  -11.1016    0.0000 C   0  0  0  0  0  0  0  0  0  0  0  0
  -14.6410   -9.8956    0.0000 C   0  0  0  0  0  0  0  0  0  0  0  0
  -15.4275   -8.6183    0.0000 C   0  0  0  0  0  0  0  0  0  0  0  0
  -16.1028   -7.2789    0.0000 C   0  0  0  0  0  0  0  0  0  0  0  0
  -16.6621   -5.8871    0.0000 C   0  0  0  0  0  0  0  0  0  0  0  0
  -17.1013   -4.4528    0.0000 C   0  0  0  0  0  0  0  0  0  0  0  0
  -17.4173   -2.9865    0.0000 C   0  0  0  0  0  0  0  0  0  0  0  0
  -17.6078   -1.4986    0.0000 C   0  0  0  0  0  0  0  0  0  0  0  0
  -17.6715    0.0000    0.0000 C   0  0  0  0  0  0  0  0  0  0  0  0
  -17.6078    1.4986    0.0000 C   0  0  0  0  0  0  0  0  0  0  0  0
  -17.4173    2.9865    0.0000 C   0  0  0  0  0  0  0  0  0  0  0  0
  -17.1013    4.4528    0.0000 C   0  0  0  0  0  0  0  0  0  0  0  0
  -16.6621    5.8871    0.0000 C   0  0  0  0  0  0  0  0  0  0  0  0
  -16.1028    7.2789    0.0000 C   0  0  0  0  0  0  0  0  0  0  0  0
  -15.4275    8.6183    0.0000 C   0  0  0  0  0  0  0  0  0  0  0  0
  -14.6410    9.8956    0.0000 C   0  0  0  0  0  0  0  0  0  0  0  0
  -13.7491   11.1016    0.0000 C   0  0  0  0  0  0  0  0  0  0  0  0
  -12.7581   12.2276    0.0000 C   0  0  0  0  0  0  0  0  0  0  0  0
  -11.6751   13.2655    0.0000 C   0  0  0  0  0  0  0  0  0  0  0  0
  -10.5081   14.2078    0.0000 C   0  0  0  0  0  0  0  0  0  0  0  0
   -9.2653   15.0478    0.0000 C   0  0  0  0  0  0  0  0  0  0  0  0
   -7.9558   15.7793    0.0000 C   0  0  0  0  0  0  0  0  0  0  0  0
   -6.5889   16.3972    0.0000 C   0  0  0  0  0  0  0  0  0  0  0  0
   -5.1746   16.8969    0.0000 C   0  0  0  0  0  0  0  0  0  0  0  0
   -3.7230   17.2749    0.0000 C   0  0  0  0  0  0  0  0  0  0  0  0
   -2.2446   17.5284    0.0000 C   0  0  0  0  0  0  0  0  0  0  0  0
   -0.7500   17.6556    0.0000 C   0  0  0  0  0  0  0  0  0  0  0  0
    0.7500   17.6556    0.0000 C   0  0  0  0  0  0  0  0  0  0  0  0
    2.2446   17.5284    0.0000 C   0  0  0  0  0  0  0  0  0  0  0  0
    3.7230   17.2749    0.0000 C   0  0  0  0  0  0  0  0  0  0  0  0
    5.1746   16.8969    0.0000 C   0  0  0  0  0  0  0  0  0  0  0  0
    6.5889   16.3972    0.0000 C   0  0  0  0  0  0  0  0  0  0  0  0
    7.9558   15.7793    0.0000 C   0  0  0  0  0  0  0  0  0  0  0  0
    9.2653   15.0478    0.0000 C   0  0  0  0  0  0  0  0  0  0  0  0
   10.5081   14.2078    0.0000 C   0  0  0  0  0  0  0  0  0  0  0  0
   11.6751   13.2655    0.0000 C   0  0  0  0  0  0  0  0  0  0  0  0
   12.7581   12.2276    0.0000 C   0  0  0  0  0  0  0  0  0  0  0  0
   13.7491   11.1016    0.0000 C   0  0  0  0  0  0  0  0  0  0  0  0
   14.6410    9.8956    0.0000 C   0  0  0  0  0  0  0  0  0  0  0  0
   15.4275    8.6183    0.0000 C   0  0  0  0  0  0  0  0  0  0  0  0
   16.1028    7.2789    0.0000 C   0  0  0  0  0  0  0  0  0  0  0  0
   16.6621    5.8871    0.0000 C   0  0  0  0  0  0  0  0  0  0  0  0
   17.1013    4.4528    0.0000 C   0  0  0  0  0  0  0  0  0  0  0  0
   17.4173    2.9865    0.0000 C   0  0  0  0  0  0  0  0  0  0  0  0
   17.6078    1.4986    0.0000 C   0  0  0  0  0  0  0  0  0  0  0  0
  1  2  1  0
  2  3  1  0
  3  4  1  0
  4  5  1  0
  5  6  1  0
  6  7  1  0
  7  8  1  0
  8  9  1  0
  9 10  1  0
 10 11  1  0
 11 12  1  0
 12 13  1  0
 13 14  1  0
 14 15  1  0
 15 16  1  0
 16 17  1  0
 17 18  1  0
 18 19  1  0
 19 20  1  0
 20 21  1  0
 21 22  1  0
 22 23  1  0
 23 24  1  0
 24 25  1  0
 25 26  1  0
 26 27  1  0
 27 28  1  0
 28 29  1  0
 29 30  1  0
 30 31  1  0
 31 32  1  0
 32 33  1  0
 33 34  1  0
 34 35  1  0
 35 36  1  0
 36 37  1  0
 37 38  1  0
 38 39  1  0
 39 40  1  0
 40 41  1  0
 41 42  1  0
 42 43  1  0
 43 44  1  0
 44 45  1  0
 45 46  1  0
 46 47  1  0
 47 48  1  0
 48 49  1  0
 49 50  1  0
 50 51  1  0
 51 52  1  0
 52 53  1  0
 53 54  1  0
 54 55  1  0
 55 56  1  0
 56 57  1  0
 57 58  1  0
 58 59  1  0
 59 60  1  0
 60 61  1  0
 61 62  1  0
 62 63  1  0
 63 64  1  0
 64 65  1  0
 65 66  1  0
 66 67  1  0
 67 68  1  0
 68 69  1  0
 69 70  1  0
 70 71  1  0
 71 72  1  0
 72 73  1  0
 73 74  1  0
 74 75  1  0
 75  2  1  0
M  END
>  <Title>  (96) 
idAABTgen10

$$$$

     RDKit          2D

 11 11  0  0  0  0  0  0  0  0999 V2000
    7.5000    0.0000    0.0000 C   0  0  0  0  0  0  0  0  0  0  0  0
    6.0000    0.0000    0.0000 C   0  0  0  0  0  0  0  0  0  0  0  0
    4.5000    0.0000    0.0000 C   0  0  0  0  0  0  0  0  0  0  0  0
    3.0000    0.0000    0.0000 C   0  0  0  0  0  0  0  0  0  0  0  0
    1.5000    0.0000    0.0000 C   0  0  0  0  0  0  0  0  0  0  0  0
    0.7500   -1.2990    0.0000 C   0  0  0  0  0  0  0  0  0  0  0  0
   -0.7500   -1.2990    0.0000 C   0  0  0  0  0  0  0  0  0  0  0  0
   -1.5000    0.0000    0.0000 C   0  0  0  0  0  0  0  0  0  0  0  0
   -0.7500    1.2990    0.0000 C   0  0  0  0  0  0  0  0  0  0  0  0
   -1.5000    2.5981    0.0000 C   0  0  0  0  0  0  0  0  0  0  0  0
    0.7500    1.2990    0.0000 C   0  0  0  0  0  0  0  0  0  0  0  0
  1  2  3  0
  2  3  1  0
  3  4  3  0
  4  5  1  0
  5  6  2  0
  6  7  1  0
  7  8  2  0
  8  9  1  0
  9 10  1  0
  9 11  2  0
 11  5  1  0
M  END
>  <Title>  (97) 
idAABUgen10

$$$$

     RDKit          2D

 12 12  0  0  0  0  0  0  0  0999 V2000
    3.0000    0.0000    0.0000 C   0  0  0  0  0  0  0  0  0  0  0  0
    1.5000    0.0000    0.0000 C   0  0  0  0  0  0  0  0  0  0  0  0
    0.7500   -1.2990    0.0000 C   0  0  0  0  0  0  0  0  0  0  0  0
   -0.7500   -1.2990    0.0000 C   0  0  0  0  0  0  0  0  0  0  0  0
   -1.5000   -2.5981    0.0000 C   0  0  0  0  0  0  0  0  0  0  0  0
   -1.5000    0.0000    0.0000 C   0  0  0  0  0  0  0  0  0  0  0  0
   -3.0000    0.0000    0.0000 C   0  0  0  0  0  0  0  0  0  0  0  0
   -3.7500    1.2990    0.0000 C   0  0  0  0  0  0  0  0  0  0  0  0
   -5.2500    1.2990    0.0000 C   0  0  0  0  0  0  0  0  0  0  0  0
   -6.7500    1.2990    0.0000 N   0  0  0  0  0  0  0  0  0  0  0  0
   -0.7500    1.2990    0.0000 N   0  0  0  0  0  0  0  0  0  0  0  0
    0.7500    1.2990    0.0000 N   0  0  0  0  0  0  0  0  0  0  0  0
  1  2  1  0
  2  3  2  0
  3  4  1  0
  4  5  1  0
  4  6  2  0
  6  7  1  0
  7  8  1  0
  8  9  1  0
  9 10  3  0
  6 11  1  0
 11 12  2  0
 12  2  1  0
M  END
>  <Title>  (98) 
idAABVgen10

$$$$

     RDKit          2D

 15 15  0  0  0  0  0  0  0  0999 V2000
   10.5000   -7.7942    0.0000 C   0  0  0  0  0  0  0  0  0  0  0  0
    9.7500   -6.4952    0.0000 C   0  0  0  0  0  0  0  0  0  0  0  0
    9.0000   -5.1962    0.0000 C   0  0  0  0  0  0  0  0  0  0  0  0
    8.2500   -3.8971    0.0000 C   0  0  0  0  0  0  0  0  0  0  0  0
    7.5000   -2.5981    0.0000 C   0  0  0  0  0  0  0  0  0  0  0  0
    6.7500   -1.2990    0.0000 C   0  0  0  0  0  0  0  0  0  0  0  0
    6.0000    0.0000    0.0000 C   0  0  0  0  0  0  0  0  0  0  0  0
    4.5000    0.0000    0.0000 C   0  0  0  0  0  0  0  0  0  0  0  0
    3.0000    0.0000    0.0000 C   0  0  0  0  0  0  0  0  0  0  0  0
    1.5000    0.0000    0.0000 C   0  0  0  0  0  0  0  0  0  0  0  0
    0.7500   -1.2990    0.0000 C   0  0  0  0  0  0  0  0  0  0  0  0
   -0.7500   -1.2990    0.0000 C   0  0  0  0  0  0  0  0  0  0  0  0
   -1.5000    0.0000    0.0000 C   0  0  0  0  0  0  0  0  0  0  0  0
   -0.7500    1.2990    0.0000 C   0  0  0  0  0  0  0  0  0  0  0  0
    0.7500    1.2990    0.0000 C   0  0  0  0  0  0  0  0  0  0  0  0
  1  2  3  0
  2  3  1  0
  3  4  3  0
  4  5  1  0
  5  6  3  0
  6  7  1  0
  7  8  1  0
  8  9  3  0
  9 10  1  0
 10 11  2  0
 11 12  1  0
 12 13  2  0
 13 14  1  0
 14 15  2  0
 15 10  1  0
M  END
>  <Title>  (99) 
idAABWgen10

$$$$

     RDKit          2D

104108  0  0  0  0  0  0  0  0999 V2000
  -11.4836   -2.9739    0.0000 C   0  0  0  0  0  0  0  0  0  0  0  0
  -10.7102   -4.2592    0.0000 C   0  0  0  0  0  0  0  0  0  0  0  0
  -11.9668   -5.0784    0.0000 C   0  0  0  0  0  0  0  0  0  0  0  0
  -13.1609   -5.9862    0.0000 C   0  0  0  0  0  0  0  0  0  0  0  0
  -14.2864   -6.9777    0.0000 C   0  0  0  0  0  0  0  0  0  0  0  0
  -15.3375   -8.0479    0.0000 C   0  0  0  0  0  0  0  0  0  0  0  0
  -16.3086   -9.1912    0.0000 C   0  0  0  0  0  0  0  0  0  0  0  0
  -17.1946  -10.4015    0.0000 C   0  0  0  0  0  0  0  0  0  0  0  0
  -17.9910  -11.6726    0.0000 C   0  0  0  0  0  0  0  0  0  0  0  0
  -18.6936  -12.9979    0.0000 C   0  0  0  0  0  0  0  0  0  0  0  0
  -19.2988  -14.3704    0.0000 C   0  0  0  0  0  0  0  0  0  0  0  0
  -19.8033  -15.7830    0.0000 C   0  0  0  0  0  0  0  0  0  0  0  0
  -20.2046  -17.2283    0.0000 C   0  0  0  0  0  0  0  0  0  0  0  0
  -20.5006  -18.6988    0.0000 C   0  0  0  0  0  0  0  0  0  0  0  0
  -20.6896  -20.1869    0.0000 C   0  0  0  0  0  0  0  0  0  0  0  0
  -20.7708  -21.6847    0.0000 C   0  0  0  0  0  0  0  0  0  0  0  0
  -20.7438  -23.1844    0.0000 C   0  0  0  0  0  0  0  0  0  0  0  0
  -20.6085  -24.6783    0.0000 C   0  0  0  0  0  0  0  0  0  0  0  0
  -20.3659  -26.1586    0.0000 C   0  0  0  0  0  0  0  0  0  0  0  0
  -20.0170  -27.6174    0.0000 C   0  0  0  0  0  0  0  0  0  0  0  0
  -19.5638  -29.0473    0.0000 C   0  0  0  0  0  0  0  0  0  0  0  0
  -19.0086  -30.4408    0.0000 C   0  0  0  0  0  0  0  0  0  0  0  0
  -18.3543  -31.7906    0.0000 C   0  0  0  0  0  0  0  0  0  0  0  0
  -17.6043  -33.0896    0.0000 C   0  0  0  0  0  0  0  0  0  0  0  0
  -16.7625  -34.3311    0.0000 C   0  0  0  0  0  0  0  0  0  0  0  0
  -15.8333  -35.5087    0.0000 C   0  0  0  0  0  0  0  0  0  0  0  0
  -14.8216  -36.6161    0.0000 C   0  0  0  0  0  0  0  0  0  0  0  0
  -13.7326  -37.6477    0.0000 C   0  0  0  0  0  0  0  0  0  0  0  0
  -12.5720  -38.5980    0.0000 C   0  0  0  0  0  0  0  0  0  0  0  0
  -11.3459  -39.4620    0.0000 C   0  0  0  0  0  0  0  0  0  0  0  0
  -10.0606  -40.2353    0.0000 C   0  0  0  0  0  0  0  0  0  0  0  0
   -8.7229  -40.9139    0.0000 C   0  0  0  0  0  0  0  0  0  0  0  0
   -7.3397  -41.4942    0.0000 C   0  0  0  0  0  0  0  0  0  0  0  0
   -5.9182  -41.9731    0.0000 C   0  0  0  0  0  0  0  0  0  0  0  0
   -4.4658  -42.3483    0.0000 C   0  0  0  0  0  0  0  0  0  0  0  0
   -2.9902  -42.6176    0.0000 C   0  0  0  0  0  0  0  0  0  0  0  0
   -1.4990  -42.7798    0.0000 C   0  0  0  0  0  0  0  0  0  0  0  0
    0.0000  -42.8340    0.0000 C   0  0  0  0  0  0  0  0  0  0  0  0
    1.4990  -42.7798    0.0000 C   0  0  0  0  0  0  0  0  0  0  0  0
    2.9902  -42.6176    0.0000 C   0  0  0  0  0  0  0  0  0  0  0  0
    4.4658  -42.3483    0.0000 C   0  0  0  0  0  0  0  0  0  0  0  0
    5.9182  -41.9731    0.0000 C   0  0  0  0  0  0  0  0  0  0  0  0
    7.3397  -41.4942    0.0000 C   0  0  0  0  0  0  0  0  0  0  0  0
    8.7229  -40.9139    0.0000 C   0  0  0  0  0  0  0  0  0  0  0  0
   10.0606  -40.2353    0.0000 C   0  0  0  0  0  0  0  0  0  0  0  0
   11.3459  -39.4620    0.0000 C   0  0  0  0  0  0  0  0  0  0  0  0
   12.5720  -38.5980    0.0000 C   0  0  0  0  0  0  0  0  0  0  0  0
   13.7326  -37.6477    0.0000 C   0  0  0  0  0  0  0  0  0  0  0  0
   14.8216  -36.6161    0.0000 C   0  0  0  0  0  0  0  0  0  0  0  0
   15.8333  -35.5087    0.0000 C   0  0  0  0  0  0  0  0  0  0  0  0
   16.7625  -34.3311    0.0000 C   0  0  0  0  0  0  0  0  0  0  0  0
   17.6043  -33.0896    0.0000 C   0  0  0  0  0  0  0  0  0  0  0  0
   18.3543  -31.7906    0.0000 C   0  0  0  0  0  0  0  0  0  0  0  0
   19.0086  -30.4408    0.0000 C   0  0  0  0  0  0  0  0  0  0  0  0
   19.5638  -29.0473    0.0000 C   0  0  0  0  0  0  0  0  0  0  0  0
   20.0170  -27.6174    0.0000 C   0  0  0  0  0  0  0  0  0  0  0  0
   20.3659  -26.1586    0.0000 C   0  0  0  0  0  0  0  0  0  0  0  0
   20.6085  -24.6783    0.0000 C   0  0  0  0  0  0  0  0  0  0  0  0
   20.7438  -23.1844    0.0000 C   0  0  0  0  0  0  0  0  0  0  0  0
   20.7708  -21.6847    0.0000 C   0  0  0  0  0  0  0  0  0  0  0  0
   20.6896  -20.1869    0.0000 C   0  0  0  0  0  0  0  0  0  0  0  0
   20.5006  -18.6988    0.0000 C   0  0  0  0  0  0  0  0  0  0  0  0
   20.2046  -17.2283    0.0000 C   0  0  0  0  0  0  0  0  0  0  0  0
   19.8033  -15.7830    0.0000 C   0  0  0  0  0  0  0  0  0  0  0  0
   19.2988  -14.3704    0.0000 C   0  0  0  0  0  0  0  0  0  0  0  0
   18.6936  -12.9979    0.0000 C   0  0  0  0  0  0  0  0  0  0  0  0
   17.9910  -11.6726    0.0000 C   0  0  0  0  0  0  0  0  0  0  0  0
   17.1946  -10.4015    0.0000 C   0  0  0  0  0  0  0  0  0  0  0  0
   16.3086   -9.1912    0.0000 C   0  0  0  0  0  0  0  0  0  0  0  0
   15.3375   -8.0479    0.0000 C   0  0  0  0  0  0  0  0  0  0  0  0
   14.2864   -6.9777    0.0000 C   0  0  0  0  0  0  0  0  0  0  0  0
   13.1609   -5.9862    0.0000 C   0  0  0  0  0  0  0  0  0  0  0  0
   11.9668   -5.0784    0.0000 C   0  0  0  0  0  0  0  0  0  0  0  0
   10.7102   -4.2592    0.0000 C   0  0  0  0  0  0  0  0  0  0  0  0
    9.3979   -3.5328    0.0000 C   0  0  0  0  0  0  0  0  0  0  0  0
    8.0365   -2.9029    0.0000 C   0  0  0  0  0  0  0  0  0  0  0  0
    6.6332   -2.3730    0.0000 C   0  0  0  0  0  0  0  0  0  0  0  0
    5.1954   -1.9456    0.0000 C   0  0  0  0  0  0  0  0  0  0  0  0
    3.7305   -1.6232    0.0000 C   0  0  0  0  0  0  0  0  0  0  0  0
    2.2461   -1.4073    0.0000 C   0  0  0  0  0  0  0  0  0  0  0  0
    0.7500   -1.2990    0.0000 C   0  0  0  0  0  0  0  0  0  0  0  0
    1.5000    0.0000    0.0000 C   0  0  0  0  0  0  0  0  0  0  0  0
    0.7500    1.2990    0.0000 C   0  0  0  0  0  0  0  0  0  0  0  0
   -0.7500    1.2990    0.0000 C   0  0  0  0  0  0  0  0  0  0  0  0
   -1.5000    0.0000    0.0000 C   0  0  0  0  0  0  0  0  0  0  0  0
   -0.7500   -1.2990    0.0000 C   0  0  0  0  0  0  0  0  0  0  0  0
   -2.2461   -1.4073    0.0000 C   0  0  0  0  0  0  0  0  0  0  0  0
   -1.3169   -2.5848    0.0000 C   0  0  0  0  0  0  0  0  0  0  0  0
   -1.8721   -3.9783    0.0000 C   0  0  0  0  0  0  0  0  0  0  0  0
   -3.3565   -4.1942    0.0000 C   0  0  0  0  0  0  0  0  0  0  0  0
   -4.2857   -3.0166    0.0000 C   0  0  0  0  0  0  0  0  0  0  0  0
   -3.7305   -1.6232    0.0000 C   0  0  0  0  0  0  0  0  0  0  0  0
   -5.1954   -1.9456    0.0000 C   0  0  0  0  0  0  0  0  0  0  0  0
   -4.8465   -0.4868    0.0000 C   0  0  0  0  0  0  0  0  0  0  0  0
   -5.9355    0.5448    0.0000 C   0  0  0  0  0  0  0  0  0  0  0  0
   -7.3734    0.1175    0.0000 C   0  0  0  0  0  0  0  0  0  0  0  0
   -7.7222   -1.3414    0.0000 C   0  0  0  0  0  0  0  0  0  0  0  0
   -6.6332   -2.3730    0.0000 C   0  0  0  0  0  0  0  0  0  0  0  0
   -8.0365   -2.9029    0.0000 C   0  0  0  0  0  0  0  0  0  0  0  0
   -6.8104   -3.7670    0.0000 C   0  0  0  0  0  0  0  0  0  0  0  0
   -6.9456   -5.2609    0.0000 C   0  0  0  0  0  0  0  0  0  0  0  0
   -8.3070   -5.8907    0.0000 C   0  0  0  0  0  0  0  0  0  0  0  0
   -9.5331   -5.0266    0.0000 C   0  0  0  0  0  0  0  0  0  0  0  0
   -9.3979   -3.5328    0.0000 C   0  0  0  0  0  0  0  0  0  0  0  0
  1  2  1  0
  2  3  1  0
  3  4  1  0
  4  5  1  0
  5  6  1  0
  6  7  1  0
  7  8  1  0
  8  9  1  0
  9 10  1  0
 10 11  1  0
 11 12  1  0
 12 13  1  0
 13 14  1  0
 14 15  1  0
 15 16  1  0
 16 17  1  0
 17 18  1  0
 18 19  1  0
 19 20  1  0
 20 21  1  0
 21 22  1  0
 22 23  1  0
 23 24  1  0
 24 25  1  0
 25 26  1  0
 26 27  1  0
 27 28  1  0
 28 29  1  0
 29 30  1  0
 30 31  1  0
 31 32  1  0
 32 33  1  0
 33 34  1  0
 34 35  1  0
 35 36  1  0
 36 37  1  0
 37 38  1  0
 38 39  1  0
 39 40  1  0
 40 41  1  0
 41 42  1  0
 42 43  1  0
 43 44  1  0
 44 45  1  0
 45 46  1  0
 46 47  1  0
 47 48  1  0
 48 49  1  0
 49 50  1  0
 50 51  1  0
 51 52  1  0
 52 53  1  0
 53 54  1  0
 54 55  1  0
 55 56  1  0
 56 57  1  0
 57 58  1  0
 58 59  1  0
 59 60  1  0
 60 61  1  0
 61 62  1  0
 62 63  1  0
 63 64  1  0
 64 65  1  0
 65 66  1  0
 66 67  1  0
 67 68  1  0
 68 69  1  0
 69 70  1  0
 70 71  1  0
 71 72  1  0
 72 73  1  0
 73 74  1  0
 74 75  1  0
 75 76  1  0
 76 77  1  0
 77 78  1  0
 78 79  1  0
 79 80  1  0
 80 81  1  0
 81 82  2  0
 82 83  1  0
 83 84  2  0
 84 85  1  0
 85 86  2  0
 86 87  1  0
 87 88  2  0
 88 89  1  0
 89 90  2  0
 90 91  1  0
 91 92  2  0
 92 93  1  0
 93 94  2  0
 94 95  1  0
 95 96  2  0
 96 97  1  0
 97 98  2  0
 98 99  1  0
 99100  2  0
100101  1  0
101102  2  0
102103  1  0
103104  2  0
104  2  1  0
 86 81  1  0
 92 87  1  0
 98 93  1  0
104 99  1  0
M  END
>  <Title>  (100) 
idAABXgen10

$$$$

     RDKit          2D

  8  8  0  0  0  0  0  0  0  0999 V2000
    3.5260   -1.2990    0.0000 C   0  0  0  0  0  0  0  0  0  0  0  0
    2.7760    0.0000    0.0000 C   0  0  0  0  0  0  0  0  0  0  0  0
    1.2760    0.0000    0.0000 C   0  0  0  0  0  0  0  0  0  0  0  0
    0.3943    1.2135    0.0000 C   0  0  0  0  0  0  0  0  0  0  0  0
   -1.0323    0.7500    0.0000 C   0  0  0  0  0  0  0  0  0  0  0  0
   -1.0323   -0.7500    0.0000 C   0  0  0  0  0  0  0  0  0  0  0  0
   -2.2458   -1.6317    0.0000 C   0  0  0  0  0  0  0  0  0  0  0  0
    0.3943   -1.2135    0.0000 C   0  0  0  0  0  0  0  0  0  0  0  0
  1  2  2  0
  2  3  1  0
  3  4  2  0
  4  5  1  0
  5  6  2  0
  6  7  1  0
  6  8  1  0
  8  3  1  0
M  END
>  <Title>  (101) 
idAABYgen10

$$$$

     RDKit          2D

  5  4  0  0  0  0  0  0  0  0999 V2000
    0.0000    0.0000    0.0000 C   0  0  0  0  0  0  0  0  0  0  0  0
    1.2990    0.7500    0.0000 C   0  0  0  0  0  0  0  0  0  0  0  0
    2.5981   -0.0000    0.0000 C   0  0  0  0  0  0  0  0  0  0  0  0
    3.8971    0.7500    0.0000 O   0  0  0  0  0  0  0  0  0  0  0  0
    5.1962   -0.0000    0.0000 C   0  0  0  0  0  0  0  0  0  0  0  0
  1  2  2  0
  2  3  1  0
  3  4  1  0
  4  5  1  0
M  END
>  <Title>  (102) 
idAABZgen10

$$$$

     RDKit          2D

105107  0  0  0  0  0  0  0  0999 V2000
   -5.5457   -0.4248    0.0000 C   0  0  0  0  0  0  0  0  0  0  0  0
   -5.2051   -1.8856    0.0000 C   0  0  0  0  0  0  0  0  0  0  0  0
   -6.6540   -2.2738    0.0000 C   0  0  0  0  0  0  0  0  0  0  0  0
   -8.0744   -2.7560    0.0000 C   0  0  0  0  0  0  0  0  0  0  0  0
   -9.4602   -3.3300    0.0000 C   0  0  0  0  0  0  0  0  0  0  0  0
  -10.8055   -3.9934    0.0000 C   0  0  0  0  0  0  0  0  0  0  0  0
  -12.1046   -4.7434    0.0000 C   0  0  0  0  0  0  0  0  0  0  0  0
  -13.3518   -5.5768    0.0000 C   0  0  0  0  0  0  0  0  0  0  0  0
  -14.5418   -6.4899    0.0000 C   0  0  0  0  0  0  0  0  0  0  0  0
  -15.6696   -7.4789    0.0000 C   0  0  0  0  0  0  0  0  0  0  0  0
  -16.7302   -8.5396    0.0000 C   0  0  0  0  0  0  0  0  0  0  0  0
  -17.7193   -9.6673    0.0000 C   0  0  0  0  0  0  0  0  0  0  0  0
  -18.6324  -10.8574    0.0000 C   0  0  0  0  0  0  0  0  0  0  0  0
  -19.4658  -12.1046    0.0000 C   0  0  0  0  0  0  0  0  0  0  0  0
  -20.2158  -13.4036    0.0000 C   0  0  0  0  0  0  0  0  0  0  0  0
  -20.8792  -14.7489    0.0000 C   0  0  0  0  0  0  0  0  0  0  0  0
  -21.4532  -16.1348    0.0000 C   0  0  0  0  0  0  0  0  0  0  0  0
  -21.9354  -17.5551    0.0000 C   0  0  0  0  0  0  0  0  0  0  0  0
  -22.3236  -19.0040    0.0000 C   0  0  0  0  0  0  0  0  0  0  0  0
  -22.6162  -20.4752    0.0000 C   0  0  0  0  0  0  0  0  0  0  0  0
  -22.8120  -21.9624    0.0000 C   0  0  0  0  0  0  0  0  0  0  0  0
  -22.9101  -23.4592    0.0000 C   0  0  0  0  0  0  0  0  0  0  0  0
  -22.9101  -24.9592    0.0000 C   0  0  0  0  0  0  0  0  0  0  0  0
  -22.8120  -26.4560    0.0000 C   0  0  0  0  0  0  0  0  0  0  0  0
  -22.6162  -27.9431    0.0000 C   0  0  0  0  0  0  0  0  0  0  0  0
  -22.3236  -29.4143    0.0000 C   0  0  0  0  0  0  0  0  0  0  0  0
  -21.9354  -30.8632    0.0000 C   0  0  0  0  0  0  0  0  0  0  0  0
  -21.4532  -32.2836    0.0000 C   0  0  0  0  0  0  0  0  0  0  0  0
  -20.8792  -33.6694    0.0000 C   0  0  0  0  0  0  0  0  0  0  0  0
  -20.2158  -35.0147    0.0000 C   0  0  0  0  0  0  0  0  0  0  0  0
  -19.4658  -36.3138    0.0000 C   0  0  0  0  0  0  0  0  0  0  0  0
  -18.6324  -37.5610    0.0000 C   0  0  0  0  0  0  0  0  0  0  0  0
  -17.7193  -38.7510    0.0000 C   0  0  0  0  0  0  0  0  0  0  0  0
  -16.7302  -39.8787    0.0000 C   0  0  0  0  0  0  0  0  0  0  0  0
  -15.6696  -40.9394    0.0000 C   0  0  0  0  0  0  0  0  0  0  0  0
  -14.5418  -41.9284    0.0000 C   0  0  0  0  0  0  0  0  0  0  0  0
  -13.3518  -42.8416    0.0000 C   0  0  0  0  0  0  0  0  0  0  0  0
  -12.1046  -43.6749    0.0000 C   0  0  0  0  0  0  0  0  0  0  0  0
  -10.8055  -44.4249    0.0000 C   0  0  0  0  0  0  0  0  0  0  0  0
   -9.4602  -45.0884    0.0000 C   0  0  0  0  0  0  0  0  0  0  0  0
   -8.0744  -45.6624    0.0000 C   0  0  0  0  0  0  0  0  0  0  0  0
   -6.6540  -46.1445    0.0000 C   0  0  0  0  0  0  0  0  0  0  0  0
   -5.2051  -46.5328    0.0000 C   0  0  0  0  0  0  0  0  0  0  0  0
   -3.7340  -46.8254    0.0000 C   0  0  0  0  0  0  0  0  0  0  0  0
   -2.2468  -47.0212    0.0000 C   0  0  0  0  0  0  0  0  0  0  0  0
   -0.7500  -47.1193    0.0000 C   0  0  0  0  0  0  0  0  0  0  0  0
    0.7500  -47.1193    0.0000 C   0  0  0  0  0  0  0  0  0  0  0  0
    2.2468  -47.0212    0.0000 C   0  0  0  0  0  0  0  0  0  0  0  0
    3.7340  -46.8254    0.0000 C   0  0  0  0  0  0  0  0  0  0  0  0
    5.2051  -46.5328    0.0000 C   0  0  0  0  0  0  0  0  0  0  0  0
    6.6540  -46.1445    0.0000 C   0  0  0  0  0  0  0  0  0  0  0  0
    8.0744  -45.6624    0.0000 C   0  0  0  0  0  0  0  0  0  0  0  0
    9.4602  -45.0884    0.0000 C   0  0  0  0  0  0  0  0  0  0  0  0
   10.8055  -44.4249    0.0000 C   0  0  0  0  0  0  0  0  0  0  0  0
   12.1046  -43.6749    0.0000 C   0  0  0  0  0  0  0  0  0  0  0  0
   13.3518  -42.8416    0.0000 C   0  0  0  0  0  0  0  0  0  0  0  0
   14.5418  -41.9284    0.0000 C   0  0  0  0  0  0  0  0  0  0  0  0
   15.6696  -40.9394    0.0000 C   0  0  0  0  0  0  0  0  0  0  0  0
   16.7302  -39.8787    0.0000 C   0  0  0  0  0  0  0  0  0  0  0  0
   17.7193  -38.7510    0.0000 C   0  0  0  0  0  0  0  0  0  0  0  0
   18.6324  -37.5610    0.0000 C   0  0  0  0  0  0  0  0  0  0  0  0
   19.4658  -36.3138    0.0000 C   0  0  0  0  0  0  0  0  0  0  0  0
   20.2158  -35.0147    0.0000 C   0  0  0  0  0  0  0  0  0  0  0  0
   20.8792  -33.6694    0.0000 C   0  0  0  0  0  0  0  0  0  0  0  0
   21.4532  -32.2836    0.0000 C   0  0  0  0  0  0  0  0  0  0  0  0
   21.9354  -30.8632    0.0000 C   0  0  0  0  0  0  0  0  0  0  0  0
   22.3236  -29.4143    0.0000 C   0  0  0  0  0  0  0  0  0  0  0  0
   22.6162  -27.9431    0.0000 C   0  0  0  0  0  0  0  0  0  0  0  0
   22.8120  -26.4560    0.0000 C   0  0  0  0  0  0  0  0  0  0  0  0
   22.9101  -24.9592    0.0000 C   0  0  0  0  0  0  0  0  0  0  0  0
   22.9101  -23.4592    0.0000 C   0  0  0  0  0  0  0  0  0  0  0  0
   22.8120  -21.9624    0.0000 C   0  0  0  0  0  0  0  0  0  0  0  0
   22.6162  -20.4752    0.0000 C   0  0  0  0  0  0  0  0  0  0  0  0
   22.3236  -19.0040    0.0000 C   0  0  0  0  0  0  0  0  0  0  0  0
   21.9354  -17.5551    0.0000 C   0  0  0  0  0  0  0  0  0  0  0  0
   21.4532  -16.1348    0.0000 C   0  0  0  0  0  0  0  0  0  0  0  0
   20.8792  -14.7489    0.0000 C   0  0  0  0  0  0  0  0  0  0  0  0
   20.2158  -13.4036    0.0000 C   0  0  0  0  0  0  0  0  0  0  0  0
   19.4658  -12.1046    0.0000 C   0  0  0  0  0  0  0  0  0  0  0  0
   18.6324  -10.8574    0.0000 C   0  0  0  0  0  0  0  0  0  0  0  0
   17.7193   -9.6673    0.0000 C   0  0  0  0  0  0  0  0  0  0  0  0
   16.7302   -8.5396    0.0000 C   0  0  0  0  0  0  0  0  0  0  0  0
   15.6696   -7.4789    0.0000 C   0  0  0  0  0  0  0  0  0  0  0  0
   14.5418   -6.4899    0.0000 C   0  0  0  0  0  0  0  0  0  0  0  0
   13.3518   -5.5768    0.0000 C   0  0  0  0  0  0  0  0  0  0  0  0
   12.1046   -4.7434    0.0000 C   0  0  0  0  0  0  0  0  0  0  0  0
   10.8055   -3.9934    0.0000 C   0  0  0  0  0  0  0  0  0  0  0  0
    9.4602   -3.3300    0.0000 C   0  0  0  0  0  0  0  0  0  0  0  0
    8.0744   -2.7560    0.0000 C   0  0  0  0  0  0  0  0  0  0  0  0
    6.6540   -2.2738    0.0000 C   0  0  0  0  0  0  0  0  0  0  0  0
    5.2051   -1.8856    0.0000 C   0  0  0  0  0  0  0  0  0  0  0  0
    3.7340   -1.5929    0.0000 C   0  0  0  0  0  0  0  0  0  0  0  0
    2.2468   -1.3971    0.0000 C   0  0  0  0  0  0  0  0  0  0  0  0
    0.7500   -1.2990    0.0000 C   0  0  0  0  0  0  0  0  0  0  0  0
    1.5000    0.0000    0.0000 C   0  0  0  0  0  0  0  0  0  0  0  0
    0.7500    1.2990    0.0000 C   0  0  0  0  0  0  0  0  0  0  0  0
   -0.7500    1.2990    0.0000 C   0  0  0  0  0  0  0  0  0  0  0  0
   -1.5000    0.0000    0.0000 C   0  0  0  0  0  0  0  0  0  0  0  0
   -0.7500   -1.2990    0.0000 C   0  0  0  0  0  0  0  0  0  0  0  0
   -2.2468   -1.3971    0.0000 C   0  0  0  0  0  0  0  0  0  0  0  0
   -1.3336   -2.5872    0.0000 C   0  0  0  0  0  0  0  0  0  0  0  0
   -1.9077   -3.9730    0.0000 C   0  0  0  0  0  0  0  0  0  0  0  0
   -3.3948   -4.1688    0.0000 C   0  0  0  0  0  0  0  0  0  0  0  0
   -4.3080   -2.9788    0.0000 C   0  0  0  0  0  0  0  0  0  0  0  0
   -3.7340   -1.5929    0.0000 C   0  0  0  0  0  0  0  0  0  0  0  0
  1  2  1  0
  2  3  1  0
  3  4  1  0
  4  5  1  0
  5  6  1  0
  6  7  1  0
  7  8  1  0
  8  9  1  0
  9 10  1  0
 10 11  1  0
 11 12  1  0
 12 13  1  0
 13 14  1  0
 14 15  1  0
 15 16  1  0
 16 17  1  0
 17 18  1  0
 18 19  1  0
 19 20  1  0
 20 21  1  0
 21 22  1  0
 22 23  1  0
 23 24  1  0
 24 25  1  0
 25 26  1  0
 26 27  1  0
 27 28  1  0
 28 29  1  0
 29 30  1  0
 30 31  1  0
 31 32  1  0
 32 33  1  0
 33 34  1  0
 34 35  1  0
 35 36  1  0
 36 37  1  0
 37 38  1  0
 38 39  1  0
 39 40  1  0
 40 41  1  0
 41 42  1  0
 42 43  1  0
 43 44  1  0
 44 45  1  0
 45 46  1  0
 46 47  1  0
 47 48  1  0
 48 49  1  0
 49 50  1  0
 50 51  1  0
 51 52  1  0
 52 53  1  0
 53 54  1  0
 54 55  1  0
 55 56  1  0
 56 57  1  0
 57 58  1  0
 58 59  1  0
 59 60  1  0
 60 61  1  0
 61 62  1  0
 62 63  1  0
 63 64  1  0
 64 65  1  0
 65 66  1  0
 66 67  1  0
 67 68  1  0
 68 69  1  0
 69 70  1  0
 70 71  1  0
 71 72  1  0
 72 73  1  0
 73 74  1  0
 74 75  1  0
 75 76  1  0
 76 77  1  0
 77 78  1  0
 78 79  1  0
 79 80  1  0
 80 81  1  0
 81 82  1  0
 82 83  1  0
 83 84  1  0
 84 85  1  0
 85 86  1  0
 86 87  1  0
 87 88  1  0
 88 89  1  0
 89 90  1  0
 90 91  1  0
 91 92  1  0
 92 93  1  0
 93 94  1  0
 94 95  1  0
 95 96  1  0
 96 97  1  0
 97 98  1  0
 98 99  1  0
 99100  1  0
100101  2  0
101102  1  0
102103  2  0
103104  1  0
104105  2  0
105  2  1  0
 99 94  1  0
105100  1  0
M  END
>  <Title>  (103) 
idAACAgen10

$$$$

     RDKit          2D

 89 90  0  0  0  0  0  0  0  0999 V2000
   -2.4138    0.0794    0.0000 C   0  0  0  0  0  0  0  0  0  0  0  0
   -2.2458   -1.4111    0.0000 C   0  0  0  0  0  0  0  0  0  0  0  0
   -3.7291   -1.6347    0.0000 C   0  0  0  0  0  0  0  0  0  0  0  0
   -5.1914   -1.9685    0.0000 C   0  0  0  0  0  0  0  0  0  0  0  0
   -6.6248   -2.4106    0.0000 C   0  0  0  0  0  0  0  0  0  0  0  0
   -8.0211   -2.9586    0.0000 C   0  0  0  0  0  0  0  0  0  0  0  0
   -9.3726   -3.6094    0.0000 C   0  0  0  0  0  0  0  0  0  0  0  0
  -10.6716   -4.3594    0.0000 C   0  0  0  0  0  0  0  0  0  0  0  0
  -11.9110   -5.2044    0.0000 C   0  0  0  0  0  0  0  0  0  0  0  0
  -13.0837   -6.1397    0.0000 C   0  0  0  0  0  0  0  0  0  0  0  0
  -14.1833   -7.1599    0.0000 C   0  0  0  0  0  0  0  0  0  0  0  0
  -15.2035   -8.2595    0.0000 C   0  0  0  0  0  0  0  0  0  0  0  0
  -16.1388   -9.4322    0.0000 C   0  0  0  0  0  0  0  0  0  0  0  0
  -16.9838  -10.6716    0.0000 C   0  0  0  0  0  0  0  0  0  0  0  0
  -17.7338  -11.9706    0.0000 C   0  0  0  0  0  0  0  0  0  0  0  0
  -18.3846  -13.3221    0.0000 C   0  0  0  0  0  0  0  0  0  0  0  0
  -18.9326  -14.7184    0.0000 C   0  0  0  0  0  0  0  0  0  0  0  0
  -19.3747  -16.1518    0.0000 C   0  0  0  0  0  0  0  0  0  0  0  0
  -19.7085  -17.6142    0.0000 C   0  0  0  0  0  0  0  0  0  0  0  0
  -19.9321  -19.0974    0.0000 C   0  0  0  0  0  0  0  0  0  0  0  0
  -20.0442  -20.5932    0.0000 C   0  0  0  0  0  0  0  0  0  0  0  0
  -20.0442  -22.0932    0.0000 C   0  0  0  0  0  0  0  0  0  0  0  0
  -19.9321  -23.5890    0.0000 C   0  0  0  0  0  0  0  0  0  0  0  0
  -19.7085  -25.0723    0.0000 C   0  0  0  0  0  0  0  0  0  0  0  0
  -19.3747  -26.5347    0.0000 C   0  0  0  0  0  0  0  0  0  0  0  0
  -18.9326  -27.9680    0.0000 C   0  0  0  0  0  0  0  0  0  0  0  0
  -18.3846  -29.3643    0.0000 C   0  0  0  0  0  0  0  0  0  0  0  0
  -17.7338  -30.7158    0.0000 C   0  0  0  0  0  0  0  0  0  0  0  0
  -16.9838  -32.0148    0.0000 C   0  0  0  0  0  0  0  0  0  0  0  0
  -16.1388  -33.2542    0.0000 C   0  0  0  0  0  0  0  0  0  0  0  0
  -15.2035  -34.4269    0.0000 C   0  0  0  0  0  0  0  0  0  0  0  0
  -14.1833  -35.5265    0.0000 C   0  0  0  0  0  0  0  0  0  0  0  0
  -13.0837  -36.5468    0.0000 C   0  0  0  0  0  0  0  0  0  0  0  0
  -11.9110  -37.4820    0.0000 C   0  0  0  0  0  0  0  0  0  0  0  0
  -10.6716  -38.3270    0.0000 C   0  0  0  0  0  0  0  0  0  0  0  0
   -9.3726  -39.0770    0.0000 C   0  0  0  0  0  0  0  0  0  0  0  0
   -8.0211  -39.7278    0.0000 C   0  0  0  0  0  0  0  0  0  0  0  0
   -6.6248  -40.2758    0.0000 C   0  0  0  0  0  0  0  0  0  0  0  0
   -5.1914  -40.7179    0.0000 C   0  0  0  0  0  0  0  0  0  0  0  0
   -3.7291  -41.0517    0.0000 C   0  0  0  0  0  0  0  0  0  0  0  0
   -2.2458  -41.2753    0.0000 C   0  0  0  0  0  0  0  0  0  0  0  0
   -0.7500  -41.3874    0.0000 C   0  0  0  0  0  0  0  0  0  0  0  0
    0.7500  -41.3874    0.0000 C   0  0  0  0  0  0  0  0  0  0  0  0
    2.2458  -41.2753    0.0000 C   0  0  0  0  0  0  0  0  0  0  0  0
    3.7291  -41.0517    0.0000 C   0  0  0  0  0  0  0  0  0  0  0  0
    5.1914  -40.7179    0.0000 C   0  0  0  0  0  0  0  0  0  0  0  0
    6.6248  -40.2758    0.0000 C   0  0  0  0  0  0  0  0  0  0  0  0
    8.0211  -39.7278    0.0000 C   0  0  0  0  0  0  0  0  0  0  0  0
    9.3726  -39.0770    0.0000 C   0  0  0  0  0  0  0  0  0  0  0  0
   10.6716  -38.3270    0.0000 C   0  0  0  0  0  0  0  0  0  0  0  0
   11.9110  -37.4820    0.0000 C   0  0  0  0  0  0  0  0  0  0  0  0
   13.0837  -36.5468    0.0000 C   0  0  0  0  0  0  0  0  0  0  0  0
   14.1833  -35.5265    0.0000 C   0  0  0  0  0  0  0  0  0  0  0  0
   15.2035  -34.4269    0.0000 C   0  0  0  0  0  0  0  0  0  0  0  0
   16.1388  -33.2542    0.0000 C   0  0  0  0  0  0  0  0  0  0  0  0
   16.9838  -32.0148    0.0000 C   0  0  0  0  0  0  0  0  0  0  0  0
   17.7338  -30.7158    0.0000 C   0  0  0  0  0  0  0  0  0  0  0  0
   18.3846  -29.3643    0.0000 C   0  0  0  0  0  0  0  0  0  0  0  0
   18.9326  -27.9680    0.0000 C   0  0  0  0  0  0  0  0  0  0  0  0
   19.3747  -26.5347    0.0000 C   0  0  0  0  0  0  0  0  0  0  0  0
   19.7085  -25.0723    0.0000 C   0  0  0  0  0  0  0  0  0  0  0  0
   19.9321  -23.5890    0.0000 C   0  0  0  0  0  0  0  0  0  0  0  0
   20.0442  -22.0932    0.0000 C   0  0  0  0  0  0  0  0  0  0  0  0
   20.0442  -20.5932    0.0000 C   0  0  0  0  0  0  0  0  0  0  0  0
   19.9321  -19.0974    0.0000 C   0  0  0  0  0  0  0  0  0  0  0  0
   19.7085  -17.6142    0.0000 C   0  0  0  0  0  0  0  0  0  0  0  0
   19.3747  -16.1518    0.0000 C   0  0  0  0  0  0  0  0  0  0  0  0
   18.9326  -14.7184    0.0000 C   0  0  0  0  0  0  0  0  0  0  0  0
   18.3846  -13.3221    0.0000 C   0  0  0  0  0  0  0  0  0  0  0  0
   17.7338  -11.9706    0.0000 C   0  0  0  0  0  0  0  0  0  0  0  0
   16.9838  -10.6716    0.0000 C   0  0  0  0  0  0  0  0  0  0  0  0
   16.1388   -9.4322    0.0000 C   0  0  0  0  0  0  0  0  0  0  0  0
   15.2035   -8.2595    0.0000 C   0  0  0  0  0  0  0  0  0  0  0  0
   14.1833   -7.1599    0.0000 C   0  0  0  0  0  0  0  0  0  0  0  0
   13.0837   -6.1397    0.0000 C   0  0  0  0  0  0  0  0  0  0  0  0
   11.9110   -5.2044    0.0000 C   0  0  0  0  0  0  0  0  0  0  0  0
   10.6716   -4.3594    0.0000 C   0  0  0  0  0  0  0  0  0  0  0  0
    9.3726   -3.6094    0.0000 C   0  0  0  0  0  0  0  0  0  0  0  0
    8.0211   -2.9586    0.0000 C   0  0  0  0  0  0  0  0  0  0  0  0
    6.6248   -2.4106    0.0000 C   0  0  0  0  0  0  0  0  0  0  0  0
    5.1914   -1.9685    0.0000 C   0  0  0  0  0  0  0  0  0  0  0  0
    3.7291   -1.6347    0.0000 C   0  0  0  0  0  0  0  0  0  0  0  0
    2.2458   -1.4111    0.0000 C   0  0  0  0  0  0  0  0  0  0  0  0
    0.7500   -1.2990    0.0000 C   0  0  0  0  0  0  0  0  0  0  0  0
    1.5000    0.0000    0.0000 C   0  0  0  0  0  0  0  0  0  0  0  0
    0.7500    1.2990    0.0000 C   0  0  0  0  0  0  0  0  0  0  0  0
   -0.7500    1.2990    0.0000 C   0  0  0  0  0  0  0  0  0  0  0  0
   -1.5000    0.0000    0.0000 C   0  0  0  0  0  0  0  0  0  0  0  0
   -0.7500   -1.2990    0.0000 C   0  0  0  0  0  0  0  0  0  0  0  0
  1  2  1  0
  2  3  1  0
  3  4  1  0
  4  5  1  0
  5  6  1  0
  6  7  1  0
  7  8  1  0
  8  9  1  0
  9 10  1  0
 10 11  1  0
 11 12  1  0
 12 13  1  0
 13 14  1  0
 14 15  1  0
 15 16  1  0
 16 17  1  0
 17 18  1  0
 18 19  1  0
 19 20  1  0
 20 21  1  0
 21 22  1  0
 22 23  1  0
 23 24  1  0
 24 25  1  0
 25 26  1  0
 26 27  1  0
 27 28  1  0
 28 29  1  0
 29 30  1  0
 30 31  1  0
 31 32  1  0
 32 33  1  0
 33 34  1  0
 34 35  1  0
 35 36  1  0
 36 37  1  0
 37 38  1  0
 38 39  1  0
 39 40  1  0
 40 41  1  0
 41 42  1  0
 42 43  1  0
 43 44  1  0
 44 45  1  0
 45 46  1  0
 46 47  1  0
 47 48  1  0
 48 49  1  0
 49 50  1  0
 50 51  1  0
 51 52  1  0
 52 53  1  0
 53 54  1  0
 54 55  1  0
 55 56  1  0
 56 57  1  0
 57 58  1  0
 58 59  1  0
 59 60  1  0
 60 61  1  0
 61 62  1  0
 62 63  1  0
 63 64  1  0
 64 65  1  0
 65 66  1  0
 66 67  1  0
 67 68  1  0
 68 69  1  0
 69 70  2  0
 70 71  1  0
 71 72  2  0
 72 73  1  0
 73 74  2  0
 74 75  1  0
 75 76  2  0
 76 77  1  0
 77 78  2  0
 78 79  1  0
 79 80  2  0
 80 81  1  0
 81 82  2  0
 82 83  1  0
 83 84  2  0
 84 85  1  0
 85 86  2  0
 86 87  1  0
 87 88  1  0
 88 89  1  0
 89  2  1  0
 89 84  1  0
M  END
>  <Title>  (104) 
idAACBgen10

$$$$

     RDKit          2D

 12 12  0  0  0  0  0  0  0  0999 V2000
    4.5000   -2.5981    0.0000 C   0  0  0  0  0  0  0  0  0  0  0  0
    3.7500   -1.2990    0.0000 C   0  0  0  0  0  0  0  0  0  0  0  0
    3.0000    0.0000    0.0000 C   0  0  0  0  0  0  0  0  0  0  0  0
    3.7500    1.2990    0.0000 O   0  0  0  0  0  0  0  0  0  0  0  0
    1.5000    0.0000    0.0000 C   0  0  0  0  0  0  0  0  0  0  0  0
    0.7500   -1.2990    0.0000 C   0  0  0  0  0  0  0  0  0  0  0  0
   -0.7500   -1.2990    0.0000 C   0  0  0  0  0  0  0  0  0  0  0  0
   -1.5000    0.0000    0.0000 C   0  0  0  0  0  0  0  0  0  0  0  0
   -0.7500    1.2990    0.0000 C   0  0  0  0  0  0  0  0  0  0  0  0
   -1.5000    2.5981    0.0000 C   0  0  0  0  0  0  0  0  0  0  0  0
    0.7500    1.2990    0.0000 C   0  0  0  0  0  0  0  0  0  0  0  0
    1.5000    2.5981    0.0000 C   0  0  0  0  0  0  0  0  0  0  0  0
  1  2  3  0
  2  3  1  0
  3  4  2  0
  3  5  1  0
  5  6  2  0
  6  7  1  0
  7  8  2  0
  8  9  1  0
  9 10  1  0
  9 11  2  0
 11 12  1  0
 11  5  1  0
M  END
>  <Title>  (105) 
idAACCgen10

$$$$

     RDKit          2D

 14 14  0  0  0  0  0  0  0  0999 V2000
   13.5000    0.0000    0.0000 C   0  0  0  0  0  0  0  0  0  0  0  0
   12.0000    0.0000    0.0000 C   0  0  0  0  0  0  0  0  0  0  0  0
   10.5000    0.0000    0.0000 C   0  0  0  0  0  0  0  0  0  0  0  0
    9.0000    0.0000    0.0000 C   0  0  0  0  0  0  0  0  0  0  0  0
    7.5000    0.0000    0.0000 C   0  0  0  0  0  0  0  0  0  0  0  0
    6.0000    0.0000    0.0000 C   0  0  0  0  0  0  0  0  0  0  0  0
    4.5000    0.0000    0.0000 C   0  0  0  0  0  0  0  0  0  0  0  0
    3.0000    0.0000    0.0000 C   0  0  0  0  0  0  0  0  0  0  0  0
    1.5000    0.0000    0.0000 C   0  0  0  0  0  0  0  0  0  0  0  0
    0.7500   -1.2990    0.0000 C   0  0  0  0  0  0  0  0  0  0  0  0
   -0.7500   -1.2990    0.0000 C   0  0  0  0  0  0  0  0  0  0  0  0
   -1.5000    0.0000    0.0000 C   0  0  0  0  0  0  0  0  0  0  0  0
   -0.7500    1.2990    0.0000 C   0  0  0  0  0  0  0  0  0  0  0  0
    0.7500    1.2990    0.0000 C   0  0  0  0  0  0  0  0  0  0  0  0
  1  2  3  0
  2  3  1  0
  3  4  3  0
  4  5  1  0
  5  6  3  0
  6  7  1  0
  7  8  3  0
  8  9  1  0
  9 10  2  0
 10 11  1  0
 11 12  2  0
 12 13  1  0
 13 14  2  0
 14  9  1  0
M  END
>  <Title>  (106) 
idAACDgen10

$$$$

     RDKit          2D

 47 48  0  0  0  0  0  0  0  0999 V2000
   -2.5670   -0.0602    0.0000 C   0  0  0  0  0  0  0  0  0  0  0  0
   -2.2332   -1.5226    0.0000 C   0  0  0  0  0  0  0  0  0  0  0  0
   -3.6666   -1.9647    0.0000 C   0  0  0  0  0  0  0  0  0  0  0  0
   -5.0181   -2.6156    0.0000 C   0  0  0  0  0  0  0  0  0  0  0  0
   -6.2574   -3.4605    0.0000 C   0  0  0  0  0  0  0  0  0  0  0  0
   -7.3570   -4.4808    0.0000 C   0  0  0  0  0  0  0  0  0  0  0  0
   -8.2922   -5.6535    0.0000 C   0  0  0  0  0  0  0  0  0  0  0  0
   -9.0422   -6.9526    0.0000 C   0  0  0  0  0  0  0  0  0  0  0  0
   -9.5902   -8.3489    0.0000 C   0  0  0  0  0  0  0  0  0  0  0  0
   -9.9240   -9.8113    0.0000 C   0  0  0  0  0  0  0  0  0  0  0  0
  -10.0361  -11.3071    0.0000 C   0  0  0  0  0  0  0  0  0  0  0  0
   -9.9240  -12.8029    0.0000 C   0  0  0  0  0  0  0  0  0  0  0  0
   -9.5902  -14.2653    0.0000 C   0  0  0  0  0  0  0  0  0  0  0  0
   -9.0422  -15.6616    0.0000 C   0  0  0  0  0  0  0  0  0  0  0  0
   -8.2922  -16.9606    0.0000 C   0  0  0  0  0  0  0  0  0  0  0  0
   -7.3570  -18.1334    0.0000 C   0  0  0  0  0  0  0  0  0  0  0  0
   -6.2574  -19.1536    0.0000 C   0  0  0  0  0  0  0  0  0  0  0  0
   -5.0181  -19.9986    0.0000 C   0  0  0  0  0  0  0  0  0  0  0  0
   -3.6666  -20.6495    0.0000 C   0  0  0  0  0  0  0  0  0  0  0  0
   -2.2332  -21.0916    0.0000 C   0  0  0  0  0  0  0  0  0  0  0  0
   -0.7500  -21.3151    0.0000 C   0  0  0  0  0  0  0  0  0  0  0  0
    0.7500  -21.3151    0.0000 C   0  0  0  0  0  0  0  0  0  0  0  0
    2.2332  -21.0916    0.0000 C   0  0  0  0  0  0  0  0  0  0  0  0
    3.6666  -20.6495    0.0000 C   0  0  0  0  0  0  0  0  0  0  0  0
    5.0181  -19.9986    0.0000 C   0  0  0  0  0  0  0  0  0  0  0  0
    6.2574  -19.1536    0.0000 C   0  0  0  0  0  0  0  0  0  0  0  0
    7.3570  -18.1334    0.0000 C   0  0  0  0  0  0  0  0  0  0  0  0
    8.2922  -16.9606    0.0000 C   0  0  0  0  0  0  0  0  0  0  0  0
    9.0422  -15.6616    0.0000 C   0  0  0  0  0  0  0  0  0  0  0  0
    9.5902  -14.2653    0.0000 C   0  0  0  0  0  0  0  0  0  0  0  0
    9.9240  -12.8029    0.0000 C   0  0  0  0  0  0  0  0  0  0  0  0
   10.0361  -11.3071    0.0000 C   0  0  0  0  0  0  0  0  0  0  0  0
    9.9240   -9.8113    0.0000 C   0  0  0  0  0  0  0  0  0  0  0  0
    9.5902   -8.3489    0.0000 C   0  0  0  0  0  0  0  0  0  0  0  0
    9.0422   -6.9526    0.0000 C   0  0  0  0  0  0  0  0  0  0  0  0
    8.2922   -5.6535    0.0000 C   0  0  0  0  0  0  0  0  0  0  0  0
    7.3570   -4.4808    0.0000 C   0  0  0  0  0  0  0  0  0  0  0  0
    6.2574   -3.4605    0.0000 C   0  0  0  0  0  0  0  0  0  0  0  0
    5.0181   -2.6156    0.0000 C   0  0  0  0  0  0  0  0  0  0  0  0
    3.6666   -1.9647    0.0000 C   0  0  0  0  0  0  0  0  0  0  0  0
    2.2332   -1.5226    0.0000 C   0  0  0  0  0  0  0  0  0  0  0  0
    0.7500   -1.2990    0.0000 C   0  0  0  0  0  0  0  0  0  0  0  0
    1.5000    0.0000    0.0000 C   0  0  0  0  0  0  0  0  0  0  0  0
    0.7500    1.2990    0.0000 C   0  0  0  0  0  0  0  0  0  0  0  0
   -0.7500    1.2990    0.0000 C   0  0  0  0  0  0  0  0  0  0  0  0
   -1.5000    0.0000    0.0000 C   0  0  0  0  0  0  0  0  0  0  0  0
   -0.7500   -1.2990    0.0000 C   0  0  0  0  0  0  0  0  0  0  0  0
  1  2  1  0
  2  3  1  0
  3  4  2  0
  4  5  1  0
  5  6  2  0
  6  7  1  0
  7  8  2  0
  8  9  1  0
  9 10  2  0
 10 11  1  0
 11 12  2  0
 12 13  1  0
 13 14  2  0
 14 15  1  0
 15 16  2  0
 16 17  1  0
 17 18  2  0
 18 19  1  0
 19 20  2  0
 20 21  1  0
 21 22  2  0
 22 23  1  0
 23 24  2  0
 24 25  1  0
 25 26  2  0
 26 27  1  0
 27 28  2  0
 28 29  1  0
 29 30  2  0
 30 31  1  0
 31 32  2  0
 32 33  1  0
 33 34  2  0
 34 35  1  0
 35 36  2  0
 36 37  1  0
 37 38  2  0
 38 39  1  0
 39 40  2  0
 40 41  1  0
 41 42  2  0
 42 43  1  0
 43 44  1  0
 44 45  2  0
 45 46  1  0
 46 47  2  0
 47  2  1  0
 47 42  1  0
M  END
>  <Title>  (107) 
idAACEgen10

$$$$

     RDKit          2D

 16 16  0  0  0  0  0  0  0  0999 V2000
    9.0000    5.1962    0.0000 C   0  0  0  0  0  0  0  0  0  0  0  0
    8.2500    3.8971    0.0000 C   0  0  0  0  0  0  0  0  0  0  0  0
    7.5000    2.5981    0.0000 C   0  0  0  0  0  0  0  0  0  0  0  0
    6.0000    2.5981    0.0000 C   0  0  0  0  0  0  0  0  0  0  0  0
    5.2500    1.2990    0.0000 C   0  0  0  0  0  0  0  0  0  0  0  0
    3.7500    1.2990    0.0000 C   0  0  0  0  0  0  0  0  0  0  0  0
    3.0000    0.0000    0.0000 C   0  0  0  0  0  0  0  0  0  0  0  0
    3.7500   -1.2990    0.0000 C   0  0  0  0  0  0  0  0  0  0  0  0
    1.5000    0.0000    0.0000 C   0  0  0  0  0  0  0  0  0  0  0  0
    0.7500   -1.2990    0.0000 C   0  0  0  0  0  0  0  0  0  0  0  0
   -0.7500   -1.2990    0.0000 C   0  0  0  0  0  0  0  0  0  0  0  0
   -1.5000    0.0000    0.0000 C   0  0  0  0  0  0  0  0  0  0  0  0
   -0.7500    1.2990    0.0000 C   0  0  0  0  0  0  0  0  0  0  0  0
    0.7500    1.2990    0.0000 C   0  0  0  0  0  0  0  0  0  0  0  0
    6.0000    0.0000    0.0000 O   0  0  0  0  0  0  0  0  0  0  0  0
    7.5000    0.0000    0.0000 C   0  0  0  0  0  0  0  0  0  0  0  0
  1  2  3  0
  2  3  1  0
  3  4  1  0
  4  5  2  3
  5  6  1  0
  6  7  2  3
  7  8  1  0
  7  9  1  0
  9 10  2  0
 10 11  1  0
 11 12  2  0
 12 13  1  0
 13 14  2  0
  5 15  1  0
 15 16  1  0
 14  9  1  0
M  END
>  <Title>  (108) 
idAACFgen10

$$$$

     RDKit          2D

  8  8  0  0  0  0  0  0  0  0999 V2000
    3.5260   -1.2990    0.0000 C   0  0  0  0  0  0  0  0  0  0  0  0
    2.7760    0.0000    0.0000 C   0  0  0  0  0  0  0  0  0  0  0  0
    1.2760    0.0000    0.0000 C   0  0  0  0  0  0  0  0  0  0  0  0
    0.3943    1.2135    0.0000 C   0  0  0  0  0  0  0  0  0  0  0  0
   -1.0323    0.7500    0.0000 C   0  0  0  0  0  0  0  0  0  0  0  0
   -2.2458    1.6317    0.0000 C   0  0  0  0  0  0  0  0  0  0  0  0
   -1.0323   -0.7500    0.0000 C   0  0  0  0  0  0  0  0  0  0  0  0
    0.3943   -1.2135    0.0000 C   0  0  0  0  0  0  0  0  0  0  0  0
  1  2  2  0
  2  3  1  0
  3  4  2  0
  4  5  1  0
  5  6  1  0
  5  7  2  0
  7  8  1  0
  8  3  1  0
M  END
>  <Title>  (109) 
idAACGgen10

$$$$

     RDKit          2D

 10 10  0  0  0  0  0  0  0  0999 V2000
    6.5260   -1.2990    0.0000 C   0  0  0  0  0  0  0  0  0  0  0  0
    5.7760   -0.0000    0.0000 C   0  0  0  0  0  0  0  0  0  0  0  0
    4.2760   -0.0000    0.0000 C   0  0  0  0  0  0  0  0  0  0  0  0
    2.7760    0.0000    0.0000 C   0  0  0  0  0  0  0  0  0  0  0  0
    1.2760    0.0000    0.0000 C   0  0  0  0  0  0  0  0  0  0  0  0
    0.3943    1.2135    0.0000 C   0  0  0  0  0  0  0  0  0  0  0  0
    0.8578    2.6401    0.0000 C   0  0  0  0  0  0  0  0  0  0  0  0
   -1.0323    0.7500    0.0000 C   0  0  0  0  0  0  0  0  0  0  0  0
   -1.0323   -0.7500    0.0000 C   0  0  0  0  0  0  0  0  0  0  0  0
    0.3943   -1.2135    0.0000 C   0  0  0  0  0  0  0  0  0  0  0  0
  1  2  2  0
  2  3  1  0
  3  4  3  0
  4  5  1  0
  5  6  2  0
  6  7  1  0
  6  8  1  0
  8  9  1  0
  9 10  2  0
 10  5  1  0
M  END
>  <Title>  (110) 
idAACHgen10

$$$$

     RDKit          2D

 19 20  0  0  0  0  0  0  0  0999 V2000
    4.5000   -2.5981    0.0000 C   0  0  0  0  0  0  0  0  0  0  0  0
    3.7500   -1.2990    0.0000 C   0  0  0  0  0  0  0  0  0  0  0  0
    3.0000    0.0000    0.0000 C   0  0  0  0  0  0  0  0  0  0  0  0
    3.7500    1.2990    0.0000 O   0  0  0  0  0  0  0  0  0  0  0  0
    1.5000    0.0000    0.0000 C   0  0  0  0  0  0  0  0  0  0  0  0
    0.7500   -1.2990    0.0000 C   0  0  0  0  0  0  0  0  0  0  0  0
   -0.7500   -1.2990    0.0000 C   0  0  0  0  0  0  0  0  0  0  0  0
   -1.5000    0.0000    0.0000 C   0  0  0  0  0  0  0  0  0  0  0  0
   -0.7500    1.2990    0.0000 C   0  0  0  0  0  0  0  0  0  0  0  0
    0.7500    1.2990    0.0000 C   0  0  0  0  0  0  0  0  0  0  0  0
    1.5000    2.5981    0.0000 C   0  0  0  0  0  0  0  0  0  0  0  0
    3.0000    2.5981    0.0000 O   0  0  0  0  0  0  0  0  0  0  0  0
    0.7500    3.8971    0.0000 O   0  0  0  0  0  0  0  0  0  0  0  0
    1.5000    5.1962    0.0000 C   0  0  0  0  0  0  0  0  0  0  0  0
    3.0000    5.1962    0.0000 C   0  0  0  0  0  0  0  0  0  0  0  0
    3.7500    6.4952    0.0000 C   0  0  0  0  0  0  0  0  0  0  0  0
    3.0000    7.7942    0.0000 C   0  0  0  0  0  0  0  0  0  0  0  0
    1.5000    7.7942    0.0000 C   0  0  0  0  0  0  0  0  0  0  0  0
    0.7500    6.4952    0.0000 C   0  0  0  0  0  0  0  0  0  0  0  0
  1  2  3  0
  2  3  1  0
  3  4  2  0
  3  5  1  0
  5  6  2  0
  6  7  1  0
  7  8  2  0
  8  9  1  0
  9 10  2  0
 10 11  1  0
 11 12  2  0
 11 13  1  0
 13 14  1  0
 14 15  2  0
 15 16  1  0
 16 17  2  0
 17 18  1  0
 18 19  2  0
 10  5  1  0
 19 14  1  0
M  END
>  <Title>  (111) 
idAACIgen10

$$$$

     RDKit          2D

 10 10  0  0  0  0  0  0  0  0999 V2000
    4.5000    2.5981    0.0000 C   0  0  0  0  0  0  0  0  0  0  0  0
    3.7500    1.2990    0.0000 C   0  0  0  0  0  0  0  0  0  0  0  0
    3.0000    0.0000    0.0000 C   0  0  0  0  0  0  0  0  0  0  0  0
    3.7500   -1.2990    0.0000 C   0  0  0  0  0  0  0  0  0  0  0  0
    1.5000    0.0000    0.0000 C   0  0  0  0  0  0  0  0  0  0  0  0
    0.7500   -1.2990    0.0000 C   0  0  0  0  0  0  0  0  0  0  0  0
   -0.7500   -1.2990    0.0000 C   0  0  0  0  0  0  0  0  0  0  0  0
   -1.5000    0.0000    0.0000 C   0  0  0  0  0  0  0  0  0  0  0  0
   -0.7500    1.2990    0.0000 C   0  0  0  0  0  0  0  0  0  0  0  0
    0.7500    1.2990    0.0000 C   0  0  0  0  0  0  0  0  0  0  0  0
  1  2  3  0
  2  3  1  0
  3  4  1  0
  3  5  1  0
  5  6  2  0
  6  7  1  0
  7  8  2  0
  8  9  1  0
  9 10  2  0
 10  5  1  0
M  END
>  <Title>  (112) 
idAACJgen10

$$$$

     RDKit          2D

 71 75  0  0  0  0  0  0  0  0999 V2000
   -8.6037   -2.5731    0.0000 C   0  0  0  0  0  0  0  0  0  0  0  0
   -7.7220   -3.7866    0.0000 C   0  0  0  0  0  0  0  0  0  0  0  0
   -8.8832   -4.7362    0.0000 C   0  0  0  0  0  0  0  0  0  0  0  0
   -9.9286   -5.8119    0.0000 C   0  0  0  0  0  0  0  0  0  0  0  0
  -10.8446   -6.9997    0.0000 C   0  0  0  0  0  0  0  0  0  0  0  0
  -11.6192   -8.2842    0.0000 C   0  0  0  0  0  0  0  0  0  0  0  0
  -12.2423   -9.6487    0.0000 C   0  0  0  0  0  0  0  0  0  0  0  0
  -12.7058  -11.0753    0.0000 C   0  0  0  0  0  0  0  0  0  0  0  0
  -13.0037  -12.5454    0.0000 C   0  0  0  0  0  0  0  0  0  0  0  0
  -13.1321  -14.0399    0.0000 C   0  0  0  0  0  0  0  0  0  0  0  0
  -13.0892  -15.5393    0.0000 C   0  0  0  0  0  0  0  0  0  0  0  0
  -12.8758  -17.0240    0.0000 C   0  0  0  0  0  0  0  0  0  0  0  0
  -12.4944  -18.4747    0.0000 C   0  0  0  0  0  0  0  0  0  0  0  0
  -11.9502  -19.8725    0.0000 C   0  0  0  0  0  0  0  0  0  0  0  0
  -11.2502  -21.1992    0.0000 C   0  0  0  0  0  0  0  0  0  0  0  0
  -10.4036  -22.4374    0.0000 C   0  0  0  0  0  0  0  0  0  0  0  0
   -9.4213  -23.5710    0.0000 C   0  0  0  0  0  0  0  0  0  0  0  0
   -8.3162  -24.5853    0.0000 C   0  0  0  0  0  0  0  0  0  0  0  0
   -7.1026  -25.4669    0.0000 C   0  0  0  0  0  0  0  0  0  0  0  0
   -5.7965  -26.2045    0.0000 C   0  0  0  0  0  0  0  0  0  0  0  0
   -4.4148  -26.7884    0.0000 C   0  0  0  0  0  0  0  0  0  0  0  0
   -2.9756  -27.2110    0.0000 C   0  0  0  0  0  0  0  0  0  0  0  0
   -1.4976  -27.4668    0.0000 C   0  0  0  0  0  0  0  0  0  0  0  0
   -0.0000  -27.5525    0.0000 C   0  0  0  0  0  0  0  0  0  0  0  0
    1.4976  -27.4668    0.0000 C   0  0  0  0  0  0  0  0  0  0  0  0
    2.9756  -27.2110    0.0000 C   0  0  0  0  0  0  0  0  0  0  0  0
    4.4148  -26.7884    0.0000 C   0  0  0  0  0  0  0  0  0  0  0  0
    5.7965  -26.2045    0.0000 C   0  0  0  0  0  0  0  0  0  0  0  0
    7.1026  -25.4669    0.0000 C   0  0  0  0  0  0  0  0  0  0  0  0
    8.3162  -24.5853    0.0000 C   0  0  0  0  0  0  0  0  0  0  0  0
    9.4213  -23.5710    0.0000 C   0  0  0  0  0  0  0  0  0  0  0  0
   10.4036  -22.4374    0.0000 C   0  0  0  0  0  0  0  0  0  0  0  0
   11.2502  -21.1992    0.0000 C   0  0  0  0  0  0  0  0  0  0  0  0
   11.9502  -19.8725    0.0000 C   0  0  0  0  0  0  0  0  0  0  0  0
   12.4944  -18.4747    0.0000 C   0  0  0  0  0  0  0  0  0  0  0  0
   12.8758  -17.0240    0.0000 C   0  0  0  0  0  0  0  0  0  0  0  0
   13.0892  -15.5393    0.0000 C   0  0  0  0  0  0  0  0  0  0  0  0
   13.1321  -14.0399    0.0000 C   0  0  0  0  0  0  0  0  0  0  0  0
   13.0037  -12.5454    0.0000 C   0  0  0  0  0  0  0  0  0  0  0  0
   12.7058  -11.0753    0.0000 C   0  0  0  0  0  0  0  0  0  0  0  0
   12.2423   -9.6487    0.0000 C   0  0  0  0  0  0  0  0  0  0  0  0
   11.6192   -8.2842    0.0000 C   0  0  0  0  0  0  0  0  0  0  0  0
   10.8446   -6.9997    0.0000 C   0  0  0  0  0  0  0  0  0  0  0  0
    9.9286   -5.8119    0.0000 C   0  0  0  0  0  0  0  0  0  0  0  0
    8.8832   -4.7362    0.0000 C   0  0  0  0  0  0  0  0  0  0  0  0
    7.7220   -3.7866    0.0000 C   0  0  0  0  0  0  0  0  0  0  0  0
    6.4601   -2.9757    0.0000 C   0  0  0  0  0  0  0  0  0  0  0  0
    5.1140   -2.3138    0.0000 C   0  0  0  0  0  0  0  0  0  0  0  0
    3.7012   -1.8098    0.0000 C   0  0  0  0  0  0  0  0  0  0  0  0
    3.8296   -3.3043    0.0000 C   0  0  0  0  0  0  0  0  0  0  0  0
    2.4479   -3.8882    0.0000 C   0  0  0  0  0  0  0  0  0  0  0  0
    1.4656   -2.7545    0.0000 C   0  0  0  0  0  0  0  0  0  0  0  0
    2.2402   -1.4700    0.0000 C   0  0  0  0  0  0  0  0  0  0  0  0
    0.7500   -1.2990    0.0000 C   0  0  0  0  0  0  0  0  0  0  0  0
    1.5000    0.0000    0.0000 C   0  0  0  0  0  0  0  0  0  0  0  0
    0.7500    1.2990    0.0000 C   0  0  0  0  0  0  0  0  0  0  0  0
   -0.7500    1.2990    0.0000 C   0  0  0  0  0  0  0  0  0  0  0  0
   -1.5000    0.0000    0.0000 C   0  0  0  0  0  0  0  0  0  0  0  0
   -0.7500   -1.2990    0.0000 C   0  0  0  0  0  0  0  0  0  0  0  0
   -2.2402   -1.4700    0.0000 C   0  0  0  0  0  0  0  0  0  0  0  0
   -1.2155   -2.5654    0.0000 C   0  0  0  0  0  0  0  0  0  0  0  0
   -1.6518   -4.0006    0.0000 C   0  0  0  0  0  0  0  0  0  0  0  0
   -3.1128   -4.3403    0.0000 C   0  0  0  0  0  0  0  0  0  0  0  0
   -4.1375   -3.2449    0.0000 C   0  0  0  0  0  0  0  0  0  0  0  0
   -3.7012   -1.8098    0.0000 C   0  0  0  0  0  0  0  0  0  0  0  0
   -5.1140   -2.3138    0.0000 C   0  0  0  0  0  0  0  0  0  0  0  0
   -5.0141   -0.8172    0.0000 C   0  0  0  0  0  0  0  0  0  0  0  0
   -6.2603    0.0177    0.0000 C   0  0  0  0  0  0  0  0  0  0  0  0
   -7.6064   -0.6442    0.0000 C   0  0  0  0  0  0  0  0  0  0  0  0
   -7.7063   -2.1408    0.0000 C   0  0  0  0  0  0  0  0  0  0  0  0
   -6.4601   -2.9757    0.0000 C   0  0  0  0  0  0  0  0  0  0  0  0
  1  2  1  0
  2  3  1  0
  3  4  2  0
  4  5  1  0
  5  6  1  0
  6  7  2  0
  7  8  1  0
  8  9  2  0
  9 10  1  0
 10 11  2  0
 11 12  1  0
 12 13  2  0
 13 14  1  0
 14 15  2  0
 15 16  1  0
 16 17  2  0
 17 18  1  0
 18 19  2  0
 19 20  1  0
 20 21  2  0
 21 22  1  0
 22 23  2  0
 23 24  1  0
 24 25  2  0
 25 26  1  0
 26 27  2  0
 27 28  1  0
 28 29  2  0
 29 30  1  0
 30 31  2  0
 31 32  1  0
 32 33  2  0
 33 34  1  0
 34 35  2  0
 35 36  1  0
 36 37  2  0
 37 38  1  0
 38 39  2  0
 39 40  1  0
 40 41  2  0
 41 42  1  0
 42 43  2  0
 43 44  1  0
 44 45  2  0
 45 46  1  0
 46 47  2  0
 47 48  1  0
 48 49  2  0
 49 50  1  0
 50 51  2  0
 51 52  1  0
 52 53  2  0
 53 54  1  0
 54 55  2  0
 55 56  1  0
 56 57  2  0
 57 58  1  0
 58 59  2  0
 59 60  1  0
 60 61  2  0
 61 62  1  0
 62 63  2  0
 63 64  1  0
 64 65  2  0
 65 66  1  0
 66 67  2  0
 67 68  1  0
 68 69  2  0
 69 70  1  0
 70 71  2  0
 71  2  1  0
 53 49  1  0
 59 54  1  0
 65 60  1  0
 71 66  1  0
M  END
>  <Title>  (113) 
idAACKgen10

$$$$

     RDKit          2D

  8  7  0  0  0  0  0  0  0  0999 V2000
    0.0000    0.0000    0.0000 C   0  0  0  0  0  0  0  0  0  0  0  0
   -0.0000   -1.5000    0.0000 C   0  0  0  0  0  0  0  0  0  0  0  0
   -0.0000   -3.0000    0.0000 C   0  0  0  0  0  0  0  0  0  0  0  0
   -0.0000   -4.5000    0.0000 C   0  0  0  0  0  0  0  0  0  0  0  0
   -0.0000   -6.0000    0.0000 C   0  0  0  0  0  0  0  0  0  0  0  0
    1.2990   -6.7500    0.0000 C   0  0  0  0  0  0  0  0  0  0  0  0
    1.2990   -8.2500    0.0000 C   0  0  0  0  0  0  0  0  0  0  0  0
    2.5981   -9.0000    0.0000 C   0  0  0  0  0  0  0  0  0  0  0  0
  1  2  3  0
  2  3  1  0
  3  4  3  0
  4  5  1  0
  5  6  1  0
  6  7  2  3
  7  8  1  0
M  END
>  <Title>  (114) 
idAACLgen10

$$$$

     RDKit          2D

 11 12  0  0  0  0  0  0  0  0999 V2000
    0.1935    4.2182    0.0000 C   0  0  0  0  0  0  0  0  0  0  0  0
    1.6559    3.8844    0.0000 C   0  0  0  0  0  0  0  0  0  0  0  0
    2.0980    2.4510    0.0000 C   0  0  0  0  0  0  0  0  0  0  0  0
    1.0777    1.3515    0.0000 C   0  0  0  0  0  0  0  0  0  0  0  0
    1.7286    0.0000    0.0000 C   0  0  0  0  0  0  0  0  0  0  0  0
    1.0777   -1.3515    0.0000 C   0  0  0  0  0  0  0  0  0  0  0  0
   -0.3846   -1.6852    0.0000 C   0  0  0  0  0  0  0  0  0  0  0  0
   -1.5574   -0.7500    0.0000 C   0  0  0  0  0  0  0  0  0  0  0  0
   -1.5574    0.7500    0.0000 C   0  0  0  0  0  0  0  0  0  0  0  0
   -0.3846    1.6852    0.0000 C   0  0  0  0  0  0  0  0  0  0  0  0
   -0.8268    3.1186    0.0000 C   0  0  0  0  0  0  0  0  0  0  0  0
  1  2  2  0
  2  3  1  0
  3  4  2  0
  4  5  1  0
  5  6  1  0
  6  7  1  0
  7  8  1  0
  8  9  2  0
  9 10  1  0
 10 11  2  0
 11  1  1  0
 10  4  1  0
M  END
>  <Title>  (115) 
idAACMgen10

$$$$

     RDKit          2D

  9  9  0  0  0  0  0  0  0  0999 V2000
    5.2500   -1.2990    0.0000 C   0  0  0  0  0  0  0  0  0  0  0  0
    3.7500   -1.2990    0.0000 C   0  0  0  0  0  0  0  0  0  0  0  0
    3.0000    0.0000    0.0000 C   0  0  0  0  0  0  0  0  0  0  0  0
    1.5000    0.0000    0.0000 C   0  0  0  0  0  0  0  0  0  0  0  0
    0.7500   -1.2990    0.0000 C   0  0  0  0  0  0  0  0  0  0  0  0
   -0.7500   -1.2990    0.0000 C   0  0  0  0  0  0  0  0  0  0  0  0
   -1.5000    0.0000    0.0000 C   0  0  0  0  0  0  0  0  0  0  0  0
   -0.7500    1.2990    0.0000 C   0  0  0  0  0  0  0  0  0  0  0  0
    0.7500    1.2990    0.0000 C   0  0  0  0  0  0  0  0  0  0  0  0
  1  2  1  0
  2  3  2  3
  3  4  1  0
  4  5  2  0
  5  6  1  0
  6  7  2  0
  7  8  1  0
  8  9  2  0
  9  4  1  0
M  END
>  <Title>  (116) 
idAACNgen10

$$$$

     RDKit          2D

  8  7  0  0  0  0  0  0  0  0999 V2000
    0.0000    0.0000    0.0000 C   0  0  0  0  0  0  0  0  0  0  0  0
    1.2990    0.7500    0.0000 C   0  0  0  0  0  0  0  0  0  0  0  0
    2.5981   -0.0000    0.0000 C   0  0  0  0  0  0  0  0  0  0  0  0
    3.8971   -0.7500    0.0000 C   0  0  0  0  0  0  0  0  0  0  0  0
    5.1962   -1.5000    0.0000 C   0  0  0  0  0  0  0  0  0  0  0  0
    6.4952   -2.2500    0.0000 C   0  0  0  0  0  0  0  0  0  0  0  0
    7.7942   -3.0000    0.0000 C   0  0  0  0  0  0  0  0  0  0  0  0
    9.0933   -2.2500    0.0000 C   0  0  0  0  0  0  0  0  0  0  0  0
  1  2  2  0
  2  3  1  0
  3  4  3  0
  4  5  1  0
  5  6  3  0
  6  7  1  0
  7  8  1  0
M  END
>  <Title>  (117) 
idAACOgen10

$$$$

     RDKit          2D

 88 88  0  0  0  0  0  0  0  0999 V2000
   21.0129    0.0000    0.0000 C   0  0  0  0  0  0  0  0  0  0  0  0
   20.9594   -1.4990    0.0000 C   0  0  0  0  0  0  0  0  0  0  0  0
   20.7990   -2.9904    0.0000 C   0  0  0  0  0  0  0  0  0  0  0  0
   20.5327   -4.4666    0.0000 C   0  0  0  0  0  0  0  0  0  0  0  0
   20.1617   -5.9200    0.0000 C   0  0  0  0  0  0  0  0  0  0  0  0
   19.6880   -7.3433    0.0000 C   0  0  0  0  0  0  0  0  0  0  0  0
   19.1140   -8.7291    0.0000 C   0  0  0  0  0  0  0  0  0  0  0  0
   18.4426  -10.0704    0.0000 C   0  0  0  0  0  0  0  0  0  0  0  0
   17.6772  -11.3604    0.0000 C   0  0  0  0  0  0  0  0  0  0  0  0
   16.8217  -12.5926    0.0000 C   0  0  0  0  0  0  0  0  0  0  0  0
   15.8805  -13.7605    0.0000 C   0  0  0  0  0  0  0  0  0  0  0  0
   14.8584  -14.8584    0.0000 C   0  0  0  0  0  0  0  0  0  0  0  0
   13.7605  -15.8805    0.0000 C   0  0  0  0  0  0  0  0  0  0  0  0
   12.5926  -16.8217    0.0000 C   0  0  0  0  0  0  0  0  0  0  0  0
   11.3604  -17.6772    0.0000 C   0  0  0  0  0  0  0  0  0  0  0  0
   10.0704  -18.4426    0.0000 C   0  0  0  0  0  0  0  0  0  0  0  0
    8.7291  -19.1140    0.0000 C   0  0  0  0  0  0  0  0  0  0  0  0
    7.3433  -19.6880    0.0000 C   0  0  0  0  0  0  0  0  0  0  0  0
    5.9200  -20.1617    0.0000 C   0  0  0  0  0  0  0  0  0  0  0  0
    4.4666  -20.5327    0.0000 C   0  0  0  0  0  0  0  0  0  0  0  0
    2.9904  -20.7990    0.0000 C   0  0  0  0  0  0  0  0  0  0  0  0
    1.4990  -20.9594    0.0000 C   0  0  0  0  0  0  0  0  0  0  0  0
   -0.0000  -21.0129    0.0000 C   0  0  0  0  0  0  0  0  0  0  0  0
   -1.4990  -20.9594    0.0000 C   0  0  0  0  0  0  0  0  0  0  0  0
   -2.9904  -20.7990    0.0000 C   0  0  0  0  0  0  0  0  0  0  0  0
   -4.4666  -20.5327    0.0000 C   0  0  0  0  0  0  0  0  0  0  0  0
   -5.9200  -20.1617    0.0000 C   0  0  0  0  0  0  0  0  0  0  0  0
   -7.3433  -19.6880    0.0000 C   0  0  0  0  0  0  0  0  0  0  0  0
   -8.7291  -19.1140    0.0000 C   0  0  0  0  0  0  0  0  0  0  0  0
  -10.0704  -18.4426    0.0000 C   0  0  0  0  0  0  0  0  0  0  0  0
  -11.3604  -17.6772    0.0000 C   0  0  0  0  0  0  0  0  0  0  0  0
  -12.5926  -16.8217    0.0000 C   0  0  0  0  0  0  0  0  0  0  0  0
  -13.7605  -15.8805    0.0000 C   0  0  0  0  0  0  0  0  0  0  0  0
  -14.8584  -14.8584    0.0000 C   0  0  0  0  0  0  0  0  0  0  0  0
  -15.8805  -13.7605    0.0000 C   0  0  0  0  0  0  0  0  0  0  0  0
  -16.8217  -12.5926    0.0000 C   0  0  0  0  0  0  0  0  0  0  0  0
  -17.6772  -11.3604    0.0000 C   0  0  0  0  0  0  0  0  0  0  0  0
  -18.4426  -10.0704    0.0000 C   0  0  0  0  0  0  0  0  0  0  0  0
  -19.1140   -8.7291    0.0000 C   0  0  0  0  0  0  0  0  0  0  0  0
  -19.6880   -7.3433    0.0000 C   0  0  0  0  0  0  0  0  0  0  0  0
  -20.1617   -5.9200    0.0000 C   0  0  0  0  0  0  0  0  0  0  0  0
  -20.5327   -4.4666    0.0000 C   0  0  0  0  0  0  0  0  0  0  0  0
  -20.7990   -2.9904    0.0000 C   0  0  0  0  0  0  0  0  0  0  0  0
  -20.9594   -1.4990    0.0000 C   0  0  0  0  0  0  0  0  0  0  0  0
  -21.0129    0.0000    0.0000 C   0  0  0  0  0  0  0  0  0  0  0  0
  -20.9594    1.4990    0.0000 C   0  0  0  0  0  0  0  0  0  0  0  0
  -20.7990    2.9904    0.0000 C   0  0  0  0  0  0  0  0  0  0  0  0
  -20.5327    4.4666    0.0000 C   0  0  0  0  0  0  0  0  0  0  0  0
  -20.1617    5.9200    0.0000 C   0  0  0  0  0  0  0  0  0  0  0  0
  -19.6880    7.3433    0.0000 C   0  0  0  0  0  0  0  0  0  0  0  0
  -19.1140    8.7291    0.0000 C   0  0  0  0  0  0  0  0  0  0  0  0
  -18.4426   10.0704    0.0000 C   0  0  0  0  0  0  0  0  0  0  0  0
  -17.6772   11.3604    0.0000 C   0  0  0  0  0  0  0  0  0  0  0  0
  -16.8217   12.5926    0.0000 C   0  0  0  0  0  0  0  0  0  0  0  0
  -15.8805   13.7605    0.0000 C   0  0  0  0  0  0  0  0  0  0  0  0
  -14.8584   14.8584    0.0000 C   0  0  0  0  0  0  0  0  0  0  0  0
  -13.7605   15.8805    0.0000 C   0  0  0  0  0  0  0  0  0  0  0  0
  -12.5926   16.8217    0.0000 C   0  0  0  0  0  0  0  0  0  0  0  0
  -11.3604   17.6772    0.0000 C   0  0  0  0  0  0  0  0  0  0  0  0
  -10.0704   18.4426    0.0000 C   0  0  0  0  0  0  0  0  0  0  0  0
   -8.7291   19.1140    0.0000 C   0  0  0  0  0  0  0  0  0  0  0  0
   -7.3433   19.6880    0.0000 C   0  0  0  0  0  0  0  0  0  0  0  0
   -5.9200   20.1617    0.0000 C   0  0  0  0  0  0  0  0  0  0  0  0
   -4.4666   20.5327    0.0000 C   0  0  0  0  0  0  0  0  0  0  0  0
   -2.9904   20.7990    0.0000 C   0  0  0  0  0  0  0  0  0  0  0  0
   -1.4990   20.9594    0.0000 C   0  0  0  0  0  0  0  0  0  0  0  0
    0.0000   21.0129    0.0000 C   0  0  0  0  0  0  0  0  0  0  0  0
    1.4990   20.9594    0.0000 C   0  0  0  0  0  0  0  0  0  0  0  0
    2.9904   20.7990    0.0000 C   0  0  0  0  0  0  0  0  0  0  0  0
    4.4666   20.5327    0.0000 C   0  0  0  0  0  0  0  0  0  0  0  0
    5.9200   20.1617    0.0000 C   0  0  0  0  0  0  0  0  0  0  0  0
    7.3433   19.6880    0.0000 C   0  0  0  0  0  0  0  0  0  0  0  0
    8.7291   19.1140    0.0000 C   0  0  0  0  0  0  0  0  0  0  0  0
   10.0704   18.4426    0.0000 C   0  0  0  0  0  0  0  0  0  0  0  0
   11.3604   17.6772    0.0000 C   0  0  0  0  0  0  0  0  0  0  0  0
   12.5926   16.8217    0.0000 C   0  0  0  0  0  0  0  0  0  0  0  0
   13.7605   15.8805    0.0000 C   0  0  0  0  0  0  0  0  0  0  0  0
   14.8584   14.8584    0.0000 C   0  0  0  0  0  0  0  0  0  0  0  0
   15.8805   13.7605    0.0000 C   0  0  0  0  0  0  0  0  0  0  0  0
   16.8217   12.5926    0.0000 C   0  0  0  0  0  0  0  0  0  0  0  0
   17.6772   11.3604    0.0000 C   0  0  0  0  0  0  0  0  0  0  0  0
   18.4426   10.0704    0.0000 C   0  0  0  0  0  0  0  0  0  0  0  0
   19.1140    8.7291    0.0000 C   0  0  0  0  0  0  0  0  0  0  0  0
   19.6880    7.3433    0.0000 C   0  0  0  0  0  0  0  0  0  0  0  0
   20.1617    5.9200    0.0000 C   0  0  0  0  0  0  0  0  0  0  0  0
   20.5327    4.4666    0.0000 C   0  0  0  0  0  0  0  0  0  0  0  0
   20.7990    2.9904    0.0000 C   0  0  0  0  0  0  0  0  0  0  0  0
   20.9594    1.4990    0.0000 C   0  0  0  0  0  0  0  0  0  0  0  0
  1  2  1  0
  2  3  1  0
  3  4  1  0
  4  5  1  0
  5  6  1  0
  6  7  1  0
  7  8  1  0
  8  9  1  0
  9 10  1  0
 10 11  1  0
 11 12  1  0
 12 13  1  0
 13 14  1  0
 14 15  1  0
 15 16  1  0
 16 17  1  0
 17 18  1  0
 18 19  1  0
 19 20  1  0
 20 21  1  0
 21 22  1  0
 22 23  1  0
 23 24  1  0
 24 25  1  0
 25 26  1  0
 26 27  1  0
 27 28  1  0
 28 29  1  0
 29 30  1  0
 30 31  1  0
 31 32  1  0
 32 33  1  0
 33 34  1  0
 34 35  1  0
 35 36  1  0
 36 37  1  0
 37 38  1  0
 38 39  1  0
 39 40  1  0
 40 41  1  0
 41 42  1  0
 42 43  1  0
 43 44  1  0
 44 45  1  0
 45 46  1  0
 46 47  1  0
 47 48  1  0
 48 49  1  0
 49 50  1  0
 50 51  1  0
 51 52  1  0
 52 53  1  0
 53 54  1  0
 54 55  1  0
 55 56  1  0
 56 57  1  0
 57 58  1  0
 58 59  1  0
 59 60  1  0
 60 61  1  0
 61 62  1  0
 62 63  1  0
 63 64  1  0
 64 65  1  0
 65 66  1  0
 66 67  1  0
 67 68  1  0
 68 69  1  0
 69 70  1  0
 70 71  1  0
 71 72  1  0
 72 73  1  0
 73 74  1  0
 74 75  1  0
 75 76  1  0
 76 77  1  0
 77 78  1  0
 78 79  1  0
 79 80  1  0
 80 81  1  0
 81 82  1  0
 82 83  1  0
 83 84  1  0
 84 85  1  0
 85 86  1  0
 86 87  1  0
 87 88  1  0
 88  1  1  0
M  END
>  <Title>  (118) 
idAACPgen10

$$$$

     RDKit          2D

 13 13  0  0  0  0  0  0  0  0999 V2000
    7.5000    0.0000    0.0000 C   0  0  0  0  0  0  0  0  0  0  0  0
    6.0000    0.0000    0.0000 C   0  0  0  0  0  0  0  0  0  0  0  0
    4.5000    0.0000    0.0000 C   0  0  0  0  0  0  0  0  0  0  0  0
    3.0000    0.0000    0.0000 C   0  0  0  0  0  0  0  0  0  0  0  0
    1.5000    0.0000    0.0000 C   0  0  0  0  0  0  0  0  0  0  0  0
    0.7500   -1.2990    0.0000 C   0  0  0  0  0  0  0  0  0  0  0  0
   -0.7500   -1.2990    0.0000 C   0  0  0  0  0  0  0  0  0  0  0  0
   -1.5000    0.0000    0.0000 C   0  0  0  0  0  0  0  0  0  0  0  0
   -3.0000    0.0000    0.0000 C   0  0  0  0  0  0  0  0  0  0  0  0
   -0.7500    1.2990    0.0000 C   0  0  0  0  0  0  0  0  0  0  0  0
   -1.5000    2.5981    0.0000 O   0  0  0  0  0  0  0  0  0  0  0  0
    0.7500    1.2990    0.0000 C   0  0  0  0  0  0  0  0  0  0  0  0
    1.5000    2.5981    0.0000 O   0  0  0  0  0  0  0  0  0  0  0  0
  1  2  3  0
  2  3  1  0
  3  4  3  0
  4  5  1  0
  5  6  2  0
  6  7  1  0
  7  8  2  0
  8  9  1  0
  8 10  1  0
 10 11  1  0
 10 12  1  0
 12 13  1  0
 12  5  1  0
M  END
>  <Title>  (119) 
idAACQgen10

$$$$

     RDKit          2D

 12 12  0  0  0  0  0  0  0  0999 V2000
    3.0000    0.0000    0.0000 C   0  0  0  0  0  0  0  0  0  0  0  0
    1.5000    0.0000    0.0000 C   0  0  0  0  0  0  0  0  0  0  0  0
    0.7500   -1.2990    0.0000 C   0  0  0  0  0  0  0  0  0  0  0  0
   -0.7500   -1.2990    0.0000 C   0  0  0  0  0  0  0  0  0  0  0  0
   -1.5000   -2.5981    0.0000 C   0  0  0  0  0  0  0  0  0  0  0  0
   -1.5000    0.0000    0.0000 C   0  0  0  0  0  0  0  0  0  0  0  0
   -0.7500    1.2990    0.0000 C   0  0  0  0  0  0  0  0  0  0  0  0
    0.7500    1.2990    0.0000 N   0  0  0  0  0  0  0  0  0  0  0  0
    1.5000    2.5981    0.0000 C   0  0  0  0  0  0  0  0  0  0  0  0
    0.7500    3.8971    0.0000 C   0  0  0  0  0  0  0  0  0  0  0  0
    1.5000    5.1962    0.0000 C   0  0  0  0  0  0  0  0  0  0  0  0
    2.2500    6.4952    0.0000 N   0  0  0  0  0  0  0  0  0  0  0  0
  1  2  1  0
  2  3  2  0
  3  4  1  0
  4  5  1  0
  4  6  1  0
  6  7  1  0
  7  8  1  0
  8  9  1  0
  9 10  1  0
 10 11  1  0
 11 12  3  0
  8  2  1  0
M  END
>  <Title>  (120) 
idAACRgen10

$$$$

     RDKit          2D

  8  8  0  0  0  0  0  0  0  0999 V2000
    3.0000    0.0000    0.0000 C   0  0  0  0  0  0  0  0  0  0  0  0
    1.5000    0.0000    0.0000 C   0  0  0  0  0  0  0  0  0  0  0  0
    0.7500   -1.2990    0.0000 C   0  0  0  0  0  0  0  0  0  0  0  0
   -0.7500   -1.2990    0.0000 C   0  0  0  0  0  0  0  0  0  0  0  0
   -1.5000    0.0000    0.0000 N   0  0  0  0  0  0  0  0  0  0  0  0
   -0.7500    1.2990    0.0000 C   0  0  0  0  0  0  0  0  0  0  0  0
   -1.5000    2.5981    0.0000 C   0  0  0  0  0  0  0  0  0  0  0  0
    0.7500    1.2990    0.0000 C   0  0  0  0  0  0  0  0  0  0  0  0
  1  2  1  0
  2  3  2  0
  3  4  1  0
  4  5  2  0
  5  6  1  0
  6  7  1  0
  6  8  2  0
  8  2  1  0
M  END
>  <Title>  (121) 
idAACSgen10

$$$$

     RDKit          2D

 11 11  0  0  0  0  0  0  0  0999 V2000
    2.7760    0.0000    0.0000 C   0  0  0  0  0  0  0  0  0  0  0  0
    1.2760    0.0000    0.0000 C   0  0  0  0  0  0  0  0  0  0  0  0
    0.3943    1.2135    0.0000 C   0  0  0  0  0  0  0  0  0  0  0  0
   -1.0323    0.7500    0.0000 C   0  0  0  0  0  0  0  0  0  0  0  0
   -1.0323   -0.7500    0.0000 C   0  0  0  0  0  0  0  0  0  0  0  0
   -2.2458   -1.6317    0.0000 C   0  0  0  0  0  0  0  0  0  0  0  0
   -2.0890   -3.1235    0.0000 O   0  0  0  0  0  0  0  0  0  0  0  0
   -3.6161   -1.0216    0.0000 N   0  0  0  0  0  0  0  0  0  0  0  0
   -4.8297   -1.9033    0.0000 C   0  0  0  0  0  0  0  0  0  0  0  0
   -3.7729    0.4702    0.0000 C   0  0  0  0  0  0  0  0  0  0  0  0
    0.3943   -1.2135    0.0000 C   0  0  0  0  0  0  0  0  0  0  0  0
  1  2  1  0
  2  3  2  0
  3  4  1  0
  4  5  2  0
  5  6  1  0
  6  7  2  0
  6  8  1  0
  8  9  1  0
  8 10  1  0
  5 11  1  0
 11  2  1  0
M  END
>  <Title>  (122) 
idAACTgen10

$$$$

     RDKit          2D

 96 97  0  0  0  0  0  0  0  0999 V2000
   -0.7021   -2.7089    0.0000 C   0  0  0  0  0  0  0  0  0  0  0  0
    0.4695   -3.6456    0.0000 C   0  0  0  0  0  0  0  0  0  0  0  0
   -0.4234   -4.8510    0.0000 C   0  0  0  0  0  0  0  0  0  0  0  0
   -1.2248   -6.1189    0.0000 C   0  0  0  0  0  0  0  0  0  0  0  0
   -1.9304   -7.4426    0.0000 C   0  0  0  0  0  0  0  0  0  0  0  0
   -2.5362   -8.8148    0.0000 C   0  0  0  0  0  0  0  0  0  0  0  0
   -3.0391  -10.2280    0.0000 C   0  0  0  0  0  0  0  0  0  0  0  0
   -3.4363  -11.6745    0.0000 C   0  0  0  0  0  0  0  0  0  0  0  0
   -3.7255  -13.1463    0.0000 C   0  0  0  0  0  0  0  0  0  0  0  0
   -3.9053  -14.6355    0.0000 C   0  0  0  0  0  0  0  0  0  0  0  0
   -3.9745  -16.1339    0.0000 C   0  0  0  0  0  0  0  0  0  0  0  0
   -3.9330  -17.6334    0.0000 C   0  0  0  0  0  0  0  0  0  0  0  0
   -3.7808  -19.1256    0.0000 C   0  0  0  0  0  0  0  0  0  0  0  0
   -3.5188  -20.6026    0.0000 C   0  0  0  0  0  0  0  0  0  0  0  0
   -3.1484  -22.0561    0.0000 C   0  0  0  0  0  0  0  0  0  0  0  0
   -2.6717  -23.4784    0.0000 C   0  0  0  0  0  0  0  0  0  0  0  0
   -2.0913  -24.8615    0.0000 C   0  0  0  0  0  0  0  0  0  0  0  0
   -1.4103  -26.1980    0.0000 C   0  0  0  0  0  0  0  0  0  0  0  0
   -0.6325  -27.4806    0.0000 C   0  0  0  0  0  0  0  0  0  0  0  0
    0.2379  -28.7022    0.0000 C   0  0  0  0  0  0  0  0  0  0  0  0
    1.1962  -29.8562    0.0000 C   0  0  0  0  0  0  0  0  0  0  0  0
    2.2371  -30.9363    0.0000 C   0  0  0  0  0  0  0  0  0  0  0  0
    3.3549  -31.9366    0.0000 C   0  0  0  0  0  0  0  0  0  0  0  0
    4.5435  -32.8515    0.0000 C   0  0  0  0  0  0  0  0  0  0  0  0
    5.7965  -33.6762    0.0000 C   0  0  0  0  0  0  0  0  0  0  0  0
    7.1069  -34.4061    0.0000 C   0  0  0  0  0  0  0  0  0  0  0  0
    8.4676  -35.0373    0.0000 C   0  0  0  0  0  0  0  0  0  0  0  0
    9.8713  -35.5662    0.0000 C   0  0  0  0  0  0  0  0  0  0  0  0
   11.3102  -35.9900    0.0000 C   0  0  0  0  0  0  0  0  0  0  0  0
   12.7764  -36.3064    0.0000 C   0  0  0  0  0  0  0  0  0  0  0  0
   14.2621  -36.5136    0.0000 C   0  0  0  0  0  0  0  0  0  0  0  0
   15.7589  -36.6106    0.0000 C   0  0  0  0  0  0  0  0  0  0  0  0
   17.2589  -36.5967    0.0000 C   0  0  0  0  0  0  0  0  0  0  0  0
   18.7537  -36.4721    0.0000 C   0  0  0  0  0  0  0  0  0  0  0  0
   20.2352  -36.2374    0.0000 C   0  0  0  0  0  0  0  0  0  0  0  0
   21.6954  -35.8940    0.0000 C   0  0  0  0  0  0  0  0  0  0  0  0
   23.1262  -35.4437    0.0000 C   0  0  0  0  0  0  0  0  0  0  0  0
   24.5198  -34.8889    0.0000 C   0  0  0  0  0  0  0  0  0  0  0  0
   25.8687  -34.2328    0.0000 C   0  0  0  0  0  0  0  0  0  0  0  0
   27.1654  -33.4788    0.0000 C   0  0  0  0  0  0  0  0  0  0  0  0
   28.4029  -32.6311    0.0000 C   0  0  0  0  0  0  0  0  0  0  0  0
   29.5744  -31.6943    0.0000 C   0  0  0  0  0  0  0  0  0  0  0  0
   30.6735  -30.6735    0.0000 C   0  0  0  0  0  0  0  0  0  0  0  0
   31.6943  -29.5744    0.0000 C   0  0  0  0  0  0  0  0  0  0  0  0
   32.6311  -28.4029    0.0000 C   0  0  0  0  0  0  0  0  0  0  0  0
   33.4788  -27.1654    0.0000 C   0  0  0  0  0  0  0  0  0  0  0  0
   34.2328  -25.8687    0.0000 C   0  0  0  0  0  0  0  0  0  0  0  0
   34.8889  -24.5198    0.0000 C   0  0  0  0  0  0  0  0  0  0  0  0
   35.4437  -23.1262    0.0000 C   0  0  0  0  0  0  0  0  0  0  0  0
   35.8940  -21.6954    0.0000 C   0  0  0  0  0  0  0  0  0  0  0  0
   36.2374  -20.2352    0.0000 C   0  0  0  0  0  0  0  0  0  0  0  0
   36.4721  -18.7537    0.0000 C   0  0  0  0  0  0  0  0  0  0  0  0
   36.5967  -17.2589    0.0000 C   0  0  0  0  0  0  0  0  0  0  0  0
   36.6106  -15.7589    0.0000 C   0  0  0  0  0  0  0  0  0  0  0  0
   36.5136  -14.2621    0.0000 C   0  0  0  0  0  0  0  0  0  0  0  0
   36.3064  -12.7764    0.0000 C   0  0  0  0  0  0  0  0  0  0  0  0
   35.9900  -11.3102    0.0000 C   0  0  0  0  0  0  0  0  0  0  0  0
   35.5662   -9.8713    0.0000 C   0  0  0  0  0  0  0  0  0  0  0  0
   35.0373   -8.4676    0.0000 C   0  0  0  0  0  0  0  0  0  0  0  0
   34.4061   -7.1069    0.0000 C   0  0  0  0  0  0  0  0  0  0  0  0
   33.6762   -5.7965    0.0000 C   0  0  0  0  0  0  0  0  0  0  0  0
   32.8515   -4.5435    0.0000 C   0  0  0  0  0  0  0  0  0  0  0  0
   31.9366   -3.3549    0.0000 C   0  0  0  0  0  0  0  0  0  0  0  0
   30.9363   -2.2371    0.0000 C   0  0  0  0  0  0  0  0  0  0  0  0
   29.8562   -1.1962    0.0000 C   0  0  0  0  0  0  0  0  0  0  0  0
   28.7022   -0.2379    0.0000 C   0  0  0  0  0  0  0  0  0  0  0  0
   27.4806    0.6325    0.0000 C   0  0  0  0  0  0  0  0  0  0  0  0
   26.1980    1.4103    0.0000 C   0  0  0  0  0  0  0  0  0  0  0  0
   24.8615    2.0913    0.0000 C   0  0  0  0  0  0  0  0  0  0  0  0
   23.4784    2.6717    0.0000 C   0  0  0  0  0  0  0  0  0  0  0  0
   22.0561    3.1484    0.0000 C   0  0  0  0  0  0  0  0  0  0  0  0
   20.6026    3.5188    0.0000 C   0  0  0  0  0  0  0  0  0  0  0  0
   19.1256    3.7808    0.0000 C   0  0  0  0  0  0  0  0  0  0  0  0
   17.6334    3.9330    0.0000 C   0  0  0  0  0  0  0  0  0  0  0  0
   16.1339    3.9745    0.0000 C   0  0  0  0  0  0  0  0  0  0  0  0
   14.6355    3.9053    0.0000 C   0  0  0  0  0  0  0  0  0  0  0  0
   13.1463    3.7255    0.0000 C   0  0  0  0  0  0  0  0  0  0  0  0
   11.6745    3.4363    0.0000 C   0  0  0  0  0  0  0  0  0  0  0  0
   10.2280    3.0391    0.0000 C   0  0  0  0  0  0  0  0  0  0  0  0
    8.8148    2.5362    0.0000 C   0  0  0  0  0  0  0  0  0  0  0  0
    7.4426    1.9304    0.0000 C   0  0  0  0  0  0  0  0  0  0  0  0
    6.1189    1.2248    0.0000 C   0  0  0  0  0  0  0  0  0  0  0  0
    4.8510    0.4234    0.0000 C   0  0  0  0  0  0  0  0  0  0  0  0
    3.6456   -0.4695    0.0000 C   0  0  0  0  0  0  0  0  0  0  0  0
    2.5095   -1.4489    0.0000 C   0  0  0  0  0  0  0  0  0  0  0  0
    2.8978    0.0000    0.0000 C   0  0  0  0  0  0  0  0  0  0  0  0
    2.5095    1.4489    0.0000 C   0  0  0  0  0  0  0  0  0  0  0  0
    1.4489    2.5095    0.0000 C   0  0  0  0  0  0  0  0  0  0  0  0
    0.0000    2.8978    0.0000 C   0  0  0  0  0  0  0  0  0  0  0  0
   -1.4489    2.5095    0.0000 C   0  0  0  0  0  0  0  0  0  0  0  0
   -2.5095    1.4489    0.0000 C   0  0  0  0  0  0  0  0  0  0  0  0
   -2.8978    0.0000    0.0000 C   0  0  0  0  0  0  0  0  0  0  0  0
   -2.5095   -1.4489    0.0000 C   0  0  0  0  0  0  0  0  0  0  0  0
   -1.4489   -2.5095    0.0000 C   0  0  0  0  0  0  0  0  0  0  0  0
   -0.0000   -2.8978    0.0000 C   0  0  0  0  0  0  0  0  0  0  0  0
    1.4489   -2.5095    0.0000 C   0  0  0  0  0  0  0  0  0  0  0  0
  1  2  1  0
  2  3  1  0
  3  4  1  0
  4  5  1  0
  5  6  1  0
  6  7  1  0
  7  8  1  0
  8  9  1  0
  9 10  1  0
 10 11  1  0
 11 12  1  0
 12 13  1  0
 13 14  1  0
 14 15  1  0
 15 16  1  0
 16 17  1  0
 17 18  1  0
 18 19  1  0
 19 20  1  0
 20 21  1  0
 21 22  1  0
 22 23  1  0
 23 24  1  0
 24 25  1  0
 25 26  1  0
 26 27  1  0
 27 28  1  0
 28 29  1  0
 29 30  1  0
 30 31  1  0
 31 32  1  0
 32 33  1  0
 33 34  1  0
 34 35  1  0
 35 36  1  0
 36 37  1  0
 37 38  1  0
 38 39  1  0
 39 40  1  0
 40 41  1  0
 41 42  1  0
 42 43  1  0
 43 44  1  0
 44 45  1  0
 45 46  1  0
 46 47  1  0
 47 48  1  0
 48 49  1  0
 49 50  1  0
 50 51  1  0
 51 52  1  0
 52 53  1  0
 53 54  1  0
 54 55  1  0
 55 56  1  0
 56 57  1  0
 57 58  1  0
 58 59  1  0
 59 60  1  0
 60 61  1  0
 61 62  1  0
 62 63  1  0
 63 64  1  0
 64 65  2  0
 65 66  1  0
 66 67  2  0
 67 68  1  0
 68 69  2  0
 69 70  1  0
 70 71  2  0
 71 72  1  0
 72 73  2  0
 73 74  1  0
 74 75  2  0
 75 76  1  0
 76 77  2  0
 77 78  1  0
 78 79  2  0
 79 80  1  0
 80 81  2  0
 81 82  1  0
 82 83  2  0
 83 84  1  0
 84 85  2  0
 85 86  1  0
 86 87  1  0
 87 88  1  0
 88 89  1  0
 89 90  1  0
 90 91  1  0
 91 92  2  0
 92 93  1  0
 93 94  2  0
 94 95  1  0
 95 96  2  0
 96  2  1  0
 96 85  1  0
M  END
>  <Title>  (123) 
idAACUgen10

$$$$

     RDKit          2D

 86 87  0  0  0  0  0  0  0  0999 V2000
   -2.1933   -1.0733    0.0000 C   0  0  0  0  0  0  0  0  0  0  0  0
   -2.4902    0.3970    0.0000 C   0  0  0  0  0  0  0  0  0  0  0  0
   -3.9708    0.1567    0.0000 C   0  0  0  0  0  0  0  0  0  0  0  0
   -5.4655    0.0304    0.0000 C   0  0  0  0  0  0  0  0  0  0  0  0
   -6.9654    0.0189    0.0000 C   0  0  0  0  0  0  0  0  0  0  0  0
   -8.4619    0.1223    0.0000 C   0  0  0  0  0  0  0  0  0  0  0  0
   -9.9460    0.3399    0.0000 C   0  0  0  0  0  0  0  0  0  0  0  0
  -11.4091    0.6705    0.0000 C   0  0  0  0  0  0  0  0  0  0  0  0
  -12.8426    1.1121    0.0000 C   0  0  0  0  0  0  0  0  0  0  0  0
  -14.2381    1.6621    0.0000 C   0  0  0  0  0  0  0  0  0  0  0  0
  -15.5874    2.3174    0.0000 C   0  0  0  0  0  0  0  0  0  0  0  0
  -16.8826    3.0740    0.0000 C   0  0  0  0  0  0  0  0  0  0  0  0
  -18.1161    3.9276    0.0000 C   0  0  0  0  0  0  0  0  0  0  0  0
  -19.2806    4.8731    0.0000 C   0  0  0  0  0  0  0  0  0  0  0  0
  -20.3693    5.9049    0.0000 C   0  0  0  0  0  0  0  0  0  0  0  0
  -21.3759    7.0170    0.0000 C   0  0  0  0  0  0  0  0  0  0  0  0
  -22.2943    8.2030    0.0000 C   0  0  0  0  0  0  0  0  0  0  0  0
  -23.1193    9.4557    0.0000 C   0  0  0  0  0  0  0  0  0  0  0  0
  -23.8460   10.7680    0.0000 C   0  0  0  0  0  0  0  0  0  0  0  0
  -24.4700   12.1320    0.0000 C   0  0  0  0  0  0  0  0  0  0  0  0
  -24.9879   13.5398    0.0000 C   0  0  0  0  0  0  0  0  0  0  0  0
  -25.3964   14.9831    0.0000 C   0  0  0  0  0  0  0  0  0  0  0  0
  -25.6933   16.4534    0.0000 C   0  0  0  0  0  0  0  0  0  0  0  0
  -25.8767   17.9421    0.0000 C   0  0  0  0  0  0  0  0  0  0  0  0
  -25.9456   19.4406    0.0000 C   0  0  0  0  0  0  0  0  0  0  0  0
  -25.8997   20.9399    0.0000 C   0  0  0  0  0  0  0  0  0  0  0  0
  -25.7391   22.4312    0.0000 C   0  0  0  0  0  0  0  0  0  0  0  0
  -25.4648   23.9059    0.0000 C   0  0  0  0  0  0  0  0  0  0  0  0
  -25.0784   25.3553    0.0000 C   0  0  0  0  0  0  0  0  0  0  0  0
  -24.5822   26.7709    0.0000 C   0  0  0  0  0  0  0  0  0  0  0  0
  -23.9791   28.1443    0.0000 C   0  0  0  0  0  0  0  0  0  0  0  0
  -23.2726   29.4675    0.0000 C   0  0  0  0  0  0  0  0  0  0  0  0
  -22.4670   30.7328    0.0000 C   0  0  0  0  0  0  0  0  0  0  0  0
  -21.5668   31.9326    0.0000 C   0  0  0  0  0  0  0  0  0  0  0  0
  -20.5774   33.0601    0.0000 C   0  0  0  0  0  0  0  0  0  0  0  0
  -19.5046   34.1085    0.0000 C   0  0  0  0  0  0  0  0  0  0  0  0
  -18.3547   35.0717    0.0000 C   0  0  0  0  0  0  0  0  0  0  0  0
  -17.1345   35.9440    0.0000 C   0  0  0  0  0  0  0  0  0  0  0  0
  -15.8511   36.7204    0.0000 C   0  0  0  0  0  0  0  0  0  0  0  0
  -14.5120   37.3963    0.0000 C   0  0  0  0  0  0  0  0  0  0  0  0
  -13.1250   37.9677    0.0000 C   0  0  0  0  0  0  0  0  0  0  0  0
  -11.6985   38.4312    0.0000 C   0  0  0  0  0  0  0  0  0  0  0  0
  -10.2406   38.7841    0.0000 C   0  0  0  0  0  0  0  0  0  0  0  0
   -8.7599   39.0245    0.0000 C   0  0  0  0  0  0  0  0  0  0  0  0
   -7.2653   39.1507    0.0000 C   0  0  0  0  0  0  0  0  0  0  0  0
   -5.7653   39.1622    0.0000 C   0  0  0  0  0  0  0  0  0  0  0  0
   -4.2689   39.0589    0.0000 C   0  0  0  0  0  0  0  0  0  0  0  0
   -2.7847   38.8413    0.0000 C   0  0  0  0  0  0  0  0  0  0  0  0
   -1.3216   38.5107    0.0000 C   0  0  0  0  0  0  0  0  0  0  0  0
    0.1119   38.0691    0.0000 C   0  0  0  0  0  0  0  0  0  0  0  0
    1.5074   37.5190    0.0000 C   0  0  0  0  0  0  0  0  0  0  0  0
    2.8567   36.8638    0.0000 C   0  0  0  0  0  0  0  0  0  0  0  0
    4.1519   36.1071    0.0000 C   0  0  0  0  0  0  0  0  0  0  0  0
    5.3854   35.2536    0.0000 C   0  0  0  0  0  0  0  0  0  0  0  0
    6.5499   34.3081    0.0000 C   0  0  0  0  0  0  0  0  0  0  0  0
    7.6386   33.2763    0.0000 C   0  0  0  0  0  0  0  0  0  0  0  0
    8.6451   32.1641    0.0000 C   0  0  0  0  0  0  0  0  0  0  0  0
    9.5636   30.9782    0.0000 C   0  0  0  0  0  0  0  0  0  0  0  0
   10.3886   29.7254    0.0000 C   0  0  0  0  0  0  0  0  0  0  0  0
   11.1152   28.4132    0.0000 C   0  0  0  0  0  0  0  0  0  0  0  0
   11.7393   27.0492    0.0000 C   0  0  0  0  0  0  0  0  0  0  0  0
   12.2571   25.6414    0.0000 C   0  0  0  0  0  0  0  0  0  0  0  0
   12.6657   24.1981    0.0000 C   0  0  0  0  0  0  0  0  0  0  0  0
   12.9625   22.7278    0.0000 C   0  0  0  0  0  0  0  0  0  0  0  0
   13.1460   21.2390    0.0000 C   0  0  0  0  0  0  0  0  0  0  0  0
   13.2149   19.7406    0.0000 C   0  0  0  0  0  0  0  0  0  0  0  0
   13.1689   18.2413    0.0000 C   0  0  0  0  0  0  0  0  0  0  0  0
   13.0083   16.7500    0.0000 C   0  0  0  0  0  0  0  0  0  0  0  0
   12.7340   15.2752    0.0000 C   0  0  0  0  0  0  0  0  0  0  0  0
   12.3477   13.8259    0.0000 C   0  0  0  0  0  0  0  0  0  0  0  0
   11.8515   12.4103    0.0000 C   0  0  0  0  0  0  0  0  0  0  0  0
   11.2484   11.0369    0.0000 C   0  0  0  0  0  0  0  0  0  0  0  0
   10.5419    9.7137    0.0000 C   0  0  0  0  0  0  0  0  0  0  0  0
    9.7362    8.4484    0.0000 C   0  0  0  0  0  0  0  0  0  0  0  0
    8.8361    7.2485    0.0000 C   0  0  0  0  0  0  0  0  0  0  0  0
    7.8467    6.1211    0.0000 C   0  0  0  0  0  0  0  0  0  0  0  0
    6.7739    5.0727    0.0000 C   0  0  0  0  0  0  0  0  0  0  0  0
    5.6240    4.1095    0.0000 C   0  0  0  0  0  0  0  0  0  0  0  0
    4.4038    3.2371    0.0000 C   0  0  0  0  0  0  0  0  0  0  0  0
    3.1203    2.4608    0.0000 C   0  0  0  0  0  0  0  0  0  0  0  0
    1.7812    1.7849    0.0000 C   0  0  0  0  0  0  0  0  0  0  0  0
    0.3943    1.2135    0.0000 C   0  0  0  0  0  0  0  0  0  0  0  0
    1.2760    0.0000    0.0000 C   0  0  0  0  0  0  0  0  0  0  0  0
    0.3943   -1.2135    0.0000 C   0  0  0  0  0  0  0  0  0  0  0  0
   -1.0323   -0.7500    0.0000 C   0  0  0  0  0  0  0  0  0  0  0  0
   -1.0323    0.7500    0.0000 C   0  0  0  0  0  0  0  0  0  0  0  0
  1  2  1  0
  2  3  1  0
  3  4  1  0
  4  5  1  0
  5  6  1  0
  6  7  1  0
  7  8  1  0
  8  9  1  0
  9 10  1  0
 10 11  1  0
 11 12  1  0
 12 13  1  0
 13 14  1  0
 14 15  1  0
 15 16  1  0
 16 17  1  0
 17 18  1  0
 18 19  1  0
 19 20  1  0
 20 21  1  0
 21 22  1  0
 22 23  1  0
 23 24  1  0
 24 25  1  0
 25 26  1  0
 26 27  1  0
 27 28  1  0
 28 29  1  0
 29 30  1  0
 30 31  1  0
 31 32  1  0
 32 33  1  0
 33 34  1  0
 34 35  1  0
 35 36  1  0
 36 37  1  0
 37 38  1  0
 38 39  1  0
 39 40  1  0
 40 41  1  0
 41 42  1  0
 42 43  1  0
 43 44  1  0
 44 45  1  0
 45 46  1  0
 46 47  1  0
 47 48  1  0
 48 49  1  0
 49 50  1  0
 50 51  1  0
 51 52  1  0
 52 53  1  0
 53 54  1  0
 54 55  1  0
 55 56  1  0
 56 57  1  0
 57 58  1  0
 58 59  1  0
 59 60  1  0
 60 61  1  0
 61 62  1  0
 62 63  1  0
 63 64  1  0
 64 65  1  0
 65 66  2  0
 66 67  1  0
 67 68  2  0
 68 69  1  0
 69 70  2  0
 70 71  1  0
 71 72  2  0
 72 73  1  0
 73 74  2  0
 74 75  1  0
 75 76  2  0
 76 77  1  0
 77 78  2  0
 78 79  1  0
 79 80  2  0
 80 81  1  0
 81 82  2  0
 82 83  1  0
 83 84  2  0
 84 85  1  0
 85 86  2  0
 86  2  1  0
 86 82  1  0
M  END
>  <Title>  (124) 
idAACVgen10

$$$$

     RDKit          2D

  8  8  0  0  0  0  0  0  0  0999 V2000
    3.7500   -1.2990    0.0000 C   0  0  0  0  0  0  0  0  0  0  0  0
    3.0000    0.0000    0.0000 C   0  0  0  0  0  0  0  0  0  0  0  0
    1.5000    0.0000    0.0000 C   0  0  0  0  0  0  0  0  0  0  0  0
    0.7500   -1.2990    0.0000 C   0  0  0  0  0  0  0  0  0  0  0  0
   -0.7500   -1.2990    0.0000 C   0  0  0  0  0  0  0  0  0  0  0  0
   -1.5000    0.0000    0.0000 C   0  0  0  0  0  0  0  0  0  0  0  0
   -0.7500    1.2990    0.0000 C   0  0  0  0  0  0  0  0  0  0  0  0
    0.7500    1.2990    0.0000 C   0  0  0  0  0  0  0  0  0  0  0  0
  1  2  2  0
  2  3  1  0
  3  4  2  0
  4  5  1  0
  5  6  2  0
  6  7  1  0
  7  8  2  0
  8  3  1  0
M  END
>  <Title>  (125) 
idAACWgen10

$$$$

     RDKit          2D

  8  8  0  0  0  0  0  0  0  0999 V2000
    3.0000    0.0000    0.0000 C   0  0  0  0  0  0  0  0  0  0  0  0
    1.5000    0.0000    0.0000 C   0  0  0  0  0  0  0  0  0  0  0  0
    0.7500   -1.2990    0.0000 C   0  0  0  0  0  0  0  0  0  0  0  0
   -0.7500   -1.2990    0.0000 C   0  0  0  0  0  0  0  0  0  0  0  0
   -1.5000   -2.5981    0.0000 C   0  0  0  0  0  0  0  0  0  0  0  0
   -1.5000    0.0000    0.0000 N   0  0  0  0  0  0  0  0  0  0  0  0
   -0.7500    1.2990    0.0000 C   0  0  0  0  0  0  0  0  0  0  0  0
    0.7500    1.2990    0.0000 C   0  0  0  0  0  0  0  0  0  0  0  0
  1  2  1  0
  2  3  2  0
  3  4  1  0
  4  5  1  0
  4  6  1  0
  6  7  1  0
  7  8  1  0
  8  2  1  0
M  END
>  <Title>  (126) 
idAACXgen10

$$$$

     RDKit          2D

 12 13  0  0  0  0  0  0  0  0999 V2000
   -1.4863   -5.5470    0.0000 N   0  0  0  0  0  0  0  0  0  0  0  0
   -0.1873   -4.7970    0.0000 C   0  0  0  0  0  0  0  0  0  0  0  0
    1.1118   -4.0470    0.0000 C   0  0  0  0  0  0  0  0  0  0  0  0
    1.5000   -2.5981    0.0000 C   0  0  0  0  0  0  0  0  0  0  0  0
    0.7500   -1.2990    0.0000 C   0  0  0  0  0  0  0  0  0  0  0  0
    1.5000    0.0000    0.0000 C   0  0  0  0  0  0  0  0  0  0  0  0
    0.7500    1.2990    0.0000 C   0  0  0  0  0  0  0  0  0  0  0  0
   -0.7500    1.2990    0.0000 C   0  0  0  0  0  0  0  0  0  0  0  0
   -1.5000    0.0000    0.0000 C   0  0  0  0  0  0  0  0  0  0  0  0
   -0.7500   -1.2990    0.0000 C   0  0  0  0  0  0  0  0  0  0  0  0
    2.9489   -2.9863    0.0000 C   0  0  0  0  0  0  0  0  0  0  0  0
    2.5607   -4.4352    0.0000 C   0  0  0  0  0  0  0  0  0  0  0  0
  1  2  3  0
  2  3  1  0
  3  4  2  0
  4  5  1  0
  5  6  2  0
  6  7  1  0
  7  8  2  0
  8  9  1  0
  9 10  2  0
  4 11  1  0
 11 12  1  0
 12  3  1  0
 10  5  1  0
M  END
>  <Title>  (127) 
idAACYgen10

$$$$

     RDKit          2D

 88 88  0  0  0  0  0  0  0  0999 V2000
   22.2742   -0.0000    0.0000 C   0  0  0  0  0  0  0  0  0  0  0  0
   20.7742    0.0000    0.0000 C   0  0  0  0  0  0  0  0  0  0  0  0
   20.7201    1.4990    0.0000 C   0  0  0  0  0  0  0  0  0  0  0  0
   20.5579    2.9902    0.0000 C   0  0  0  0  0  0  0  0  0  0  0  0
   20.2885    4.4658    0.0000 C   0  0  0  0  0  0  0  0  0  0  0  0
   19.9134    5.9182    0.0000 C   0  0  0  0  0  0  0  0  0  0  0  0
   19.4345    7.3397    0.0000 C   0  0  0  0  0  0  0  0  0  0  0  0
   18.8542    8.7229    0.0000 C   0  0  0  0  0  0  0  0  0  0  0  0
   18.1756   10.0606    0.0000 C   0  0  0  0  0  0  0  0  0  0  0  0
   17.4023   11.3459    0.0000 C   0  0  0  0  0  0  0  0  0  0  0  0
   16.5382   12.5720    0.0000 C   0  0  0  0  0  0  0  0  0  0  0  0
   15.5879   13.7326    0.0000 C   0  0  0  0  0  0  0  0  0  0  0  0
   14.5564   14.8216    0.0000 C   0  0  0  0  0  0  0  0  0  0  0  0
   13.4490   15.8333    0.0000 C   0  0  0  0  0  0  0  0  0  0  0  0
   12.2714   16.7625    0.0000 C   0  0  0  0  0  0  0  0  0  0  0  0
   11.0299   17.6043    0.0000 C   0  0  0  0  0  0  0  0  0  0  0  0
    9.7308   18.3543    0.0000 C   0  0  0  0  0  0  0  0  0  0  0  0
    8.3811   19.0086    0.0000 C   0  0  0  0  0  0  0  0  0  0  0  0
    6.9876   19.5638    0.0000 C   0  0  0  0  0  0  0  0  0  0  0  0
    5.5577   20.0170    0.0000 C   0  0  0  0  0  0  0  0  0  0  0  0
    4.0988   20.3659    0.0000 C   0  0  0  0  0  0  0  0  0  0  0  0
    2.6186   20.6085    0.0000 C   0  0  0  0  0  0  0  0  0  0  0  0
    1.1247   20.7438    0.0000 C   0  0  0  0  0  0  0  0  0  0  0  0
   -0.3751   20.7708    0.0000 C   0  0  0  0  0  0  0  0  0  0  0  0
   -1.8729   20.6896    0.0000 C   0  0  0  0  0  0  0  0  0  0  0  0
   -3.3609   20.5006    0.0000 C   0  0  0  0  0  0  0  0  0  0  0  0
   -4.8314   20.2046    0.0000 C   0  0  0  0  0  0  0  0  0  0  0  0
   -6.2767   19.8033    0.0000 C   0  0  0  0  0  0  0  0  0  0  0  0
   -7.6893   19.2988    0.0000 C   0  0  0  0  0  0  0  0  0  0  0  0
   -9.0618   18.6936    0.0000 C   0  0  0  0  0  0  0  0  0  0  0  0
  -10.3871   17.9910    0.0000 C   0  0  0  0  0  0  0  0  0  0  0  0
  -11.6582   17.1946    0.0000 C   0  0  0  0  0  0  0  0  0  0  0  0
  -12.8686   16.3086    0.0000 C   0  0  0  0  0  0  0  0  0  0  0  0
  -14.0118   15.3375    0.0000 C   0  0  0  0  0  0  0  0  0  0  0  0
  -15.0820   14.2864    0.0000 C   0  0  0  0  0  0  0  0  0  0  0  0
  -16.0736   13.1609    0.0000 C   0  0  0  0  0  0  0  0  0  0  0  0
  -16.9813   11.9668    0.0000 C   0  0  0  0  0  0  0  0  0  0  0  0
  -17.8006   10.7102    0.0000 C   0  0  0  0  0  0  0  0  0  0  0  0
  -18.5270    9.3979    0.0000 C   0  0  0  0  0  0  0  0  0  0  0  0
  -19.1568    8.0365    0.0000 C   0  0  0  0  0  0  0  0  0  0  0  0
  -19.6868    6.6332    0.0000 C   0  0  0  0  0  0  0  0  0  0  0  0
  -20.1141    5.1954    0.0000 C   0  0  0  0  0  0  0  0  0  0  0  0
  -20.4365    3.7305    0.0000 C   0  0  0  0  0  0  0  0  0  0  0  0
  -20.6525    2.2461    0.0000 C   0  0  0  0  0  0  0  0  0  0  0  0
  -20.7607    0.7500    0.0000 C   0  0  0  0  0  0  0  0  0  0  0  0
  -20.7607   -0.7500    0.0000 C   0  0  0  0  0  0  0  0  0  0  0  0
  -20.6525   -2.2461    0.0000 C   0  0  0  0  0  0  0  0  0  0  0  0
  -20.4365   -3.7305    0.0000 C   0  0  0  0  0  0  0  0  0  0  0  0
  -20.1141   -5.1954    0.0000 C   0  0  0  0  0  0  0  0  0  0  0  0
  -19.6868   -6.6332    0.0000 C   0  0  0  0  0  0  0  0  0  0  0  0
  -19.1568   -8.0365    0.0000 C   0  0  0  0  0  0  0  0  0  0  0  0
  -18.5270   -9.3979    0.0000 C   0  0  0  0  0  0  0  0  0  0  0  0
  -17.8006  -10.7102    0.0000 C   0  0  0  0  0  0  0  0  0  0  0  0
  -16.9813  -11.9668    0.0000 C   0  0  0  0  0  0  0  0  0  0  0  0
  -16.0736  -13.1609    0.0000 C   0  0  0  0  0  0  0  0  0  0  0  0
  -15.0820  -14.2864    0.0000 C   0  0  0  0  0  0  0  0  0  0  0  0
  -14.0118  -15.3375    0.0000 C   0  0  0  0  0  0  0  0  0  0  0  0
  -12.8686  -16.3086    0.0000 C   0  0  0  0  0  0  0  0  0  0  0  0
  -11.6582  -17.1946    0.0000 C   0  0  0  0  0  0  0  0  0  0  0  0
  -10.3871  -17.9910    0.0000 C   0  0  0  0  0  0  0  0  0  0  0  0
   -9.0618  -18.6936    0.0000 C   0  0  0  0  0  0  0  0  0  0  0  0
   -7.6893  -19.2988    0.0000 C   0  0  0  0  0  0  0  0  0  0  0  0
   -6.2767  -19.8033    0.0000 C   0  0  0  0  0  0  0  0  0  0  0  0
   -4.8314  -20.2046    0.0000 C   0  0  0  0  0  0  0  0  0  0  0  0
   -3.3609  -20.5006    0.0000 C   0  0  0  0  0  0  0  0  0  0  0  0
   -1.8729  -20.6896    0.0000 C   0  0  0  0  0  0  0  0  0  0  0  0
   -0.3751  -20.7708    0.0000 C   0  0  0  0  0  0  0  0  0  0  0  0
    1.1247  -20.7438    0.0000 C   0  0  0  0  0  0  0  0  0  0  0  0
    2.6186  -20.6085    0.0000 C   0  0  0  0  0  0  0  0  0  0  0  0
    4.0988  -20.3659    0.0000 C   0  0  0  0  0  0  0  0  0  0  0  0
    5.5577  -20.0170    0.0000 C   0  0  0  0  0  0  0  0  0  0  0  0
    6.9876  -19.5638    0.0000 C   0  0  0  0  0  0  0  0  0  0  0  0
    8.3811  -19.0086    0.0000 C   0  0  0  0  0  0  0  0  0  0  0  0
    9.7308  -18.3543    0.0000 C   0  0  0  0  0  0  0  0  0  0  0  0
   11.0299  -17.6043    0.0000 C   0  0  0  0  0  0  0  0  0  0  0  0
   12.2714  -16.7625    0.0000 C   0  0  0  0  0  0  0  0  0  0  0  0
   13.4490  -15.8333    0.0000 C   0  0  0  0  0  0  0  0  0  0  0  0
   14.5564  -14.8216    0.0000 C   0  0  0  0  0  0  0  0  0  0  0  0
   15.5879  -13.7326    0.0000 C   0  0  0  0  0  0  0  0  0  0  0  0
   16.5382  -12.5720    0.0000 C   0  0  0  0  0  0  0  0  0  0  0  0
   17.4023  -11.3459    0.0000 C   0  0  0  0  0  0  0  0  0  0  0  0
   18.1756  -10.0606    0.0000 C   0  0  0  0  0  0  0  0  0  0  0  0
   18.8542   -8.7229    0.0000 C   0  0  0  0  0  0  0  0  0  0  0  0
   19.4345   -7.3397    0.0000 C   0  0  0  0  0  0  0  0  0  0  0  0
   19.9134   -5.9182    0.0000 C   0  0  0  0  0  0  0  0  0  0  0  0
   20.2885   -4.4658    0.0000 C   0  0  0  0  0  0  0  0  0  0  0  0
   20.5579   -2.9902    0.0000 C   0  0  0  0  0  0  0  0  0  0  0  0
   20.7201   -1.4990    0.0000 C   0  0  0  0  0  0  0  0  0  0  0  0
  1  2  1  0
  2  3  1  0
  3  4  1  0
  4  5  1  0
  5  6  1  0
  6  7  1  0
  7  8  1  0
  8  9  1  0
  9 10  1  0
 10 11  1  0
 11 12  1  0
 12 13  1  0
 13 14  1  0
 14 15  1  0
 15 16  1  0
 16 17  1  0
 17 18  1  0
 18 19  1  0
 19 20  1  0
 20 21  1  0
 21 22  1  0
 22 23  1  0
 23 24  1  0
 24 25  1  0
 25 26  1  0
 26 27  1  0
 27 28  1  0
 28 29  1  0
 29 30  1  0
 30 31  1  0
 31 32  1  0
 32 33  1  0
 33 34  1  0
 34 35  1  0
 35 36  1  0
 36 37  1  0
 37 38  1  0
 38 39  1  0
 39 40  1  0
 40 41  1  0
 41 42  1  0
 42 43  1  0
 43 44  1  0
 44 45  1  0
 45 46  1  0
 46 47  1  0
 47 48  1  0
 48 49  1  0
 49 50  1  0
 50 51  1  0
 51 52  1  0
 52 53  1  0
 53 54  1  0
 54 55  1  0
 55 56  1  0
 56 57  1  0
 57 58  1  0
 58 59  1  0
 59 60  1  0
 60 61  1  0
 61 62  1  0
 62 63  1  0
 63 64  1  0
 64 65  1  0
 65 66  1  0
 66 67  1  0
 67 68  1  0
 68 69  1  0
 69 70  1  0
 70 71  1  0
 71 72  1  0
 72 73  1  0
 73 74  1  0
 74 75  1  0
 75 76  1  0
 76 77  1  0
 77 78  1  0
 78 79  1  0
 79 80  1  0
 80 81  1  0
 81 82  1  0
 82 83  1  0
 83 84  1  0
 84 85  1  0
 85 86  1  0
 86 87  1  0
 87 88  1  0
 88  2  1  0
M  END
>  <Title>  (128) 
idAACZgen10

$$$$

     RDKit          2D

  8  7  0  0  0  0  0  0  0  0999 V2000
    0.0000    0.0000    0.0000 C   0  0  0  0  0  0  0  0  0  0  0  0
   -0.0000   -1.5000    0.0000 C   0  0  0  0  0  0  0  0  0  0  0  0
   -0.0000   -3.0000    0.0000 C   0  0  0  0  0  0  0  0  0  0  0  0
   -0.0000   -4.5000    0.0000 C   0  0  0  0  0  0  0  0  0  0  0  0
   -0.0000   -6.0000    0.0000 C   0  0  0  0  0  0  0  0  0  0  0  0
   -0.0000   -7.5000    0.0000 C   0  0  0  0  0  0  0  0  0  0  0  0
   -0.0000   -9.0000    0.0000 C   0  0  0  0  0  0  0  0  0  0  0  0
    1.2990   -9.7500    0.0000 O   0  0  0  0  0  0  0  0  0  0  0  0
  1  2  3  0
  2  3  1  0
  3  4  3  0
  4  5  1  0
  5  6  3  0
  6  7  1  0
  7  8  1  0
M  END
>  <Title>  (129) 
idAADAgen10

$$$$

     RDKit          2D

  6  5  0  0  0  0  0  0  0  0999 V2000
    0.0000    0.0000    0.0000 C   0  0  0  0  0  0  0  0  0  0  0  0
    1.2990    0.7500    0.0000 C   0  0  0  0  0  0  0  0  0  0  0  0
    2.5981    1.5000    0.0000 C   0  0  0  0  0  0  0  0  0  0  0  0
    3.8971    2.2500    0.0000 C   0  0  0  0  0  0  0  0  0  0  0  0
    5.1962    1.5000    0.0000 C   0  0  0  0  0  0  0  0  0  0  0  0
    6.4952    2.2500    0.0000 C   0  0  0  0  0  0  0  0  0  0  0  0
  1  2  1  0
  2  3  3  0
  3  4  1  0
  4  5  1  0
  5  6  1  0
M  END
>  <Title>  (130) 
idAADBgen10

$$$$

     RDKit          2D

 12 12  0  0  0  0  0  0  0  0999 V2000
    7.5000    0.0000    0.0000 C   0  0  0  0  0  0  0  0  0  0  0  0
    6.0000    0.0000    0.0000 C   0  0  0  0  0  0  0  0  0  0  0  0
    4.5000    0.0000    0.0000 C   0  0  0  0  0  0  0  0  0  0  0  0
    3.0000    0.0000    0.0000 C   0  0  0  0  0  0  0  0  0  0  0  0
    1.5000    0.0000    0.0000 C   0  0  0  0  0  0  0  0  0  0  0  0
    0.7500   -1.2990    0.0000 C   0  0  0  0  0  0  0  0  0  0  0  0
   -0.7500   -1.2990    0.0000 C   0  0  0  0  0  0  0  0  0  0  0  0
   -1.5000    0.0000    0.0000 C   0  0  0  0  0  0  0  0  0  0  0  0
   -0.7500    1.2990    0.0000 C   0  0  0  0  0  0  0  0  0  0  0  0
    0.7500    1.2990    0.0000 C   0  0  0  0  0  0  0  0  0  0  0  0
    1.5000    2.5981    0.0000 C   0  0  0  0  0  0  0  0  0  0  0  0
    3.0000    2.5981    0.0000 C   0  0  0  0  0  0  0  0  0  0  0  0
  1  2  3  0
  2  3  1  0
  3  4  3  0
  4  5  1  0
  5  6  2  0
  6  7  1  0
  7  8  2  0
  8  9  1  0
  9 10  2  0
 10 11  1  0
 11 12  1  0
 10  5  1  0
M  END
>  <Title>  (131) 
idAADCgen10

$$$$

     RDKit          2D

115115  0  0  0  0  0  0  0  0999 V2000
   28.7189    0.0000    0.0000 C   0  0  0  0  0  0  0  0  0  0  0  0
   27.2189    0.0000    0.0000 C   0  0  0  0  0  0  0  0  0  0  0  0
   27.1776   -1.4994    0.0000 C   0  0  0  0  0  0  0  0  0  0  0  0
   27.0537   -2.9943    0.0000 C   0  0  0  0  0  0  0  0  0  0  0  0
   26.8477   -4.4801    0.0000 C   0  0  0  0  0  0  0  0  0  0  0  0
   26.5601   -5.9523    0.0000 C   0  0  0  0  0  0  0  0  0  0  0  0
   26.1919   -7.4064    0.0000 C   0  0  0  0  0  0  0  0  0  0  0  0
   25.7441   -8.8380    0.0000 C   0  0  0  0  0  0  0  0  0  0  0  0
   25.2182  -10.2427    0.0000 C   0  0  0  0  0  0  0  0  0  0  0  0
   24.6156  -11.6164    0.0000 C   0  0  0  0  0  0  0  0  0  0  0  0
   23.9383  -12.9548    0.0000 C   0  0  0  0  0  0  0  0  0  0  0  0
   23.1883  -14.2538    0.0000 C   0  0  0  0  0  0  0  0  0  0  0  0
   22.3679  -15.5096    0.0000 C   0  0  0  0  0  0  0  0  0  0  0  0
   21.4796  -16.7182    0.0000 C   0  0  0  0  0  0  0  0  0  0  0  0
   20.5260  -17.8761    0.0000 C   0  0  0  0  0  0  0  0  0  0  0  0
   19.5101  -18.9797    0.0000 C   0  0  0  0  0  0  0  0  0  0  0  0
   18.4349  -20.0256    0.0000 C   0  0  0  0  0  0  0  0  0  0  0  0
   17.3037  -21.0108    0.0000 C   0  0  0  0  0  0  0  0  0  0  0  0
   16.1200  -21.9321    0.0000 C   0  0  0  0  0  0  0  0  0  0  0  0
   14.8873  -22.7868    0.0000 C   0  0  0  0  0  0  0  0  0  0  0  0
   13.6095  -23.5723    0.0000 C   0  0  0  0  0  0  0  0  0  0  0  0
   12.2903  -24.2862    0.0000 C   0  0  0  0  0  0  0  0  0  0  0  0
   10.9337  -24.9264    0.0000 C   0  0  0  0  0  0  0  0  0  0  0  0
    9.5440  -25.4908    0.0000 C   0  0  0  0  0  0  0  0  0  0  0  0
    8.1253  -25.9779    0.0000 C   0  0  0  0  0  0  0  0  0  0  0  0
    6.6819  -26.3860    0.0000 C   0  0  0  0  0  0  0  0  0  0  0  0
    5.2182  -26.7141    0.0000 C   0  0  0  0  0  0  0  0  0  0  0  0
    3.7386  -26.9610    0.0000 C   0  0  0  0  0  0  0  0  0  0  0  0
    2.2477  -27.1260    0.0000 C   0  0  0  0  0  0  0  0  0  0  0  0
    0.7500  -27.2086    0.0000 C   0  0  0  0  0  0  0  0  0  0  0  0
   -0.7500  -27.2086    0.0000 C   0  0  0  0  0  0  0  0  0  0  0  0
   -2.2477  -27.1260    0.0000 C   0  0  0  0  0  0  0  0  0  0  0  0
   -3.7386  -26.9610    0.0000 C   0  0  0  0  0  0  0  0  0  0  0  0
   -5.2182  -26.7141    0.0000 C   0  0  0  0  0  0  0  0  0  0  0  0
   -6.6819  -26.3860    0.0000 C   0  0  0  0  0  0  0  0  0  0  0  0
   -8.1253  -25.9779    0.0000 C   0  0  0  0  0  0  0  0  0  0  0  0
   -9.5440  -25.4908    0.0000 C   0  0  0  0  0  0  0  0  0  0  0  0
  -10.9337  -24.9264    0.0000 C   0  0  0  0  0  0  0  0  0  0  0  0
  -12.2903  -24.2862    0.0000 C   0  0  0  0  0  0  0  0  0  0  0  0
  -13.6095  -23.5723    0.0000 C   0  0  0  0  0  0  0  0  0  0  0  0
  -14.8873  -22.7868    0.0000 C   0  0  0  0  0  0  0  0  0  0  0  0
  -16.1200  -21.9321    0.0000 C   0  0  0  0  0  0  0  0  0  0  0  0
  -17.3037  -21.0108    0.0000 C   0  0  0  0  0  0  0  0  0  0  0  0
  -18.4349  -20.0256    0.0000 C   0  0  0  0  0  0  0  0  0  0  0  0
  -19.5101  -18.9797    0.0000 C   0  0  0  0  0  0  0  0  0  0  0  0
  -20.5260  -17.8761    0.0000 C   0  0  0  0  0  0  0  0  0  0  0  0
  -21.4796  -16.7182    0.0000 C   0  0  0  0  0  0  0  0  0  0  0  0
  -22.3679  -15.5096    0.0000 C   0  0  0  0  0  0  0  0  0  0  0  0
  -23.1883  -14.2538    0.0000 C   0  0  0  0  0  0  0  0  0  0  0  0
  -23.9383  -12.9548    0.0000 C   0  0  0  0  0  0  0  0  0  0  0  0
  -24.6156  -11.6164    0.0000 C   0  0  0  0  0  0  0  0  0  0  0  0
  -25.2182  -10.2427    0.0000 C   0  0  0  0  0  0  0  0  0  0  0  0
  -25.7441   -8.8380    0.0000 C   0  0  0  0  0  0  0  0  0  0  0  0
  -26.1919   -7.4064    0.0000 C   0  0  0  0  0  0  0  0  0  0  0  0
  -26.5601   -5.9523    0.0000 C   0  0  0  0  0  0  0  0  0  0  0  0
  -26.8477   -4.4801    0.0000 C   0  0  0  0  0  0  0  0  0  0  0  0
  -27.0537   -2.9943    0.0000 C   0  0  0  0  0  0  0  0  0  0  0  0
  -27.1776   -1.4994    0.0000 C   0  0  0  0  0  0  0  0  0  0  0  0
  -27.2189    0.0000    0.0000 C   0  0  0  0  0  0  0  0  0  0  0  0
  -27.1776    1.4994    0.0000 C   0  0  0  0  0  0  0  0  0  0  0  0
  -27.0537    2.9943    0.0000 C   0  0  0  0  0  0  0  0  0  0  0  0
  -26.8477    4.4801    0.0000 C   0  0  0  0  0  0  0  0  0  0  0  0
  -26.5601    5.9523    0.0000 C   0  0  0  0  0  0  0  0  0  0  0  0
  -26.1919    7.4064    0.0000 C   0  0  0  0  0  0  0  0  0  0  0  0
  -25.7441    8.8380    0.0000 C   0  0  0  0  0  0  0  0  0  0  0  0
  -25.2182   10.2427    0.0000 C   0  0  0  0  0  0  0  0  0  0  0  0
  -24.6156   11.6164    0.0000 C   0  0  0  0  0  0  0  0  0  0  0  0
  -23.9383   12.9548    0.0000 C   0  0  0  0  0  0  0  0  0  0  0  0
  -23.1883   14.2538    0.0000 C   0  0  0  0  0  0  0  0  0  0  0  0
  -22.3679   15.5096    0.0000 C   0  0  0  0  0  0  0  0  0  0  0  0
  -21.4796   16.7182    0.0000 C   0  0  0  0  0  0  0  0  0  0  0  0
  -20.5260   17.8761    0.0000 C   0  0  0  0  0  0  0  0  0  0  0  0
  -19.5101   18.9797    0.0000 C   0  0  0  0  0  0  0  0  0  0  0  0
  -18.4349   20.0256    0.0000 C   0  0  0  0  0  0  0  0  0  0  0  0
  -17.3037   21.0108    0.0000 C   0  0  0  0  0  0  0  0  0  0  0  0
  -16.1200   21.9321    0.0000 C   0  0  0  0  0  0  0  0  0  0  0  0
  -14.8873   22.7868    0.0000 C   0  0  0  0  0  0  0  0  0  0  0  0
  -13.6095   23.5723    0.0000 C   0  0  0  0  0  0  0  0  0  0  0  0
  -12.2903   24.2862    0.0000 C   0  0  0  0  0  0  0  0  0  0  0  0
  -10.9337   24.9264    0.0000 C   0  0  0  0  0  0  0  0  0  0  0  0
   -9.5440   25.4908    0.0000 C   0  0  0  0  0  0  0  0  0  0  0  0
   -8.1253   25.9779    0.0000 C   0  0  0  0  0  0  0  0  0  0  0  0
   -6.6819   26.3860    0.0000 C   0  0  0  0  0  0  0  0  0  0  0  0
   -5.2182   26.7141    0.0000 C   0  0  0  0  0  0  0  0  0  0  0  0
   -3.7386   26.9610    0.0000 C   0  0  0  0  0  0  0  0  0  0  0  0
   -2.2477   27.1260    0.0000 C   0  0  0  0  0  0  0  0  0  0  0  0
   -0.7500   27.2086    0.0000 C   0  0  0  0  0  0  0  0  0  0  0  0
    0.7500   27.2086    0.0000 C   0  0  0  0  0  0  0  0  0  0  0  0
    2.2477   27.1260    0.0000 C   0  0  0  0  0  0  0  0  0  0  0  0
    3.7386   26.9610    0.0000 C   0  0  0  0  0  0  0  0  0  0  0  0
    5.2182   26.7141    0.0000 C   0  0  0  0  0  0  0  0  0  0  0  0
    6.6819   26.3860    0.0000 C   0  0  0  0  0  0  0  0  0  0  0  0
    8.1253   25.9779    0.0000 C   0  0  0  0  0  0  0  0  0  0  0  0
    9.5440   25.4908    0.0000 C   0  0  0  0  0  0  0  0  0  0  0  0
   10.9337   24.9264    0.0000 C   0  0  0  0  0  0  0  0  0  0  0  0
   12.2903   24.2862    0.0000 C   0  0  0  0  0  0  0  0  0  0  0  0
   13.6095   23.5723    0.0000 C   0  0  0  0  0  0  0  0  0  0  0  0
   14.8873   22.7868    0.0000 C   0  0  0  0  0  0  0  0  0  0  0  0
   16.1200   21.9321    0.0000 C   0  0  0  0  0  0  0  0  0  0  0  0
   17.3037   21.0108    0.0000 C   0  0  0  0  0  0  0  0  0  0  0  0
   18.4349   20.0256    0.0000 C   0  0  0  0  0  0  0  0  0  0  0  0
   19.5101   18.9797    0.0000 C   0  0  0  0  0  0  0  0  0  0  0  0
   20.5260   17.8761    0.0000 C   0  0  0  0  0  0  0  0  0  0  0  0
   21.4796   16.7182    0.0000 C   0  0  0  0  0  0  0  0  0  0  0  0
   22.3679   15.5096    0.0000 C   0  0  0  0  0  0  0  0  0  0  0  0
   23.1883   14.2538    0.0000 C   0  0  0  0  0  0  0  0  0  0  0  0
   23.9383   12.9548    0.0000 C   0  0  0  0  0  0  0  0  0  0  0  0
   24.6156   11.6164    0.0000 C   0  0  0  0  0  0  0  0  0  0  0  0
   25.2182   10.2427    0.0000 C   0  0  0  0  0  0  0  0  0  0  0  0
   25.7441    8.8380    0.0000 C   0  0  0  0  0  0  0  0  0  0  0  0
   26.1919    7.4064    0.0000 C   0  0  0  0  0  0  0  0  0  0  0  0
   26.5601    5.9523    0.0000 C   0  0  0  0  0  0  0  0  0  0  0  0
   26.8477    4.4801    0.0000 C   0  0  0  0  0  0  0  0  0  0  0  0
   27.0537    2.9943    0.0000 C   0  0  0  0  0  0  0  0  0  0  0  0
   27.1776    1.4994    0.0000 C   0  0  0  0  0  0  0  0  0  0  0  0
  1  2  1  0
  2  3  1  0
  3  4  1  0
  4  5  1  0
  5  6  1  0
  6  7  1  0
  7  8  1  0
  8  9  1  0
  9 10  1  0
 10 11  1  0
 11 12  1  0
 12 13  1  0
 13 14  1  0
 14 15  1  0
 15 16  1  0
 16 17  1  0
 17 18  1  0
 18 19  1  0
 19 20  1  0
 20 21  1  0
 21 22  1  0
 22 23  1  0
 23 24  1  0
 24 25  1  0
 25 26  1  0
 26 27  1  0
 27 28  1  0
 28 29  1  0
 29 30  1  0
 30 31  1  0
 31 32  1  0
 32 33  1  0
 33 34  1  0
 34 35  1  0
 35 36  1  0
 36 37  1  0
 37 38  1  0
 38 39  1  0
 39 40  1  0
 40 41  1  0
 41 42  1  0
 42 43  1  0
 43 44  1  0
 44 45  1  0
 45 46  1  0
 46 47  1  0
 47 48  1  0
 48 49  1  0
 49 50  1  0
 50 51  1  0
 51 52  1  0
 52 53  1  0
 53 54  1  0
 54 55  1  0
 55 56  1  0
 56 57  1  0
 57 58  1  0
 58 59  1  0
 59 60  1  0
 60 61  1  0
 61 62  1  0
 62 63  1  0
 63 64  1  0
 64 65  1  0
 65 66  1  0
 66 67  1  0
 67 68  1  0
 68 69  1  0
 69 70  1  0
 70 71  1  0
 71 72  1  0
 72 73  1  0
 73 74  1  0
 74 75  1  0
 75 76  1  0
 76 77  1  0
 77 78  1  0
 78 79  1  0
 79 80  1  0
 80 81  1  0
 81 82  1  0
 82 83  1  0
 83 84  1  0
 84 85  1  0
 85 86  1  0
 86 87  1  0
 87 88  1  0
 88 89  1  0
 89 90  1  0
 90 91  1  0
 91 92  1  0
 92 93  1  0
 93 94  1  0
 94 95  1  0
 95 96  1  0
 96 97  1  0
 97 98  1  0
 98 99  1  0
 99100  1  0
100101  1  0
101102  1  0
102103  1  0
103104  1  0
104105  1  0
105106  1  0
106107  1  0
107108  1  0
108109  1  0
109110  1  0
110111  1  0
111112  1  0
112113  1  0
113114  1  0
114115  1  0
115  2  1  0
M  END
>  <Title>  (132) 
idAADDgen10

$$$$

     RDKit          2D

 37 42  0  0  0  0  0  0  0  0999 V2000
    1.2135   -7.3421    0.0000 C   0  0  0  0  0  0  0  0  0  0  0  0
    0.7500   -5.9156    0.0000 C   0  0  0  0  0  0  0  0  0  0  0  0
    1.9635   -5.0339    0.0000 C   0  0  0  0  0  0  0  0  0  0  0  0
    2.4271   -3.6073    0.0000 C   0  0  0  0  0  0  0  0  0  0  0  0
    1.9635   -2.1807    0.0000 C   0  0  0  0  0  0  0  0  0  0  0  0
    3.1771   -1.2990    0.0000 C   0  0  0  0  0  0  0  0  0  0  0  0
    3.0203    0.1927    0.0000 O   0  0  0  0  0  0  0  0  0  0  0  0
    4.5474   -1.9091    0.0000 N   0  0  0  0  0  0  0  0  0  0  0  0
    5.7609   -1.0275    0.0000 C   0  0  0  0  0  0  0  0  0  0  0  0
    5.7609    0.4725    0.0000 N   0  0  0  0  0  0  0  0  0  0  0  0
    7.1875    0.9361    0.0000 N   0  0  0  0  0  0  0  0  0  0  0  0
    8.0692   -0.2775    0.0000 N   0  0  0  0  0  0  0  0  0  0  0  0
    7.1875   -1.4910    0.0000 N   0  0  0  0  0  0  0  0  0  0  0  0
    7.6510   -2.9176    0.0000 C   0  0  0  0  0  0  0  0  0  0  0  0
    6.6473   -4.0323    0.0000 N   0  0  0  0  0  0  0  0  0  0  0  0
    7.1108   -5.4589    0.0000 N   0  0  0  0  0  0  0  0  0  0  0  0
    8.5781   -5.7707    0.0000 N   0  0  0  0  0  0  0  0  0  0  0  0
    9.5818   -4.6560    0.0000 N   0  0  0  0  0  0  0  0  0  0  0  0
    9.1182   -3.2294    0.0000 N   0  0  0  0  0  0  0  0  0  0  0  0
    0.7500   -1.2990    0.0000 C   0  0  0  0  0  0  0  0  0  0  0  0
    1.5000    0.0000    0.0000 C   0  0  0  0  0  0  0  0  0  0  0  0
    0.7500    1.2990    0.0000 C   0  0  0  0  0  0  0  0  0  0  0  0
   -0.7500    1.2990    0.0000 C   0  0  0  0  0  0  0  0  0  0  0  0
   -1.5000    0.0000    0.0000 C   0  0  0  0  0  0  0  0  0  0  0  0
   -0.7500   -1.2990    0.0000 C   0  0  0  0  0  0  0  0  0  0  0  0
   -1.9635   -2.1807    0.0000 C   0  0  0  0  0  0  0  0  0  0  0  0
   -2.9672   -1.0660    0.0000 C   0  0  0  0  0  0  0  0  0  0  0  0
   -4.4344   -1.3779    0.0000 C   0  0  0  0  0  0  0  0  0  0  0  0
   -4.8980   -2.8045    0.0000 C   0  0  0  0  0  0  0  0  0  0  0  0
   -3.8943   -3.9192    0.0000 C   0  0  0  0  0  0  0  0  0  0  0  0
   -2.4271   -3.6073    0.0000 C   0  0  0  0  0  0  0  0  0  0  0  0
   -1.9635   -5.0339    0.0000 C   0  0  0  0  0  0  0  0  0  0  0  0
   -3.3338   -5.6440    0.0000 C   0  0  0  0  0  0  0  0  0  0  0  0
   -3.4906   -7.1358    0.0000 C   0  0  0  0  0  0  0  0  0  0  0  0
   -2.2771   -8.0175    0.0000 C   0  0  0  0  0  0  0  0  0  0  0  0
   -0.9068   -7.4073    0.0000 C   0  0  0  0  0  0  0  0  0  0  0  0
   -0.7500   -5.9156    0.0000 C   0  0  0  0  0  0  0  0  0  0  0  0
  1  2  1  0
  2  3  1  0
  3  4  2  0
  4  5  1  0
  5  6  1  0
  6  7  2  0
  6  8  1  0
  8  9  1  0
  9 10  2  0
 10 11  1  0
 11 12  2  0
 12 13  1  0
 13 14  1  0
 14 15  2  0
 15 16  1  0
 16 17  2  0
 17 18  1  0
 18 19  2  0
  5 20  1  0
 20 21  2  0
 21 22  1  0
 22 23  2  0
 23 24  1  0
 24 25  2  0
 25 26  1  0
 26 27  2  0
 27 28  1  0
 28 29  2  0
 29 30  1  0
 30 31  2  0
 31 32  1  0
 32 33  2  0
 33 34  1  0
 34 35  2  0
 35 36  1  0
 36 37  2  0
 37  2  1  0
 13  9  1  0
 19 14  1  0
 25 20  1  0
 31 26  1  0
 37 32  1  0
M  END
>  <Title>  (133) 
idAADEgen10

$$$$

     RDKit          2D

 12 12  0  0  0  0  0  0  0  0999 V2000
   10.5000    0.0000    0.0000 C   0  0  0  0  0  0  0  0  0  0  0  0
    9.0000    0.0000    0.0000 C   0  0  0  0  0  0  0  0  0  0  0  0
    7.5000    0.0000    0.0000 C   0  0  0  0  0  0  0  0  0  0  0  0
    6.0000    0.0000    0.0000 C   0  0  0  0  0  0  0  0  0  0  0  0
    4.5000    0.0000    0.0000 C   0  0  0  0  0  0  0  0  0  0  0  0
    3.0000    0.0000    0.0000 C   0  0  0  0  0  0  0  0  0  0  0  0
    1.5000    0.0000    0.0000 C   0  0  0  0  0  0  0  0  0  0  0  0
    0.7500   -1.2990    0.0000 C   0  0  0  0  0  0  0  0  0  0  0  0
   -0.7500   -1.2990    0.0000 C   0  0  0  0  0  0  0  0  0  0  0  0
   -1.5000    0.0000    0.0000 C   0  0  0  0  0  0  0  0  0  0  0  0
   -0.7500    1.2990    0.0000 C   0  0  0  0  0  0  0  0  0  0  0  0
    0.7500    1.2990    0.0000 N   0  0  0  0  0  0  0  0  0  0  0  0
  1  2  3  0
  2  3  1  0
  3  4  3  0
  4  5  1  0
  5  6  3  0
  6  7  1  0
  7  8  2  0
  8  9  1  0
  9 10  2  0
 10 11  1  0
 11 12  2  0
 12  7  1  0
M  END
>  <Title>  (134) 
idAADFgen10

$$$$

     RDKit          2D

 17 18  0  0  0  0  0  0  0  0999 V2000
   10.5000    0.0000    0.0000 C   0  0  0  0  0  0  0  0  0  0  0  0
    9.0000    0.0000    0.0000 C   0  0  0  0  0  0  0  0  0  0  0  0
    7.5000    0.0000    0.0000 C   0  0  0  0  0  0  0  0  0  0  0  0
    6.0000    0.0000    0.0000 C   0  0  0  0  0  0  0  0  0  0  0  0
    4.5000    0.0000    0.0000 C   0  0  0  0  0  0  0  0  0  0  0  0
    3.0000    0.0000    0.0000 C   0  0  0  0  0  0  0  0  0  0  0  0
    1.5000    0.0000    0.0000 C   0  0  0  0  0  0  0  0  0  0  0  0
    0.7500   -1.2990    0.0000 C   0  0  0  0  0  0  0  0  0  0  0  0
   -0.7500   -1.2990    0.0000 C   0  0  0  0  0  0  0  0  0  0  0  0
   -1.5000    0.0000    0.0000 C   0  0  0  0  0  0  0  0  0  0  0  0
   -0.7500    1.2990    0.0000 C   0  0  0  0  0  0  0  0  0  0  0  0
    0.7500    1.2990    0.0000 C   0  0  0  0  0  0  0  0  0  0  0  0
    1.5000    2.5981    0.0000 C   0  0  0  0  0  0  0  0  0  0  0  0
    0.8899    3.9684    0.0000 C   0  0  0  0  0  0  0  0  0  0  0  0
    2.0046    4.9721    0.0000 C   0  0  0  0  0  0  0  0  0  0  0  0
    3.3037    4.2221    0.0000 C   0  0  0  0  0  0  0  0  0  0  0  0
    2.9918    2.7549    0.0000 C   0  0  0  0  0  0  0  0  0  0  0  0
  1  2  3  0
  2  3  1  0
  3  4  3  0
  4  5  1  0
  5  6  3  0
  6  7  1  0
  7  8  2  0
  8  9  1  0
  9 10  2  0
 10 11  1  0
 11 12  2  0
 12 13  1  0
 13 14  2  0
 14 15  1  0
 15 16  2  0
 16 17  1  0
 12  7  1  0
 17 13  1  0
M  END
>  <Title>  (135) 
idAADGgen10

$$$$

     RDKit          2D

  6  5  0  0  0  0  0  0  0  0999 V2000
    0.0000    0.0000    0.0000 C   0  0  0  0  0  0  0  0  0  0  0  0
   -0.0000   -1.5000    0.0000 C   0  0  0  0  0  0  0  0  0  0  0  0
   -0.0000   -3.0000    0.0000 C   0  0  0  0  0  0  0  0  0  0  0  0
   -0.0000   -4.5000    0.0000 C   0  0  0  0  0  0  0  0  0  0  0  0
   -0.0000   -6.0000    0.0000 C   0  0  0  0  0  0  0  0  0  0  0  0
   -0.0000   -7.5000    0.0000 N   0  0  0  0  0  0  0  0  0  0  0  0
  1  2  3  0
  2  3  1  0
  3  4  3  0
  4  5  1  0
  5  6  3  0
M  END
>  <Title>  (136) 
idAADHgen10

$$$$

     RDKit          2D

108109  0  0  0  0  0  0  0  0999 V2000
    1.5985    3.7279    0.0000 C   0  0  0  0  0  0  0  0  0  0  0  0
    2.3156    4.0760    0.0000 C   0  0  0  0  0  0  0  0  0  0  0  0
    1.7070    5.4470    0.0000 C   0  0  0  0  0  0  0  0  0  0  0  0
    1.1933    6.8563    0.0000 C   0  0  0  0  0  0  0  0  0  0  0  0
    0.7770    8.2974    0.0000 C   0  0  0  0  0  0  0  0  0  0  0  0
    0.4600    9.7635    0.0000 C   0  0  0  0  0  0  0  0  0  0  0  0
    0.2439   11.2479    0.0000 C   0  0  0  0  0  0  0  0  0  0  0  0
    0.1295   12.7435    0.0000 C   0  0  0  0  0  0  0  0  0  0  0  0
    0.1174   14.2434    0.0000 C   0  0  0  0  0  0  0  0  0  0  0  0
    0.2078   15.7407    0.0000 C   0  0  0  0  0  0  0  0  0  0  0  0
    0.4001   17.2283    0.0000 C   0  0  0  0  0  0  0  0  0  0  0  0
    0.6934   18.6994    0.0000 C   0  0  0  0  0  0  0  0  0  0  0  0
    1.0865   20.1469    0.0000 C   0  0  0  0  0  0  0  0  0  0  0  0
    1.5775   21.5643    0.0000 C   0  0  0  0  0  0  0  0  0  0  0  0
    2.1640   22.9449    0.0000 C   0  0  0  0  0  0  0  0  0  0  0  0
    2.8434   24.2822    0.0000 C   0  0  0  0  0  0  0  0  0  0  0  0
    3.6124   25.5701    0.0000 C   0  0  0  0  0  0  0  0  0  0  0  0
    4.4676   26.8024    0.0000 C   0  0  0  0  0  0  0  0  0  0  0  0
    5.4048   27.9736    0.0000 C   0  0  0  0  0  0  0  0  0  0  0  0
    6.4198   29.0780    0.0000 C   0  0  0  0  0  0  0  0  0  0  0  0
    7.5078   30.1106    0.0000 C   0  0  0  0  0  0  0  0  0  0  0  0
    8.6637   31.0666    0.0000 C   0  0  0  0  0  0  0  0  0  0  0  0
    9.8822   31.9414    0.0000 C   0  0  0  0  0  0  0  0  0  0  0  0
   11.1575   32.7311    0.0000 C   0  0  0  0  0  0  0  0  0  0  0  0
   12.4837   33.4318    0.0000 C   0  0  0  0  0  0  0  0  0  0  0  0
   13.8547   34.0405    0.0000 C   0  0  0  0  0  0  0  0  0  0  0  0
   15.2640   34.5541    0.0000 C   0  0  0  0  0  0  0  0  0  0  0  0
   16.7051   34.9704    0.0000 C   0  0  0  0  0  0  0  0  0  0  0  0
   18.1712   35.2874    0.0000 C   0  0  0  0  0  0  0  0  0  0  0  0
   19.6556   35.5036    0.0000 C   0  0  0  0  0  0  0  0  0  0  0  0
   21.1512   35.6180    0.0000 C   0  0  0  0  0  0  0  0  0  0  0  0
   22.6512   35.6300    0.0000 C   0  0  0  0  0  0  0  0  0  0  0  0
   24.1484   35.5397    0.0000 C   0  0  0  0  0  0  0  0  0  0  0  0
   25.6361   35.3474    0.0000 C   0  0  0  0  0  0  0  0  0  0  0  0
   27.1071   35.0540    0.0000 C   0  0  0  0  0  0  0  0  0  0  0  0
   28.5547   34.6609    0.0000 C   0  0  0  0  0  0  0  0  0  0  0  0
   29.9720   34.1700    0.0000 C   0  0  0  0  0  0  0  0  0  0  0  0
   31.3526   33.5835    0.0000 C   0  0  0  0  0  0  0  0  0  0  0  0
   32.6900   32.9041    0.0000 C   0  0  0  0  0  0  0  0  0  0  0  0
   33.9778   32.1350    0.0000 C   0  0  0  0  0  0  0  0  0  0  0  0
   35.2102   31.2799    0.0000 C   0  0  0  0  0  0  0  0  0  0  0  0
   36.3813   30.3426    0.0000 C   0  0  0  0  0  0  0  0  0  0  0  0
   37.4857   29.3276    0.0000 C   0  0  0  0  0  0  0  0  0  0  0  0
   38.5184   28.2396    0.0000 C   0  0  0  0  0  0  0  0  0  0  0  0
   39.4743   27.0837    0.0000 C   0  0  0  0  0  0  0  0  0  0  0  0
   40.3491   25.8653    0.0000 C   0  0  0  0  0  0  0  0  0  0  0  0
   41.1388   24.5899    0.0000 C   0  0  0  0  0  0  0  0  0  0  0  0
   41.8396   23.2637    0.0000 C   0  0  0  0  0  0  0  0  0  0  0  0
   42.4482   21.8927    0.0000 C   0  0  0  0  0  0  0  0  0  0  0  0
   42.9619   20.4834    0.0000 C   0  0  0  0  0  0  0  0  0  0  0  0
   43.3781   19.0423    0.0000 C   0  0  0  0  0  0  0  0  0  0  0  0
   43.6951   17.5762    0.0000 C   0  0  0  0  0  0  0  0  0  0  0  0
   43.9113   16.0919    0.0000 C   0  0  0  0  0  0  0  0  0  0  0  0
   44.0257   14.5962    0.0000 C   0  0  0  0  0  0  0  0  0  0  0  0
   44.0377   13.0963    0.0000 C   0  0  0  0  0  0  0  0  0  0  0  0
   43.9474   11.5990    0.0000 C   0  0  0  0  0  0  0  0  0  0  0  0
   43.7551   10.1114    0.0000 C   0  0  0  0  0  0  0  0  0  0  0  0
   43.4617    8.6404    0.0000 C   0  0  0  0  0  0  0  0  0  0  0  0
   43.0687    7.1928    0.0000 C   0  0  0  0  0  0  0  0  0  0  0  0
   42.5777    5.7754    0.0000 C   0  0  0  0  0  0  0  0  0  0  0  0
   41.9912    4.3948    0.0000 C   0  0  0  0  0  0  0  0  0  0  0  0
   41.3118    3.0575    0.0000 C   0  0  0  0  0  0  0  0  0  0  0  0
   40.5427    1.7696    0.0000 C   0  0  0  0  0  0  0  0  0  0  0  0
   39.6876    0.5373    0.0000 C   0  0  0  0  0  0  0  0  0  0  0  0
   38.7503   -0.6339    0.0000 C   0  0  0  0  0  0  0  0  0  0  0  0
   37.7354   -1.7383    0.0000 C   0  0  0  0  0  0  0  0  0  0  0  0
   36.6474   -2.7709    0.0000 C   0  0  0  0  0  0  0  0  0  0  0  0
   35.4914   -3.7269    0.0000 C   0  0  0  0  0  0  0  0  0  0  0  0
   34.2730   -4.6017    0.0000 C   0  0  0  0  0  0  0  0  0  0  0  0
   32.9977   -5.3914    0.0000 C   0  0  0  0  0  0  0  0  0  0  0  0
   31.6714   -6.0921    0.0000 C   0  0  0  0  0  0  0  0  0  0  0  0
   30.3004   -6.7008    0.0000 C   0  0  0  0  0  0  0  0  0  0  0  0
   28.8911   -7.2144    0.0000 C   0  0  0  0  0  0  0  0  0  0  0  0
   27.4501   -7.6307    0.0000 C   0  0  0  0  0  0  0  0  0  0  0  0
   25.9839   -7.9477    0.0000 C   0  0  0  0  0  0  0  0  0  0  0  0
   24.4996   -8.1639    0.0000 C   0  0  0  0  0  0  0  0  0  0  0  0
   23.0040   -8.2783    0.0000 C   0  0  0  0  0  0  0  0  0  0  0  0
   21.5040   -8.2903    0.0000 C   0  0  0  0  0  0  0  0  0  0  0  0
   20.0067   -8.2000    0.0000 C   0  0  0  0  0  0  0  0  0  0  0  0
   18.5191   -8.0077    0.0000 C   0  0  0  0  0  0  0  0  0  0  0  0
   17.0481   -7.7143    0.0000 C   0  0  0  0  0  0  0  0  0  0  0  0
   15.6005   -7.3212    0.0000 C   0  0  0  0  0  0  0  0  0  0  0  0
   14.1831   -6.8303    0.0000 C   0  0  0  0  0  0  0  0  0  0  0  0
   12.8025   -6.2437    0.0000 C   0  0  0  0  0  0  0  0  0  0  0  0
   11.4652   -5.5644    0.0000 C   0  0  0  0  0  0  0  0  0  0  0  0
   10.1774   -4.7953    0.0000 C   0  0  0  0  0  0  0  0  0  0  0  0
    8.9450   -3.9402    0.0000 C   0  0  0  0  0  0  0  0  0  0  0  0
    7.7739   -3.0029    0.0000 C   0  0  0  0  0  0  0  0  0  0  0  0
    6.6694   -1.9879    0.0000 C   0  0  0  0  0  0  0  0  0  0  0  0
    5.6368   -0.8999    0.0000 C   0  0  0  0  0  0  0  0  0  0  0  0
    4.6809    0.2560    0.0000 C   0  0  0  0  0  0  0  0  0  0  0  0
    3.8060    1.4745    0.0000 C   0  0  0  0  0  0  0  0  0  0  0  0
    3.3816   -0.0000    0.0000 C   0  0  0  0  0  0  0  0  0  0  0  0
    3.1533   -1.2216    0.0000 C   0  0  0  0  0  0  0  0  0  0  0  0
    2.4991   -2.2782    0.0000 C   0  0  0  0  0  0  0  0  0  0  0  0
    1.5073   -3.0271    0.0000 C   0  0  0  0  0  0  0  0  0  0  0  0
    0.3120   -3.3672    0.0000 C   0  0  0  0  0  0  0  0  0  0  0  0
   -0.9254   -3.2526    0.0000 C   0  0  0  0  0  0  0  0  0  0  0  0
   -2.0379   -2.6986    0.0000 C   0  0  0  0  0  0  0  0  0  0  0  0
   -2.8751   -1.7802    0.0000 C   0  0  0  0  0  0  0  0  0  0  0  0
   -3.3241   -0.6214    0.0000 C   0  0  0  0  0  0  0  0  0  0  0  0
   -3.3241    0.6214    0.0000 C   0  0  0  0  0  0  0  0  0  0  0  0
   -2.8751    1.7802    0.0000 C   0  0  0  0  0  0  0  0  0  0  0  0
   -2.0379    2.6986    0.0000 C   0  0  0  0  0  0  0  0  0  0  0  0
   -0.9254    3.2526    0.0000 C   0  0  0  0  0  0  0  0  0  0  0  0
    0.3120    3.3672    0.0000 C   0  0  0  0  0  0  0  0  0  0  0  0
    1.5073    3.0271    0.0000 C   0  0  0  0  0  0  0  0  0  0  0  0
    3.0164    2.7498    0.0000 C   0  0  0  0  0  0  0  0  0  0  0  0
  1  2  1  0
  2  3  1  0
  3  4  1  0
  4  5  1  0
  5  6  1  0
  6  7  1  0
  7  8  1  0
  8  9  1  0
  9 10  1  0
 10 11  1  0
 11 12  1  0
 12 13  1  0
 13 14  1  0
 14 15  1  0
 15 16  1  0
 16 17  1  0
 17 18  1  0
 18 19  1  0
 19 20  1  0
 20 21  1  0
 21 22  1  0
 22 23  1  0
 23 24  1  0
 24 25  1  0
 25 26  1  0
 26 27  1  0
 27 28  1  0
 28 29  1  0
 29 30  1  0
 30 31  1  0
 31 32  1  0
 32 33  1  0
 33 34  1  0
 34 35  1  0
 35 36  1  0
 36 37  1  0
 37 38  1  0
 38 39  1  0
 39 40  1  0
 40 41  1  0
 41 42  1  0
 42 43  1  0
 43 44  1  0
 44 45  1  0
 45 46  1  0
 46 47  1  0
 47 48  1  0
 48 49  1  0
 49 50  1  0
 50 51  1  0
 51 52  1  0
 52 53  1  0
 53 54  1  0
 54 55  1  0
 55 56  1  0
 56 57  1  0
 57 58  1  0
 58 59  1  0
 59 60  1  0
 60 61  1  0
 61 62  1  0
 62 63  1  0
 63 64  1  0
 64 65  1  0
 65 66  1  0
 66 67  1  0
 67 68  1  0
 68 69  1  0
 69 70  1  0
 70 71  1  0
 71 72  1  0
 72 73  1  0
 73 74  1  0
 74 75  1  0
 75 76  1  0
 76 77  1  0
 77 78  1  0
 78 79  1  0
 79 80  1  0
 80 81  1  0
 81 82  1  0
 82 83  1  0
 83 84  1  0
 84 85  1  0
 85 86  1  0
 86 87  1  0
 87 88  1  0
 88 89  1  0
 89 90  1  0
 90 91  1  0
 91 92  1  0
 92 93  1  0
 93 94  2  0
 94 95  1  0
 95 96  2  0
 96 97  1  0
 97 98  2  0
 98 99  1  0
 99100  2  0
100101  1  0
101102  2  0
102103  1  0
103104  2  0
104105  1  0
105106  2  0
106107  1  0
107108  2  0
108  2  1  0
108 92  1  0
M  END
>  <Title>  (137) 
idAADIgen10

$$$$

     RDKit          2D

  5  4  0  0  0  0  0  0  0  0999 V2000
    0.0000    0.0000    0.0000 C   0  0  0  0  0  0  0  0  0  0  0  0
   -0.0000   -1.5000    0.0000 C   0  0  0  0  0  0  0  0  0  0  0  0
   -0.0000   -3.0000    0.0000 C   0  0  0  0  0  0  0  0  0  0  0  0
    1.2990   -3.7500    0.0000 C   0  0  0  0  0  0  0  0  0  0  0  0
    1.2990   -5.2500    0.0000 C   0  0  0  0  0  0  0  0  0  0  0  0
  1  2  3  0
  2  3  1  0
  3  4  2  3
  4  5  1  0
M  END
>  <Title>  (138) 
idAADJgen10

$$$$

     RDKit          2D

 12 12  0  0  0  0  0  0  0  0999 V2000
    5.7760   -2.5981    0.0000 C   0  0  0  0  0  0  0  0  0  0  0  0
    5.0260   -1.2990    0.0000 C   0  0  0  0  0  0  0  0  0  0  0  0
    3.5260   -1.2990    0.0000 C   0  0  0  0  0  0  0  0  0  0  0  0
    2.7760    0.0000    0.0000 C   0  0  0  0  0  0  0  0  0  0  0  0
    3.5260    1.2990    0.0000 O   0  0  0  0  0  0  0  0  0  0  0  0
    1.2760    0.0000    0.0000 N   0  0  0  0  0  0  0  0  0  0  0  0
    0.3943    1.2135    0.0000 C   0  0  0  0  0  0  0  0  0  0  0  0
   -1.0323    0.7500    0.0000 C   0  0  0  0  0  0  0  0  0  0  0  0
   -1.0323   -0.7500    0.0000 C   0  0  0  0  0  0  0  0  0  0  0  0
   -2.2458   -1.6317    0.0000 C   0  0  0  0  0  0  0  0  0  0  0  0
   -3.4593   -2.5134    0.0000 N   0  0  0  0  0  0  0  0  0  0  0  0
    0.3943   -1.2135    0.0000 C   0  0  0  0  0  0  0  0  0  0  0  0
  1  2  2  0
  2  3  1  0
  3  4  1  0
  4  5  2  0
  4  6  1  0
  6  7  1  0
  7  8  1  0
  8  9  1  0
  9 10  1  0
 10 11  3  0
  9 12  1  0
 12  6  1  0
M  END
>  <Title>  (139) 
idAADKgen10

$$$$

     RDKit          2D

 15 16  0  0  0  0  0  0  0  0999 V2000
   -5.0023   -8.0543    0.0000 C   0  0  0  0  0  0  0  0  0  0  0  0
   -4.6904   -6.5871    0.0000 C   0  0  0  0  0  0  0  0  0  0  0  0
   -4.3786   -5.1199    0.0000 C   0  0  0  0  0  0  0  0  0  0  0  0
   -2.9520   -4.6564    0.0000 N   0  0  0  0  0  0  0  0  0  0  0  0
   -2.6401   -3.1891    0.0000 C   0  0  0  0  0  0  0  0  0  0  0  0
   -1.2135   -2.7256    0.0000 C   0  0  0  0  0  0  0  0  0  0  0  0
   -0.0000   -3.6073    0.0000 C   0  0  0  0  0  0  0  0  0  0  0  0
    1.2135   -2.7256    0.0000 C   0  0  0  0  0  0  0  0  0  0  0  0
    2.6401   -3.1891    0.0000 C   0  0  0  0  0  0  0  0  0  0  0  0
    0.7500   -1.2990    0.0000 C   0  0  0  0  0  0  0  0  0  0  0  0
    1.5000    0.0000    0.0000 C   0  0  0  0  0  0  0  0  0  0  0  0
    0.7500    1.2990    0.0000 C   0  0  0  0  0  0  0  0  0  0  0  0
   -0.7500    1.2990    0.0000 C   0  0  0  0  0  0  0  0  0  0  0  0
   -1.5000    0.0000    0.0000 C   0  0  0  0  0  0  0  0  0  0  0  0
   -0.7500   -1.2990    0.0000 C   0  0  0  0  0  0  0  0  0  0  0  0
  1  2  3  0
  2  3  1  0
  3  4  1  0
  4  5  1  0
  5  6  1  0
  6  7  2  0
  7  8  1  0
  8  9  1  0
  8 10  1  0
 10 11  2  0
 11 12  1  0
 12 13  2  0
 13 14  1  0
 14 15  2  0
 15  6  1  0
 15 10  1  0
M  END
>  <Title>  (140) 
idAADLgen10

$$$$

     RDKit          2D

 13 14  0  0  0  0  0  0  0  0999 V2000
   -2.5242   -4.8694    0.0000 C   0  0  0  0  0  0  0  0  0  0  0  0
   -1.3515   -3.9342    0.0000 C   0  0  0  0  0  0  0  0  0  0  0  0
   -0.0000   -4.5850    0.0000 C   0  0  0  0  0  0  0  0  0  0  0  0
    1.3515   -3.9342    0.0000 C   0  0  0  0  0  0  0  0  0  0  0  0
    1.6852   -2.4718    0.0000 C   0  0  0  0  0  0  0  0  0  0  0  0
    0.7500   -1.2990    0.0000 C   0  0  0  0  0  0  0  0  0  0  0  0
    1.5000    0.0000    0.0000 C   0  0  0  0  0  0  0  0  0  0  0  0
    0.7500    1.2990    0.0000 C   0  0  0  0  0  0  0  0  0  0  0  0
   -0.7500    1.2990    0.0000 C   0  0  0  0  0  0  0  0  0  0  0  0
   -1.5000    0.0000    0.0000 C   0  0  0  0  0  0  0  0  0  0  0  0
   -0.7500   -1.2990    0.0000 C   0  0  0  0  0  0  0  0  0  0  0  0
   -1.6852   -2.4718    0.0000 C   0  0  0  0  0  0  0  0  0  0  0  0
   -3.1476   -2.1380    0.0000 O   0  0  0  0  0  0  0  0  0  0  0  0
  1  2  1  0
  2  3  1  0
  3  4  1  0
  4  5  1  0
  5  6  1  0
  6  7  2  0
  7  8  1  0
  8  9  2  0
  9 10  1  0
 10 11  2  0
 11 12  1  0
 12 13  2  0
 12  2  1  0
 11  6  1  0
M  END
>  <Title>  (141) 
idAADMgen10

$$$$

     RDKit          2D

 74 78  0  0  0  0  0  0  0  0999 V2000
  -10.9765    6.7165    0.0000 C   0  0  0  0  0  0  0  0  0  0  0  0
   -9.6527    7.4219    0.0000 C   0  0  0  0  0  0  0  0  0  0  0  0
   -8.3289    8.1273    0.0000 C   0  0  0  0  0  0  0  0  0  0  0  0
   -8.9576    9.4892    0.0000 C   0  0  0  0  0  0  0  0  0  0  0  0
   -9.4270   10.9139    0.0000 C   0  0  0  0  0  0  0  0  0  0  0  0
   -9.7308   12.3828    0.0000 C   0  0  0  0  0  0  0  0  0  0  0  0
   -9.8653   13.8768    0.0000 C   0  0  0  0  0  0  0  0  0  0  0  0
   -9.8286   15.3763    0.0000 C   0  0  0  0  0  0  0  0  0  0  0  0
   -9.6212   16.8619    0.0000 C   0  0  0  0  0  0  0  0  0  0  0  0
   -9.2458   18.3142    0.0000 C   0  0  0  0  0  0  0  0  0  0  0  0
   -8.7073   19.7142    0.0000 C   0  0  0  0  0  0  0  0  0  0  0  0
   -8.0127   21.0437    0.0000 C   0  0  0  0  0  0  0  0  0  0  0  0
   -7.1711   22.2853    0.0000 C   0  0  0  0  0  0  0  0  0  0  0  0
   -6.1934   23.4229    0.0000 C   0  0  0  0  0  0  0  0  0  0  0  0
   -5.0924   24.4417    0.0000 C   0  0  0  0  0  0  0  0  0  0  0  0
   -3.8825   25.3283    0.0000 C   0  0  0  0  0  0  0  0  0  0  0  0
   -2.5794   26.0713    0.0000 C   0  0  0  0  0  0  0  0  0  0  0  0
   -1.2001   26.6608    0.0000 C   0  0  0  0  0  0  0  0  0  0  0  0
    0.2374   27.0893    0.0000 C   0  0  0  0  0  0  0  0  0  0  0  0
    1.7143   27.3511    0.0000 C   0  0  0  0  0  0  0  0  0  0  0  0
    3.2115   27.4428    0.0000 C   0  0  0  0  0  0  0  0  0  0  0  0
    4.7094   27.3633    0.0000 C   0  0  0  0  0  0  0  0  0  0  0  0
    6.1885   27.1135    0.0000 C   0  0  0  0  0  0  0  0  0  0  0  0
    7.6294   26.6968    0.0000 C   0  0  0  0  0  0  0  0  0  0  0  0
    9.0135   26.1186    0.0000 C   0  0  0  0  0  0  0  0  0  0  0  0
   10.3226   25.3863    0.0000 C   0  0  0  0  0  0  0  0  0  0  0  0
   11.5397   24.5096    0.0000 C   0  0  0  0  0  0  0  0  0  0  0  0
   12.6490   23.4998    0.0000 C   0  0  0  0  0  0  0  0  0  0  0  0
   13.6359   22.3702    0.0000 C   0  0  0  0  0  0  0  0  0  0  0  0
   14.4876   21.1355    0.0000 C   0  0  0  0  0  0  0  0  0  0  0  0
   15.1930   19.8117    0.0000 C   0  0  0  0  0  0  0  0  0  0  0  0
   15.7429   18.4161    0.0000 C   0  0  0  0  0  0  0  0  0  0  0  0
   16.1301   16.9670    0.0000 C   0  0  0  0  0  0  0  0  0  0  0  0
   16.3497   15.4831    0.0000 C   0  0  0  0  0  0  0  0  0  0  0  0
   16.3986   13.9839    0.0000 C   0  0  0  0  0  0  0  0  0  0  0  0
   16.2764   12.4889    0.0000 C   0  0  0  0  0  0  0  0  0  0  0  0
   15.9845   11.0176    0.0000 C   0  0  0  0  0  0  0  0  0  0  0  0
   15.5268    9.5891    0.0000 C   0  0  0  0  0  0  0  0  0  0  0  0
   14.9092    8.2221    0.0000 C   0  0  0  0  0  0  0  0  0  0  0  0
   14.1399    6.9345    0.0000 C   0  0  0  0  0  0  0  0  0  0  0  0
   13.2288    5.7429    0.0000 C   0  0  0  0  0  0  0  0  0  0  0  0
   12.1877    4.6629    0.0000 C   0  0  0  0  0  0  0  0  0  0  0  0
   11.0304    3.7087    0.0000 C   0  0  0  0  0  0  0  0  0  0  0  0
    9.7719    2.8926    0.0000 C   0  0  0  0  0  0  0  0  0  0  0  0
    8.4285    2.2253    0.0000 C   0  0  0  0  0  0  0  0  0  0  0  0
    7.0178    1.7154    0.0000 C   0  0  0  0  0  0  0  0  0  0  0  0
    5.5582    1.3697    0.0000 C   0  0  0  0  0  0  0  0  0  0  0  0
    4.0686    1.1927    0.0000 C   0  0  0  0  0  0  0  0  0  0  0  0
    2.5687    1.1865    0.0000 C   0  0  0  0  0  0  0  0  0  0  0  0
    1.0777    1.3515    0.0000 C   0  0  0  0  0  0  0  0  0  0  0  0
    1.7286    0.0000    0.0000 C   0  0  0  0  0  0  0  0  0  0  0  0
    1.0777   -1.3515    0.0000 C   0  0  0  0  0  0  0  0  0  0  0  0
   -0.3846   -1.6852    0.0000 C   0  0  0  0  0  0  0  0  0  0  0  0
   -1.5574   -0.7500    0.0000 C   0  0  0  0  0  0  0  0  0  0  0  0
   -1.5574    0.7500    0.0000 C   0  0  0  0  0  0  0  0  0  0  0  0
   -0.3846    1.6852    0.0000 C   0  0  0  0  0  0  0  0  0  0  0  0
   -1.7995    2.1835    0.0000 C   0  0  0  0  0  0  0  0  0  0  0  0
   -0.5567    3.0235    0.0000 C   0  0  0  0  0  0  0  0  0  0  0  0
   -0.6627    4.5197    0.0000 C   0  0  0  0  0  0  0  0  0  0  0  0
   -2.0114    5.1760    0.0000 C   0  0  0  0  0  0  0  0  0  0  0  0
   -3.2542    4.3361    0.0000 C   0  0  0  0  0  0  0  0  0  0  0  0
   -3.1482    2.8399    0.0000 C   0  0  0  0  0  0  0  0  0  0  0  0
   -4.4134    3.6457    0.0000 C   0  0  0  0  0  0  0  0  0  0  0  0
   -4.6491    2.1643    0.0000 C   0  0  0  0  0  0  0  0  0  0  0  0
   -6.0498    1.6277    0.0000 C   0  0  0  0  0  0  0  0  0  0  0  0
   -7.2149    2.5725    0.0000 C   0  0  0  0  0  0  0  0  0  0  0  0
   -6.9792    4.0539    0.0000 C   0  0  0  0  0  0  0  0  0  0  0  0
   -5.5785    4.5905    0.0000 C   0  0  0  0  0  0  0  0  0  0  0  0
   -6.6283    5.6619    0.0000 C   0  0  0  0  0  0  0  0  0  0  0  0
   -5.1424    5.8673    0.0000 C   0  0  0  0  0  0  0  0  0  0  0  0
   -4.5774    7.2568    0.0000 C   0  0  0  0  0  0  0  0  0  0  0  0
   -5.4982    8.4409    0.0000 C   0  0  0  0  0  0  0  0  0  0  0  0
   -6.9840    8.2355    0.0000 C   0  0  0  0  0  0  0  0  0  0  0  0
   -7.5491    6.8460    0.0000 C   0  0  0  0  0  0  0  0  0  0  0  0
  1  2  3  0
  2  3  1  0
  3  4  1  0
  4  5  1  0
  5  6  1  0
  6  7  1  0
  7  8  1  0
  8  9  1  0
  9 10  1  0
 10 11  1  0
 11 12  1  0
 12 13  1  0
 13 14  1  0
 14 15  1  0
 15 16  1  0
 16 17  1  0
 17 18  1  0
 18 19  1  0
 19 20  1  0
 20 21  1  0
 21 22  1  0
 22 23  1  0
 23 24  1  0
 24 25  1  0
 25 26  1  0
 26 27  1  0
 27 28  1  0
 28 29  1  0
 29 30  1  0
 30 31  1  0
 31 32  1  0
 32 33  1  0
 33 34  1  0
 34 35  1  0
 35 36  1  0
 36 37  1  0
 37 38  1  0
 38 39  1  0
 39 40  1  0
 40 41  1  0
 41 42  1  0
 42 43  1  0
 43 44  1  0
 44 45  1  0
 45 46  1  0
 46 47  1  0
 47 48  1  0
 48 49  1  0
 49 50  1  0
 50 51  1  0
 51 52  1  0
 52 53  1  0
 53 54  2  0
 54 55  1  0
 55 56  2  0
 56 57  1  0
 57 58  2  0
 58 59  1  0
 59 60  2  0
 60 61  1  0
 61 62  2  0
 62 63  1  0
 63 64  2  0
 64 65  1  0
 65 66  2  0
 66 67  1  0
 67 68  2  0
 68 69  1  0
 69 70  2  0
 70 71  1  0
 71 72  2  0
 72 73  1  0
 73 74  2  0
 74  3  1  0
 56 50  1  0
 62 57  1  0
 68 63  1  0
 74 69  1  0
M  END
>  <Title>  (142) 
idAADNgen10

$$$$

     RDKit          2D

  8  8  0  0  0  0  0  0  0  0999 V2000
    5.0260   -1.2990    0.0000 C   0  0  0  0  0  0  0  0  0  0  0  0
    3.5260   -1.2990    0.0000 C   0  0  0  0  0  0  0  0  0  0  0  0
    2.7760    0.0000    0.0000 C   0  0  0  0  0  0  0  0  0  0  0  0
    1.2760    0.0000    0.0000 C   0  0  0  0  0  0  0  0  0  0  0  0
    0.3943    1.2135    0.0000 C   0  0  0  0  0  0  0  0  0  0  0  0
   -1.0323    0.7500    0.0000 C   0  0  0  0  0  0  0  0  0  0  0  0
   -1.0323   -0.7500    0.0000 C   0  0  0  0  0  0  0  0  0  0  0  0
    0.3943   -1.2135    0.0000 C   0  0  0  0  0  0  0  0  0  0  0  0
  1  2  2  0
  2  3  1  0
  3  4  1  0
  4  5  2  0
  5  6  1  0
  6  7  1  0
  7  8  2  0
  8  4  1  0
M  END
>  <Title>  (143) 
idAADOgen10

$$$$

     RDKit          2D

 85 87  0  0  0  0  0  0  0  0999 V2000
   -2.6160    1.5541    0.0000 C   0  0  0  0  0  0  0  0  0  0  0  0
   -2.4304    0.0656    0.0000 C   0  0  0  0  0  0  0  0  0  0  0  0
   -2.2449   -1.4229    0.0000 C   0  0  0  0  0  0  0  0  0  0  0  0
   -3.7244   -1.6698    0.0000 C   0  0  0  0  0  0  0  0  0  0  0  0
   -5.1785   -2.0380    0.0000 C   0  0  0  0  0  0  0  0  0  0  0  0
   -6.5972   -2.5251    0.0000 C   0  0  0  0  0  0  0  0  0  0  0  0
   -7.9709   -3.1276    0.0000 C   0  0  0  0  0  0  0  0  0  0  0  0
   -9.2901   -3.8415    0.0000 C   0  0  0  0  0  0  0  0  0  0  0  0
  -10.5459   -4.6620    0.0000 C   0  0  0  0  0  0  0  0  0  0  0  0
  -11.7296   -5.5833    0.0000 C   0  0  0  0  0  0  0  0  0  0  0  0
  -12.8332   -6.5992    0.0000 C   0  0  0  0  0  0  0  0  0  0  0  0
  -13.8491   -7.7028    0.0000 C   0  0  0  0  0  0  0  0  0  0  0  0
  -14.7704   -8.8865    0.0000 C   0  0  0  0  0  0  0  0  0  0  0  0
  -15.5908  -10.1423    0.0000 C   0  0  0  0  0  0  0  0  0  0  0  0
  -16.3047  -11.4615    0.0000 C   0  0  0  0  0  0  0  0  0  0  0  0
  -16.9073  -12.8351    0.0000 C   0  0  0  0  0  0  0  0  0  0  0  0
  -17.3943  -14.2538    0.0000 C   0  0  0  0  0  0  0  0  0  0  0  0
  -17.7626  -15.7079    0.0000 C   0  0  0  0  0  0  0  0  0  0  0  0
  -18.0095  -17.1875    0.0000 C   0  0  0  0  0  0  0  0  0  0  0  0
  -18.1333  -18.6824    0.0000 C   0  0  0  0  0  0  0  0  0  0  0  0
  -18.1333  -20.1824    0.0000 C   0  0  0  0  0  0  0  0  0  0  0  0
  -18.0095  -21.6772    0.0000 C   0  0  0  0  0  0  0  0  0  0  0  0
  -17.7626  -23.1568    0.0000 C   0  0  0  0  0  0  0  0  0  0  0  0
  -17.3943  -24.6109    0.0000 C   0  0  0  0  0  0  0  0  0  0  0  0
  -16.9073  -26.0296    0.0000 C   0  0  0  0  0  0  0  0  0  0  0  0
  -16.3047  -27.4033    0.0000 C   0  0  0  0  0  0  0  0  0  0  0  0
  -15.5908  -28.7225    0.0000 C   0  0  0  0  0  0  0  0  0  0  0  0
  -14.7704  -29.9782    0.0000 C   0  0  0  0  0  0  0  0  0  0  0  0
  -13.8491  -31.1619    0.0000 C   0  0  0  0  0  0  0  0  0  0  0  0
  -12.8332  -32.2655    0.0000 C   0  0  0  0  0  0  0  0  0  0  0  0
  -11.7296  -33.2815    0.0000 C   0  0  0  0  0  0  0  0  0  0  0  0
  -10.5459  -34.2028    0.0000 C   0  0  0  0  0  0  0  0  0  0  0  0
   -9.2901  -35.0232    0.0000 C   0  0  0  0  0  0  0  0  0  0  0  0
   -7.9709  -35.7371    0.0000 C   0  0  0  0  0  0  0  0  0  0  0  0
   -6.5972  -36.3397    0.0000 C   0  0  0  0  0  0  0  0  0  0  0  0
   -5.1785  -36.8267    0.0000 C   0  0  0  0  0  0  0  0  0  0  0  0
   -3.7244  -37.1949    0.0000 C   0  0  0  0  0  0  0  0  0  0  0  0
   -2.2449  -37.4418    0.0000 C   0  0  0  0  0  0  0  0  0  0  0  0
   -0.7500  -37.5657    0.0000 C   0  0  0  0  0  0  0  0  0  0  0  0
    0.7500  -37.5657    0.0000 C   0  0  0  0  0  0  0  0  0  0  0  0
    2.2449  -37.4418    0.0000 C   0  0  0  0  0  0  0  0  0  0  0  0
    3.7244  -37.1949    0.0000 C   0  0  0  0  0  0  0  0  0  0  0  0
    5.1785  -36.8267    0.0000 C   0  0  0  0  0  0  0  0  0  0  0  0
    6.5972  -36.3397    0.0000 C   0  0  0  0  0  0  0  0  0  0  0  0
    7.9709  -35.7371    0.0000 C   0  0  0  0  0  0  0  0  0  0  0  0
    9.2901  -35.0232    0.0000 C   0  0  0  0  0  0  0  0  0  0  0  0
   10.5459  -34.2028    0.0000 C   0  0  0  0  0  0  0  0  0  0  0  0
   11.7296  -33.2815    0.0000 C   0  0  0  0  0  0  0  0  0  0  0  0
   12.8332  -32.2655    0.0000 C   0  0  0  0  0  0  0  0  0  0  0  0
   13.8491  -31.1619    0.0000 C   0  0  0  0  0  0  0  0  0  0  0  0
   14.7704  -29.9782    0.0000 C   0  0  0  0  0  0  0  0  0  0  0  0
   15.5908  -28.7225    0.0000 C   0  0  0  0  0  0  0  0  0  0  0  0
   16.3047  -27.4033    0.0000 C   0  0  0  0  0  0  0  0  0  0  0  0
   16.9073  -26.0296    0.0000 C   0  0  0  0  0  0  0  0  0  0  0  0
   17.3943  -24.6109    0.0000 C   0  0  0  0  0  0  0  0  0  0  0  0
   17.7626  -23.1568    0.0000 C   0  0  0  0  0  0  0  0  0  0  0  0
   18.0095  -21.6772    0.0000 C   0  0  0  0  0  0  0  0  0  0  0  0
   18.1333  -20.1824    0.0000 C   0  0  0  0  0  0  0  0  0  0  0  0
   18.1333  -18.6824    0.0000 C   0  0  0  0  0  0  0  0  0  0  0  0
   18.0095  -17.1875    0.0000 C   0  0  0  0  0  0  0  0  0  0  0  0
   17.7626  -15.7079    0.0000 C   0  0  0  0  0  0  0  0  0  0  0  0
   17.3943  -14.2538    0.0000 C   0  0  0  0  0  0  0  0  0  0  0  0
   16.9073  -12.8351    0.0000 C   0  0  0  0  0  0  0  0  0  0  0  0
   16.3047  -11.4615    0.0000 C   0  0  0  0  0  0  0  0  0  0  0  0
   15.5908  -10.1423    0.0000 C   0  0  0  0  0  0  0  0  0  0  0  0
   14.7704   -8.8865    0.0000 C   0  0  0  0  0  0  0  0  0  0  0  0
   13.8491   -7.7028    0.0000 C   0  0  0  0  0  0  0  0  0  0  0  0
   12.8332   -6.5992    0.0000 C   0  0  0  0  0  0  0  0  0  0  0  0
   11.7296   -5.5833    0.0000 C   0  0  0  0  0  0  0  0  0  0  0  0
   10.5459   -4.6620    0.0000 C   0  0  0  0  0  0  0  0  0  0  0  0
    9.2901   -3.8415    0.0000 C   0  0  0  0  0  0  0  0  0  0  0  0
    7.9709   -3.1276    0.0000 C   0  0  0  0  0  0  0  0  0  0  0  0
    6.5972   -2.5251    0.0000 C   0  0  0  0  0  0  0  0  0  0  0  0
    5.1785   -2.0380    0.0000 C   0  0  0  0  0  0  0  0  0  0  0  0
    3.7244   -1.6698    0.0000 C   0  0  0  0  0  0  0  0  0  0  0  0
    3.9468   -3.1532    0.0000 C   0  0  0  0  0  0  0  0  0  0  0  0
    2.6047   -3.8231    0.0000 C   0  0  0  0  0  0  0  0  0  0  0  0
    1.5529   -2.7537    0.0000 C   0  0  0  0  0  0  0  0  0  0  0  0
    2.2449   -1.4229    0.0000 C   0  0  0  0  0  0  0  0  0  0  0  0
    0.7500   -1.2990    0.0000 C   0  0  0  0  0  0  0  0  0  0  0  0
    1.5000    0.0000    0.0000 C   0  0  0  0  0  0  0  0  0  0  0  0
    0.7500    1.2990    0.0000 C   0  0  0  0  0  0  0  0  0  0  0  0
   -0.7500    1.2990    0.0000 C   0  0  0  0  0  0  0  0  0  0  0  0
   -1.5000    0.0000    0.0000 C   0  0  0  0  0  0  0  0  0  0  0  0
   -0.7500   -1.2990    0.0000 C   0  0  0  0  0  0  0  0  0  0  0  0
  1  2  3  0
  2  3  1  0
  3  4  1  0
  4  5  1  0
  5  6  1  0
  6  7  1  0
  7  8  1  0
  8  9  1  0
  9 10  1  0
 10 11  1  0
 11 12  1  0
 12 13  1  0
 13 14  1  0
 14 15  1  0
 15 16  1  0
 16 17  1  0
 17 18  1  0
 18 19  1  0
 19 20  1  0
 20 21  1  0
 21 22  1  0
 22 23  1  0
 23 24  1  0
 24 25  1  0
 25 26  1  0
 26 27  1  0
 27 28  1  0
 28 29  1  0
 29 30  1  0
 30 31  1  0
 31 32  1  0
 32 33  1  0
 33 34  1  0
 34 35  1  0
 35 36  1  0
 36 37  1  0
 37 38  1  0
 38 39  1  0
 39 40  1  0
 40 41  1  0
 41 42  1  0
 42 43  1  0
 43 44  1  0
 44 45  1  0
 45 46  1  0
 46 47  1  0
 47 48  1  0
 48 49  1  0
 49 50  1  0
 50 51  1  0
 51 52  1  0
 52 53  1  0
 53 54  1  0
 54 55  1  0
 55 56  1  0
 56 57  1  0
 57 58  1  0
 58 59  1  0
 59 60  1  0
 60 61  1  0
 61 62  1  0
 62 63  2  0
 63 64  1  0
 64 65  2  0
 65 66  1  0
 66 67  2  0
 67 68  1  0
 68 69  2  0
 69 70  1  0
 70 71  2  0
 71 72  1  0
 72 73  2  0
 73 74  1  0
 74 75  2  0
 75 76  1  0
 76 77  2  0
 77 78  1  0
 78 79  2  0
 79 80  1  0
 80 81  2  0
 81 82  1  0
 82 83  2  0
 83 84  1  0
 84 85  2  0
 85  3  1  0
 79 75  1  0
 85 80  1  0
M  END
>  <Title>  (144) 
idAADPgen10

$$$$

     RDKit          2D

  6  6  0  0  0  0  0  0  0  0999 V2000
    1.5000    0.0000    0.0000 C   0  0  0  0  0  0  0  0  0  0  0  0
    0.7500   -1.2990    0.0000 C   0  0  0  0  0  0  0  0  0  0  0  0
   -0.7500   -1.2990    0.0000 C   0  0  0  0  0  0  0  0  0  0  0  0
   -1.5000    0.0000    0.0000 C   0  0  0  0  0  0  0  0  0  0  0  0
   -0.7500    1.2990    0.0000 C   0  0  0  0  0  0  0  0  0  0  0  0
    0.7500    1.2990    0.0000 C   0  0  0  0  0  0  0  0  0  0  0  0
  1  2  2  0
  2  3  1  0
  3  4  1  0
  4  5  1  0
  5  6  2  0
  6  1  1  0
M  END
>  <Title>  (145) 
idAADQgen10

$$$$

     RDKit          2D

  8  8  0  0  0  0  0  0  0  0999 V2000
    4.2760   -2.5981    0.0000 C   0  0  0  0  0  0  0  0  0  0  0  0
    3.5260   -1.2990    0.0000 C   0  0  0  0  0  0  0  0  0  0  0  0
    2.7760    0.0000    0.0000 C   0  0  0  0  0  0  0  0  0  0  0  0
    1.2760    0.0000    0.0000 C   0  0  0  0  0  0  0  0  0  0  0  0
    0.3943    1.2135    0.0000 C   0  0  0  0  0  0  0  0  0  0  0  0
   -1.0323    0.7500    0.0000 C   0  0  0  0  0  0  0  0  0  0  0  0
   -1.0323   -0.7500    0.0000 C   0  0  0  0  0  0  0  0  0  0  0  0
    0.3943   -1.2135    0.0000 C   0  0  0  0  0  0  0  0  0  0  0  0
  1  2  3  0
  2  3  1  0
  3  4  1  0
  4  5  2  0
  5  6  1  0
  6  7  1  0
  7  8  2  0
  8  4  1  0
M  END
>  <Title>  (146) 
idAADRgen10

$$$$

     RDKit          2D

 67 67  0  0  0  0  0  0  0  0999 V2000
   17.2623    0.0000    0.0000 C   0  0  0  0  0  0  0  0  0  0  0  0
   15.7623    0.0000    0.0000 C   0  0  0  0  0  0  0  0  0  0  0  0
   15.6909   -1.4983    0.0000 C   0  0  0  0  0  0  0  0  0  0  0  0
   15.4774   -2.9830    0.0000 C   0  0  0  0  0  0  0  0  0  0  0  0
   15.1238   -4.4408    0.0000 C   0  0  0  0  0  0  0  0  0  0  0  0
   14.6332   -5.8583    0.0000 C   0  0  0  0  0  0  0  0  0  0  0  0
   14.0101   -7.2227    0.0000 C   0  0  0  0  0  0  0  0  0  0  0  0
   13.2601   -8.5217    0.0000 C   0  0  0  0  0  0  0  0  0  0  0  0
   12.3900   -9.7436    0.0000 C   0  0  0  0  0  0  0  0  0  0  0  0
   11.4077  -10.8772    0.0000 C   0  0  0  0  0  0  0  0  0  0  0  0
   10.3221  -11.9123    0.0000 C   0  0  0  0  0  0  0  0  0  0  0  0
    9.1430  -12.8396    0.0000 C   0  0  0  0  0  0  0  0  0  0  0  0
    7.8811  -13.6505    0.0000 C   0  0  0  0  0  0  0  0  0  0  0  0
    6.5479  -14.3379    0.0000 C   0  0  0  0  0  0  0  0  0  0  0  0
    5.1553  -14.8954    0.0000 C   0  0  0  0  0  0  0  0  0  0  0  0
    3.7161  -15.3180    0.0000 C   0  0  0  0  0  0  0  0  0  0  0  0
    2.2432  -15.6019    0.0000 C   0  0  0  0  0  0  0  0  0  0  0  0
    0.7500  -15.7444    0.0000 C   0  0  0  0  0  0  0  0  0  0  0  0
   -0.7500  -15.7444    0.0000 C   0  0  0  0  0  0  0  0  0  0  0  0
   -2.2432  -15.6019    0.0000 C   0  0  0  0  0  0  0  0  0  0  0  0
   -3.7161  -15.3180    0.0000 C   0  0  0  0  0  0  0  0  0  0  0  0
   -5.1553  -14.8954    0.0000 C   0  0  0  0  0  0  0  0  0  0  0  0
   -6.5479  -14.3379    0.0000 C   0  0  0  0  0  0  0  0  0  0  0  0
   -7.8811  -13.6505    0.0000 C   0  0  0  0  0  0  0  0  0  0  0  0
   -9.1430  -12.8396    0.0000 C   0  0  0  0  0  0  0  0  0  0  0  0
  -10.3221  -11.9123    0.0000 C   0  0  0  0  0  0  0  0  0  0  0  0
  -11.4077  -10.8772    0.0000 C   0  0  0  0  0  0  0  0  0  0  0  0
  -12.3900   -9.7436    0.0000 C   0  0  0  0  0  0  0  0  0  0  0  0
  -13.2601   -8.5217    0.0000 C   0  0  0  0  0  0  0  0  0  0  0  0
  -14.0101   -7.2227    0.0000 C   0  0  0  0  0  0  0  0  0  0  0  0
  -14.6332   -5.8583    0.0000 C   0  0  0  0  0  0  0  0  0  0  0  0
  -15.1238   -4.4408    0.0000 C   0  0  0  0  0  0  0  0  0  0  0  0
  -15.4774   -2.9830    0.0000 C   0  0  0  0  0  0  0  0  0  0  0  0
  -15.6909   -1.4983    0.0000 C   0  0  0  0  0  0  0  0  0  0  0  0
  -15.7623    0.0000    0.0000 C   0  0  0  0  0  0  0  0  0  0  0  0
  -15.6909    1.4983    0.0000 C   0  0  0  0  0  0  0  0  0  0  0  0
  -15.4774    2.9830    0.0000 C   0  0  0  0  0  0  0  0  0  0  0  0
  -15.1238    4.4408    0.0000 C   0  0  0  0  0  0  0  0  0  0  0  0
  -14.6332    5.8583    0.0000 C   0  0  0  0  0  0  0  0  0  0  0  0
  -14.0101    7.2227    0.0000 C   0  0  0  0  0  0  0  0  0  0  0  0
  -13.2601    8.5217    0.0000 C   0  0  0  0  0  0  0  0  0  0  0  0
  -12.3900    9.7436    0.0000 C   0  0  0  0  0  0  0  0  0  0  0  0
  -11.4077   10.8772    0.0000 C   0  0  0  0  0  0  0  0  0  0  0  0
  -10.3221   11.9123    0.0000 C   0  0  0  0  0  0  0  0  0  0  0  0
   -9.1430   12.8396    0.0000 C   0  0  0  0  0  0  0  0  0  0  0  0
   -7.8811   13.6505    0.0000 C   0  0  0  0  0  0  0  0  0  0  0  0
   -6.5479   14.3379    0.0000 C   0  0  0  0  0  0  0  0  0  0  0  0
   -5.1553   14.8954    0.0000 C   0  0  0  0  0  0  0  0  0  0  0  0
   -3.7161   15.3180    0.0000 C   0  0  0  0  0  0  0  0  0  0  0  0
   -2.2432   15.6019    0.0000 C   0  0  0  0  0  0  0  0  0  0  0  0
   -0.7500   15.7444    0.0000 C   0  0  0  0  0  0  0  0  0  0  0  0
    0.7500   15.7444    0.0000 C   0  0  0  0  0  0  0  0  0  0  0  0
    2.2432   15.6019    0.0000 C   0  0  0  0  0  0  0  0  0  0  0  0
    3.7161   15.3180    0.0000 C   0  0  0  0  0  0  0  0  0  0  0  0
    5.1553   14.8954    0.0000 C   0  0  0  0  0  0  0  0  0  0  0  0
    6.5479   14.3379    0.0000 C   0  0  0  0  0  0  0  0  0  0  0  0
    7.8811   13.6505    0.0000 C   0  0  0  0  0  0  0  0  0  0  0  0
    9.1430   12.8396    0.0000 C   0  0  0  0  0  0  0  0  0  0  0  0
   10.3221   11.9123    0.0000 C   0  0  0  0  0  0  0  0  0  0  0  0
   11.4077   10.8772    0.0000 C   0  0  0  0  0  0  0  0  0  0  0  0
   12.3900    9.7436    0.0000 C   0  0  0  0  0  0  0  0  0  0  0  0
   13.2601    8.5217    0.0000 C   0  0  0  0  0  0  0  0  0  0  0  0
   14.0101    7.2227    0.0000 C   0  0  0  0  0  0  0  0  0  0  0  0
   14.6332    5.8583    0.0000 C   0  0  0  0  0  0  0  0  0  0  0  0
   15.1238    4.4408    0.0000 C   0  0  0  0  0  0  0  0  0  0  0  0
   15.4774    2.9830    0.0000 C   0  0  0  0  0  0  0  0  0  0  0  0
   15.6909    1.4983    0.0000 C   0  0  0  0  0  0  0  0  0  0  0  0
  1  2  1  0
  2  3  1  0
  3  4  1  0
  4  5  1  0
  5  6  1  0
  6  7  1  0
  7  8  1  0
  8  9  1  0
  9 10  1  0
 10 11  1  0
 11 12  1  0
 12 13  1  0
 13 14  1  0
 14 15  1  0
 15 16  1  0
 16 17  1  0
 17 18  1  0
 18 19  1  0
 19 20  1  0
 20 21  1  0
 21 22  1  0
 22 23  1  0
 23 24  1  0
 24 25  1  0
 25 26  1  0
 26 27  1  0
 27 28  1  0
 28 29  1  0
 29 30  1  0
 30 31  1  0
 31 32  1  0
 32 33  1  0
 33 34  1  0
 34 35  1  0
 35 36  1  0
 36 37  1  0
 37 38  1  0
 38 39  1  0
 39 40  1  0
 40 41  1  0
 41 42  1  0
 42 43  1  0
 43 44  1  0
 44 45  1  0
 45 46  1  0
 46 47  1  0
 47 48  1  0
 48 49  1  0
 49 50  1  0
 50 51  1  0
 51 52  1  0
 52 53  1  0
 53 54  1  0
 54 55  1  0
 55 56  1  0
 56 57  1  0
 57 58  1  0
 58 59  1  0
 59 60  1  0
 60 61  1  0
 61 62  1  0
 62 63  1  0
 63 64  1  0
 64 65  1  0
 65 66  1  0
 66 67  1  0
 67  2  1  0
M  END
>  <Title>  (147) 
idAADSgen10

$$$$

     RDKit          2D

 12 11  0  0  0  0  0  0  0  0999 V2000
    0.0000    0.0000    0.0000 C   0  0  0  0  0  0  0  0  0  0  0  0
   -0.0000   -1.5000    0.0000 C   0  0  0  0  0  0  0  0  0  0  0  0
   -0.0000   -3.0000    0.0000 C   0  0  0  0  0  0  0  0  0  0  0  0
   -0.0000   -4.5000    0.0000 C   0  0  0  0  0  0  0  0  0  0  0  0
   -0.0000   -6.0000    0.0000 C   0  0  0  0  0  0  0  0  0  0  0  0
    1.2990   -6.7500    0.0000 C   0  0  0  0  0  0  0  0  0  0  0  0
    1.2990   -8.2500    0.0000 C   0  0  0  0  0  0  0  0  0  0  0  0
    2.5981   -9.0000    0.0000 C   0  0  0  0  0  0  0  0  0  0  0  0
    3.8971   -8.2500    0.0000 C   0  0  0  0  0  0  0  0  0  0  0  0
    5.1962   -7.5000    0.0000 N   0  0  0  0  0  0  0  0  0  0  0  0
    2.5981  -10.5000    0.0000 C   0  0  0  0  0  0  0  0  0  0  0  0
    3.8971  -11.2500    0.0000 C   0  0  0  0  0  0  0  0  0  0  0  0
  1  2  3  0
  2  3  1  0
  3  4  3  0
  4  5  1  0
  5  6  2  3
  6  7  1  0
  7  8  2  3
  8  9  1  0
  9 10  3  0
  8 11  1  0
 11 12  2  0
M  END
>  <Title>  (148) 
idAADTgen10

$$$$

     RDKit          2D

 16 17  0  0  0  0  0  0  0  0999 V2000
    3.0000    0.0000    0.0000 C   0  0  0  0  0  0  0  0  0  0  0  0
    1.5000    0.0000    0.0000 C   0  0  0  0  0  0  0  0  0  0  0  0
    0.7500   -1.2990    0.0000 C   0  0  0  0  0  0  0  0  0  0  0  0
   -0.7500   -1.2990    0.0000 C   0  0  0  0  0  0  0  0  0  0  0  0
   -1.5000    0.0000    0.0000 C   0  0  0  0  0  0  0  0  0  0  0  0
   -0.7500    1.2990    0.0000 C   0  0  0  0  0  0  0  0  0  0  0  0
   -1.5000    2.5981    0.0000 C   0  0  0  0  0  0  0  0  0  0  0  0
   -3.0000    2.5981    0.0000 O   0  0  0  0  0  0  0  0  0  0  0  0
   -0.7500    3.8971    0.0000 N   0  0  0  0  0  0  0  0  0  0  0  0
   -1.5000    5.1962    0.0000 C   0  0  0  0  0  0  0  0  0  0  0  0
   -0.7500    6.4952    0.0000 N   0  0  0  0  0  0  0  0  0  0  0  0
   -1.5000    7.7942    0.0000 N   0  0  0  0  0  0  0  0  0  0  0  0
   -3.0000    7.7942    0.0000 N   0  0  0  0  0  0  0  0  0  0  0  0
   -3.7500    6.4952    0.0000 N   0  0  0  0  0  0  0  0  0  0  0  0
   -3.0000    5.1962    0.0000 N   0  0  0  0  0  0  0  0  0  0  0  0
    0.7500    1.2990    0.0000 C   0  0  0  0  0  0  0  0  0  0  0  0
  1  2  1  0
  2  3  2  0
  3  4  1  0
  4  5  1  0
  5  6  1  0
  6  7  1  0
  7  8  2  0
  7  9  1  0
  9 10  1  0
 10 11  2  0
 11 12  1  0
 12 13  2  0
 13 14  1  0
 14 15  2  0
  6 16  1  0
 16  2  1  0
 15 10  1  0
M  END
>  <Title>  (149) 
idAADUgen10

$$$$

     RDKit          2D

 11 11  0  0  0  0  0  0  0  0999 V2000
    5.2500    1.2990    0.0000 C   0  0  0  0  0  0  0  0  0  0  0  0
    3.7500    1.2990    0.0000 C   0  0  0  0  0  0  0  0  0  0  0  0
    3.0000    0.0000    0.0000 C   0  0  0  0  0  0  0  0  0  0  0  0
    3.7500   -1.2990    0.0000 C   0  0  0  0  0  0  0  0  0  0  0  0
    5.2500   -1.2990    0.0000 C   0  0  0  0  0  0  0  0  0  0  0  0
    1.5000    0.0000    0.0000 C   0  0  0  0  0  0  0  0  0  0  0  0
    0.7500   -1.2990    0.0000 C   0  0  0  0  0  0  0  0  0  0  0  0
   -0.7500   -1.2990    0.0000 C   0  0  0  0  0  0  0  0  0  0  0  0
   -1.5000    0.0000    0.0000 C   0  0  0  0  0  0  0  0  0  0  0  0
   -0.7500    1.2990    0.0000 C   0  0  0  0  0  0  0  0  0  0  0  0
    0.7500    1.2990    0.0000 C   0  0  0  0  0  0  0  0  0  0  0  0
  1  2  2  0
  2  3  1  0
  3  4  1  0
  4  5  1  0
  3  6  1  0
  6  7  2  0
  7  8  1  0
  8  9  2  0
  9 10  1  0
 10 11  2  0
 11  6  1  0
M  END
>  <Title>  (150) 
idAADVgen10

$$$$

     RDKit          2D

 26 28  0  0  0  0  0  0  0  0999 V2000
    3.4948   -9.2061    0.0000 C   0  0  0  0  0  0  0  0  0  0  0  0
    3.9583   -7.7795    0.0000 C   0  0  0  0  0  0  0  0  0  0  0  0
    4.4218   -6.3529    0.0000 C   0  0  0  0  0  0  0  0  0  0  0  0
    5.8891   -6.0410    0.0000 O   0  0  0  0  0  0  0  0  0  0  0  0
    3.4182   -5.2382    0.0000 N   0  0  0  0  0  0  0  0  0  0  0  0
    3.8817   -3.8116    0.0000 C   0  0  0  0  0  0  0  0  0  0  0  0
    5.3083   -3.3481    0.0000 C   0  0  0  0  0  0  0  0  0  0  0  0
    5.3083   -1.8481    0.0000 C   0  0  0  0  0  0  0  0  0  0  0  0
    3.8817   -1.3846    0.0000 C   0  0  0  0  0  0  0  0  0  0  0  0
    3.0000   -2.5981    0.0000 C   0  0  0  0  0  0  0  0  0  0  0  0
    1.5000   -2.5981    0.0000 O   0  0  0  0  0  0  0  0  0  0  0  0
    0.7500   -1.2990    0.0000 C   0  0  0  0  0  0  0  0  0  0  0  0
    1.5000    0.0000    0.0000 C   0  0  0  0  0  0  0  0  0  0  0  0
    0.7500    1.2990    0.0000 C   0  0  0  0  0  0  0  0  0  0  0  0
   -0.7500    1.2990    0.0000 C   0  0  0  0  0  0  0  0  0  0  0  0
   -1.5000    0.0000    0.0000 C   0  0  0  0  0  0  0  0  0  0  0  0
   -0.7500   -1.2990    0.0000 C   0  0  0  0  0  0  0  0  0  0  0  0
   -1.5000   -2.5981    0.0000 C   0  0  0  0  0  0  0  0  0  0  0  0
   -0.7500   -3.8971    0.0000 O   0  0  0  0  0  0  0  0  0  0  0  0
   -3.0000   -2.5981    0.0000 N   0  0  0  0  0  0  0  0  0  0  0  0
   -3.7500   -3.8971    0.0000 C   0  0  0  0  0  0  0  0  0  0  0  0
   -5.2500   -3.8971    0.0000 C   0  0  0  0  0  0  0  0  0  0  0  0
   -6.0000   -5.1962    0.0000 C   0  0  0  0  0  0  0  0  0  0  0  0
   -5.2500   -6.4952    0.0000 C   0  0  0  0  0  0  0  0  0  0  0  0
   -3.7500   -6.4952    0.0000 C   0  0  0  0  0  0  0  0  0  0  0  0
   -3.0000   -5.1962    0.0000 C   0  0  0  0  0  0  0  0  0  0  0  0
  1  2  3  0
  2  3  1  0
  3  4  2  0
  3  5  1  0
  5  6  1  0
  6  7  2  0
  7  8  1  0
  8  9  1  0
  9 10  2  0
 10 11  1  0
 11 12  1  0
 12 13  2  0
 13 14  1  0
 14 15  2  0
 15 16  1  0
 16 17  2  0
 17 18  1  0
 18 19  2  0
 18 20  1  0
 20 21  1  0
 21 22  2  0
 22 23  1  0
 23 24  2  0
 24 25  1  0
 25 26  2  0
 10  6  1  0
 17 12  1  0
 26 21  1  0
M  END
>  <Title>  (151) 
idAADWgen10

$$$$

     RDKit          2D

 81 82  0  0  0  0  0  0  0  0999 V2000
   -2.2060   -1.0682    0.0000 C   0  0  0  0  0  0  0  0  0  0  0  0
   -2.4919    0.4043    0.0000 C   0  0  0  0  0  0  0  0  0  0  0  0
   -3.9748    0.1787    0.0000 C   0  0  0  0  0  0  0  0  0  0  0  0
   -5.4712    0.0748    0.0000 C   0  0  0  0  0  0  0  0  0  0  0  0
   -6.9711    0.0931    0.0000 C   0  0  0  0  0  0  0  0  0  0  0  0
   -8.4645    0.2337    0.0000 C   0  0  0  0  0  0  0  0  0  0  0  0
   -9.9415    0.4955    0.0000 C   0  0  0  0  0  0  0  0  0  0  0  0
  -11.3922    0.8768    0.0000 C   0  0  0  0  0  0  0  0  0  0  0  0
  -12.8070    1.3751    0.0000 C   0  0  0  0  0  0  0  0  0  0  0  0
  -14.1765    1.9871    0.0000 C   0  0  0  0  0  0  0  0  0  0  0  0
  -15.4916    2.7086    0.0000 C   0  0  0  0  0  0  0  0  0  0  0  0
  -16.7434    3.5350    0.0000 C   0  0  0  0  0  0  0  0  0  0  0  0
  -17.9238    4.4606    0.0000 C   0  0  0  0  0  0  0  0  0  0  0  0
  -19.0247    5.4794    0.0000 C   0  0  0  0  0  0  0  0  0  0  0  0
  -20.0390    6.5845    0.0000 C   0  0  0  0  0  0  0  0  0  0  0  0
  -20.9598    7.7686    0.0000 C   0  0  0  0  0  0  0  0  0  0  0  0
  -21.7810    9.0238    0.0000 C   0  0  0  0  0  0  0  0  0  0  0  0
  -22.4972   10.3418    0.0000 C   0  0  0  0  0  0  0  0  0  0  0  0
  -23.1036   11.7138    0.0000 C   0  0  0  0  0  0  0  0  0  0  0  0
  -23.5961   13.1306    0.0000 C   0  0  0  0  0  0  0  0  0  0  0  0
  -23.9715   14.5829    0.0000 C   0  0  0  0  0  0  0  0  0  0  0  0
  -24.2273   16.0609    0.0000 C   0  0  0  0  0  0  0  0  0  0  0  0
  -24.3618   17.5549    0.0000 C   0  0  0  0  0  0  0  0  0  0  0  0
  -24.3740   19.0548    0.0000 C   0  0  0  0  0  0  0  0  0  0  0  0
  -24.2640   20.5508    0.0000 C   0  0  0  0  0  0  0  0  0  0  0  0
  -24.0323   22.0328    0.0000 C   0  0  0  0  0  0  0  0  0  0  0  0
  -23.6807   23.4910    0.0000 C   0  0  0  0  0  0  0  0  0  0  0  0
  -23.2113   24.9157    0.0000 C   0  0  0  0  0  0  0  0  0  0  0  0
  -22.6274   26.2973    0.0000 C   0  0  0  0  0  0  0  0  0  0  0  0
  -21.9328   27.6268    0.0000 C   0  0  0  0  0  0  0  0  0  0  0  0
  -21.1322   28.8953    0.0000 C   0  0  0  0  0  0  0  0  0  0  0  0
  -20.2308   30.0943    0.0000 C   0  0  0  0  0  0  0  0  0  0  0  0
  -19.2347   31.2158    0.0000 C   0  0  0  0  0  0  0  0  0  0  0  0
  -18.1506   32.2524    0.0000 C   0  0  0  0  0  0  0  0  0  0  0  0
  -16.9855   33.1972    0.0000 C   0  0  0  0  0  0  0  0  0  0  0  0
  -15.7473   34.0438    0.0000 C   0  0  0  0  0  0  0  0  0  0  0  0
  -14.4442   34.7867    0.0000 C   0  0  0  0  0  0  0  0  0  0  0  0
  -13.0849   35.4210    0.0000 C   0  0  0  0  0  0  0  0  0  0  0  0
  -11.6784   35.9423    0.0000 C   0  0  0  0  0  0  0  0  0  0  0  0
  -10.2341   36.3473    0.0000 C   0  0  0  0  0  0  0  0  0  0  0  0
   -8.7616   36.6331    0.0000 C   0  0  0  0  0  0  0  0  0  0  0  0
   -7.2706   36.7980    0.0000 C   0  0  0  0  0  0  0  0  0  0  0  0
   -5.7713   36.8409    0.0000 C   0  0  0  0  0  0  0  0  0  0  0  0
   -4.2734   36.7614    0.0000 C   0  0  0  0  0  0  0  0  0  0  0  0
   -2.7869   36.5600    0.0000 C   0  0  0  0  0  0  0  0  0  0  0  0
   -1.3219   36.2382    0.0000 C   0  0  0  0  0  0  0  0  0  0  0  0
    0.1121   35.7980    0.0000 C   0  0  0  0  0  0  0  0  0  0  0  0
    1.5054   35.2424    0.0000 C   0  0  0  0  0  0  0  0  0  0  0  0
    2.8488   34.5751    0.0000 C   0  0  0  0  0  0  0  0  0  0  0  0
    4.1333   33.8005    0.0000 C   0  0  0  0  0  0  0  0  0  0  0  0
    5.3504   32.9238    0.0000 C   0  0  0  0  0  0  0  0  0  0  0  0
    6.4920   31.9507    0.0000 C   0  0  0  0  0  0  0  0  0  0  0  0
    7.5505   30.8879    0.0000 C   0  0  0  0  0  0  0  0  0  0  0  0
    8.5189   29.7424    0.0000 C   0  0  0  0  0  0  0  0  0  0  0  0
    9.3906   28.5217    0.0000 C   0  0  0  0  0  0  0  0  0  0  0  0
   10.1599   27.2340    0.0000 C   0  0  0  0  0  0  0  0  0  0  0  0
   10.8218   25.8879    0.0000 C   0  0  0  0  0  0  0  0  0  0  0  0
   11.3717   24.4923    0.0000 C   0  0  0  0  0  0  0  0  0  0  0  0
   11.8060   23.0566    0.0000 C   0  0  0  0  0  0  0  0  0  0  0  0
   12.1219   21.5902    0.0000 C   0  0  0  0  0  0  0  0  0  0  0  0
   12.3172   20.1030    0.0000 C   0  0  0  0  0  0  0  0  0  0  0  0
   12.3906   18.6048    0.0000 C   0  0  0  0  0  0  0  0  0  0  0  0
   12.3416   17.1056    0.0000 C   0  0  0  0  0  0  0  0  0  0  0  0
   12.1706   15.6154    0.0000 C   0  0  0  0  0  0  0  0  0  0  0  0
   11.8787   14.1440    0.0000 C   0  0  0  0  0  0  0  0  0  0  0  0
   11.4679   12.7014    0.0000 C   0  0  0  0  0  0  0  0  0  0  0  0
   10.9408   11.2971    0.0000 C   0  0  0  0  0  0  0  0  0  0  0  0
   10.3011    9.9403    0.0000 C   0  0  0  0  0  0  0  0  0  0  0  0
    9.5528    8.6403    0.0000 C   0  0  0  0  0  0  0  0  0  0  0  0
    8.7011    7.4055    0.0000 C   0  0  0  0  0  0  0  0  0  0  0  0
    7.7516    6.2443    0.0000 C   0  0  0  0  0  0  0  0  0  0  0  0
    6.7106    5.1644    0.0000 C   0  0  0  0  0  0  0  0  0  0  0  0
    5.5850    4.1729    0.0000 C   0  0  0  0  0  0  0  0  0  0  0  0
    4.3824    3.2764    0.0000 C   0  0  0  0  0  0  0  0  0  0  0  0
    3.1107    2.4809    0.0000 C   0  0  0  0  0  0  0  0  0  0  0  0
    1.7784    1.7918    0.0000 C   0  0  0  0  0  0  0  0  0  0  0  0
    0.3943    1.2135    0.0000 C   0  0  0  0  0  0  0  0  0  0  0  0
    1.2760    0.0000    0.0000 C   0  0  0  0  0  0  0  0  0  0  0  0
    0.3943   -1.2135    0.0000 C   0  0  0  0  0  0  0  0  0  0  0  0
   -1.0323   -0.7500    0.0000 C   0  0  0  0  0  0  0  0  0  0  0  0
   -1.0323    0.7500    0.0000 C   0  0  0  0  0  0  0  0  0  0  0  0
  1  2  1  0
  2  3  1  0
  3  4  1  0
  4  5  1  0
  5  6  1  0
  6  7  1  0
  7  8  1  0
  8  9  1  0
  9 10  1  0
 10 11  1  0
 11 12  1  0
 12 13  1  0
 13 14  1  0
 14 15  1  0
 15 16  1  0
 16 17  1  0
 17 18  1  0
 18 19  1  0
 19 20  1  0
 20 21  1  0
 21 22  1  0
 22 23  1  0
 23 24  1  0
 24 25  1  0
 25 26  1  0
 26 27  1  0
 27 28  1  0
 28 29  1  0
 29 30  1  0
 30 31  1  0
 31 32  1  0
 32 33  1  0
 33 34  1  0
 34 35  1  0
 35 36  1  0
 36 37  1  0
 37 38  1  0
 38 39  1  0
 39 40  1  0
 40 41  1  0
 41 42  1  0
 42 43  1  0
 43 44  1  0
 44 45  1  0
 45 46  1  0
 46 47  1  0
 47 48  1  0
 48 49  1  0
 49 50  1  0
 50 51  1  0
 51 52  1  0
 52 53  1  0
 53 54  1  0
 54 55  1  0
 55 56  1  0
 56 57  1  0
 57 58  1  0
 58 59  2  0
 59 60  1  0
 60 61  2  0
 61 62  1  0
 62 63  2  0
 63 64  1  0
 64 65  2  0
 65 66  1  0
 66 67  2  0
 67 68  1  0
 68 69  2  0
 69 70  1  0
 70 71  2  0
 71 72  1  0
 72 73  2  0
 73 74  1  0
 74 75  2  0
 75 76  1  0
 76 77  2  0
 77 78  1  0
 78 79  2  0
 79 80  1  0
 80 81  2  0
 81  2  1  0
 81 77  1  0
M  END
>  <Title>  (152) 
idAADXgen10

$$$$

     RDKit          2D

 12 12  0  0  0  0  0  0  0  0999 V2000
   10.5000    0.0000    0.0000 C   0  0  0  0  0  0  0  0  0  0  0  0
    9.0000    0.0000    0.0000 C   0  0  0  0  0  0  0  0  0  0  0  0
    7.5000    0.0000    0.0000 C   0  0  0  0  0  0  0  0  0  0  0  0
    6.0000    0.0000    0.0000 C   0  0  0  0  0  0  0  0  0  0  0  0
    4.5000    0.0000    0.0000 C   0  0  0  0  0  0  0  0  0  0  0  0
    3.0000    0.0000    0.0000 C   0  0  0  0  0  0  0  0  0  0  0  0
    1.5000    0.0000    0.0000 C   0  0  0  0  0  0  0  0  0  0  0  0
    0.7500   -1.2990    0.0000 C   0  0  0  0  0  0  0  0  0  0  0  0
   -0.7500   -1.2990    0.0000 C   0  0  0  0  0  0  0  0  0  0  0  0
   -1.5000    0.0000    0.0000 C   0  0  0  0  0  0  0  0  0  0  0  0
   -0.7500    1.2990    0.0000 C   0  0  0  0  0  0  0  0  0  0  0  0
    0.7500    1.2990    0.0000 C   0  0  0  0  0  0  0  0  0  0  0  0
  1  2  3  0
  2  3  1  0
  3  4  3  0
  4  5  1  0
  5  6  3  0
  6  7  1  0
  7  8  2  0
  8  9  1  0
  9 10  2  0
 10 11  1  0
 11 12  2  0
 12  7  1  0
M  END
>  <Title>  (153) 
idAADYgen10

$$$$

     RDKit          2D

  9 10  0  0  0  0  0  0  0  0999 V2000
   -1.8107   -3.8597    0.0000 O   0  0  0  0  0  0  0  0  0  0  0  0
   -0.7500   -2.7990    0.0000 C   0  0  0  0  0  0  0  0  0  0  0  0
    0.7500   -2.7990    0.0000 C   0  0  0  0  0  0  0  0  0  0  0  0
    0.7500   -1.2990    0.0000 C   0  0  0  0  0  0  0  0  0  0  0  0
    1.5000    0.0000    0.0000 C   0  0  0  0  0  0  0  0  0  0  0  0
    0.7500    1.2990    0.0000 C   0  0  0  0  0  0  0  0  0  0  0  0
   -0.7500    1.2990    0.0000 C   0  0  0  0  0  0  0  0  0  0  0  0
   -1.5000    0.0000    0.0000 C   0  0  0  0  0  0  0  0  0  0  0  0
   -0.7500   -1.2990    0.0000 C   0  0  0  0  0  0  0  0  0  0  0  0
  1  2  1  0
  2  3  1  0
  3  4  1  0
  4  5  2  0
  5  6  1  0
  6  7  2  0
  7  8  1  0
  8  9  2  0
  9  2  1  0
  9  4  1  0
M  END
>  <Title>  (154) 
idAADZgen10

$$$$

     RDKit          2D

 13 13  0  0  0  0  0  0  0  0999 V2000
    7.5000    0.0000    0.0000 C   0  0  0  0  0  0  0  0  0  0  0  0
    6.0000    0.0000    0.0000 C   0  0  0  0  0  0  0  0  0  0  0  0
    4.5000    0.0000    0.0000 C   0  0  0  0  0  0  0  0  0  0  0  0
    3.0000    0.0000    0.0000 C   0  0  0  0  0  0  0  0  0  0  0  0
    1.5000    0.0000    0.0000 C   0  0  0  0  0  0  0  0  0  0  0  0
    0.7500   -1.2990    0.0000 C   0  0  0  0  0  0  0  0  0  0  0  0
   -0.7500   -1.2990    0.0000 C   0  0  0  0  0  0  0  0  0  0  0  0
   -1.5000    0.0000    0.0000 C   0  0  0  0  0  0  0  0  0  0  0  0
   -0.7500    1.2990    0.0000 C   0  0  0  0  0  0  0  0  0  0  0  0
    0.7500    1.2990    0.0000 C   0  0  0  0  0  0  0  0  0  0  0  0
    1.5000    2.5981    0.0000 C   0  0  0  0  0  0  0  0  0  0  0  0
    0.7500    3.8971    0.0000 C   0  0  0  0  0  0  0  0  0  0  0  0
    3.0000    2.5981    0.0000 O   0  0  0  0  0  0  0  0  0  0  0  0
  1  2  3  0
  2  3  1  0
  3  4  3  0
  4  5  1  0
  5  6  2  0
  6  7  1  0
  7  8  2  0
  8  9  1  0
  9 10  2  0
 10 11  1  0
 11 12  1  0
 11 13  2  0
 10  5  1  0
M  END
>  <Title>  (155) 
idAAEAgen10

$$$$

     RDKit          2D

 15 16  0  0  0  0  0  0  0  0999 V2000
   -0.8928   -7.6841    0.0000 C   0  0  0  0  0  0  0  0  0  0  0  0
    0.4775   -7.0740    0.0000 C   0  0  0  0  0  0  0  0  0  0  0  0
    1.8478   -6.4639    0.0000 C   0  0  0  0  0  0  0  0  0  0  0  0
    3.0613   -7.3456    0.0000 O   0  0  0  0  0  0  0  0  0  0  0  0
    2.0046   -4.9721    0.0000 N   0  0  0  0  0  0  0  0  0  0  0  0
    3.3037   -4.2221    0.0000 C   0  0  0  0  0  0  0  0  0  0  0  0
    2.9918   -2.7549    0.0000 C   0  0  0  0  0  0  0  0  0  0  0  0
    1.5000   -2.5981    0.0000 N   0  0  0  0  0  0  0  0  0  0  0  0
    0.7500   -1.2990    0.0000 C   0  0  0  0  0  0  0  0  0  0  0  0
    1.5000    0.0000    0.0000 N   0  0  0  0  0  0  0  0  0  0  0  0
    0.7500    1.2990    0.0000 N   0  0  0  0  0  0  0  0  0  0  0  0
   -0.7500    1.2990    0.0000 N   0  0  0  0  0  0  0  0  0  0  0  0
   -1.5000    0.0000    0.0000 N   0  0  0  0  0  0  0  0  0  0  0  0
   -0.7500   -1.2990    0.0000 N   0  0  0  0  0  0  0  0  0  0  0  0
    0.8899   -3.9684    0.0000 C   0  0  0  0  0  0  0  0  0  0  0  0
  1  2  3  0
  2  3  1  0
  3  4  2  0
  3  5  1  0
  5  6  1  0
  6  7  1  0
  7  8  1  0
  8  9  1  0
  9 10  2  0
 10 11  1  0
 11 12  2  0
 12 13  1  0
 13 14  2  0
  8 15  1  0
 15  5  1  0
 14  9  1  0
M  END
>  <Title>  (156) 
idAAEBgen10

$$$$

     RDKit          2D

 69 73  0  0  0  0  0  0  0  0999 V2000
    4.1356   -0.3942    0.0000 C   0  0  0  0  0  0  0  0  0  0  0  0
    3.6975   -1.8288    0.0000 C   0  0  0  0  0  0  0  0  0  0  0  0
    2.2395   -1.4764    0.0000 C   0  0  0  0  0  0  0  0  0  0  0  0
    0.7500   -1.2990    0.0000 C   0  0  0  0  0  0  0  0  0  0  0  0
    1.5000    0.0000    0.0000 C   0  0  0  0  0  0  0  0  0  0  0  0
    0.7500    1.2990    0.0000 C   0  0  0  0  0  0  0  0  0  0  0  0
   -0.7500    1.2990    0.0000 C   0  0  0  0  0  0  0  0  0  0  0  0
   -1.5000    0.0000    0.0000 C   0  0  0  0  0  0  0  0  0  0  0  0
   -0.7500   -1.2990    0.0000 C   0  0  0  0  0  0  0  0  0  0  0  0
   -2.2395   -1.4764    0.0000 C   0  0  0  0  0  0  0  0  0  0  0  0
   -3.6975   -1.8288    0.0000 C   0  0  0  0  0  0  0  0  0  0  0  0
   -5.1036   -2.3511    0.0000 C   0  0  0  0  0  0  0  0  0  0  0  0
   -6.4381   -3.0360    0.0000 C   0  0  0  0  0  0  0  0  0  0  0  0
   -7.6822   -3.8740    0.0000 C   0  0  0  0  0  0  0  0  0  0  0  0
   -8.8185   -4.8532    0.0000 C   0  0  0  0  0  0  0  0  0  0  0  0
   -9.8310   -5.9600    0.0000 C   0  0  0  0  0  0  0  0  0  0  0  0
  -10.7054   -7.1787    0.0000 C   0  0  0  0  0  0  0  0  0  0  0  0
  -11.4296   -8.4923    0.0000 C   0  0  0  0  0  0  0  0  0  0  0  0
  -11.9934   -9.8823    0.0000 C   0  0  0  0  0  0  0  0  0  0  0  0
  -12.3888  -11.3293    0.0000 C   0  0  0  0  0  0  0  0  0  0  0  0
  -12.6102  -12.8129    0.0000 C   0  0  0  0  0  0  0  0  0  0  0  0
  -12.6547  -14.3122    0.0000 C   0  0  0  0  0  0  0  0  0  0  0  0
  -12.5215  -15.8063    0.0000 C   0  0  0  0  0  0  0  0  0  0  0  0
  -12.2125  -17.2741    0.0000 C   0  0  0  0  0  0  0  0  0  0  0  0
  -11.7321  -18.6951    0.0000 C   0  0  0  0  0  0  0  0  0  0  0  0
  -11.0870  -20.0493    0.0000 C   0  0  0  0  0  0  0  0  0  0  0  0
  -10.2863  -21.3177    0.0000 C   0  0  0  0  0  0  0  0  0  0  0  0
   -9.3411  -22.4825    0.0000 C   0  0  0  0  0  0  0  0  0  0  0  0
   -8.2649  -23.5273    0.0000 C   0  0  0  0  0  0  0  0  0  0  0  0
   -7.0726  -24.4375    0.0000 C   0  0  0  0  0  0  0  0  0  0  0  0
   -5.7810  -25.2003    0.0000 C   0  0  0  0  0  0  0  0  0  0  0  0
   -4.4083  -25.8050    0.0000 C   0  0  0  0  0  0  0  0  0  0  0  0
   -2.9737  -26.2431    0.0000 C   0  0  0  0  0  0  0  0  0  0  0  0
   -1.4974  -26.5084    0.0000 C   0  0  0  0  0  0  0  0  0  0  0  0
   -0.0000  -26.5973    0.0000 C   0  0  0  0  0  0  0  0  0  0  0  0
    1.4974  -26.5084    0.0000 C   0  0  0  0  0  0  0  0  0  0  0  0
    2.9737  -26.2431    0.0000 C   0  0  0  0  0  0  0  0  0  0  0  0
    4.4083  -25.8050    0.0000 C   0  0  0  0  0  0  0  0  0  0  0  0
    5.7810  -25.2003    0.0000 C   0  0  0  0  0  0  0  0  0  0  0  0
    7.0726  -24.4375    0.0000 C   0  0  0  0  0  0  0  0  0  0  0  0
    8.2649  -23.5273    0.0000 C   0  0  0  0  0  0  0  0  0  0  0  0
    9.3411  -22.4825    0.0000 C   0  0  0  0  0  0  0  0  0  0  0  0
   10.2863  -21.3177    0.0000 C   0  0  0  0  0  0  0  0  0  0  0  0
   11.0870  -20.0493    0.0000 C   0  0  0  0  0  0  0  0  0  0  0  0
   11.7321  -18.6951    0.0000 C   0  0  0  0  0  0  0  0  0  0  0  0
   12.2125  -17.2741    0.0000 C   0  0  0  0  0  0  0  0  0  0  0  0
   12.5215  -15.8063    0.0000 C   0  0  0  0  0  0  0  0  0  0  0  0
   12.6547  -14.3122    0.0000 C   0  0  0  0  0  0  0  0  0  0  0  0
   12.6102  -12.8129    0.0000 C   0  0  0  0  0  0  0  0  0  0  0  0
   12.3888  -11.3293    0.0000 C   0  0  0  0  0  0  0  0  0  0  0  0
   11.9934   -9.8823    0.0000 C   0  0  0  0  0  0  0  0  0  0  0  0
   11.4296   -8.4923    0.0000 C   0  0  0  0  0  0  0  0  0  0  0  0
   10.7054   -7.1787    0.0000 C   0  0  0  0  0  0  0  0  0  0  0  0
   12.1347   -6.7236    0.0000 C   0  0  0  0  0  0  0  0  0  0  0  0
   12.1436   -5.2237    0.0000 C   0  0  0  0  0  0  0  0  0  0  0  0
   10.7198   -4.7517    0.0000 C   0  0  0  0  0  0  0  0  0  0  0  0
    9.8310   -5.9600    0.0000 C   0  0  0  0  0  0  0  0  0  0  0  0
    8.8185   -4.8532    0.0000 C   0  0  0  0  0  0  0  0  0  0  0  0
    9.7044   -3.9018    0.0000 C   0  0  0  0  0  0  0  0  0  0  0  0
    9.8537   -3.1159    0.0000 C   0  0  0  0  0  0  0  0  0  0  0  0
    9.2477   -2.5936    0.0000 C   0  0  0  0  0  0  0  0  0  0  0  0
    8.4924   -2.8573    0.0000 C   0  0  0  0  0  0  0  0  0  0  0  0
    7.6822   -3.8740    0.0000 C   0  0  0  0  0  0  0  0  0  0  0  0
    6.4381   -3.0360    0.0000 C   0  0  0  0  0  0  0  0  0  0  0  0
    6.5122   -4.5342    0.0000 C   0  0  0  0  0  0  0  0  0  0  0  0
    5.2518   -5.3474    0.0000 C   0  0  0  0  0  0  0  0  0  0  0  0
    3.9173   -4.6625    0.0000 C   0  0  0  0  0  0  0  0  0  0  0  0
    3.8432   -3.1643    0.0000 C   0  0  0  0  0  0  0  0  0  0  0  0
    5.1036   -2.3511    0.0000 C   0  0  0  0  0  0  0  0  0  0  0  0
  1  2  1  0
  2  3  1  0
  3  4  1  0
  4  5  2  0
  5  6  1  0
  6  7  2  0
  7  8  1  0
  8  9  2  0
  9 10  1  0
 10 11  3  0
 11 12  1  0
 12 13  2  0
 13 14  1  0
 14 15  2  0
 15 16  1  0
 16 17  2  0
 17 18  1  0
 18 19  2  0
 19 20  1  0
 20 21  2  0
 21 22  1  0
 22 23  2  0
 23 24  1  0
 24 25  2  0
 25 26  1  0
 26 27  2  0
 27 28  1  0
 28 29  2  0
 29 30  1  0
 30 31  2  0
 31 32  1  0
 32 33  2  0
 33 34  1  0
 34 35  2  0
 35 36  1  0
 36 37  2  0
 37 38  1  0
 38 39  2  0
 39 40  1  0
 40 41  2  0
 41 42  1  0
 42 43  2  0
 43 44  1  0
 44 45  2  0
 45 46  1  0
 46 47  2  0
 47 48  1  0
 48 49  2  0
 49 50  1  0
 50 51  2  0
 51 52  1  0
 52 53  2  0
 53 54  1  0
 54 55  2  0
 55 56  1  0
 56 57  2  0
 57 58  1  0
 58 59  2  0
 59 60  1  0
 60 61  2  0
 61 62  1  0
 62 63  2  0
 63 64  1  0
 64 65  2  0
 65 66  1  0
 66 67  2  0
 67 68  1  0
 68 69  2  0
 69  2  1  0
  9  4  1  0
 57 53  1  0
 63 58  1  0
 69 64  1  0
M  END
>  <Title>  (157) 
idAAECgen10

$$$$

     RDKit          2D

  7  7  0  0  0  0  0  0  0  0999 V2000
    3.0000    0.0000    0.0000 C   0  0  0  0  0  0  0  0  0  0  0  0
    1.5000    0.0000    0.0000 C   0  0  0  0  0  0  0  0  0  0  0  0
    0.7500   -1.2990    0.0000 C   0  0  0  0  0  0  0  0  0  0  0  0
   -0.7500   -1.2990    0.0000 C   0  0  0  0  0  0  0  0  0  0  0  0
   -1.5000    0.0000    0.0000 C   0  0  0  0  0  0  0  0  0  0  0  0
   -0.7500    1.2990    0.0000 C   0  0  0  0  0  0  0  0  0  0  0  0
    0.7500    1.2990    0.0000 N   0  0  0  0  0  0  0  0  0  0  0  0
  1  2  1  0
  2  3  2  0
  3  4  1  0
  4  5  2  0
  5  6  1  0
  6  7  2  0
  7  2  1  0
M  END
>  <Title>  (158) 
idAAEDgen10

$$$$

     RDKit          2D

109110  0  0  0  0  0  0  0  0999 V2000
   -2.5213    1.5970    0.0000 C   0  0  0  0  0  0  0  0  0  0  0  0
   -2.3843    0.1032    0.0000 C   0  0  0  0  0  0  0  0  0  0  0  0
   -2.2472   -1.3905    0.0000 C   0  0  0  0  0  0  0  0  0  0  0  0
   -3.7361   -1.5730    0.0000 C   0  0  0  0  0  0  0  0  0  0  0  0
   -5.2110   -1.8460    0.0000 C   0  0  0  0  0  0  0  0  0  0  0  0
   -6.6666   -2.2084    0.0000 C   0  0  0  0  0  0  0  0  0  0  0  0
   -8.0973   -2.6589    0.0000 C   0  0  0  0  0  0  0  0  0  0  0  0
   -9.4980   -3.1957    0.0000 C   0  0  0  0  0  0  0  0  0  0  0  0
  -10.8633   -3.8169    0.0000 C   0  0  0  0  0  0  0  0  0  0  0  0
  -12.1882   -4.5202    0.0000 C   0  0  0  0  0  0  0  0  0  0  0  0
  -13.4678   -5.3030    0.0000 C   0  0  0  0  0  0  0  0  0  0  0  0
  -14.6972   -6.1623    0.0000 C   0  0  0  0  0  0  0  0  0  0  0  0
  -15.8720   -7.0950    0.0000 C   0  0  0  0  0  0  0  0  0  0  0  0
  -16.9877   -8.0976    0.0000 C   0  0  0  0  0  0  0  0  0  0  0  0
  -18.0403   -9.1663    0.0000 C   0  0  0  0  0  0  0  0  0  0  0  0
  -19.0257  -10.2972    0.0000 C   0  0  0  0  0  0  0  0  0  0  0  0
  -19.9404  -11.4861    0.0000 C   0  0  0  0  0  0  0  0  0  0  0  0
  -20.7808  -12.7285    0.0000 C   0  0  0  0  0  0  0  0  0  0  0  0
  -21.5440  -14.0198    0.0000 C   0  0  0  0  0  0  0  0  0  0  0  0
  -22.2270  -15.3553    0.0000 C   0  0  0  0  0  0  0  0  0  0  0  0
  -22.8274  -16.7299    0.0000 C   0  0  0  0  0  0  0  0  0  0  0  0
  -23.3428  -18.1386    0.0000 C   0  0  0  0  0  0  0  0  0  0  0  0
  -23.7714  -19.5760    0.0000 C   0  0  0  0  0  0  0  0  0  0  0  0
  -24.1115  -21.0370    0.0000 C   0  0  0  0  0  0  0  0  0  0  0  0
  -24.3620  -22.5159    0.0000 C   0  0  0  0  0  0  0  0  0  0  0  0
  -24.5218  -24.0074    0.0000 C   0  0  0  0  0  0  0  0  0  0  0  0
  -24.5904  -25.5058    0.0000 C   0  0  0  0  0  0  0  0  0  0  0  0
  -24.5675  -27.0056    0.0000 C   0  0  0  0  0  0  0  0  0  0  0  0
  -24.4532  -28.5013    0.0000 C   0  0  0  0  0  0  0  0  0  0  0  0
  -24.2480  -29.9872    0.0000 C   0  0  0  0  0  0  0  0  0  0  0  0
  -23.9526  -31.4578    0.0000 C   0  0  0  0  0  0  0  0  0  0  0  0
  -23.5680  -32.9077    0.0000 C   0  0  0  0  0  0  0  0  0  0  0  0
  -23.0958  -34.3314    0.0000 C   0  0  0  0  0  0  0  0  0  0  0  0
  -22.5377  -35.7237    0.0000 C   0  0  0  0  0  0  0  0  0  0  0  0
  -21.8957  -37.0794    0.0000 C   0  0  0  0  0  0  0  0  0  0  0  0
  -21.1723  -38.3934    0.0000 C   0  0  0  0  0  0  0  0  0  0  0  0
  -20.3701  -39.6608    0.0000 C   0  0  0  0  0  0  0  0  0  0  0  0
  -19.4921  -40.8771    0.0000 C   0  0  0  0  0  0  0  0  0  0  0  0
  -18.5416  -42.0375    0.0000 C   0  0  0  0  0  0  0  0  0  0  0  0
  -17.5222  -43.1378    0.0000 C   0  0  0  0  0  0  0  0  0  0  0  0
  -16.4375  -44.1739    0.0000 C   0  0  0  0  0  0  0  0  0  0  0  0
  -15.2917  -45.1420    0.0000 C   0  0  0  0  0  0  0  0  0  0  0  0
  -14.0890  -46.0384    0.0000 C   0  0  0  0  0  0  0  0  0  0  0  0
  -12.8339  -46.8598    0.0000 C   0  0  0  0  0  0  0  0  0  0  0  0
  -11.5311  -47.6032    0.0000 C   0  0  0  0  0  0  0  0  0  0  0  0
  -10.1854  -48.2658    0.0000 C   0  0  0  0  0  0  0  0  0  0  0  0
   -8.8018  -48.8451    0.0000 C   0  0  0  0  0  0  0  0  0  0  0  0
   -7.3854  -49.3390    0.0000 C   0  0  0  0  0  0  0  0  0  0  0  0
   -5.9416  -49.7456    0.0000 C   0  0  0  0  0  0  0  0  0  0  0  0
   -4.4756  -50.0634    0.0000 C   0  0  0  0  0  0  0  0  0  0  0  0
   -2.9930  -50.2913    0.0000 C   0  0  0  0  0  0  0  0  0  0  0  0
   -1.4993  -50.4284    0.0000 C   0  0  0  0  0  0  0  0  0  0  0  0
    0.0000  -50.4741    0.0000 C   0  0  0  0  0  0  0  0  0  0  0  0
    1.4993  -50.4284    0.0000 C   0  0  0  0  0  0  0  0  0  0  0  0
    2.9930  -50.2913    0.0000 C   0  0  0  0  0  0  0  0  0  0  0  0
    4.4756  -50.0634    0.0000 C   0  0  0  0  0  0  0  0  0  0  0  0
    5.9416  -49.7456    0.0000 C   0  0  0  0  0  0  0  0  0  0  0  0
    7.3854  -49.3390    0.0000 C   0  0  0  0  0  0  0  0  0  0  0  0
    8.8018  -48.8451    0.0000 C   0  0  0  0  0  0  0  0  0  0  0  0
   10.1854  -48.2658    0.0000 C   0  0  0  0  0  0  0  0  0  0  0  0
   11.5311  -47.6032    0.0000 C   0  0  0  0  0  0  0  0  0  0  0  0
   12.8339  -46.8598    0.0000 C   0  0  0  0  0  0  0  0  0  0  0  0
   14.0890  -46.0384    0.0000 C   0  0  0  0  0  0  0  0  0  0  0  0
   15.2917  -45.1420    0.0000 C   0  0  0  0  0  0  0  0  0  0  0  0
   16.4375  -44.1739    0.0000 C   0  0  0  0  0  0  0  0  0  0  0  0
   17.5222  -43.1378    0.0000 C   0  0  0  0  0  0  0  0  0  0  0  0
   18.5416  -42.0375    0.0000 C   0  0  0  0  0  0  0  0  0  0  0  0
   19.4921  -40.8771    0.0000 C   0  0  0  0  0  0  0  0  0  0  0  0
   20.3701  -39.6608    0.0000 C   0  0  0  0  0  0  0  0  0  0  0  0
   21.1723  -38.3934    0.0000 C   0  0  0  0  0  0  0  0  0  0  0  0
   21.8957  -37.0794    0.0000 C   0  0  0  0  0  0  0  0  0  0  0  0
   22.5377  -35.7237    0.0000 C   0  0  0  0  0  0  0  0  0  0  0  0
   23.0958  -34.3314    0.0000 C   0  0  0  0  0  0  0  0  0  0  0  0
   23.5680  -32.9077    0.0000 C   0  0  0  0  0  0  0  0  0  0  0  0
   23.9526  -31.4578    0.0000 C   0  0  0  0  0  0  0  0  0  0  0  0
   24.2480  -29.9872    0.0000 C   0  0  0  0  0  0  0  0  0  0  0  0
   24.4532  -28.5013    0.0000 C   0  0  0  0  0  0  0  0  0  0  0  0
   24.5675  -27.0056    0.0000 C   0  0  0  0  0  0  0  0  0  0  0  0
   24.5904  -25.5058    0.0000 C   0  0  0  0  0  0  0  0  0  0  0  0
   24.5218  -24.0074    0.0000 C   0  0  0  0  0  0  0  0  0  0  0  0
   24.3620  -22.5159    0.0000 C   0  0  0  0  0  0  0  0  0  0  0  0
   24.1115  -21.0370    0.0000 C   0  0  0  0  0  0  0  0  0  0  0  0
   23.7714  -19.5760    0.0000 C   0  0  0  0  0  0  0  0  0  0  0  0
   23.3428  -18.1386    0.0000 C   0  0  0  0  0  0  0  0  0  0  0  0
   22.8274  -16.7299    0.0000 C   0  0  0  0  0  0  0  0  0  0  0  0
   22.2270  -15.3553    0.0000 C   0  0  0  0  0  0  0  0  0  0  0  0
   21.5440  -14.0198    0.0000 C   0  0  0  0  0  0  0  0  0  0  0  0
   20.7808  -12.7285    0.0000 C   0  0  0  0  0  0  0  0  0  0  0  0
   19.9404  -11.4861    0.0000 C   0  0  0  0  0  0  0  0  0  0  0  0
   19.0257  -10.2972    0.0000 C   0  0  0  0  0  0  0  0  0  0  0  0
   18.0403   -9.1663    0.0000 C   0  0  0  0  0  0  0  0  0  0  0  0
   16.9877   -8.0976    0.0000 C   0  0  0  0  0  0  0  0  0  0  0  0
   15.8720   -7.0950    0.0000 C   0  0  0  0  0  0  0  0  0  0  0  0
   14.6972   -6.1623    0.0000 C   0  0  0  0  0  0  0  0  0  0  0  0
   13.4678   -5.3030    0.0000 C   0  0  0  0  0  0  0  0  0  0  0  0
   12.1882   -4.5202    0.0000 C   0  0  0  0  0  0  0  0  0  0  0  0
   10.8633   -3.8169    0.0000 C   0  0  0  0  0  0  0  0  0  0  0  0
    9.4980   -3.1957    0.0000 C   0  0  0  0  0  0  0  0  0  0  0  0
    8.0973   -2.6589    0.0000 C   0  0  0  0  0  0  0  0  0  0  0  0
    6.6666   -2.2084    0.0000 C   0  0  0  0  0  0  0  0  0  0  0  0
    5.2110   -1.8460    0.0000 C   0  0  0  0  0  0  0  0  0  0  0  0
    3.7361   -1.5730    0.0000 C   0  0  0  0  0  0  0  0  0  0  0  0
    2.2472   -1.3905    0.0000 C   0  0  0  0  0  0  0  0  0  0  0  0
    0.7500   -1.2990    0.0000 C   0  0  0  0  0  0  0  0  0  0  0  0
    1.5000    0.0000    0.0000 C   0  0  0  0  0  0  0  0  0  0  0  0
    0.7500    1.2990    0.0000 C   0  0  0  0  0  0  0  0  0  0  0  0
   -0.7500    1.2990    0.0000 C   0  0  0  0  0  0  0  0  0  0  0  0
   -1.5000    0.0000    0.0000 C   0  0  0  0  0  0  0  0  0  0  0  0
   -0.7500   -1.2990    0.0000 C   0  0  0  0  0  0  0  0  0  0  0  0
  1  2  3  0
  2  3  1  0
  3  4  1  0
  4  5  1  0
  5  6  1  0
  6  7  1  0
  7  8  1  0
  8  9  1  0
  9 10  1  0
 10 11  1  0
 11 12  1  0
 12 13  1  0
 13 14  1  0
 14 15  1  0
 15 16  1  0
 16 17  1  0
 17 18  1  0
 18 19  1  0
 19 20  1  0
 20 21  1  0
 21 22  1  0
 22 23  1  0
 23 24  1  0
 24 25  1  0
 25 26  1  0
 26 27  1  0
 27 28  1  0
 28 29  1  0
 29 30  1  0
 30 31  1  0
 31 32  1  0
 32 33  1  0
 33 34  1  0
 34 35  1  0
 35 36  1  0
 36 37  1  0
 37 38  1  0
 38 39  1  0
 39 40  1  0
 40 41  1  0
 41 42  1  0
 42 43  1  0
 43 44  1  0
 44 45  1  0
 45 46  1  0
 46 47  1  0
 47 48  1  0
 48 49  1  0
 49 50  1  0
 50 51  1  0
 51 52  1  0
 52 53  1  0
 53 54  1  0
 54 55  1  0
 55 56  1  0
 56 57  1  0
 57 58  1  0
 58 59  1  0
 59 60  1  0
 60 61  1  0
 61 62  1  0
 62 63  1  0
 63 64  1  0
 64 65  1  0
 65 66  1  0
 66 67  1  0
 67 68  1  0
 68 69  1  0
 69 70  1  0
 70 71  1  0
 71 72  1  0
 72 73  1  0
 73 74  1  0
 74 75  1  0
 75 76  1  0
 76 77  1  0
 77 78  1  0
 78 79  1  0
 79 80  1  0
 80 81  1  0
 81 82  1  0
 82 83  1  0
 83 84  1  0
 84 85  1  0
 85 86  1  0
 86 87  1  0
 87 88  1  0
 88 89  1  0
 89 90  1  0
 90 91  1  0
 91 92  1  0
 92 93  1  0
 93 94  1  0
 94 95  1  0
 95 96  1  0
 96 97  1  0
 97 98  1  0
 98 99  1  0
 99100  1  0
100101  1  0
101102  1  0
102103  1  0
103104  1  0
104105  2  0
105106  1  0
106107  2  0
107108  1  0
108109  2  0
109  3  1  0
109104  1  0
M  END
>  <Title>  (159) 
idAAEEgen10

$$$$

     RDKit          2D

 18 20  0  0  0  0  0  0  0  0999 V2000
    5.8875   -3.9505    0.0000 O   0  0  0  0  0  0  0  0  0  0  0  0
    4.6740   -4.8322    0.0000 C   0  0  0  0  0  0  0  0  0  0  0  0
    4.8308   -6.3240    0.0000 C   0  0  0  0  0  0  0  0  0  0  0  0
    3.8868   -7.4897    0.0000 C   0  0  0  0  0  0  0  0  0  0  0  0
    5.0525   -8.4337    0.0000 C   0  0  0  0  0  0  0  0  0  0  0  0
    5.2093   -9.9255    0.0000 O   0  0  0  0  0  0  0  0  0  0  0  0
    5.9965   -7.2680    0.0000 C   0  0  0  0  0  0  0  0  0  0  0  0
    3.3037   -4.2221    0.0000 N   0  0  0  0  0  0  0  0  0  0  0  0
    2.0046   -4.9721    0.0000 C   0  0  0  0  0  0  0  0  0  0  0  0
    0.8899   -3.9684    0.0000 C   0  0  0  0  0  0  0  0  0  0  0  0
    1.5000   -2.5981    0.0000 N   0  0  0  0  0  0  0  0  0  0  0  0
    0.7500   -1.2990    0.0000 C   0  0  0  0  0  0  0  0  0  0  0  0
    1.5000    0.0000    0.0000 N   0  0  0  0  0  0  0  0  0  0  0  0
    0.7500    1.2990    0.0000 N   0  0  0  0  0  0  0  0  0  0  0  0
   -0.7500    1.2990    0.0000 N   0  0  0  0  0  0  0  0  0  0  0  0
   -1.5000    0.0000    0.0000 N   0  0  0  0  0  0  0  0  0  0  0  0
   -0.7500   -1.2990    0.0000 N   0  0  0  0  0  0  0  0  0  0  0  0
    2.9918   -2.7549    0.0000 C   0  0  0  0  0  0  0  0  0  0  0  0
  1  2  2  0
  2  3  1  0
  3  4  1  0
  4  5  2  0
  5  6  1  0
  5  7  1  0
  2  8  1  0
  8  9  1  0
  9 10  1  0
 10 11  1  0
 11 12  1  0
 12 13  2  0
 13 14  1  0
 14 15  2  0
 15 16  1  0
 16 17  2  0
 11 18  1  0
  7  3  1  0
 18  8  1  0
 17 12  1  0
M  END
>  <Title>  (160) 
idAAEFgen10

$$$$

     RDKit          2D

 95 95  0  0  0  0  0  0  0  0999 V2000
   22.6837    0.0000    0.0000 C   0  0  0  0  0  0  0  0  0  0  0  0
   22.6341    1.4992    0.0000 C   0  0  0  0  0  0  0  0  0  0  0  0
   22.4856    2.9918    0.0000 C   0  0  0  0  0  0  0  0  0  0  0  0
   22.2387    4.4713    0.0000 C   0  0  0  0  0  0  0  0  0  0  0  0
   21.8945    5.9313    0.0000 C   0  0  0  0  0  0  0  0  0  0  0  0
   21.4546    7.3654    0.0000 C   0  0  0  0  0  0  0  0  0  0  0  0
   20.9210    8.7672    0.0000 C   0  0  0  0  0  0  0  0  0  0  0  0
   20.2958   10.1307    0.0000 C   0  0  0  0  0  0  0  0  0  0  0  0
   19.5819   11.4500    0.0000 C   0  0  0  0  0  0  0  0  0  0  0  0
   18.7823   12.7191    0.0000 C   0  0  0  0  0  0  0  0  0  0  0  0
   17.9006   13.9326    0.0000 C   0  0  0  0  0  0  0  0  0  0  0  0
   16.9407   15.0852    0.0000 C   0  0  0  0  0  0  0  0  0  0  0  0
   15.9067   16.1719    0.0000 C   0  0  0  0  0  0  0  0  0  0  0  0
   14.8031   17.1878    0.0000 C   0  0  0  0  0  0  0  0  0  0  0  0
   13.6348   18.1286    0.0000 C   0  0  0  0  0  0  0  0  0  0  0  0
   12.4068   18.9900    0.0000 C   0  0  0  0  0  0  0  0  0  0  0  0
   11.1246   19.7685    0.0000 C   0  0  0  0  0  0  0  0  0  0  0  0
    9.7938   20.4605    0.0000 C   0  0  0  0  0  0  0  0  0  0  0  0
    8.4201   21.0631    0.0000 C   0  0  0  0  0  0  0  0  0  0  0  0
    7.0097   21.5735    0.0000 C   0  0  0  0  0  0  0  0  0  0  0  0
    5.5685   21.9896    0.0000 C   0  0  0  0  0  0  0  0  0  0  0  0
    4.1030   22.3095    0.0000 C   0  0  0  0  0  0  0  0  0  0  0  0
    2.6196   22.5319    0.0000 C   0  0  0  0  0  0  0  0  0  0  0  0
    1.1247   22.6558    0.0000 C   0  0  0  0  0  0  0  0  0  0  0  0
   -0.3751   22.6806    0.0000 C   0  0  0  0  0  0  0  0  0  0  0  0
   -1.8732   22.6062    0.0000 C   0  0  0  0  0  0  0  0  0  0  0  0
   -3.3632   22.4330    0.0000 C   0  0  0  0  0  0  0  0  0  0  0  0
   -4.8384   22.1617    0.0000 C   0  0  0  0  0  0  0  0  0  0  0  0
   -6.2925   21.7935    0.0000 C   0  0  0  0  0  0  0  0  0  0  0  0
   -7.7191   21.3299    0.0000 C   0  0  0  0  0  0  0  0  0  0  0  0
   -9.1119   20.7731    0.0000 C   0  0  0  0  0  0  0  0  0  0  0  0
  -10.4649   20.1255    0.0000 C   0  0  0  0  0  0  0  0  0  0  0  0
  -11.7722   19.3899    0.0000 C   0  0  0  0  0  0  0  0  0  0  0  0
  -13.0279   18.5695    0.0000 C   0  0  0  0  0  0  0  0  0  0  0  0
  -14.2267   17.6678    0.0000 C   0  0  0  0  0  0  0  0  0  0  0  0
  -15.3633   16.6890    0.0000 C   0  0  0  0  0  0  0  0  0  0  0  0
  -16.4327   15.6371    0.0000 C   0  0  0  0  0  0  0  0  0  0  0  0
  -17.4302   14.5169    0.0000 C   0  0  0  0  0  0  0  0  0  0  0  0
  -18.3515   13.3332    0.0000 C   0  0  0  0  0  0  0  0  0  0  0  0
  -19.1926   12.0911    0.0000 C   0  0  0  0  0  0  0  0  0  0  0  0
  -19.9497   10.7963    0.0000 C   0  0  0  0  0  0  0  0  0  0  0  0
  -20.6196    9.4542    0.0000 C   0  0  0  0  0  0  0  0  0  0  0  0
  -21.1994    8.0707    0.0000 C   0  0  0  0  0  0  0  0  0  0  0  0
  -21.6864    6.6520    0.0000 C   0  0  0  0  0  0  0  0  0  0  0  0
  -22.0787    5.2042    0.0000 C   0  0  0  0  0  0  0  0  0  0  0  0
  -22.3743    3.7336    0.0000 C   0  0  0  0  0  0  0  0  0  0  0  0
  -22.5722    2.2467    0.0000 C   0  0  0  0  0  0  0  0  0  0  0  0
  -22.6713    0.7500    0.0000 C   0  0  0  0  0  0  0  0  0  0  0  0
  -22.6713   -0.7500    0.0000 C   0  0  0  0  0  0  0  0  0  0  0  0
  -22.5722   -2.2467    0.0000 C   0  0  0  0  0  0  0  0  0  0  0  0
  -22.3743   -3.7336    0.0000 C   0  0  0  0  0  0  0  0  0  0  0  0
  -22.0787   -5.2042    0.0000 C   0  0  0  0  0  0  0  0  0  0  0  0
  -21.6864   -6.6520    0.0000 C   0  0  0  0  0  0  0  0  0  0  0  0
  -21.1994   -8.0707    0.0000 C   0  0  0  0  0  0  0  0  0  0  0  0
  -20.6196   -9.4542    0.0000 C   0  0  0  0  0  0  0  0  0  0  0  0
  -19.9497  -10.7963    0.0000 C   0  0  0  0  0  0  0  0  0  0  0  0
  -19.1926  -12.0911    0.0000 C   0  0  0  0  0  0  0  0  0  0  0  0
  -18.3515  -13.3332    0.0000 C   0  0  0  0  0  0  0  0  0  0  0  0
  -17.4302  -14.5169    0.0000 C   0  0  0  0  0  0  0  0  0  0  0  0
  -16.4327  -15.6371    0.0000 C   0  0  0  0  0  0  0  0  0  0  0  0
  -15.3633  -16.6890    0.0000 C   0  0  0  0  0  0  0  0  0  0  0  0
  -14.2267  -17.6678    0.0000 C   0  0  0  0  0  0  0  0  0  0  0  0
  -13.0279  -18.5695    0.0000 C   0  0  0  0  0  0  0  0  0  0  0  0
  -11.7722  -19.3899    0.0000 C   0  0  0  0  0  0  0  0  0  0  0  0
  -10.4649  -20.1255    0.0000 C   0  0  0  0  0  0  0  0  0  0  0  0
   -9.1119  -20.7731    0.0000 C   0  0  0  0  0  0  0  0  0  0  0  0
   -7.7191  -21.3299    0.0000 C   0  0  0  0  0  0  0  0  0  0  0  0
   -6.2925  -21.7935    0.0000 C   0  0  0  0  0  0  0  0  0  0  0  0
   -4.8384  -22.1617    0.0000 C   0  0  0  0  0  0  0  0  0  0  0  0
   -3.3632  -22.4330    0.0000 C   0  0  0  0  0  0  0  0  0  0  0  0
   -1.8732  -22.6062    0.0000 C   0  0  0  0  0  0  0  0  0  0  0  0
   -0.3751  -22.6806    0.0000 C   0  0  0  0  0  0  0  0  0  0  0  0
    1.1247  -22.6558    0.0000 C   0  0  0  0  0  0  0  0  0  0  0  0
    2.6196  -22.5319    0.0000 C   0  0  0  0  0  0  0  0  0  0  0  0
    4.1030  -22.3095    0.0000 C   0  0  0  0  0  0  0  0  0  0  0  0
    5.5685  -21.9896    0.0000 C   0  0  0  0  0  0  0  0  0  0  0  0
    7.0097  -21.5735    0.0000 C   0  0  0  0  0  0  0  0  0  0  0  0
    8.4201  -21.0631    0.0000 C   0  0  0  0  0  0  0  0  0  0  0  0
    9.7938  -20.4605    0.0000 C   0  0  0  0  0  0  0  0  0  0  0  0
   11.1246  -19.7685    0.0000 C   0  0  0  0  0  0  0  0  0  0  0  0
   12.4068  -18.9900    0.0000 C   0  0  0  0  0  0  0  0  0  0  0  0
   13.6348  -18.1286    0.0000 C   0  0  0  0  0  0  0  0  0  0  0  0
   14.8031  -17.1878    0.0000 C   0  0  0  0  0  0  0  0  0  0  0  0
   15.9067  -16.1719    0.0000 C   0  0  0  0  0  0  0  0  0  0  0  0
   16.9407  -15.0852    0.0000 C   0  0  0  0  0  0  0  0  0  0  0  0
   17.9006  -13.9326    0.0000 C   0  0  0  0  0  0  0  0  0  0  0  0
   18.7823  -12.7191    0.0000 C   0  0  0  0  0  0  0  0  0  0  0  0
   19.5819  -11.4500    0.0000 C   0  0  0  0  0  0  0  0  0  0  0  0
   20.2958  -10.1307    0.0000 C   0  0  0  0  0  0  0  0  0  0  0  0
   20.9210   -8.7672    0.0000 C   0  0  0  0  0  0  0  0  0  0  0  0
   21.4546   -7.3654    0.0000 C   0  0  0  0  0  0  0  0  0  0  0  0
   21.8945   -5.9313    0.0000 C   0  0  0  0  0  0  0  0  0  0  0  0
   22.2387   -4.4713    0.0000 C   0  0  0  0  0  0  0  0  0  0  0  0
   22.4856   -2.9918    0.0000 C   0  0  0  0  0  0  0  0  0  0  0  0
   22.6341   -1.4992    0.0000 C   0  0  0  0  0  0  0  0  0  0  0  0
  1  2  1  0
  2  3  1  0
  3  4  1  0
  4  5  1  0
  5  6  1  0
  6  7  1  0
  7  8  1  0
  8  9  1  0
  9 10  1  0
 10 11  1  0
 11 12  1  0
 12 13  1  0
 13 14  1  0
 14 15  1  0
 15 16  1  0
 16 17  1  0
 17 18  1  0
 18 19  1  0
 19 20  1  0
 20 21  1  0
 21 22  1  0
 22 23  1  0
 23 24  1  0
 24 25  1  0
 25 26  1  0
 26 27  1  0
 27 28  1  0
 28 29  1  0
 29 30  1  0
 30 31  1  0
 31 32  1  0
 32 33  1  0
 33 34  1  0
 34 35  1  0
 35 36  1  0
 36 37  1  0
 37 38  1  0
 38 39  1  0
 39 40  1  0
 40 41  1  0
 41 42  1  0
 42 43  1  0
 43 44  1  0
 44 45  1  0
 45 46  1  0
 46 47  1  0
 47 48  1  0
 48 49  1  0
 49 50  1  0
 50 51  1  0
 51 52  1  0
 52 53  1  0
 53 54  1  0
 54 55  1  0
 55 56  1  0
 56 57  1  0
 57 58  1  0
 58 59  1  0
 59 60  1  0
 60 61  1  0
 61 62  1  0
 62 63  1  0
 63 64  1  0
 64 65  1  0
 65 66  1  0
 66 67  1  0
 67 68  1  0
 68 69  1  0
 69 70  1  0
 70 71  1  0
 71 72  1  0
 72 73  1  0
 73 74  1  0
 74 75  1  0
 75 76  1  0
 76 77  1  0
 77 78  1  0
 78 79  1  0
 79 80  1  0
 80 81  1  0
 81 82  1  0
 82 83  1  0
 83 84  1  0
 84 85  1  0
 85 86  1  0
 86 87  1  0
 87 88  1  0
 88 89  1  0
 89 90  1  0
 90 91  1  0
 91 92  1  0
 92 93  1  0
 93 94  1  0
 94 95  1  0
 95  1  1  0
M  END
>  <Title>  (161) 
idAAEGgen10

$$$$

     RDKit          2D

  7  7  0  0  0  0  0  0  0  0999 V2000
    2.7760    0.0000    0.0000 C   0  0  0  0  0  0  0  0  0  0  0  0
    1.2760    0.0000    0.0000 C   0  0  0  0  0  0  0  0  0  0  0  0
    0.3943    1.2135    0.0000 C   0  0  0  0  0  0  0  0  0  0  0  0
   -1.0323    0.7500    0.0000 C   0  0  0  0  0  0  0  0  0  0  0  0
   -1.0323   -0.7500    0.0000 C   0  0  0  0  0  0  0  0  0  0  0  0
   -2.2458   -1.6317    0.0000 C   0  0  0  0  0  0  0  0  0  0  0  0
    0.3943   -1.2135    0.0000 C   0  0  0  0  0  0  0  0  0  0  0  0
  1  2  1  0
  2  3  1  0
  3  4  2  0
  4  5  1  0
  5  6  1  0
  5  7  1  0
  7  2  1  0
M  END
>  <Title>  (162) 
idAAEHgen10

$$$$

     RDKit          2D

120120  0  0  0  0  0  0  0  0999 V2000
   31.1738   -0.0000    0.0000 N   0  0  0  0  0  0  0  0  0  0  0  0
   29.6738    0.0000    0.0000 C   0  0  0  0  0  0  0  0  0  0  0  0
   28.1738    0.0000    0.0000 C   0  0  0  0  0  0  0  0  0  0  0  0
   28.1338   -1.4995    0.0000 C   0  0  0  0  0  0  0  0  0  0  0  0
   28.0141   -2.9947    0.0000 C   0  0  0  0  0  0  0  0  0  0  0  0
   27.8151   -4.4814    0.0000 C   0  0  0  0  0  0  0  0  0  0  0  0
   27.5371   -5.9554    0.0000 C   0  0  0  0  0  0  0  0  0  0  0  0
   27.1811   -7.4126    0.0000 C   0  0  0  0  0  0  0  0  0  0  0  0
   26.7481   -8.8487    0.0000 C   0  0  0  0  0  0  0  0  0  0  0  0
   26.2392  -10.2598    0.0000 C   0  0  0  0  0  0  0  0  0  0  0  0
   25.6560  -11.6417    0.0000 C   0  0  0  0  0  0  0  0  0  0  0  0
   25.0000  -12.9907    0.0000 C   0  0  0  0  0  0  0  0  0  0  0  0
   24.2732  -14.3029    0.0000 C   0  0  0  0  0  0  0  0  0  0  0  0
   23.4776  -15.5745    0.0000 C   0  0  0  0  0  0  0  0  0  0  0  0
   22.6154  -16.8019    0.0000 C   0  0  0  0  0  0  0  0  0  0  0  0
   21.6891  -17.9817    0.0000 C   0  0  0  0  0  0  0  0  0  0  0  0
   20.7013  -19.1106    0.0000 C   0  0  0  0  0  0  0  0  0  0  0  0
   19.6549  -20.1853    0.0000 C   0  0  0  0  0  0  0  0  0  0  0  0
   18.5527  -21.2027    0.0000 C   0  0  0  0  0  0  0  0  0  0  0  0
   17.3980  -22.1601    0.0000 C   0  0  0  0  0  0  0  0  0  0  0  0
   16.1939  -23.0547    0.0000 C   0  0  0  0  0  0  0  0  0  0  0  0
   14.9439  -23.8839    0.0000 C   0  0  0  0  0  0  0  0  0  0  0  0
   13.6516  -24.6454    0.0000 C   0  0  0  0  0  0  0  0  0  0  0  0
   12.3206  -25.3370    0.0000 C   0  0  0  0  0  0  0  0  0  0  0  0
   10.9546  -25.9568    0.0000 C   0  0  0  0  0  0  0  0  0  0  0  0
    9.5576  -26.5031    0.0000 C   0  0  0  0  0  0  0  0  0  0  0  0
    8.1335  -26.9742    0.0000 C   0  0  0  0  0  0  0  0  0  0  0  0
    6.6864  -27.3688    0.0000 C   0  0  0  0  0  0  0  0  0  0  0  0
    5.2203  -27.6859    0.0000 C   0  0  0  0  0  0  0  0  0  0  0  0
    3.7394  -27.9245    0.0000 C   0  0  0  0  0  0  0  0  0  0  0  0
    2.2479  -28.0839    0.0000 C   0  0  0  0  0  0  0  0  0  0  0  0
    0.7500  -28.1638    0.0000 C   0  0  0  0  0  0  0  0  0  0  0  0
   -0.7500  -28.1638    0.0000 C   0  0  0  0  0  0  0  0  0  0  0  0
   -2.2479  -28.0839    0.0000 C   0  0  0  0  0  0  0  0  0  0  0  0
   -3.7394  -27.9245    0.0000 C   0  0  0  0  0  0  0  0  0  0  0  0
   -5.2203  -27.6859    0.0000 C   0  0  0  0  0  0  0  0  0  0  0  0
   -6.6864  -27.3688    0.0000 C   0  0  0  0  0  0  0  0  0  0  0  0
   -8.1335  -26.9742    0.0000 C   0  0  0  0  0  0  0  0  0  0  0  0
   -9.5576  -26.5031    0.0000 C   0  0  0  0  0  0  0  0  0  0  0  0
  -10.9546  -25.9568    0.0000 C   0  0  0  0  0  0  0  0  0  0  0  0
  -12.3206  -25.3370    0.0000 C   0  0  0  0  0  0  0  0  0  0  0  0
  -13.6516  -24.6454    0.0000 C   0  0  0  0  0  0  0  0  0  0  0  0
  -14.9439  -23.8839    0.0000 C   0  0  0  0  0  0  0  0  0  0  0  0
  -16.1939  -23.0547    0.0000 C   0  0  0  0  0  0  0  0  0  0  0  0
  -17.3980  -22.1601    0.0000 C   0  0  0  0  0  0  0  0  0  0  0  0
  -18.5527  -21.2027    0.0000 C   0  0  0  0  0  0  0  0  0  0  0  0
  -19.6549  -20.1853    0.0000 C   0  0  0  0  0  0  0  0  0  0  0  0
  -20.7013  -19.1106    0.0000 C   0  0  0  0  0  0  0  0  0  0  0  0
  -21.6891  -17.9817    0.0000 C   0  0  0  0  0  0  0  0  0  0  0  0
  -22.6154  -16.8019    0.0000 C   0  0  0  0  0  0  0  0  0  0  0  0
  -23.4776  -15.5745    0.0000 C   0  0  0  0  0  0  0  0  0  0  0  0
  -24.2732  -14.3029    0.0000 C   0  0  0  0  0  0  0  0  0  0  0  0
  -25.0000  -12.9907    0.0000 C   0  0  0  0  0  0  0  0  0  0  0  0
  -25.6560  -11.6417    0.0000 C   0  0  0  0  0  0  0  0  0  0  0  0
  -26.2392  -10.2598    0.0000 C   0  0  0  0  0  0  0  0  0  0  0  0
  -26.7481   -8.8487    0.0000 C   0  0  0  0  0  0  0  0  0  0  0  0
  -27.1811   -7.4126    0.0000 C   0  0  0  0  0  0  0  0  0  0  0  0
  -27.5371   -5.9554    0.0000 C   0  0  0  0  0  0  0  0  0  0  0  0
  -27.8151   -4.4814    0.0000 C   0  0  0  0  0  0  0  0  0  0  0  0
  -28.0141   -2.9947    0.0000 C   0  0  0  0  0  0  0  0  0  0  0  0
  -28.1338   -1.4995    0.0000 C   0  0  0  0  0  0  0  0  0  0  0  0
  -28.1738    0.0000    0.0000 C   0  0  0  0  0  0  0  0  0  0  0  0
  -28.1338    1.4995    0.0000 C   0  0  0  0  0  0  0  0  0  0  0  0
  -28.0141    2.9947    0.0000 C   0  0  0  0  0  0  0  0  0  0  0  0
  -27.8151    4.4814    0.0000 C   0  0  0  0  0  0  0  0  0  0  0  0
  -27.5371    5.9554    0.0000 C   0  0  0  0  0  0  0  0  0  0  0  0
  -27.1811    7.4126    0.0000 C   0  0  0  0  0  0  0  0  0  0  0  0
  -26.7481    8.8487    0.0000 C   0  0  0  0  0  0  0  0  0  0  0  0
  -26.2392   10.2598    0.0000 C   0  0  0  0  0  0  0  0  0  0  0  0
  -25.6560   11.6417    0.0000 C   0  0  0  0  0  0  0  0  0  0  0  0
  -25.0000   12.9907    0.0000 C   0  0  0  0  0  0  0  0  0  0  0  0
  -24.2732   14.3029    0.0000 C   0  0  0  0  0  0  0  0  0  0  0  0
  -23.4776   15.5745    0.0000 C   0  0  0  0  0  0  0  0  0  0  0  0
  -22.6154   16.8019    0.0000 C   0  0  0  0  0  0  0  0  0  0  0  0
  -21.6891   17.9817    0.0000 C   0  0  0  0  0  0  0  0  0  0  0  0
  -20.7013   19.1106    0.0000 C   0  0  0  0  0  0  0  0  0  0  0  0
  -19.6549   20.1853    0.0000 C   0  0  0  0  0  0  0  0  0  0  0  0
  -18.5527   21.2027    0.0000 C   0  0  0  0  0  0  0  0  0  0  0  0
  -17.3980   22.1601    0.0000 C   0  0  0  0  0  0  0  0  0  0  0  0
  -16.1939   23.0547    0.0000 C   0  0  0  0  0  0  0  0  0  0  0  0
  -14.9439   23.8839    0.0000 C   0  0  0  0  0  0  0  0  0  0  0  0
  -13.6516   24.6454    0.0000 C   0  0  0  0  0  0  0  0  0  0  0  0
  -12.3206   25.3370    0.0000 C   0  0  0  0  0  0  0  0  0  0  0  0
  -10.9546   25.9568    0.0000 C   0  0  0  0  0  0  0  0  0  0  0  0
   -9.5576   26.5031    0.0000 C   0  0  0  0  0  0  0  0  0  0  0  0
   -8.1335   26.9742    0.0000 C   0  0  0  0  0  0  0  0  0  0  0  0
   -6.6864   27.3688    0.0000 C   0  0  0  0  0  0  0  0  0  0  0  0
   -5.2203   27.6859    0.0000 C   0  0  0  0  0  0  0  0  0  0  0  0
   -3.7394   27.9245    0.0000 C   0  0  0  0  0  0  0  0  0  0  0  0
   -2.2479   28.0839    0.0000 C   0  0  0  0  0  0  0  0  0  0  0  0
   -0.7500   28.1638    0.0000 C   0  0  0  0  0  0  0  0  0  0  0  0
    0.7500   28.1638    0.0000 C   0  0  0  0  0  0  0  0  0  0  0  0
    2.2479   28.0839    0.0000 C   0  0  0  0  0  0  0  0  0  0  0  0
    3.7394   27.9245    0.0000 C   0  0  0  0  0  0  0  0  0  0  0  0
    5.2203   27.6859    0.0000 C   0  0  0  0  0  0  0  0  0  0  0  0
    6.6864   27.3688    0.0000 C   0  0  0  0  0  0  0  0  0  0  0  0
    8.1335   26.9742    0.0000 C   0  0  0  0  0  0  0  0  0  0  0  0
    9.5576   26.5031    0.0000 C   0  0  0  0  0  0  0  0  0  0  0  0
   10.9546   25.9568    0.0000 C   0  0  0  0  0  0  0  0  0  0  0  0
   12.3206   25.3370    0.0000 C   0  0  0  0  0  0  0  0  0  0  0  0
   13.6516   24.6454    0.0000 C   0  0  0  0  0  0  0  0  0  0  0  0
   14.9439   23.8839    0.0000 C   0  0  0  0  0  0  0  0  0  0  0  0
   16.1939   23.0547    0.0000 C   0  0  0  0  0  0  0  0  0  0  0  0
   17.3980   22.1601    0.0000 C   0  0  0  0  0  0  0  0  0  0  0  0
   18.5527   21.2027    0.0000 C   0  0  0  0  0  0  0  0  0  0  0  0
   19.6549   20.1853    0.0000 C   0  0  0  0  0  0  0  0  0  0  0  0
   20.7013   19.1106    0.0000 C   0  0  0  0  0  0  0  0  0  0  0  0
   21.6891   17.9817    0.0000 C   0  0  0  0  0  0  0  0  0  0  0  0
   22.6154   16.8019    0.0000 C   0  0  0  0  0  0  0  0  0  0  0  0
   23.4776   15.5745    0.0000 C   0  0  0  0  0  0  0  0  0  0  0  0
   24.2732   14.3029    0.0000 C   0  0  0  0  0  0  0  0  0  0  0  0
   25.0000   12.9907    0.0000 C   0  0  0  0  0  0  0  0  0  0  0  0
   25.6560   11.6417    0.0000 C   0  0  0  0  0  0  0  0  0  0  0  0
   26.2392   10.2598    0.0000 C   0  0  0  0  0  0  0  0  0  0  0  0
   26.7481    8.8487    0.0000 C   0  0  0  0  0  0  0  0  0  0  0  0
   27.1811    7.4126    0.0000 C   0  0  0  0  0  0  0  0  0  0  0  0
   27.5371    5.9554    0.0000 C   0  0  0  0  0  0  0  0  0  0  0  0
   27.8151    4.4814    0.0000 C   0  0  0  0  0  0  0  0  0  0  0  0
   28.0141    2.9947    0.0000 C   0  0  0  0  0  0  0  0  0  0  0  0
   28.1338    1.4995    0.0000 C   0  0  0  0  0  0  0  0  0  0  0  0
  1  2  3  0
  2  3  1  0
  3  4  1  0
  4  5  1  0
  5  6  1  0
  6  7  1  0
  7  8  1  0
  8  9  1  0
  9 10  1  0
 10 11  1  0
 11 12  1  0
 12 13  1  0
 13 14  1  0
 14 15  1  0
 15 16  1  0
 16 17  1  0
 17 18  1  0
 18 19  1  0
 19 20  1  0
 20 21  1  0
 21 22  1  0
 22 23  1  0
 23 24  1  0
 24 25  1  0
 25 26  1  0
 26 27  1  0
 27 28  1  0
 28 29  1  0
 29 30  1  0
 30 31  1  0
 31 32  1  0
 32 33  1  0
 33 34  1  0
 34 35  1  0
 35 36  1  0
 36 37  1  0
 37 38  1  0
 38 39  1  0
 39 40  1  0
 40 41  1  0
 41 42  1  0
 42 43  1  0
 43 44  1  0
 44 45  1  0
 45 46  1  0
 46 47  1  0
 47 48  1  0
 48 49  1  0
 49 50  1  0
 50 51  1  0
 51 52  1  0
 52 53  1  0
 53 54  1  0
 54 55  1  0
 55 56  1  0
 56 57  1  0
 57 58  1  0
 58 59  1  0
 59 60  1  0
 60 61  1  0
 61 62  1  0
 62 63  1  0
 63 64  1  0
 64 65  1  0
 65 66  1  0
 66 67  1  0
 67 68  1  0
 68 69  1  0
 69 70  1  0
 70 71  1  0
 71 72  1  0
 72 73  1  0
 73 74  1  0
 74 75  1  0
 75 76  1  0
 76 77  1  0
 77 78  1  0
 78 79  1  0
 79 80  1  0
 80 81  1  0
 81 82  1  0
 82 83  1  0
 83 84  1  0
 84 85  1  0
 85 86  1  0
 86 87  1  0
 87 88  1  0
 88 89  1  0
 89 90  1  0
 90 91  1  0
 91 92  1  0
 92 93  1  0
 93 94  1  0
 94 95  1  0
 95 96  1  0
 96 97  1  0
 97 98  1  0
 98 99  1  0
 99100  1  0
100101  1  0
101102  1  0
102103  1  0
103104  1  0
104105  1  0
105106  1  0
106107  1  0
107108  1  0
108109  1  0
109110  1  0
110111  1  0
111112  1  0
112113  1  0
113114  1  0
114115  1  0
115116  1  0
116117  1  0
117118  1  0
118119  1  0
119120  1  0
120  3  1  0
M  END
>  <Title>  (163) 
idAAEIgen10

$$$$

     RDKit          2D

 23 25  0  0  0  0  0  0  0  0999 V2000
   -6.0000  -10.3923    0.0000 C   0  0  0  0  0  0  0  0  0  0  0  0
   -5.2500   -9.0933    0.0000 C   0  0  0  0  0  0  0  0  0  0  0  0
   -6.0000   -7.7942    0.0000 C   0  0  0  0  0  0  0  0  0  0  0  0
   -5.2500   -6.4952    0.0000 C   0  0  0  0  0  0  0  0  0  0  0  0
   -6.0000   -5.1962    0.0000 C   0  0  0  0  0  0  0  0  0  0  0  0
   -7.5000   -5.1962    0.0000 C   0  0  0  0  0  0  0  0  0  0  0  0
   -8.2500   -3.8971    0.0000 C   0  0  0  0  0  0  0  0  0  0  0  0
   -7.5000   -2.5981    0.0000 C   0  0  0  0  0  0  0  0  0  0  0  0
   -6.0000   -2.5981    0.0000 C   0  0  0  0  0  0  0  0  0  0  0  0
   -5.2500   -3.8971    0.0000 C   0  0  0  0  0  0  0  0  0  0  0  0
   -3.7500   -3.8971    0.0000 C   0  0  0  0  0  0  0  0  0  0  0  0
   -3.0000   -5.1962    0.0000 O   0  0  0  0  0  0  0  0  0  0  0  0
   -3.0000   -2.5981    0.0000 N   0  0  0  0  0  0  0  0  0  0  0  0
   -1.5000   -2.5981    0.0000 C   0  0  0  0  0  0  0  0  0  0  0  0
   -0.7500   -3.8971    0.0000 N   0  0  0  0  0  0  0  0  0  0  0  0
    0.7500   -3.8971    0.0000 N   0  0  0  0  0  0  0  0  0  0  0  0
    1.5000   -2.5981    0.0000 N   0  0  0  0  0  0  0  0  0  0  0  0
    0.7500   -1.2990    0.0000 N   0  0  0  0  0  0  0  0  0  0  0  0
    1.5000    0.0000    0.0000 C   0  0  0  0  0  0  0  0  0  0  0  0
    0.7500    1.2990    0.0000 C   0  0  0  0  0  0  0  0  0  0  0  0
   -0.7500    1.2990    0.0000 C   0  0  0  0  0  0  0  0  0  0  0  0
   -1.5000    0.0000    0.0000 C   0  0  0  0  0  0  0  0  0  0  0  0
   -0.7500   -1.2990    0.0000 C   0  0  0  0  0  0  0  0  0  0  0  0
  1  2  2  0
  2  3  1  0
  3  4  2  3
  4  5  1  0
  5  6  2  0
  6  7  1  0
  7  8  2  0
  8  9  1  0
  9 10  2  0
 10 11  1  0
 11 12  2  0
 11 13  1  0
 13 14  1  0
 14 15  2  0
 15 16  1  0
 16 17  2  0
 17 18  1  0
 18 19  1  0
 19 20  1  0
 20 21  2  0
 21 22  1  0
 22 23  2  0
 10  5  1  0
 23 14  1  0
 23 18  1  0
M  END
>  <Title>  (164) 
idAAEJgen10

$$$$

     RDKit          2D

102102  0  0  0  0  0  0  0  0999 V2000
   25.6159   -0.0000    0.0000 O   0  0  0  0  0  0  0  0  0  0  0  0
   24.1159    0.0000    0.0000 C   0  0  0  0  0  0  0  0  0  0  0  0
   24.0692    1.4993    0.0000 C   0  0  0  0  0  0  0  0  0  0  0  0
   23.9294    2.9927    0.0000 C   0  0  0  0  0  0  0  0  0  0  0  0
   23.6971    4.4746    0.0000 C   0  0  0  0  0  0  0  0  0  0  0  0
   23.3731    5.9392    0.0000 C   0  0  0  0  0  0  0  0  0  0  0  0
   22.9586    7.3808    0.0000 C   0  0  0  0  0  0  0  0  0  0  0  0
   22.4553    8.7939    0.0000 C   0  0  0  0  0  0  0  0  0  0  0  0
   21.8652   10.1729    0.0000 C   0  0  0  0  0  0  0  0  0  0  0  0
   21.1904   11.5126    0.0000 C   0  0  0  0  0  0  0  0  0  0  0  0
   20.4337   12.8077    0.0000 C   0  0  0  0  0  0  0  0  0  0  0  0
   19.5979   14.0533    0.0000 C   0  0  0  0  0  0  0  0  0  0  0  0
   18.6863   15.2445    0.0000 C   0  0  0  0  0  0  0  0  0  0  0  0
   17.7025   16.3767    0.0000 C   0  0  0  0  0  0  0  0  0  0  0  0
   16.6501   17.4456    0.0000 C   0  0  0  0  0  0  0  0  0  0  0  0
   15.5333   18.4470    0.0000 C   0  0  0  0  0  0  0  0  0  0  0  0
   14.3564   19.3770    0.0000 C   0  0  0  0  0  0  0  0  0  0  0  0
   13.1240   20.2321    0.0000 C   0  0  0  0  0  0  0  0  0  0  0  0
   11.8407   21.0088    0.0000 C   0  0  0  0  0  0  0  0  0  0  0  0
   10.5117   21.7043    0.0000 C   0  0  0  0  0  0  0  0  0  0  0  0
    9.1420   22.3159    0.0000 C   0  0  0  0  0  0  0  0  0  0  0  0
    7.7370   22.8411    0.0000 C   0  0  0  0  0  0  0  0  0  0  0  0
    6.3020   23.2779    0.0000 C   0  0  0  0  0  0  0  0  0  0  0  0
    4.8426   23.6246    0.0000 C   0  0  0  0  0  0  0  0  0  0  0  0
    3.3645   23.8800    0.0000 C   0  0  0  0  0  0  0  0  0  0  0  0
    1.8734   24.0430    0.0000 C   0  0  0  0  0  0  0  0  0  0  0  0
    0.3750   24.1129    0.0000 C   0  0  0  0  0  0  0  0  0  0  0  0
   -1.1248   24.0896    0.0000 C   0  0  0  0  0  0  0  0  0  0  0  0
   -2.6202   23.9731    0.0000 C   0  0  0  0  0  0  0  0  0  0  0  0
   -4.1056   23.7638    0.0000 C   0  0  0  0  0  0  0  0  0  0  0  0
   -5.5750   23.4626    0.0000 C   0  0  0  0  0  0  0  0  0  0  0  0
   -7.0229   23.0706    0.0000 C   0  0  0  0  0  0  0  0  0  0  0  0
   -8.4436   22.5894    0.0000 C   0  0  0  0  0  0  0  0  0  0  0  0
   -9.8316   22.0208    0.0000 C   0  0  0  0  0  0  0  0  0  0  0  0
  -11.1816   21.3669    0.0000 C   0  0  0  0  0  0  0  0  0  0  0  0
  -12.4884   20.6304    0.0000 C   0  0  0  0  0  0  0  0  0  0  0  0
  -13.7468   19.8141    0.0000 C   0  0  0  0  0  0  0  0  0  0  0  0
  -14.9521   18.9212    0.0000 C   0  0  0  0  0  0  0  0  0  0  0  0
  -16.0995   17.9550    0.0000 C   0  0  0  0  0  0  0  0  0  0  0  0
  -17.1846   16.9194    0.0000 C   0  0  0  0  0  0  0  0  0  0  0  0
  -18.2032   15.8183    0.0000 C   0  0  0  0  0  0  0  0  0  0  0  0
  -19.1514   14.6560    0.0000 C   0  0  0  0  0  0  0  0  0  0  0  0
  -20.0255   13.4370    0.0000 C   0  0  0  0  0  0  0  0  0  0  0  0
  -20.8222   12.1660    0.0000 C   0  0  0  0  0  0  0  0  0  0  0  0
  -21.5382   10.8480    0.0000 C   0  0  0  0  0  0  0  0  0  0  0  0
  -22.1710    9.4880    0.0000 C   0  0  0  0  0  0  0  0  0  0  0  0
  -22.7180    8.0913    0.0000 C   0  0  0  0  0  0  0  0  0  0  0  0
  -23.1771    6.6633    0.0000 C   0  0  0  0  0  0  0  0  0  0  0  0
  -23.5465    5.2095    0.0000 C   0  0  0  0  0  0  0  0  0  0  0  0
  -23.8248    3.7355    0.0000 C   0  0  0  0  0  0  0  0  0  0  0  0
  -24.0109    2.2471    0.0000 C   0  0  0  0  0  0  0  0  0  0  0  0
  -24.1042    0.7500    0.0000 C   0  0  0  0  0  0  0  0  0  0  0  0
  -24.1042   -0.7500    0.0000 C   0  0  0  0  0  0  0  0  0  0  0  0
  -24.0109   -2.2471    0.0000 C   0  0  0  0  0  0  0  0  0  0  0  0
  -23.8248   -3.7355    0.0000 C   0  0  0  0  0  0  0  0  0  0  0  0
  -23.5465   -5.2095    0.0000 C   0  0  0  0  0  0  0  0  0  0  0  0
  -23.1771   -6.6633    0.0000 C   0  0  0  0  0  0  0  0  0  0  0  0
  -22.7180   -8.0913    0.0000 C   0  0  0  0  0  0  0  0  0  0  0  0
  -22.1710   -9.4880    0.0000 C   0  0  0  0  0  0  0  0  0  0  0  0
  -21.5382  -10.8480    0.0000 C   0  0  0  0  0  0  0  0  0  0  0  0
  -20.8222  -12.1660    0.0000 C   0  0  0  0  0  0  0  0  0  0  0  0
  -20.0255  -13.4370    0.0000 C   0  0  0  0  0  0  0  0  0  0  0  0
  -19.1514  -14.6560    0.0000 C   0  0  0  0  0  0  0  0  0  0  0  0
  -18.2032  -15.8183    0.0000 C   0  0  0  0  0  0  0  0  0  0  0  0
  -17.1846  -16.9194    0.0000 C   0  0  0  0  0  0  0  0  0  0  0  0
  -16.0995  -17.9550    0.0000 C   0  0  0  0  0  0  0  0  0  0  0  0
  -14.9521  -18.9212    0.0000 C   0  0  0  0  0  0  0  0  0  0  0  0
  -13.7468  -19.8141    0.0000 C   0  0  0  0  0  0  0  0  0  0  0  0
  -12.4884  -20.6304    0.0000 C   0  0  0  0  0  0  0  0  0  0  0  0
  -11.1816  -21.3669    0.0000 C   0  0  0  0  0  0  0  0  0  0  0  0
   -9.8316  -22.0208    0.0000 C   0  0  0  0  0  0  0  0  0  0  0  0
   -8.4436  -22.5894    0.0000 C   0  0  0  0  0  0  0  0  0  0  0  0
   -7.0229  -23.0706    0.0000 C   0  0  0  0  0  0  0  0  0  0  0  0
   -5.5750  -23.4626    0.0000 C   0  0  0  0  0  0  0  0  0  0  0  0
   -4.1056  -23.7638    0.0000 C   0  0  0  0  0  0  0  0  0  0  0  0
   -2.6202  -23.9731    0.0000 C   0  0  0  0  0  0  0  0  0  0  0  0
   -1.1248  -24.0896    0.0000 C   0  0  0  0  0  0  0  0  0  0  0  0
    0.3750  -24.1129    0.0000 C   0  0  0  0  0  0  0  0  0  0  0  0
    1.8734  -24.0430    0.0000 C   0  0  0  0  0  0  0  0  0  0  0  0
    3.3645  -23.8800    0.0000 C   0  0  0  0  0  0  0  0  0  0  0  0
    4.8426  -23.6246    0.0000 C   0  0  0  0  0  0  0  0  0  0  0  0
    6.3020  -23.2779    0.0000 C   0  0  0  0  0  0  0  0  0  0  0  0
    7.7370  -22.8411    0.0000 C   0  0  0  0  0  0  0  0  0  0  0  0
    9.1420  -22.3159    0.0000 C   0  0  0  0  0  0  0  0  0  0  0  0
   10.5117  -21.7043    0.0000 C   0  0  0  0  0  0  0  0  0  0  0  0
   11.8407  -21.0088    0.0000 C   0  0  0  0  0  0  0  0  0  0  0  0
   13.1240  -20.2321    0.0000 C   0  0  0  0  0  0  0  0  0  0  0  0
   14.3564  -19.3770    0.0000 C   0  0  0  0  0  0  0  0  0  0  0  0
   15.5333  -18.4470    0.0000 C   0  0  0  0  0  0  0  0  0  0  0  0
   16.6501  -17.4456    0.0000 C   0  0  0  0  0  0  0  0  0  0  0  0
   17.7025  -16.3767    0.0000 C   0  0  0  0  0  0  0  0  0  0  0  0
   18.6863  -15.2445    0.0000 C   0  0  0  0  0  0  0  0  0  0  0  0
   19.5979  -14.0533    0.0000 C   0  0  0  0  0  0  0  0  0  0  0  0
   20.4337  -12.8077    0.0000 C   0  0  0  0  0  0  0  0  0  0  0  0
   21.1904  -11.5126    0.0000 C   0  0  0  0  0  0  0  0  0  0  0  0
   21.8652  -10.1729    0.0000 C   0  0  0  0  0  0  0  0  0  0  0  0
   22.4553   -8.7939    0.0000 C   0  0  0  0  0  0  0  0  0  0  0  0
   22.9586   -7.3808    0.0000 C   0  0  0  0  0  0  0  0  0  0  0  0
   23.3731   -5.9392    0.0000 C   0  0  0  0  0  0  0  0  0  0  0  0
   23.6971   -4.4746    0.0000 C   0  0  0  0  0  0  0  0  0  0  0  0
   23.9294   -2.9927    0.0000 C   0  0  0  0  0  0  0  0  0  0  0  0
   24.0692   -1.4993    0.0000 C   0  0  0  0  0  0  0  0  0  0  0  0
  1  2  1  0
  2  3  1  0
  3  4  1  0
  4  5  1  0
  5  6  1  0
  6  7  1  0
  7  8  1  0
  8  9  1  0
  9 10  1  0
 10 11  1  0
 11 12  1  0
 12 13  1  0
 13 14  1  0
 14 15  1  0
 15 16  1  0
 16 17  1  0
 17 18  1  0
 18 19  1  0
 19 20  1  0
 20 21  1  0
 21 22  1  0
 22 23  1  0
 23 24  1  0
 24 25  1  0
 25 26  1  0
 26 27  1  0
 27 28  1  0
 28 29  1  0
 29 30  1  0
 30 31  1  0
 31 32  1  0
 32 33  1  0
 33 34  1  0
 34 35  1  0
 35 36  1  0
 36 37  1  0
 37 38  1  0
 38 39  1  0
 39 40  1  0
 40 41  1  0
 41 42  1  0
 42 43  1  0
 43 44  1  0
 44 45  1  0
 45 46  1  0
 46 47  1  0
 47 48  1  0
 48 49  1  0
 49 50  1  0
 50 51  1  0
 51 52  1  0
 52 53  1  0
 53 54  1  0
 54 55  1  0
 55 56  1  0
 56 57  1  0
 57 58  1  0
 58 59  1  0
 59 60  1  0
 60 61  1  0
 61 62  1  0
 62 63  1  0
 63 64  1  0
 64 65  1  0
 65 66  1  0
 66 67  1  0
 67 68  1  0
 68 69  1  0
 69 70  1  0
 70 71  1  0
 71 72  1  0
 72 73  1  0
 73 74  1  0
 74 75  1  0
 75 76  1  0
 76 77  1  0
 77 78  1  0
 78 79  1  0
 79 80  1  0
 80 81  1  0
 81 82  1  0
 82 83  1  0
 83 84  1  0
 84 85  1  0
 85 86  1  0
 86 87  1  0
 87 88  1  0
 88 89  1  0
 89 90  1  0
 90 91  1  0
 91 92  1  0
 92 93  1  0
 93 94  1  0
 94 95  1  0
 95 96  1  0
 96 97  1  0
 97 98  1  0
 98 99  1  0
 99100  1  0
100101  1  0
101102  1  0
102  2  1  0
M  END
>  <Title>  (165) 
idAAEKgen10

$$$$

     RDKit          2D

 13 13  0  0  0  0  0  0  0  0999 V2000
   10.5000    0.0000    0.0000 C   0  0  0  0  0  0  0  0  0  0  0  0
    9.0000    0.0000    0.0000 C   0  0  0  0  0  0  0  0  0  0  0  0
    7.5000    0.0000    0.0000 C   0  0  0  0  0  0  0  0  0  0  0  0
    6.0000    0.0000    0.0000 C   0  0  0  0  0  0  0  0  0  0  0  0
    4.5000    0.0000    0.0000 C   0  0  0  0  0  0  0  0  0  0  0  0
    3.0000    0.0000    0.0000 C   0  0  0  0  0  0  0  0  0  0  0  0
    1.5000    0.0000    0.0000 C   0  0  0  0  0  0  0  0  0  0  0  0
    0.7500   -1.2990    0.0000 C   0  0  0  0  0  0  0  0  0  0  0  0
   -0.7500   -1.2990    0.0000 C   0  0  0  0  0  0  0  0  0  0  0  0
   -1.5000    0.0000    0.0000 C   0  0  0  0  0  0  0  0  0  0  0  0
   -0.7500    1.2990    0.0000 C   0  0  0  0  0  0  0  0  0  0  0  0
   -1.5000    2.5981    0.0000 C   0  0  0  0  0  0  0  0  0  0  0  0
    0.7500    1.2990    0.0000 C   0  0  0  0  0  0  0  0  0  0  0  0
  1  2  3  0
  2  3  1  0
  3  4  3  0
  4  5  1  0
  5  6  3  0
  6  7  1  0
  7  8  2  0
  8  9  1  0
  9 10  2  0
 10 11  1  0
 11 12  1  0
 11 13  2  0
 13  7  1  0
M  END
>  <Title>  (166) 
idAAELgen10

$$$$

     RDKit          2D

 23 26  0  0  0  0  0  0  0  0999 V2000
    2.3737   -6.1885    0.0000 C   0  0  0  0  0  0  0  0  0  0  0  0
    1.4095   -5.0395    0.0000 C   0  0  0  0  0  0  0  0  0  0  0  0
    2.1595   -3.7404    0.0000 N   0  0  0  0  0  0  0  0  0  0  0  0
    1.8991   -2.2632    0.0000 C   0  0  0  0  0  0  0  0  0  0  0  0
    3.1981   -1.5132    0.0000 O   0  0  0  0  0  0  0  0  0  0  0  0
    0.7500   -1.2990    0.0000 C   0  0  0  0  0  0  0  0  0  0  0  0
    1.5000    0.0000    0.0000 C   0  0  0  0  0  0  0  0  0  0  0  0
    0.7500    1.2990    0.0000 C   0  0  0  0  0  0  0  0  0  0  0  0
   -0.7500    1.2990    0.0000 C   0  0  0  0  0  0  0  0  0  0  0  0
   -1.5000    0.0000    0.0000 C   0  0  0  0  0  0  0  0  0  0  0  0
   -0.7500   -1.2990    0.0000 C   0  0  0  0  0  0  0  0  0  0  0  0
   -1.8991   -2.2632    0.0000 C   0  0  0  0  0  0  0  0  0  0  0  0
   -3.0481   -1.2990    0.0000 C   0  0  0  0  0  0  0  0  0  0  0  0
   -4.4577   -1.8121    0.0000 C   0  0  0  0  0  0  0  0  0  0  0  0
   -4.7181   -3.2893    0.0000 C   0  0  0  0  0  0  0  0  0  0  0  0
   -3.5691   -4.2535    0.0000 C   0  0  0  0  0  0  0  0  0  0  0  0
   -2.1595   -3.7404    0.0000 C   0  0  0  0  0  0  0  0  0  0  0  0
   -1.4095   -5.0395    0.0000 C   0  0  0  0  0  0  0  0  0  0  0  0
   -2.5586   -6.0037    0.0000 C   0  0  0  0  0  0  0  0  0  0  0  0
   -2.2981   -7.4809    0.0000 C   0  0  0  0  0  0  0  0  0  0  0  0
   -0.8886   -7.9939    0.0000 C   0  0  0  0  0  0  0  0  0  0  0  0
    0.2605   -7.0297    0.0000 C   0  0  0  0  0  0  0  0  0  0  0  0
   -0.0000   -5.5525    0.0000 C   0  0  0  0  0  0  0  0  0  0  0  0
  1  2  1  0
  2  3  1  0
  3  4  1  0
  4  5  2  0
  4  6  1  0
  6  7  2  0
  7  8  1  0
  8  9  2  0
  9 10  1  0
 10 11  2  0
 11 12  1  0
 12 13  2  0
 13 14  1  0
 14 15  2  0
 15 16  1  0
 16 17  2  0
 17 18  1  0
 18 19  2  0
 19 20  1  0
 20 21  2  0
 21 22  1  0
 22 23  2  0
 23  2  1  0
 11  6  1  0
 17 12  1  0
 23 18  1  0
M  END
>  <Title>  (167) 
idAAEMgen10

$$$$

     RDKit          2D

 17 17  0  0  0  0  0  0  0  0999 V2000
   19.2760   -0.0000    0.0000 C   0  0  0  0  0  0  0  0  0  0  0  0
   17.7760   -0.0000    0.0000 C   0  0  0  0  0  0  0  0  0  0  0  0
   16.2760   -0.0000    0.0000 C   0  0  0  0  0  0  0  0  0  0  0  0
   14.7760   -0.0000    0.0000 C   0  0  0  0  0  0  0  0  0  0  0  0
   13.2760   -0.0000    0.0000 C   0  0  0  0  0  0  0  0  0  0  0  0
   11.7760   -0.0000    0.0000 C   0  0  0  0  0  0  0  0  0  0  0  0
   10.2760   -0.0000    0.0000 C   0  0  0  0  0  0  0  0  0  0  0  0
    8.7760   -0.0000    0.0000 C   0  0  0  0  0  0  0  0  0  0  0  0
    7.2760   -0.0000    0.0000 C   0  0  0  0  0  0  0  0  0  0  0  0
    5.7760   -0.0000    0.0000 C   0  0  0  0  0  0  0  0  0  0  0  0
    4.2760   -0.0000    0.0000 C   0  0  0  0  0  0  0  0  0  0  0  0
    2.7760    0.0000    0.0000 C   0  0  0  0  0  0  0  0  0  0  0  0
    1.2760    0.0000    0.0000 C   0  0  0  0  0  0  0  0  0  0  0  0
    0.3943    1.2135    0.0000 C   0  0  0  0  0  0  0  0  0  0  0  0
   -1.0323    0.7500    0.0000 C   0  0  0  0  0  0  0  0  0  0  0  0
   -1.0323   -0.7500    0.0000 C   0  0  0  0  0  0  0  0  0  0  0  0
    0.3943   -1.2135    0.0000 C   0  0  0  0  0  0  0  0  0  0  0  0
  1  2  3  0
  2  3  1  0
  3  4  3  0
  4  5  1  0
  5  6  3  0
  6  7  1  0
  7  8  3  0
  8  9  1  0
  9 10  3  0
 10 11  1  0
 11 12  3  0
 12 13  1  0
 13 14  2  0
 14 15  1  0
 15 16  1  0
 16 17  2  0
 17 13  1  0
M  END
>  <Title>  (168) 
idAAENgen10

$$$$

     RDKit          2D

 10 10  0  0  0  0  0  0  0  0999 V2000
    4.5000   -2.5981    0.0000 C   0  0  0  0  0  0  0  0  0  0  0  0
    3.7500   -1.2990    0.0000 C   0  0  0  0  0  0  0  0  0  0  0  0
    3.0000    0.0000    0.0000 C   0  0  0  0  0  0  0  0  0  0  0  0
    3.7500    1.2990    0.0000 O   0  0  0  0  0  0  0  0  0  0  0  0
    1.5000    0.0000    0.0000 N   0  0  0  0  0  0  0  0  0  0  0  0
    0.7500   -1.2990    0.0000 C   0  0  0  0  0  0  0  0  0  0  0  0
   -0.7500   -1.2990    0.0000 C   0  0  0  0  0  0  0  0  0  0  0  0
   -1.5000    0.0000    0.0000 C   0  0  0  0  0  0  0  0  0  0  0  0
   -0.7500    1.2990    0.0000 C   0  0  0  0  0  0  0  0  0  0  0  0
    0.7500    1.2990    0.0000 C   0  0  0  0  0  0  0  0  0  0  0  0
  1  2  3  0
  2  3  1  0
  3  4  2  0
  3  5  1  0
  5  6  1  0
  6  7  2  0
  7  8  1  0
  8  9  2  0
  9 10  1  0
 10  5  1  0
M  END
>  <Title>  (169) 
idAAEOgen10

$$$$

     RDKit          2D

 31 31  0  0  0  0  0  0  0  0999 V2000
    8.4368    0.0000    0.0000 C   0  0  0  0  0  0  0  0  0  0  0  0
    6.9368    0.0000    0.0000 C   0  0  0  0  0  0  0  0  0  0  0  0
    6.7746    1.4912    0.0000 C   0  0  0  0  0  0  0  0  0  0  0  0
    6.2957    2.9127    0.0000 C   0  0  0  0  0  0  0  0  0  0  0  0
    5.5223    4.1980    0.0000 C   0  0  0  0  0  0  0  0  0  0  0  0
    4.4908    5.2870    0.0000 C   0  0  0  0  0  0  0  0  0  0  0  0
    3.2493    6.1287    0.0000 C   0  0  0  0  0  0  0  0  0  0  0  0
    1.8558    6.6840    0.0000 C   0  0  0  0  0  0  0  0  0  0  0  0
    0.3756    6.9266    0.0000 C   0  0  0  0  0  0  0  0  0  0  0  0
   -1.1222    6.8454    0.0000 C   0  0  0  0  0  0  0  0  0  0  0  0
   -2.5676    6.4441    0.0000 C   0  0  0  0  0  0  0  0  0  0  0  0
   -3.8928    5.7415    0.0000 C   0  0  0  0  0  0  0  0  0  0  0  0
   -5.0361    4.7704    0.0000 C   0  0  0  0  0  0  0  0  0  0  0  0
   -5.9438    3.5763    0.0000 C   0  0  0  0  0  0  0  0  0  0  0  0
   -6.5737    2.2149    0.0000 C   0  0  0  0  0  0  0  0  0  0  0  0
   -6.8961    0.7500    0.0000 C   0  0  0  0  0  0  0  0  0  0  0  0
   -6.8961   -0.7500    0.0000 C   0  0  0  0  0  0  0  0  0  0  0  0
   -6.5737   -2.2149    0.0000 C   0  0  0  0  0  0  0  0  0  0  0  0
   -5.9438   -3.5763    0.0000 C   0  0  0  0  0  0  0  0  0  0  0  0
   -5.0361   -4.7704    0.0000 C   0  0  0  0  0  0  0  0  0  0  0  0
   -3.8928   -5.7415    0.0000 C   0  0  0  0  0  0  0  0  0  0  0  0
   -2.5676   -6.4441    0.0000 C   0  0  0  0  0  0  0  0  0  0  0  0
   -1.1222   -6.8454    0.0000 C   0  0  0  0  0  0  0  0  0  0  0  0
    0.3756   -6.9266    0.0000 C   0  0  0  0  0  0  0  0  0  0  0  0
    1.8558   -6.6840    0.0000 C   0  0  0  0  0  0  0  0  0  0  0  0
    3.2493   -6.1287    0.0000 C   0  0  0  0  0  0  0  0  0  0  0  0
    4.4908   -5.2870    0.0000 C   0  0  0  0  0  0  0  0  0  0  0  0
    5.5223   -4.1980    0.0000 C   0  0  0  0  0  0  0  0  0  0  0  0
    6.2957   -2.9127    0.0000 C   0  0  0  0  0  0  0  0  0  0  0  0
    6.7746   -1.4912    0.0000 C   0  0  0  0  0  0  0  0  0  0  0  0
    8.2396   -1.8137    0.0000 C   0  0  0  0  0  0  0  0  0  0  0  0
  1  2  1  0
  2  3  2  0
  3  4  1  0
  4  5  2  0
  5  6  1  0
  6  7  2  0
  7  8  1  0
  8  9  2  0
  9 10  1  0
 10 11  2  0
 11 12  1  0
 12 13  2  0
 13 14  1  0
 14 15  2  0
 15 16  1  0
 16 17  2  0
 17 18  1  0
 18 19  2  0
 19 20  1  0
 20 21  2  0
 21 22  1  0
 22 23  2  0
 23 24  1  0
 24 25  2  0
 25 26  1  0
 26 27  1  0
 27 28  1  0
 28 29  1  0
 29 30  1  0
 30 31  1  0
 30  2  1  0
M  END
>  <Title>  (170) 
idAAEPgen10

$$$$

     RDKit          2D

 93 95  0  0  0  0  0  0  0  0999 V2000
   15.2943   -8.1171    0.0000 C   0  0  0  0  0  0  0  0  0  0  0  0
   14.2532   -7.0373    0.0000 C   0  0  0  0  0  0  0  0  0  0  0  0
   13.1360   -6.0363    0.0000 C   0  0  0  0  0  0  0  0  0  0  0  0
   11.9488   -5.1195    0.0000 C   0  0  0  0  0  0  0  0  0  0  0  0
   10.6978   -4.2919    0.0000 C   0  0  0  0  0  0  0  0  0  0  0  0
    9.3897   -3.5578    0.0000 C   0  0  0  0  0  0  0  0  0  0  0  0
    8.0316   -2.9211    0.0000 C   0  0  0  0  0  0  0  0  0  0  0  0
    6.6305   -2.3852    0.0000 C   0  0  0  0  0  0  0  0  0  0  0  0
    5.1941   -1.9531    0.0000 C   0  0  0  0  0  0  0  0  0  0  0  0
    3.7300   -1.6269    0.0000 C   0  0  0  0  0  0  0  0  0  0  0  0
    3.9809   -3.1058    0.0000 C   0  0  0  0  0  0  0  0  0  0  0  0
    2.6519   -3.8014    0.0000 C   0  0  0  0  0  0  0  0  0  0  0  0
    1.5797   -2.7524    0.0000 C   0  0  0  0  0  0  0  0  0  0  0  0
    2.2460   -1.4085    0.0000 C   0  0  0  0  0  0  0  0  0  0  0  0
    0.7500   -1.2990    0.0000 C   0  0  0  0  0  0  0  0  0  0  0  0
    1.5000    0.0000    0.0000 C   0  0  0  0  0  0  0  0  0  0  0  0
    0.7500    1.2990    0.0000 C   0  0  0  0  0  0  0  0  0  0  0  0
   -0.7500    1.2990    0.0000 C   0  0  0  0  0  0  0  0  0  0  0  0
   -1.5000    0.0000    0.0000 C   0  0  0  0  0  0  0  0  0  0  0  0
   -0.7500   -1.2990    0.0000 C   0  0  0  0  0  0  0  0  0  0  0  0
   -2.2460   -1.4085    0.0000 C   0  0  0  0  0  0  0  0  0  0  0  0
   -3.7300   -1.6269    0.0000 C   0  0  0  0  0  0  0  0  0  0  0  0
   -5.1941   -1.9531    0.0000 C   0  0  0  0  0  0  0  0  0  0  0  0
   -6.6305   -2.3852    0.0000 C   0  0  0  0  0  0  0  0  0  0  0  0
   -8.0316   -2.9211    0.0000 C   0  0  0  0  0  0  0  0  0  0  0  0
   -9.3897   -3.5578    0.0000 C   0  0  0  0  0  0  0  0  0  0  0  0
  -10.6978   -4.2919    0.0000 C   0  0  0  0  0  0  0  0  0  0  0  0
  -11.9488   -5.1195    0.0000 C   0  0  0  0  0  0  0  0  0  0  0  0
  -13.1360   -6.0363    0.0000 C   0  0  0  0  0  0  0  0  0  0  0  0
  -14.2532   -7.0373    0.0000 C   0  0  0  0  0  0  0  0  0  0  0  0
  -15.2943   -8.1171    0.0000 C   0  0  0  0  0  0  0  0  0  0  0  0
  -16.2538   -9.2701    0.0000 C   0  0  0  0  0  0  0  0  0  0  0  0
  -17.1266  -10.4900    0.0000 C   0  0  0  0  0  0  0  0  0  0  0  0
  -17.9080  -11.7704    0.0000 C   0  0  0  0  0  0  0  0  0  0  0  0
  -18.5939  -13.1044    0.0000 C   0  0  0  0  0  0  0  0  0  0  0  0
  -19.1805  -14.4850    0.0000 C   0  0  0  0  0  0  0  0  0  0  0  0
  -19.6649  -15.9046    0.0000 C   0  0  0  0  0  0  0  0  0  0  0  0
  -20.0443  -17.3558    0.0000 C   0  0  0  0  0  0  0  0  0  0  0  0
  -20.3167  -18.8309    0.0000 C   0  0  0  0  0  0  0  0  0  0  0  0
  -20.4808  -20.3219    0.0000 C   0  0  0  0  0  0  0  0  0  0  0  0
  -20.5356  -21.8209    0.0000 C   0  0  0  0  0  0  0  0  0  0  0  0
  -20.4808  -23.3199    0.0000 C   0  0  0  0  0  0  0  0  0  0  0  0
  -20.3167  -24.8109    0.0000 C   0  0  0  0  0  0  0  0  0  0  0  0
  -20.0443  -26.2859    0.0000 C   0  0  0  0  0  0  0  0  0  0  0  0
  -19.6649  -27.7372    0.0000 C   0  0  0  0  0  0  0  0  0  0  0  0
  -19.1805  -29.1568    0.0000 C   0  0  0  0  0  0  0  0  0  0  0  0
  -18.5939  -30.5373    0.0000 C   0  0  0  0  0  0  0  0  0  0  0  0
  -17.9080  -31.8714    0.0000 C   0  0  0  0  0  0  0  0  0  0  0  0
  -17.1266  -33.1517    0.0000 C   0  0  0  0  0  0  0  0  0  0  0  0
  -16.2538  -34.3717    0.0000 C   0  0  0  0  0  0  0  0  0  0  0  0
  -15.2943  -35.5247    0.0000 C   0  0  0  0  0  0  0  0  0  0  0  0
  -14.2532  -36.6045    0.0000 C   0  0  0  0  0  0  0  0  0  0  0  0
  -13.1360  -37.6055    0.0000 C   0  0  0  0  0  0  0  0  0  0  0  0
  -11.9488  -38.5222    0.0000 C   0  0  0  0  0  0  0  0  0  0  0  0
  -10.6978  -39.3499    0.0000 C   0  0  0  0  0  0  0  0  0  0  0  0
   -9.3897  -40.0840    0.0000 C   0  0  0  0  0  0  0  0  0  0  0  0
   -8.0316  -40.7207    0.0000 C   0  0  0  0  0  0  0  0  0  0  0  0
   -6.6305  -41.2566    0.0000 C   0  0  0  0  0  0  0  0  0  0  0  0
   -5.1941  -41.6887    0.0000 C   0  0  0  0  0  0  0  0  0  0  0  0
   -3.7300  -42.0149    0.0000 C   0  0  0  0  0  0  0  0  0  0  0  0
   -2.2460  -42.2333    0.0000 C   0  0  0  0  0  0  0  0  0  0  0  0
   -0.7500  -42.3427    0.0000 C   0  0  0  0  0  0  0  0  0  0  0  0
    0.7500  -42.3427    0.0000 C   0  0  0  0  0  0  0  0  0  0  0  0
    2.2460  -42.2333    0.0000 C   0  0  0  0  0  0  0  0  0  0  0  0
    3.7300  -42.0149    0.0000 C   0  0  0  0  0  0  0  0  0  0  0  0
    5.1941  -41.6887    0.0000 C   0  0  0  0  0  0  0  0  0  0  0  0
    6.6305  -41.2566    0.0000 C   0  0  0  0  0  0  0  0  0  0  0  0
    8.0316  -40.7207    0.0000 C   0  0  0  0  0  0  0  0  0  0  0  0
    9.3897  -40.0840    0.0000 C   0  0  0  0  0  0  0  0  0  0  0  0
   10.6978  -39.3499    0.0000 C   0  0  0  0  0  0  0  0  0  0  0  0
   11.9488  -38.5222    0.0000 C   0  0  0  0  0  0  0  0  0  0  0  0
   13.1360  -37.6055    0.0000 C   0  0  0  0  0  0  0  0  0  0  0  0
   14.2532  -36.6045    0.0000 C   0  0  0  0  0  0  0  0  0  0  0  0
   15.2943  -35.5247    0.0000 C   0  0  0  0  0  0  0  0  0  0  0  0
   16.2538  -34.3717    0.0000 C   0  0  0  0  0  0  0  0  0  0  0  0
   17.1266  -33.1517    0.0000 C   0  0  0  0  0  0  0  0  0  0  0  0
   17.9080  -31.8714    0.0000 C   0  0  0  0  0  0  0  0  0  0  0  0
   18.5939  -30.5373    0.0000 C   0  0  0  0  0  0  0  0  0  0  0  0
   19.1805  -29.1568    0.0000 C   0  0  0  0  0  0  0  0  0  0  0  0
   19.6649  -27.7372    0.0000 C   0  0  0  0  0  0  0  0  0  0  0  0
   20.0443  -26.2859    0.0000 C   0  0  0  0  0  0  0  0  0  0  0  0
   20.3167  -24.8109    0.0000 C   0  0  0  0  0  0  0  0  0  0  0  0
   20.4808  -23.3199    0.0000 C   0  0  0  0  0  0  0  0  0  0  0  0
   20.5356  -21.8209    0.0000 C   0  0  0  0  0  0  0  0  0  0  0  0
   20.4808  -20.3219    0.0000 C   0  0  0  0  0  0  0  0  0  0  0  0
   20.3167  -18.8309    0.0000 C   0  0  0  0  0  0  0  0  0  0  0  0
   20.0443  -17.3558    0.0000 C   0  0  0  0  0  0  0  0  0  0  0  0
   19.6649  -15.9046    0.0000 C   0  0  0  0  0  0  0  0  0  0  0  0
   19.1805  -14.4850    0.0000 C   0  0  0  0  0  0  0  0  0  0  0  0
   18.5939  -13.1044    0.0000 C   0  0  0  0  0  0  0  0  0  0  0  0
   17.9080  -11.7704    0.0000 C   0  0  0  0  0  0  0  0  0  0  0  0
   17.1266  -10.4900    0.0000 C   0  0  0  0  0  0  0  0  0  0  0  0
   16.2538   -9.2701    0.0000 C   0  0  0  0  0  0  0  0  0  0  0  0
  1  2  2  0
  2  3  1  0
  3  4  2  0
  4  5  1  0
  5  6  2  0
  6  7  1  0
  7  8  2  0
  8  9  1  0
  9 10  2  0
 10 11  1  0
 11 12  2  0
 12 13  1  0
 13 14  2  0
 14 15  1  0
 15 16  2  0
 16 17  1  0
 17 18  2  0
 18 19  1  0
 19 20  2  0
 20 21  1  0
 21 22  1  0
 22 23  1  0
 23 24  1  0
 24 25  1  0
 25 26  1  0
 26 27  1  0
 27 28  1  0
 28 29  1  0
 29 30  1  0
 30 31  1  0
 31 32  1  0
 32 33  1  0
 33 34  1  0
 34 35  1  0
 35 36  1  0
 36 37  1  0
 37 38  1  0
 38 39  1  0
 39 40  1  0
 40 41  1  0
 41 42  1  0
 42 43  1  0
 43 44  1  0
 44 45  1  0
 45 46  1  0
 46 47  1  0
 47 48  1  0
 48 49  1  0
 49 50  1  0
 50 51  1  0
 51 52  1  0
 52 53  1  0
 53 54  1  0
 54 55  1  0
 55 56  1  0
 56 57  1  0
 57 58  1  0
 58 59  1  0
 59 60  1  0
 60 61  1  0
 61 62  1  0
 62 63  1  0
 63 64  1  0
 64 65  1  0
 65 66  1  0
 66 67  1  0
 67 68  1  0
 68 69  1  0
 69 70  1  0
 70 71  1  0
 71 72  1  0
 72 73  1  0
 73 74  1  0
 74 75  1  0
 75 76  1  0
 76 77  1  0
 77 78  1  0
 78 79  1  0
 79 80  1  0
 80 81  1  0
 81 82  1  0
 82 83  1  0
 83 84  1  0
 84 85  1  0
 85 86  1  0
 86 87  2  0
 87 88  1  0
 88 89  2  0
 89 90  1  0
 90 91  2  0
 91 92  1  0
 92 93  2  0
 93  1  1  0
 14 10  1  0
 20 15  1  0
M  END
>  <Title>  (171) 
idAAEQgen10

$$$$

     RDKit          2D

 11 11  0  0  0  0  0  0  0  0999 V2000
    4.2760    2.5981    0.0000 C   0  0  0  0  0  0  0  0  0  0  0  0
    3.5260    1.2990    0.0000 C   0  0  0  0  0  0  0  0  0  0  0  0
    2.7760    0.0000    0.0000 C   0  0  0  0  0  0  0  0  0  0  0  0
    3.5260   -1.2990    0.0000 C   0  0  0  0  0  0  0  0  0  0  0  0
    1.2760    0.0000    0.0000 C   0  0  0  0  0  0  0  0  0  0  0  0
    0.3943    1.2135    0.0000 C   0  0  0  0  0  0  0  0  0  0  0  0
   -1.0323    0.7500    0.0000 C   0  0  0  0  0  0  0  0  0  0  0  0
   -2.2458    1.6317    0.0000 C   0  0  0  0  0  0  0  0  0  0  0  0
   -1.0323   -0.7500    0.0000 C   0  0  0  0  0  0  0  0  0  0  0  0
   -2.2458   -1.6317    0.0000 C   0  0  0  0  0  0  0  0  0  0  0  0
    0.3943   -1.2135    0.0000 N   0  0  0  0  0  0  0  0  0  0  0  0
  1  2  3  0
  2  3  1  0
  3  4  1  0
  3  5  1  0
  5  6  2  0
  6  7  1  0
  7  8  1  0
  7  9  2  0
  9 10  1  0
  9 11  1  0
 11  5  1  0
M  END
>  <Title>  (172) 
idAAERgen10

$$$$

     RDKit          2D

  8  8  0  0  0  0  0  0  0  0999 V2000
    4.5000    0.0000    0.0000 N   0  0  0  0  0  0  0  0  0  0  0  0
    3.0000    0.0000    0.0000 C   0  0  0  0  0  0  0  0  0  0  0  0
    1.5000    0.0000    0.0000 C   0  0  0  0  0  0  0  0  0  0  0  0
    0.7500   -1.2990    0.0000 C   0  0  0  0  0  0  0  0  0  0  0  0
   -0.7500   -1.2990    0.0000 C   0  0  0  0  0  0  0  0  0  0  0  0
   -1.5000    0.0000    0.0000 C   0  0  0  0  0  0  0  0  0  0  0  0
   -0.7500    1.2990    0.0000 C   0  0  0  0  0  0  0  0  0  0  0  0
    0.7500    1.2990    0.0000 C   0  0  0  0  0  0  0  0  0  0  0  0
  1  2  3  0
  2  3  1  0
  3  4  2  0
  4  5  1  0
  5  6  2  0
  6  7  1  0
  7  8  1  0
  8  3  1  0
M  END
>  <Title>  (173) 
idAAESgen10

$$$$

     RDKit          2D

  9  9  0  0  0  0  0  0  0  0999 V2000
    4.7286   -0.0000    0.0000 C   0  0  0  0  0  0  0  0  0  0  0  0
    3.2286   -0.0000    0.0000 C   0  0  0  0  0  0  0  0  0  0  0  0
    1.7286    0.0000    0.0000 C   0  0  0  0  0  0  0  0  0  0  0  0
    1.0777    1.3515    0.0000 C   0  0  0  0  0  0  0  0  0  0  0  0
   -0.3846    1.6852    0.0000 C   0  0  0  0  0  0  0  0  0  0  0  0
   -1.5574    0.7500    0.0000 C   0  0  0  0  0  0  0  0  0  0  0  0
   -1.5574   -0.7500    0.0000 C   0  0  0  0  0  0  0  0  0  0  0  0
   -0.3846   -1.6852    0.0000 C   0  0  0  0  0  0  0  0  0  0  0  0
    1.0777   -1.3515    0.0000 C   0  0  0  0  0  0  0  0  0  0  0  0
  1  2  3  0
  2  3  1  0
  3  4  2  0
  4  5  1  0
  5  6  1  0
  6  7  1  0
  7  8  1  0
  8  9  1  0
  9  3  1  0
M  END
>  <Title>  (174) 
idAAETgen10

$$$$

     RDKit          2D

  6  6  0  0  0  0  0  0  0  0999 V2000
    2.3660    0.0000    0.0000 C   0  0  0  0  0  0  0  0  0  0  0  0
    0.8660    0.0000    0.0000 C   0  0  0  0  0  0  0  0  0  0  0  0
   -0.4330    0.7500    0.0000 C   0  0  0  0  0  0  0  0  0  0  0  0
   -1.1830    2.0490    0.0000 C   0  0  0  0  0  0  0  0  0  0  0  0
   -1.9330    3.3481    0.0000 N   0  0  0  0  0  0  0  0  0  0  0  0
   -0.4330   -0.7500    0.0000 C   0  0  0  0  0  0  0  0  0  0  0  0
  1  2  1  0
  2  3  2  0
  3  4  1  0
  4  5  3  0
  3  6  1  0
  6  2  1  0
M  END
>  <Title>  (175) 
idAAEUgen10

$$$$

     RDKit          2D

 11 11  0  0  0  0  0  0  0  0999 V2000
    6.7500   -1.2990    0.0000 C   0  0  0  0  0  0  0  0  0  0  0  0
    5.2500   -1.2990    0.0000 C   0  0  0  0  0  0  0  0  0  0  0  0
    3.7500   -1.2990    0.0000 C   0  0  0  0  0  0  0  0  0  0  0  0
    3.0000   -2.5981    0.0000 O   0  0  0  0  0  0  0  0  0  0  0  0
    3.0000    0.0000    0.0000 N   0  0  0  0  0  0  0  0  0  0  0  0
    1.5000    0.0000    0.0000 C   0  0  0  0  0  0  0  0  0  0  0  0
    0.7500   -1.2990    0.0000 C   0  0  0  0  0  0  0  0  0  0  0  0
   -0.7500   -1.2990    0.0000 C   0  0  0  0  0  0  0  0  0  0  0  0
   -1.5000    0.0000    0.0000 C   0  0  0  0  0  0  0  0  0  0  0  0
   -0.7500    1.2990    0.0000 C   0  0  0  0  0  0  0  0  0  0  0  0
    0.7500    1.2990    0.0000 C   0  0  0  0  0  0  0  0  0  0  0  0
  1  2  3  0
  2  3  1  0
  3  4  2  0
  3  5  1  0
  5  6  1  0
  6  7  2  0
  7  8  1  0
  8  9  2  0
  9 10  1  0
 10 11  2  0
 11  6  1  0
M  END
>  <Title>  (176) 
idAAEVgen10

$$$$

     RDKit          2D

 11 12  0  0  0  0  0  0  0  0999 V2000
   -3.0000   -2.5981    0.0000 C   0  0  0  0  0  0  0  0  0  0  0  0
   -1.5000   -2.5981    0.0000 C   0  0  0  0  0  0  0  0  0  0  0  0
   -0.7500   -3.8971    0.0000 C   0  0  0  0  0  0  0  0  0  0  0  0
    0.7500   -3.8971    0.0000 C   0  0  0  0  0  0  0  0  0  0  0  0
    1.5000   -2.5981    0.0000 C   0  0  0  0  0  0  0  0  0  0  0  0
    0.7500   -1.2990    0.0000 C   0  0  0  0  0  0  0  0  0  0  0  0
    1.5000    0.0000    0.0000 C   0  0  0  0  0  0  0  0  0  0  0  0
    0.7500    1.2990    0.0000 C   0  0  0  0  0  0  0  0  0  0  0  0
   -0.7500    1.2990    0.0000 C   0  0  0  0  0  0  0  0  0  0  0  0
   -1.5000    0.0000    0.0000 C   0  0  0  0  0  0  0  0  0  0  0  0
   -0.7500   -1.2990    0.0000 C   0  0  0  0  0  0  0  0  0  0  0  0
  1  2  1  0
  2  3  2  0
  3  4  1  0
  4  5  1  0
  5  6  1  0
  6  7  2  0
  7  8  1  0
  8  9  2  0
  9 10  1  0
 10 11  2  0
 11  2  1  0
 11  6  1  0
M  END
>  <Title>  (177) 
idAAEWgen10

$$$$

     RDKit          2D

 76 78  0  0  0  0  0  0  0  0999 V2000
    4.6425    7.6396    0.0000 C   0  0  0  0  0  0  0  0  0  0  0  0
    6.1196    7.3787    0.0000 C   0  0  0  0  0  0  0  0  0  0  0  0
    6.4852    8.8334    0.0000 C   0  0  0  0  0  0  0  0  0  0  0  0
    7.0541   10.2214    0.0000 C   0  0  0  0  0  0  0  0  0  0  0  0
    7.8148   11.5142    0.0000 C   0  0  0  0  0  0  0  0  0  0  0  0
    8.7517   12.6856    0.0000 C   0  0  0  0  0  0  0  0  0  0  0  0
    9.8457   13.7118    0.0000 C   0  0  0  0  0  0  0  0  0  0  0  0
   11.0747   14.5719    0.0000 C   0  0  0  0  0  0  0  0  0  0  0  0
   12.4135   15.2482    0.0000 C   0  0  0  0  0  0  0  0  0  0  0  0
   13.8350   15.7272    0.0000 C   0  0  0  0  0  0  0  0  0  0  0  0
   15.3102   15.9990    0.0000 C   0  0  0  0  0  0  0  0  0  0  0  0
   16.8090   16.0580    0.0000 C   0  0  0  0  0  0  0  0  0  0  0  0
   18.3010   15.9032    0.0000 C   0  0  0  0  0  0  0  0  0  0  0  0
   19.7558   15.5376    0.0000 C   0  0  0  0  0  0  0  0  0  0  0  0
   21.1437   14.9687    0.0000 C   0  0  0  0  0  0  0  0  0  0  0  0
   22.4365   14.2081    0.0000 C   0  0  0  0  0  0  0  0  0  0  0  0
   23.6080   13.2712    0.0000 C   0  0  0  0  0  0  0  0  0  0  0  0
   24.6341   12.1771    0.0000 C   0  0  0  0  0  0  0  0  0  0  0  0
   25.4942   10.9482    0.0000 C   0  0  0  0  0  0  0  0  0  0  0  0
   26.1706    9.6093    0.0000 C   0  0  0  0  0  0  0  0  0  0  0  0
   26.6495    8.1878    0.0000 C   0  0  0  0  0  0  0  0  0  0  0  0
   26.9213    6.7127    0.0000 C   0  0  0  0  0  0  0  0  0  0  0  0
   26.9804    5.2138    0.0000 C   0  0  0  0  0  0  0  0  0  0  0  0
   26.8255    3.7218    0.0000 C   0  0  0  0  0  0  0  0  0  0  0  0
   26.4599    2.2671    0.0000 C   0  0  0  0  0  0  0  0  0  0  0  0
   25.8910    0.8791    0.0000 C   0  0  0  0  0  0  0  0  0  0  0  0
   25.1304   -0.4137    0.0000 C   0  0  0  0  0  0  0  0  0  0  0  0
   24.1935   -1.5851    0.0000 C   0  0  0  0  0  0  0  0  0  0  0  0
   23.0995   -2.6113    0.0000 C   0  0  0  0  0  0  0  0  0  0  0  0
   21.8705   -3.4713    0.0000 C   0  0  0  0  0  0  0  0  0  0  0  0
   20.5316   -4.1477    0.0000 C   0  0  0  0  0  0  0  0  0  0  0  0
   19.1102   -4.6267    0.0000 C   0  0  0  0  0  0  0  0  0  0  0  0
   17.6350   -4.8984    0.0000 C   0  0  0  0  0  0  0  0  0  0  0  0
   16.1362   -4.9575    0.0000 C   0  0  0  0  0  0  0  0  0  0  0  0
   14.6442   -4.8027    0.0000 C   0  0  0  0  0  0  0  0  0  0  0  0
   13.1894   -4.4371    0.0000 C   0  0  0  0  0  0  0  0  0  0  0  0
   11.8015   -3.8682    0.0000 C   0  0  0  0  0  0  0  0  0  0  0  0
   10.5086   -3.1075    0.0000 C   0  0  0  0  0  0  0  0  0  0  0  0
    9.3372   -2.1707    0.0000 C   0  0  0  0  0  0  0  0  0  0  0  0
    8.3110   -1.0766    0.0000 C   0  0  0  0  0  0  0  0  0  0  0  0
    7.4510    0.1524    0.0000 C   0  0  0  0  0  0  0  0  0  0  0  0
    6.7746    1.4912    0.0000 C   0  0  0  0  0  0  0  0  0  0  0  0
    6.2368   -0.0000    0.0000 C   0  0  0  0  0  0  0  0  0  0  0  0
    6.0910   -1.3407    0.0000 C   0  0  0  0  0  0  0  0  0  0  0  0
    5.6604   -2.6188    0.0000 C   0  0  0  0  0  0  0  0  0  0  0  0
    4.9651   -3.7744    0.0000 C   0  0  0  0  0  0  0  0  0  0  0  0
    4.0376   -4.7535    0.0000 C   0  0  0  0  0  0  0  0  0  0  0  0
    2.9214   -5.5103    0.0000 C   0  0  0  0  0  0  0  0  0  0  0  0
    1.6685   -6.0095    0.0000 C   0  0  0  0  0  0  0  0  0  0  0  0
    0.3377   -6.2277    0.0000 C   0  0  0  0  0  0  0  0  0  0  0  0
   -1.0090   -6.1546    0.0000 C   0  0  0  0  0  0  0  0  0  0  0  0
   -2.3085   -5.7938    0.0000 C   0  0  0  0  0  0  0  0  0  0  0  0
   -3.5000   -5.1621    0.0000 C   0  0  0  0  0  0  0  0  0  0  0  0
   -4.5279   -4.2890    0.0000 C   0  0  0  0  0  0  0  0  0  0  0  0
   -5.3440   -3.2154    0.0000 C   0  0  0  0  0  0  0  0  0  0  0  0
   -5.9103   -1.9914    0.0000 C   0  0  0  0  0  0  0  0  0  0  0  0
   -6.2002   -0.6743    0.0000 C   0  0  0  0  0  0  0  0  0  0  0  0
   -6.2002    0.6743    0.0000 C   0  0  0  0  0  0  0  0  0  0  0  0
   -5.9103    1.9914    0.0000 C   0  0  0  0  0  0  0  0  0  0  0  0
   -5.3440    3.2154    0.0000 C   0  0  0  0  0  0  0  0  0  0  0  0
   -4.5279    4.2890    0.0000 C   0  0  0  0  0  0  0  0  0  0  0  0
   -3.5000    5.1621    0.0000 C   0  0  0  0  0  0  0  0  0  0  0  0
   -2.3085    5.7938    0.0000 C   0  0  0  0  0  0  0  0  0  0  0  0
   -1.0090    6.1546    0.0000 C   0  0  0  0  0  0  0  0  0  0  0  0
    0.3377    6.2277    0.0000 C   0  0  0  0  0  0  0  0  0  0  0  0
    1.6685    6.0095    0.0000 C   0  0  0  0  0  0  0  0  0  0  0  0
    2.9214    5.5103    0.0000 C   0  0  0  0  0  0  0  0  0  0  0  0
    4.0376    4.7535    0.0000 C   0  0  0  0  0  0  0  0  0  0  0  0
    4.9651    3.7744    0.0000 C   0  0  0  0  0  0  0  0  0  0  0  0
    6.2957    2.9127    0.0000 C   0  0  0  0  0  0  0  0  0  0  0  0
    6.0239    4.3879    0.0000 C   0  0  0  0  0  0  0  0  0  0  0  0
    7.3515    3.6896    0.0000 C   0  0  0  0  0  0  0  0  0  0  0  0
    8.6200    4.4902    0.0000 C   0  0  0  0  0  0  0  0  0  0  0  0
    8.5609    5.9890    0.0000 C   0  0  0  0  0  0  0  0  0  0  0  0
    7.2333    6.6873    0.0000 C   0  0  0  0  0  0  0  0  0  0  0  0
    5.9648    5.8867    0.0000 C   0  0  0  0  0  0  0  0  0  0  0  0
  1  2  1  0
  2  3  2  0
  3  4  1  0
  4  5  1  0
  5  6  2  0
  6  7  1  0
  7  8  2  0
  8  9  1  0
  9 10  2  0
 10 11  1  0
 11 12  2  0
 12 13  1  0
 13 14  2  0
 14 15  1  0
 15 16  2  0
 16 17  1  0
 17 18  2  0
 18 19  1  0
 19 20  2  0
 20 21  1  0
 21 22  2  0
 22 23  1  0
 23 24  2  0
 24 25  1  0
 25 26  2  0
 26 27  1  0
 27 28  2  0
 28 29  1  0
 29 30  2  0
 30 31  1  0
 31 32  2  0
 32 33  1  0
 33 34  2  0
 34 35  1  0
 35 36  2  0
 36 37  1  0
 37 38  2  0
 38 39  1  0
 39 40  2  0
 40 41  1  0
 41 42  2  0
 42 43  1  0
 43 44  1  0
 44 45  1  0
 45 46  1  0
 46 47  1  0
 47 48  1  0
 48 49  1  0
 49 50  1  0
 50 51  1  0
 51 52  1  0
 52 53  1  0
 53 54  1  0
 54 55  1  0
 55 56  1  0
 56 57  1  0
 57 58  1  0
 58 59  1  0
 59 60  1  0
 60 61  1  0
 61 62  1  0
 62 63  1  0
 63 64  1  0
 64 65  1  0
 65 66  2  0
 66 67  1  0
 67 68  2  0
 68 69  1  0
 69 70  2  0
 70 71  1  0
 71 72  2  0
 72 73  1  0
 73 74  2  0
 74 75  1  0
 75 76  2  0
 76  2  1  0
 70 42  1  0
 76 71  1  0
M  END
>  <Title>  (178) 
idAAEXgen10

$$$$

     RDKit          2D

 21 23  0  0  0  0  0  0  0  0999 V2000
   -3.1476   -2.1380    0.0000 C   0  0  0  0  0  0  0  0  0  0  0  0
   -1.6852   -2.4718    0.0000 C   0  0  0  0  0  0  0  0  0  0  0  0
   -1.3515   -3.9342    0.0000 C   0  0  0  0  0  0  0  0  0  0  0  0
   -0.0000   -4.5850    0.0000 C   0  0  0  0  0  0  0  0  0  0  0  0
    1.3515   -3.9342    0.0000 C   0  0  0  0  0  0  0  0  0  0  0  0
    1.6852   -2.4718    0.0000 C   0  0  0  0  0  0  0  0  0  0  0  0
    3.1476   -2.1380    0.0000 C   0  0  0  0  0  0  0  0  0  0  0  0
    3.5898   -0.7046    0.0000 O   0  0  0  0  0  0  0  0  0  0  0  0
    4.1679   -3.2376    0.0000 N   0  0  0  0  0  0  0  0  0  0  0  0
    5.6303   -2.9038    0.0000 C   0  0  0  0  0  0  0  0  0  0  0  0
    6.6505   -4.0034    0.0000 N   0  0  0  0  0  0  0  0  0  0  0  0
    8.1129   -3.6696    0.0000 N   0  0  0  0  0  0  0  0  0  0  0  0
    8.5551   -2.2362    0.0000 N   0  0  0  0  0  0  0  0  0  0  0  0
    7.5348   -1.1367    0.0000 N   0  0  0  0  0  0  0  0  0  0  0  0
    6.0724   -1.4704    0.0000 N   0  0  0  0  0  0  0  0  0  0  0  0
    0.7500   -1.2990    0.0000 C   0  0  0  0  0  0  0  0  0  0  0  0
    1.5000    0.0000    0.0000 C   0  0  0  0  0  0  0  0  0  0  0  0
    0.7500    1.2990    0.0000 C   0  0  0  0  0  0  0  0  0  0  0  0
   -0.7500    1.2990    0.0000 C   0  0  0  0  0  0  0  0  0  0  0  0
   -1.5000    0.0000    0.0000 C   0  0  0  0  0  0  0  0  0  0  0  0
   -0.7500   -1.2990    0.0000 C   0  0  0  0  0  0  0  0  0  0  0  0
  1  2  1  0
  2  3  2  0
  3  4  1  0
  4  5  1  0
  5  6  2  0
  6  7  1  0
  7  8  2  0
  7  9  1  0
  9 10  1  0
 10 11  2  0
 11 12  1  0
 12 13  2  0
 13 14  1  0
 14 15  2  0
  6 16  1  0
 16 17  2  0
 17 18  1  0
 18 19  2  0
 19 20  1  0
 20 21  2  0
 21  2  1  0
 15 10  1  0
 21 16  1  0
M  END
>  <Title>  (179) 
idAAEYgen10

$$$$

     RDKit          2D

 27 30  0  0  0  0  0  0  0  0999 V2000
    9.9298   -5.8167    0.0000 C   0  0  0  0  0  0  0  0  0  0  0  0
    8.5440   -5.2427    0.0000 C   0  0  0  0  0  0  0  0  0  0  0  0
    7.1581   -4.6686    0.0000 C   0  0  0  0  0  0  0  0  0  0  0  0
    5.7723   -4.0946    0.0000 C   0  0  0  0  0  0  0  0  0  0  0  0
    4.3865   -3.5206    0.0000 C   0  0  0  0  0  0  0  0  0  0  0  0
    3.1965   -4.4337    0.0000 C   0  0  0  0  0  0  0  0  0  0  0  0
    1.8107   -3.8597    0.0000 C   0  0  0  0  0  0  0  0  0  0  0  0
    1.8107   -2.3597    0.0000 C   0  0  0  0  0  0  0  0  0  0  0  0
    3.1965   -1.7857    0.0000 O   0  0  0  0  0  0  0  0  0  0  0  0
    0.7500   -1.2990    0.0000 C   0  0  0  0  0  0  0  0  0  0  0  0
    1.5000    0.0000    0.0000 C   0  0  0  0  0  0  0  0  0  0  0  0
    0.7500    1.2990    0.0000 C   0  0  0  0  0  0  0  0  0  0  0  0
   -0.7500    1.2990    0.0000 C   0  0  0  0  0  0  0  0  0  0  0  0
   -1.5000    0.0000    0.0000 C   0  0  0  0  0  0  0  0  0  0  0  0
   -0.7500   -1.2990    0.0000 C   0  0  0  0  0  0  0  0  0  0  0  0
   -1.8107   -2.3597    0.0000 C   0  0  0  0  0  0  0  0  0  0  0  0
   -3.1097   -1.6097    0.0000 C   0  0  0  0  0  0  0  0  0  0  0  0
   -4.4087   -2.3597    0.0000 C   0  0  0  0  0  0  0  0  0  0  0  0
   -4.4087   -3.8597    0.0000 C   0  0  0  0  0  0  0  0  0  0  0  0
   -3.1097   -4.6097    0.0000 C   0  0  0  0  0  0  0  0  0  0  0  0
   -1.8107   -3.8597    0.0000 C   0  0  0  0  0  0  0  0  0  0  0  0
   -0.7500   -4.9204    0.0000 C   0  0  0  0  0  0  0  0  0  0  0  0
   -1.5000   -6.2194    0.0000 C   0  0  0  0  0  0  0  0  0  0  0  0
   -0.7500   -7.5184    0.0000 C   0  0  0  0  0  0  0  0  0  0  0  0
    0.7500   -7.5184    0.0000 C   0  0  0  0  0  0  0  0  0  0  0  0
    1.5000   -6.2194    0.0000 C   0  0  0  0  0  0  0  0  0  0  0  0
    0.7500   -4.9204    0.0000 C   0  0  0  0  0  0  0  0  0  0  0  0
  1  2  3  0
  2  3  1  0
  3  4  3  0
  4  5  1  0
  5  6  1  0
  6  7  2  3
  7  8  1  0
  8  9  2  0
  8 10  1  0
 10 11  2  0
 11 12  1  0
 12 13  2  0
 13 14  1  0
 14 15  2  0
 15 16  1  0
 16 17  2  0
 17 18  1  0
 18 19  2  0
 19 20  1  0
 20 21  2  0
 21 22  1  0
 22 23  2  0
 23 24  1  0
 24 25  2  0
 25 26  1  0
 26 27  2  0
 27  7  1  0
 15 10  1  0
 21 16  1  0
 27 22  1  0
M  END
>  <Title>  (180) 
idAAEZgen10

$$$$

     RDKit          2D

 63 69  0  0  0  0  0  0  0  0999 V2000
   -9.4645   -7.6236    0.0000 C   0  0  0  0  0  0  0  0  0  0  0  0
   -7.9901   -7.8992    0.0000 C   0  0  0  0  0  0  0  0  0  0  0  0
   -8.1285   -9.3928    0.0000 C   0  0  0  0  0  0  0  0  0  0  0  0
   -7.9901  -10.8864    0.0000 C   0  0  0  0  0  0  0  0  0  0  0  0
   -7.5796  -12.3292    0.0000 C   0  0  0  0  0  0  0  0  0  0  0  0
   -8.9783  -12.8710    0.0000 C   0  0  0  0  0  0  0  0  0  0  0  0
   -9.2084  -14.3533    0.0000 O   0  0  0  0  0  0  0  0  0  0  0  0
  -10.1469  -11.9306    0.0000 N   0  0  0  0  0  0  0  0  0  0  0  0
  -11.5456  -12.4725    0.0000 C   0  0  0  0  0  0  0  0  0  0  0  0
  -12.7142  -11.5321    0.0000 N   0  0  0  0  0  0  0  0  0  0  0  0
  -14.1129  -12.0740    0.0000 N   0  0  0  0  0  0  0  0  0  0  0  0
  -14.3430  -13.5562    0.0000 N   0  0  0  0  0  0  0  0  0  0  0  0
  -13.1744  -14.4966    0.0000 N   0  0  0  0  0  0  0  0  0  0  0  0
  -11.7757  -13.9548    0.0000 N   0  0  0  0  0  0  0  0  0  0  0  0
   -6.9110  -13.6719    0.0000 C   0  0  0  0  0  0  0  0  0  0  0  0
   -6.0070  -14.8689    0.0000 C   0  0  0  0  0  0  0  0  0  0  0  0
   -4.8985  -15.8795    0.0000 C   0  0  0  0  0  0  0  0  0  0  0  0
   -3.6232  -16.6691    0.0000 C   0  0  0  0  0  0  0  0  0  0  0  0
   -2.2245  -17.2110    0.0000 C   0  0  0  0  0  0  0  0  0  0  0  0
   -0.7500  -17.4866    0.0000 C   0  0  0  0  0  0  0  0  0  0  0  0
    0.7500  -17.4866    0.0000 C   0  0  0  0  0  0  0  0  0  0  0  0
    2.2245  -17.2110    0.0000 C   0  0  0  0  0  0  0  0  0  0  0  0
    3.6232  -16.6691    0.0000 C   0  0  0  0  0  0  0  0  0  0  0  0
    4.8985  -15.8795    0.0000 C   0  0  0  0  0  0  0  0  0  0  0  0
    6.0070  -14.8689    0.0000 C   0  0  0  0  0  0  0  0  0  0  0  0
    6.9110  -13.6719    0.0000 C   0  0  0  0  0  0  0  0  0  0  0  0
    7.5796  -12.3292    0.0000 C   0  0  0  0  0  0  0  0  0  0  0  0
    7.9901  -10.8864    0.0000 C   0  0  0  0  0  0  0  0  0  0  0  0
    8.1285   -9.3928    0.0000 C   0  0  0  0  0  0  0  0  0  0  0  0
    7.9901   -7.8992    0.0000 C   0  0  0  0  0  0  0  0  0  0  0  0
    7.5796   -6.4565    0.0000 C   0  0  0  0  0  0  0  0  0  0  0  0
    6.9110   -5.1137    0.0000 C   0  0  0  0  0  0  0  0  0  0  0  0
    6.0070   -3.9167    0.0000 C   0  0  0  0  0  0  0  0  0  0  0  0
    4.8985   -2.9062    0.0000 C   0  0  0  0  0  0  0  0  0  0  0  0
    3.6232   -2.1165    0.0000 C   0  0  0  0  0  0  0  0  0  0  0  0
    4.5707   -0.9537    0.0000 C   0  0  0  0  0  0  0  0  0  0  0  0
    3.7577    0.3068    0.0000 C   0  0  0  0  0  0  0  0  0  0  0  0
    2.3076   -0.0770    0.0000 C   0  0  0  0  0  0  0  0  0  0  0  0
    2.2245   -1.5747    0.0000 C   0  0  0  0  0  0  0  0  0  0  0  0
    0.7500   -1.2990    0.0000 C   0  0  0  0  0  0  0  0  0  0  0  0
    1.5000    0.0000    0.0000 C   0  0  0  0  0  0  0  0  0  0  0  0
    0.7500    1.2990    0.0000 C   0  0  0  0  0  0  0  0  0  0  0  0
   -0.7500    1.2990    0.0000 C   0  0  0  0  0  0  0  0  0  0  0  0
   -1.5000    0.0000    0.0000 C   0  0  0  0  0  0  0  0  0  0  0  0
   -0.7500   -1.2990    0.0000 C   0  0  0  0  0  0  0  0  0  0  0  0
   -2.2245   -1.5747    0.0000 C   0  0  0  0  0  0  0  0  0  0  0  0
   -2.6471   -0.3453    0.0000 C   0  0  0  0  0  0  0  0  0  0  0  0
   -3.2704    0.1563    0.0000 C   0  0  0  0  0  0  0  0  0  0  0  0
   -4.0163   -0.1327    0.0000 C   0  0  0  0  0  0  0  0  0  0  0  0
   -4.1391   -0.9233    0.0000 C   0  0  0  0  0  0  0  0  0  0  0  0
   -3.6232   -2.1165    0.0000 C   0  0  0  0  0  0  0  0  0  0  0  0
   -4.8985   -2.9062    0.0000 C   0  0  0  0  0  0  0  0  0  0  0  0
   -5.2194   -1.4409    0.0000 C   0  0  0  0  0  0  0  0  0  0  0  0
   -6.6488   -0.9862    0.0000 C   0  0  0  0  0  0  0  0  0  0  0  0
   -7.7573   -1.9967    0.0000 C   0  0  0  0  0  0  0  0  0  0  0  0
   -7.4364   -3.4620    0.0000 C   0  0  0  0  0  0  0  0  0  0  0  0
   -6.0070   -3.9167    0.0000 C   0  0  0  0  0  0  0  0  0  0  0  0
   -6.9110   -5.1137    0.0000 C   0  0  0  0  0  0  0  0  0  0  0  0
   -8.0515   -4.4900    0.0000 C   0  0  0  0  0  0  0  0  0  0  0  0
   -8.8500   -4.5392    0.0000 C   0  0  0  0  0  0  0  0  0  0  0  0
   -9.2066   -5.2553    0.0000 C   0  0  0  0  0  0  0  0  0  0  0  0
   -8.7647   -5.9222    0.0000 C   0  0  0  0  0  0  0  0  0  0  0  0
   -7.5796   -6.4565    0.0000 C   0  0  0  0  0  0  0  0  0  0  0  0
  1  2  1  0
  2  3  1  0
  3  4  2  0
  4  5  1  0
  5  6  1  0
  6  7  2  0
  6  8  1  0
  8  9  1  0
  9 10  2  0
 10 11  1  0
 11 12  2  0
 12 13  1  0
 13 14  2  0
  5 15  2  0
 15 16  1  0
 16 17  2  0
 17 18  1  0
 18 19  2  0
 19 20  1  0
 20 21  2  0
 21 22  1  0
 22 23  2  0
 23 24  1  0
 24 25  2  0
 25 26  1  0
 26 27  2  0
 27 28  1  0
 28 29  2  0
 29 30  1  0
 30 31  2  0
 31 32  1  0
 32 33  2  0
 33 34  1  0
 34 35  2  0
 35 36  1  0
 36 37  2  0
 37 38  1  0
 38 39  2  0
 39 40  1  0
 40 41  2  0
 41 42  1  0
 42 43  2  0
 43 44  1  0
 44 45  2  0
 45 46  1  0
 46 47  2  0
 47 48  1  0
 48 49  2  0
 49 50  1  0
 50 51  2  0
 51 52  1  0
 52 53  2  0
 53 54  1  0
 54 55  2  0
 55 56  1  0
 56 57  2  0
 57 58  1  0
 58 59  2  0
 59 60  1  0
 60 61  2  0
 61 62  1  0
 62 63  2  0
 63  2  1  0
 14  9  1  0
 39 35  1  0
 45 40  1  0
 51 46  1  0
 57 52  1  0
 63 58  1  0
M  END
>  <Title>  (181) 
idAAFAgen10

$$$$

     RDKit          2D

 14 14  0  0  0  0  0  0  0  0999 V2000
   10.5000    0.0000    0.0000 C   0  0  0  0  0  0  0  0  0  0  0  0
    9.0000    0.0000    0.0000 C   0  0  0  0  0  0  0  0  0  0  0  0
    7.5000    0.0000    0.0000 C   0  0  0  0  0  0  0  0  0  0  0  0
    6.0000    0.0000    0.0000 C   0  0  0  0  0  0  0  0  0  0  0  0
    4.5000    0.0000    0.0000 C   0  0  0  0  0  0  0  0  0  0  0  0
    3.0000    0.0000    0.0000 C   0  0  0  0  0  0  0  0  0  0  0  0
    1.5000    0.0000    0.0000 C   0  0  0  0  0  0  0  0  0  0  0  0
    0.7500   -1.2990    0.0000 C   0  0  0  0  0  0  0  0  0  0  0  0
   -0.7500   -1.2990    0.0000 C   0  0  0  0  0  0  0  0  0  0  0  0
   -1.5000    0.0000    0.0000 C   0  0  0  0  0  0  0  0  0  0  0  0
   -3.0000    0.0000    0.0000 C   0  0  0  0  0  0  0  0  0  0  0  0
   -0.7500    1.2990    0.0000 C   0  0  0  0  0  0  0  0  0  0  0  0
   -1.5000    2.5981    0.0000 O   0  0  0  0  0  0  0  0  0  0  0  0
    0.7500    1.2990    0.0000 C   0  0  0  0  0  0  0  0  0  0  0  0
  1  2  3  0
  2  3  1  0
  3  4  3  0
  4  5  1  0
  5  6  3  0
  6  7  1  0
  7  8  2  0
  8  9  1  0
  9 10  2  0
 10 11  1  0
 10 12  1  0
 12 13  2  0
 12 14  1  0
 14  7  1  0
M  END
>  <Title>  (182) 
idAAFBgen10

$$$$

     RDKit          2D

 17 17  0  0  0  0  0  0  0  0999 V2000
   16.5000    0.0000    0.0000 C   0  0  0  0  0  0  0  0  0  0  0  0
   15.0000    0.0000    0.0000 C   0  0  0  0  0  0  0  0  0  0  0  0
   13.5000    0.0000    0.0000 C   0  0  0  0  0  0  0  0  0  0  0  0
   12.0000    0.0000    0.0000 C   0  0  0  0  0  0  0  0  0  0  0  0
   10.5000    0.0000    0.0000 C   0  0  0  0  0  0  0  0  0  0  0  0
    9.0000    0.0000    0.0000 C   0  0  0  0  0  0  0  0  0  0  0  0
    7.5000    0.0000    0.0000 C   0  0  0  0  0  0  0  0  0  0  0  0
    6.0000    0.0000    0.0000 C   0  0  0  0  0  0  0  0  0  0  0  0
    4.5000    0.0000    0.0000 C   0  0  0  0  0  0  0  0  0  0  0  0
    3.0000    0.0000    0.0000 C   0  0  0  0  0  0  0  0  0  0  0  0
    1.5000    0.0000    0.0000 C   0  0  0  0  0  0  0  0  0  0  0  0
    0.7500   -1.2990    0.0000 C   0  0  0  0  0  0  0  0  0  0  0  0
   -0.7500   -1.2990    0.0000 C   0  0  0  0  0  0  0  0  0  0  0  0
   -1.5000    0.0000    0.0000 C   0  0  0  0  0  0  0  0  0  0  0  0
   -0.7500    1.2990    0.0000 C   0  0  0  0  0  0  0  0  0  0  0  0
    0.7500    1.2990    0.0000 C   0  0  0  0  0  0  0  0  0  0  0  0
    1.5000    2.5981    0.0000 C   0  0  0  0  0  0  0  0  0  0  0  0
  1  2  3  0
  2  3  1  0
  3  4  3  0
  4  5  1  0
  5  6  3  0
  6  7  1  0
  7  8  3  0
  8  9  1  0
  9 10  3  0
 10 11  1  0
 11 12  2  0
 12 13  1  0
 13 14  2  0
 14 15  1  0
 15 16  2  0
 16 17  1  0
 16 11  1  0
M  END
>  <Title>  (183) 
idAAFCgen10

$$$$

     RDKit          2D

 37 42  0  0  0  0  0  0  0  0999 V2000
    1.0838   -9.3334    0.0000 C   0  0  0  0  0  0  0  0  0  0  0  0
    0.7500   -7.8710    0.0000 C   0  0  0  0  0  0  0  0  0  0  0  0
    2.1015   -7.2201    0.0000 N   0  0  0  0  0  0  0  0  0  0  0  0
    3.0367   -6.0474    0.0000 N   0  0  0  0  0  0  0  0  0  0  0  0
    3.3705   -4.5850    0.0000 N   0  0  0  0  0  0  0  0  0  0  0  0
    3.0367   -3.1226    0.0000 N   0  0  0  0  0  0  0  0  0  0  0  0
    4.5199   -2.8990    0.0000 C   0  0  0  0  0  0  0  0  0  0  0  0
    5.0679   -1.5027    0.0000 C   0  0  0  0  0  0  0  0  0  0  0  0
    4.1327   -0.3300    0.0000 C   0  0  0  0  0  0  0  0  0  0  0  0
    4.6807    1.0663    0.0000 C   0  0  0  0  0  0  0  0  0  0  0  0
    5.2287    2.4626    0.0000 N   0  0  0  0  0  0  0  0  0  0  0  0
    2.6495   -0.5536    0.0000 C   0  0  0  0  0  0  0  0  0  0  0  0
    2.1015   -1.9499    0.0000 C   0  0  0  0  0  0  0  0  0  0  0  0
    0.7500   -1.2990    0.0000 C   0  0  0  0  0  0  0  0  0  0  0  0
    1.5000    0.0000    0.0000 C   0  0  0  0  0  0  0  0  0  0  0  0
    0.7500    1.2990    0.0000 C   0  0  0  0  0  0  0  0  0  0  0  0
   -0.7500    1.2990    0.0000 C   0  0  0  0  0  0  0  0  0  0  0  0
   -1.5000    0.0000    0.0000 C   0  0  0  0  0  0  0  0  0  0  0  0
   -0.7500   -1.2990    0.0000 C   0  0  0  0  0  0  0  0  0  0  0  0
   -2.1015   -1.9499    0.0000 C   0  0  0  0  0  0  0  0  0  0  0  0
   -2.6495   -0.5536    0.0000 C   0  0  0  0  0  0  0  0  0  0  0  0
   -4.1327   -0.3300    0.0000 C   0  0  0  0  0  0  0  0  0  0  0  0
   -5.0679   -1.5027    0.0000 C   0  0  0  0  0  0  0  0  0  0  0  0
   -4.5199   -2.8990    0.0000 C   0  0  0  0  0  0  0  0  0  0  0  0
   -3.0367   -3.1226    0.0000 C   0  0  0  0  0  0  0  0  0  0  0  0
   -3.3705   -4.5850    0.0000 C   0  0  0  0  0  0  0  0  0  0  0  0
   -4.8038   -4.1429    0.0000 C   0  0  0  0  0  0  0  0  0  0  0  0
   -5.9034   -5.1631    0.0000 C   0  0  0  0  0  0  0  0  0  0  0  0
   -5.5696   -6.6255    0.0000 C   0  0  0  0  0  0  0  0  0  0  0  0
   -4.1363   -7.0677    0.0000 C   0  0  0  0  0  0  0  0  0  0  0  0
   -3.0367   -6.0474    0.0000 C   0  0  0  0  0  0  0  0  0  0  0  0
   -2.1015   -7.2201    0.0000 C   0  0  0  0  0  0  0  0  0  0  0  0
   -3.3408   -8.0651    0.0000 C   0  0  0  0  0  0  0  0  0  0  0  0
   -3.2287   -9.5609    0.0000 C   0  0  0  0  0  0  0  0  0  0  0  0
   -1.8773  -10.2118    0.0000 C   0  0  0  0  0  0  0  0  0  0  0  0
   -0.6379   -9.3668    0.0000 C   0  0  0  0  0  0  0  0  0  0  0  0
   -0.7500   -7.8710    0.0000 C   0  0  0  0  0  0  0  0  0  0  0  0
  1  2  1  0
  2  3  2  0
  3  4  1  0
  4  5  2  0
  5  6  1  0
  6  7  1  0
  7  8  1  0
  8  9  2  0
  9 10  1  0
 10 11  3  0
  9 12  1  0
 12 13  2  0
 13 14  1  0
 14 15  2  0
 15 16  1  0
 16 17  2  0
 17 18  1  0
 18 19  2  0
 19 20  1  0
 20 21  2  0
 21 22  1  0
 22 23  2  0
 23 24  1  0
 24 25  2  0
 25 26  1  0
 26 27  2  0
 27 28  1  0
 28 29  2  0
 29 30  1  0
 30 31  2  0
 31 32  1  0
 32 33  2  0
 33 34  1  0
 34 35  2  0
 35 36  1  0
 36 37  2  0
 37  2  1  0
 13  6  1  0
 19 14  1  0
 25 20  1  0
 31 26  1  0
 37 32  1  0
M  END
>  <Title>  (184) 
idAAFDgen10

$$$$

     RDKit          2D

  7  7  0  0  0  0  0  0  0  0999 V2000
    3.0000    0.0000    0.0000 O   0  0  0  0  0  0  0  0  0  0  0  0
    1.5000    0.0000    0.0000 C   0  0  0  0  0  0  0  0  0  0  0  0
    0.7500   -1.2990    0.0000 C   0  0  0  0  0  0  0  0  0  0  0  0
   -0.7500   -1.2990    0.0000 C   0  0  0  0  0  0  0  0  0  0  0  0
   -1.5000    0.0000    0.0000 C   0  0  0  0  0  0  0  0  0  0  0  0
   -0.7500    1.2990    0.0000 C   0  0  0  0  0  0  0  0  0  0  0  0
    0.7500    1.2990    0.0000 C   0  0  0  0  0  0  0  0  0  0  0  0
  1  2  1  0
  2  3  2  0
  3  4  1  0
  4  5  2  0
  5  6  1  0
  6  7  2  0
  7  2  1  0
M  END
>  <Title>  (185) 
idAAFEgen10

$$$$

     RDKit          2D

 73 78  0  0  0  0  0  0  0  0999 V2000
   15.7836   11.6442    0.0000 C   0  0  0  0  0  0  0  0  0  0  0  0
   15.2891   10.2281    0.0000 C   0  0  0  0  0  0  0  0  0  0  0  0
   16.6383    9.5725    0.0000 C   0  0  0  0  0  0  0  0  0  0  0  0
   17.7999    8.6235    0.0000 C   0  0  0  0  0  0  0  0  0  0  0  0
   18.7114    7.4322    0.0000 C   0  0  0  0  0  0  0  0  0  0  0  0
   19.3236    6.0628    0.0000 C   0  0  0  0  0  0  0  0  0  0  0  0
   19.6034    4.5891    0.0000 C   0  0  0  0  0  0  0  0  0  0  0  0
   19.5359    3.0907    0.0000 C   0  0  0  0  0  0  0  0  0  0  0  0
   19.1246    1.6482    0.0000 C   0  0  0  0  0  0  0  0  0  0  0  0
   18.3917    0.3394    0.0000 C   0  0  0  0  0  0  0  0  0  0  0  0
   17.3768   -0.7651    0.0000 C   0  0  0  0  0  0  0  0  0  0  0  0
   16.1345   -1.6058    0.0000 C   0  0  0  0  0  0  0  0  0  0  0  0
   14.7318   -2.1373    0.0000 C   0  0  0  0  0  0  0  0  0  0  0  0
   13.2444   -2.3310    0.0000 C   0  0  0  0  0  0  0  0  0  0  0  0
   11.7524   -2.1764    0.0000 C   0  0  0  0  0  0  0  0  0  0  0  0
   10.3362   -1.6819    0.0000 C   0  0  0  0  0  0  0  0  0  0  0  0
    9.0722   -0.8742    0.0000 C   0  0  0  0  0  0  0  0  0  0  0  0
    8.0286    0.2032    0.0000 C   0  0  0  0  0  0  0  0  0  0  0  0
    7.2616    1.4923    0.0000 C   0  0  0  0  0  0  0  0  0  0  0  0
    6.7134   -0.0000    0.0000 C   0  0  0  0  0  0  0  0  0  0  0  0
    6.5760   -1.3514    0.0000 C   0  0  0  0  0  0  0  0  0  0  0  0
    6.1693   -2.6475    0.0000 C   0  0  0  0  0  0  0  0  0  0  0  0
    5.5101   -3.8351    0.0000 C   0  0  0  0  0  0  0  0  0  0  0  0
    4.6253   -4.8658    0.0000 C   0  0  0  0  0  0  0  0  0  0  0  0
    3.5511   -5.6973    0.0000 C   0  0  0  0  0  0  0  0  0  0  0  0
    2.3316   -6.2955    0.0000 C   0  0  0  0  0  0  0  0  0  0  0  0
    1.0166   -6.6360    0.0000 C   0  0  0  0  0  0  0  0  0  0  0  0
   -0.3400   -6.7048    0.0000 C   0  0  0  0  0  0  0  0  0  0  0  0
   -1.6827   -6.4991    0.0000 C   0  0  0  0  0  0  0  0  0  0  0  0
   -2.9565   -6.0273    0.0000 C   0  0  0  0  0  0  0  0  0  0  0  0
   -4.1093   -5.3088    0.0000 C   0  0  0  0  0  0  0  0  0  0  0  0
   -5.0938   -4.3729    0.0000 C   0  0  0  0  0  0  0  0  0  0  0  0
   -5.8698   -3.2580    0.0000 C   0  0  0  0  0  0  0  0  0  0  0  0
   -6.4055   -2.0097    0.0000 C   0  0  0  0  0  0  0  0  0  0  0  0
   -6.6789   -0.6792    0.0000 C   0  0  0  0  0  0  0  0  0  0  0  0
   -6.6789    0.6792    0.0000 C   0  0  0  0  0  0  0  0  0  0  0  0
   -6.4055    2.0097    0.0000 C   0  0  0  0  0  0  0  0  0  0  0  0
   -5.8698    3.2580    0.0000 C   0  0  0  0  0  0  0  0  0  0  0  0
   -5.0938    4.3729    0.0000 C   0  0  0  0  0  0  0  0  0  0  0  0
   -4.1093    5.3088    0.0000 C   0  0  0  0  0  0  0  0  0  0  0  0
   -2.9565    6.0273    0.0000 C   0  0  0  0  0  0  0  0  0  0  0  0
   -1.6827    6.4991    0.0000 C   0  0  0  0  0  0  0  0  0  0  0  0
   -0.3400    6.7048    0.0000 C   0  0  0  0  0  0  0  0  0  0  0  0
    1.0166    6.6360    0.0000 C   0  0  0  0  0  0  0  0  0  0  0  0
    2.3316    6.2955    0.0000 C   0  0  0  0  0  0  0  0  0  0  0  0
    3.5511    5.6973    0.0000 C   0  0  0  0  0  0  0  0  0  0  0  0
    4.6253    4.8658    0.0000 C   0  0  0  0  0  0  0  0  0  0  0  0
    5.5101    3.8351    0.0000 C   0  0  0  0  0  0  0  0  0  0  0  0
    6.8126    2.9235    0.0000 C   0  0  0  0  0  0  0  0  0  0  0  0
    6.7057    4.4197    0.0000 C   0  0  0  0  0  0  0  0  0  0  0  0
    7.8673    3.4707    0.0000 C   0  0  0  0  0  0  0  0  0  0  0  0
    9.2700    4.0022    0.0000 C   0  0  0  0  0  0  0  0  0  0  0  0
    9.5111    5.4827    0.0000 C   0  0  0  0  0  0  0  0  0  0  0  0
    8.3494    6.4317    0.0000 C   0  0  0  0  0  0  0  0  0  0  0  0
    6.9468    5.9002    0.0000 C   0  0  0  0  0  0  0  0  0  0  0  0
    7.5227    7.2852    0.0000 C   0  0  0  0  0  0  0  0  0  0  0  0
    6.0307    7.4398    0.0000 C   0  0  0  0  0  0  0  0  0  0  0  0
    5.4186    8.8092    0.0000 C   0  0  0  0  0  0  0  0  0  0  0  0
    6.2984   10.0240    0.0000 C   0  0  0  0  0  0  0  0  0  0  0  0
    7.7904    9.8695    0.0000 C   0  0  0  0  0  0  0  0  0  0  0  0
    8.4026    8.5001    0.0000 C   0  0  0  0  0  0  0  0  0  0  0  0
    9.5389    9.4793    0.0000 C   0  0  0  0  0  0  0  0  0  0  0  0
    8.8963   10.6093    0.0000 C   0  0  0  0  0  0  0  0  0  0  0  0
    8.9323   11.4085    0.0000 C   0  0  0  0  0  0  0  0  0  0  0  0
    9.6424   11.7769    0.0000 C   0  0  0  0  0  0  0  0  0  0  0  0
   10.3166   11.3461    0.0000 C   0  0  0  0  0  0  0  0  0  0  0  0
   10.8704   10.1700    0.0000 C   0  0  0  0  0  0  0  0  0  0  0  0
   12.3253   10.5351    0.0000 C   0  0  0  0  0  0  0  0  0  0  0  0
   11.5583   11.8241    0.0000 C   0  0  0  0  0  0  0  0  0  0  0  0
   12.2911   13.1329    0.0000 C   0  0  0  0  0  0  0  0  0  0  0  0
   13.7910   13.1526    0.0000 C   0  0  0  0  0  0  0  0  0  0  0  0
   14.5580   11.8636    0.0000 C   0  0  0  0  0  0  0  0  0  0  0  0
   13.8251   10.5548    0.0000 C   0  0  0  0  0  0  0  0  0  0  0  0
  1  2  1  0
  2  3  1  0
  3  4  2  0
  4  5  1  0
  5  6  1  0
  6  7  2  0
  7  8  1  0
  8  9  2  0
  9 10  1  0
 10 11  2  0
 11 12  1  0
 12 13  2  0
 13 14  1  0
 14 15  2  0
 15 16  1  0
 16 17  2  0
 17 18  1  0
 18 19  2  0
 19 20  1  0
 20 21  1  0
 21 22  1  0
 22 23  1  0
 23 24  1  0
 24 25  2  0
 25 26  1  0
 26 27  2  0
 27 28  1  0
 28 29  2  0
 29 30  1  0
 30 31  2  0
 31 32  1  0
 32 33  2  0
 33 34  1  0
 34 35  2  0
 35 36  1  0
 36 37  2  0
 37 38  1  0
 38 39  2  0
 39 40  1  0
 40 41  2  0
 41 42  1  0
 42 43  2  0
 43 44  1  0
 44 45  2  0
 45 46  1  0
 46 47  2  0
 47 48  1  0
 48 49  2  0
 49 50  1  0
 50 51  2  0
 51 52  1  0
 52 53  2  0
 53 54  1  0
 54 55  2  0
 55 56  1  0
 56 57  2  0
 57 58  1  0
 58 59  2  0
 59 60  1  0
 60 61  2  0
 61 62  1  0
 62 63  2  0
 63 64  1  0
 64 65  2  0
 65 66  1  0
 66 67  2  0
 67 68  1  0
 68 69  2  0
 69 70  1  0
 70 71  2  0
 71 72  1  0
 72 73  2  0
 73  2  1  0
 49 19  1  0
 55 50  1  0
 61 56  1  0
 67 62  1  0
 73 68  1  0
M  END
>  <Title>  (186) 
idAAFFgen10

$$$$

     RDKit          2D

 63 65  0  0  0  0  0  0  0  0999 V2000
   -5.2900    2.4759    0.0000 C   0  0  0  0  0  0  0  0  0  0  0  0
   -4.3950    3.6797    0.0000 C   0  0  0  0  0  0  0  0  0  0  0  0
   -5.5436    4.6444    0.0000 C   0  0  0  0  0  0  0  0  0  0  0  0
   -6.5701    5.7382    0.0000 C   0  0  0  0  0  0  0  0  0  0  0  0
   -7.4600    6.9457    0.0000 C   0  0  0  0  0  0  0  0  0  0  0  0
   -8.2008    8.2500    0.0000 C   0  0  0  0  0  0  0  0  0  0  0  0
   -8.7821    9.6328    0.0000 C   0  0  0  0  0  0  0  0  0  0  0  0
   -9.1959   11.0746    0.0000 C   0  0  0  0  0  0  0  0  0  0  0  0
   -9.4362   12.5552    0.0000 C   0  0  0  0  0  0  0  0  0  0  0  0
   -9.4996   14.0539    0.0000 C   0  0  0  0  0  0  0  0  0  0  0  0
   -9.3854   15.5495    0.0000 C   0  0  0  0  0  0  0  0  0  0  0  0
   -9.0951   17.0212    0.0000 C   0  0  0  0  0  0  0  0  0  0  0  0
   -8.6328   18.4481    0.0000 C   0  0  0  0  0  0  0  0  0  0  0  0
   -8.0050   19.8104    0.0000 C   0  0  0  0  0  0  0  0  0  0  0  0
   -7.2204   21.0889    0.0000 C   0  0  0  0  0  0  0  0  0  0  0  0
   -6.2902   22.2656    0.0000 C   0  0  0  0  0  0  0  0  0  0  0  0
   -5.2273   23.3240    0.0000 C   0  0  0  0  0  0  0  0  0  0  0  0
   -4.0466   24.2493    0.0000 C   0  0  0  0  0  0  0  0  0  0  0  0
   -2.7649   25.0284    0.0000 C   0  0  0  0  0  0  0  0  0  0  0  0
   -1.3999   25.6505    0.0000 C   0  0  0  0  0  0  0  0  0  0  0  0
    0.0290   26.1067    0.0000 C   0  0  0  0  0  0  0  0  0  0  0  0
    1.5019   26.3908    0.0000 C   0  0  0  0  0  0  0  0  0  0  0  0
    2.9980   26.4987    0.0000 C   0  0  0  0  0  0  0  0  0  0  0  0
    4.4963   26.4289    0.0000 C   0  0  0  0  0  0  0  0  0  0  0  0
    5.9759   26.1823    0.0000 C   0  0  0  0  0  0  0  0  0  0  0  0
    7.4160   25.7625    0.0000 C   0  0  0  0  0  0  0  0  0  0  0  0
    8.7963   25.1753    0.0000 C   0  0  0  0  0  0  0  0  0  0  0  0
   10.0974   24.4289    0.0000 C   0  0  0  0  0  0  0  0  0  0  0  0
   11.3012   23.5339    0.0000 C   0  0  0  0  0  0  0  0  0  0  0  0
   12.3906   22.5029    0.0000 C   0  0  0  0  0  0  0  0  0  0  0  0
   13.3505   21.3502    0.0000 C   0  0  0  0  0  0  0  0  0  0  0  0
   14.1672   20.0921    0.0000 C   0  0  0  0  0  0  0  0  0  0  0  0
   14.8295   18.7462    0.0000 C   0  0  0  0  0  0  0  0  0  0  0  0
   15.3279   17.3314    0.0000 C   0  0  0  0  0  0  0  0  0  0  0  0
   15.6555   15.8676    0.0000 C   0  0  0  0  0  0  0  0  0  0  0  0
   15.8077   14.3753    0.0000 C   0  0  0  0  0  0  0  0  0  0  0  0
   15.7823   12.8756    0.0000 C   0  0  0  0  0  0  0  0  0  0  0  0
   15.5796   11.3893    0.0000 C   0  0  0  0  0  0  0  0  0  0  0  0
   15.2027    9.9374    0.0000 C   0  0  0  0  0  0  0  0  0  0  0  0
   14.6566    8.5404    0.0000 C   0  0  0  0  0  0  0  0  0  0  0  0
   13.9492    7.2177    0.0000 C   0  0  0  0  0  0  0  0  0  0  0  0
   13.0903    5.9879    0.0000 C   0  0  0  0  0  0  0  0  0  0  0  0
   12.0919    4.8684    0.0000 C   0  0  0  0  0  0  0  0  0  0  0  0
   10.9682    3.8748    0.0000 C   0  0  0  0  0  0  0  0  0  0  0  0
    9.7348    3.0211    0.0000 C   0  0  0  0  0  0  0  0  0  0  0  0
    8.4092    2.3193    0.0000 C   0  0  0  0  0  0  0  0  0  0  0  0
    7.0098    1.7792    0.0000 C   0  0  0  0  0  0  0  0  0  0  0  0
    5.5563    1.4083    0.0000 C   0  0  0  0  0  0  0  0  0  0  0  0
    4.0692    1.2120    0.0000 C   0  0  0  0  0  0  0  0  0  0  0  0
    2.5694    1.1930    0.0000 C   0  0  0  0  0  0  0  0  0  0  0  0
    1.0777    1.3515    0.0000 C   0  0  0  0  0  0  0  0  0  0  0  0
    1.7286    0.0000    0.0000 C   0  0  0  0  0  0  0  0  0  0  0  0
    1.0777   -1.3515    0.0000 C   0  0  0  0  0  0  0  0  0  0  0  0
   -0.3846   -1.6852    0.0000 C   0  0  0  0  0  0  0  0  0  0  0  0
   -1.5574   -0.7500    0.0000 C   0  0  0  0  0  0  0  0  0  0  0  0
   -1.5574    0.7500    0.0000 C   0  0  0  0  0  0  0  0  0  0  0  0
   -0.3846    1.6852    0.0000 C   0  0  0  0  0  0  0  0  0  0  0  0
   -1.7973    2.1896    0.0000 C   0  0  0  0  0  0  0  0  0  0  0  0
   -0.5473    3.0188    0.0000 C   0  0  0  0  0  0  0  0  0  0  0  0
   -0.6404    4.5159    0.0000 C   0  0  0  0  0  0  0  0  0  0  0  0
   -1.9835    5.1839    0.0000 C   0  0  0  0  0  0  0  0  0  0  0  0
   -3.2335    4.3547    0.0000 C   0  0  0  0  0  0  0  0  0  0  0  0
   -3.1404    2.8576    0.0000 C   0  0  0  0  0  0  0  0  0  0  0  0
  1  2  1  0
  2  3  1  0
  3  4  2  0
  4  5  1  0
  5  6  1  0
  6  7  1  0
  7  8  1  0
  8  9  1  0
  9 10  1  0
 10 11  1  0
 11 12  1  0
 12 13  1  0
 13 14  1  0
 14 15  2  0
 15 16  1  0
 16 17  2  0
 17 18  1  0
 18 19  2  0
 19 20  1  0
 20 21  2  0
 21 22  1  0
 22 23  2  0
 23 24  1  0
 24 25  2  0
 25 26  1  0
 26 27  2  0
 27 28  1  0
 28 29  2  0
 29 30  1  0
 30 31  2  0
 31 32  1  0
 32 33  2  0
 33 34  1  0
 34 35  2  0
 35 36  1  0
 36 37  2  0
 37 38  1  0
 38 39  2  0
 39 40  1  0
 40 41  2  0
 41 42  1  0
 42 43  2  0
 43 44  1  0
 44 45  2  0
 45 46  1  0
 46 47  2  0
 47 48  1  0
 48 49  2  0
 49 50  1  0
 50 51  2  0
 51 52  1  0
 52 53  2  0
 53 54  1  0
 54 55  2  0
 55 56  1  0
 56 57  2  0
 57 58  1  0
 58 59  2  0
 59 60  1  0
 60 61  2  0
 61 62  1  0
 62 63  2  0
 63  2  1  0
 57 51  1  0
 63 58  1  0
M  END
>  <Title>  (187) 
idAAFGgen10

$$$$

     RDKit          2D

 10 10  0  0  0  0  0  0  0  0999 V2000
    5.2500    1.2990    0.0000 C   0  0  0  0  0  0  0  0  0  0  0  0
    3.7500    1.2990    0.0000 C   0  0  0  0  0  0  0  0  0  0  0  0
    3.0000    0.0000    0.0000 C   0  0  0  0  0  0  0  0  0  0  0  0
    3.7500   -1.2990    0.0000 C   0  0  0  0  0  0  0  0  0  0  0  0
    1.5000    0.0000    0.0000 C   0  0  0  0  0  0  0  0  0  0  0  0
    0.7500   -1.2990    0.0000 C   0  0  0  0  0  0  0  0  0  0  0  0
   -0.7500   -1.2990    0.0000 C   0  0  0  0  0  0  0  0  0  0  0  0
   -1.5000    0.0000    0.0000 C   0  0  0  0  0  0  0  0  0  0  0  0
   -0.7500    1.2990    0.0000 C   0  0  0  0  0  0  0  0  0  0  0  0
    0.7500    1.2990    0.0000 C   0  0  0  0  0  0  0  0  0  0  0  0
  1  2  2  0
  2  3  1  0
  3  4  1  0
  3  5  1  0
  5  6  2  0
  6  7  1  0
  7  8  2  0
  8  9  1  0
  9 10  2  0
 10  5  1  0
M  END
>  <Title>  (188) 
idAAFHgen10

$$$$

     RDKit          2D

 17 19  0  0  0  0  0  0  0  0999 V2000
   -1.3240   -6.3062    0.0000 C   0  0  0  0  0  0  0  0  0  0  0  0
   -0.7500   -4.9204    0.0000 C   0  0  0  0  0  0  0  0  0  0  0  0
    0.7500   -4.9204    0.0000 N   0  0  0  0  0  0  0  0  0  0  0  0
    1.8107   -3.8597    0.0000 N   0  0  0  0  0  0  0  0  0  0  0  0
    1.8107   -2.3597    0.0000 N   0  0  0  0  0  0  0  0  0  0  0  0
    0.7500   -1.2990    0.0000 N   0  0  0  0  0  0  0  0  0  0  0  0
    1.5000    0.0000    0.0000 C   0  0  0  0  0  0  0  0  0  0  0  0
    0.7500    1.2990    0.0000 C   0  0  0  0  0  0  0  0  0  0  0  0
   -0.7500    1.2990    0.0000 C   0  0  0  0  0  0  0  0  0  0  0  0
   -1.5000    0.0000    0.0000 C   0  0  0  0  0  0  0  0  0  0  0  0
   -0.7500   -1.2990    0.0000 C   0  0  0  0  0  0  0  0  0  0  0  0
   -1.8107   -2.3597    0.0000 C   0  0  0  0  0  0  0  0  0  0  0  0
   -3.1097   -1.6097    0.0000 C   0  0  0  0  0  0  0  0  0  0  0  0
   -4.4087   -2.3597    0.0000 C   0  0  0  0  0  0  0  0  0  0  0  0
   -4.4087   -3.8597    0.0000 C   0  0  0  0  0  0  0  0  0  0  0  0
   -3.1097   -4.6097    0.0000 C   0  0  0  0  0  0  0  0  0  0  0  0
   -1.8107   -3.8597    0.0000 C   0  0  0  0  0  0  0  0  0  0  0  0
  1  2  1  0
  2  3  2  0
  3  4  1  0
  4  5  2  0
  5  6  1  0
  6  7  1  0
  7  8  1  0
  8  9  2  0
  9 10  1  0
 10 11  2  0
 11 12  1  0
 12 13  2  0
 13 14  1  0
 14 15  2  0
 15 16  1  0
 16 17  2  0
 17  2  1  0
 11  6  1  0
 17 12  1  0
M  END
>  <Title>  (189) 
idAAFIgen10

$$$$

     RDKit          2D

  6  6  0  0  0  0  0  0  0  0999 V2000
    2.5607    0.0000    0.0000 C   0  0  0  0  0  0  0  0  0  0  0  0
    1.0607    0.0000    0.0000 C   0  0  0  0  0  0  0  0  0  0  0  0
   -0.0000   -1.0607    0.0000 C   0  0  0  0  0  0  0  0  0  0  0  0
   -0.0000   -2.5607    0.0000 C   0  0  0  0  0  0  0  0  0  0  0  0
   -1.0607    0.0000    0.0000 N   0  0  0  0  0  0  0  0  0  0  0  0
    0.0000    1.0607    0.0000 N   0  0  0  0  0  0  0  0  0  0  0  0
  1  2  1  0
  2  3  2  0
  3  4  1  0
  3  5  1  0
  5  6  2  0
  6  2  1  0
M  END
>  <Title>  (190) 
idAAFJgen10

$$$$

     RDKit          2D

103106  0  0  0  0  0  0  0  0999 V2000
   -5.4736   -7.1285    0.0000 C   0  0  0  0  0  0  0  0  0  0  0  0
   -4.1875   -7.9005    0.0000 C   0  0  0  0  0  0  0  0  0  0  0  0
   -4.9120   -9.2139    0.0000 C   0  0  0  0  0  0  0  0  0  0  0  0
   -5.5388  -10.5767    0.0000 C   0  0  0  0  0  0  0  0  0  0  0  0
   -6.0644  -11.9816    0.0000 C   0  0  0  0  0  0  0  0  0  0  0  0
   -6.4860  -13.4211    0.0000 C   0  0  0  0  0  0  0  0  0  0  0  0
   -6.8015  -14.8876    0.0000 C   0  0  0  0  0  0  0  0  0  0  0  0
   -7.0090  -16.3731    0.0000 C   0  0  0  0  0  0  0  0  0  0  0  0
   -7.1076  -17.8699    0.0000 C   0  0  0  0  0  0  0  0  0  0  0  0
   -7.0966  -19.3699    0.0000 C   0  0  0  0  0  0  0  0  0  0  0  0
   -6.9762  -20.8650    0.0000 C   0  0  0  0  0  0  0  0  0  0  0  0
   -6.7470  -22.3474    0.0000 C   0  0  0  0  0  0  0  0  0  0  0  0
   -6.4101  -23.8091    0.0000 C   0  0  0  0  0  0  0  0  0  0  0  0
   -5.9675  -25.2423    0.0000 C   0  0  0  0  0  0  0  0  0  0  0  0
   -5.4214  -26.6394    0.0000 C   0  0  0  0  0  0  0  0  0  0  0  0
   -4.7748  -27.9929    0.0000 C   0  0  0  0  0  0  0  0  0  0  0  0
   -4.0312  -29.2955    0.0000 C   0  0  0  0  0  0  0  0  0  0  0  0
   -3.1944  -30.5404    0.0000 C   0  0  0  0  0  0  0  0  0  0  0  0
   -2.2690  -31.7210    0.0000 C   0  0  0  0  0  0  0  0  0  0  0  0
   -1.2599  -32.8308    0.0000 C   0  0  0  0  0  0  0  0  0  0  0  0
   -0.1725  -33.8640    0.0000 C   0  0  0  0  0  0  0  0  0  0  0  0
    0.9875  -34.8150    0.0000 C   0  0  0  0  0  0  0  0  0  0  0  0
    2.2138  -35.6789    0.0000 C   0  0  0  0  0  0  0  0  0  0  0  0
    3.4998  -36.4509    0.0000 C   0  0  0  0  0  0  0  0  0  0  0  0
    4.8388  -37.1270    0.0000 C   0  0  0  0  0  0  0  0  0  0  0  0
    6.2236  -37.7036    0.0000 C   0  0  0  0  0  0  0  0  0  0  0  0
    7.6468  -38.1775    0.0000 C   0  0  0  0  0  0  0  0  0  0  0  0
    9.1007  -38.5463    0.0000 C   0  0  0  0  0  0  0  0  0  0  0  0
   10.5777  -38.8080    0.0000 C   0  0  0  0  0  0  0  0  0  0  0  0
   12.0699  -38.9611    0.0000 C   0  0  0  0  0  0  0  0  0  0  0  0
   13.5692  -39.0050    0.0000 C   0  0  0  0  0  0  0  0  0  0  0  0
   15.0678  -38.9392    0.0000 C   0  0  0  0  0  0  0  0  0  0  0  0
   16.5576  -38.7643    0.0000 C   0  0  0  0  0  0  0  0  0  0  0  0
   18.0306  -38.4811    0.0000 C   0  0  0  0  0  0  0  0  0  0  0  0
   19.4790  -38.0911    0.0000 C   0  0  0  0  0  0  0  0  0  0  0  0
   20.8951  -37.5964    0.0000 C   0  0  0  0  0  0  0  0  0  0  0  0
   22.2713  -36.9997    0.0000 C   0  0  0  0  0  0  0  0  0  0  0  0
   23.6002  -36.3041    0.0000 C   0  0  0  0  0  0  0  0  0  0  0  0
   24.8749  -35.5133    0.0000 C   0  0  0  0  0  0  0  0  0  0  0  0
   26.0884  -34.6316    0.0000 C   0  0  0  0  0  0  0  0  0  0  0  0
   27.2343  -33.6637    0.0000 C   0  0  0  0  0  0  0  0  0  0  0  0
   28.3066  -32.6148    0.0000 C   0  0  0  0  0  0  0  0  0  0  0  0
   29.2994  -31.4903    0.0000 C   0  0  0  0  0  0  0  0  0  0  0  0
   30.2074  -30.2964    0.0000 C   0  0  0  0  0  0  0  0  0  0  0  0
   31.0259  -29.0394    0.0000 C   0  0  0  0  0  0  0  0  0  0  0  0
   31.7505  -27.7260    0.0000 C   0  0  0  0  0  0  0  0  0  0  0  0
   32.3772  -26.3632    0.0000 C   0  0  0  0  0  0  0  0  0  0  0  0
   32.9028  -24.9583    0.0000 C   0  0  0  0  0  0  0  0  0  0  0  0
   33.3244  -23.5188    0.0000 C   0  0  0  0  0  0  0  0  0  0  0  0
   33.6399  -22.0523    0.0000 C   0  0  0  0  0  0  0  0  0  0  0  0
   33.8474  -20.5668    0.0000 C   0  0  0  0  0  0  0  0  0  0  0  0
   33.9460  -19.0700    0.0000 C   0  0  0  0  0  0  0  0  0  0  0  0
   33.9350  -17.5700    0.0000 C   0  0  0  0  0  0  0  0  0  0  0  0
   33.8146  -16.0749    0.0000 C   0  0  0  0  0  0  0  0  0  0  0  0
   33.5854  -14.5925    0.0000 C   0  0  0  0  0  0  0  0  0  0  0  0
   33.2485  -13.1308    0.0000 C   0  0  0  0  0  0  0  0  0  0  0  0
   32.8059  -11.6976    0.0000 C   0  0  0  0  0  0  0  0  0  0  0  0
   32.2598  -10.3005    0.0000 C   0  0  0  0  0  0  0  0  0  0  0  0
   31.6133   -8.9470    0.0000 C   0  0  0  0  0  0  0  0  0  0  0  0
   30.8696   -7.6444    0.0000 C   0  0  0  0  0  0  0  0  0  0  0  0
   30.0328   -6.3995    0.0000 C   0  0  0  0  0  0  0  0  0  0  0  0
   29.1074   -5.2189    0.0000 C   0  0  0  0  0  0  0  0  0  0  0  0
   28.0983   -4.1091    0.0000 C   0  0  0  0  0  0  0  0  0  0  0  0
   27.0109   -3.0759    0.0000 C   0  0  0  0  0  0  0  0  0  0  0  0
   25.8509   -2.1249    0.0000 C   0  0  0  0  0  0  0  0  0  0  0  0
   24.6246   -1.2610    0.0000 C   0  0  0  0  0  0  0  0  0  0  0  0
   23.3386   -0.4890    0.0000 C   0  0  0  0  0  0  0  0  0  0  0  0
   21.9996    0.1871    0.0000 C   0  0  0  0  0  0  0  0  0  0  0  0
   20.6148    0.7637    0.0000 C   0  0  0  0  0  0  0  0  0  0  0  0
   19.1917    1.2376    0.0000 C   0  0  0  0  0  0  0  0  0  0  0  0
   17.7377    1.6064    0.0000 C   0  0  0  0  0  0  0  0  0  0  0  0
   16.2607    1.8681    0.0000 C   0  0  0  0  0  0  0  0  0  0  0  0
   14.7685    2.0212    0.0000 C   0  0  0  0  0  0  0  0  0  0  0  0
   13.2692    2.0651    0.0000 C   0  0  0  0  0  0  0  0  0  0  0  0
   11.7706    1.9993    0.0000 C   0  0  0  0  0  0  0  0  0  0  0  0
   10.2809    1.8244    0.0000 C   0  0  0  0  0  0  0  0  0  0  0  0
    8.8078    1.5412    0.0000 C   0  0  0  0  0  0  0  0  0  0  0  0
    7.3594    1.1512    0.0000 C   0  0  0  0  0  0  0  0  0  0  0  0
    5.9433    0.6565    0.0000 C   0  0  0  0  0  0  0  0  0  0  0  0
    4.5671    0.0598    0.0000 C   0  0  0  0  0  0  0  0  0  0  0  0
    3.2382   -0.6358    0.0000 C   0  0  0  0  0  0  0  0  0  0  0  0
    1.9635   -1.4266    0.0000 C   0  0  0  0  0  0  0  0  0  0  0  0
    2.4271    0.0000    0.0000 C   0  0  0  0  0  0  0  0  0  0  0  0
    1.9635    1.4266    0.0000 C   0  0  0  0  0  0  0  0  0  0  0  0
    0.7500    2.3083    0.0000 C   0  0  0  0  0  0  0  0  0  0  0  0
   -0.7500    2.3083    0.0000 C   0  0  0  0  0  0  0  0  0  0  0  0
   -1.9635    1.4266    0.0000 C   0  0  0  0  0  0  0  0  0  0  0  0
   -2.4271    0.0000    0.0000 C   0  0  0  0  0  0  0  0  0  0  0  0
   -1.9635   -1.4266    0.0000 C   0  0  0  0  0  0  0  0  0  0  0  0
   -0.7500   -2.3083    0.0000 C   0  0  0  0  0  0  0  0  0  0  0  0
    0.7500   -2.3083    0.0000 C   0  0  0  0  0  0  0  0  0  0  0  0
   -0.3959   -3.2762    0.0000 C   0  0  0  0  0  0  0  0  0  0  0  0
    1.0486   -3.6803    0.0000 C   0  0  0  0  0  0  0  0  0  0  0  0
    1.4209   -5.1333    0.0000 C   0  0  0  0  0  0  0  0  0  0  0  0
    0.3487   -6.1823    0.0000 C   0  0  0  0  0  0  0  0  0  0  0  0
   -1.0958   -5.7782    0.0000 C   0  0  0  0  0  0  0  0  0  0  0  0
   -1.4681   -4.3251    0.0000 C   0  0  0  0  0  0  0  0  0  0  0  0
   -2.4609   -5.4496    0.0000 C   0  0  0  0  0  0  0  0  0  0  0  0
   -3.0409   -4.0662    0.0000 C   0  0  0  0  0  0  0  0  0  0  0  0
   -4.5289   -3.8768    0.0000 C   0  0  0  0  0  0  0  0  0  0  0  0
   -5.4369   -5.0707    0.0000 C   0  0  0  0  0  0  0  0  0  0  0  0
   -4.8570   -6.4540    0.0000 C   0  0  0  0  0  0  0  0  0  0  0  0
   -3.3690   -6.6435    0.0000 C   0  0  0  0  0  0  0  0  0  0  0  0
  1  2  1  0
  2  3  1  0
  3  4  1  0
  4  5  1  0
  5  6  1  0
  6  7  1  0
  7  8  1  0
  8  9  1  0
  9 10  1  0
 10 11  1  0
 11 12  1  0
 12 13  1  0
 13 14  1  0
 14 15  1  0
 15 16  1  0
 16 17  1  0
 17 18  1  0
 18 19  1  0
 19 20  1  0
 20 21  1  0
 21 22  1  0
 22 23  1  0
 23 24  1  0
 24 25  1  0
 25 26  1  0
 26 27  1  0
 27 28  1  0
 28 29  1  0
 29 30  1  0
 30 31  1  0
 31 32  1  0
 32 33  1  0
 33 34  1  0
 34 35  1  0
 35 36  1  0
 36 37  1  0
 37 38  1  0
 38 39  1  0
 39 40  1  0
 40 41  1  0
 41 42  1  0
 42 43  1  0
 43 44  1  0
 44 45  1  0
 45 46  1  0
 46 47  1  0
 47 48  1  0
 48 49  1  0
 49 50  1  0
 50 51  1  0
 51 52  1  0
 52 53  1  0
 53 54  1  0
 54 55  1  0
 55 56  1  0
 56 57  1  0
 57 58  1  0
 58 59  1  0
 59 60  1  0
 60 61  1  0
 61 62  1  0
 62 63  1  0
 63 64  1  0
 64 65  1  0
 65 66  1  0
 66 67  1  0
 67 68  1  0
 68 69  1  0
 69 70  1  0
 70 71  1  0
 71 72  1  0
 72 73  1  0
 73 74  1  0
 74 75  1  0
 75 76  1  0
 76 77  1  0
 77 78  1  0
 78 79  1  0
 79 80  1  0
 80 81  1  0
 81 82  1  0
 82 83  1  0
 83 84  1  0
 84 85  1  0
 85 86  1  0
 86 87  1  0
 87 88  1  0
 88 89  1  0
 89 90  1  0
 90 91  1  0
 91 92  1  0
 92 93  2  0
 93 94  1  0
 94 95  2  0
 95 96  1  0
 96 97  2  0
 97 98  1  0
 98 99  2  0
 99100  1  0
100101  2  0
101102  1  0
102103  2  0
103  2  1  0
 91 82  1  0
 97 92  1  0
103 98  1  0
M  END
>  <Title>  (191) 
idAAFKgen10

$$$$

     RDKit          2D

111112  0  0  0  0  0  0  0  0999 V2000
   -2.3806    0.1062    0.0000 C   0  0  0  0  0  0  0  0  0  0  0  0
   -2.2474   -1.3879    0.0000 C   0  0  0  0  0  0  0  0  0  0  0  0
   -3.7368   -1.5653    0.0000 C   0  0  0  0  0  0  0  0  0  0  0  0
   -5.2132   -1.8306    0.0000 C   0  0  0  0  0  0  0  0  0  0  0  0
   -6.6712   -2.1830    0.0000 C   0  0  0  0  0  0  0  0  0  0  0  0
   -8.1058   -2.6211    0.0000 C   0  0  0  0  0  0  0  0  0  0  0  0
   -9.5119   -3.1434    0.0000 C   0  0  0  0  0  0  0  0  0  0  0  0
  -10.8847   -3.7480    0.0000 C   0  0  0  0  0  0  0  0  0  0  0  0
  -12.2192   -4.4330    0.0000 C   0  0  0  0  0  0  0  0  0  0  0  0
  -13.5107   -5.1958    0.0000 C   0  0  0  0  0  0  0  0  0  0  0  0
  -14.7548   -6.0338    0.0000 C   0  0  0  0  0  0  0  0  0  0  0  0
  -15.9471   -6.9440    0.0000 C   0  0  0  0  0  0  0  0  0  0  0  0
  -17.0834   -7.9232    0.0000 C   0  0  0  0  0  0  0  0  0  0  0  0
  -18.1596   -8.9680    0.0000 C   0  0  0  0  0  0  0  0  0  0  0  0
  -19.1721  -10.0748    0.0000 C   0  0  0  0  0  0  0  0  0  0  0  0
  -20.1172  -11.2396    0.0000 C   0  0  0  0  0  0  0  0  0  0  0  0
  -20.9917  -12.4583    0.0000 C   0  0  0  0  0  0  0  0  0  0  0  0
  -21.7924  -13.7267    0.0000 C   0  0  0  0  0  0  0  0  0  0  0  0
  -22.5166  -15.0403    0.0000 C   0  0  0  0  0  0  0  0  0  0  0  0
  -23.1617  -16.3945    0.0000 C   0  0  0  0  0  0  0  0  0  0  0  0
  -23.7255  -17.7845    0.0000 C   0  0  0  0  0  0  0  0  0  0  0  0
  -24.2059  -19.2055    0.0000 C   0  0  0  0  0  0  0  0  0  0  0  0
  -24.6013  -20.6525    0.0000 C   0  0  0  0  0  0  0  0  0  0  0  0
  -24.9102  -22.1203    0.0000 C   0  0  0  0  0  0  0  0  0  0  0  0
  -25.1317  -23.6038    0.0000 C   0  0  0  0  0  0  0  0  0  0  0  0
  -25.2649  -25.0979    0.0000 C   0  0  0  0  0  0  0  0  0  0  0  0
  -25.3093  -26.5973    0.0000 C   0  0  0  0  0  0  0  0  0  0  0  0
  -25.2649  -28.0966    0.0000 C   0  0  0  0  0  0  0  0  0  0  0  0
  -25.1317  -29.5907    0.0000 C   0  0  0  0  0  0  0  0  0  0  0  0
  -24.9102  -31.0742    0.0000 C   0  0  0  0  0  0  0  0  0  0  0  0
  -24.6013  -32.5421    0.0000 C   0  0  0  0  0  0  0  0  0  0  0  0
  -24.2059  -33.9890    0.0000 C   0  0  0  0  0  0  0  0  0  0  0  0
  -23.7255  -35.4100    0.0000 C   0  0  0  0  0  0  0  0  0  0  0  0
  -23.1617  -36.8001    0.0000 C   0  0  0  0  0  0  0  0  0  0  0  0
  -22.5166  -38.1542    0.0000 C   0  0  0  0  0  0  0  0  0  0  0  0
  -21.7924  -39.4679    0.0000 C   0  0  0  0  0  0  0  0  0  0  0  0
  -20.9917  -40.7362    0.0000 C   0  0  0  0  0  0  0  0  0  0  0  0
  -20.1172  -41.9550    0.0000 C   0  0  0  0  0  0  0  0  0  0  0  0
  -19.1721  -43.1198    0.0000 C   0  0  0  0  0  0  0  0  0  0  0  0
  -18.1596  -44.2265    0.0000 C   0  0  0  0  0  0  0  0  0  0  0  0
  -17.0834  -45.2713    0.0000 C   0  0  0  0  0  0  0  0  0  0  0  0
  -15.9471  -46.2506    0.0000 C   0  0  0  0  0  0  0  0  0  0  0  0
  -14.7548  -47.1608    0.0000 C   0  0  0  0  0  0  0  0  0  0  0  0
  -13.5107  -47.9987    0.0000 C   0  0  0  0  0  0  0  0  0  0  0  0
  -12.2192  -48.7615    0.0000 C   0  0  0  0  0  0  0  0  0  0  0  0
  -10.8847  -49.4465    0.0000 C   0  0  0  0  0  0  0  0  0  0  0  0
   -9.5119  -50.0512    0.0000 C   0  0  0  0  0  0  0  0  0  0  0  0
   -8.1058  -50.5735    0.0000 C   0  0  0  0  0  0  0  0  0  0  0  0
   -6.6712  -51.0116    0.0000 C   0  0  0  0  0  0  0  0  0  0  0  0
   -5.2132  -51.3639    0.0000 C   0  0  0  0  0  0  0  0  0  0  0  0
   -3.7368  -51.6292    0.0000 C   0  0  0  0  0  0  0  0  0  0  0  0
   -2.2474  -51.8066    0.0000 C   0  0  0  0  0  0  0  0  0  0  0  0
   -0.7500  -51.8955    0.0000 C   0  0  0  0  0  0  0  0  0  0  0  0
    0.7500  -51.8955    0.0000 C   0  0  0  0  0  0  0  0  0  0  0  0
    2.2474  -51.8066    0.0000 C   0  0  0  0  0  0  0  0  0  0  0  0
    3.7368  -51.6292    0.0000 C   0  0  0  0  0  0  0  0  0  0  0  0
    5.2132  -51.3639    0.0000 C   0  0  0  0  0  0  0  0  0  0  0  0
    6.6712  -51.0116    0.0000 C   0  0  0  0  0  0  0  0  0  0  0  0
    8.1058  -50.5735    0.0000 C   0  0  0  0  0  0  0  0  0  0  0  0
    9.5119  -50.0512    0.0000 C   0  0  0  0  0  0  0  0  0  0  0  0
   10.8847  -49.4465    0.0000 C   0  0  0  0  0  0  0  0  0  0  0  0
   12.2192  -48.7615    0.0000 C   0  0  0  0  0  0  0  0  0  0  0  0
   13.5107  -47.9987    0.0000 C   0  0  0  0  0  0  0  0  0  0  0  0
   14.7548  -47.1608    0.0000 C   0  0  0  0  0  0  0  0  0  0  0  0
   15.9471  -46.2506    0.0000 C   0  0  0  0  0  0  0  0  0  0  0  0
   17.0834  -45.2713    0.0000 C   0  0  0  0  0  0  0  0  0  0  0  0
   18.1596  -44.2265    0.0000 C   0  0  0  0  0  0  0  0  0  0  0  0
   19.1721  -43.1198    0.0000 C   0  0  0  0  0  0  0  0  0  0  0  0
   20.1172  -41.9550    0.0000 C   0  0  0  0  0  0  0  0  0  0  0  0
   20.9917  -40.7362    0.0000 C   0  0  0  0  0  0  0  0  0  0  0  0
   21.7924  -39.4679    0.0000 C   0  0  0  0  0  0  0  0  0  0  0  0
   22.5166  -38.1542    0.0000 C   0  0  0  0  0  0  0  0  0  0  0  0
   23.1617  -36.8001    0.0000 C   0  0  0  0  0  0  0  0  0  0  0  0
   23.7255  -35.4100    0.0000 C   0  0  0  0  0  0  0  0  0  0  0  0
   24.2059  -33.9890    0.0000 C   0  0  0  0  0  0  0  0  0  0  0  0
   24.6013  -32.5421    0.0000 C   0  0  0  0  0  0  0  0  0  0  0  0
   24.9102  -31.0742    0.0000 C   0  0  0  0  0  0  0  0  0  0  0  0
   25.1317  -29.5907    0.0000 C   0  0  0  0  0  0  0  0  0  0  0  0
   25.2649  -28.0966    0.0000 C   0  0  0  0  0  0  0  0  0  0  0  0
   25.3093  -26.5973    0.0000 C   0  0  0  0  0  0  0  0  0  0  0  0
   25.2649  -25.0979    0.0000 C   0  0  0  0  0  0  0  0  0  0  0  0
   25.1317  -23.6038    0.0000 C   0  0  0  0  0  0  0  0  0  0  0  0
   24.9102  -22.1203    0.0000 C   0  0  0  0  0  0  0  0  0  0  0  0
   24.6013  -20.6525    0.0000 C   0  0  0  0  0  0  0  0  0  0  0  0
   24.2059  -19.2055    0.0000 C   0  0  0  0  0  0  0  0  0  0  0  0
   23.7255  -17.7845    0.0000 C   0  0  0  0  0  0  0  0  0  0  0  0
   23.1617  -16.3945    0.0000 C   0  0  0  0  0  0  0  0  0  0  0  0
   22.5166  -15.0403    0.0000 C   0  0  0  0  0  0  0  0  0  0  0  0
   21.7924  -13.7267    0.0000 C   0  0  0  0  0  0  0  0  0  0  0  0
   20.9917  -12.4583    0.0000 C   0  0  0  0  0  0  0  0  0  0  0  0
   20.1172  -11.2396    0.0000 C   0  0  0  0  0  0  0  0  0  0  0  0
   19.1721  -10.0748    0.0000 C   0  0  0  0  0  0  0  0  0  0  0  0
   18.1596   -8.9680    0.0000 C   0  0  0  0  0  0  0  0  0  0  0  0
   17.0834   -7.9232    0.0000 C   0  0  0  0  0  0  0  0  0  0  0  0
   15.9471   -6.9440    0.0000 C   0  0  0  0  0  0  0  0  0  0  0  0
   14.7548   -6.0338    0.0000 C   0  0  0  0  0  0  0  0  0  0  0  0
   13.5107   -5.1958    0.0000 C   0  0  0  0  0  0  0  0  0  0  0  0
   12.2192   -4.4330    0.0000 C   0  0  0  0  0  0  0  0  0  0  0  0
   10.8847   -3.7480    0.0000 C   0  0  0  0  0  0  0  0  0  0  0  0
    9.5119   -3.1434    0.0000 C   0  0  0  0  0  0  0  0  0  0  0  0
    8.1058   -2.6211    0.0000 C   0  0  0  0  0  0  0  0  0  0  0  0
    6.6712   -2.1830    0.0000 C   0  0  0  0  0  0  0  0  0  0  0  0
    5.2132   -1.8306    0.0000 C   0  0  0  0  0  0  0  0  0  0  0  0
    3.7368   -1.5653    0.0000 C   0  0  0  0  0  0  0  0  0  0  0  0
    2.2474   -1.3879    0.0000 C   0  0  0  0  0  0  0  0  0  0  0  0
    0.7500   -1.2990    0.0000 C   0  0  0  0  0  0  0  0  0  0  0  0
    1.5000    0.0000    0.0000 C   0  0  0  0  0  0  0  0  0  0  0  0
    0.7500    1.2990    0.0000 C   0  0  0  0  0  0  0  0  0  0  0  0
   -0.7500    1.2990    0.0000 C   0  0  0  0  0  0  0  0  0  0  0  0
   -1.5000    0.0000    0.0000 C   0  0  0  0  0  0  0  0  0  0  0  0
   -0.7500   -1.2990    0.0000 C   0  0  0  0  0  0  0  0  0  0  0  0
  1  2  1  0
  2  3  1  0
  3  4  1  0
  4  5  1  0
  5  6  1  0
  6  7  1  0
  7  8  1  0
  8  9  1  0
  9 10  1  0
 10 11  1  0
 11 12  1  0
 12 13  1  0
 13 14  1  0
 14 15  1  0
 15 16  1  0
 16 17  1  0
 17 18  1  0
 18 19  1  0
 19 20  1  0
 20 21  1  0
 21 22  1  0
 22 23  1  0
 23 24  1  0
 24 25  1  0
 25 26  1  0
 26 27  1  0
 27 28  1  0
 28 29  1  0
 29 30  1  0
 30 31  1  0
 31 32  1  0
 32 33  1  0
 33 34  1  0
 34 35  1  0
 35 36  1  0
 36 37  1  0
 37 38  1  0
 38 39  1  0
 39 40  1  0
 40 41  1  0
 41 42  1  0
 42 43  1  0
 43 44  1  0
 44 45  1  0
 45 46  1  0
 46 47  1  0
 47 48  1  0
 48 49  1  0
 49 50  1  0
 50 51  1  0
 51 52  1  0
 52 53  1  0
 53 54  1  0
 54 55  1  0
 55 56  1  0
 56 57  1  0
 57 58  1  0
 58 59  1  0
 59 60  1  0
 60 61  1  0
 61 62  1  0
 62 63  1  0
 63 64  1  0
 64 65  1  0
 65 66  1  0
 66 67  1  0
 67 68  1  0
 68 69  1  0
 69 70  1  0
 70 71  1  0
 71 72  1  0
 72 73  1  0
 73 74  1  0
 74 75  1  0
 75 76  1  0
 76 77  1  0
 77 78  1  0
 78 79  1  0
 79 80  1  0
 80 81  1  0
 81 82  1  0
 82 83  1  0
 83 84  1  0
 84 85  1  0
 85 86  1  0
 86 87  1  0
 87 88  1  0
 88 89  1  0
 89 90  1  0
 90 91  1  0
 91 92  1  0
 92 93  1  0
 93 94  1  0
 94 95  1  0
 95 96  1  0
 96 97  1  0
 97 98  1  0
 98 99  1  0
 99100  1  0
100101  1  0
101102  1  0
102103  1  0
103104  1  0
104105  1  0
105106  1  0
106107  2  0
107108  1  0
108109  2  0
109110  1  0
110111  2  0
111  2  1  0
111106  1  0
M  END
>  <Title>  (192) 
idAAFLgen10

$$$$

     RDKit          2D

 15 15  0  0  0  0  0  0  0  0999 V2000
    0.5260   -3.8971    0.0000 C   0  0  0  0  0  0  0  0  0  0  0  0
    1.2760   -2.5981    0.0000 C   0  0  0  0  0  0  0  0  0  0  0  0
    2.7760   -2.5981    0.0000 C   0  0  0  0  0  0  0  0  0  0  0  0
    3.5260   -3.8971    0.0000 C   0  0  0  0  0  0  0  0  0  0  0  0
    3.5260   -1.2990    0.0000 N   0  0  0  0  0  0  0  0  0  0  0  0
    5.0260   -1.2990    0.0000 C   0  0  0  0  0  0  0  0  0  0  0  0
    2.7760    0.0000    0.0000 C   0  0  0  0  0  0  0  0  0  0  0  0
    3.5260    1.2990    0.0000 O   0  0  0  0  0  0  0  0  0  0  0  0
    1.2760    0.0000    0.0000 C   0  0  0  0  0  0  0  0  0  0  0  0
    0.3943   -1.2135    0.0000 C   0  0  0  0  0  0  0  0  0  0  0  0
   -1.0323   -0.7500    0.0000 C   0  0  0  0  0  0  0  0  0  0  0  0
   -1.0323    0.7500    0.0000 N   0  0  0  0  0  0  0  0  0  0  0  0
   -2.2458    1.6317    0.0000 C   0  0  0  0  0  0  0  0  0  0  0  0
    0.3943    1.2135    0.0000 C   0  0  0  0  0  0  0  0  0  0  0  0
    0.8578    2.6401    0.0000 O   0  0  0  0  0  0  0  0  0  0  0  0
  1  2  1  0
  2  3  1  0
  3  4  1  0
  3  5  1  0
  5  6  1  0
  5  7  1  0
  7  8  2  0
  7  9  1  0
  9 10  1  0
 10 11  1  0
 11 12  1  0
 12 13  1  0
 12 14  1  0
 14 15  2  0
 14  9  1  0
M  END
>  <Title>  (193) 
idAAFMgen10

$$$$

     RDKit          2D

 44 44  0  0  0  0  0  0  0  0999 V2000
   11.7746    0.0000    0.0000 C   0  0  0  0  0  0  0  0  0  0  0  0
   10.2746    0.0000    0.0000 C   0  0  0  0  0  0  0  0  0  0  0  0
   10.1651    1.4960    0.0000 C   0  0  0  0  0  0  0  0  0  0  0  0
    9.8390    2.9601    0.0000 C   0  0  0  0  0  0  0  0  0  0  0  0
    9.3031    4.3611    0.0000 C   0  0  0  0  0  0  0  0  0  0  0  0
    8.5690    5.6692    0.0000 C   0  0  0  0  0  0  0  0  0  0  0  0
    7.6523    6.8565    0.0000 C   0  0  0  0  0  0  0  0  0  0  0  0
    6.5724    7.8976    0.0000 C   0  0  0  0  0  0  0  0  0  0  0  0
    5.3525    8.7704    0.0000 C   0  0  0  0  0  0  0  0  0  0  0  0
    4.0185    9.4562    0.0000 C   0  0  0  0  0  0  0  0  0  0  0  0
    2.5988    9.9405    0.0000 C   0  0  0  0  0  0  0  0  0  0  0  0
    1.1237   10.2130    0.0000 C   0  0  0  0  0  0  0  0  0  0  0  0
   -0.3753   10.2678    0.0000 C   0  0  0  0  0  0  0  0  0  0  0  0
   -1.8663   10.1037    0.0000 C   0  0  0  0  0  0  0  0  0  0  0  0
   -3.3175    9.7243    0.0000 C   0  0  0  0  0  0  0  0  0  0  0  0
   -4.6980    9.1377    0.0000 C   0  0  0  0  0  0  0  0  0  0  0  0
   -5.9784    8.3563    0.0000 C   0  0  0  0  0  0  0  0  0  0  0  0
   -7.1314    7.3967    0.0000 C   0  0  0  0  0  0  0  0  0  0  0  0
   -8.1323    6.2796    0.0000 C   0  0  0  0  0  0  0  0  0  0  0  0
   -8.9600    5.0286    0.0000 C   0  0  0  0  0  0  0  0  0  0  0  0
   -9.5967    3.6704    0.0000 C   0  0  0  0  0  0  0  0  0  0  0  0
  -10.0288    2.2340    0.0000 C   0  0  0  0  0  0  0  0  0  0  0  0
  -10.2472    0.7500    0.0000 C   0  0  0  0  0  0  0  0  0  0  0  0
  -10.2472   -0.7500    0.0000 C   0  0  0  0  0  0  0  0  0  0  0  0
  -10.0288   -2.2340    0.0000 C   0  0  0  0  0  0  0  0  0  0  0  0
   -9.5967   -3.6704    0.0000 C   0  0  0  0  0  0  0  0  0  0  0  0
   -8.9600   -5.0286    0.0000 C   0  0  0  0  0  0  0  0  0  0  0  0
   -8.1323   -6.2796    0.0000 C   0  0  0  0  0  0  0  0  0  0  0  0
   -7.1314   -7.3967    0.0000 C   0  0  0  0  0  0  0  0  0  0  0  0
   -5.9784   -8.3563    0.0000 C   0  0  0  0  0  0  0  0  0  0  0  0
   -4.6980   -9.1377    0.0000 C   0  0  0  0  0  0  0  0  0  0  0  0
   -3.3175   -9.7243    0.0000 C   0  0  0  0  0  0  0  0  0  0  0  0
   -1.8663  -10.1037    0.0000 C   0  0  0  0  0  0  0  0  0  0  0  0
   -0.3753  -10.2678    0.0000 C   0  0  0  0  0  0  0  0  0  0  0  0
    1.1237  -10.2130    0.0000 C   0  0  0  0  0  0  0  0  0  0  0  0
    2.5988   -9.9405    0.0000 C   0  0  0  0  0  0  0  0  0  0  0  0
    4.0185   -9.4562    0.0000 C   0  0  0  0  0  0  0  0  0  0  0  0
    5.3525   -8.7704    0.0000 C   0  0  0  0  0  0  0  0  0  0  0  0
    6.5724   -7.8976    0.0000 C   0  0  0  0  0  0  0  0  0  0  0  0
    7.6523   -6.8565    0.0000 C   0  0  0  0  0  0  0  0  0  0  0  0
    8.5690   -5.6692    0.0000 C   0  0  0  0  0  0  0  0  0  0  0  0
    9.3031   -4.3611    0.0000 C   0  0  0  0  0  0  0  0  0  0  0  0
    9.8390   -2.9601    0.0000 C   0  0  0  0  0  0  0  0  0  0  0  0
   10.1651   -1.4960    0.0000 C   0  0  0  0  0  0  0  0  0  0  0  0
  1  2  1  0
  2  3  1  0
  3  4  1  0
  4  5  1  0
  5  6  1  0
  6  7  1  0
  7  8  1  0
  8  9  1  0
  9 10  1  0
 10 11  1  0
 11 12  1  0
 12 13  1  0
 13 14  1  0
 14 15  1  0
 15 16  1  0
 16 17  1  0
 17 18  1  0
 18 19  1  0
 19 20  1  0
 20 21  1  0
 21 22  1  0
 22 23  1  0
 23 24  1  0
 24 25  1  0
 25 26  1  0
 26 27  1  0
 27 28  1  0
 28 29  1  0
 29 30  1  0
 30 31  1  0
 31 32  1  0
 32 33  1  0
 33 34  1  0
 34 35  1  0
 35 36  1  0
 36 37  1  0
 37 38  1  0
 38 39  1  0
 39 40  1  0
 40 41  1  0
 41 42  1  0
 42 43  1  0
 43 44  1  0
 44  2  1  0
M  END
>  <Title>  (194) 
idAAFNgen10

$$$$

     RDKit          2D

 11 11  0  0  0  0  0  0  0  0999 V2000
    6.0000   -2.5981    0.0000 C   0  0  0  0  0  0  0  0  0  0  0  0
    5.2500   -1.2990    0.0000 C   0  0  0  0  0  0  0  0  0  0  0  0
    3.7500   -1.2990    0.0000 C   0  0  0  0  0  0  0  0  0  0  0  0
    3.0000    0.0000    0.0000 C   0  0  0  0  0  0  0  0  0  0  0  0
    3.7500    1.2990    0.0000 O   0  0  0  0  0  0  0  0  0  0  0  0
    1.5000    0.0000    0.0000 C   0  0  0  0  0  0  0  0  0  0  0  0
    0.7500   -1.2990    0.0000 C   0  0  0  0  0  0  0  0  0  0  0  0
   -0.7500   -1.2990    0.0000 C   0  0  0  0  0  0  0  0  0  0  0  0
   -1.5000    0.0000    0.0000 C   0  0  0  0  0  0  0  0  0  0  0  0
   -0.7500    1.2990    0.0000 C   0  0  0  0  0  0  0  0  0  0  0  0
    0.7500    1.2990    0.0000 C   0  0  0  0  0  0  0  0  0  0  0  0
  1  2  1  0
  2  3  1  0
  3  4  1  0
  4  5  2  0
  4  6  1  0
  6  7  2  0
  7  8  1  0
  8  9  2  0
  9 10  1  0
 10 11  2  0
 11  6  1  0
M  END
>  <Title>  (195) 
idAAFOgen10

$$$$

     RDKit          2D

  8  8  0  0  0  0  0  0  0  0999 V2000
    3.7500   -1.2990    0.0000 C   0  0  0  0  0  0  0  0  0  0  0  0
    3.0000    0.0000    0.0000 C   0  0  0  0  0  0  0  0  0  0  0  0
    1.5000    0.0000    0.0000 C   0  0  0  0  0  0  0  0  0  0  0  0
    0.7500   -1.2990    0.0000 C   0  0  0  0  0  0  0  0  0  0  0  0
   -0.7500   -1.2990    0.0000 C   0  0  0  0  0  0  0  0  0  0  0  0
   -1.5000    0.0000    0.0000 C   0  0  0  0  0  0  0  0  0  0  0  0
   -0.7500    1.2990    0.0000 C   0  0  0  0  0  0  0  0  0  0  0  0
    0.7500    1.2990    0.0000 C   0  0  0  0  0  0  0  0  0  0  0  0
  1  2  2  0
  2  3  1  0
  3  4  1  0
  4  5  2  0
  5  6  1  0
  6  7  2  0
  7  8  1  0
  8  3  1  0
M  END
>  <Title>  (196) 
idAAFPgen10

$$$$

     RDKit          2D

  7  7  0  0  0  0  0  0  0  0999 V2000
    3.0000    0.0000    0.0000 C   0  0  0  0  0  0  0  0  0  0  0  0
    1.5000    0.0000    0.0000 C   0  0  0  0  0  0  0  0  0  0  0  0
    0.7500   -1.2990    0.0000 C   0  0  0  0  0  0  0  0  0  0  0  0
   -0.7500   -1.2990    0.0000 C   0  0  0  0  0  0  0  0  0  0  0  0
   -1.5000    0.0000    0.0000 C   0  0  0  0  0  0  0  0  0  0  0  0
   -0.7500    1.2990    0.0000 C   0  0  0  0  0  0  0  0  0  0  0  0
    0.7500    1.2990    0.0000 C   0  0  0  0  0  0  0  0  0  0  0  0
  1  2  1  0
  2  3  2  0
  3  4  1  0
  4  5  2  0
  5  6  1  0
  6  7  2  0
  7  2  1  0
M  END
>  <Title>  (197) 
idAAFQgen10

$$$$

     RDKit          2D

 11 11  0  0  0  0  0  0  0  0999 V2000
    7.2760   -0.0000    0.0000 C   0  0  0  0  0  0  0  0  0  0  0  0
    5.7760   -0.0000    0.0000 C   0  0  0  0  0  0  0  0  0  0  0  0
    4.2760   -0.0000    0.0000 C   0  0  0  0  0  0  0  0  0  0  0  0
    2.7760    0.0000    0.0000 C   0  0  0  0  0  0  0  0  0  0  0  0
    1.2760    0.0000    0.0000 C   0  0  0  0  0  0  0  0  0  0  0  0
    0.3943    1.2135    0.0000 C   0  0  0  0  0  0  0  0  0  0  0  0
   -1.0323    0.7500    0.0000 C   0  0  0  0  0  0  0  0  0  0  0  0
   -2.2458    1.6317    0.0000 C   0  0  0  0  0  0  0  0  0  0  0  0
   -1.0323   -0.7500    0.0000 C   0  0  0  0  0  0  0  0  0  0  0  0
   -2.2458   -1.6317    0.0000 C   0  0  0  0  0  0  0  0  0  0  0  0
    0.3943   -1.2135    0.0000 N   0  0  0  0  0  0  0  0  0  0  0  0
  1  2  3  0
  2  3  1  0
  3  4  3  0
  4  5  1  0
  5  6  2  0
  6  7  1  0
  7  8  1  0
  7  9  1  0
  9 10  1  0
  9 11  1  0
 11  5  1  0
M  END
>  <Title>  (198) 
idAAFRgen10

$$$$

     RDKit          2D

 17 17  0  0  0  0  0  0  0  0999 V2000
    4.5000    0.0000    0.0000 C   0  0  0  0  0  0  0  0  0  0  0  0
    3.0000    0.0000    0.0000 C   0  0  0  0  0  0  0  0  0  0  0  0
    1.5000    0.0000    0.0000 C   0  0  0  0  0  0  0  0  0  0  0  0
    0.7500   -1.2990    0.0000 C   0  0  0  0  0  0  0  0  0  0  0  0
   -0.7500   -1.2990    0.0000 C   0  0  0  0  0  0  0  0  0  0  0  0
   -1.5000    0.0000    0.0000 C   0  0  0  0  0  0  0  0  0  0  0  0
   -0.7500    1.2990    0.0000 C   0  0  0  0  0  0  0  0  0  0  0  0
    0.7500    1.2990    0.0000 C   0  0  0  0  0  0  0  0  0  0  0  0
    1.5000    2.5981    0.0000 C   0  0  0  0  0  0  0  0  0  0  0  0
    3.0000    2.5981    0.0000 C   0  0  0  0  0  0  0  0  0  0  0  0
    3.7500    3.8971    0.0000 C   0  0  0  0  0  0  0  0  0  0  0  0
    5.2500    3.8971    0.0000 C   0  0  0  0  0  0  0  0  0  0  0  0
    6.0000    5.1962    0.0000 C   0  0  0  0  0  0  0  0  0  0  0  0
    7.5000    5.1962    0.0000 C   0  0  0  0  0  0  0  0  0  0  0  0
    9.0000    5.1962    0.0000 C   0  0  0  0  0  0  0  0  0  0  0  0
   10.5000    5.1962    0.0000 C   0  0  0  0  0  0  0  0  0  0  0  0
   12.0000    5.1962    0.0000 N   0  0  0  0  0  0  0  0  0  0  0  0
  1  2  3  0
  2  3  1  0
  3  4  2  0
  4  5  1  0
  5  6  2  0
  6  7  1  0
  7  8  2  0
  8  9  1  0
  9 10  1  0
 10 11  2  3
 11 12  1  0
 12 13  2  3
 13 14  1  0
 14 15  3  0
 15 16  1  0
 16 17  3  0
  8  3  1  0
M  END
>  <Title>  (199) 
idAAFSgen10

$$$$

     RDKit          2D

 12 12  0  0  0  0  0  0  0  0999 V2000
    4.2760   -2.5981    0.0000 C   0  0  0  0  0  0  0  0  0  0  0  0
    3.5260   -1.2990    0.0000 C   0  0  0  0  0  0  0  0  0  0  0  0
    2.7760    0.0000    0.0000 C   0  0  0  0  0  0  0  0  0  0  0  0
    3.5260    1.2990    0.0000 O   0  0  0  0  0  0  0  0  0  0  0  0
    1.2760    0.0000    0.0000 C   0  0  0  0  0  0  0  0  0  0  0  0
    0.3943    1.2135    0.0000 C   0  0  0  0  0  0  0  0  0  0  0  0
   -1.0323    0.7500    0.0000 C   0  0  0  0  0  0  0  0  0  0  0  0
   -2.2458    1.6317    0.0000 C   0  0  0  0  0  0  0  0  0  0  0  0
   -2.0890    3.1235    0.0000 C   0  0  0  0  0  0  0  0  0  0  0  0
   -3.6161    1.0216    0.0000 C   0  0  0  0  0  0  0  0  0  0  0  0
   -1.0323   -0.7500    0.0000 C   0  0  0  0  0  0  0  0  0  0  0  0
    0.3943   -1.2135    0.0000 C   0  0  0  0  0  0  0  0  0  0  0  0
  1  2  3  0
  2  3  1  0
  3  4  2  0
  3  5  1  0
  5  6  1  0
  6  7  2  0
  7  8  1  0
  8  9  1  0
  8 10  1  0
  7 11  1  0
 11 12  1  0
 12  5  1  0
M  END
>  <Title>  (200) 
idAAFTgen10

$$$$

     RDKit          2D

 44 50  0  0  0  0  0  0  0  0999 V2000
    4.3881   -6.6982    0.0000 C   0  0  0  0  0  0  0  0  0  0  0  0
    3.0367   -6.0474    0.0000 C   0  0  0  0  0  0  0  0  0  0  0  0
    3.3705   -4.5850    0.0000 C   0  0  0  0  0  0  0  0  0  0  0  0
    3.0367   -3.1226    0.0000 C   0  0  0  0  0  0  0  0  0  0  0  0
    2.1015   -1.9499    0.0000 C   0  0  0  0  0  0  0  0  0  0  0  0
    3.0367   -0.7771    0.0000 C   0  0  0  0  0  0  0  0  0  0  0  0
    2.4887    0.6192    0.0000 O   0  0  0  0  0  0  0  0  0  0  0  0
    4.5199   -1.0007    0.0000 N   0  0  0  0  0  0  0  0  0  0  0  0
    5.4552    0.1721    0.0000 C   0  0  0  0  0  0  0  0  0  0  0  0
    6.9384   -0.0515    0.0000 N   0  0  0  0  0  0  0  0  0  0  0  0
    7.8736    1.1213    0.0000 N   0  0  0  0  0  0  0  0  0  0  0  0
    7.3256    2.5176    0.0000 N   0  0  0  0  0  0  0  0  0  0  0  0
    5.8424    2.7411    0.0000 N   0  0  0  0  0  0  0  0  0  0  0  0
    4.9072    1.5684    0.0000 N   0  0  0  0  0  0  0  0  0  0  0  0
    0.7500   -1.2990    0.0000 C   0  0  0  0  0  0  0  0  0  0  0  0
    1.5000    0.0000    0.0000 C   0  0  0  0  0  0  0  0  0  0  0  0
    0.7500    1.2990    0.0000 C   0  0  0  0  0  0  0  0  0  0  0  0
   -0.7500    1.2990    0.0000 C   0  0  0  0  0  0  0  0  0  0  0  0
   -1.5000    0.0000    0.0000 C   0  0  0  0  0  0  0  0  0  0  0  0
   -0.7500   -1.2990    0.0000 C   0  0  0  0  0  0  0  0  0  0  0  0
   -2.1015   -1.9499    0.0000 C   0  0  0  0  0  0  0  0  0  0  0  0
   -2.6495   -0.5536    0.0000 C   0  0  0  0  0  0  0  0  0  0  0  0
   -4.1327   -0.3300    0.0000 C   0  0  0  0  0  0  0  0  0  0  0  0
   -5.0679   -1.5027    0.0000 C   0  0  0  0  0  0  0  0  0  0  0  0
   -4.5199   -2.8990    0.0000 C   0  0  0  0  0  0  0  0  0  0  0  0
   -3.0367   -3.1226    0.0000 C   0  0  0  0  0  0  0  0  0  0  0  0
   -3.3705   -4.5850    0.0000 C   0  0  0  0  0  0  0  0  0  0  0  0
   -4.8038   -4.1429    0.0000 C   0  0  0  0  0  0  0  0  0  0  0  0
   -5.9034   -5.1631    0.0000 C   0  0  0  0  0  0  0  0  0  0  0  0
   -5.5696   -6.6255    0.0000 C   0  0  0  0  0  0  0  0  0  0  0  0
   -4.1363   -7.0677    0.0000 C   0  0  0  0  0  0  0  0  0  0  0  0
   -3.0367   -6.0474    0.0000 C   0  0  0  0  0  0  0  0  0  0  0  0
   -2.1015   -7.2201    0.0000 C   0  0  0  0  0  0  0  0  0  0  0  0
   -3.3408   -8.0651    0.0000 C   0  0  0  0  0  0  0  0  0  0  0  0
   -3.2287   -9.5609    0.0000 C   0  0  0  0  0  0  0  0  0  0  0  0
   -1.8773  -10.2118    0.0000 C   0  0  0  0  0  0  0  0  0  0  0  0
   -0.6379   -9.3668    0.0000 C   0  0  0  0  0  0  0  0  0  0  0  0
   -0.7500   -7.8710    0.0000 C   0  0  0  0  0  0  0  0  0  0  0  0
    0.7500   -7.8710    0.0000 C   0  0  0  0  0  0  0  0  0  0  0  0
    0.6379   -9.3668    0.0000 C   0  0  0  0  0  0  0  0  0  0  0  0
    1.8773  -10.2118    0.0000 C   0  0  0  0  0  0  0  0  0  0  0  0
    3.2287   -9.5609    0.0000 C   0  0  0  0  0  0  0  0  0  0  0  0
    3.3408   -8.0651    0.0000 C   0  0  0  0  0  0  0  0  0  0  0  0
    2.1015   -7.2201    0.0000 C   0  0  0  0  0  0  0  0  0  0  0  0
  1  2  1  0
  2  3  1  0
  3  4  1  0
  4  5  1  0
  5  6  1  0
  6  7  2  0
  6  8  1  0
  8  9  1  0
  9 10  2  0
 10 11  1  0
 11 12  2  0
 12 13  1  0
 13 14  2  0
  5 15  1  0
 15 16  2  0
 16 17  1  0
 17 18  2  0
 18 19  1  0
 19 20  2  0
 20 21  1  0
 21 22  2  0
 22 23  1  0
 23 24  2  0
 24 25  1  0
 25 26  2  0
 26 27  1  0
 27 28  2  0
 28 29  1  0
 29 30  2  0
 30 31  1  0
 31 32  2  0
 32 33  1  0
 33 34  2  0
 34 35  1  0
 35 36  2  0
 36 37  1  0
 37 38  2  0
 38 39  1  0
 39 40  2  0
 40 41  1  0
 41 42  2  0
 42 43  1  0
 43 44  2  0
 44  2  1  0
 14  9  1  0
 20 15  1  0
 26 21  1  0
 32 27  1  0
 38 33  1  0
 44 39  1  0
M  END
>  <Title>  (201) 
idAAFUgen10

$$$$

     RDKit          2D

  9  9  0  0  0  0  0  0  0  0999 V2000
    4.2760   -2.5981    0.0000 C   0  0  0  0  0  0  0  0  0  0  0  0
    3.5260   -1.2990    0.0000 C   0  0  0  0  0  0  0  0  0  0  0  0
    2.7760    0.0000    0.0000 C   0  0  0  0  0  0  0  0  0  0  0  0
    1.2760    0.0000    0.0000 C   0  0  0  0  0  0  0  0  0  0  0  0
    0.3943    1.2135    0.0000 C   0  0  0  0  0  0  0  0  0  0  0  0
   -1.0323    0.7500    0.0000 C   0  0  0  0  0  0  0  0  0  0  0  0
   -2.2458    1.6317    0.0000 C   0  0  0  0  0  0  0  0  0  0  0  0
   -1.0323   -0.7500    0.0000 C   0  0  0  0  0  0  0  0  0  0  0  0
    0.3943   -1.2135    0.0000 C   0  0  0  0  0  0  0  0  0  0  0  0
  1  2  3  0
  2  3  1  0
  3  4  1  0
  4  5  2  0
  5  6  1  0
  6  7  1  0
  6  8  2  0
  8  9  1  0
  9  4  1  0
M  END
>  <Title>  (202) 
idAAFVgen10

$$$$

     RDKit          2D

 80 81  0  0  0  0  0  0  0  0999 V2000
   -2.2088   -1.0671    0.0000 C   0  0  0  0  0  0  0  0  0  0  0  0
   -2.4923    0.4059    0.0000 C   0  0  0  0  0  0  0  0  0  0  0  0
   -3.9757    0.1835    0.0000 C   0  0  0  0  0  0  0  0  0  0  0  0
   -5.4724    0.0843    0.0000 C   0  0  0  0  0  0  0  0  0  0  0  0
   -6.9722    0.1091    0.0000 C   0  0  0  0  0  0  0  0  0  0  0  0
   -8.4648    0.2577    0.0000 C   0  0  0  0  0  0  0  0  0  0  0  0
   -9.9401    0.5290    0.0000 C   0  0  0  0  0  0  0  0  0  0  0  0
  -11.3879    0.9212    0.0000 C   0  0  0  0  0  0  0  0  0  0  0  0
  -12.7984    1.4317    0.0000 C   0  0  0  0  0  0  0  0  0  0  0  0
  -14.1619    2.0569    0.0000 C   0  0  0  0  0  0  0  0  0  0  0  0
  -15.4691    2.7925    0.0000 C   0  0  0  0  0  0  0  0  0  0  0  0
  -16.7111    3.6336    0.0000 C   0  0  0  0  0  0  0  0  0  0  0  0
  -17.8795    4.5743    0.0000 C   0  0  0  0  0  0  0  0  0  0  0  0
  -18.9661    5.6084    0.0000 C   0  0  0  0  0  0  0  0  0  0  0  0
  -19.9636    6.7286    0.0000 C   0  0  0  0  0  0  0  0  0  0  0  0
  -20.8652    7.9274    0.0000 C   0  0  0  0  0  0  0  0  0  0  0  0
  -21.6648    9.1965    0.0000 C   0  0  0  0  0  0  0  0  0  0  0  0
  -22.3568   10.5273    0.0000 C   0  0  0  0  0  0  0  0  0  0  0  0
  -22.9366   11.9108    0.0000 C   0  0  0  0  0  0  0  0  0  0  0  0
  -23.4001   13.3374    0.0000 C   0  0  0  0  0  0  0  0  0  0  0  0
  -23.7442   14.7974    0.0000 C   0  0  0  0  0  0  0  0  0  0  0  0
  -23.9666   16.2808    0.0000 C   0  0  0  0  0  0  0  0  0  0  0  0
  -24.0658   17.7775    0.0000 C   0  0  0  0  0  0  0  0  0  0  0  0
  -24.0409   19.2773    0.0000 C   0  0  0  0  0  0  0  0  0  0  0  0
  -23.8924   20.7699    0.0000 C   0  0  0  0  0  0  0  0  0  0  0  0
  -23.6211   22.2452    0.0000 C   0  0  0  0  0  0  0  0  0  0  0  0
  -23.2288   23.6930    0.0000 C   0  0  0  0  0  0  0  0  0  0  0  0
  -22.7184   25.1035    0.0000 C   0  0  0  0  0  0  0  0  0  0  0  0
  -22.0932   26.4670    0.0000 C   0  0  0  0  0  0  0  0  0  0  0  0
  -21.3576   27.7742    0.0000 C   0  0  0  0  0  0  0  0  0  0  0  0
  -20.5165   29.0162    0.0000 C   0  0  0  0  0  0  0  0  0  0  0  0
  -19.5758   30.1845    0.0000 C   0  0  0  0  0  0  0  0  0  0  0  0
  -18.5417   31.2712    0.0000 C   0  0  0  0  0  0  0  0  0  0  0  0
  -17.4215   32.2687    0.0000 C   0  0  0  0  0  0  0  0  0  0  0  0
  -16.2227   33.1703    0.0000 C   0  0  0  0  0  0  0  0  0  0  0  0
  -14.9536   33.9699    0.0000 C   0  0  0  0  0  0  0  0  0  0  0  0
  -13.6227   34.6619    0.0000 C   0  0  0  0  0  0  0  0  0  0  0  0
  -12.2393   35.2416    0.0000 C   0  0  0  0  0  0  0  0  0  0  0  0
  -10.8127   35.7052    0.0000 C   0  0  0  0  0  0  0  0  0  0  0  0
   -9.3527   36.0493    0.0000 C   0  0  0  0  0  0  0  0  0  0  0  0
   -7.8693   36.2717    0.0000 C   0  0  0  0  0  0  0  0  0  0  0  0
   -6.3726   36.3708    0.0000 C   0  0  0  0  0  0  0  0  0  0  0  0
   -4.8728   36.3460    0.0000 C   0  0  0  0  0  0  0  0  0  0  0  0
   -3.3802   36.1975    0.0000 C   0  0  0  0  0  0  0  0  0  0  0  0
   -1.9049   35.9261    0.0000 C   0  0  0  0  0  0  0  0  0  0  0  0
   -0.4571   35.5339    0.0000 C   0  0  0  0  0  0  0  0  0  0  0  0
    0.9534   35.0235    0.0000 C   0  0  0  0  0  0  0  0  0  0  0  0
    2.3169   34.3983    0.0000 C   0  0  0  0  0  0  0  0  0  0  0  0
    3.6241   33.6627    0.0000 C   0  0  0  0  0  0  0  0  0  0  0  0
    4.8661   32.8216    0.0000 C   0  0  0  0  0  0  0  0  0  0  0  0
    6.0345   31.8808    0.0000 C   0  0  0  0  0  0  0  0  0  0  0  0
    7.1211   30.8468    0.0000 C   0  0  0  0  0  0  0  0  0  0  0  0
    8.1186   29.7266    0.0000 C   0  0  0  0  0  0  0  0  0  0  0  0
    9.0202   28.5278    0.0000 C   0  0  0  0  0  0  0  0  0  0  0  0
    9.8198   27.2587    0.0000 C   0  0  0  0  0  0  0  0  0  0  0  0
   10.5118   25.9278    0.0000 C   0  0  0  0  0  0  0  0  0  0  0  0
   11.0916   24.5444    0.0000 C   0  0  0  0  0  0  0  0  0  0  0  0
   11.5551   23.1178    0.0000 C   0  0  0  0  0  0  0  0  0  0  0  0
   11.8992   21.6578    0.0000 C   0  0  0  0  0  0  0  0  0  0  0  0
   12.1216   20.1744    0.0000 C   0  0  0  0  0  0  0  0  0  0  0  0
   12.2207   18.6777    0.0000 C   0  0  0  0  0  0  0  0  0  0  0  0
   12.1959   17.1779    0.0000 C   0  0  0  0  0  0  0  0  0  0  0  0
   12.0474   15.6852    0.0000 C   0  0  0  0  0  0  0  0  0  0  0  0
   11.7761   14.2100    0.0000 C   0  0  0  0  0  0  0  0  0  0  0  0
   11.3838   12.7622    0.0000 C   0  0  0  0  0  0  0  0  0  0  0  0
   10.8734   11.3517    0.0000 C   0  0  0  0  0  0  0  0  0  0  0  0
   10.2482    9.9882    0.0000 C   0  0  0  0  0  0  0  0  0  0  0  0
    9.5126    8.6810    0.0000 C   0  0  0  0  0  0  0  0  0  0  0  0
    8.6715    7.4389    0.0000 C   0  0  0  0  0  0  0  0  0  0  0  0
    7.7308    6.2706    0.0000 C   0  0  0  0  0  0  0  0  0  0  0  0
    6.6967    5.1840    0.0000 C   0  0  0  0  0  0  0  0  0  0  0  0
    5.5765    4.1865    0.0000 C   0  0  0  0  0  0  0  0  0  0  0  0
    4.3777    3.2848    0.0000 C   0  0  0  0  0  0  0  0  0  0  0  0
    3.1086    2.4853    0.0000 C   0  0  0  0  0  0  0  0  0  0  0  0
    1.7777    1.7933    0.0000 C   0  0  0  0  0  0  0  0  0  0  0  0
    0.3943    1.2135    0.0000 C   0  0  0  0  0  0  0  0  0  0  0  0
    1.2760    0.0000    0.0000 C   0  0  0  0  0  0  0  0  0  0  0  0
    0.3943   -1.2135    0.0000 C   0  0  0  0  0  0  0  0  0  0  0  0
   -1.0323   -0.7500    0.0000 C   0  0  0  0  0  0  0  0  0  0  0  0
   -1.0323    0.7500    0.0000 C   0  0  0  0  0  0  0  0  0  0  0  0
  1  2  1  0
  2  3  1  0
  3  4  1  0
  4  5  1  0
  5  6  1  0
  6  7  1  0
  7  8  1  0
  8  9  1  0
  9 10  1  0
 10 11  1  0
 11 12  1  0
 12 13  1  0
 13 14  1  0
 14 15  1  0
 15 16  1  0
 16 17  1  0
 17 18  1  0
 18 19  1  0
 19 20  1  0
 20 21  1  0
 21 22  1  0
 22 23  1  0
 23 24  1  0
 24 25  1  0
 25 26  1  0
 26 27  1  0
 27 28  1  0
 28 29  1  0
 29 30  1  0
 30 31  1  0
 31 32  1  0
 32 33  1  0
 33 34  1  0
 34 35  1  0
 35 36  1  0
 36 37  1  0
 37 38  1  0
 38 39  1  0
 39 40  1  0
 40 41  1  0
 41 42  1  0
 42 43  1  0
 43 44  1  0
 44 45  1  0
 45 46  1  0
 46 47  1  0
 47 48  1  0
 48 49  1  0
 49 50  1  0
 50 51  1  0
 51 52  1  0
 52 53  1  0
 53 54  1  0
 54 55  1  0
 55 56  1  0
 56 57  1  0
 57 58  1  0
 58 59  1  0
 59 60  1  0
 60 61  1  0
 61 62  1  0
 62 63  1  0
 63 64  2  0
 64 65  1  0
 65 66  2  0
 66 67  1  0
 67 68  2  0
 68 69  1  0
 69 70  2  0
 70 71  1  0
 71 72  2  0
 72 73  1  0
 73 74  2  0
 74 75  1  0
 75 76  2  0
 76 77  1  0
 77 78  2  0
 78 79  1  0
 79 80  2  0
 80  2  1  0
 80 76  1  0
M  END
>  <Title>  (203) 
idAAFWgen10

$$$$

     RDKit          2D

  9  9  0  0  0  0  0  0  0  0999 V2000
    3.0000    0.0000    0.0000 C   0  0  0  0  0  0  0  0  0  0  0  0
    1.5000    0.0000    0.0000 C   0  0  0  0  0  0  0  0  0  0  0  0
    0.7500   -1.2990    0.0000 C   0  0  0  0  0  0  0  0  0  0  0  0
   -0.7500   -1.2990    0.0000 C   0  0  0  0  0  0  0  0  0  0  0  0
   -1.5000    0.0000    0.0000 C   0  0  0  0  0  0  0  0  0  0  0  0
   -3.0000    0.0000    0.0000 C   0  0  0  0  0  0  0  0  0  0  0  0
   -4.5000    0.0000    0.0000 N   0  0  0  0  0  0  0  0  0  0  0  0
   -0.7500    1.2990    0.0000 C   0  0  0  0  0  0  0  0  0  0  0  0
    0.7500    1.2990    0.0000 C   0  0  0  0  0  0  0  0  0  0  0  0
  1  2  1  0
  2  3  1  0
  3  4  2  0
  4  5  1  0
  5  6  1  0
  6  7  3  0
  5  8  1  0
  8  9  2  0
  9  2  1  0
M  END
>  <Title>  (204) 
idAAFXgen10

$$$$

     RDKit          2D

 18 19  0  0  0  0  0  0  0  0999 V2000
    7.5000    0.0000    0.0000 C   0  0  0  0  0  0  0  0  0  0  0  0
    6.0000    0.0000    0.0000 C   0  0  0  0  0  0  0  0  0  0  0  0
    4.5000    0.0000    0.0000 C   0  0  0  0  0  0  0  0  0  0  0  0
    3.0000    0.0000    0.0000 C   0  0  0  0  0  0  0  0  0  0  0  0
    1.5000    0.0000    0.0000 C   0  0  0  0  0  0  0  0  0  0  0  0
    0.7500   -1.2990    0.0000 C   0  0  0  0  0  0  0  0  0  0  0  0
   -0.7500   -1.2990    0.0000 C   0  0  0  0  0  0  0  0  0  0  0  0
   -1.5000    0.0000    0.0000 C   0  0  0  0  0  0  0  0  0  0  0  0
   -0.7500    1.2990    0.0000 C   0  0  0  0  0  0  0  0  0  0  0  0
    0.7500    1.2990    0.0000 C   0  0  0  0  0  0  0  0  0  0  0  0
    1.5000    2.5981    0.0000 C   0  0  0  0  0  0  0  0  0  0  0  0
    3.0000    2.5981    0.0000 C   0  0  0  0  0  0  0  0  0  0  0  0
    3.7500    3.8971    0.0000 C   0  0  0  0  0  0  0  0  0  0  0  0
    5.2500    3.8971    0.0000 C   0  0  0  0  0  0  0  0  0  0  0  0
    6.0000    5.1962    0.0000 C   0  0  0  0  0  0  0  0  0  0  0  0
    5.2500    6.4952    0.0000 C   0  0  0  0  0  0  0  0  0  0  0  0
    3.7500    6.4952    0.0000 C   0  0  0  0  0  0  0  0  0  0  0  0
    3.0000    5.1962    0.0000 C   0  0  0  0  0  0  0  0  0  0  0  0
  1  2  3  0
  2  3  1  0
  3  4  3  0
  4  5  1  0
  5  6  2  0
  6  7  1  0
  7  8  2  0
  8  9  1  0
  9 10  2  0
 10 11  1  0
 11 12  1  0
 12 13  1  0
 13 14  2  0
 14 15  1  0
 15 16  2  0
 16 17  1  0
 17 18  2  0
 10  5  1  0
 18 13  1  0
M  END
>  <Title>  (205) 
idAAFYgen10

$$$$

     RDKit          2D

 31 34  0  0  0  0  0  0  0  0999 V2000
   -0.0718  -10.0721    0.0000 C   0  0  0  0  0  0  0  0  0  0  0  0
   -0.9849   -8.8820    0.0000 C   0  0  0  0  0  0  0  0  0  0  0  0
   -2.4721   -9.0778    0.0000 C   0  0  0  0  0  0  0  0  0  0  0  0
   -0.4109   -7.4962    0.0000 N   0  0  0  0  0  0  0  0  0  0  0  0
   -1.3240   -6.3062    0.0000 C   0  0  0  0  0  0  0  0  0  0  0  0
   -2.8112   -6.5020    0.0000 O   0  0  0  0  0  0  0  0  0  0  0  0
   -0.7500   -4.9204    0.0000 C   0  0  0  0  0  0  0  0  0  0  0  0
    0.7500   -4.9204    0.0000 C   0  0  0  0  0  0  0  0  0  0  0  0
    1.8107   -3.8597    0.0000 C   0  0  0  0  0  0  0  0  0  0  0  0
    1.8107   -2.3597    0.0000 C   0  0  0  0  0  0  0  0  0  0  0  0
    3.1965   -1.7857    0.0000 C   0  0  0  0  0  0  0  0  0  0  0  0
    3.3923   -0.2985    0.0000 O   0  0  0  0  0  0  0  0  0  0  0  0
    4.3865   -2.6988    0.0000 C   0  0  0  0  0  0  0  0  0  0  0  0
    5.7723   -2.1248    0.0000 C   0  0  0  0  0  0  0  0  0  0  0  0
    6.9624   -3.0379    0.0000 N   0  0  0  0  0  0  0  0  0  0  0  0
    8.3482   -2.4639    0.0000 N   0  0  0  0  0  0  0  0  0  0  0  0
    8.5440   -0.9767    0.0000 N   0  0  0  0  0  0  0  0  0  0  0  0
    7.3539   -0.0636    0.0000 N   0  0  0  0  0  0  0  0  0  0  0  0
    5.9681   -0.6376    0.0000 N   0  0  0  0  0  0  0  0  0  0  0  0
    0.7500   -1.2990    0.0000 C   0  0  0  0  0  0  0  0  0  0  0  0
    1.5000    0.0000    0.0000 C   0  0  0  0  0  0  0  0  0  0  0  0
    0.7500    1.2990    0.0000 C   0  0  0  0  0  0  0  0  0  0  0  0
   -0.7500    1.2990    0.0000 C   0  0  0  0  0  0  0  0  0  0  0  0
   -1.5000    0.0000    0.0000 C   0  0  0  0  0  0  0  0  0  0  0  0
   -0.7500   -1.2990    0.0000 C   0  0  0  0  0  0  0  0  0  0  0  0
   -1.8107   -2.3597    0.0000 C   0  0  0  0  0  0  0  0  0  0  0  0
   -3.1097   -1.6097    0.0000 C   0  0  0  0  0  0  0  0  0  0  0  0
   -4.4087   -2.3597    0.0000 C   0  0  0  0  0  0  0  0  0  0  0  0
   -4.4087   -3.8597    0.0000 C   0  0  0  0  0  0  0  0  0  0  0  0
   -3.1097   -4.6097    0.0000 C   0  0  0  0  0  0  0  0  0  0  0  0
   -1.8107   -3.8597    0.0000 C   0  0  0  0  0  0  0  0  0  0  0  0
  1  2  1  0
  2  3  1  0
  2  4  1  0
  4  5  1  0
  5  6  2  0
  5  7  1  0
  7  8  1  0
  8  9  1  0
  9 10  1  0
 10 11  1  0
 11 12  2  0
 11 13  1  0
 13 14  1  0
 14 15  2  0
 15 16  1  0
 16 17  2  0
 17 18  1  0
 18 19  2  0
 10 20  1  0
 20 21  2  0
 21 22  1  0
 22 23  2  0
 23 24  1  0
 24 25  2  0
 25 26  1  0
 26 27  2  0
 27 28  1  0
 28 29  2  0
 29 30  1  0
 30 31  2  0
 31  7  1  0
 19 14  1  0
 25 20  1  0
 31 26  1  0
M  END
>  <Title>  (206) 
idAAFZgen10

$$$$

     RDKit          2D

 10 10  0  0  0  0  0  0  0  0999 V2000
    7.5000    0.0000    0.0000 C   0  0  0  0  0  0  0  0  0  0  0  0
    6.0000    0.0000    0.0000 C   0  0  0  0  0  0  0  0  0  0  0  0
    4.5000    0.0000    0.0000 C   0  0  0  0  0  0  0  0  0  0  0  0
    3.0000    0.0000    0.0000 C   0  0  0  0  0  0  0  0  0  0  0  0
    1.5000    0.0000    0.0000 C   0  0  0  0  0  0  0  0  0  0  0  0
    0.7500   -1.2990    0.0000 C   0  0  0  0  0  0  0  0  0  0  0  0
   -0.7500   -1.2990    0.0000 C   0  0  0  0  0  0  0  0  0  0  0  0
   -1.5000    0.0000    0.0000 C   0  0  0  0  0  0  0  0  0  0  0  0
   -0.7500    1.2990    0.0000 C   0  0  0  0  0  0  0  0  0  0  0  0
    0.7500    1.2990    0.0000 C   0  0  0  0  0  0  0  0  0  0  0  0
  1  2  3  0
  2  3  1  0
  3  4  3  0
  4  5  1  0
  5  6  2  0
  6  7  1  0
  7  8  1  0
  8  9  2  0
  9 10  1  0
 10  5  1  0
M  END
>  <Title>  (207) 
idAAGAgen10

$$$$

     RDKit          2D

  5  4  0  0  0  0  0  0  0  0999 V2000
    0.0000    0.0000    0.0000 C   0  0  0  0  0  0  0  0  0  0  0  0
    1.2990    0.7500    0.0000 C   0  0  0  0  0  0  0  0  0  0  0  0
    2.5981   -0.0000    0.0000 C   0  0  0  0  0  0  0  0  0  0  0  0
    3.8971    0.7500    0.0000 C   0  0  0  0  0  0  0  0  0  0  0  0
    2.5981   -1.5000    0.0000 C   0  0  0  0  0  0  0  0  0  0  0  0
  1  2  1  0
  2  3  1  0
  3  4  1  0
  3  5  1  0
M  END
>  <Title>  (208) 
idAAGBgen10

$$$$

     RDKit          2D

 81 82  0  0  0  0  0  0  0  0999 V2000
   -2.3284    0.7312    0.0000 C   0  0  0  0  0  0  0  0  0  0  0  0
   -1.8140    2.1402    0.0000 C   0  0  0  0  0  0  0  0  0  0  0  0
   -3.2002    2.7132    0.0000 C   0  0  0  0  0  0  0  0  0  0  0  0
   -4.5337    3.4002    0.0000 C   0  0  0  0  0  0  0  0  0  0  0  0
   -5.8049    4.1963    0.0000 C   0  0  0  0  0  0  0  0  0  0  0  0
   -7.0051    5.0961    0.0000 C   0  0  0  0  0  0  0  0  0  0  0  0
   -8.1258    6.0931    0.0000 C   0  0  0  0  0  0  0  0  0  0  0  0
   -9.1592    7.1804    0.0000 C   0  0  0  0  0  0  0  0  0  0  0  0
  -10.0979    8.3503    0.0000 C   0  0  0  0  0  0  0  0  0  0  0  0
  -10.9355    9.5947    0.0000 C   0  0  0  0  0  0  0  0  0  0  0  0
  -11.6660   10.9048    0.0000 C   0  0  0  0  0  0  0  0  0  0  0  0
  -12.2843   12.2714    0.0000 C   0  0  0  0  0  0  0  0  0  0  0  0
  -12.7860   13.6850    0.0000 C   0  0  0  0  0  0  0  0  0  0  0  0
  -13.1677   15.1357    0.0000 C   0  0  0  0  0  0  0  0  0  0  0  0
  -13.4267   16.6131    0.0000 C   0  0  0  0  0  0  0  0  0  0  0  0
  -13.5612   18.1071    0.0000 C   0  0  0  0  0  0  0  0  0  0  0  0
  -13.5702   19.6071    0.0000 C   0  0  0  0  0  0  0  0  0  0  0  0
  -13.4536   21.1025    0.0000 C   0  0  0  0  0  0  0  0  0  0  0  0
  -13.2123   22.5830    0.0000 C   0  0  0  0  0  0  0  0  0  0  0  0
  -12.8480   24.0381    0.0000 C   0  0  0  0  0  0  0  0  0  0  0  0
  -12.3632   25.4576    0.0000 C   0  0  0  0  0  0  0  0  0  0  0  0
  -11.7613   26.8315    0.0000 C   0  0  0  0  0  0  0  0  0  0  0  0
  -11.0465   28.1503    0.0000 C   0  0  0  0  0  0  0  0  0  0  0  0
  -10.2239   29.4046    0.0000 C   0  0  0  0  0  0  0  0  0  0  0  0
   -9.2993   30.5857    0.0000 C   0  0  0  0  0  0  0  0  0  0  0  0
   -8.2790   31.6853    0.0000 C   0  0  0  0  0  0  0  0  0  0  0  0
   -7.1703   32.6956    0.0000 C   0  0  0  0  0  0  0  0  0  0  0  0
   -5.9810   33.6096    0.0000 C   0  0  0  0  0  0  0  0  0  0  0  0
   -4.7193   34.4209    0.0000 C   0  0  0  0  0  0  0  0  0  0  0  0
   -3.3942   35.1238    0.0000 C   0  0  0  0  0  0  0  0  0  0  0  0
   -2.0149   35.7134    0.0000 C   0  0  0  0  0  0  0  0  0  0  0  0
   -0.5911   36.1854    0.0000 C   0  0  0  0  0  0  0  0  0  0  0  0
    0.8672   36.5367    0.0000 C   0  0  0  0  0  0  0  0  0  0  0  0
    2.3498   36.7647    0.0000 C   0  0  0  0  0  0  0  0  0  0  0  0
    3.8462   36.8678    0.0000 C   0  0  0  0  0  0  0  0  0  0  0  0
    5.3461   36.8454    0.0000 C   0  0  0  0  0  0  0  0  0  0  0  0
    6.8387   36.6975    0.0000 C   0  0  0  0  0  0  0  0  0  0  0  0
    8.3138   36.4253    0.0000 C   0  0  0  0  0  0  0  0  0  0  0  0
    9.7610   36.0305    0.0000 C   0  0  0  0  0  0  0  0  0  0  0  0
   11.1700   35.5161    0.0000 C   0  0  0  0  0  0  0  0  0  0  0  0
   12.5310   34.8856    0.0000 C   0  0  0  0  0  0  0  0  0  0  0  0
   13.8345   34.1434    0.0000 C   0  0  0  0  0  0  0  0  0  0  0  0
   15.0714   33.2947    0.0000 C   0  0  0  0  0  0  0  0  0  0  0  0
   16.2328   32.3455    0.0000 C   0  0  0  0  0  0  0  0  0  0  0  0
   17.3108   31.3024    0.0000 C   0  0  0  0  0  0  0  0  0  0  0  0
   18.2977   30.1728    0.0000 C   0  0  0  0  0  0  0  0  0  0  0  0
   19.1866   28.9646    0.0000 C   0  0  0  0  0  0  0  0  0  0  0  0
   19.9713   27.6862    0.0000 C   0  0  0  0  0  0  0  0  0  0  0  0
   20.6463   26.3466    0.0000 C   0  0  0  0  0  0  0  0  0  0  0  0
   21.2068   24.9553    0.0000 C   0  0  0  0  0  0  0  0  0  0  0  0
   21.6490   23.5220    0.0000 C   0  0  0  0  0  0  0  0  0  0  0  0
   21.9696   22.0566    0.0000 C   0  0  0  0  0  0  0  0  0  0  0  0
   22.1665   20.5696    0.0000 C   0  0  0  0  0  0  0  0  0  0  0  0
   22.2383   19.0713    0.0000 C   0  0  0  0  0  0  0  0  0  0  0  0
   22.1844   17.5723    0.0000 C   0  0  0  0  0  0  0  0  0  0  0  0
   22.0054   16.0830    0.0000 C   0  0  0  0  0  0  0  0  0  0  0  0
   21.7023   14.6140    0.0000 C   0  0  0  0  0  0  0  0  0  0  0  0
   21.2773   13.1754    0.0000 C   0  0  0  0  0  0  0  0  0  0  0  0
   20.7335   11.7775    0.0000 C   0  0  0  0  0  0  0  0  0  0  0  0
   20.0746   10.4299    0.0000 C   0  0  0  0  0  0  0  0  0  0  0  0
   19.3052    9.1423    0.0000 C   0  0  0  0  0  0  0  0  0  0  0  0
   18.4308    7.9235    0.0000 C   0  0  0  0  0  0  0  0  0  0  0  0
   17.4575    6.7821    0.0000 C   0  0  0  0  0  0  0  0  0  0  0  0
   16.3921    5.7263    0.0000 C   0  0  0  0  0  0  0  0  0  0  0  0
   15.2421    4.7632    0.0000 C   0  0  0  0  0  0  0  0  0  0  0  0
   14.0155    3.8998    0.0000 C   0  0  0  0  0  0  0  0  0  0  0  0
   12.7210    3.1420    0.0000 C   0  0  0  0  0  0  0  0  0  0  0  0
   11.3676    2.4953    0.0000 C   0  0  0  0  0  0  0  0  0  0  0  0
    9.9648    1.9640    0.0000 C   0  0  0  0  0  0  0  0  0  0  0  0
    8.5225    1.5520    0.0000 C   0  0  0  0  0  0  0  0  0  0  0  0
    7.0508    1.2621    0.0000 C   0  0  0  0  0  0  0  0  0  0  0  0
    5.5600    1.0964    0.0000 C   0  0  0  0  0  0  0  0  0  0  0  0
    4.0605    1.0560    0.0000 C   0  0  0  0  0  0  0  0  0  0  0  0
    2.5629    1.1412    0.0000 C   0  0  0  0  0  0  0  0  0  0  0  0
    1.0777    1.3515    0.0000 C   0  0  0  0  0  0  0  0  0  0  0  0
    1.7286    0.0000    0.0000 C   0  0  0  0  0  0  0  0  0  0  0  0
    1.0777   -1.3515    0.0000 C   0  0  0  0  0  0  0  0  0  0  0  0
   -0.3846   -1.6852    0.0000 C   0  0  0  0  0  0  0  0  0  0  0  0
   -1.5574   -0.7500    0.0000 C   0  0  0  0  0  0  0  0  0  0  0  0
   -1.5574    0.7500    0.0000 C   0  0  0  0  0  0  0  0  0  0  0  0
   -0.3846    1.6852    0.0000 C   0  0  0  0  0  0  0  0  0  0  0  0
  1  2  1  0
  2  3  1  0
  3  4  1  0
  4  5  1  0
  5  6  1  0
  6  7  1  0
  7  8  1  0
  8  9  1  0
  9 10  1  0
 10 11  1  0
 11 12  1  0
 12 13  1  0
 13 14  1  0
 14 15  1  0
 15 16  1  0
 16 17  1  0
 17 18  1  0
 18 19  1  0
 19 20  1  0
 20 21  1  0
 21 22  1  0
 22 23  1  0
 23 24  1  0
 24 25  1  0
 25 26  1  0
 26 27  1  0
 27 28  1  0
 28 29  1  0
 29 30  1  0
 30 31  1  0
 31 32  1  0
 32 33  1  0
 33 34  1  0
 34 35  1  0
 35 36  1  0
 36 37  1  0
 37 38  1  0
 38 39  1  0
 39 40  1  0
 40 41  1  0
 41 42  1  0
 42 43  1  0
 43 44  1  0
 44 45  1  0
 45 46  1  0
 46 47  1  0
 47 48  1  0
 48 49  1  0
 49 50  1  0
 50 51  1  0
 51 52  1  0
 52 53  1  0
 53 54  1  0
 54 55  1  0
 55 56  1  0
 56 57  1  0
 57 58  1  0
 58 59  1  0
 59 60  1  0
 60 61  1  0
 61 62  1  0
 62 63  1  0
 63 64  1  0
 64 65  1  0
 65 66  1  0
 66 67  1  0
 67 68  1  0
 68 69  1  0
 69 70  1  0
 70 71  1  0
 71 72  1  0
 72 73  1  0
 73 74  1  0
 74 75  1  0
 75 76  1  0
 76 77  1  0
 77 78  1  0
 78 79  1  0
 79 80  1  0
 80 81  1  0
 81  2  1  0
 81 75  1  0
M  END
>  <Title>  (209) 
idAAGCgen10

$$$$

     RDKit          2D

 11 11  0  0  0  0  0  0  0  0999 V2000
    5.2500   -1.2990    0.0000 C   0  0  0  0  0  0  0  0  0  0  0  0
    3.7500   -1.2990    0.0000 C   0  0  0  0  0  0  0  0  0  0  0  0
    3.0000   -2.5981    0.0000 O   0  0  0  0  0  0  0  0  0  0  0  0
    3.0000    0.0000    0.0000 N   0  0  0  0  0  0  0  0  0  0  0  0
    1.5000    0.0000    0.0000 C   0  0  0  0  0  0  0  0  0  0  0  0
    0.7500   -1.2990    0.0000 C   0  0  0  0  0  0  0  0  0  0  0  0
   -0.7500   -1.2990    0.0000 C   0  0  0  0  0  0  0  0  0  0  0  0
   -1.5000    0.0000    0.0000 C   0  0  0  0  0  0  0  0  0  0  0  0
   -3.0000    0.0000    0.0000 O   0  0  0  0  0  0  0  0  0  0  0  0
   -0.7500    1.2990    0.0000 N   0  0  0  0  0  0  0  0  0  0  0  0
    0.7500    1.2990    0.0000 N   0  0  0  0  0  0  0  0  0  0  0  0
  1  2  1  0
  2  3  2  0
  2  4  1  0
  4  5  1  0
  5  6  2  0
  6  7  1  0
  7  8  2  0
  8  9  1  0
  8 10  1  0
 10 11  2  0
 11  5  1  0
M  END
>  <Title>  (210) 
idAAGDgen10

$$$$

     RDKit          2D

107108  0  0  0  0  0  0  0  0999 V2000
    0.3195    3.1966    0.0000 C   0  0  0  0  0  0  0  0  0  0  0  0
    1.6160    3.9510    0.0000 C   0  0  0  0  0  0  0  0  0  0  0  0
    0.9058    5.2723    0.0000 C   0  0  0  0  0  0  0  0  0  0  0  0
    0.2865    6.6384    0.0000 C   0  0  0  0  0  0  0  0  0  0  0  0
   -0.2392    8.0433    0.0000 C   0  0  0  0  0  0  0  0  0  0  0  0
   -0.6689    9.4804    0.0000 C   0  0  0  0  0  0  0  0  0  0  0  0
   -1.0005   10.9433    0.0000 C   0  0  0  0  0  0  0  0  0  0  0  0
   -1.2327   12.4252    0.0000 C   0  0  0  0  0  0  0  0  0  0  0  0
   -1.3643   13.9195    0.0000 C   0  0  0  0  0  0  0  0  0  0  0  0
   -1.3947   15.4191    0.0000 C   0  0  0  0  0  0  0  0  0  0  0  0
   -1.3237   16.9175    0.0000 C   0  0  0  0  0  0  0  0  0  0  0  0
   -1.1518   18.4076    0.0000 C   0  0  0  0  0  0  0  0  0  0  0  0
   -0.8797   19.8827    0.0000 C   0  0  0  0  0  0  0  0  0  0  0  0
   -0.5087   21.3361    0.0000 C   0  0  0  0  0  0  0  0  0  0  0  0
   -0.0403   22.7611    0.0000 C   0  0  0  0  0  0  0  0  0  0  0  0
    0.5232   24.1512    0.0000 C   0  0  0  0  0  0  0  0  0  0  0  0
    1.1792   25.5002    0.0000 C   0  0  0  0  0  0  0  0  0  0  0  0
    1.9248   26.8017    0.0000 C   0  0  0  0  0  0  0  0  0  0  0  0
    2.7566   28.0500    0.0000 C   0  0  0  0  0  0  0  0  0  0  0  0
    3.6707   29.2392    0.0000 C   0  0  0  0  0  0  0  0  0  0  0  0
    4.6631   30.3641    0.0000 C   0  0  0  0  0  0  0  0  0  0  0  0
    5.7291   31.4193    0.0000 C   0  0  0  0  0  0  0  0  0  0  0  0
    6.8639   32.4002    0.0000 C   0  0  0  0  0  0  0  0  0  0  0  0
    8.0624   33.3023    0.0000 C   0  0  0  0  0  0  0  0  0  0  0  0
    9.3190   34.1214    0.0000 C   0  0  0  0  0  0  0  0  0  0  0  0
   10.6281   34.8537    0.0000 C   0  0  0  0  0  0  0  0  0  0  0  0
   11.9836   35.4961    0.0000 C   0  0  0  0  0  0  0  0  0  0  0  0
   13.3793   36.0454    0.0000 C   0  0  0  0  0  0  0  0  0  0  0  0
   14.8090   36.4993    0.0000 C   0  0  0  0  0  0  0  0  0  0  0  0
   16.2661   36.8556    0.0000 C   0  0  0  0  0  0  0  0  0  0  0  0
   17.7439   37.1128    0.0000 C   0  0  0  0  0  0  0  0  0  0  0  0
   19.2357   37.2696    0.0000 C   0  0  0  0  0  0  0  0  0  0  0  0
   20.7346   37.3253    0.0000 C   0  0  0  0  0  0  0  0  0  0  0  0
   22.2339   37.2797    0.0000 C   0  0  0  0  0  0  0  0  0  0  0  0
   23.7268   37.1330    0.0000 C   0  0  0  0  0  0  0  0  0  0  0  0
   25.2062   36.8858    0.0000 C   0  0  0  0  0  0  0  0  0  0  0  0
   26.6657   36.5394    0.0000 C   0  0  0  0  0  0  0  0  0  0  0  0
   28.0984   36.0952    0.0000 C   0  0  0  0  0  0  0  0  0  0  0  0
   29.4979   35.5552    0.0000 C   0  0  0  0  0  0  0  0  0  0  0  0
   30.8577   34.9221    0.0000 C   0  0  0  0  0  0  0  0  0  0  0  0
   32.1717   34.1986    0.0000 C   0  0  0  0  0  0  0  0  0  0  0  0
   33.4338   33.3880    0.0000 C   0  0  0  0  0  0  0  0  0  0  0  0
   34.6383   32.4941    0.0000 C   0  0  0  0  0  0  0  0  0  0  0  0
   35.7797   31.5209    0.0000 C   0  0  0  0  0  0  0  0  0  0  0  0
   36.8529   30.4728    0.0000 C   0  0  0  0  0  0  0  0  0  0  0  0
   37.8528   29.3547    0.0000 C   0  0  0  0  0  0  0  0  0  0  0  0
   38.7750   28.1717    0.0000 C   0  0  0  0  0  0  0  0  0  0  0  0
   39.6151   26.9290    0.0000 C   0  0  0  0  0  0  0  0  0  0  0  0
   40.3695   25.6325    0.0000 C   0  0  0  0  0  0  0  0  0  0  0  0
   41.0347   24.2881    0.0000 C   0  0  0  0  0  0  0  0  0  0  0  0
   41.6075   22.9018    0.0000 C   0  0  0  0  0  0  0  0  0  0  0  0
   42.0855   21.4800    0.0000 C   0  0  0  0  0  0  0  0  0  0  0  0
   42.4664   20.0291    0.0000 C   0  0  0  0  0  0  0  0  0  0  0  0
   42.7484   18.5559    0.0000 C   0  0  0  0  0  0  0  0  0  0  0  0
   42.9304   17.0670    0.0000 C   0  0  0  0  0  0  0  0  0  0  0  0
   43.0114   15.5692    0.0000 C   0  0  0  0  0  0  0  0  0  0  0  0
   42.9912   14.0693    0.0000 C   0  0  0  0  0  0  0  0  0  0  0  0
   42.8697   12.5742    0.0000 C   0  0  0  0  0  0  0  0  0  0  0  0
   42.6475   11.0908    0.0000 C   0  0  0  0  0  0  0  0  0  0  0  0
   42.3258    9.6257    0.0000 C   0  0  0  0  0  0  0  0  0  0  0  0
   41.9058    8.1857    0.0000 C   0  0  0  0  0  0  0  0  0  0  0  0
   41.3896    6.7773    0.0000 C   0  0  0  0  0  0  0  0  0  0  0  0
   40.7795    5.4070    0.0000 C   0  0  0  0  0  0  0  0  0  0  0  0
   40.0783    4.0810    0.0000 C   0  0  0  0  0  0  0  0  0  0  0  0
   39.2892    2.8053    0.0000 C   0  0  0  0  0  0  0  0  0  0  0  0
   38.4157    1.5859    0.0000 C   0  0  0  0  0  0  0  0  0  0  0  0
   37.4619    0.4282    0.0000 C   0  0  0  0  0  0  0  0  0  0  0  0
   36.4321   -0.6625    0.0000 C   0  0  0  0  0  0  0  0  0  0  0  0
   35.3311   -1.6812    0.0000 C   0  0  0  0  0  0  0  0  0  0  0  0
   34.1638   -2.6232    0.0000 C   0  0  0  0  0  0  0  0  0  0  0  0
   32.9355   -3.4843    0.0000 C   0  0  0  0  0  0  0  0  0  0  0  0
   31.6520   -4.2604    0.0000 C   0  0  0  0  0  0  0  0  0  0  0  0
   30.3189   -4.9482    0.0000 C   0  0  0  0  0  0  0  0  0  0  0  0
   28.9425   -5.5444    0.0000 C   0  0  0  0  0  0  0  0  0  0  0  0
   27.5289   -6.0463    0.0000 C   0  0  0  0  0  0  0  0  0  0  0  0
   26.0847   -6.4516    0.0000 C   0  0  0  0  0  0  0  0  0  0  0  0
   24.6165   -6.7585    0.0000 C   0  0  0  0  0  0  0  0  0  0  0  0
   23.1308   -6.9656    0.0000 C   0  0  0  0  0  0  0  0  0  0  0  0
   21.6346   -7.0719    0.0000 C   0  0  0  0  0  0  0  0  0  0  0  0
   20.1346   -7.0770    0.0000 C   0  0  0  0  0  0  0  0  0  0  0  0
   18.6377   -6.9808    0.0000 C   0  0  0  0  0  0  0  0  0  0  0  0
   17.1507   -6.7837    0.0000 C   0  0  0  0  0  0  0  0  0  0  0  0
   15.6804   -6.4867    0.0000 C   0  0  0  0  0  0  0  0  0  0  0  0
   14.2335   -6.0912    0.0000 C   0  0  0  0  0  0  0  0  0  0  0  0
   12.8166   -5.5988    0.0000 C   0  0  0  0  0  0  0  0  0  0  0  0
   11.4362   -5.0120    0.0000 C   0  0  0  0  0  0  0  0  0  0  0  0
   10.0985   -4.3332    0.0000 C   0  0  0  0  0  0  0  0  0  0  0  0
    8.8097   -3.5658    0.0000 C   0  0  0  0  0  0  0  0  0  0  0  0
    7.5757   -2.7130    0.0000 C   0  0  0  0  0  0  0  0  0  0  0  0
    6.4021   -1.7789    0.0000 C   0  0  0  0  0  0  0  0  0  0  0  0
    5.2941   -0.7677    0.0000 C   0  0  0  0  0  0  0  0  0  0  0  0
    4.2570    0.3160    0.0000 C   0  0  0  0  0  0  0  0  0  0  0  0
    3.2954    1.4672    0.0000 C   0  0  0  0  0  0  0  0  0  0  0  0
    3.6073    0.0000    0.0000 C   0  0  0  0  0  0  0  0  0  0  0  0
    3.2954   -1.4672    0.0000 C   0  0  0  0  0  0  0  0  0  0  0  0
    2.4138   -2.6807    0.0000 C   0  0  0  0  0  0  0  0  0  0  0  0
    1.1147   -3.4307    0.0000 C   0  0  0  0  0  0  0  0  0  0  0  0
   -0.3771   -3.5875    0.0000 C   0  0  0  0  0  0  0  0  0  0  0  0
   -1.8037   -3.1240    0.0000 C   0  0  0  0  0  0  0  0  0  0  0  0
   -2.9184   -2.1203    0.0000 C   0  0  0  0  0  0  0  0  0  0  0  0
   -3.5285   -0.7500    0.0000 C   0  0  0  0  0  0  0  0  0  0  0  0
   -3.5285    0.7500    0.0000 C   0  0  0  0  0  0  0  0  0  0  0  0
   -2.9184    2.1203    0.0000 C   0  0  0  0  0  0  0  0  0  0  0  0
   -1.8037    3.1240    0.0000 C   0  0  0  0  0  0  0  0  0  0  0  0
   -0.3771    3.5875    0.0000 C   0  0  0  0  0  0  0  0  0  0  0  0
    1.1147    3.4307    0.0000 C   0  0  0  0  0  0  0  0  0  0  0  0
    2.4138    2.6807    0.0000 C   0  0  0  0  0  0  0  0  0  0  0  0
  1  2  1  0
  2  3  1  0
  3  4  1  0
  4  5  1  0
  5  6  1  0
  6  7  1  0
  7  8  1  0
  8  9  1  0
  9 10  1  0
 10 11  1  0
 11 12  1  0
 12 13  1  0
 13 14  1  0
 14 15  1  0
 15 16  1  0
 16 17  1  0
 17 18  1  0
 18 19  1  0
 19 20  1  0
 20 21  1  0
 21 22  1  0
 22 23  1  0
 23 24  1  0
 24 25  1  0
 25 26  1  0
 26 27  1  0
 27 28  1  0
 28 29  1  0
 29 30  1  0
 30 31  1  0
 31 32  1  0
 32 33  1  0
 33 34  1  0
 34 35  1  0
 35 36  1  0
 36 37  1  0
 37 38  1  0
 38 39  1  0
 39 40  1  0
 40 41  1  0
 41 42  1  0
 42 43  1  0
 43 44  1  0
 44 45  1  0
 45 46  1  0
 46 47  1  0
 47 48  1  0
 48 49  1  0
 49 50  1  0
 50 51  1  0
 51 52  1  0
 52 53  1  0
 53 54  1  0
 54 55  1  0
 55 56  1  0
 56 57  1  0
 57 58  1  0
 58 59  1  0
 59 60  1  0
 60 61  1  0
 61 62  1  0
 62 63  1  0
 63 64  1  0
 64 65  1  0
 65 66  1  0
 66 67  1  0
 67 68  1  0
 68 69  1  0
 69 70  1  0
 70 71  1  0
 71 72  1  0
 72 73  1  0
 73 74  1  0
 74 75  1  0
 75 76  1  0
 76 77  1  0
 77 78  1  0
 78 79  1  0
 79 80  1  0
 80 81  1  0
 81 82  1  0
 82 83  1  0
 83 84  1  0
 84 85  1  0
 85 86  1  0
 86 87  1  0
 87 88  1  0
 88 89  1  0
 89 90  1  0
 90 91  1  0
 91 92  1  0
 92 93  1  0
 93 94  1  0
 94 95  1  0
 95 96  1  0
 96 97  1  0
 97 98  1  0
 98 99  1  0
 99100  1  0
100101  1  0
101102  1  0
102103  2  0
103104  1  0
104105  2  0
105106  1  0
106107  2  0
107  2  1  0
107 93  1  0
M  END
>  <Title>  (211) 
idAAGEgen10

$$$$

     RDKit          2D

  4  3  0  0  0  0  0  0  0  0999 V2000
    0.0000    0.0000    0.0000 C   0  0  0  0  0  0  0  0  0  0  0  0
   -0.0000   -1.5000    0.0000 C   0  0  0  0  0  0  0  0  0  0  0  0
   -0.0000   -3.0000    0.0000 C   0  0  0  0  0  0  0  0  0  0  0  0
    1.2990   -3.7500    0.0000 C   0  0  0  0  0  0  0  0  0  0  0  0
  1  2  3  0
  2  3  1  0
  3  4  1  0
M  END
>  <Title>  (212) 
idAAGFgen10

$$$$

     RDKit          2D

 23 26  0  0  0  0  0  0  0  0999 V2000
    1.2135   -7.3421    0.0000 C   0  0  0  0  0  0  0  0  0  0  0  0
    0.7500   -5.9156    0.0000 C   0  0  0  0  0  0  0  0  0  0  0  0
    1.9635   -5.0339    0.0000 N   0  0  0  0  0  0  0  0  0  0  0  0
    2.4271   -3.6073    0.0000 N   0  0  0  0  0  0  0  0  0  0  0  0
    1.9635   -2.1807    0.0000 N   0  0  0  0  0  0  0  0  0  0  0  0
    0.7500   -1.2990    0.0000 N   0  0  0  0  0  0  0  0  0  0  0  0
    1.5000    0.0000    0.0000 C   0  0  0  0  0  0  0  0  0  0  0  0
    0.7500    1.2990    0.0000 C   0  0  0  0  0  0  0  0  0  0  0  0
   -0.7500    1.2990    0.0000 C   0  0  0  0  0  0  0  0  0  0  0  0
   -1.5000    0.0000    0.0000 C   0  0  0  0  0  0  0  0  0  0  0  0
   -0.7500   -1.2990    0.0000 C   0  0  0  0  0  0  0  0  0  0  0  0
   -1.9635   -2.1807    0.0000 C   0  0  0  0  0  0  0  0  0  0  0  0
   -2.9672   -1.0660    0.0000 C   0  0  0  0  0  0  0  0  0  0  0  0
   -4.4344   -1.3779    0.0000 C   0  0  0  0  0  0  0  0  0  0  0  0
   -4.8980   -2.8045    0.0000 C   0  0  0  0  0  0  0  0  0  0  0  0
   -3.8943   -3.9192    0.0000 C   0  0  0  0  0  0  0  0  0  0  0  0
   -2.4271   -3.6073    0.0000 C   0  0  0  0  0  0  0  0  0  0  0  0
   -1.9635   -5.0339    0.0000 C   0  0  0  0  0  0  0  0  0  0  0  0
   -3.3338   -5.6440    0.0000 C   0  0  0  0  0  0  0  0  0  0  0  0
   -3.4906   -7.1358    0.0000 C   0  0  0  0  0  0  0  0  0  0  0  0
   -2.2771   -8.0175    0.0000 C   0  0  0  0  0  0  0  0  0  0  0  0
   -0.9068   -7.4073    0.0000 C   0  0  0  0  0  0  0  0  0  0  0  0
   -0.7500   -5.9156    0.0000 C   0  0  0  0  0  0  0  0  0  0  0  0
  1  2  1  0
  2  3  2  0
  3  4  1  0
  4  5  2  0
  5  6  1  0
  6  7  1  0
  7  8  1  0
  8  9  2  0
  9 10  1  0
 10 11  2  0
 11 12  1  0
 12 13  2  0
 13 14  1  0
 14 15  2  0
 15 16  1  0
 16 17  2  0
 17 18  1  0
 18 19  2  0
 19 20  1  0
 20 21  2  0
 21 22  1  0
 22 23  2  0
 23  2  1  0
 11  6  1  0
 17 12  1  0
 23 18  1  0
M  END
>  <Title>  (213) 
idAAGGgen10

$$$$

     RDKit          2D

  9  9  0  0  0  0  0  0  0  0999 V2000
    5.7760   -2.5981    0.0000 C   0  0  0  0  0  0  0  0  0  0  0  0
    5.0260   -1.2990    0.0000 C   0  0  0  0  0  0  0  0  0  0  0  0
    3.5260   -1.2990    0.0000 C   0  0  0  0  0  0  0  0  0  0  0  0
    2.7760    0.0000    0.0000 C   0  0  0  0  0  0  0  0  0  0  0  0
    1.2760    0.0000    0.0000 C   0  0  0  0  0  0  0  0  0  0  0  0
    0.3943    1.2135    0.0000 C   0  0  0  0  0  0  0  0  0  0  0  0
   -1.0323    0.7500    0.0000 C   0  0  0  0  0  0  0  0  0  0  0  0
   -1.0323   -0.7500    0.0000 C   0  0  0  0  0  0  0  0  0  0  0  0
    0.3943   -1.2135    0.0000 C   0  0  0  0  0  0  0  0  0  0  0  0
  1  2  2  0
  2  3  1  0
  3  4  2  3
  4  5  1  0
  5  6  2  0
  6  7  1  0
  7  8  2  0
  8  9  1  0
  9  5  1  0
M  END
>  <Title>  (214) 
idAAGHgen10

$$$$

     RDKit          2D

 92 96  0  0  0  0  0  0  0  0999 V2000
  -11.4090   -3.4903    0.0000 C   0  0  0  0  0  0  0  0  0  0  0  0
  -10.5273   -4.7039    0.0000 C   0  0  0  0  0  0  0  0  0  0  0  0
  -11.7029   -5.6356    0.0000 C   0  0  0  0  0  0  0  0  0  0  0  0
  -12.7963   -6.6624    0.0000 C   0  0  0  0  0  0  0  0  0  0  0  0
  -13.8000   -7.7771    0.0000 C   0  0  0  0  0  0  0  0  0  0  0  0
  -14.7069   -8.9719    0.0000 C   0  0  0  0  0  0  0  0  0  0  0  0
  -15.5107  -10.2384    0.0000 C   0  0  0  0  0  0  0  0  0  0  0  0
  -16.2056  -11.5677    0.0000 C   0  0  0  0  0  0  0  0  0  0  0  0
  -16.7869  -12.9505    0.0000 C   0  0  0  0  0  0  0  0  0  0  0  0
  -17.2504  -14.3771    0.0000 C   0  0  0  0  0  0  0  0  0  0  0  0
  -17.5929  -15.8375    0.0000 C   0  0  0  0  0  0  0  0  0  0  0  0
  -17.8121  -17.3214    0.0000 C   0  0  0  0  0  0  0  0  0  0  0  0
  -17.9062  -18.8184    0.0000 C   0  0  0  0  0  0  0  0  0  0  0  0
  -17.8748  -20.3181    0.0000 C   0  0  0  0  0  0  0  0  0  0  0  0
  -17.7180  -21.8099    0.0000 C   0  0  0  0  0  0  0  0  0  0  0  0
  -17.4370  -23.2833    0.0000 C   0  0  0  0  0  0  0  0  0  0  0  0
  -17.0336  -24.7280    0.0000 C   0  0  0  0  0  0  0  0  0  0  0  0
  -16.5107  -26.1340    0.0000 C   0  0  0  0  0  0  0  0  0  0  0  0
  -15.8721  -27.4912    0.0000 C   0  0  0  0  0  0  0  0  0  0  0  0
  -15.1221  -28.7902    0.0000 C   0  0  0  0  0  0  0  0  0  0  0  0
  -14.2660  -30.0220    0.0000 C   0  0  0  0  0  0  0  0  0  0  0  0
  -13.3098  -31.1777    0.0000 C   0  0  0  0  0  0  0  0  0  0  0  0
  -12.2604  -32.2494    0.0000 C   0  0  0  0  0  0  0  0  0  0  0  0
  -11.1249  -33.2296    0.0000 C   0  0  0  0  0  0  0  0  0  0  0  0
   -9.9113  -34.1113    0.0000 C   0  0  0  0  0  0  0  0  0  0  0  0
   -8.6283  -34.8883    0.0000 C   0  0  0  0  0  0  0  0  0  0  0  0
   -7.2847  -35.5552    0.0000 C   0  0  0  0  0  0  0  0  0  0  0  0
   -5.8901  -36.1074    0.0000 C   0  0  0  0  0  0  0  0  0  0  0  0
   -4.4541  -36.5410    0.0000 C   0  0  0  0  0  0  0  0  0  0  0  0
   -2.9869  -36.8529    0.0000 C   0  0  0  0  0  0  0  0  0  0  0  0
   -1.4987  -37.0409    0.0000 C   0  0  0  0  0  0  0  0  0  0  0  0
   -0.0000  -37.1037    0.0000 C   0  0  0  0  0  0  0  0  0  0  0  0
    1.4987  -37.0409    0.0000 C   0  0  0  0  0  0  0  0  0  0  0  0
    2.9869  -36.8529    0.0000 C   0  0  0  0  0  0  0  0  0  0  0  0
    4.4541  -36.5410    0.0000 C   0  0  0  0  0  0  0  0  0  0  0  0
    5.8901  -36.1074    0.0000 C   0  0  0  0  0  0  0  0  0  0  0  0
    7.2847  -35.5552    0.0000 C   0  0  0  0  0  0  0  0  0  0  0  0
    8.6283  -34.8883    0.0000 C   0  0  0  0  0  0  0  0  0  0  0  0
    9.9113  -34.1113    0.0000 C   0  0  0  0  0  0  0  0  0  0  0  0
   11.1249  -33.2296    0.0000 C   0  0  0  0  0  0  0  0  0  0  0  0
   12.2604  -32.2494    0.0000 C   0  0  0  0  0  0  0  0  0  0  0  0
   13.3098  -31.1777    0.0000 C   0  0  0  0  0  0  0  0  0  0  0  0
   14.2660  -30.0220    0.0000 C   0  0  0  0  0  0  0  0  0  0  0  0
   15.1221  -28.7902    0.0000 C   0  0  0  0  0  0  0  0  0  0  0  0
   15.8721  -27.4912    0.0000 C   0  0  0  0  0  0  0  0  0  0  0  0
   16.5107  -26.1340    0.0000 C   0  0  0  0  0  0  0  0  0  0  0  0
   17.0336  -24.7280    0.0000 C   0  0  0  0  0  0  0  0  0  0  0  0
   17.4370  -23.2833    0.0000 C   0  0  0  0  0  0  0  0  0  0  0  0
   17.7180  -21.8099    0.0000 C   0  0  0  0  0  0  0  0  0  0  0  0
   17.8748  -20.3181    0.0000 C   0  0  0  0  0  0  0  0  0  0  0  0
   17.9062  -18.8184    0.0000 C   0  0  0  0  0  0  0  0  0  0  0  0
   17.8121  -17.3214    0.0000 C   0  0  0  0  0  0  0  0  0  0  0  0
   17.5929  -15.8375    0.0000 C   0  0  0  0  0  0  0  0  0  0  0  0
   17.2504  -14.3771    0.0000 C   0  0  0  0  0  0  0  0  0  0  0  0
   16.7869  -12.9505    0.0000 C   0  0  0  0  0  0  0  0  0  0  0  0
   16.2056  -11.5677    0.0000 C   0  0  0  0  0  0  0  0  0  0  0  0
   15.5107  -10.2384    0.0000 C   0  0  0  0  0  0  0  0  0  0  0  0
   14.7069   -8.9719    0.0000 C   0  0  0  0  0  0  0  0  0  0  0  0
   13.8000   -7.7771    0.0000 C   0  0  0  0  0  0  0  0  0  0  0  0
   12.7963   -6.6624    0.0000 C   0  0  0  0  0  0  0  0  0  0  0  0
   11.7029   -5.6356    0.0000 C   0  0  0  0  0  0  0  0  0  0  0  0
   10.5273   -4.7039    0.0000 C   0  0  0  0  0  0  0  0  0  0  0  0
    9.2780   -3.8738    0.0000 C   0  0  0  0  0  0  0  0  0  0  0  0
    7.9635   -3.1511    0.0000 C   0  0  0  0  0  0  0  0  0  0  0  0
    6.5932   -2.5410    0.0000 C   0  0  0  0  0  0  0  0  0  0  0  0
    5.1766   -2.0477    0.0000 C   0  0  0  0  0  0  0  0  0  0  0  0
    3.7237   -1.6747    0.0000 C   0  0  0  0  0  0  0  0  0  0  0  0
    2.2447   -1.4246    0.0000 C   0  0  0  0  0  0  0  0  0  0  0  0
    0.7500   -1.2990    0.0000 C   0  0  0  0  0  0  0  0  0  0  0  0
    1.5000    0.0000    0.0000 C   0  0  0  0  0  0  0  0  0  0  0  0
    0.7500    1.2990    0.0000 C   0  0  0  0  0  0  0  0  0  0  0  0
   -0.7500    1.2990    0.0000 C   0  0  0  0  0  0  0  0  0  0  0  0
   -1.5000    0.0000    0.0000 C   0  0  0  0  0  0  0  0  0  0  0  0
   -0.7500   -1.2990    0.0000 C   0  0  0  0  0  0  0  0  0  0  0  0
   -2.2447   -1.4246    0.0000 C   0  0  0  0  0  0  0  0  0  0  0  0
   -1.2886   -2.5803    0.0000 C   0  0  0  0  0  0  0  0  0  0  0  0
   -1.8115   -3.9862    0.0000 C   0  0  0  0  0  0  0  0  0  0  0  0
   -3.2905   -4.2364    0.0000 C   0  0  0  0  0  0  0  0  0  0  0  0
   -4.2466   -3.0806    0.0000 C   0  0  0  0  0  0  0  0  0  0  0  0
   -3.7237   -1.6747    0.0000 C   0  0  0  0  0  0  0  0  0  0  0  0
   -5.1766   -2.0477    0.0000 C   0  0  0  0  0  0  0  0  0  0  0  0
   -4.8955   -0.5743    0.0000 C   0  0  0  0  0  0  0  0  0  0  0  0
   -6.0310    0.4058    0.0000 C   0  0  0  0  0  0  0  0  0  0  0  0
   -7.4476   -0.0875    0.0000 C   0  0  0  0  0  0  0  0  0  0  0  0
   -7.7287   -1.5609    0.0000 C   0  0  0  0  0  0  0  0  0  0  0  0
   -6.5932   -2.5410    0.0000 C   0  0  0  0  0  0  0  0  0  0  0  0
   -7.9635   -3.1511    0.0000 C   0  0  0  0  0  0  0  0  0  0  0  0
   -6.6804   -3.9282    0.0000 C   0  0  0  0  0  0  0  0  0  0  0  0
   -6.7119   -5.4279    0.0000 C   0  0  0  0  0  0  0  0  0  0  0  0
   -8.0263   -6.1505    0.0000 C   0  0  0  0  0  0  0  0  0  0  0  0
   -9.3094   -5.3734    0.0000 C   0  0  0  0  0  0  0  0  0  0  0  0
   -9.2780   -3.8738    0.0000 C   0  0  0  0  0  0  0  0  0  0  0  0
  1  2  1  0
  2  3  1  0
  3  4  1  0
  4  5  1  0
  5  6  1  0
  6  7  1  0
  7  8  1  0
  8  9  1  0
  9 10  1  0
 10 11  1  0
 11 12  1  0
 12 13  1  0
 13 14  1  0
 14 15  1  0
 15 16  1  0
 16 17  1  0
 17 18  1  0
 18 19  1  0
 19 20  1  0
 20 21  1  0
 21 22  1  0
 22 23  1  0
 23 24  1  0
 24 25  1  0
 25 26  1  0
 26 27  1  0
 27 28  1  0
 28 29  1  0
 29 30  1  0
 30 31  1  0
 31 32  1  0
 32 33  1  0
 33 34  1  0
 34 35  1  0
 35 36  1  0
 36 37  1  0
 37 38  1  0
 38 39  1  0
 39 40  1  0
 40 41  1  0
 41 42  1  0
 42 43  1  0
 43 44  1  0
 44 45  1  0
 45 46  1  0
 46 47  1  0
 47 48  1  0
 48 49  1  0
 49 50  1  0
 50 51  1  0
 51 52  1  0
 52 53  1  0
 53 54  1  0
 54 55  1  0
 55 56  1  0
 56 57  2  0
 57 58  1  0
 58 59  2  0
 59 60  1  0
 60 61  2  0
 61 62  1  0
 62 63  2  0
 63 64  1  0
 64 65  2  0
 65 66  1  0
 66 67  2  0
 67 68  1  0
 68 69  2  0
 69 70  1  0
 70 71  1  0
 71 72  2  0
 72 73  1  0
 73 74  2  0
 74 75  1  0
 75 76  2  0
 76 77  1  0
 77 78  2  0
 78 79  1  0
 79 80  2  0
 80 81  1  0
 81 82  2  0
 82 83  1  0
 83 84  2  0
 84 85  1  0
 85 86  2  0
 86 87  1  0
 87 88  2  0
 88 89  1  0
 89 90  2  0
 90 91  1  0
 91 92  2  0
 92  2  1  0
 74 69  1  0
 80 75  1  0
 86 81  1  0
 92 87  1  0
M  END
>  <Title>  (215) 
idAAGIgen10

$$$$

     RDKit          2D

 13 14  0  0  0  0  0  0  0  0999 V2000
    4.9992   -0.5254    0.0000 C   0  0  0  0  0  0  0  0  0  0  0  0
    3.9955   -1.6402    0.0000 C   0  0  0  0  0  0  0  0  0  0  0  0
    2.9918   -2.7549    0.0000 C   0  0  0  0  0  0  0  0  0  0  0  0
    1.5000   -2.5981    0.0000 C   0  0  0  0  0  0  0  0  0  0  0  0
    0.7500   -1.2990    0.0000 C   0  0  0  0  0  0  0  0  0  0  0  0
    1.5000    0.0000    0.0000 C   0  0  0  0  0  0  0  0  0  0  0  0
    0.7500    1.2990    0.0000 C   0  0  0  0  0  0  0  0  0  0  0  0
   -0.7500    1.2990    0.0000 C   0  0  0  0  0  0  0  0  0  0  0  0
   -1.5000    0.0000    0.0000 C   0  0  0  0  0  0  0  0  0  0  0  0
   -0.7500   -1.2990    0.0000 C   0  0  0  0  0  0  0  0  0  0  0  0
    0.8899   -3.9684    0.0000 C   0  0  0  0  0  0  0  0  0  0  0  0
    2.0046   -4.9721    0.0000 C   0  0  0  0  0  0  0  0  0  0  0  0
    3.3037   -4.2221    0.0000 C   0  0  0  0  0  0  0  0  0  0  0  0
  1  2  3  0
  2  3  1  0
  3  4  2  0
  4  5  1  0
  5  6  2  0
  6  7  1  0
  7  8  2  0
  8  9  1  0
  9 10  2  0
  4 11  1  0
 11 12  1  0
 12 13  2  0
 13  3  1  0
 10  5  1  0
M  END
>  <Title>  (216) 
idAAGJgen10

$$$$

     RDKit          2D

  5  4  0  0  0  0  0  0  0  0999 V2000
    0.0000    0.0000    0.0000 C   0  0  0  0  0  0  0  0  0  0  0  0
    1.2990    0.7500    0.0000 C   0  0  0  0  0  0  0  0  0  0  0  0
    2.5981   -0.0000    0.0000 C   0  0  0  0  0  0  0  0  0  0  0  0
    3.8971    0.7500    0.0000 C   0  0  0  0  0  0  0  0  0  0  0  0
    5.1962   -0.0000    0.0000 C   0  0  0  0  0  0  0  0  0  0  0  0
  1  2  2  0
  2  3  1  0
  3  4  2  3
  4  5  1  0
M  END
>  <Title>  (217) 
idAAGKgen10

$$$$

     RDKit          2D

 13 13  0  0  0  0  0  0  0  0999 V2000
   13.2760   -0.0000    0.0000 C   0  0  0  0  0  0  0  0  0  0  0  0
   11.7760   -0.0000    0.0000 C   0  0  0  0  0  0  0  0  0  0  0  0
   10.2760   -0.0000    0.0000 C   0  0  0  0  0  0  0  0  0  0  0  0
    8.7760   -0.0000    0.0000 C   0  0  0  0  0  0  0  0  0  0  0  0
    7.2760   -0.0000    0.0000 C   0  0  0  0  0  0  0  0  0  0  0  0
    5.7760   -0.0000    0.0000 C   0  0  0  0  0  0  0  0  0  0  0  0
    4.2760   -0.0000    0.0000 C   0  0  0  0  0  0  0  0  0  0  0  0
    2.7760    0.0000    0.0000 C   0  0  0  0  0  0  0  0  0  0  0  0
    1.2760    0.0000    0.0000 C   0  0  0  0  0  0  0  0  0  0  0  0
    0.3943    1.2135    0.0000 C   0  0  0  0  0  0  0  0  0  0  0  0
   -1.0323    0.7500    0.0000 C   0  0  0  0  0  0  0  0  0  0  0  0
   -1.0323   -0.7500    0.0000 C   0  0  0  0  0  0  0  0  0  0  0  0
    0.3943   -1.2135    0.0000 C   0  0  0  0  0  0  0  0  0  0  0  0
  1  2  3  0
  2  3  1  0
  3  4  3  0
  4  5  1  0
  5  6  3  0
  6  7  1  0
  7  8  3  0
  8  9  1  0
  9 10  2  0
 10 11  1  0
 11 12  2  0
 12 13  1  0
 13  9  1  0
M  END
>  <Title>  (218) 
idAAGLgen10

$$$$

     RDKit          2D

118118  0  0  0  0  0  0  0  0999 V2000
   29.4350    0.0000    0.0000 O   0  0  0  0  0  0  0  0  0  0  0  0
   27.9350    0.0000    0.0000 C   0  0  0  0  0  0  0  0  0  0  0  0
   27.8948    1.4995    0.0000 C   0  0  0  0  0  0  0  0  0  0  0  0
   27.7741    2.9946    0.0000 C   0  0  0  0  0  0  0  0  0  0  0  0
   27.5733    4.4811    0.0000 C   0  0  0  0  0  0  0  0  0  0  0  0
   27.2930    5.9547    0.0000 C   0  0  0  0  0  0  0  0  0  0  0  0
   26.9340    7.4111    0.0000 C   0  0  0  0  0  0  0  0  0  0  0  0
   26.4974    8.8461    0.0000 C   0  0  0  0  0  0  0  0  0  0  0  0
   25.9844   10.2557    0.0000 C   0  0  0  0  0  0  0  0  0  0  0  0
   25.3964   11.6356    0.0000 C   0  0  0  0  0  0  0  0  0  0  0  0
   24.7353   12.9821    0.0000 C   0  0  0  0  0  0  0  0  0  0  0  0
   24.0028   14.2911    0.0000 C   0  0  0  0  0  0  0  0  0  0  0  0
   23.2011   15.5588    0.0000 C   0  0  0  0  0  0  0  0  0  0  0  0
   22.3325   16.7818    0.0000 C   0  0  0  0  0  0  0  0  0  0  0  0
   21.3995   17.9563    0.0000 C   0  0  0  0  0  0  0  0  0  0  0  0
   20.4048   19.0791    0.0000 C   0  0  0  0  0  0  0  0  0  0  0  0
   19.3513   20.1468    0.0000 C   0  0  0  0  0  0  0  0  0  0  0  0
   18.2420   21.1565    0.0000 C   0  0  0  0  0  0  0  0  0  0  0  0
   17.0801   22.1052    0.0000 C   0  0  0  0  0  0  0  0  0  0  0  0
   15.8689   22.9901    0.0000 C   0  0  0  0  0  0  0  0  0  0  0  0
   14.6120   23.8087    0.0000 C   0  0  0  0  0  0  0  0  0  0  0  0
   13.3130   24.5587    0.0000 C   0  0  0  0  0  0  0  0  0  0  0  0
   11.9755   25.2379    0.0000 C   0  0  0  0  0  0  0  0  0  0  0  0
   10.6036   25.8444    0.0000 C   0  0  0  0  0  0  0  0  0  0  0  0
    9.2011   26.3763    0.0000 C   0  0  0  0  0  0  0  0  0  0  0  0
    7.7720   26.8321    0.0000 C   0  0  0  0  0  0  0  0  0  0  0  0
    6.3206   27.2106    0.0000 C   0  0  0  0  0  0  0  0  0  0  0  0
    4.8509   27.5107    0.0000 C   0  0  0  0  0  0  0  0  0  0  0  0
    3.3672   27.7314    0.0000 C   0  0  0  0  0  0  0  0  0  0  0  0
    1.8738   27.8721    0.0000 C   0  0  0  0  0  0  0  0  0  0  0  0
    0.3750   27.9325    0.0000 C   0  0  0  0  0  0  0  0  0  0  0  0
   -1.1248   27.9124    0.0000 C   0  0  0  0  0  0  0  0  0  0  0  0
   -2.6215   27.8118    0.0000 C   0  0  0  0  0  0  0  0  0  0  0  0
   -4.1105   27.6310    0.0000 C   0  0  0  0  0  0  0  0  0  0  0  0
   -5.5877   27.3705    0.0000 C   0  0  0  0  0  0  0  0  0  0  0  0
   -7.0488   27.0311    0.0000 C   0  0  0  0  0  0  0  0  0  0  0  0
   -8.4896   26.6138    0.0000 C   0  0  0  0  0  0  0  0  0  0  0  0
   -9.9059   26.1197    0.0000 C   0  0  0  0  0  0  0  0  0  0  0  0
  -11.2936   25.5504    0.0000 C   0  0  0  0  0  0  0  0  0  0  0  0
  -12.6488   24.9073    0.0000 C   0  0  0  0  0  0  0  0  0  0  0  0
  -13.9675   24.1925    0.0000 C   0  0  0  0  0  0  0  0  0  0  0  0
  -15.2460   23.4079    0.0000 C   0  0  0  0  0  0  0  0  0  0  0  0
  -16.4804   22.5558    0.0000 C   0  0  0  0  0  0  0  0  0  0  0  0
  -17.6674   21.6386    0.0000 C   0  0  0  0  0  0  0  0  0  0  0  0
  -18.8034   20.6591    0.0000 C   0  0  0  0  0  0  0  0  0  0  0  0
  -19.8852   19.6200    0.0000 C   0  0  0  0  0  0  0  0  0  0  0  0
  -20.9097   18.5244    0.0000 C   0  0  0  0  0  0  0  0  0  0  0  0
  -21.8739   17.3753    0.0000 C   0  0  0  0  0  0  0  0  0  0  0  0
  -22.7750   16.1761    0.0000 C   0  0  0  0  0  0  0  0  0  0  0  0
  -23.6104   14.9303    0.0000 C   0  0  0  0  0  0  0  0  0  0  0  0
  -24.3778   13.6415    0.0000 C   0  0  0  0  0  0  0  0  0  0  0  0
  -25.0749   12.3133    0.0000 C   0  0  0  0  0  0  0  0  0  0  0  0
  -25.6997   10.9496    0.0000 C   0  0  0  0  0  0  0  0  0  0  0  0
  -26.2504    9.5543    0.0000 C   0  0  0  0  0  0  0  0  0  0  0  0
  -26.7254    8.1315    0.0000 C   0  0  0  0  0  0  0  0  0  0  0  0
  -27.1233    6.6853    0.0000 C   0  0  0  0  0  0  0  0  0  0  0  0
  -27.4430    5.2198    0.0000 C   0  0  0  0  0  0  0  0  0  0  0  0
  -27.6837    3.7392    0.0000 C   0  0  0  0  0  0  0  0  0  0  0  0
  -27.8445    2.2478    0.0000 C   0  0  0  0  0  0  0  0  0  0  0  0
  -27.9250    0.7500    0.0000 C   0  0  0  0  0  0  0  0  0  0  0  0
  -27.9250   -0.7500    0.0000 C   0  0  0  0  0  0  0  0  0  0  0  0
  -27.8445   -2.2478    0.0000 C   0  0  0  0  0  0  0  0  0  0  0  0
  -27.6837   -3.7392    0.0000 C   0  0  0  0  0  0  0  0  0  0  0  0
  -27.4430   -5.2198    0.0000 C   0  0  0  0  0  0  0  0  0  0  0  0
  -27.1233   -6.6853    0.0000 C   0  0  0  0  0  0  0  0  0  0  0  0
  -26.7254   -8.1315    0.0000 C   0  0  0  0  0  0  0  0  0  0  0  0
  -26.2504   -9.5543    0.0000 C   0  0  0  0  0  0  0  0  0  0  0  0
  -25.6997  -10.9496    0.0000 C   0  0  0  0  0  0  0  0  0  0  0  0
  -25.0749  -12.3133    0.0000 C   0  0  0  0  0  0  0  0  0  0  0  0
  -24.3778  -13.6415    0.0000 C   0  0  0  0  0  0  0  0  0  0  0  0
  -23.6104  -14.9303    0.0000 C   0  0  0  0  0  0  0  0  0  0  0  0
  -22.7750  -16.1761    0.0000 C   0  0  0  0  0  0  0  0  0  0  0  0
  -21.8739  -17.3753    0.0000 C   0  0  0  0  0  0  0  0  0  0  0  0
  -20.9097  -18.5244    0.0000 C   0  0  0  0  0  0  0  0  0  0  0  0
  -19.8852  -19.6200    0.0000 C   0  0  0  0  0  0  0  0  0  0  0  0
  -18.8034  -20.6591    0.0000 C   0  0  0  0  0  0  0  0  0  0  0  0
  -17.6674  -21.6386    0.0000 C   0  0  0  0  0  0  0  0  0  0  0  0
  -16.4804  -22.5558    0.0000 C   0  0  0  0  0  0  0  0  0  0  0  0
  -15.2460  -23.4079    0.0000 C   0  0  0  0  0  0  0  0  0  0  0  0
  -13.9675  -24.1925    0.0000 C   0  0  0  0  0  0  0  0  0  0  0  0
  -12.6488  -24.9073    0.0000 C   0  0  0  0  0  0  0  0  0  0  0  0
  -11.2936  -25.5504    0.0000 C   0  0  0  0  0  0  0  0  0  0  0  0
   -9.9059  -26.1197    0.0000 C   0  0  0  0  0  0  0  0  0  0  0  0
   -8.4896  -26.6138    0.0000 C   0  0  0  0  0  0  0  0  0  0  0  0
   -7.0488  -27.0311    0.0000 C   0  0  0  0  0  0  0  0  0  0  0  0
   -5.5877  -27.3705    0.0000 C   0  0  0  0  0  0  0  0  0  0  0  0
   -4.1105  -27.6310    0.0000 C   0  0  0  0  0  0  0  0  0  0  0  0
   -2.6215  -27.8118    0.0000 C   0  0  0  0  0  0  0  0  0  0  0  0
   -1.1248  -27.9124    0.0000 C   0  0  0  0  0  0  0  0  0  0  0  0
    0.3750  -27.9325    0.0000 C   0  0  0  0  0  0  0  0  0  0  0  0
    1.8738  -27.8721    0.0000 C   0  0  0  0  0  0  0  0  0  0  0  0
    3.3672  -27.7314    0.0000 C   0  0  0  0  0  0  0  0  0  0  0  0
    4.8509  -27.5107    0.0000 C   0  0  0  0  0  0  0  0  0  0  0  0
    6.3206  -27.2106    0.0000 C   0  0  0  0  0  0  0  0  0  0  0  0
    7.7720  -26.8321    0.0000 C   0  0  0  0  0  0  0  0  0  0  0  0
    9.2011  -26.3763    0.0000 C   0  0  0  0  0  0  0  0  0  0  0  0
   10.6036  -25.8444    0.0000 C   0  0  0  0  0  0  0  0  0  0  0  0
   11.9755  -25.2379    0.0000 C   0  0  0  0  0  0  0  0  0  0  0  0
   13.3130  -24.5587    0.0000 C   0  0  0  0  0  0  0  0  0  0  0  0
   14.6120  -23.8087    0.0000 C   0  0  0  0  0  0  0  0  0  0  0  0
   15.8689  -22.9901    0.0000 C   0  0  0  0  0  0  0  0  0  0  0  0
   17.0801  -22.1052    0.0000 C   0  0  0  0  0  0  0  0  0  0  0  0
   18.2420  -21.1565    0.0000 C   0  0  0  0  0  0  0  0  0  0  0  0
   19.3513  -20.1468    0.0000 C   0  0  0  0  0  0  0  0  0  0  0  0
   20.4048  -19.0791    0.0000 C   0  0  0  0  0  0  0  0  0  0  0  0
   21.3995  -17.9563    0.0000 C   0  0  0  0  0  0  0  0  0  0  0  0
   22.3325  -16.7818    0.0000 C   0  0  0  0  0  0  0  0  0  0  0  0
   23.2011  -15.5588    0.0000 C   0  0  0  0  0  0  0  0  0  0  0  0
   24.0028  -14.2911    0.0000 C   0  0  0  0  0  0  0  0  0  0  0  0
   24.7353  -12.9821    0.0000 C   0  0  0  0  0  0  0  0  0  0  0  0
   25.3964  -11.6356    0.0000 C   0  0  0  0  0  0  0  0  0  0  0  0
   25.9844  -10.2557    0.0000 C   0  0  0  0  0  0  0  0  0  0  0  0
   26.4974   -8.8461    0.0000 C   0  0  0  0  0  0  0  0  0  0  0  0
   26.9340   -7.4111    0.0000 C   0  0  0  0  0  0  0  0  0  0  0  0
   27.2930   -5.9547    0.0000 C   0  0  0  0  0  0  0  0  0  0  0  0
   27.5733   -4.4811    0.0000 C   0  0  0  0  0  0  0  0  0  0  0  0
   27.7741   -2.9946    0.0000 C   0  0  0  0  0  0  0  0  0  0  0  0
   27.8948   -1.4995    0.0000 C   0  0  0  0  0  0  0  0  0  0  0  0
  1  2  1  0
  2  3  1  0
  3  4  1  0
  4  5  1  0
  5  6  1  0
  6  7  1  0
  7  8  1  0
  8  9  1  0
  9 10  1  0
 10 11  1  0
 11 12  1  0
 12 13  1  0
 13 14  1  0
 14 15  1  0
 15 16  1  0
 16 17  1  0
 17 18  1  0
 18 19  1  0
 19 20  1  0
 20 21  1  0
 21 22  1  0
 22 23  1  0
 23 24  1  0
 24 25  1  0
 25 26  1  0
 26 27  1  0
 27 28  1  0
 28 29  1  0
 29 30  1  0
 30 31  1  0
 31 32  1  0
 32 33  1  0
 33 34  1  0
 34 35  1  0
 35 36  1  0
 36 37  1  0
 37 38  1  0
 38 39  1  0
 39 40  1  0
 40 41  1  0
 41 42  1  0
 42 43  1  0
 43 44  1  0
 44 45  1  0
 45 46  1  0
 46 47  1  0
 47 48  1  0
 48 49  1  0
 49 50  1  0
 50 51  1  0
 51 52  1  0
 52 53  1  0
 53 54  1  0
 54 55  1  0
 55 56  1  0
 56 57  1  0
 57 58  1  0
 58 59  1  0
 59 60  1  0
 60 61  1  0
 61 62  1  0
 62 63  1  0
 63 64  1  0
 64 65  1  0
 65 66  1  0
 66 67  1  0
 67 68  1  0
 68 69  1  0
 69 70  1  0
 70 71  1  0
 71 72  1  0
 72 73  1  0
 73 74  1  0
 74 75  1  0
 75 76  1  0
 76 77  1  0
 77 78  1  0
 78 79  1  0
 79 80  1  0
 80 81  1  0
 81 82  1  0
 82 83  1  0
 83 84  1  0
 84 85  1  0
 85 86  1  0
 86 87  1  0
 87 88  1  0
 88 89  1  0
 89 90  1  0
 90 91  1  0
 91 92  1  0
 92 93  1  0
 93 94  1  0
 94 95  1  0
 95 96  1  0
 96 97  1  0
 97 98  1  0
 98 99  1  0
 99100  1  0
100101  1  0
101102  1  0
102103  1  0
103104  1  0
104105  1  0
105106  1  0
106107  1  0
107108  1  0
108109  1  0
109110  1  0
110111  1  0
111112  1  0
112113  1  0
113114  1  0
114115  1  0
115116  1  0
116117  1  0
117118  1  0
118  2  1  0
M  END
>  <Title>  (219) 
idAAGMgen10

$$$$

     RDKit          2D

 12 12  0  0  0  0  0  0  0  0999 V2000
    4.5000   -2.5981    0.0000 C   0  0  0  0  0  0  0  0  0  0  0  0
    3.7500   -1.2990    0.0000 C   0  0  0  0  0  0  0  0  0  0  0  0
    3.0000    0.0000    0.0000 C   0  0  0  0  0  0  0  0  0  0  0  0
    3.7500    1.2990    0.0000 O   0  0  0  0  0  0  0  0  0  0  0  0
    1.5000    0.0000    0.0000 C   0  0  0  0  0  0  0  0  0  0  0  0
    0.7500   -1.2990    0.0000 C   0  0  0  0  0  0  0  0  0  0  0  0
   -0.7500   -1.2990    0.0000 C   0  0  0  0  0  0  0  0  0  0  0  0
   -1.5000    0.0000    0.0000 C   0  0  0  0  0  0  0  0  0  0  0  0
   -0.7500    1.2990    0.0000 C   0  0  0  0  0  0  0  0  0  0  0  0
   -1.5000    2.5981    0.0000 O   0  0  0  0  0  0  0  0  0  0  0  0
    0.7500    1.2990    0.0000 C   0  0  0  0  0  0  0  0  0  0  0  0
    1.5000    2.5981    0.0000 O   0  0  0  0  0  0  0  0  0  0  0  0
  1  2  3  0
  2  3  1  0
  3  4  2  0
  3  5  1  0
  5  6  2  0
  6  7  1  0
  7  8  2  0
  8  9  1  0
  9 10  1  0
  9 11  1  0
 11 12  1  0
 11  5  1  0
M  END
>  <Title>  (220) 
idAAGNgen10

$$$$

     RDKit          2D

 13 13  0  0  0  0  0  0  0  0999 V2000
   10.2760   -0.0000    0.0000 C   0  0  0  0  0  0  0  0  0  0  0  0
    8.7760   -0.0000    0.0000 C   0  0  0  0  0  0  0  0  0  0  0  0
    7.2760   -0.0000    0.0000 C   0  0  0  0  0  0  0  0  0  0  0  0
    5.7760   -0.0000    0.0000 C   0  0  0  0  0  0  0  0  0  0  0  0
    4.2760   -0.0000    0.0000 C   0  0  0  0  0  0  0  0  0  0  0  0
    2.7760    0.0000    0.0000 C   0  0  0  0  0  0  0  0  0  0  0  0
    1.2760    0.0000    0.0000 C   0  0  0  0  0  0  0  0  0  0  0  0
    0.3943    1.2135    0.0000 C   0  0  0  0  0  0  0  0  0  0  0  0
   -1.0323    0.7500    0.0000 C   0  0  0  0  0  0  0  0  0  0  0  0
   -2.2458    1.6317    0.0000 C   0  0  0  0  0  0  0  0  0  0  0  0
   -1.0323   -0.7500    0.0000 C   0  0  0  0  0  0  0  0  0  0  0  0
   -2.2458   -1.6317    0.0000 C   0  0  0  0  0  0  0  0  0  0  0  0
    0.3943   -1.2135    0.0000 C   0  0  0  0  0  0  0  0  0  0  0  0
  1  2  3  0
  2  3  1  0
  3  4  3  0
  4  5  1  0
  5  6  3  0
  6  7  1  0
  7  8  2  0
  8  9  1  0
  9 10  1  0
  9 11  1  0
 11 12  1  0
 11 13  2  0
 13  7  1  0
M  END
>  <Title>  (221) 
idAAGOgen10

$$$$

     RDKit          2D

  7  7  0  0  0  0  0  0  0  0999 V2000
    3.0000    0.0000    0.0000 C   0  0  0  0  0  0  0  0  0  0  0  0
    1.5000    0.0000    0.0000 C   0  0  0  0  0  0  0  0  0  0  0  0
    0.7500   -1.2990    0.0000 C   0  0  0  0  0  0  0  0  0  0  0  0
   -0.7500   -1.2990    0.0000 C   0  0  0  0  0  0  0  0  0  0  0  0
   -1.5000    0.0000    0.0000 C   0  0  0  0  0  0  0  0  0  0  0  0
   -0.7500    1.2990    0.0000 C   0  0  0  0  0  0  0  0  0  0  0  0
    0.7500    1.2990    0.0000 C   0  0  0  0  0  0  0  0  0  0  0  0
  1  2  1  0
  2  3  1  0
  3  4  1  0
  4  5  1  0
  5  6  1  0
  6  7  1  0
  7  2  1  0
M  END
>  <Title>  (222) 
idAAGPgen10

$$$$

     RDKit          2D

  7  6  0  0  0  0  0  0  0  0999 V2000
    0.0000    0.0000    0.0000 C   0  0  0  0  0  0  0  0  0  0  0  0
    1.2990    0.7500    0.0000 C   0  0  0  0  0  0  0  0  0  0  0  0
    2.5981   -0.0000    0.0000 C   0  0  0  0  0  0  0  0  0  0  0  0
    3.8971   -0.7500    0.0000 C   0  0  0  0  0  0  0  0  0  0  0  0
    5.1962   -1.5000    0.0000 C   0  0  0  0  0  0  0  0  0  0  0  0
    6.4952   -0.7500    0.0000 C   0  0  0  0  0  0  0  0  0  0  0  0
    7.7942   -1.5000    0.0000 C   0  0  0  0  0  0  0  0  0  0  0  0
  1  2  1  0
  2  3  1  0
  3  4  3  0
  4  5  1  0
  5  6  1  0
  6  7  1  0
M  END
>  <Title>  (223) 
idAAGQgen10

$$$$

     RDKit          2D

 14 14  0  0  0  0  0  0  0  0999 V2000
   10.2760   -0.0000    0.0000 C   0  0  0  0  0  0  0  0  0  0  0  0
    8.7760   -0.0000    0.0000 C   0  0  0  0  0  0  0  0  0  0  0  0
    7.2760   -0.0000    0.0000 C   0  0  0  0  0  0  0  0  0  0  0  0
    5.7760   -0.0000    0.0000 C   0  0  0  0  0  0  0  0  0  0  0  0
    4.2760   -0.0000    0.0000 C   0  0  0  0  0  0  0  0  0  0  0  0
    2.7760    0.0000    0.0000 C   0  0  0  0  0  0  0  0  0  0  0  0
    1.2760    0.0000    0.0000 C   0  0  0  0  0  0  0  0  0  0  0  0
    0.3943    1.2135    0.0000 C   0  0  0  0  0  0  0  0  0  0  0  0
    0.8578    2.6401    0.0000 C   0  0  0  0  0  0  0  0  0  0  0  0
    1.3213    4.0667    0.0000 N   0  0  0  0  0  0  0  0  0  0  0  0
   -1.0323    0.7500    0.0000 C   0  0  0  0  0  0  0  0  0  0  0  0
   -1.0323   -0.7500    0.0000 C   0  0  0  0  0  0  0  0  0  0  0  0
   -2.2458   -1.6317    0.0000 O   0  0  0  0  0  0  0  0  0  0  0  0
    0.3943   -1.2135    0.0000 C   0  0  0  0  0  0  0  0  0  0  0  0
  1  2  3  0
  2  3  1  0
  3  4  3  0
  4  5  1  0
  5  6  3  0
  6  7  1  0
  7  8  2  0
  8  9  1  0
  9 10  3  0
  8 11  1  0
 11 12  2  0
 12 13  1  0
 12 14  1  0
 14  7  1  0
M  END
>  <Title>  (224) 
idAAGRgen10

$$$$

     RDKit          2D

 12 12  0  0  0  0  0  0  0  0999 V2000
    5.2500   -1.2990    0.0000 C   0  0  0  0  0  0  0  0  0  0  0  0
    3.7500   -1.2990    0.0000 C   0  0  0  0  0  0  0  0  0  0  0  0
    3.0000   -2.5981    0.0000 O   0  0  0  0  0  0  0  0  0  0  0  0
    3.0000    0.0000    0.0000 N   0  0  0  0  0  0  0  0  0  0  0  0
    1.5000    0.0000    0.0000 C   0  0  0  0  0  0  0  0  0  0  0  0
    0.7500   -1.2990    0.0000 C   0  0  0  0  0  0  0  0  0  0  0  0
   -0.7500   -1.2990    0.0000 C   0  0  0  0  0  0  0  0  0  0  0  0
   -1.5000    0.0000    0.0000 C   0  0  0  0  0  0  0  0  0  0  0  0
   -0.7500    1.2990    0.0000 C   0  0  0  0  0  0  0  0  0  0  0  0
   -1.5000    2.5981    0.0000 O   0  0  0  0  0  0  0  0  0  0  0  0
    0.7500    1.2990    0.0000 C   0  0  0  0  0  0  0  0  0  0  0  0
    1.5000    2.5981    0.0000 O   0  0  0  0  0  0  0  0  0  0  0  0
  1  2  1  0
  2  3  2  0
  2  4  1  0
  4  5  1  0
  5  6  2  0
  6  7  1  0
  7  8  2  0
  8  9  1  0
  9 10  1  0
  9 11  1  0
 11 12  1  0
 11  5  1  0
M  END
>  <Title>  (225) 
idAAGSgen10

$$$$

     RDKit          2D

 57 57  0  0  0  0  0  0  0  0999 V2000
   14.8760    0.0000    0.0000 C   0  0  0  0  0  0  0  0  0  0  0  0
   13.3760    0.0000    0.0000 C   0  0  0  0  0  0  0  0  0  0  0  0
   13.2919   -1.4976    0.0000 C   0  0  0  0  0  0  0  0  0  0  0  0
   13.0407   -2.9764    0.0000 C   0  0  0  0  0  0  0  0  0  0  0  0
   12.6254   -4.4178    0.0000 C   0  0  0  0  0  0  0  0  0  0  0  0
   12.0514   -5.8036    0.0000 C   0  0  0  0  0  0  0  0  0  0  0  0
   11.3258   -7.1165    0.0000 C   0  0  0  0  0  0  0  0  0  0  0  0
   10.4578   -8.3398    0.0000 C   0  0  0  0  0  0  0  0  0  0  0  0
    9.4583   -9.4583    0.0000 C   0  0  0  0  0  0  0  0  0  0  0  0
    8.3398  -10.4578    0.0000 C   0  0  0  0  0  0  0  0  0  0  0  0
    7.1165  -11.3258    0.0000 C   0  0  0  0  0  0  0  0  0  0  0  0
    5.8036  -12.0514    0.0000 C   0  0  0  0  0  0  0  0  0  0  0  0
    4.4178  -12.6254    0.0000 C   0  0  0  0  0  0  0  0  0  0  0  0
    2.9764  -13.0407    0.0000 C   0  0  0  0  0  0  0  0  0  0  0  0
    1.4976  -13.2919    0.0000 C   0  0  0  0  0  0  0  0  0  0  0  0
   -0.0000  -13.3760    0.0000 C   0  0  0  0  0  0  0  0  0  0  0  0
   -1.4976  -13.2919    0.0000 C   0  0  0  0  0  0  0  0  0  0  0  0
   -2.9764  -13.0407    0.0000 C   0  0  0  0  0  0  0  0  0  0  0  0
   -4.4178  -12.6254    0.0000 C   0  0  0  0  0  0  0  0  0  0  0  0
   -5.8036  -12.0514    0.0000 C   0  0  0  0  0  0  0  0  0  0  0  0
   -7.1165  -11.3258    0.0000 C   0  0  0  0  0  0  0  0  0  0  0  0
   -8.3398  -10.4578    0.0000 C   0  0  0  0  0  0  0  0  0  0  0  0
   -9.4583   -9.4583    0.0000 C   0  0  0  0  0  0  0  0  0  0  0  0
  -10.4578   -8.3398    0.0000 C   0  0  0  0  0  0  0  0  0  0  0  0
  -11.3258   -7.1165    0.0000 C   0  0  0  0  0  0  0  0  0  0  0  0
  -12.0514   -5.8036    0.0000 C   0  0  0  0  0  0  0  0  0  0  0  0
  -12.6254   -4.4178    0.0000 C   0  0  0  0  0  0  0  0  0  0  0  0
  -13.0407   -2.9764    0.0000 C   0  0  0  0  0  0  0  0  0  0  0  0
  -13.2919   -1.4976    0.0000 C   0  0  0  0  0  0  0  0  0  0  0  0
  -13.3760    0.0000    0.0000 C   0  0  0  0  0  0  0  0  0  0  0  0
  -13.2919    1.4976    0.0000 C   0  0  0  0  0  0  0  0  0  0  0  0
  -13.0407    2.9764    0.0000 C   0  0  0  0  0  0  0  0  0  0  0  0
  -12.6254    4.4178    0.0000 C   0  0  0  0  0  0  0  0  0  0  0  0
  -12.0514    5.8036    0.0000 C   0  0  0  0  0  0  0  0  0  0  0  0
  -11.3258    7.1165    0.0000 C   0  0  0  0  0  0  0  0  0  0  0  0
  -10.4578    8.3398    0.0000 C   0  0  0  0  0  0  0  0  0  0  0  0
   -9.4583    9.4583    0.0000 C   0  0  0  0  0  0  0  0  0  0  0  0
   -8.3398   10.4578    0.0000 C   0  0  0  0  0  0  0  0  0  0  0  0
   -7.1165   11.3258    0.0000 C   0  0  0  0  0  0  0  0  0  0  0  0
   -5.8036   12.0514    0.0000 C   0  0  0  0  0  0  0  0  0  0  0  0
   -4.4178   12.6254    0.0000 C   0  0  0  0  0  0  0  0  0  0  0  0
   -2.9764   13.0407    0.0000 C   0  0  0  0  0  0  0  0  0  0  0  0
   -1.4976   13.2919    0.0000 C   0  0  0  0  0  0  0  0  0  0  0  0
    0.0000   13.3760    0.0000 C   0  0  0  0  0  0  0  0  0  0  0  0
    1.4976   13.2919    0.0000 C   0  0  0  0  0  0  0  0  0  0  0  0
    2.9764   13.0407    0.0000 C   0  0  0  0  0  0  0  0  0  0  0  0
    4.4178   12.6254    0.0000 C   0  0  0  0  0  0  0  0  0  0  0  0
    5.8036   12.0514    0.0000 C   0  0  0  0  0  0  0  0  0  0  0  0
    7.1165   11.3258    0.0000 C   0  0  0  0  0  0  0  0  0  0  0  0
    8.3398   10.4578    0.0000 C   0  0  0  0  0  0  0  0  0  0  0  0
    9.4583    9.4583    0.0000 C   0  0  0  0  0  0  0  0  0  0  0  0
   10.4578    8.3398    0.0000 C   0  0  0  0  0  0  0  0  0  0  0  0
   11.3258    7.1165    0.0000 C   0  0  0  0  0  0  0  0  0  0  0  0
   12.0514    5.8036    0.0000 C   0  0  0  0  0  0  0  0  0  0  0  0
   12.6254    4.4178    0.0000 C   0  0  0  0  0  0  0  0  0  0  0  0
   13.0407    2.9764    0.0000 C   0  0  0  0  0  0  0  0  0  0  0  0
   13.2919    1.4976    0.0000 C   0  0  0  0  0  0  0  0  0  0  0  0
  1  2  1  0
  2  3  1  0
  3  4  1  0
  4  5  1  0
  5  6  1  0
  6  7  1  0
  7  8  1  0
  8  9  1  0
  9 10  1  0
 10 11  1  0
 11 12  1  0
 12 13  1  0
 13 14  1  0
 14 15  1  0
 15 16  1  0
 16 17  1  0
 17 18  1  0
 18 19  1  0
 19 20  1  0
 20 21  1  0
 21 22  1  0
 22 23  1  0
 23 24  1  0
 24 25  1  0
 25 26  1  0
 26 27  1  0
 27 28  1  0
 28 29  1  0
 29 30  1  0
 30 31  1  0
 31 32  1  0
 32 33  1  0
 33 34  1  0
 34 35  1  0
 35 36  1  0
 36 37  1  0
 37 38  1  0
 38 39  1  0
 39 40  1  0
 40 41  1  0
 41 42  1  0
 42 43  1  0
 43 44  1  0
 44 45  1  0
 45 46  1  0
 46 47  1  0
 47 48  1  0
 48 49  1  0
 49 50  1  0
 50 51  1  0
 51 52  1  0
 52 53  1  0
 53 54  1  0
 54 55  1  0
 55 56  1  0
 56 57  1  0
 57  2  1  0
M  END
>  <Title>  (226) 
idAAGTgen10

$$$$

     RDKit          2D

 12 12  0  0  0  0  0  0  0  0999 V2000
    8.2500   -1.2990    0.0000 C   0  0  0  0  0  0  0  0  0  0  0  0
    6.7500   -1.2990    0.0000 C   0  0  0  0  0  0  0  0  0  0  0  0
    5.2500   -1.2990    0.0000 C   0  0  0  0  0  0  0  0  0  0  0  0
    3.7500   -1.2990    0.0000 C   0  0  0  0  0  0  0  0  0  0  0  0
    3.0000   -2.5981    0.0000 O   0  0  0  0  0  0  0  0  0  0  0  0
    3.0000    0.0000    0.0000 N   0  0  0  0  0  0  0  0  0  0  0  0
    1.5000    0.0000    0.0000 C   0  0  0  0  0  0  0  0  0  0  0  0
    0.7500   -1.2990    0.0000 C   0  0  0  0  0  0  0  0  0  0  0  0
   -0.7500   -1.2990    0.0000 C   0  0  0  0  0  0  0  0  0  0  0  0
   -1.5000    0.0000    0.0000 C   0  0  0  0  0  0  0  0  0  0  0  0
   -0.7500    1.2990    0.0000 C   0  0  0  0  0  0  0  0  0  0  0  0
    0.7500    1.2990    0.0000 C   0  0  0  0  0  0  0  0  0  0  0  0
  1  2  1  0
  2  3  3  0
  3  4  1  0
  4  5  2  0
  4  6  1  0
  6  7  1  0
  7  8  2  0
  8  9  1  0
  9 10  2  0
 10 11  1  0
 11 12  2  0
 12  7  1  0
M  END
>  <Title>  (227) 
idAAGUgen10

$$$$

     RDKit          2D

 33 37  0  0  0  0  0  0  0  0999 V2000
    3.9505  -10.2176    0.0000 C   0  0  0  0  0  0  0  0  0  0  0  0
    2.5171   -9.7755    0.0000 C   0  0  0  0  0  0  0  0  0  0  0  0
    1.0838   -9.3334    0.0000 C   0  0  0  0  0  0  0  0  0  0  0  0
    0.7500   -7.8710    0.0000 C   0  0  0  0  0  0  0  0  0  0  0  0
    2.1015   -7.2201    0.0000 C   0  0  0  0  0  0  0  0  0  0  0  0
    3.0367   -6.0474    0.0000 C   0  0  0  0  0  0  0  0  0  0  0  0
    3.3705   -4.5850    0.0000 C   0  0  0  0  0  0  0  0  0  0  0  0
    3.0367   -3.1226    0.0000 C   0  0  0  0  0  0  0  0  0  0  0  0
    2.1015   -1.9499    0.0000 C   0  0  0  0  0  0  0  0  0  0  0  0
    0.7500   -1.2990    0.0000 C   0  0  0  0  0  0  0  0  0  0  0  0
    1.5000    0.0000    0.0000 C   0  0  0  0  0  0  0  0  0  0  0  0
    0.7500    1.2990    0.0000 C   0  0  0  0  0  0  0  0  0  0  0  0
   -0.7500    1.2990    0.0000 C   0  0  0  0  0  0  0  0  0  0  0  0
   -1.5000    0.0000    0.0000 C   0  0  0  0  0  0  0  0  0  0  0  0
   -0.7500   -1.2990    0.0000 C   0  0  0  0  0  0  0  0  0  0  0  0
   -2.1015   -1.9499    0.0000 C   0  0  0  0  0  0  0  0  0  0  0  0
   -2.6495   -0.5536    0.0000 C   0  0  0  0  0  0  0  0  0  0  0  0
   -4.1327   -0.3300    0.0000 C   0  0  0  0  0  0  0  0  0  0  0  0
   -5.0679   -1.5027    0.0000 C   0  0  0  0  0  0  0  0  0  0  0  0
   -4.5199   -2.8990    0.0000 C   0  0  0  0  0  0  0  0  0  0  0  0
   -3.0367   -3.1226    0.0000 C   0  0  0  0  0  0  0  0  0  0  0  0
   -3.3705   -4.5850    0.0000 C   0  0  0  0  0  0  0  0  0  0  0  0
   -4.8038   -4.1429    0.0000 C   0  0  0  0  0  0  0  0  0  0  0  0
   -5.9034   -5.1631    0.0000 C   0  0  0  0  0  0  0  0  0  0  0  0
   -5.5696   -6.6255    0.0000 C   0  0  0  0  0  0  0  0  0  0  0  0
   -4.1363   -7.0677    0.0000 C   0  0  0  0  0  0  0  0  0  0  0  0
   -3.0367   -6.0474    0.0000 C   0  0  0  0  0  0  0  0  0  0  0  0
   -2.1015   -7.2201    0.0000 C   0  0  0  0  0  0  0  0  0  0  0  0
   -3.3408   -8.0651    0.0000 C   0  0  0  0  0  0  0  0  0  0  0  0
   -3.2287   -9.5609    0.0000 C   0  0  0  0  0  0  0  0  0  0  0  0
   -1.8773  -10.2118    0.0000 C   0  0  0  0  0  0  0  0  0  0  0  0
   -0.6379   -9.3668    0.0000 C   0  0  0  0  0  0  0  0  0  0  0  0
   -0.7500   -7.8710    0.0000 C   0  0  0  0  0  0  0  0  0  0  0  0
  1  2  3  0
  2  3  1  0
  3  4  1  0
  4  5  1  0
  5  6  1  0
  6  7  1  0
  7  8  1  0
  8  9  1  0
  9 10  1  0
 10 11  2  0
 11 12  1  0
 12 13  2  0
 13 14  1  0
 14 15  2  0
 15 16  1  0
 16 17  2  0
 17 18  1  0
 18 19  2  0
 19 20  1  0
 20 21  2  0
 21 22  1  0
 22 23  2  0
 23 24  1  0
 24 25  2  0
 25 26  1  0
 26 27  2  0
 27 28  1  0
 28 29  2  0
 29 30  1  0
 30 31  2  0
 31 32  1  0
 32 33  2  0
 33  4  1  0
 15 10  1  0
 21 16  1  0
 27 22  1  0
 33 28  1  0
M  END
>  <Title>  (228) 
idAAGVgen10

$$$$

     RDKit          2D

 29 33  0  0  0  0  0  0  0  0999 V2000
    3.1097   -7.2078    0.0000 C   0  0  0  0  0  0  0  0  0  0  0  0
    2.0490   -6.1471    0.0000 C   0  0  0  0  0  0  0  0  0  0  0  0
    2.7990   -4.8481    0.0000 N   0  0  0  0  0  0  0  0  0  0  0  0
    2.7990   -3.3481    0.0000 N   0  0  0  0  0  0  0  0  0  0  0  0
    2.0490   -2.0490    0.0000 N   0  0  0  0  0  0  0  0  0  0  0  0
    0.7500   -1.2990    0.0000 N   0  0  0  0  0  0  0  0  0  0  0  0
    1.5000    0.0000    0.0000 C   0  0  0  0  0  0  0  0  0  0  0  0
    0.7500    1.2990    0.0000 C   0  0  0  0  0  0  0  0  0  0  0  0
   -0.7500    1.2990    0.0000 C   0  0  0  0  0  0  0  0  0  0  0  0
   -1.5000    0.0000    0.0000 C   0  0  0  0  0  0  0  0  0  0  0  0
   -0.7500   -1.2990    0.0000 C   0  0  0  0  0  0  0  0  0  0  0  0
   -2.0490   -2.0490    0.0000 C   0  0  0  0  0  0  0  0  0  0  0  0
   -2.7990   -0.7500    0.0000 C   0  0  0  0  0  0  0  0  0  0  0  0
   -4.2990   -0.7500    0.0000 C   0  0  0  0  0  0  0  0  0  0  0  0
   -5.0490   -2.0490    0.0000 C   0  0  0  0  0  0  0  0  0  0  0  0
   -4.2990   -3.3481    0.0000 C   0  0  0  0  0  0  0  0  0  0  0  0
   -2.7990   -3.3481    0.0000 C   0  0  0  0  0  0  0  0  0  0  0  0
   -2.7990   -4.8481    0.0000 C   0  0  0  0  0  0  0  0  0  0  0  0
   -4.2990   -4.8481    0.0000 C   0  0  0  0  0  0  0  0  0  0  0  0
   -5.0490   -6.1471    0.0000 C   0  0  0  0  0  0  0  0  0  0  0  0
   -4.2990   -7.4462    0.0000 C   0  0  0  0  0  0  0  0  0  0  0  0
   -2.7990   -7.4462    0.0000 C   0  0  0  0  0  0  0  0  0  0  0  0
   -2.0490   -6.1471    0.0000 C   0  0  0  0  0  0  0  0  0  0  0  0
   -0.7500   -6.8971    0.0000 C   0  0  0  0  0  0  0  0  0  0  0  0
   -1.5000   -8.1962    0.0000 C   0  0  0  0  0  0  0  0  0  0  0  0
   -0.7500   -9.4952    0.0000 C   0  0  0  0  0  0  0  0  0  0  0  0
    0.7500   -9.4952    0.0000 C   0  0  0  0  0  0  0  0  0  0  0  0
    1.5000   -8.1962    0.0000 C   0  0  0  0  0  0  0  0  0  0  0  0
    0.7500   -6.8971    0.0000 C   0  0  0  0  0  0  0  0  0  0  0  0
  1  2  1  0
  2  3  2  0
  3  4  1  0
  4  5  2  0
  5  6  1  0
  6  7  1  0
  7  8  1  0
  8  9  2  0
  9 10  1  0
 10 11  2  0
 11 12  1  0
 12 13  2  0
 13 14  1  0
 14 15  2  0
 15 16  1  0
 16 17  2  0
 17 18  1  0
 18 19  2  0
 19 20  1  0
 20 21  2  0
 21 22  1  0
 22 23  2  0
 23 24  1  0
 24 25  2  0
 25 26  1  0
 26 27  2  0
 27 28  1  0
 28 29  2  0
 29  2  1  0
 11  6  1  0
 17 12  1  0
 23 18  1  0
 29 24  1  0
M  END
>  <Title>  (229) 
idAAGWgen10

$$$$

     RDKit          2D

 15 15  0  0  0  0  0  0  0  0999 V2000
   13.5000    0.0000    0.0000 C   0  0  0  0  0  0  0  0  0  0  0  0
   12.0000    0.0000    0.0000 C   0  0  0  0  0  0  0  0  0  0  0  0
   10.5000    0.0000    0.0000 C   0  0  0  0  0  0  0  0  0  0  0  0
    9.0000    0.0000    0.0000 C   0  0  0  0  0  0  0  0  0  0  0  0
    7.5000    0.0000    0.0000 C   0  0  0  0  0  0  0  0  0  0  0  0
    6.0000    0.0000    0.0000 C   0  0  0  0  0  0  0  0  0  0  0  0
    4.5000    0.0000    0.0000 C   0  0  0  0  0  0  0  0  0  0  0  0
    3.0000    0.0000    0.0000 C   0  0  0  0  0  0  0  0  0  0  0  0
    1.5000    0.0000    0.0000 C   0  0  0  0  0  0  0  0  0  0  0  0
    0.7500   -1.2990    0.0000 C   0  0  0  0  0  0  0  0  0  0  0  0
   -0.7500   -1.2990    0.0000 C   0  0  0  0  0  0  0  0  0  0  0  0
   -1.5000    0.0000    0.0000 C   0  0  0  0  0  0  0  0  0  0  0  0
   -0.7500    1.2990    0.0000 C   0  0  0  0  0  0  0  0  0  0  0  0
   -1.5000    2.5981    0.0000 C   0  0  0  0  0  0  0  0  0  0  0  0
    0.7500    1.2990    0.0000 C   0  0  0  0  0  0  0  0  0  0  0  0
  1  2  3  0
  2  3  1  0
  3  4  3  0
  4  5  1  0
  5  6  3  0
  6  7  1  0
  7  8  3  0
  8  9  1  0
  9 10  2  0
 10 11  1  0
 11 12  2  0
 12 13  1  0
 13 14  1  0
 13 15  2  0
 15  9  1  0
M  END
>  <Title>  (230) 
idAAGXgen10

$$$$

     RDKit          2D

 10 10  0  0  0  0  0  0  0  0999 V2000
    3.0000    0.0000    0.0000 C   0  0  0  0  0  0  0  0  0  0  0  0
    1.5000    0.0000    0.0000 C   0  0  0  0  0  0  0  0  0  0  0  0
    0.7500   -1.2990    0.0000 C   0  0  0  0  0  0  0  0  0  0  0  0
   -0.7500   -1.2990    0.0000 C   0  0  0  0  0  0  0  0  0  0  0  0
   -1.5000   -2.5981    0.0000 C   0  0  0  0  0  0  0  0  0  0  0  0
   -1.5000    0.0000    0.0000 N   0  0  0  0  0  0  0  0  0  0  0  0
   -3.0000    0.0000    0.0000 C   0  0  0  0  0  0  0  0  0  0  0  0
   -0.7500    1.2990    0.0000 C   0  0  0  0  0  0  0  0  0  0  0  0
   -1.5000    2.5981    0.0000 O   0  0  0  0  0  0  0  0  0  0  0  0
    0.7500    1.2990    0.0000 N   0  0  0  0  0  0  0  0  0  0  0  0
  1  2  1  0
  2  3  2  0
  3  4  1  0
  4  5  1  0
  4  6  1  0
  6  7  1  0
  6  8  1  0
  8  9  2  0
  8 10  1  0
 10  2  1  0
M  END
>  <Title>  (231) 
idAAGYgen10

$$$$

     RDKit          2D

 88 88  0  0  0  0  0  0  0  0999 V2000
   22.0356    0.0000    0.0000 C   0  0  0  0  0  0  0  0  0  0  0  0
   20.5356    0.0000    0.0000 C   0  0  0  0  0  0  0  0  0  0  0  0
   20.4808   -1.4990    0.0000 C   0  0  0  0  0  0  0  0  0  0  0  0
   20.3167   -2.9900    0.0000 C   0  0  0  0  0  0  0  0  0  0  0  0
   20.0443   -4.4650    0.0000 C   0  0  0  0  0  0  0  0  0  0  0  0
   19.6649   -5.9163    0.0000 C   0  0  0  0  0  0  0  0  0  0  0  0
   19.1805   -7.3359    0.0000 C   0  0  0  0  0  0  0  0  0  0  0  0
   18.5939   -8.7165    0.0000 C   0  0  0  0  0  0  0  0  0  0  0  0
   17.9080  -10.0505    0.0000 C   0  0  0  0  0  0  0  0  0  0  0  0
   17.1266  -11.3309    0.0000 C   0  0  0  0  0  0  0  0  0  0  0  0
   16.2538  -12.5508    0.0000 C   0  0  0  0  0  0  0  0  0  0  0  0
   15.2943  -13.7038    0.0000 C   0  0  0  0  0  0  0  0  0  0  0  0
   14.2532  -14.7836    0.0000 C   0  0  0  0  0  0  0  0  0  0  0  0
   13.1360  -15.7846    0.0000 C   0  0  0  0  0  0  0  0  0  0  0  0
   11.9488  -16.7014    0.0000 C   0  0  0  0  0  0  0  0  0  0  0  0
   10.6978  -17.5290    0.0000 C   0  0  0  0  0  0  0  0  0  0  0  0
    9.3897  -18.2631    0.0000 C   0  0  0  0  0  0  0  0  0  0  0  0
    8.0316  -18.8998    0.0000 C   0  0  0  0  0  0  0  0  0  0  0  0
    6.6305  -19.4357    0.0000 C   0  0  0  0  0  0  0  0  0  0  0  0
    5.1941  -19.8678    0.0000 C   0  0  0  0  0  0  0  0  0  0  0  0
    3.7300  -20.1940    0.0000 C   0  0  0  0  0  0  0  0  0  0  0  0
    2.2460  -20.4124    0.0000 C   0  0  0  0  0  0  0  0  0  0  0  0
    0.7500  -20.5219    0.0000 C   0  0  0  0  0  0  0  0  0  0  0  0
   -0.7500  -20.5219    0.0000 C   0  0  0  0  0  0  0  0  0  0  0  0
   -2.2460  -20.4124    0.0000 C   0  0  0  0  0  0  0  0  0  0  0  0
   -3.7300  -20.1940    0.0000 C   0  0  0  0  0  0  0  0  0  0  0  0
   -5.1941  -19.8678    0.0000 C   0  0  0  0  0  0  0  0  0  0  0  0
   -6.6305  -19.4357    0.0000 C   0  0  0  0  0  0  0  0  0  0  0  0
   -8.0316  -18.8998    0.0000 C   0  0  0  0  0  0  0  0  0  0  0  0
   -9.3897  -18.2631    0.0000 C   0  0  0  0  0  0  0  0  0  0  0  0
  -10.6978  -17.5290    0.0000 C   0  0  0  0  0  0  0  0  0  0  0  0
  -11.9488  -16.7014    0.0000 C   0  0  0  0  0  0  0  0  0  0  0  0
  -13.1360  -15.7846    0.0000 C   0  0  0  0  0  0  0  0  0  0  0  0
  -14.2532  -14.7836    0.0000 C   0  0  0  0  0  0  0  0  0  0  0  0
  -15.2943  -13.7038    0.0000 C   0  0  0  0  0  0  0  0  0  0  0  0
  -16.2538  -12.5508    0.0000 C   0  0  0  0  0  0  0  0  0  0  0  0
  -17.1266  -11.3309    0.0000 C   0  0  0  0  0  0  0  0  0  0  0  0
  -17.9080  -10.0505    0.0000 C   0  0  0  0  0  0  0  0  0  0  0  0
  -18.5939   -8.7165    0.0000 C   0  0  0  0  0  0  0  0  0  0  0  0
  -19.1805   -7.3359    0.0000 C   0  0  0  0  0  0  0  0  0  0  0  0
  -19.6649   -5.9163    0.0000 C   0  0  0  0  0  0  0  0  0  0  0  0
  -20.0443   -4.4650    0.0000 C   0  0  0  0  0  0  0  0  0  0  0  0
  -20.3167   -2.9900    0.0000 C   0  0  0  0  0  0  0  0  0  0  0  0
  -20.4808   -1.4990    0.0000 C   0  0  0  0  0  0  0  0  0  0  0  0
  -20.5356    0.0000    0.0000 C   0  0  0  0  0  0  0  0  0  0  0  0
  -20.4808    1.4990    0.0000 C   0  0  0  0  0  0  0  0  0  0  0  0
  -20.3167    2.9900    0.0000 C   0  0  0  0  0  0  0  0  0  0  0  0
  -20.0443    4.4650    0.0000 C   0  0  0  0  0  0  0  0  0  0  0  0
  -19.6649    5.9163    0.0000 C   0  0  0  0  0  0  0  0  0  0  0  0
  -19.1805    7.3359    0.0000 C   0  0  0  0  0  0  0  0  0  0  0  0
  -18.5939    8.7165    0.0000 C   0  0  0  0  0  0  0  0  0  0  0  0
  -17.9080   10.0505    0.0000 C   0  0  0  0  0  0  0  0  0  0  0  0
  -17.1266   11.3309    0.0000 C   0  0  0  0  0  0  0  0  0  0  0  0
  -16.2538   12.5508    0.0000 C   0  0  0  0  0  0  0  0  0  0  0  0
  -15.2943   13.7038    0.0000 C   0  0  0  0  0  0  0  0  0  0  0  0
  -14.2532   14.7836    0.0000 C   0  0  0  0  0  0  0  0  0  0  0  0
  -13.1360   15.7846    0.0000 C   0  0  0  0  0  0  0  0  0  0  0  0
  -11.9488   16.7014    0.0000 C   0  0  0  0  0  0  0  0  0  0  0  0
  -10.6978   17.5290    0.0000 C   0  0  0  0  0  0  0  0  0  0  0  0
   -9.3897   18.2631    0.0000 C   0  0  0  0  0  0  0  0  0  0  0  0
   -8.0316   18.8998    0.0000 C   0  0  0  0  0  0  0  0  0  0  0  0
   -6.6305   19.4357    0.0000 C   0  0  0  0  0  0  0  0  0  0  0  0
   -5.1941   19.8678    0.0000 C   0  0  0  0  0  0  0  0  0  0  0  0
   -3.7300   20.1940    0.0000 C   0  0  0  0  0  0  0  0  0  0  0  0
   -2.2460   20.4124    0.0000 C   0  0  0  0  0  0  0  0  0  0  0  0
   -0.7500   20.5219    0.0000 C   0  0  0  0  0  0  0  0  0  0  0  0
    0.7500   20.5219    0.0000 C   0  0  0  0  0  0  0  0  0  0  0  0
    2.2460   20.4124    0.0000 C   0  0  0  0  0  0  0  0  0  0  0  0
    3.7300   20.1940    0.0000 C   0  0  0  0  0  0  0  0  0  0  0  0
    5.1941   19.8678    0.0000 C   0  0  0  0  0  0  0  0  0  0  0  0
    6.6305   19.4357    0.0000 C   0  0  0  0  0  0  0  0  0  0  0  0
    8.0316   18.8998    0.0000 C   0  0  0  0  0  0  0  0  0  0  0  0
    9.3897   18.2631    0.0000 C   0  0  0  0  0  0  0  0  0  0  0  0
   10.6978   17.5290    0.0000 C   0  0  0  0  0  0  0  0  0  0  0  0
   11.9488   16.7014    0.0000 C   0  0  0  0  0  0  0  0  0  0  0  0
   13.1360   15.7846    0.0000 C   0  0  0  0  0  0  0  0  0  0  0  0
   14.2532   14.7836    0.0000 C   0  0  0  0  0  0  0  0  0  0  0  0
   15.2943   13.7038    0.0000 C   0  0  0  0  0  0  0  0  0  0  0  0
   16.2538   12.5508    0.0000 C   0  0  0  0  0  0  0  0  0  0  0  0
   17.1266   11.3309    0.0000 C   0  0  0  0  0  0  0  0  0  0  0  0
   17.9080   10.0505    0.0000 C   0  0  0  0  0  0  0  0  0  0  0  0
   18.5939    8.7165    0.0000 C   0  0  0  0  0  0  0  0  0  0  0  0
   19.1805    7.3359    0.0000 C   0  0  0  0  0  0  0  0  0  0  0  0
   19.6649    5.9163    0.0000 C   0  0  0  0  0  0  0  0  0  0  0  0
   20.0443    4.4650    0.0000 C   0  0  0  0  0  0  0  0  0  0  0  0
   20.3167    2.9900    0.0000 C   0  0  0  0  0  0  0  0  0  0  0  0
   20.4808    1.4990    0.0000 C   0  0  0  0  0  0  0  0  0  0  0  0
   21.9768    1.6085    0.0000 C   0  0  0  0  0  0  0  0  0  0  0  0
  1  2  1  0
  2  3  2  0
  3  4  1  0
  4  5  2  0
  5  6  1  0
  6  7  2  0
  7  8  1  0
  8  9  2  0
  9 10  1  0
 10 11  2  0
 11 12  1  0
 12 13  2  0
 13 14  1  0
 14 15  2  0
 15 16  1  0
 16 17  1  0
 17 18  1  0
 18 19  1  0
 19 20  1  0
 20 21  1  0
 21 22  1  0
 22 23  1  0
 23 24  1  0
 24 25  1  0
 25 26  1  0
 26 27  1  0
 27 28  1  0
 28 29  1  0
 29 30  1  0
 30 31  1  0
 31 32  1  0
 32 33  1  0
 33 34  1  0
 34 35  1  0
 35 36  1  0
 36 37  1  0
 37 38  1  0
 38 39  1  0
 39 40  1  0
 40 41  1  0
 41 42  1  0
 42 43  1  0
 43 44  1  0
 44 45  1  0
 45 46  1  0
 46 47  1  0
 47 48  1  0
 48 49  1  0
 49 50  1  0
 50 51  1  0
 51 52  1  0
 52 53  1  0
 53 54  1  0
 54 55  1  0
 55 56  1  0
 56 57  1  0
 57 58  1  0
 58 59  1  0
 59 60  1  0
 60 61  1  0
 61 62  1  0
 62 63  1  0
 63 64  1  0
 64 65  1  0
 65 66  1  0
 66 67  1  0
 67 68  1  0
 68 69  1  0
 69 70  1  0
 70 71  1  0
 71 72  1  0
 72 73  1  0
 73 74  1  0
 74 75  1  0
 75 76  1  0
 76 77  1  0
 77 78  1  0
 78 79  1  0
 79 80  1  0
 80 81  1  0
 81 82  1  0
 82 83  1  0
 83 84  1  0
 84 85  1  0
 85 86  1  0
 86 87  1  0
 87 88  1  0
 87  2  1  0
M  END
>  <Title>  (232) 
idAAGZgen10

$$$$

     RDKit          2D

 12 13  0  0  0  0  0  0  0  0999 V2000
    1.5000    0.0000    0.0000 C   0  0  0  0  0  0  0  0  0  0  0  0
    0.7500   -1.2990    0.0000 C   0  0  0  0  0  0  0  0  0  0  0  0
   -0.7500   -1.2990    0.0000 C   0  0  0  0  0  0  0  0  0  0  0  0
   -1.5000    0.0000    0.0000 C   0  0  0  0  0  0  0  0  0  0  0  0
   -3.0000    0.0000    0.0000 C   0  0  0  0  0  0  0  0  0  0  0  0
   -3.7500    1.2990    0.0000 C   0  0  0  0  0  0  0  0  0  0  0  0
   -5.2500    1.2990    0.0000 C   0  0  0  0  0  0  0  0  0  0  0  0
   -6.0000    0.0000    0.0000 C   0  0  0  0  0  0  0  0  0  0  0  0
   -5.2500   -1.2990    0.0000 C   0  0  0  0  0  0  0  0  0  0  0  0
   -3.7500   -1.2990    0.0000 C   0  0  0  0  0  0  0  0  0  0  0  0
   -0.7500    1.2990    0.0000 N   0  0  0  0  0  0  0  0  0  0  0  0
    0.7500    1.2990    0.0000 C   0  0  0  0  0  0  0  0  0  0  0  0
  1  2  2  0
  2  3  1  0
  3  4  2  0
  4  5  1  0
  5  6  1  0
  6  7  1  0
  7  8  1  0
  8  9  1  0
  9 10  1  0
  4 11  1  0
 11 12  2  0
 12  1  1  0
 10  5  1  0
M  END
>  <Title>  (233) 
idAAHAgen10

$$$$

     RDKit          2D

 12 12  0  0  0  0  0  0  0  0999 V2000
    7.2760   -0.0000    0.0000 C   0  0  0  0  0  0  0  0  0  0  0  0
    5.7760   -0.0000    0.0000 C   0  0  0  0  0  0  0  0  0  0  0  0
    4.2760   -0.0000    0.0000 C   0  0  0  0  0  0  0  0  0  0  0  0
    2.7760    0.0000    0.0000 C   0  0  0  0  0  0  0  0  0  0  0  0
    1.2760    0.0000    0.0000 C   0  0  0  0  0  0  0  0  0  0  0  0
    0.3943    1.2135    0.0000 C   0  0  0  0  0  0  0  0  0  0  0  0
   -1.0323    0.7500    0.0000 C   0  0  0  0  0  0  0  0  0  0  0  0
   -2.2458    1.6317    0.0000 C   0  0  0  0  0  0  0  0  0  0  0  0
   -1.0323   -0.7500    0.0000 C   0  0  0  0  0  0  0  0  0  0  0  0
   -1.3442   -2.2172    0.0000 C   0  0  0  0  0  0  0  0  0  0  0  0
   -2.5241   -0.5932    0.0000 C   0  0  0  0  0  0  0  0  0  0  0  0
    0.3943   -1.2135    0.0000 C   0  0  0  0  0  0  0  0  0  0  0  0
  1  2  3  0
  2  3  1  0
  3  4  3  0
  4  5  1  0
  5  6  2  0
  6  7  1  0
  7  8  1  0
  7  9  1  0
  9 10  1  0
  9 11  1  0
  9 12  1  0
 12  5  1  0
M  END
>  <Title>  (234) 
idAAHBgen10

$$$$

     RDKit          2D

  6  6  0  0  0  0  0  0  0  0999 V2000
    1.5000    0.0000    0.0000 C   0  0  0  0  0  0  0  0  0  0  0  0
    0.7500   -1.2990    0.0000 C   0  0  0  0  0  0  0  0  0  0  0  0
   -0.7500   -1.2990    0.0000 C   0  0  0  0  0  0  0  0  0  0  0  0
   -1.5000    0.0000    0.0000 N   0  0  0  0  0  0  0  0  0  0  0  0
   -0.7500    1.2990    0.0000 C   0  0  0  0  0  0  0  0  0  0  0  0
    0.7500    1.2990    0.0000 C   0  0  0  0  0  0  0  0  0  0  0  0
  1  2  2  0
  2  3  1  0
  3  4  2  0
  4  5  1  0
  5  6  2  0
  6  1  1  0
M  END
>  <Title>  (235) 
idAAHCgen10

$$$$

     RDKit          2D

 10 10  0  0  0  0  0  0  0  0999 V2000
    5.0260   -1.2990    0.0000 C   0  0  0  0  0  0  0  0  0  0  0  0
    3.5260   -1.2990    0.0000 C   0  0  0  0  0  0  0  0  0  0  0  0
    2.7760   -2.5981    0.0000 C   0  0  0  0  0  0  0  0  0  0  0  0
    3.5260   -3.8971    0.0000 O   0  0  0  0  0  0  0  0  0  0  0  0
    2.7760    0.0000    0.0000 N   0  0  0  0  0  0  0  0  0  0  0  0
    1.2760    0.0000    0.0000 C   0  0  0  0  0  0  0  0  0  0  0  0
    0.3943    1.2135    0.0000 C   0  0  0  0  0  0  0  0  0  0  0  0
   -1.0323    0.7500    0.0000 C   0  0  0  0  0  0  0  0  0  0  0  0
   -1.0323   -0.7500    0.0000 C   0  0  0  0  0  0  0  0  0  0  0  0
    0.3943   -1.2135    0.0000 C   0  0  0  0  0  0  0  0  0  0  0  0
  1  2  1  0
  2  3  1  0
  3  4  1  0
  2  5  1  0
  5  6  1  0
  6  7  2  0
  7  8  1  0
  8  9  1  0
  9 10  2  0
 10  6  1  0
M  END
>  <Title>  (236) 
idAAHDgen10

$$$$

     RDKit          2D

 12 12  0  0  0  0  0  0  0  0999 V2000
    3.5260   -1.2990    0.0000 C   0  0  0  0  0  0  0  0  0  0  0  0
    2.7760    0.0000    0.0000 C   0  0  0  0  0  0  0  0  0  0  0  0
    1.2760    0.0000    0.0000 C   0  0  0  0  0  0  0  0  0  0  0  0
    0.3943    1.2135    0.0000 C   0  0  0  0  0  0  0  0  0  0  0  0
   -1.0323    0.7500    0.0000 C   0  0  0  0  0  0  0  0  0  0  0  0
   -1.0323   -0.7500    0.0000 C   0  0  0  0  0  0  0  0  0  0  0  0
    0.3943   -1.2135    0.0000 C   0  0  0  0  0  0  0  0  0  0  0  0
    0.8578   -2.6401    0.0000 C   0  0  0  0  0  0  0  0  0  0  0  0
    2.3250   -2.9520    0.0000 O   0  0  0  0  0  0  0  0  0  0  0  0
   -0.1459   -3.7548    0.0000 O   0  0  0  0  0  0  0  0  0  0  0  0
    0.3177   -5.1814    0.0000 C   0  0  0  0  0  0  0  0  0  0  0  0
   -0.6860   -6.2961    0.0000 C   0  0  0  0  0  0  0  0  0  0  0  0
  1  2  2  0
  2  3  1  0
  3  4  2  0
  4  5  1  0
  5  6  1  0
  6  7  2  0
  7  8  1  0
  8  9  2  0
  8 10  1  0
 10 11  1  0
 11 12  1  0
  7  3  1  0
M  END
>  <Title>  (237) 
idAAHEgen10

$$$$

     RDKit          2D

 23 25  0  0  0  0  0  0  0  0999 V2000
    3.2286   -0.0000    0.0000 C   0  0  0  0  0  0  0  0  0  0  0  0
    1.7286    0.0000    0.0000 C   0  0  0  0  0  0  0  0  0  0  0  0
    1.0777    1.3515    0.0000 C   0  0  0  0  0  0  0  0  0  0  0  0
   -0.3846    1.6852    0.0000 C   0  0  0  0  0  0  0  0  0  0  0  0
   -1.5574    0.7500    0.0000 C   0  0  0  0  0  0  0  0  0  0  0  0
   -2.9088    1.4008    0.0000 C   0  0  0  0  0  0  0  0  0  0  0  0
   -4.1482    0.5558    0.0000 O   0  0  0  0  0  0  0  0  0  0  0  0
   -3.0209    2.8966    0.0000 N   0  0  0  0  0  0  0  0  0  0  0  0
   -4.3724    3.5475    0.0000 C   0  0  0  0  0  0  0  0  0  0  0  0
   -4.4845    5.0433    0.0000 N   0  0  0  0  0  0  0  0  0  0  0  0
   -5.8359    5.6941    0.0000 N   0  0  0  0  0  0  0  0  0  0  0  0
   -7.0753    4.8491    0.0000 N   0  0  0  0  0  0  0  0  0  0  0  0
   -6.9632    3.3533    0.0000 N   0  0  0  0  0  0  0  0  0  0  0  0
   -5.6118    2.7025    0.0000 N   0  0  0  0  0  0  0  0  0  0  0  0
   -1.5574   -0.7500    0.0000 C   0  0  0  0  0  0  0  0  0  0  0  0
   -0.3846   -1.6852    0.0000 C   0  0  0  0  0  0  0  0  0  0  0  0
    1.0777   -1.3515    0.0000 C   0  0  0  0  0  0  0  0  0  0  0  0
    2.0130   -2.5242    0.0000 C   0  0  0  0  0  0  0  0  0  0  0  0
    1.4650   -3.9205    0.0000 C   0  0  0  0  0  0  0  0  0  0  0  0
    2.4002   -5.0933    0.0000 C   0  0  0  0  0  0  0  0  0  0  0  0
    3.8835   -4.8697    0.0000 C   0  0  0  0  0  0  0  0  0  0  0  0
    4.4315   -3.4734    0.0000 C   0  0  0  0  0  0  0  0  0  0  0  0
    3.4962   -2.3006    0.0000 C   0  0  0  0  0  0  0  0  0  0  0  0
  1  2  1  0
  2  3  1  0
  3  4  2  0
  4  5  1  0
  5  6  1  0
  6  7  2  0
  6  8  1  0
  8  9  1  0
  9 10  2  0
 10 11  1  0
 11 12  2  0
 12 13  1  0
 13 14  2  0
  5 15  2  0
 15 16  1  0
 16 17  2  0
 17 18  1  0
 18 19  2  0
 19 20  1  0
 20 21  2  0
 21 22  1  0
 22 23  2  0
 17  2  1  0
 23 18  1  0
 14  9  1  0
M  END
>  <Title>  (238) 
idAAHFgen10

$$$$

     RDKit          2D

  8  8  0  0  0  0  0  0  0  0999 V2000
    3.2286   -0.0000    0.0000 C   0  0  0  0  0  0  0  0  0  0  0  0
    1.7286    0.0000    0.0000 C   0  0  0  0  0  0  0  0  0  0  0  0
    1.0777    1.3515    0.0000 C   0  0  0  0  0  0  0  0  0  0  0  0
   -0.3846    1.6852    0.0000 C   0  0  0  0  0  0  0  0  0  0  0  0
   -1.5574    0.7500    0.0000 C   0  0  0  0  0  0  0  0  0  0  0  0
   -1.5574   -0.7500    0.0000 C   0  0  0  0  0  0  0  0  0  0  0  0
   -0.3846   -1.6852    0.0000 C   0  0  0  0  0  0  0  0  0  0  0  0
    1.0777   -1.3515    0.0000 C   0  0  0  0  0  0  0  0  0  0  0  0
  1  2  1  0
  2  3  1  0
  3  4  1  0
  4  5  1  0
  5  6  1  0
  6  7  1  0
  7  8  1  0
  8  2  1  0
M  END
>  <Title>  (239) 
idAAHGgen10

$$$$

     RDKit          2D

 11 11  0  0  0  0  0  0  0  0999 V2000
    6.0000    2.5981    0.0000 C   0  0  0  0  0  0  0  0  0  0  0  0
    5.2500    1.2990    0.0000 C   0  0  0  0  0  0  0  0  0  0  0  0
    3.7500    1.2990    0.0000 C   0  0  0  0  0  0  0  0  0  0  0  0
    3.0000    0.0000    0.0000 N   0  0  0  0  0  0  0  0  0  0  0  0
    3.7500   -1.2990    0.0000 C   0  0  0  0  0  0  0  0  0  0  0  0
    1.5000    0.0000    0.0000 C   0  0  0  0  0  0  0  0  0  0  0  0
    0.7500   -1.2990    0.0000 C   0  0  0  0  0  0  0  0  0  0  0  0
   -0.7500   -1.2990    0.0000 C   0  0  0  0  0  0  0  0  0  0  0  0
   -1.5000    0.0000    0.0000 C   0  0  0  0  0  0  0  0  0  0  0  0
   -0.7500    1.2990    0.0000 C   0  0  0  0  0  0  0  0  0  0  0  0
    0.7500    1.2990    0.0000 C   0  0  0  0  0  0  0  0  0  0  0  0
  1  2  2  0
  2  3  1  0
  3  4  1  0
  4  5  1  0
  4  6  1  0
  6  7  2  0
  7  8  1  0
  8  9  2  0
  9 10  1  0
 10 11  2  0
 11  6  1  0
M  END
>  <Title>  (240) 
idAAHHgen10

$$$$

     RDKit          2D

 10 10  0  0  0  0  0  0  0  0999 V2000
    5.2500   -1.2990    0.0000 C   0  0  0  0  0  0  0  0  0  0  0  0
    3.7500   -1.2990    0.0000 C   0  0  0  0  0  0  0  0  0  0  0  0
    3.0000    0.0000    0.0000 C   0  0  0  0  0  0  0  0  0  0  0  0
    3.7500    1.2990    0.0000 O   0  0  0  0  0  0  0  0  0  0  0  0
    1.5000    0.0000    0.0000 C   0  0  0  0  0  0  0  0  0  0  0  0
    0.7500   -1.2990    0.0000 C   0  0  0  0  0  0  0  0  0  0  0  0
   -0.7500   -1.2990    0.0000 C   0  0  0  0  0  0  0  0  0  0  0  0
   -1.5000    0.0000    0.0000 C   0  0  0  0  0  0  0  0  0  0  0  0
   -0.7500    1.2990    0.0000 C   0  0  0  0  0  0  0  0  0  0  0  0
    0.7500    1.2990    0.0000 C   0  0  0  0  0  0  0  0  0  0  0  0
  1  2  2  0
  2  3  1  0
  3  4  2  0
  3  5  1  0
  5  6  2  0
  6  7  1  0
  7  8  2  0
  8  9  1  0
  9 10  2  0
 10  5  1  0
M  END
>  <Title>  (241) 
idAAHIgen10

$$$$

     RDKit          2D

  9  9  0  0  0  0  0  0  0  0999 V2000
    4.5000   -2.5981    0.0000 C   0  0  0  0  0  0  0  0  0  0  0  0
    3.7500   -1.2990    0.0000 C   0  0  0  0  0  0  0  0  0  0  0  0
    3.0000    0.0000    0.0000 C   0  0  0  0  0  0  0  0  0  0  0  0
    1.5000    0.0000    0.0000 C   0  0  0  0  0  0  0  0  0  0  0  0
    0.7500   -1.2990    0.0000 C   0  0  0  0  0  0  0  0  0  0  0  0
   -0.7500   -1.2990    0.0000 C   0  0  0  0  0  0  0  0  0  0  0  0
   -1.5000    0.0000    0.0000 C   0  0  0  0  0  0  0  0  0  0  0  0
   -0.7500    1.2990    0.0000 C   0  0  0  0  0  0  0  0  0  0  0  0
    0.7500    1.2990    0.0000 N   0  0  0  0  0  0  0  0  0  0  0  0
  1  2  3  0
  2  3  1  0
  3  4  1  0
  4  5  2  0
  5  6  1  0
  6  7  2  0
  7  8  1  0
  8  9  2  0
  9  4  1  0
M  END
>  <Title>  (242) 
idAAHJgen10

$$$$

     RDKit          2D

 18 19  0  0  0  0  0  0  0  0999 V2000
    4.5000    0.0000    0.0000 C   0  0  0  0  0  0  0  0  0  0  0  0
    3.0000    0.0000    0.0000 C   0  0  0  0  0  0  0  0  0  0  0  0
    1.5000    0.0000    0.0000 C   0  0  0  0  0  0  0  0  0  0  0  0
    0.7500   -1.2990    0.0000 C   0  0  0  0  0  0  0  0  0  0  0  0
   -0.7500   -1.2990    0.0000 C   0  0  0  0  0  0  0  0  0  0  0  0
   -1.5000   -2.5981    0.0000 C   0  0  0  0  0  0  0  0  0  0  0  0
   -1.5000    0.0000    0.0000 C   0  0  0  0  0  0  0  0  0  0  0  0
   -0.7500    1.2990    0.0000 C   0  0  0  0  0  0  0  0  0  0  0  0
    0.7500    1.2990    0.0000 C   0  0  0  0  0  0  0  0  0  0  0  0
    1.5000    2.5981    0.0000 C   0  0  0  0  0  0  0  0  0  0  0  0
    3.0000    2.5981    0.0000 O   0  0  0  0  0  0  0  0  0  0  0  0
    0.7500    3.8971    0.0000 N   0  0  0  0  0  0  0  0  0  0  0  0
    1.5000    5.1962    0.0000 C   0  0  0  0  0  0  0  0  0  0  0  0
    3.0000    5.1962    0.0000 N   0  0  0  0  0  0  0  0  0  0  0  0
    3.7500    6.4952    0.0000 N   0  0  0  0  0  0  0  0  0  0  0  0
    3.0000    7.7942    0.0000 N   0  0  0  0  0  0  0  0  0  0  0  0
    1.5000    7.7942    0.0000 N   0  0  0  0  0  0  0  0  0  0  0  0
    0.7500    6.4952    0.0000 N   0  0  0  0  0  0  0  0  0  0  0  0
  1  2  3  0
  2  3  1  0
  3  4  2  0
  4  5  1  0
  5  6  1  0
  5  7  2  0
  7  8  1  0
  8  9  2  0
  9 10  1  0
 10 11  2  0
 10 12  1  0
 12 13  1  0
 13 14  2  0
 14 15  1  0
 15 16  2  0
 16 17  1  0
 17 18  2  0
  9  3  1  0
 18 13  1  0
M  END
>  <Title>  (243) 
idAAHKgen10

$$$$

     RDKit          2D

 12 13  0  0  0  0  0  0  0  0999 V2000
    4.2760    0.0000    0.0000 C   0  0  0  0  0  0  0  0  0  0  0  0
    2.7760    0.0000    0.0000 C   0  0  0  0  0  0  0  0  0  0  0  0
    1.2760    0.0000    0.0000 C   0  0  0  0  0  0  0  0  0  0  0  0
    0.3943    1.2135    0.0000 C   0  0  0  0  0  0  0  0  0  0  0  0
   -1.0323    0.7500    0.0000 C   0  0  0  0  0  0  0  0  0  0  0  0
   -1.0323   -0.7500    0.0000 C   0  0  0  0  0  0  0  0  0  0  0  0
    0.3943   -1.2135    0.0000 C   0  0  0  0  0  0  0  0  0  0  0  0
    0.8578   -2.6401    0.0000 C   0  0  0  0  0  0  0  0  0  0  0  0
    2.2844   -3.1036    0.0000 C   0  0  0  0  0  0  0  0  0  0  0  0
    2.2844   -4.6036    0.0000 C   0  0  0  0  0  0  0  0  0  0  0  0
    0.8578   -5.0672    0.0000 C   0  0  0  0  0  0  0  0  0  0  0  0
   -0.0239   -3.8536    0.0000 C   0  0  0  0  0  0  0  0  0  0  0  0
  1  2  3  0
  2  3  1  0
  3  4  1  0
  4  5  1  0
  5  6  1  0
  6  7  1  0
  7  8  1  0
  8  9  2  0
  9 10  1  0
 10 11  2  0
 11 12  1  0
  7  3  1  0
 12  8  1  0
M  END
>  <Title>  (244) 
idAAHLgen10

$$$$

     RDKit          2D

 13 14  0  0  0  0  0  0  0  0999 V2000
    3.0000    0.0000    0.0000 C   0  0  0  0  0  0  0  0  0  0  0  0
    1.5000    0.0000    0.0000 C   0  0  0  0  0  0  0  0  0  0  0  0
    0.7500   -1.2990    0.0000 C   0  0  0  0  0  0  0  0  0  0  0  0
   -0.7500   -1.2990    0.0000 C   0  0  0  0  0  0  0  0  0  0  0  0
   -1.5000   -2.5981    0.0000 C   0  0  0  0  0  0  0  0  0  0  0  0
   -3.0000   -2.5981    0.0000 C   0  0  0  0  0  0  0  0  0  0  0  0
   -3.7500   -3.8971    0.0000 C   0  0  0  0  0  0  0  0  0  0  0  0
   -3.0000   -5.1962    0.0000 C   0  0  0  0  0  0  0  0  0  0  0  0
   -1.5000   -5.1962    0.0000 C   0  0  0  0  0  0  0  0  0  0  0  0
   -0.7500   -3.8971    0.0000 C   0  0  0  0  0  0  0  0  0  0  0  0
   -1.5000    0.0000    0.0000 C   0  0  0  0  0  0  0  0  0  0  0  0
   -0.7500    1.2990    0.0000 C   0  0  0  0  0  0  0  0  0  0  0  0
    0.7500    1.2990    0.0000 C   0  0  0  0  0  0  0  0  0  0  0  0
  1  2  1  0
  2  3  2  0
  3  4  1  0
  4  5  1  0
  5  6  2  0
  6  7  1  0
  7  8  2  0
  8  9  1  0
  9 10  2  0
  4 11  1  0
 11 12  1  0
 12 13  2  0
 13  2  1  0
 10  5  1  0
M  END
>  <Title>  (245) 
idAAHMgen10

$$$$

     RDKit          2D

 31 34  0  0  0  0  0  0  0  0999 V2000
   -4.5391    1.1163    0.0000 C   0  0  0  0  0  0  0  0  0  0  0  0
   -5.0521   -0.2932    0.0000 C   0  0  0  0  0  0  0  0  0  0  0  0
   -5.5651   -1.7028    0.0000 C   0  0  0  0  0  0  0  0  0  0  0  0
   -6.0781   -3.1123    0.0000 C   0  0  0  0  0  0  0  0  0  0  0  0
   -6.5912   -4.5218    0.0000 C   0  0  0  0  0  0  0  0  0  0  0  0
   -8.0684   -4.7823    0.0000 C   0  0  0  0  0  0  0  0  0  0  0  0
   -8.5814   -6.1919    0.0000 C   0  0  0  0  0  0  0  0  0  0  0  0
   -7.6172   -7.3409    0.0000 C   0  0  0  0  0  0  0  0  0  0  0  0
   -6.1400   -7.0805    0.0000 C   0  0  0  0  0  0  0  0  0  0  0  0
   -5.6270   -5.6709    0.0000 C   0  0  0  0  0  0  0  0  0  0  0  0
   -4.1498   -5.4104    0.0000 C   0  0  0  0  0  0  0  0  0  0  0  0
   -3.1856   -6.5595    0.0000 O   0  0  0  0  0  0  0  0  0  0  0  0
   -3.6368   -4.0009    0.0000 N   0  0  0  0  0  0  0  0  0  0  0  0
   -2.1595   -3.7404    0.0000 C   0  0  0  0  0  0  0  0  0  0  0  0
   -1.4095   -5.0395    0.0000 N   0  0  0  0  0  0  0  0  0  0  0  0
   -0.0000   -5.5525    0.0000 N   0  0  0  0  0  0  0  0  0  0  0  0
    1.4095   -5.0395    0.0000 N   0  0  0  0  0  0  0  0  0  0  0  0
    2.1595   -3.7404    0.0000 N   0  0  0  0  0  0  0  0  0  0  0  0
    1.8991   -2.2632    0.0000 C   0  0  0  0  0  0  0  0  0  0  0  0
    3.3763   -2.0027    0.0000 C   0  0  0  0  0  0  0  0  0  0  0  0
    3.6368   -3.4800    0.0000 C   0  0  0  0  0  0  0  0  0  0  0  0
    4.8655   -4.3403    0.0000 C   0  0  0  0  0  0  0  0  0  0  0  0
    6.0942   -5.2007    0.0000 C   0  0  0  0  0  0  0  0  0  0  0  0
    0.7500   -1.2990    0.0000 C   0  0  0  0  0  0  0  0  0  0  0  0
    1.5000    0.0000    0.0000 C   0  0  0  0  0  0  0  0  0  0  0  0
    0.7500    1.2990    0.0000 C   0  0  0  0  0  0  0  0  0  0  0  0
   -0.7500    1.2990    0.0000 C   0  0  0  0  0  0  0  0  0  0  0  0
   -1.5000    0.0000    0.0000 C   0  0  0  0  0  0  0  0  0  0  0  0
   -0.7500   -1.2990    0.0000 C   0  0  0  0  0  0  0  0  0  0  0  0
   -1.8991   -2.2632    0.0000 C   0  0  0  0  0  0  0  0  0  0  0  0
   -3.1981   -1.5132    0.0000 O   0  0  0  0  0  0  0  0  0  0  0  0
  1  2  3  0
  2  3  1  0
  3  4  3  0
  4  5  1  0
  5  6  2  0
  6  7  1  0
  7  8  2  0
  8  9  1  0
  9 10  2  0
 10 11  1  0
 11 12  2  0
 11 13  1  0
 13 14  1  0
 14 15  2  0
 15 16  1  0
 16 17  2  0
 17 18  1  0
 18 19  1  0
 19 20  2  0
 20 21  1  0
 21 22  1  0
 22 23  3  0
 19 24  1  0
 24 25  2  0
 25 26  1  0
 26 27  2  0
 27 28  1  0
 28 29  2  0
 29 30  1  0
 30 31  2  0
 10  5  1  0
 30 14  1  0
 21 18  1  0
 29 24  1  0
M  END
>  <Title>  (246) 
idAAHNgen10

$$$$

     RDKit          2D

 96 98  0  0  0  0  0  0  0  0999 V2000
   -2.4065    0.0854    0.0000 C   0  0  0  0  0  0  0  0  0  0  0  0
   -2.2462   -1.4060    0.0000 C   0  0  0  0  0  0  0  0  0  0  0  0
   -3.7309   -1.6195    0.0000 C   0  0  0  0  0  0  0  0  0  0  0  0
   -5.1966   -1.9384    0.0000 C   0  0  0  0  0  0  0  0  0  0  0  0
   -6.6359   -2.3610    0.0000 C   0  0  0  0  0  0  0  0  0  0  0  0
   -8.0413   -2.8852    0.0000 C   0  0  0  0  0  0  0  0  0  0  0  0
   -9.4057   -3.5083    0.0000 C   0  0  0  0  0  0  0  0  0  0  0  0
  -10.7223   -4.2272    0.0000 C   0  0  0  0  0  0  0  0  0  0  0  0
  -11.9841   -5.0381    0.0000 C   0  0  0  0  0  0  0  0  0  0  0  0
  -13.1850   -5.9370    0.0000 C   0  0  0  0  0  0  0  0  0  0  0  0
  -14.3186   -6.9193    0.0000 C   0  0  0  0  0  0  0  0  0  0  0  0
  -15.3792   -7.9800    0.0000 C   0  0  0  0  0  0  0  0  0  0  0  0
  -16.3615   -9.1136    0.0000 C   0  0  0  0  0  0  0  0  0  0  0  0
  -17.2604  -10.3144    0.0000 C   0  0  0  0  0  0  0  0  0  0  0  0
  -18.0714  -11.5763    0.0000 C   0  0  0  0  0  0  0  0  0  0  0  0
  -18.7903  -12.8928    0.0000 C   0  0  0  0  0  0  0  0  0  0  0  0
  -19.4134  -14.2573    0.0000 C   0  0  0  0  0  0  0  0  0  0  0  0
  -19.9376  -15.6627    0.0000 C   0  0  0  0  0  0  0  0  0  0  0  0
  -20.3602  -17.1019    0.0000 C   0  0  0  0  0  0  0  0  0  0  0  0
  -20.6790  -18.5677    0.0000 C   0  0  0  0  0  0  0  0  0  0  0  0
  -20.8925  -20.0524    0.0000 C   0  0  0  0  0  0  0  0  0  0  0  0
  -20.9995  -21.5486    0.0000 C   0  0  0  0  0  0  0  0  0  0  0  0
  -20.9995  -23.0486    0.0000 C   0  0  0  0  0  0  0  0  0  0  0  0
  -20.8925  -24.5447    0.0000 C   0  0  0  0  0  0  0  0  0  0  0  0
  -20.6790  -26.0295    0.0000 C   0  0  0  0  0  0  0  0  0  0  0  0
  -20.3602  -27.4952    0.0000 C   0  0  0  0  0  0  0  0  0  0  0  0
  -19.9376  -28.9344    0.0000 C   0  0  0  0  0  0  0  0  0  0  0  0
  -19.4134  -30.3399    0.0000 C   0  0  0  0  0  0  0  0  0  0  0  0
  -18.7903  -31.7043    0.0000 C   0  0  0  0  0  0  0  0  0  0  0  0
  -18.0714  -33.0208    0.0000 C   0  0  0  0  0  0  0  0  0  0  0  0
  -17.2604  -34.2827    0.0000 C   0  0  0  0  0  0  0  0  0  0  0  0
  -16.3615  -35.4835    0.0000 C   0  0  0  0  0  0  0  0  0  0  0  0
  -15.3792  -36.6171    0.0000 C   0  0  0  0  0  0  0  0  0  0  0  0
  -14.3186  -37.6778    0.0000 C   0  0  0  0  0  0  0  0  0  0  0  0
  -13.1850  -38.6601    0.0000 C   0  0  0  0  0  0  0  0  0  0  0  0
  -11.9841  -39.5590    0.0000 C   0  0  0  0  0  0  0  0  0  0  0  0
  -10.7223  -40.3700    0.0000 C   0  0  0  0  0  0  0  0  0  0  0  0
   -9.4057  -41.0888    0.0000 C   0  0  0  0  0  0  0  0  0  0  0  0
   -8.0413  -41.7120    0.0000 C   0  0  0  0  0  0  0  0  0  0  0  0
   -6.6359  -42.2362    0.0000 C   0  0  0  0  0  0  0  0  0  0  0  0
   -5.1966  -42.6588    0.0000 C   0  0  0  0  0  0  0  0  0  0  0  0
   -3.7309  -42.9776    0.0000 C   0  0  0  0  0  0  0  0  0  0  0  0
   -2.2462  -43.1911    0.0000 C   0  0  0  0  0  0  0  0  0  0  0  0
   -0.7500  -43.2981    0.0000 C   0  0  0  0  0  0  0  0  0  0  0  0
    0.7500  -43.2981    0.0000 C   0  0  0  0  0  0  0  0  0  0  0  0
    2.2462  -43.1911    0.0000 C   0  0  0  0  0  0  0  0  0  0  0  0
    3.7309  -42.9776    0.0000 C   0  0  0  0  0  0  0  0  0  0  0  0
    5.1966  -42.6588    0.0000 C   0  0  0  0  0  0  0  0  0  0  0  0
    6.6359  -42.2362    0.0000 C   0  0  0  0  0  0  0  0  0  0  0  0
    8.0413  -41.7120    0.0000 C   0  0  0  0  0  0  0  0  0  0  0  0
    9.4057  -41.0888    0.0000 C   0  0  0  0  0  0  0  0  0  0  0  0
   10.7223  -40.3700    0.0000 C   0  0  0  0  0  0  0  0  0  0  0  0
   11.9841  -39.5590    0.0000 C   0  0  0  0  0  0  0  0  0  0  0  0
   13.1850  -38.6601    0.0000 C   0  0  0  0  0  0  0  0  0  0  0  0
   14.3186  -37.6778    0.0000 C   0  0  0  0  0  0  0  0  0  0  0  0
   15.3792  -36.6171    0.0000 C   0  0  0  0  0  0  0  0  0  0  0  0
   16.3615  -35.4835    0.0000 C   0  0  0  0  0  0  0  0  0  0  0  0
   17.2604  -34.2827    0.0000 C   0  0  0  0  0  0  0  0  0  0  0  0
   18.0714  -33.0208    0.0000 C   0  0  0  0  0  0  0  0  0  0  0  0
   18.7903  -31.7043    0.0000 C   0  0  0  0  0  0  0  0  0  0  0  0
   19.4134  -30.3399    0.0000 C   0  0  0  0  0  0  0  0  0  0  0  0
   19.9376  -28.9344    0.0000 C   0  0  0  0  0  0  0  0  0  0  0  0
   20.3602  -27.4952    0.0000 C   0  0  0  0  0  0  0  0  0  0  0  0
   20.6790  -26.0295    0.0000 C   0  0  0  0  0  0  0  0  0  0  0  0
   20.8925  -24.5447    0.0000 C   0  0  0  0  0  0  0  0  0  0  0  0
   20.9995  -23.0486    0.0000 C   0  0  0  0  0  0  0  0  0  0  0  0
   20.9995  -21.5486    0.0000 C   0  0  0  0  0  0  0  0  0  0  0  0
   20.8925  -20.0524    0.0000 C   0  0  0  0  0  0  0  0  0  0  0  0
   20.6790  -18.5677    0.0000 C   0  0  0  0  0  0  0  0  0  0  0  0
   20.3602  -17.1019    0.0000 C   0  0  0  0  0  0  0  0  0  0  0  0
   19.9376  -15.6627    0.0000 C   0  0  0  0  0  0  0  0  0  0  0  0
   19.4134  -14.2573    0.0000 C   0  0  0  0  0  0  0  0  0  0  0  0
   18.7903  -12.8928    0.0000 C   0  0  0  0  0  0  0  0  0  0  0  0
   18.0714  -11.5763    0.0000 C   0  0  0  0  0  0  0  0  0  0  0  0
   17.2604  -10.3144    0.0000 C   0  0  0  0  0  0  0  0  0  0  0  0
   16.3615   -9.1136    0.0000 C   0  0  0  0  0  0  0  0  0  0  0  0
   15.3792   -7.9800    0.0000 C   0  0  0  0  0  0  0  0  0  0  0  0
   14.3186   -6.9193    0.0000 C   0  0  0  0  0  0  0  0  0  0  0  0
   13.1850   -5.9370    0.0000 C   0  0  0  0  0  0  0  0  0  0  0  0
   11.9841   -5.0381    0.0000 C   0  0  0  0  0  0  0  0  0  0  0  0
   10.7223   -4.2272    0.0000 C   0  0  0  0  0  0  0  0  0  0  0  0
    9.4057   -3.5083    0.0000 C   0  0  0  0  0  0  0  0  0  0  0  0
    8.0413   -2.8852    0.0000 C   0  0  0  0  0  0  0  0  0  0  0  0
    6.6359   -2.3610    0.0000 C   0  0  0  0  0  0  0  0  0  0  0  0
    5.1966   -1.9384    0.0000 C   0  0  0  0  0  0  0  0  0  0  0  0
    3.7309   -1.6195    0.0000 C   0  0  0  0  0  0  0  0  0  0  0  0
    3.9867   -3.0975    0.0000 C   0  0  0  0  0  0  0  0  0  0  0  0
    2.6600   -3.7976    0.0000 C   0  0  0  0  0  0  0  0  0  0  0  0
    1.5843   -2.7521    0.0000 C   0  0  0  0  0  0  0  0  0  0  0  0
    2.2462   -1.4060    0.0000 C   0  0  0  0  0  0  0  0  0  0  0  0
    0.7500   -1.2990    0.0000 C   0  0  0  0  0  0  0  0  0  0  0  0
    1.5000    0.0000    0.0000 C   0  0  0  0  0  0  0  0  0  0  0  0
    0.7500    1.2990    0.0000 C   0  0  0  0  0  0  0  0  0  0  0  0
   -0.7500    1.2990    0.0000 C   0  0  0  0  0  0  0  0  0  0  0  0
   -1.5000    0.0000    0.0000 C   0  0  0  0  0  0  0  0  0  0  0  0
   -0.7500   -1.2990    0.0000 C   0  0  0  0  0  0  0  0  0  0  0  0
  1  2  1  0
  2  3  1  0
  3  4  1  0
  4  5  1  0
  5  6  1  0
  6  7  1  0
  7  8  1  0
  8  9  1  0
  9 10  1  0
 10 11  1  0
 11 12  1  0
 12 13  1  0
 13 14  1  0
 14 15  1  0
 15 16  1  0
 16 17  1  0
 17 18  1  0
 18 19  1  0
 19 20  1  0
 20 21  1  0
 21 22  1  0
 22 23  1  0
 23 24  1  0
 24 25  1  0
 25 26  1  0
 26 27  1  0
 27 28  1  0
 28 29  1  0
 29 30  1  0
 30 31  1  0
 31 32  1  0
 32 33  1  0
 33 34  1  0
 34 35  1  0
 35 36  1  0
 36 37  1  0
 37 38  1  0
 38 39  1  0
 39 40  1  0
 40 41  1  0
 41 42  1  0
 42 43  1  0
 43 44  1  0
 44 45  1  0
 45 46  1  0
 46 47  1  0
 47 48  1  0
 48 49  1  0
 49 50  1  0
 50 51  1  0
 51 52  1  0
 52 53  1  0
 53 54  1  0
 54 55  1  0
 55 56  1  0
 56 57  1  0
 57 58  1  0
 58 59  1  0
 59 60  2  0
 60 61  1  0
 61 62  2  0
 62 63  1  0
 63 64  2  0
 64 65  1  0
 65 66  2  0
 66 67  1  0
 67 68  2  0
 68 69  1  0
 69 70  2  0
 70 71  1  0
 71 72  2  0
 72 73  1  0
 73 74  2  0
 74 75  1  0
 75 76  2  0
 76 77  1  0
 77 78  2  0
 78 79  1  0
 79 80  2  0
 80 81  1  0
 81 82  2  0
 82 83  1  0
 83 84  2  0
 84 85  1  0
 85 86  2  0
 86 87  1  0
 87 88  2  0
 88 89  1  0
 89 90  2  0
 90 91  1  0
 91 92  2  0
 92 93  1  0
 93 94  2  0
 94 95  1  0
 95 96  2  0
 96  2  1  0
 90 86  1  0
 96 91  1  0
M  END
>  <Title>  (247) 
idAAHOgen10

$$$$

     RDKit          2D

  6  6  0  0  0  0  0  0  0  0999 V2000
    2.7760    0.0000    0.0000 C   0  0  0  0  0  0  0  0  0  0  0  0
    1.2760    0.0000    0.0000 C   0  0  0  0  0  0  0  0  0  0  0  0
    0.3943    1.2135    0.0000 C   0  0  0  0  0  0  0  0  0  0  0  0
   -1.0323    0.7500    0.0000 C   0  0  0  0  0  0  0  0  0  0  0  0
   -1.0323   -0.7500    0.0000 C   0  0  0  0  0  0  0  0  0  0  0  0
    0.3943   -1.2135    0.0000 C   0  0  0  0  0  0  0  0  0  0  0  0
  1  2  1  0
  2  3  2  0
  3  4  1  0
  4  5  1  0
  5  6  2  0
  6  2  1  0
M  END
>  <Title>  (248) 
idAAHPgen10

$$$$

     RDKit          2D

104105  0  0  0  0  0  0  0  0999 V2000
   -2.7705   -0.7333    0.0000 C   0  0  0  0  0  0  0  0  0  0  0  0
   -2.2964    0.6899    0.0000 C   0  0  0  0  0  0  0  0  0  0  0  0
   -1.8224    2.1130    0.0000 C   0  0  0  0  0  0  0  0  0  0  0  0
   -3.2294    2.6329    0.0000 C   0  0  0  0  0  0  0  0  0  0  0  0
   -4.5998    3.2428    0.0000 C   0  0  0  0  0  0  0  0  0  0  0  0
   -5.9279    3.9401    0.0000 C   0  0  0  0  0  0  0  0  0  0  0  0
   -7.2080    4.7219    0.0000 C   0  0  0  0  0  0  0  0  0  0  0  0
   -8.4348    5.5850    0.0000 C   0  0  0  0  0  0  0  0  0  0  0  0
   -9.6032    6.5256    0.0000 C   0  0  0  0  0  0  0  0  0  0  0  0
  -10.7083    7.5399    0.0000 C   0  0  0  0  0  0  0  0  0  0  0  0
  -11.7454    8.6236    0.0000 C   0  0  0  0  0  0  0  0  0  0  0  0
  -12.7102    9.7722    0.0000 C   0  0  0  0  0  0  0  0  0  0  0  0
  -13.5986   10.9808    0.0000 C   0  0  0  0  0  0  0  0  0  0  0  0
  -14.4069   12.2444    0.0000 C   0  0  0  0  0  0  0  0  0  0  0  0
  -15.1317   13.5577    0.0000 C   0  0  0  0  0  0  0  0  0  0  0  0
  -15.7700   14.9151    0.0000 C   0  0  0  0  0  0  0  0  0  0  0  0
  -16.3191   16.3110    0.0000 C   0  0  0  0  0  0  0  0  0  0  0  0
  -16.7767   17.7395    0.0000 C   0  0  0  0  0  0  0  0  0  0  0  0
  -17.1408   19.1946    0.0000 C   0  0  0  0  0  0  0  0  0  0  0  0
  -17.4100   20.6702    0.0000 C   0  0  0  0  0  0  0  0  0  0  0  0
  -17.5831   22.1602    0.0000 C   0  0  0  0  0  0  0  0  0  0  0  0
  -17.6594   23.6583    0.0000 C   0  0  0  0  0  0  0  0  0  0  0  0
  -17.6386   25.1581    0.0000 C   0  0  0  0  0  0  0  0  0  0  0  0
  -17.5208   26.6535    0.0000 C   0  0  0  0  0  0  0  0  0  0  0  0
  -17.3064   28.1381    0.0000 C   0  0  0  0  0  0  0  0  0  0  0  0
  -16.9963   29.6057    0.0000 C   0  0  0  0  0  0  0  0  0  0  0  0
  -16.5919   31.0502    0.0000 C   0  0  0  0  0  0  0  0  0  0  0  0
  -16.0948   32.4654    0.0000 C   0  0  0  0  0  0  0  0  0  0  0  0
  -15.5072   33.8455    0.0000 C   0  0  0  0  0  0  0  0  0  0  0  0
  -14.8315   35.1847    0.0000 C   0  0  0  0  0  0  0  0  0  0  0  0
  -14.0705   36.4773    0.0000 C   0  0  0  0  0  0  0  0  0  0  0  0
  -13.2274   37.7180    0.0000 C   0  0  0  0  0  0  0  0  0  0  0  0
  -12.3058   38.9015    0.0000 C   0  0  0  0  0  0  0  0  0  0  0  0
  -11.3095   40.0228    0.0000 C   0  0  0  0  0  0  0  0  0  0  0  0
  -10.2428   41.0773    0.0000 C   0  0  0  0  0  0  0  0  0  0  0  0
   -9.1100   42.0606    0.0000 C   0  0  0  0  0  0  0  0  0  0  0  0
   -7.9159   42.9684    0.0000 C   0  0  0  0  0  0  0  0  0  0  0  0
   -6.6656   43.7971    0.0000 C   0  0  0  0  0  0  0  0  0  0  0  0
   -5.3642   44.5431    0.0000 C   0  0  0  0  0  0  0  0  0  0  0  0
   -4.0173   45.2033    0.0000 C   0  0  0  0  0  0  0  0  0  0  0  0
   -2.6305   45.7749    0.0000 C   0  0  0  0  0  0  0  0  0  0  0  0
   -1.2096   46.2555    0.0000 C   0  0  0  0  0  0  0  0  0  0  0  0
    0.2394   46.6432    0.0000 C   0  0  0  0  0  0  0  0  0  0  0  0
    1.7105   46.9363    0.0000 C   0  0  0  0  0  0  0  0  0  0  0  0
    3.1975   47.1335    0.0000 C   0  0  0  0  0  0  0  0  0  0  0  0
    4.6941   47.2340    0.0000 C   0  0  0  0  0  0  0  0  0  0  0  0
    6.1941   47.2375    0.0000 C   0  0  0  0  0  0  0  0  0  0  0  0
    7.6912   47.1439    0.0000 C   0  0  0  0  0  0  0  0  0  0  0  0
    9.1791   46.9535    0.0000 C   0  0  0  0  0  0  0  0  0  0  0  0
   10.6515   46.6673    0.0000 C   0  0  0  0  0  0  0  0  0  0  0  0
   12.1023   46.2863    0.0000 C   0  0  0  0  0  0  0  0  0  0  0  0
   13.5254   45.8123    0.0000 C   0  0  0  0  0  0  0  0  0  0  0  0
   14.9149   45.2471    0.0000 C   0  0  0  0  0  0  0  0  0  0  0  0
   16.2648   44.5931    0.0000 C   0  0  0  0  0  0  0  0  0  0  0  0
   17.5696   43.8532    0.0000 C   0  0  0  0  0  0  0  0  0  0  0  0
   18.8238   43.0303    0.0000 C   0  0  0  0  0  0  0  0  0  0  0  0
   20.0220   42.1280    0.0000 C   0  0  0  0  0  0  0  0  0  0  0  0
   21.1593   41.1500    0.0000 C   0  0  0  0  0  0  0  0  0  0  0  0
   22.2310   40.1004    0.0000 C   0  0  0  0  0  0  0  0  0  0  0  0
   23.2324   38.9837    0.0000 C   0  0  0  0  0  0  0  0  0  0  0  0
   24.1595   37.8045    0.0000 C   0  0  0  0  0  0  0  0  0  0  0  0
   25.0083   36.5677    0.0000 C   0  0  0  0  0  0  0  0  0  0  0  0
   25.7753   35.2786    0.0000 C   0  0  0  0  0  0  0  0  0  0  0  0
   26.4572   33.9426    0.0000 C   0  0  0  0  0  0  0  0  0  0  0  0
   27.0512   32.5652    0.0000 C   0  0  0  0  0  0  0  0  0  0  0  0
   27.5548   31.1523    0.0000 C   0  0  0  0  0  0  0  0  0  0  0  0
   27.9659   29.7097    0.0000 C   0  0  0  0  0  0  0  0  0  0  0  0
   28.2827   28.2436    0.0000 C   0  0  0  0  0  0  0  0  0  0  0  0
   28.5040   26.7600    0.0000 C   0  0  0  0  0  0  0  0  0  0  0  0
   28.6288   25.2652    0.0000 C   0  0  0  0  0  0  0  0  0  0  0  0
   28.6565   23.7654    0.0000 C   0  0  0  0  0  0  0  0  0  0  0  0
   28.5872   22.2670    0.0000 C   0  0  0  0  0  0  0  0  0  0  0  0
   28.4209   20.7763    0.0000 C   0  0  0  0  0  0  0  0  0  0  0  0
   28.1586   19.2994    0.0000 C   0  0  0  0  0  0  0  0  0  0  0  0
   27.8012   17.8426    0.0000 C   0  0  0  0  0  0  0  0  0  0  0  0
   27.3502   16.4120    0.0000 C   0  0  0  0  0  0  0  0  0  0  0  0
   26.8076   15.0136    0.0000 C   0  0  0  0  0  0  0  0  0  0  0  0
   26.1756   13.6532    0.0000 C   0  0  0  0  0  0  0  0  0  0  0  0
   25.4568   12.3366    0.0000 C   0  0  0  0  0  0  0  0  0  0  0  0
   24.6544   11.0693    0.0000 C   0  0  0  0  0  0  0  0  0  0  0  0
   23.7716    9.8566    0.0000 C   0  0  0  0  0  0  0  0  0  0  0  0
   22.8121    8.7036    0.0000 C   0  0  0  0  0  0  0  0  0  0  0  0
   21.7801    7.6151    0.0000 C   0  0  0  0  0  0  0  0  0  0  0  0
   20.6797    6.5957    0.0000 C   0  0  0  0  0  0  0  0  0  0  0  0
   19.5156    5.6496    0.0000 C   0  0  0  0  0  0  0  0  0  0  0  0
   18.2928    4.7809    0.0000 C   0  0  0  0  0  0  0  0  0  0  0  0
   17.0163    3.9932    0.0000 C   0  0  0  0  0  0  0  0  0  0  0  0
   15.6915    3.2897    0.0000 C   0  0  0  0  0  0  0  0  0  0  0  0
   14.3239    2.6735    0.0000 C   0  0  0  0  0  0  0  0  0  0  0  0
   12.9193    2.1471    0.0000 C   0  0  0  0  0  0  0  0  0  0  0  0
   11.4836    1.7127    0.0000 C   0  0  0  0  0  0  0  0  0  0  0  0
   10.0228    1.3721    0.0000 C   0  0  0  0  0  0  0  0  0  0  0  0
    8.5429    1.1269    0.0000 C   0  0  0  0  0  0  0  0  0  0  0  0
    7.0504    0.9779    0.0000 C   0  0  0  0  0  0  0  0  0  0  0  0
    5.5513    0.9259    0.0000 C   0  0  0  0  0  0  0  0  0  0  0  0
    4.0519    0.9710    0.0000 C   0  0  0  0  0  0  0  0  0  0  0  0
    2.5587    1.1130    0.0000 C   0  0  0  0  0  0  0  0  0  0  0  0
    1.0777    1.3515    0.0000 C   0  0  0  0  0  0  0  0  0  0  0  0
    1.7286    0.0000    0.0000 C   0  0  0  0  0  0  0  0  0  0  0  0
    1.0777   -1.3515    0.0000 C   0  0  0  0  0  0  0  0  0  0  0  0
   -0.3846   -1.6852    0.0000 C   0  0  0  0  0  0  0  0  0  0  0  0
   -1.5574   -0.7500    0.0000 C   0  0  0  0  0  0  0  0  0  0  0  0
   -1.5574    0.7500    0.0000 C   0  0  0  0  0  0  0  0  0  0  0  0
   -0.3846    1.6852    0.0000 C   0  0  0  0  0  0  0  0  0  0  0  0
  1  2  3  0
  2  3  1  0
  3  4  1  0
  4  5  1  0
  5  6  1  0
  6  7  1  0
  7  8  1  0
  8  9  1  0
  9 10  1  0
 10 11  1  0
 11 12  1  0
 12 13  1  0
 13 14  1  0
 14 15  1  0
 15 16  1  0
 16 17  1  0
 17 18  1  0
 18 19  1  0
 19 20  1  0
 20 21  1  0
 21 22  1  0
 22 23  1  0
 23 24  1  0
 24 25  1  0
 25 26  1  0
 26 27  1  0
 27 28  1  0
 28 29  1  0
 29 30  1  0
 30 31  1  0
 31 32  1  0
 32 33  1  0
 33 34  1  0
 34 35  1  0
 35 36  1  0
 36 37  1  0
 37 38  1  0
 38 39  1  0
 39 40  1  0
 40 41  1  0
 41 42  1  0
 42 43  1  0
 43 44  1  0
 44 45  1  0
 45 46  1  0
 46 47  1  0
 47 48  1  0
 48 49  1  0
 49 50  1  0
 50 51  1  0
 51 52  1  0
 52 53  1  0
 53 54  1  0
 54 55  1  0
 55 56  1  0
 56 57  1  0
 57 58  1  0
 58 59  1  0
 59 60  1  0
 60 61  1  0
 61 62  1  0
 62 63  1  0
 63 64  1  0
 64 65  1  0
 65 66  1  0
 66 67  1  0
 67 68  1  0
 68 69  1  0
 69 70  1  0
 70 71  1  0
 71 72  1  0
 72 73  1  0
 73 74  1  0
 74 75  1  0
 75 76  1  0
 76 77  1  0
 77 78  1  0
 78 79  1  0
 79 80  1  0
 80 81  1  0
 81 82  1  0
 82 83  1  0
 83 84  1  0
 84 85  1  0
 85 86  1  0
 86 87  1  0
 87 88  1  0
 88 89  1  0
 89 90  1  0
 90 91  1  0
 91 92  1  0
 92 93  1  0
 93 94  2  0
 94 95  1  0
 95 96  2  0
 96 97  1  0
 97 98  2  0
 98 99  1  0
 99100  1  0
100101  1  0
101102  1  0
102103  1  0
103104  2  0
104  3  1  0
104 98  1  0
M  END
>  <Title>  (249) 
idAAHQgen10

$$$$

     RDKit          2D

 13 13  0  0  0  0  0  0  0  0999 V2000
   10.2760   -0.0000    0.0000 C   0  0  0  0  0  0  0  0  0  0  0  0
    8.7760   -0.0000    0.0000 C   0  0  0  0  0  0  0  0  0  0  0  0
    7.2760   -0.0000    0.0000 C   0  0  0  0  0  0  0  0  0  0  0  0
    5.7760   -0.0000    0.0000 C   0  0  0  0  0  0  0  0  0  0  0  0
    4.2760   -0.0000    0.0000 C   0  0  0  0  0  0  0  0  0  0  0  0
    2.7760    0.0000    0.0000 C   0  0  0  0  0  0  0  0  0  0  0  0
    1.2760    0.0000    0.0000 C   0  0  0  0  0  0  0  0  0  0  0  0
    0.3943    1.2135    0.0000 C   0  0  0  0  0  0  0  0  0  0  0  0
   -1.0323    0.7500    0.0000 C   0  0  0  0  0  0  0  0  0  0  0  0
   -2.2458    1.6317    0.0000 C   0  0  0  0  0  0  0  0  0  0  0  0
   -1.0323   -0.7500    0.0000 C   0  0  0  0  0  0  0  0  0  0  0  0
   -2.2458   -1.6317    0.0000 C   0  0  0  0  0  0  0  0  0  0  0  0
    0.3943   -1.2135    0.0000 N   0  0  0  0  0  0  0  0  0  0  0  0
  1  2  3  0
  2  3  1  0
  3  4  3  0
  4  5  1  0
  5  6  3  0
  6  7  1  0
  7  8  2  0
  8  9  1  0
  9 10  1  0
  9 11  1  0
 11 12  1  0
 11 13  1  0
 13  7  1  0
M  END
>  <Title>  (250) 
idAAHRgen10

$$$$

     RDKit          2D

  8  8  0  0  0  0  0  0  0  0999 V2000
    3.0000    0.0000    0.0000 C   0  0  0  0  0  0  0  0  0  0  0  0
    1.5000    0.0000    0.0000 C   0  0  0  0  0  0  0  0  0  0  0  0
    0.7500   -1.2990    0.0000 N   0  0  0  0  0  0  0  0  0  0  0  0
   -0.7500   -1.2990    0.0000 C   0  0  0  0  0  0  0  0  0  0  0  0
   -1.5000   -2.5981    0.0000 C   0  0  0  0  0  0  0  0  0  0  0  0
   -1.5000    0.0000    0.0000 N   0  0  0  0  0  0  0  0  0  0  0  0
   -0.7500    1.2990    0.0000 C   0  0  0  0  0  0  0  0  0  0  0  0
    0.7500    1.2990    0.0000 C   0  0  0  0  0  0  0  0  0  0  0  0
  1  2  1  0
  2  3  2  0
  3  4  1  0
  4  5  1  0
  4  6  1  0
  6  7  1  0
  7  8  1  0
  8  2  1  0
M  END
>  <Title>  (251) 
idAAHSgen10

$$$$

     RDKit          2D

 23 26  0  0  0  0  0  0  0  0999 V2000
   -1.3240   -6.3062    0.0000 C   0  0  0  0  0  0  0  0  0  0  0  0
   -0.7500   -4.9204    0.0000 C   0  0  0  0  0  0  0  0  0  0  0  0
    0.7500   -4.9204    0.0000 C   0  0  0  0  0  0  0  0  0  0  0  0
    1.8107   -3.8597    0.0000 C   0  0  0  0  0  0  0  0  0  0  0  0
    1.8107   -2.3597    0.0000 N   0  0  0  0  0  0  0  0  0  0  0  0
    3.1965   -1.7857    0.0000 C   0  0  0  0  0  0  0  0  0  0  0  0
    4.3865   -2.6988    0.0000 N   0  0  0  0  0  0  0  0  0  0  0  0
    5.7723   -2.1248    0.0000 N   0  0  0  0  0  0  0  0  0  0  0  0
    5.9681   -0.6376    0.0000 N   0  0  0  0  0  0  0  0  0  0  0  0
    4.7781    0.2755    0.0000 N   0  0  0  0  0  0  0  0  0  0  0  0
    3.3923   -0.2985    0.0000 N   0  0  0  0  0  0  0  0  0  0  0  0
    0.7500   -1.2990    0.0000 C   0  0  0  0  0  0  0  0  0  0  0  0
    1.5000    0.0000    0.0000 C   0  0  0  0  0  0  0  0  0  0  0  0
    0.7500    1.2990    0.0000 C   0  0  0  0  0  0  0  0  0  0  0  0
   -0.7500    1.2990    0.0000 C   0  0  0  0  0  0  0  0  0  0  0  0
   -1.5000    0.0000    0.0000 C   0  0  0  0  0  0  0  0  0  0  0  0
   -0.7500   -1.2990    0.0000 C   0  0  0  0  0  0  0  0  0  0  0  0
   -1.8107   -2.3597    0.0000 C   0  0  0  0  0  0  0  0  0  0  0  0
   -3.1097   -1.6097    0.0000 C   0  0  0  0  0  0  0  0  0  0  0  0
   -4.4087   -2.3597    0.0000 C   0  0  0  0  0  0  0  0  0  0  0  0
   -4.4087   -3.8597    0.0000 C   0  0  0  0  0  0  0  0  0  0  0  0
   -3.1097   -4.6097    0.0000 C   0  0  0  0  0  0  0  0  0  0  0  0
   -1.8107   -3.8597    0.0000 C   0  0  0  0  0  0  0  0  0  0  0  0
  1  2  1  0
  2  3  1  0
  3  4  1  0
  4  5  1  0
  5  6  1  0
  6  7  2  0
  7  8  1  0
  8  9  2  0
  9 10  1  0
 10 11  2  0
  5 12  1  0
 12 13  2  0
 13 14  1  0
 14 15  2  0
 15 16  1  0
 16 17  2  0
 17 18  1  0
 18 19  2  0
 19 20  1  0
 20 21  2  0
 21 22  1  0
 22 23  2  0
 23  2  1  0
 11  6  1  0
 17 12  1  0
 23 18  1  0
M  END
>  <Title>  (252) 
idAAHTgen10

$$$$

     RDKit          2D

 95100  0  0  0  0  0  0  0  0999 V2000
  -12.1255    8.9481    0.0000 C   0  0  0  0  0  0  0  0  0  0  0  0
  -10.8303    9.7047    0.0000 C   0  0  0  0  0  0  0  0  0  0  0  0
  -11.5305   11.0313    0.0000 C   0  0  0  0  0  0  0  0  0  0  0  0
  -12.1141   12.4131    0.0000 C   0  0  0  0  0  0  0  0  0  0  0  0
  -12.5768   13.8399    0.0000 C   0  0  0  0  0  0  0  0  0  0  0  0
  -12.9150   15.3013    0.0000 C   0  0  0  0  0  0  0  0  0  0  0  0
  -13.1264   16.7863    0.0000 C   0  0  0  0  0  0  0  0  0  0  0  0
  -13.2094   18.2840    0.0000 C   0  0  0  0  0  0  0  0  0  0  0  0
  -13.1633   19.7833    0.0000 C   0  0  0  0  0  0  0  0  0  0  0  0
  -12.9885   21.2731    0.0000 C   0  0  0  0  0  0  0  0  0  0  0  0
  -12.6862   22.7423    0.0000 C   0  0  0  0  0  0  0  0  0  0  0  0
  -12.2588   24.1801    0.0000 C   0  0  0  0  0  0  0  0  0  0  0  0
  -11.7094   25.5759    0.0000 C   0  0  0  0  0  0  0  0  0  0  0  0
  -11.0420   26.9192    0.0000 C   0  0  0  0  0  0  0  0  0  0  0  0
  -10.2616   28.2003    0.0000 C   0  0  0  0  0  0  0  0  0  0  0  0
   -9.3739   29.4094    0.0000 C   0  0  0  0  0  0  0  0  0  0  0  0
   -8.3856   30.5378    0.0000 C   0  0  0  0  0  0  0  0  0  0  0  0
   -7.3040   31.5771    0.0000 C   0  0  0  0  0  0  0  0  0  0  0  0
   -6.1370   32.5195    0.0000 C   0  0  0  0  0  0  0  0  0  0  0  0
   -4.8934   33.3581    0.0000 C   0  0  0  0  0  0  0  0  0  0  0  0
   -3.5822   34.0867    0.0000 C   0  0  0  0  0  0  0  0  0  0  0  0
   -2.2133   34.6999    0.0000 C   0  0  0  0  0  0  0  0  0  0  0  0
   -0.7967   35.1932    0.0000 C   0  0  0  0  0  0  0  0  0  0  0  0
    0.6571   35.5628    0.0000 C   0  0  0  0  0  0  0  0  0  0  0  0
    2.1372   35.8061    0.0000 C   0  0  0  0  0  0  0  0  0  0  0  0
    3.6328   35.9213    0.0000 C   0  0  0  0  0  0  0  0  0  0  0  0
    5.1327   35.9074    0.0000 C   0  0  0  0  0  0  0  0  0  0  0  0
    6.6259   35.7647    0.0000 C   0  0  0  0  0  0  0  0  0  0  0  0
    8.1013   35.4941    0.0000 C   0  0  0  0  0  0  0  0  0  0  0  0
    9.5480   35.0978    0.0000 C   0  0  0  0  0  0  0  0  0  0  0  0
   10.9552   34.5785    0.0000 C   0  0  0  0  0  0  0  0  0  0  0  0
   12.3126   33.9401    0.0000 C   0  0  0  0  0  0  0  0  0  0  0  0
   13.6101   33.1875    0.0000 C   0  0  0  0  0  0  0  0  0  0  0  0
   14.8381   32.3261    0.0000 C   0  0  0  0  0  0  0  0  0  0  0  0
   15.9875   31.3623    0.0000 C   0  0  0  0  0  0  0  0  0  0  0  0
   17.0498   30.3032    0.0000 C   0  0  0  0  0  0  0  0  0  0  0  0
   18.0171   29.1568    0.0000 C   0  0  0  0  0  0  0  0  0  0  0  0
   18.8823   27.9315    0.0000 C   0  0  0  0  0  0  0  0  0  0  0  0
   19.6390   26.6363    0.0000 C   0  0  0  0  0  0  0  0  0  0  0  0
   20.2815   25.2809    0.0000 C   0  0  0  0  0  0  0  0  0  0  0  0
   20.8051   23.8752    0.0000 C   0  0  0  0  0  0  0  0  0  0  0  0
   21.2059   22.4298    0.0000 C   0  0  0  0  0  0  0  0  0  0  0  0
   21.4810   20.9552    0.0000 C   0  0  0  0  0  0  0  0  0  0  0  0
   21.6283   19.4625    0.0000 C   0  0  0  0  0  0  0  0  0  0  0  0
   21.6467   17.9626    0.0000 C   0  0  0  0  0  0  0  0  0  0  0  0
   21.5362   16.4667    0.0000 C   0  0  0  0  0  0  0  0  0  0  0  0
   21.2974   14.9858    0.0000 C   0  0  0  0  0  0  0  0  0  0  0  0
   20.9323   13.5309    0.0000 C   0  0  0  0  0  0  0  0  0  0  0  0
   20.4434   12.1128    0.0000 C   0  0  0  0  0  0  0  0  0  0  0  0
   19.8344   10.7420    0.0000 C   0  0  0  0  0  0  0  0  0  0  0  0
   19.1098    9.4286    0.0000 C   0  0  0  0  0  0  0  0  0  0  0  0
   18.2750    8.1824    0.0000 C   0  0  0  0  0  0  0  0  0  0  0  0
   17.3362    7.0125    0.0000 C   0  0  0  0  0  0  0  0  0  0  0  0
   16.3003    5.9277    0.0000 C   0  0  0  0  0  0  0  0  0  0  0  0
   15.1749    4.9359    0.0000 C   0  0  0  0  0  0  0  0  0  0  0  0
   13.9685    4.0446    0.0000 C   0  0  0  0  0  0  0  0  0  0  0  0
   12.6899    3.2602    0.0000 C   0  0  0  0  0  0  0  0  0  0  0  0
   11.3486    2.5887    0.0000 C   0  0  0  0  0  0  0  0  0  0  0  0
    9.9545    2.0350    0.0000 C   0  0  0  0  0  0  0  0  0  0  0  0
    8.5180    1.6031    0.0000 C   0  0  0  0  0  0  0  0  0  0  0  0
    7.0497    1.2964    0.0000 C   0  0  0  0  0  0  0  0  0  0  0  0
    5.5605    1.1170    0.0000 C   0  0  0  0  0  0  0  0  0  0  0  0
    4.0614    1.0663    0.0000 C   0  0  0  0  0  0  0  0  0  0  0  0
    2.5634    1.1446    0.0000 C   0  0  0  0  0  0  0  0  0  0  0  0
    1.0777    1.3515    0.0000 C   0  0  0  0  0  0  0  0  0  0  0  0
    1.7286    0.0000    0.0000 C   0  0  0  0  0  0  0  0  0  0  0  0
    1.0777   -1.3515    0.0000 C   0  0  0  0  0  0  0  0  0  0  0  0
   -0.3846   -1.6852    0.0000 C   0  0  0  0  0  0  0  0  0  0  0  0
   -1.5574   -0.7500    0.0000 C   0  0  0  0  0  0  0  0  0  0  0  0
   -1.5574    0.7500    0.0000 C   0  0  0  0  0  0  0  0  0  0  0  0
   -0.3846    1.6852    0.0000 C   0  0  0  0  0  0  0  0  0  0  0  0
   -1.8129    2.1435    0.0000 C   0  0  0  0  0  0  0  0  0  0  0  0
   -0.6194    3.0521    0.0000 C   0  0  0  0  0  0  0  0  0  0  0  0
   -0.8095    4.5400    0.0000 C   0  0  0  0  0  0  0  0  0  0  0  0
   -2.1931    5.1193    0.0000 C   0  0  0  0  0  0  0  0  0  0  0  0
   -3.3866    4.2107    0.0000 C   0  0  0  0  0  0  0  0  0  0  0  0
   -3.1965    2.7228    0.0000 C   0  0  0  0  0  0  0  0  0  0  0  0
   -4.5252    3.4190    0.0000 C   0  0  0  0  0  0  0  0  0  0  0  0
   -4.5928    1.9205    0.0000 C   0  0  0  0  0  0  0  0  0  0  0  0
   -5.9243    1.2298    0.0000 C   0  0  0  0  0  0  0  0  0  0  0  0
   -7.1883    2.0376    0.0000 C   0  0  0  0  0  0  0  0  0  0  0  0
   -7.1206    3.5361    0.0000 C   0  0  0  0  0  0  0  0  0  0  0  0
   -5.7891    4.2268    0.0000 C   0  0  0  0  0  0  0  0  0  0  0  0
   -6.9789    5.1402    0.0000 C   0  0  0  0  0  0  0  0  0  0  0  0
   -5.5488    5.5926    0.0000 C   0  0  0  0  0  0  0  0  0  0  0  0
   -5.2255    7.0574    0.0000 C   0  0  0  0  0  0  0  0  0  0  0  0
   -6.3324    8.0697    0.0000 C   0  0  0  0  0  0  0  0  0  0  0  0
   -7.7625    7.6173    0.0000 C   0  0  0  0  0  0  0  0  0  0  0  0
   -8.0858    6.1526    0.0000 C   0  0  0  0  0  0  0  0  0  0  0  0
   -9.1015    7.2563    0.0000 C   0  0  0  0  0  0  0  0  0  0  0  0
   -9.6709    5.8686    0.0000 C   0  0  0  0  0  0  0  0  0  0  0  0
  -11.1574    5.6678    0.0000 C   0  0  0  0  0  0  0  0  0  0  0  0
  -12.0745    6.8548    0.0000 C   0  0  0  0  0  0  0  0  0  0  0  0
  -11.5051    8.2426    0.0000 C   0  0  0  0  0  0  0  0  0  0  0  0
  -10.0186    8.4433    0.0000 C   0  0  0  0  0  0  0  0  0  0  0  0
  1  2  1  0
  2  3  1  0
  3  4  1  0
  4  5  1  0
  5  6  1  0
  6  7  1  0
  7  8  1  0
  8  9  1  0
  9 10  1  0
 10 11  1  0
 11 12  1  0
 12 13  1  0
 13 14  1  0
 14 15  1  0
 15 16  1  0
 16 17  1  0
 17 18  1  0
 18 19  1  0
 19 20  1  0
 20 21  1  0
 21 22  1  0
 22 23  1  0
 23 24  1  0
 24 25  1  0
 25 26  1  0
 26 27  1  0
 27 28  1  0
 28 29  1  0
 29 30  1  0
 30 31  1  0
 31 32  1  0
 32 33  1  0
 33 34  1  0
 34 35  1  0
 35 36  1  0
 36 37  1  0
 37 38  1  0
 38 39  1  0
 39 40  1  0
 40 41  1  0
 41 42  1  0
 42 43  1  0
 43 44  1  0
 44 45  1  0
 45 46  1  0
 46 47  1  0
 47 48  1  0
 48 49  1  0
 49 50  1  0
 50 51  1  0
 51 52  1  0
 52 53  1  0
 53 54  1  0
 54 55  1  0
 55 56  1  0
 56 57  1  0
 57 58  1  0
 58 59  1  0
 59 60  1  0
 60 61  2  0
 61 62  1  0
 62 63  2  0
 63 64  1  0
 64 65  2  0
 65 66  1  0
 66 67  2  0
 67 68  1  0
 68 69  2  0
 69 70  1  0
 70 71  2  0
 71 72  1  0
 72 73  2  0
 73 74  1  0
 74 75  2  0
 75 76  1  0
 76 77  2  0
 77 78  1  0
 78 79  2  0
 79 80  1  0
 80 81  2  0
 81 82  1  0
 82 83  2  0
 83 84  1  0
 84 85  2  0
 85 86  1  0
 86 87  2  0
 87 88  1  0
 88 89  2  0
 89 90  1  0
 90 91  2  0
 91 92  1  0
 92 93  2  0
 93 94  1  0
 94 95  2  0
 95  2  1  0
 71 65  1  0
 77 72  1  0
 83 78  1  0
 89 84  1  0
 95 90  1  0
M  END
>  <Title>  (253) 
idAAHUgen10

$$$$

     RDKit          2D

 57 65  0  0  0  0  0  0  0  0999 V2000
    5.8713   -7.2804    0.0000 C   0  0  0  0  0  0  0  0  0  0  0  0
    4.4172   -6.9121    0.0000 C   0  0  0  0  0  0  0  0  0  0  0  0
    4.5411   -5.4173    0.0000 C   0  0  0  0  0  0  0  0  0  0  0  0
    4.1729   -3.9632    0.0000 C   0  0  0  0  0  0  0  0  0  0  0  0
    3.3524   -2.7074    0.0000 C   0  0  0  0  0  0  0  0  0  0  0  0
    2.1687   -1.7861    0.0000 C   0  0  0  0  0  0  0  0  0  0  0  0
    2.8826   -0.4669    0.0000 C   0  0  0  0  0  0  0  0  0  0  0  0
    2.0971    0.8110    0.0000 O   0  0  0  0  0  0  0  0  0  0  0  0
    4.3821   -0.4255    0.0000 N   0  0  0  0  0  0  0  0  0  0  0  0
    5.0960    0.8937    0.0000 C   0  0  0  0  0  0  0  0  0  0  0  0
    6.5954    0.9350    0.0000 N   0  0  0  0  0  0  0  0  0  0  0  0
    7.3094    2.2542    0.0000 N   0  0  0  0  0  0  0  0  0  0  0  0
    6.5238    3.5321    0.0000 N   0  0  0  0  0  0  0  0  0  0  0  0
    5.0244    3.4908    0.0000 N   0  0  0  0  0  0  0  0  0  0  0  0
    4.3105    2.1715    0.0000 N   0  0  0  0  0  0  0  0  0  0  0  0
    0.7500   -1.2990    0.0000 C   0  0  0  0  0  0  0  0  0  0  0  0
    1.5000    0.0000    0.0000 C   0  0  0  0  0  0  0  0  0  0  0  0
    0.7500    1.2990    0.0000 C   0  0  0  0  0  0  0  0  0  0  0  0
   -0.7500    1.2990    0.0000 C   0  0  0  0  0  0  0  0  0  0  0  0
   -1.5000    0.0000    0.0000 C   0  0  0  0  0  0  0  0  0  0  0  0
   -0.7500   -1.2990    0.0000 C   0  0  0  0  0  0  0  0  0  0  0  0
   -2.1687   -1.7861    0.0000 C   0  0  0  0  0  0  0  0  0  0  0  0
   -2.3748   -0.3003    0.0000 C   0  0  0  0  0  0  0  0  0  0  0  0
   -3.7645    0.2642    0.0000 C   0  0  0  0  0  0  0  0  0  0  0  0
   -4.9482   -0.6572    0.0000 C   0  0  0  0  0  0  0  0  0  0  0  0
   -4.7422   -2.1429    0.0000 C   0  0  0  0  0  0  0  0  0  0  0  0
   -3.3524   -2.7074    0.0000 C   0  0  0  0  0  0  0  0  0  0  0  0
   -4.1729   -3.9632    0.0000 C   0  0  0  0  0  0  0  0  0  0  0  0
   -5.2480   -2.9172    0.0000 C   0  0  0  0  0  0  0  0  0  0  0  0
   -6.6914   -3.3254    0.0000 C   0  0  0  0  0  0  0  0  0  0  0  0
   -7.0597   -4.7795    0.0000 C   0  0  0  0  0  0  0  0  0  0  0  0
   -5.9845   -5.8254    0.0000 C   0  0  0  0  0  0  0  0  0  0  0  0
   -4.5411   -5.4173    0.0000 C   0  0  0  0  0  0  0  0  0  0  0  0
   -4.4172   -6.9121    0.0000 C   0  0  0  0  0  0  0  0  0  0  0  0
   -5.9081   -6.7471    0.0000 C   0  0  0  0  0  0  0  0  0  0  0  0
   -6.7965   -7.9558    0.0000 C   0  0  0  0  0  0  0  0  0  0  0  0
   -6.1939   -9.3294    0.0000 C   0  0  0  0  0  0  0  0  0  0  0  0
   -4.7030   -9.4944    0.0000 C   0  0  0  0  0  0  0  0  0  0  0  0
   -3.8147   -8.2858    0.0000 C   0  0  0  0  0  0  0  0  0  0  0  0
   -2.7988   -9.3894    0.0000 C   0  0  0  0  0  0  0  0  0  0  0  0
   -4.0766  -10.1749    0.0000 C   0  0  0  0  0  0  0  0  0  0  0  0
   -4.0353  -11.6743    0.0000 C   0  0  0  0  0  0  0  0  0  0  0  0
   -2.7161  -12.3882    0.0000 C   0  0  0  0  0  0  0  0  0  0  0  0
   -1.4382  -11.6027    0.0000 C   0  0  0  0  0  0  0  0  0  0  0  0
   -1.4795  -10.1033    0.0000 C   0  0  0  0  0  0  0  0  0  0  0  0
   -0.0000  -10.3502    0.0000 C   0  0  0  0  0  0  0  0  0  0  0  0
   -0.5260  -11.7550    0.0000 C   0  0  0  0  0  0  0  0  0  0  0  0
    0.4276  -12.9128    0.0000 C   0  0  0  0  0  0  0  0  0  0  0  0
    1.9072  -12.6659    0.0000 C   0  0  0  0  0  0  0  0  0  0  0  0
    2.4331  -11.2612    0.0000 C   0  0  0  0  0  0  0  0  0  0  0  0
    1.4795  -10.1033    0.0000 C   0  0  0  0  0  0  0  0  0  0  0  0
    2.7988   -9.3894    0.0000 C   0  0  0  0  0  0  0  0  0  0  0  0
    3.2465  -10.8210    0.0000 C   0  0  0  0  0  0  0  0  0  0  0  0
    4.7102  -11.1490    0.0000 C   0  0  0  0  0  0  0  0  0  0  0  0
    5.7261  -10.0454    0.0000 C   0  0  0  0  0  0  0  0  0  0  0  0
    5.2784   -8.6138    0.0000 C   0  0  0  0  0  0  0  0  0  0  0  0
    3.8147   -8.2858    0.0000 C   0  0  0  0  0  0  0  0  0  0  0  0
  1  2  1  0
  2  3  2  0
  3  4  1  0
  4  5  1  0
  5  6  2  0
  6  7  1  0
  7  8  2  0
  7  9  1  0
  9 10  1  0
 10 11  2  0
 11 12  1  0
 12 13  2  0
 13 14  1  0
 14 15  2  0
  6 16  1  0
 16 17  2  0
 17 18  1  0
 18 19  2  0
 19 20  1  0
 20 21  2  0
 21 22  1  0
 22 23  2  0
 23 24  1  0
 24 25  2  0
 25 26  1  0
 26 27  2  0
 27 28  1  0
 28 29  2  0
 29 30  1  0
 30 31  2  0
 31 32  1  0
 32 33  2  0
 33 34  1  0
 34 35  2  0
 35 36  1  0
 36 37  2  0
 37 38  1  0
 38 39  2  0
 39 40  1  0
 40 41  2  0
 41 42  1  0
 42 43  2  0
 43 44  1  0
 44 45  2  0
 45 46  1  0
 46 47  2  0
 47 48  1  0
 48 49  2  0
 49 50  1  0
 50 51  2  0
 51 52  1  0
 52 53  2  0
 53 54  1  0
 54 55  2  0
 55 56  1  0
 56 57  2  0
 57  2  1  0
 15 10  1  0
 21 16  1  0
 27 22  1  0
 33 28  1  0
 39 34  1  0
 45 40  1  0
 51 46  1  0
 57 52  1  0
M  END
>  <Title>  (254) 
idAAHVgen10

$$$$

     RDKit          2D

 11 11  0  0  0  0  0  0  0  0999 V2000
    5.2500   -1.2990    0.0000 C   0  0  0  0  0  0  0  0  0  0  0  0
    3.7500   -1.2990    0.0000 C   0  0  0  0  0  0  0  0  0  0  0  0
    3.0000    0.0000    0.0000 C   0  0  0  0  0  0  0  0  0  0  0  0
    3.7500    1.2990    0.0000 O   0  0  0  0  0  0  0  0  0  0  0  0
    1.5000    0.0000    0.0000 C   0  0  0  0  0  0  0  0  0  0  0  0
    0.7500   -1.2990    0.0000 C   0  0  0  0  0  0  0  0  0  0  0  0
   -0.7500   -1.2990    0.0000 C   0  0  0  0  0  0  0  0  0  0  0  0
   -1.5000    0.0000    0.0000 C   0  0  0  0  0  0  0  0  0  0  0  0
   -0.7500    1.2990    0.0000 C   0  0  0  0  0  0  0  0  0  0  0  0
    0.7500    1.2990    0.0000 C   0  0  0  0  0  0  0  0  0  0  0  0
    1.5000    2.5981    0.0000 O   0  0  0  0  0  0  0  0  0  0  0  0
  1  2  2  0
  2  3  1  0
  3  4  2  0
  3  5  1  0
  5  6  2  0
  6  7  1  0
  7  8  2  0
  8  9  1  0
  9 10  2  0
 10 11  1  0
 10  5  1  0
M  END
>  <Title>  (255) 
idAAHWgen10

$$$$

     RDKit          2D

 99100  0  0  0  0  0  0  0  0999 V2000
   -2.3012    0.6959    0.0000 C   0  0  0  0  0  0  0  0  0  0  0  0
   -1.8212    2.1170    0.0000 C   0  0  0  0  0  0  0  0  0  0  0  0
   -3.2253    2.6447    0.0000 C   0  0  0  0  0  0  0  0  0  0  0  0
   -4.5905    3.2660    0.0000 C   0  0  0  0  0  0  0  0  0  0  0  0
   -5.9107    3.9781    0.0000 C   0  0  0  0  0  0  0  0  0  0  0  0
   -7.1799    4.7777    0.0000 C   0  0  0  0  0  0  0  0  0  0  0  0
   -8.3921    5.6611    0.0000 C   0  0  0  0  0  0  0  0  0  0  0  0
   -9.5419    6.6244    0.0000 C   0  0  0  0  0  0  0  0  0  0  0  0
  -10.6241    7.6631    0.0000 C   0  0  0  0  0  0  0  0  0  0  0  0
  -11.6337    8.7725    0.0000 C   0  0  0  0  0  0  0  0  0  0  0  0
  -12.5661    9.9475    0.0000 C   0  0  0  0  0  0  0  0  0  0  0  0
  -13.4171   11.1827    0.0000 C   0  0  0  0  0  0  0  0  0  0  0  0
  -14.1827   12.4726    0.0000 C   0  0  0  0  0  0  0  0  0  0  0  0
  -14.8595   13.8113    0.0000 C   0  0  0  0  0  0  0  0  0  0  0  0
  -15.4444   15.1925    0.0000 C   0  0  0  0  0  0  0  0  0  0  0  0
  -15.9347   16.6101    0.0000 C   0  0  0  0  0  0  0  0  0  0  0  0
  -16.3281   18.0576    0.0000 C   0  0  0  0  0  0  0  0  0  0  0  0
  -16.6230   19.5283    0.0000 C   0  0  0  0  0  0  0  0  0  0  0  0
  -16.8179   21.0156    0.0000 C   0  0  0  0  0  0  0  0  0  0  0  0
  -16.9119   22.5127    0.0000 C   0  0  0  0  0  0  0  0  0  0  0  0
  -16.9047   24.0127    0.0000 C   0  0  0  0  0  0  0  0  0  0  0  0
  -16.7962   25.5087    0.0000 C   0  0  0  0  0  0  0  0  0  0  0  0
  -16.5870   26.9941    0.0000 C   0  0  0  0  0  0  0  0  0  0  0  0
  -16.2779   28.4619    0.0000 C   0  0  0  0  0  0  0  0  0  0  0  0
  -15.8705   29.9055    0.0000 C   0  0  0  0  0  0  0  0  0  0  0  0
  -15.3666   31.3183    0.0000 C   0  0  0  0  0  0  0  0  0  0  0  0
  -14.7684   32.6939    0.0000 C   0  0  0  0  0  0  0  0  0  0  0  0
  -14.0787   34.0259    0.0000 C   0  0  0  0  0  0  0  0  0  0  0  0
  -13.3007   35.3084    0.0000 C   0  0  0  0  0  0  0  0  0  0  0  0
  -12.4378   36.5354    0.0000 C   0  0  0  0  0  0  0  0  0  0  0  0
  -11.4941   37.7013    0.0000 C   0  0  0  0  0  0  0  0  0  0  0  0
  -10.4739   38.8009    0.0000 C   0  0  0  0  0  0  0  0  0  0  0  0
   -9.3817   39.8291    0.0000 C   0  0  0  0  0  0  0  0  0  0  0  0
   -8.2226   40.7812    0.0000 C   0  0  0  0  0  0  0  0  0  0  0  0
   -7.0019   41.6529    0.0000 C   0  0  0  0  0  0  0  0  0  0  0  0
   -5.7251   42.4402    0.0000 C   0  0  0  0  0  0  0  0  0  0  0  0
   -4.3981   43.1395    0.0000 C   0  0  0  0  0  0  0  0  0  0  0  0
   -3.0269   43.7476    0.0000 C   0  0  0  0  0  0  0  0  0  0  0  0
   -1.6178   44.2618    0.0000 C   0  0  0  0  0  0  0  0  0  0  0  0
   -0.1772   44.6796    0.0000 C   0  0  0  0  0  0  0  0  0  0  0  0
    1.2884   44.9993    0.0000 C   0  0  0  0  0  0  0  0  0  0  0  0
    2.7722   45.2193    0.0000 C   0  0  0  0  0  0  0  0  0  0  0  0
    4.2674   45.3386    0.0000 C   0  0  0  0  0  0  0  0  0  0  0  0
    5.7673   45.3567    0.0000 C   0  0  0  0  0  0  0  0  0  0  0  0
    7.2650   45.2735    0.0000 C   0  0  0  0  0  0  0  0  0  0  0  0
    8.7537   45.0893    0.0000 C   0  0  0  0  0  0  0  0  0  0  0  0
   10.2265   44.8051    0.0000 C   0  0  0  0  0  0  0  0  0  0  0  0
   11.6768   44.4222    0.0000 C   0  0  0  0  0  0  0  0  0  0  0  0
   13.0979   43.9422    0.0000 C   0  0  0  0  0  0  0  0  0  0  0  0
   14.4834   43.3673    0.0000 C   0  0  0  0  0  0  0  0  0  0  0  0
   15.8269   42.7002    0.0000 C   0  0  0  0  0  0  0  0  0  0  0  0
   17.1223   41.9439    0.0000 C   0  0  0  0  0  0  0  0  0  0  0  0
   18.3637   41.1020    0.0000 C   0  0  0  0  0  0  0  0  0  0  0  0
   19.5454   40.1781    0.0000 C   0  0  0  0  0  0  0  0  0  0  0  0
   20.6620   39.1765    0.0000 C   0  0  0  0  0  0  0  0  0  0  0  0
   21.7085   38.1019    0.0000 C   0  0  0  0  0  0  0  0  0  0  0  0
   22.6801   36.9591    0.0000 C   0  0  0  0  0  0  0  0  0  0  0  0
   23.5723   35.7532    0.0000 C   0  0  0  0  0  0  0  0  0  0  0  0
   24.3810   34.4899    0.0000 C   0  0  0  0  0  0  0  0  0  0  0  0
   25.1026   33.1749    0.0000 C   0  0  0  0  0  0  0  0  0  0  0  0
   25.7338   31.8142    0.0000 C   0  0  0  0  0  0  0  0  0  0  0  0
   26.2717   30.4139    0.0000 C   0  0  0  0  0  0  0  0  0  0  0  0
   26.7138   28.9806    0.0000 C   0  0  0  0  0  0  0  0  0  0  0  0
   27.0582   27.5207    0.0000 C   0  0  0  0  0  0  0  0  0  0  0  0
   27.3032   26.0408    0.0000 C   0  0  0  0  0  0  0  0  0  0  0  0
   27.4478   24.5478    0.0000 C   0  0  0  0  0  0  0  0  0  0  0  0
   27.4912   23.0484    0.0000 C   0  0  0  0  0  0  0  0  0  0  0  0
   27.4333   21.5495    0.0000 C   0  0  0  0  0  0  0  0  0  0  0  0
   27.2743   20.0580    0.0000 C   0  0  0  0  0  0  0  0  0  0  0  0
   27.0151   18.5806    0.0000 C   0  0  0  0  0  0  0  0  0  0  0  0
   26.6566   17.1240    0.0000 C   0  0  0  0  0  0  0  0  0  0  0  0
   26.2007   15.6950    0.0000 C   0  0  0  0  0  0  0  0  0  0  0  0
   25.6493   14.3000    0.0000 C   0  0  0  0  0  0  0  0  0  0  0  0
   25.0050   12.9454    0.0000 C   0  0  0  0  0  0  0  0  0  0  0  0
   24.2707   11.6374    0.0000 C   0  0  0  0  0  0  0  0  0  0  0  0
   23.4498   10.3820    0.0000 C   0  0  0  0  0  0  0  0  0  0  0  0
   22.5460    9.1848    0.0000 C   0  0  0  0  0  0  0  0  0  0  0  0
   21.5635    8.0514    0.0000 C   0  0  0  0  0  0  0  0  0  0  0  0
   20.5067    6.9869    0.0000 C   0  0  0  0  0  0  0  0  0  0  0  0
   19.3804    5.9962    0.0000 C   0  0  0  0  0  0  0  0  0  0  0  0
   18.1898    5.0838    0.0000 C   0  0  0  0  0  0  0  0  0  0  0  0
   16.9404    4.2538    0.0000 C   0  0  0  0  0  0  0  0  0  0  0  0
   15.6377    3.5101    0.0000 C   0  0  0  0  0  0  0  0  0  0  0  0
   14.2879    2.8560    0.0000 C   0  0  0  0  0  0  0  0  0  0  0  0
   12.8969    2.2946    0.0000 C   0  0  0  0  0  0  0  0  0  0  0  0
   11.4712    1.8283    0.0000 C   0  0  0  0  0  0  0  0  0  0  0  0
   10.0173    1.4593    0.0000 C   0  0  0  0  0  0  0  0  0  0  0  0
    8.5418    1.1893    0.0000 C   0  0  0  0  0  0  0  0  0  0  0  0
    7.0514    1.0196    0.0000 C   0  0  0  0  0  0  0  0  0  0  0  0
    5.5530    0.9508    0.0000 C   0  0  0  0  0  0  0  0  0  0  0  0
    4.0534    0.9834    0.0000 C   0  0  0  0  0  0  0  0  0  0  0  0
    2.5593    1.1172    0.0000 C   0  0  0  0  0  0  0  0  0  0  0  0
    1.0777    1.3515    0.0000 C   0  0  0  0  0  0  0  0  0  0  0  0
    1.7286    0.0000    0.0000 C   0  0  0  0  0  0  0  0  0  0  0  0
    1.0777   -1.3515    0.0000 C   0  0  0  0  0  0  0  0  0  0  0  0
   -0.3846   -1.6852    0.0000 C   0  0  0  0  0  0  0  0  0  0  0  0
   -1.5574   -0.7500    0.0000 C   0  0  0  0  0  0  0  0  0  0  0  0
   -1.5574    0.7500    0.0000 C   0  0  0  0  0  0  0  0  0  0  0  0
   -0.3846    1.6852    0.0000 C   0  0  0  0  0  0  0  0  0  0  0  0
  1  2  1  0
  2  3  1  0
  3  4  1  0
  4  5  1  0
  5  6  1  0
  6  7  1  0
  7  8  1  0
  8  9  1  0
  9 10  1  0
 10 11  1  0
 11 12  1  0
 12 13  1  0
 13 14  1  0
 14 15  1  0
 15 16  1  0
 16 17  1  0
 17 18  1  0
 18 19  1  0
 19 20  1  0
 20 21  1  0
 21 22  1  0
 22 23  1  0
 23 24  1  0
 24 25  1  0
 25 26  1  0
 26 27  1  0
 27 28  1  0
 28 29  1  0
 29 30  1  0
 30 31  1  0
 31 32  1  0
 32 33  1  0
 33 34  1  0
 34 35  1  0
 35 36  1  0
 36 37  1  0
 37 38  1  0
 38 39  1  0
 39 40  1  0
 40 41  1  0
 41 42  1  0
 42 43  1  0
 43 44  1  0
 44 45  1  0
 45 46  1  0
 46 47  1  0
 47 48  1  0
 48 49  1  0
 49 50  1  0
 50 51  1  0
 51 52  1  0
 52 53  1  0
 53 54  1  0
 54 55  1  0
 55 56  1  0
 56 57  1  0
 57 58  1  0
 58 59  1  0
 59 60  1  0
 60 61  1  0
 61 62  1  0
 62 63  1  0
 63 64  1  0
 64 65  1  0
 65 66  1  0
 66 67  1  0
 67 68  1  0
 68 69  1  0
 69 70  1  0
 70 71  1  0
 71 72  1  0
 72 73  1  0
 73 74  1  0
 74 75  1  0
 75 76  1  0
 76 77  1  0
 77 78  1  0
 78 79  1  0
 79 80  1  0
 80 81  1  0
 81 82  1  0
 82 83  1  0
 83 84  1  0
 84 85  1  0
 85 86  1  0
 86 87  1  0
 87 88  1  0
 88 89  1  0
 89 90  1  0
 90 91  1  0
 91 92  1  0
 92 93  1  0
 93 94  1  0
 94 95  1  0
 95 96  1  0
 96 97  2  0
 97 98  1  0
 98 99  2  0
 99  2  1  0
 99 93  1  0
M  END
>  <Title>  (256) 
idAAHXgen10

$$$$

     RDKit          2D

 13 13  0  0  0  0  0  0  0  0999 V2000
   12.5260   -1.2990    0.0000 C   0  0  0  0  0  0  0  0  0  0  0  0
   11.7760   -0.0000    0.0000 C   0  0  0  0  0  0  0  0  0  0  0  0
   10.2760   -0.0000    0.0000 C   0  0  0  0  0  0  0  0  0  0  0  0
    8.7760   -0.0000    0.0000 C   0  0  0  0  0  0  0  0  0  0  0  0
    7.2760   -0.0000    0.0000 C   0  0  0  0  0  0  0  0  0  0  0  0
    5.7760   -0.0000    0.0000 C   0  0  0  0  0  0  0  0  0  0  0  0
    4.2760   -0.0000    0.0000 C   0  0  0  0  0  0  0  0  0  0  0  0
    2.7760    0.0000    0.0000 C   0  0  0  0  0  0  0  0  0  0  0  0
    1.2760    0.0000    0.0000 C   0  0  0  0  0  0  0  0  0  0  0  0
    0.3943    1.2135    0.0000 C   0  0  0  0  0  0  0  0  0  0  0  0
   -1.0323    0.7500    0.0000 C   0  0  0  0  0  0  0  0  0  0  0  0
   -1.0323   -0.7500    0.0000 C   0  0  0  0  0  0  0  0  0  0  0  0
    0.3943   -1.2135    0.0000 C   0  0  0  0  0  0  0  0  0  0  0  0
  1  2  2  0
  2  3  1  0
  3  4  3  0
  4  5  1  0
  5  6  3  0
  6  7  1  0
  7  8  3  0
  8  9  1  0
  9 10  2  0
 10 11  1  0
 11 12  2  0
 12 13  1  0
 13  9  1  0
M  END
>  <Title>  (257) 
idAAHYgen10

$$$$

     RDKit          2D

 12 12  0  0  0  0  0  0  0  0999 V2000
   10.2760   -0.0000    0.0000 C   0  0  0  0  0  0  0  0  0  0  0  0
    8.7760   -0.0000    0.0000 C   0  0  0  0  0  0  0  0  0  0  0  0
    7.2760   -0.0000    0.0000 C   0  0  0  0  0  0  0  0  0  0  0  0
    5.7760   -0.0000    0.0000 C   0  0  0  0  0  0  0  0  0  0  0  0
    4.2760   -0.0000    0.0000 C   0  0  0  0  0  0  0  0  0  0  0  0
    2.7760    0.0000    0.0000 C   0  0  0  0  0  0  0  0  0  0  0  0
    1.2760    0.0000    0.0000 C   0  0  0  0  0  0  0  0  0  0  0  0
    0.3943    1.2135    0.0000 C   0  0  0  0  0  0  0  0  0  0  0  0
   -1.0323    0.7500    0.0000 C   0  0  0  0  0  0  0  0  0  0  0  0
   -1.0323   -0.7500    0.0000 C   0  0  0  0  0  0  0  0  0  0  0  0
   -2.2458   -1.6317    0.0000 C   0  0  0  0  0  0  0  0  0  0  0  0
    0.3943   -1.2135    0.0000 C   0  0  0  0  0  0  0  0  0  0  0  0
  1  2  3  0
  2  3  1  0
  3  4  3  0
  4  5  1  0
  5  6  3  0
  6  7  1  0
  7  8  2  0
  8  9  1  0
  9 10  1  0
 10 11  1  0
 10 12  1  0
 12  7  1  0
M  END
>  <Title>  (258) 
idAAHZgen10

$$$$

     RDKit          2D

 15 15  0  0  0  0  0  0  0  0999 V2000
    7.5000    0.0000    0.0000 C   0  0  0  0  0  0  0  0  0  0  0  0
    6.0000    0.0000    0.0000 C   0  0  0  0  0  0  0  0  0  0  0  0
    4.5000    0.0000    0.0000 C   0  0  0  0  0  0  0  0  0  0  0  0
    3.0000    0.0000    0.0000 C   0  0  0  0  0  0  0  0  0  0  0  0
    1.5000    0.0000    0.0000 C   0  0  0  0  0  0  0  0  0  0  0  0
    0.7500   -1.2990    0.0000 C   0  0  0  0  0  0  0  0  0  0  0  0
   -0.7500   -1.2990    0.0000 C   0  0  0  0  0  0  0  0  0  0  0  0
   -1.5000    0.0000    0.0000 C   0  0  0  0  0  0  0  0  0  0  0  0
   -0.7500    1.2990    0.0000 C   0  0  0  0  0  0  0  0  0  0  0  0
    0.7500    1.2990    0.0000 C   0  0  0  0  0  0  0  0  0  0  0  0
    1.5000    2.5981    0.0000 C   0  0  0  0  0  0  0  0  0  0  0  0
    3.0000    2.5981    0.0000 O   0  0  0  0  0  0  0  0  0  0  0  0
    0.7500    3.8971    0.0000 O   0  0  0  0  0  0  0  0  0  0  0  0
    1.5000    5.1962    0.0000 C   0  0  0  0  0  0  0  0  0  0  0  0
    0.7500    6.4952    0.0000 C   0  0  0  0  0  0  0  0  0  0  0  0
  1  2  3  0
  2  3  1  0
  3  4  3  0
  4  5  1  0
  5  6  2  0
  6  7  1  0
  7  8  2  0
  8  9  1  0
  9 10  2  0
 10 11  1  0
 11 12  2  0
 11 13  1  0
 13 14  1  0
 14 15  1  0
 10  5  1  0
M  END
>  <Title>  (259) 
idAAIAgen10

$$$$

     RDKit          2D

  9  9  0  0  0  0  0  0  0  0999 V2000
    5.2500   -1.2990    0.0000 C   0  0  0  0  0  0  0  0  0  0  0  0
    3.7500   -1.2990    0.0000 O   0  0  0  0  0  0  0  0  0  0  0  0
    3.0000    0.0000    0.0000 C   0  0  0  0  0  0  0  0  0  0  0  0
    1.5000    0.0000    0.0000 C   0  0  0  0  0  0  0  0  0  0  0  0
    0.7500   -1.2990    0.0000 C   0  0  0  0  0  0  0  0  0  0  0  0
   -0.7500   -1.2990    0.0000 C   0  0  0  0  0  0  0  0  0  0  0  0
   -1.5000    0.0000    0.0000 C   0  0  0  0  0  0  0  0  0  0  0  0
   -0.7500    1.2990    0.0000 C   0  0  0  0  0  0  0  0  0  0  0  0
    0.7500    1.2990    0.0000 C   0  0  0  0  0  0  0  0  0  0  0  0
  1  2  1  0
  2  3  1  0
  3  4  1  0
  4  5  2  0
  5  6  1  0
  6  7  2  0
  7  8  1  0
  8  9  2  0
  9  4  1  0
M  END
>  <Title>  (260) 
idAAIBgen10

$$$$

     RDKit          2D

  7  7  0  0  0  0  0  0  0  0999 V2000
    3.0000    0.0000    0.0000 C   0  0  0  0  0  0  0  0  0  0  0  0
    1.5000    0.0000    0.0000 C   0  0  0  0  0  0  0  0  0  0  0  0
    0.7500   -1.2990    0.0000 C   0  0  0  0  0  0  0  0  0  0  0  0
   -0.7500   -1.2990    0.0000 C   0  0  0  0  0  0  0  0  0  0  0  0
   -1.5000    0.0000    0.0000 C   0  0  0  0  0  0  0  0  0  0  0  0
   -0.7500    1.2990    0.0000 C   0  0  0  0  0  0  0  0  0  0  0  0
    0.7500    1.2990    0.0000 C   0  0  0  0  0  0  0  0  0  0  0  0
  1  2  1  0
  2  3  2  0
  3  4  1  0
  4  5  1  0
  5  6  2  0
  6  7  2  0
  7  2  1  0
M  END
>  <Title>  (261) 
idAAICgen10

$$$$

     RDKit          2D

  6  5  0  0  0  0  0  0  0  0999 V2000
    0.0000    0.0000    0.0000 C   0  0  0  0  0  0  0  0  0  0  0  0
   -0.0000   -1.5000    0.0000 C   0  0  0  0  0  0  0  0  0  0  0  0
   -0.0000   -3.0000    0.0000 C   0  0  0  0  0  0  0  0  0  0  0  0
   -0.0000   -4.5000    0.0000 C   0  0  0  0  0  0  0  0  0  0  0  0
   -0.0000   -6.0000    0.0000 C   0  0  0  0  0  0  0  0  0  0  0  0
    1.2990   -6.7500    0.0000 O   0  0  0  0  0  0  0  0  0  0  0  0
  1  2  3  0
  2  3  1  0
  3  4  3  0
  4  5  1  0
  5  6  1  0
M  END
>  <Title>  (262) 
idAAIDgen10

$$$$

     RDKit          2D

 12 12  0  0  0  0  0  0  0  0999 V2000
    4.5000   -2.5981    0.0000 C   0  0  0  0  0  0  0  0  0  0  0  0
    3.7500   -1.2990    0.0000 C   0  0  0  0  0  0  0  0  0  0  0  0
    3.0000    0.0000    0.0000 C   0  0  0  0  0  0  0  0  0  0  0  0
    3.7500    1.2990    0.0000 O   0  0  0  0  0  0  0  0  0  0  0  0
    1.5000    0.0000    0.0000 C   0  0  0  0  0  0  0  0  0  0  0  0
    0.7500   -1.2990    0.0000 C   0  0  0  0  0  0  0  0  0  0  0  0
   -0.7500   -1.2990    0.0000 C   0  0  0  0  0  0  0  0  0  0  0  0
   -1.5000   -2.5981    0.0000 C   0  0  0  0  0  0  0  0  0  0  0  0
   -1.5000    0.0000    0.0000 C   0  0  0  0  0  0  0  0  0  0  0  0
   -0.7500    1.2990    0.0000 C   0  0  0  0  0  0  0  0  0  0  0  0
    0.7500    1.2990    0.0000 C   0  0  0  0  0  0  0  0  0  0  0  0
    1.5000    2.5981    0.0000 C   0  0  0  0  0  0  0  0  0  0  0  0
  1  2  3  0
  2  3  1  0
  3  4  2  0
  3  5  1  0
  5  6  2  0
  6  7  1  0
  7  8  1  0
  7  9  2  0
  9 10  1  0
 10 11  2  0
 11 12  1  0
 11  5  1  0
M  END
>  <Title>  (263) 
idAAIEgen10

$$$$

     RDKit          2D

 13 13  0  0  0  0  0  0  0  0999 V2000
   12.5260   -1.2990    0.0000 C   0  0  0  0  0  0  0  0  0  0  0  0
   11.0260   -1.2990    0.0000 C   0  0  0  0  0  0  0  0  0  0  0  0
    9.5260   -1.2990    0.0000 C   0  0  0  0  0  0  0  0  0  0  0  0
    8.0260   -1.2990    0.0000 C   0  0  0  0  0  0  0  0  0  0  0  0
    6.5260   -1.2990    0.0000 C   0  0  0  0  0  0  0  0  0  0  0  0
    5.7760   -0.0000    0.0000 C   0  0  0  0  0  0  0  0  0  0  0  0
    4.2760   -0.0000    0.0000 C   0  0  0  0  0  0  0  0  0  0  0  0
    2.7760    0.0000    0.0000 C   0  0  0  0  0  0  0  0  0  0  0  0
    1.2760    0.0000    0.0000 C   0  0  0  0  0  0  0  0  0  0  0  0
    0.3943    1.2135    0.0000 C   0  0  0  0  0  0  0  0  0  0  0  0
   -1.0323    0.7500    0.0000 C   0  0  0  0  0  0  0  0  0  0  0  0
   -1.0323   -0.7500    0.0000 C   0  0  0  0  0  0  0  0  0  0  0  0
    0.3943   -1.2135    0.0000 C   0  0  0  0  0  0  0  0  0  0  0  0
  1  2  3  0
  2  3  1  0
  3  4  3  0
  4  5  1  0
  5  6  2  3
  6  7  1  0
  7  8  3  0
  8  9  1  0
  9 10  2  0
 10 11  1  0
 11 12  2  0
 12 13  1  0
 13  9  1  0
M  END
>  <Title>  (264) 
idAAIFgen10

$$$$

     RDKit          2D

 10 10  0  0  0  0  0  0  0  0999 V2000
    4.5000   -2.5981    0.0000 C   0  0  0  0  0  0  0  0  0  0  0  0
    3.7500   -1.2990    0.0000 C   0  0  0  0  0  0  0  0  0  0  0  0
    3.0000    0.0000    0.0000 C   0  0  0  0  0  0  0  0  0  0  0  0
    3.7500    1.2990    0.0000 O   0  0  0  0  0  0  0  0  0  0  0  0
    1.5000    0.0000    0.0000 C   0  0  0  0  0  0  0  0  0  0  0  0
    0.7500   -1.2990    0.0000 C   0  0  0  0  0  0  0  0  0  0  0  0
   -0.7500   -1.2990    0.0000 C   0  0  0  0  0  0  0  0  0  0  0  0
   -1.5000    0.0000    0.0000 C   0  0  0  0  0  0  0  0  0  0  0  0
   -0.7500    1.2990    0.0000 C   0  0  0  0  0  0  0  0  0  0  0  0
    0.7500    1.2990    0.0000 C   0  0  0  0  0  0  0  0  0  0  0  0
  1  2  3  0
  2  3  1  0
  3  4  2  0
  3  5  1  0
  5  6  2  0
  6  7  1  0
  7  8  2  0
  8  9  1  0
  9 10  2  0
 10  5  1  0
M  END
>  <Title>  (265) 
idAAIGgen10

$$$$

     RDKit          2D

 17 18  0  0  0  0  0  0  0  0999 V2000
    3.7500    1.2990    0.0000 C   0  0  0  0  0  0  0  0  0  0  0  0
    3.0000    0.0000    0.0000 C   0  0  0  0  0  0  0  0  0  0  0  0
    1.5000    0.0000    0.0000 C   0  0  0  0  0  0  0  0  0  0  0  0
    0.7500   -1.2990    0.0000 C   0  0  0  0  0  0  0  0  0  0  0  0
    1.5000   -2.5981    0.0000 C   0  0  0  0  0  0  0  0  0  0  0  0
    0.7500   -3.8971    0.0000 C   0  0  0  0  0  0  0  0  0  0  0  0
    1.5000   -5.1962    0.0000 C   0  0  0  0  0  0  0  0  0  0  0  0
    3.0000   -5.1962    0.0000 C   0  0  0  0  0  0  0  0  0  0  0  0
    3.7500   -3.8971    0.0000 C   0  0  0  0  0  0  0  0  0  0  0  0
    3.0000   -2.5981    0.0000 C   0  0  0  0  0  0  0  0  0  0  0  0
   -0.7500   -1.2990    0.0000 C   0  0  0  0  0  0  0  0  0  0  0  0
   -1.5000   -2.5981    0.0000 C   0  0  0  0  0  0  0  0  0  0  0  0
   -1.5000    0.0000    0.0000 C   0  0  0  0  0  0  0  0  0  0  0  0
   -0.7500    1.2990    0.0000 C   0  0  0  0  0  0  0  0  0  0  0  0
   -1.5000    2.5981    0.0000 C   0  0  0  0  0  0  0  0  0  0  0  0
    0.7500    1.2990    0.0000 N   0  0  0  0  0  0  0  0  0  0  0  0
    1.5000    2.5981    0.0000 C   0  0  0  0  0  0  0  0  0  0  0  0
  1  2  1  0
  2  3  1  0
  3  4  1  0
  4  5  1  0
  5  6  2  0
  6  7  1  0
  7  8  2  0
  8  9  1  0
  9 10  2  0
  4 11  1  0
 11 12  1  0
 11 13  2  0
 13 14  1  0
 14 15  1  0
 14 16  1  0
 16 17  1  0
 16  3  1  0
 10  5  1  0
M  END
>  <Title>  (266) 
idAAIHgen10

$$$$

     RDKit          2D

 10 10  0  0  0  0  0  0  0  0999 V2000
    5.2500   -1.2990    0.0000 C   0  0  0  0  0  0  0  0  0  0  0  0
    3.7500   -1.2990    0.0000 C   0  0  0  0  0  0  0  0  0  0  0  0
    3.0000   -2.5981    0.0000 O   0  0  0  0  0  0  0  0  0  0  0  0
    3.0000    0.0000    0.0000 N   0  0  0  0  0  0  0  0  0  0  0  0
    1.5000    0.0000    0.0000 C   0  0  0  0  0  0  0  0  0  0  0  0
    0.7500   -1.2990    0.0000 C   0  0  0  0  0  0  0  0  0  0  0  0
   -0.7500   -1.2990    0.0000 C   0  0  0  0  0  0  0  0  0  0  0  0
   -1.5000    0.0000    0.0000 C   0  0  0  0  0  0  0  0  0  0  0  0
   -0.7500    1.2990    0.0000 C   0  0  0  0  0  0  0  0  0  0  0  0
    0.7500    1.2990    0.0000 C   0  0  0  0  0  0  0  0  0  0  0  0
  1  2  1  0
  2  3  2  0
  2  4  1  0
  4  5  1  0
  5  6  2  0
  6  7  1  0
  7  8  1  0
  8  9  2  0
  9 10  1  0
 10  5  1  0
M  END
>  <Title>  (267) 
idAAIIgen10

$$$$

     RDKit          2D

 11 11  0  0  0  0  0  0  0  0999 V2000
    4.7286   -2.5981    0.0000 C   0  0  0  0  0  0  0  0  0  0  0  0
    3.9786   -1.2990    0.0000 C   0  0  0  0  0  0  0  0  0  0  0  0
    3.2286   -0.0000    0.0000 C   0  0  0  0  0  0  0  0  0  0  0  0
    3.9786    1.2990    0.0000 O   0  0  0  0  0  0  0  0  0  0  0  0
    1.7286    0.0000    0.0000 C   0  0  0  0  0  0  0  0  0  0  0  0
    1.0777    1.3515    0.0000 C   0  0  0  0  0  0  0  0  0  0  0  0
   -0.3846    1.6852    0.0000 C   0  0  0  0  0  0  0  0  0  0  0  0
   -1.5574    0.7500    0.0000 C   0  0  0  0  0  0  0  0  0  0  0  0
   -1.5574   -0.7500    0.0000 C   0  0  0  0  0  0  0  0  0  0  0  0
   -0.3846   -1.6852    0.0000 C   0  0  0  0  0  0  0  0  0  0  0  0
    1.0777   -1.3515    0.0000 C   0  0  0  0  0  0  0  0  0  0  0  0
  1  2  3  0
  2  3  1  0
  3  4  2  0
  3  5  1  0
  5  6  2  0
  6  7  1  0
  7  8  2  0
  8  9  1  0
  9 10  1  0
 10 11  2  0
 11  5  1  0
M  END
>  <Title>  (268) 
idAAIJgen10

$$$$

     RDKit          2D

  9  9  0  0  0  0  0  0  0  0999 V2000
    3.7500    1.2990    0.0000 O   0  0  0  0  0  0  0  0  0  0  0  0
    3.0000    0.0000    0.0000 C   0  0  0  0  0  0  0  0  0  0  0  0
    3.7500   -1.2990    0.0000 O   0  0  0  0  0  0  0  0  0  0  0  0
    1.5000    0.0000    0.0000 C   0  0  0  0  0  0  0  0  0  0  0  0
    0.7500   -1.2990    0.0000 C   0  0  0  0  0  0  0  0  0  0  0  0
   -0.7500   -1.2990    0.0000 C   0  0  0  0  0  0  0  0  0  0  0  0
   -1.5000    0.0000    0.0000 C   0  0  0  0  0  0  0  0  0  0  0  0
   -0.7500    1.2990    0.0000 C   0  0  0  0  0  0  0  0  0  0  0  0
    0.7500    1.2990    0.0000 C   0  0  0  0  0  0  0  0  0  0  0  0
  1  2  2  0
  2  3  1  0
  2  4  1  0
  4  5  2  0
  5  6  1  0
  6  7  2  0
  7  8  1  0
  8  9  2  0
  9  4  1  0
M  END
>  <Title>  (269) 
idAAIKgen10

$$$$

     RDKit          2D

 14 14  0  0  0  0  0  0  0  0999 V2000
   11.2500    1.2990    0.0000 C   0  0  0  0  0  0  0  0  0  0  0  0
    9.7500    1.2990    0.0000 C   0  0  0  0  0  0  0  0  0  0  0  0
    9.0000    0.0000    0.0000 C   0  0  0  0  0  0  0  0  0  0  0  0
    9.7500   -1.2990    0.0000 C   0  0  0  0  0  0  0  0  0  0  0  0
    7.5000    0.0000    0.0000 C   0  0  0  0  0  0  0  0  0  0  0  0
    6.0000    0.0000    0.0000 C   0  0  0  0  0  0  0  0  0  0  0  0
    4.5000    0.0000    0.0000 C   0  0  0  0  0  0  0  0  0  0  0  0
    3.0000    0.0000    0.0000 C   0  0  0  0  0  0  0  0  0  0  0  0
    1.5000    0.0000    0.0000 C   0  0  0  0  0  0  0  0  0  0  0  0
    0.7500   -1.2990    0.0000 C   0  0  0  0  0  0  0  0  0  0  0  0
   -0.7500   -1.2990    0.0000 C   0  0  0  0  0  0  0  0  0  0  0  0
   -1.5000    0.0000    0.0000 C   0  0  0  0  0  0  0  0  0  0  0  0
   -0.7500    1.2990    0.0000 C   0  0  0  0  0  0  0  0  0  0  0  0
    0.7500    1.2990    0.0000 C   0  0  0  0  0  0  0  0  0  0  0  0
  1  2  1  0
  2  3  1  0
  3  4  1  0
  3  5  1  0
  5  6  3  0
  6  7  1  0
  7  8  3  0
  8  9  1  0
  9 10  2  0
 10 11  1  0
 11 12  2  0
 12 13  1  0
 13 14  2  0
 14  9  1  0
M  END
>  <Title>  (270) 
idAAILgen10

$$$$

     RDKit          2D

  9 10  0  0  0  0  0  0  0  0999 V2000
   -0.0000   -3.6073    0.0000 C   0  0  0  0  0  0  0  0  0  0  0  0
    1.2135   -2.7256    0.0000 C   0  0  0  0  0  0  0  0  0  0  0  0
    0.7500   -1.2990    0.0000 C   0  0  0  0  0  0  0  0  0  0  0  0
    1.5000    0.0000    0.0000 C   0  0  0  0  0  0  0  0  0  0  0  0
    0.7500    1.2990    0.0000 C   0  0  0  0  0  0  0  0  0  0  0  0
   -0.7500    1.2990    0.0000 C   0  0  0  0  0  0  0  0  0  0  0  0
   -1.5000    0.0000    0.0000 C   0  0  0  0  0  0  0  0  0  0  0  0
   -0.7500   -1.2990    0.0000 C   0  0  0  0  0  0  0  0  0  0  0  0
   -1.2135   -2.7256    0.0000 C   0  0  0  0  0  0  0  0  0  0  0  0
  1  2  2  0
  2  3  1  0
  3  4  2  0
  4  5  1  0
  5  6  2  0
  6  7  1  0
  7  8  2  0
  8  9  1  0
  9  1  1  0
  8  3  1  0
M  END
>  <Title>  (271) 
idAAIMgen10

$$$$

     RDKit          2D

  8  7  0  0  0  0  0  0  0  0999 V2000
    0.0000    0.0000    0.0000 C   0  0  0  0  0  0  0  0  0  0  0  0
    1.2990    0.7500    0.0000 C   0  0  0  0  0  0  0  0  0  0  0  0
    2.5981   -0.0000    0.0000 C   0  0  0  0  0  0  0  0  0  0  0  0
    3.8971   -0.7500    0.0000 C   0  0  0  0  0  0  0  0  0  0  0  0
    5.1962   -1.5000    0.0000 C   0  0  0  0  0  0  0  0  0  0  0  0
    6.4952   -2.2500    0.0000 C   0  0  0  0  0  0  0  0  0  0  0  0
    7.7942   -3.0000    0.0000 C   0  0  0  0  0  0  0  0  0  0  0  0
    9.0933   -3.7500    0.0000 N   0  0  0  0  0  0  0  0  0  0  0  0
  1  2  2  0
  2  3  1  0
  3  4  3  0
  4  5  1  0
  5  6  3  0
  6  7  1  0
  7  8  3  0
M  END
>  <Title>  (272) 
idAAINgen10

$$$$

     RDKit          2D

 11 11  0  0  0  0  0  0  0  0999 V2000
    7.5000    0.0000    0.0000 C   0  0  0  0  0  0  0  0  0  0  0  0
    6.0000    0.0000    0.0000 C   0  0  0  0  0  0  0  0  0  0  0  0
    4.5000    0.0000    0.0000 C   0  0  0  0  0  0  0  0  0  0  0  0
    3.0000    0.0000    0.0000 C   0  0  0  0  0  0  0  0  0  0  0  0
    1.5000    0.0000    0.0000 C   0  0  0  0  0  0  0  0  0  0  0  0
    0.7500   -1.2990    0.0000 C   0  0  0  0  0  0  0  0  0  0  0  0
   -0.7500   -1.2990    0.0000 C   0  0  0  0  0  0  0  0  0  0  0  0
   -1.5000   -2.5981    0.0000 C   0  0  0  0  0  0  0  0  0  0  0  0
   -1.5000    0.0000    0.0000 C   0  0  0  0  0  0  0  0  0  0  0  0
   -0.7500    1.2990    0.0000 C   0  0  0  0  0  0  0  0  0  0  0  0
    0.7500    1.2990    0.0000 N   0  0  0  0  0  0  0  0  0  0  0  0
  1  2  3  0
  2  3  1  0
  3  4  3  0
  4  5  1  0
  5  6  2  0
  6  7  1  0
  7  8  1  0
  7  9  2  0
  9 10  1  0
 10 11  2  0
 11  5  1  0
M  END
>  <Title>  (273) 
idAAIOgen10

$$$$

     RDKit          2D

 21 22  0  0  0  0  0  0  0  0999 V2000
    5.7760   -5.1962    0.0000 C   0  0  0  0  0  0  0  0  0  0  0  0
    5.0260   -3.8971    0.0000 C   0  0  0  0  0  0  0  0  0  0  0  0
    4.2760   -2.5981    0.0000 C   0  0  0  0  0  0  0  0  0  0  0  0
    3.5260   -1.2990    0.0000 C   0  0  0  0  0  0  0  0  0  0  0  0
    2.7760    0.0000    0.0000 C   0  0  0  0  0  0  0  0  0  0  0  0
    1.2760    0.0000    0.0000 C   0  0  0  0  0  0  0  0  0  0  0  0
    0.3943    1.2135    0.0000 C   0  0  0  0  0  0  0  0  0  0  0  0
   -1.0323    0.7500    0.0000 C   0  0  0  0  0  0  0  0  0  0  0  0
   -2.2458    1.6317    0.0000 C   0  0  0  0  0  0  0  0  0  0  0  0
   -1.0323   -0.7500    0.0000 C   0  0  0  0  0  0  0  0  0  0  0  0
   -2.2458   -1.6317    0.0000 O   0  0  0  0  0  0  0  0  0  0  0  0
    0.3943   -1.2135    0.0000 C   0  0  0  0  0  0  0  0  0  0  0  0
    0.8578   -2.6401    0.0000 C   0  0  0  0  0  0  0  0  0  0  0  0
   -0.1459   -3.7548    0.0000 C   0  0  0  0  0  0  0  0  0  0  0  0
    0.3177   -5.1814    0.0000 C   0  0  0  0  0  0  0  0  0  0  0  0
   -0.6860   -6.2961    0.0000 C   0  0  0  0  0  0  0  0  0  0  0  0
   -0.2225   -7.7227    0.0000 C   0  0  0  0  0  0  0  0  0  0  0  0
    1.2041   -8.1862    0.0000 C   0  0  0  0  0  0  0  0  0  0  0  0
    1.2041   -9.6862    0.0000 C   0  0  0  0  0  0  0  0  0  0  0  0
   -0.2225  -10.1498    0.0000 C   0  0  0  0  0  0  0  0  0  0  0  0
   -1.1042   -8.9362    0.0000 C   0  0  0  0  0  0  0  0  0  0  0  0
  1  2  3  0
  2  3  1  0
  3  4  3  0
  4  5  1  0
  5  6  1  0
  6  7  1  0
  7  8  1  0
  8  9  1  0
  8 10  1  0
 10 11  2  0
 10 12  1  0
 12 13  2  3
 13 14  1  0
 14 15  2  3
 15 16  1  0
 16 17  2  3
 17 18  1  0
 18 19  2  0
 19 20  1  0
 20 21  2  0
 12  6  1  0
 21 17  1  0
M  END
>  <Title>  (274) 
idAAIPgen10

$$$$

     RDKit          2D

  8  8  0  0  0  0  0  0  0  0999 V2000
    5.0260   -1.2990    0.0000 C   0  0  0  0  0  0  0  0  0  0  0  0
    3.5260   -1.2990    0.0000 C   0  0  0  0  0  0  0  0  0  0  0  0
    2.7760    0.0000    0.0000 C   0  0  0  0  0  0  0  0  0  0  0  0
    1.2760    0.0000    0.0000 N   0  0  0  0  0  0  0  0  0  0  0  0
    0.3943    1.2135    0.0000 C   0  0  0  0  0  0  0  0  0  0  0  0
   -1.0323    0.7500    0.0000 C   0  0  0  0  0  0  0  0  0  0  0  0
   -1.0323   -0.7500    0.0000 C   0  0  0  0  0  0  0  0  0  0  0  0
    0.3943   -1.2135    0.0000 C   0  0  0  0  0  0  0  0  0  0  0  0
  1  2  2  0
  2  3  1  0
  3  4  1  0
  4  5  1  0
  5  6  1  0
  6  7  2  0
  7  8  1  0
  8  4  1  0
M  END
>  <Title>  (275) 
idAAIQgen10

$$$$

     RDKit          2D

 19 20  0  0  0  0  0  0  0  0999 V2000
    6.7500   -1.2990    0.0000 C   0  0  0  0  0  0  0  0  0  0  0  0
    5.2500   -1.2990    0.0000 C   0  0  0  0  0  0  0  0  0  0  0  0
    3.7500   -1.2990    0.0000 C   0  0  0  0  0  0  0  0  0  0  0  0
    3.0000   -2.5981    0.0000 O   0  0  0  0  0  0  0  0  0  0  0  0
    3.0000    0.0000    0.0000 N   0  0  0  0  0  0  0  0  0  0  0  0
    1.5000    0.0000    0.0000 C   0  0  0  0  0  0  0  0  0  0  0  0
    0.7500   -1.2990    0.0000 C   0  0  0  0  0  0  0  0  0  0  0  0
   -0.7500   -1.2990    0.0000 C   0  0  0  0  0  0  0  0  0  0  0  0
   -1.5000    0.0000    0.0000 C   0  0  0  0  0  0  0  0  0  0  0  0
   -0.7500    1.2990    0.0000 C   0  0  0  0  0  0  0  0  0  0  0  0
    0.7500    1.2990    0.0000 C   0  0  0  0  0  0  0  0  0  0  0  0
    1.5000    2.5981    0.0000 N   0  0  0  0  0  0  0  0  0  0  0  0
    3.0000    2.5981    0.0000 C   0  0  0  0  0  0  0  0  0  0  0  0
    3.7500    3.8971    0.0000 C   0  0  0  0  0  0  0  0  0  0  0  0
    3.0000    5.1962    0.0000 C   0  0  0  0  0  0  0  0  0  0  0  0
    3.7500    6.4952    0.0000 C   0  0  0  0  0  0  0  0  0  0  0  0
    4.5000    7.7942    0.0000 C   0  0  0  0  0  0  0  0  0  0  0  0
    1.5000    5.1962    0.0000 C   0  0  0  0  0  0  0  0  0  0  0  0
    0.7500    3.8971    0.0000 C   0  0  0  0  0  0  0  0  0  0  0  0
  1  2  3  0
  2  3  1  0
  3  4  2  0
  3  5  1  0
  5  6  1  0
  6  7  2  0
  7  8  1  0
  8  9  2  0
  9 10  1  0
 10 11  2  0
 11 12  1  0
 12 13  1  0
 13 14  2  0
 14 15  1  0
 15 16  1  0
 16 17  3  0
 15 18  1  0
 18 19  1  0
 11  6  1  0
 19 12  1  0
M  END
>  <Title>  (276) 
idAAIRgen10

$$$$

     RDKit          2D

 11 12  0  0  0  0  0  0  0  0999 V2000
   -4.7084   -3.0832    0.0000 C   0  0  0  0  0  0  0  0  0  0  0  0
   -3.2595   -3.4715    0.0000 C   0  0  0  0  0  0  0  0  0  0  0  0
   -1.8107   -3.8597    0.0000 C   0  0  0  0  0  0  0  0  0  0  0  0
   -0.7500   -2.7990    0.0000 N   0  0  0  0  0  0  0  0  0  0  0  0
    0.7500   -2.7990    0.0000 C   0  0  0  0  0  0  0  0  0  0  0  0
    0.7500   -1.2990    0.0000 C   0  0  0  0  0  0  0  0  0  0  0  0
    1.5000    0.0000    0.0000 C   0  0  0  0  0  0  0  0  0  0  0  0
    0.7500    1.2990    0.0000 C   0  0  0  0  0  0  0  0  0  0  0  0
   -0.7500    1.2990    0.0000 C   0  0  0  0  0  0  0  0  0  0  0  0
   -1.5000    0.0000    0.0000 C   0  0  0  0  0  0  0  0  0  0  0  0
   -0.7500   -1.2990    0.0000 C   0  0  0  0  0  0  0  0  0  0  0  0
  1  2  3  0
  2  3  1  0
  3  4  1  0
  4  5  1  0
  5  6  1  0
  6  7  2  0
  7  8  1  0
  8  9  2  0
  9 10  1  0
 10 11  2  0
 11  4  1  0
 11  6  1  0
M  END
>  <Title>  (277) 
idAAISgen10

$$$$

     RDKit          2D

 84 85  0  0  0  0  0  0  0  0999 V2000
   -2.1982   -1.0713    0.0000 C   0  0  0  0  0  0  0  0  0  0  0  0
   -2.4908    0.3998    0.0000 C   0  0  0  0  0  0  0  0  0  0  0  0
   -3.9724    0.1652    0.0000 C   0  0  0  0  0  0  0  0  0  0  0  0
   -5.4677    0.0475    0.0000 C   0  0  0  0  0  0  0  0  0  0  0  0
   -6.9677    0.0475    0.0000 C   0  0  0  0  0  0  0  0  0  0  0  0
   -8.4631    0.1652    0.0000 C   0  0  0  0  0  0  0  0  0  0  0  0
   -9.9447    0.3998    0.0000 C   0  0  0  0  0  0  0  0  0  0  0  0
  -11.4032    0.7500    0.0000 C   0  0  0  0  0  0  0  0  0  0  0  0
  -12.8298    1.2135    0.0000 C   0  0  0  0  0  0  0  0  0  0  0  0
  -14.2156    1.7876    0.0000 C   0  0  0  0  0  0  0  0  0  0  0  0
  -15.5521    2.4685    0.0000 C   0  0  0  0  0  0  0  0  0  0  0  0
  -16.8311    3.2523    0.0000 C   0  0  0  0  0  0  0  0  0  0  0  0
  -18.0446    4.1340    0.0000 C   0  0  0  0  0  0  0  0  0  0  0  0
  -19.1852    5.1081    0.0000 C   0  0  0  0  0  0  0  0  0  0  0  0
  -20.2459    6.1688    0.0000 C   0  0  0  0  0  0  0  0  0  0  0  0
  -21.2201    7.3094    0.0000 C   0  0  0  0  0  0  0  0  0  0  0  0
  -22.1017    8.5229    0.0000 C   0  0  0  0  0  0  0  0  0  0  0  0
  -22.8855    9.8019    0.0000 C   0  0  0  0  0  0  0  0  0  0  0  0
  -23.5665   11.1384    0.0000 C   0  0  0  0  0  0  0  0  0  0  0  0
  -24.1405   12.5242    0.0000 C   0  0  0  0  0  0  0  0  0  0  0  0
  -24.6040   13.9508    0.0000 C   0  0  0  0  0  0  0  0  0  0  0  0
  -24.9542   15.4094    0.0000 C   0  0  0  0  0  0  0  0  0  0  0  0
  -25.1888   16.8909    0.0000 C   0  0  0  0  0  0  0  0  0  0  0  0
  -25.3065   18.3863    0.0000 C   0  0  0  0  0  0  0  0  0  0  0  0
  -25.3065   19.8863    0.0000 C   0  0  0  0  0  0  0  0  0  0  0  0
  -25.1888   21.3816    0.0000 C   0  0  0  0  0  0  0  0  0  0  0  0
  -24.9542   22.8632    0.0000 C   0  0  0  0  0  0  0  0  0  0  0  0
  -24.6040   24.3217    0.0000 C   0  0  0  0  0  0  0  0  0  0  0  0
  -24.1405   25.7483    0.0000 C   0  0  0  0  0  0  0  0  0  0  0  0
  -23.5665   27.1341    0.0000 C   0  0  0  0  0  0  0  0  0  0  0  0
  -22.8855   28.4706    0.0000 C   0  0  0  0  0  0  0  0  0  0  0  0
  -22.1017   29.7496    0.0000 C   0  0  0  0  0  0  0  0  0  0  0  0
  -21.2201   30.9631    0.0000 C   0  0  0  0  0  0  0  0  0  0  0  0
  -20.2459   32.1037    0.0000 C   0  0  0  0  0  0  0  0  0  0  0  0
  -19.1852   33.1644    0.0000 C   0  0  0  0  0  0  0  0  0  0  0  0
  -18.0446   34.1386    0.0000 C   0  0  0  0  0  0  0  0  0  0  0  0
  -16.8311   35.0202    0.0000 C   0  0  0  0  0  0  0  0  0  0  0  0
  -15.5521   35.8040    0.0000 C   0  0  0  0  0  0  0  0  0  0  0  0
  -14.2156   36.4850    0.0000 C   0  0  0  0  0  0  0  0  0  0  0  0
  -12.8298   37.0590    0.0000 C   0  0  0  0  0  0  0  0  0  0  0  0
  -11.4032   37.5225    0.0000 C   0  0  0  0  0  0  0  0  0  0  0  0
   -9.9447   37.8727    0.0000 C   0  0  0  0  0  0  0  0  0  0  0  0
   -8.4631   38.1074    0.0000 C   0  0  0  0  0  0  0  0  0  0  0  0
   -6.9677   38.2250    0.0000 C   0  0  0  0  0  0  0  0  0  0  0  0
   -5.4677   38.2250    0.0000 C   0  0  0  0  0  0  0  0  0  0  0  0
   -3.9724   38.1074    0.0000 C   0  0  0  0  0  0  0  0  0  0  0  0
   -2.4908   37.8727    0.0000 C   0  0  0  0  0  0  0  0  0  0  0  0
   -1.0323   37.5225    0.0000 C   0  0  0  0  0  0  0  0  0  0  0  0
    0.3943   37.0590    0.0000 C   0  0  0  0  0  0  0  0  0  0  0  0
    1.7801   36.4850    0.0000 C   0  0  0  0  0  0  0  0  0  0  0  0
    3.1166   35.8040    0.0000 C   0  0  0  0  0  0  0  0  0  0  0  0
    4.3956   35.0202    0.0000 C   0  0  0  0  0  0  0  0  0  0  0  0
    5.6091   34.1386    0.0000 C   0  0  0  0  0  0  0  0  0  0  0  0
    6.7497   33.1644    0.0000 C   0  0  0  0  0  0  0  0  0  0  0  0
    7.8104   32.1037    0.0000 C   0  0  0  0  0  0  0  0  0  0  0  0
    8.7846   30.9631    0.0000 C   0  0  0  0  0  0  0  0  0  0  0  0
    9.6662   29.7496    0.0000 C   0  0  0  0  0  0  0  0  0  0  0  0
   10.4500   28.4706    0.0000 C   0  0  0  0  0  0  0  0  0  0  0  0
   11.1310   27.1341    0.0000 C   0  0  0  0  0  0  0  0  0  0  0  0
   11.7050   25.7483    0.0000 C   0  0  0  0  0  0  0  0  0  0  0  0
   12.1685   24.3217    0.0000 C   0  0  0  0  0  0  0  0  0  0  0  0
   12.5187   22.8632    0.0000 C   0  0  0  0  0  0  0  0  0  0  0  0
   12.7533   21.3816    0.0000 C   0  0  0  0  0  0  0  0  0  0  0  0
   12.8710   19.8863    0.0000 C   0  0  0  0  0  0  0  0  0  0  0  0
   12.8710   18.3863    0.0000 C   0  0  0  0  0  0  0  0  0  0  0  0
   12.7533   16.8909    0.0000 C   0  0  0  0  0  0  0  0  0  0  0  0
   12.5187   15.4094    0.0000 C   0  0  0  0  0  0  0  0  0  0  0  0
   12.1685   13.9508    0.0000 C   0  0  0  0  0  0  0  0  0  0  0  0
   11.7050   12.5242    0.0000 C   0  0  0  0  0  0  0  0  0  0  0  0
   11.1310   11.1384    0.0000 C   0  0  0  0  0  0  0  0  0  0  0  0
   10.4500    9.8019    0.0000 C   0  0  0  0  0  0  0  0  0  0  0  0
    9.6662    8.5229    0.0000 C   0  0  0  0  0  0  0  0  0  0  0  0
    8.7846    7.3094    0.0000 C   0  0  0  0  0  0  0  0  0  0  0  0
    7.8104    6.1688    0.0000 C   0  0  0  0  0  0  0  0  0  0  0  0
    6.7497    5.1081    0.0000 C   0  0  0  0  0  0  0  0  0  0  0  0
    5.6091    4.1340    0.0000 C   0  0  0  0  0  0  0  0  0  0  0  0
    4.3956    3.2523    0.0000 C   0  0  0  0  0  0  0  0  0  0  0  0
    3.1166    2.4685    0.0000 C   0  0  0  0  0  0  0  0  0  0  0  0
    1.7801    1.7876    0.0000 C   0  0  0  0  0  0  0  0  0  0  0  0
    0.3943    1.2135    0.0000 C   0  0  0  0  0  0  0  0  0  0  0  0
    1.2760    0.0000    0.0000 C   0  0  0  0  0  0  0  0  0  0  0  0
    0.3943   -1.2135    0.0000 C   0  0  0  0  0  0  0  0  0  0  0  0
   -1.0323   -0.7500    0.0000 C   0  0  0  0  0  0  0  0  0  0  0  0
   -1.0323    0.7500    0.0000 C   0  0  0  0  0  0  0  0  0  0  0  0
  1  2  1  0
  2  3  1  0
  3  4  1  0
  4  5  1  0
  5  6  1  0
  6  7  1  0
  7  8  1  0
  8  9  1  0
  9 10  1  0
 10 11  1  0
 11 12  1  0
 12 13  1  0
 13 14  1  0
 14 15  1  0
 15 16  1  0
 16 17  1  0
 17 18  1  0
 18 19  1  0
 19 20  1  0
 20 21  1  0
 21 22  1  0
 22 23  1  0
 23 24  1  0
 24 25  1  0
 25 26  1  0
 26 27  1  0
 27 28  1  0
 28 29  1  0
 29 30  1  0
 30 31  1  0
 31 32  1  0
 32 33  1  0
 33 34  1  0
 34 35  1  0
 35 36  1  0
 36 37  1  0
 37 38  1  0
 38 39  1  0
 39 40  1  0
 40 41  1  0
 41 42  1  0
 42 43  1  0
 43 44  1  0
 44 45  1  0
 45 46  1  0
 46 47  1  0
 47 48  1  0
 48 49  1  0
 49 50  1  0
 50 51  1  0
 51 52  1  0
 52 53  1  0
 53 54  1  0
 54 55  1  0
 55 56  1  0
 56 57  1  0
 57 58  1  0
 58 59  1  0
 59 60  2  0
 60 61  1  0
 61 62  2  0
 62 63  1  0
 63 64  2  0
 64 65  1  0
 65 66  2  0
 66 67  1  0
 67 68  2  0
 68 69  1  0
 69 70  2  0
 70 71  1  0
 71 72  2  0
 72 73  1  0
 73 74  2  0
 74 75  1  0
 75 76  2  0
 76 77  1  0
 77 78  2  0
 78 79  1  0
 79 80  2  0
 80 81  1  0
 81 82  2  0
 82 83  1  0
 83 84  2  0
 84  2  1  0
 84 80  1  0
M  END
>  <Title>  (278) 
idAAITgen10

$$$$

     RDKit          2D

 62 71  0  0  0  0  0  0  0  0999 V2000
    6.2168   -5.0497    0.0000 C   0  0  0  0  0  0  0  0  0  0  0  0
    4.7353   -5.2844    0.0000 C   0  0  0  0  0  0  0  0  0  0  0  0
    4.2718   -3.8578    0.0000 C   0  0  0  0  0  0  0  0  0  0  0  0
    3.3901   -2.6442    0.0000 C   0  0  0  0  0  0  0  0  0  0  0  0
    2.1766   -1.7626    0.0000 C   0  0  0  0  0  0  0  0  0  0  0  0
    2.8576   -0.4261    0.0000 C   0  0  0  0  0  0  0  0  0  0  0  0
    2.0406    0.8320    0.0000 O   0  0  0  0  0  0  0  0  0  0  0  0
    4.3555   -0.3475    0.0000 N   0  0  0  0  0  0  0  0  0  0  0  0
    5.0365    0.9890    0.0000 C   0  0  0  0  0  0  0  0  0  0  0  0
    6.5344    1.0675    0.0000 N   0  0  0  0  0  0  0  0  0  0  0  0
    7.2154    2.4040    0.0000 N   0  0  0  0  0  0  0  0  0  0  0  0
    6.3985    3.6620    0.0000 N   0  0  0  0  0  0  0  0  0  0  0  0
    4.9005    3.5835    0.0000 N   0  0  0  0  0  0  0  0  0  0  0  0
    4.2195    2.2470    0.0000 N   0  0  0  0  0  0  0  0  0  0  0  0
    0.7500   -1.2990    0.0000 C   0  0  0  0  0  0  0  0  0  0  0  0
    1.5000    0.0000    0.0000 C   0  0  0  0  0  0  0  0  0  0  0  0
    0.7500    1.2990    0.0000 C   0  0  0  0  0  0  0  0  0  0  0  0
   -0.7500    1.2990    0.0000 C   0  0  0  0  0  0  0  0  0  0  0  0
   -1.5000    0.0000    0.0000 C   0  0  0  0  0  0  0  0  0  0  0  0
   -0.7500   -1.2990    0.0000 C   0  0  0  0  0  0  0  0  0  0  0  0
   -2.1766   -1.7626    0.0000 C   0  0  0  0  0  0  0  0  0  0  0  0
   -2.3334   -0.2708    0.0000 C   0  0  0  0  0  0  0  0  0  0  0  0
   -3.7037    0.3393    0.0000 C   0  0  0  0  0  0  0  0  0  0  0  0
   -4.9172   -0.5424    0.0000 C   0  0  0  0  0  0  0  0  0  0  0  0
   -4.7604   -2.0341    0.0000 C   0  0  0  0  0  0  0  0  0  0  0  0
   -3.3901   -2.6442    0.0000 C   0  0  0  0  0  0  0  0  0  0  0  0
   -4.2718   -3.8578    0.0000 C   0  0  0  0  0  0  0  0  0  0  0  0
   -5.2755   -2.7430    0.0000 C   0  0  0  0  0  0  0  0  0  0  0  0
   -6.7427   -3.0549    0.0000 C   0  0  0  0  0  0  0  0  0  0  0  0
   -7.2062   -4.4815    0.0000 C   0  0  0  0  0  0  0  0  0  0  0  0
   -6.2025   -5.5962    0.0000 C   0  0  0  0  0  0  0  0  0  0  0  0
   -4.7353   -5.2844    0.0000 C   0  0  0  0  0  0  0  0  0  0  0  0
   -4.7353   -6.7844    0.0000 C   0  0  0  0  0  0  0  0  0  0  0  0
   -6.2025   -6.4725    0.0000 C   0  0  0  0  0  0  0  0  0  0  0  0
   -7.2062   -7.5872    0.0000 C   0  0  0  0  0  0  0  0  0  0  0  0
   -6.7427   -9.0138    0.0000 C   0  0  0  0  0  0  0  0  0  0  0  0
   -5.2755   -9.3257    0.0000 C   0  0  0  0  0  0  0  0  0  0  0  0
   -4.2718   -8.2109    0.0000 C   0  0  0  0  0  0  0  0  0  0  0  0
   -3.3901   -9.4245    0.0000 C   0  0  0  0  0  0  0  0  0  0  0  0
   -4.7604  -10.0346    0.0000 C   0  0  0  0  0  0  0  0  0  0  0  0
   -4.9172  -11.5263    0.0000 C   0  0  0  0  0  0  0  0  0  0  0  0
   -3.7037  -12.4080    0.0000 C   0  0  0  0  0  0  0  0  0  0  0  0
   -2.3334  -11.7979    0.0000 C   0  0  0  0  0  0  0  0  0  0  0  0
   -2.1766  -10.3061    0.0000 C   0  0  0  0  0  0  0  0  0  0  0  0
   -0.7500  -10.7697    0.0000 C   0  0  0  0  0  0  0  0  0  0  0  0
   -1.5000  -12.0687    0.0000 C   0  0  0  0  0  0  0  0  0  0  0  0
   -0.7500  -13.3677    0.0000 C   0  0  0  0  0  0  0  0  0  0  0  0
    0.7500  -13.3677    0.0000 C   0  0  0  0  0  0  0  0  0  0  0  0
    1.5000  -12.0687    0.0000 C   0  0  0  0  0  0  0  0  0  0  0  0
    0.7500  -10.7697    0.0000 C   0  0  0  0  0  0  0  0  0  0  0  0
    2.1766  -10.3061    0.0000 C   0  0  0  0  0  0  0  0  0  0  0  0
    2.3334  -11.7979    0.0000 C   0  0  0  0  0  0  0  0  0  0  0  0
    3.7037  -12.4080    0.0000 C   0  0  0  0  0  0  0  0  0  0  0  0
    4.9172  -11.5263    0.0000 C   0  0  0  0  0  0  0  0  0  0  0  0
    4.7604  -10.0346    0.0000 C   0  0  0  0  0  0  0  0  0  0  0  0
    3.3901   -9.4245    0.0000 C   0  0  0  0  0  0  0  0  0  0  0  0
    4.2718   -8.2109    0.0000 C   0  0  0  0  0  0  0  0  0  0  0  0
    5.2755   -9.3257    0.0000 C   0  0  0  0  0  0  0  0  0  0  0  0
    6.7427   -9.0138    0.0000 C   0  0  0  0  0  0  0  0  0  0  0  0
    7.2062   -7.5872    0.0000 C   0  0  0  0  0  0  0  0  0  0  0  0
    6.2025   -6.4725    0.0000 C   0  0  0  0  0  0  0  0  0  0  0  0
    4.7353   -6.7844    0.0000 C   0  0  0  0  0  0  0  0  0  0  0  0
  1  2  1  0
  2  3  1  0
  3  4  2  0
  4  5  1  0
  5  6  1  0
  6  7  2  0
  6  8  1  0
  8  9  1  0
  9 10  2  0
 10 11  1  0
 11 12  2  0
 12 13  1  0
 13 14  2  0
  5 15  1  0
 15 16  2  0
 16 17  1  0
 17 18  2  0
 18 19  1  0
 19 20  2  0
 20 21  1  0
 21 22  2  0
 22 23  1  0
 23 24  2  0
 24 25  1  0
 25 26  2  0
 26 27  1  0
 27 28  2  0
 28 29  1  0
 29 30  2  0
 30 31  1  0
 31 32  2  0
 32 33  1  0
 33 34  2  0
 34 35  1  0
 35 36  2  0
 36 37  1  0
 37 38  2  0
 38 39  1  0
 39 40  2  0
 40 41  1  0
 41 42  2  0
 42 43  1  0
 43 44  2  0
 44 45  1  0
 45 46  2  0
 46 47  1  0
 47 48  2  0
 48 49  1  0
 49 50  2  0
 50 51  1  0
 51 52  2  0
 52 53  1  0
 53 54  2  0
 54 55  1  0
 55 56  2  0
 56 57  1  0
 57 58  2  0
 58 59  1  0
 59 60  2  0
 60 61  1  0
 61 62  2  0
 62  2  1  0
 14  9  1  0
 20 15  1  0
 26 21  1  0
 32 27  1  0
 38 33  1  0
 44 39  1  0
 50 45  1  0
 56 51  1  0
 62 57  1  0
M  END
>  <Title>  (279) 
idAAIUgen10

$$$$

     RDKit          2D

 17 17  0  0  0  0  0  0  0  0999 V2000
   15.7500   -1.2990    0.0000 C   0  0  0  0  0  0  0  0  0  0  0  0
   15.0000    0.0000    0.0000 C   0  0  0  0  0  0  0  0  0  0  0  0
   13.5000    0.0000    0.0000 C   0  0  0  0  0  0  0  0  0  0  0  0
   12.0000    0.0000    0.0000 C   0  0  0  0  0  0  0  0  0  0  0  0
   10.5000    0.0000    0.0000 C   0  0  0  0  0  0  0  0  0  0  0  0
    9.0000    0.0000    0.0000 C   0  0  0  0  0  0  0  0  0  0  0  0
    7.5000    0.0000    0.0000 C   0  0  0  0  0  0  0  0  0  0  0  0
    6.0000    0.0000    0.0000 C   0  0  0  0  0  0  0  0  0  0  0  0
    4.5000    0.0000    0.0000 C   0  0  0  0  0  0  0  0  0  0  0  0
    3.0000    0.0000    0.0000 C   0  0  0  0  0  0  0  0  0  0  0  0
    1.5000    0.0000    0.0000 C   0  0  0  0  0  0  0  0  0  0  0  0
    0.7500   -1.2990    0.0000 C   0  0  0  0  0  0  0  0  0  0  0  0
   -0.7500   -1.2990    0.0000 C   0  0  0  0  0  0  0  0  0  0  0  0
   -1.5000    0.0000    0.0000 C   0  0  0  0  0  0  0  0  0  0  0  0
   -0.7500    1.2990    0.0000 C   0  0  0  0  0  0  0  0  0  0  0  0
    0.7500    1.2990    0.0000 C   0  0  0  0  0  0  0  0  0  0  0  0
    1.5000    2.5981    0.0000 O   0  0  0  0  0  0  0  0  0  0  0  0
  1  2  2  0
  2  3  1  0
  3  4  3  0
  4  5  1  0
  5  6  3  0
  6  7  1  0
  7  8  3  0
  8  9  1  0
  9 10  3  0
 10 11  1  0
 11 12  2  0
 12 13  1  0
 13 14  2  0
 14 15  1  0
 15 16  2  0
 16 17  1  0
 16 11  1  0
M  END
>  <Title>  (280) 
idAAIVgen10

$$$$

     RDKit          2D

  5  4  0  0  0  0  0  0  0  0999 V2000
    0.0000    0.0000    0.0000 C   0  0  0  0  0  0  0  0  0  0  0  0
    1.2990    0.7500    0.0000 C   0  0  0  0  0  0  0  0  0  0  0  0
    2.5981    1.5000    0.0000 C   0  0  0  0  0  0  0  0  0  0  0  0
    2.0490   -0.5490    0.0000 C   0  0  0  0  0  0  0  0  0  0  0  0
    0.5490    2.0490    0.0000 N   0  0  0  0  0  0  0  0  0  0  0  0
  1  2  1  0
  2  3  1  0
  2  4  1  0
  2  5  1  0
M  END
>  <Title>  (281) 
idAAIWgen10

$$$$

     RDKit          2D

109110  0  0  0  0  0  0  0  0999 V2000
   -0.0138   -3.0508    0.0000 C   0  0  0  0  0  0  0  0  0  0  0  0
    1.2449   -3.8665    0.0000 C   0  0  0  0  0  0  0  0  0  0  0  0
    0.4708   -5.1513    0.0000 C   0  0  0  0  0  0  0  0  0  0  0  0
   -0.2177   -6.4840    0.0000 C   0  0  0  0  0  0  0  0  0  0  0  0
   -0.8175   -7.8588    0.0000 C   0  0  0  0  0  0  0  0  0  0  0  0
   -1.3262   -9.2700    0.0000 C   0  0  0  0  0  0  0  0  0  0  0  0
   -1.7414  -10.7113    0.0000 C   0  0  0  0  0  0  0  0  0  0  0  0
   -2.0615  -12.1768    0.0000 C   0  0  0  0  0  0  0  0  0  0  0  0
   -2.2851  -13.6600    0.0000 C   0  0  0  0  0  0  0  0  0  0  0  0
   -2.4112  -15.1547    0.0000 C   0  0  0  0  0  0  0  0  0  0  0  0
   -2.4392  -16.6545    0.0000 C   0  0  0  0  0  0  0  0  0  0  0  0
   -2.3691  -18.1528    0.0000 C   0  0  0  0  0  0  0  0  0  0  0  0
   -2.2012  -19.6434    0.0000 C   0  0  0  0  0  0  0  0  0  0  0  0
   -1.9361  -21.1198    0.0000 C   0  0  0  0  0  0  0  0  0  0  0  0
   -1.5750  -22.5757    0.0000 C   0  0  0  0  0  0  0  0  0  0  0  0
   -1.1195  -24.0049    0.0000 C   0  0  0  0  0  0  0  0  0  0  0  0
   -0.5715  -25.4012    0.0000 C   0  0  0  0  0  0  0  0  0  0  0  0
    0.0667  -26.7586    0.0000 C   0  0  0  0  0  0  0  0  0  0  0  0
    0.7922  -28.0715    0.0000 C   0  0  0  0  0  0  0  0  0  0  0  0
    1.6021  -29.3340    0.0000 C   0  0  0  0  0  0  0  0  0  0  0  0
    2.4929  -30.5409    0.0000 C   0  0  0  0  0  0  0  0  0  0  0  0
    3.4606  -31.6870    0.0000 C   0  0  0  0  0  0  0  0  0  0  0  0
    4.5013  -32.7673    0.0000 C   0  0  0  0  0  0  0  0  0  0  0  0
    5.6103  -33.7772    0.0000 C   0  0  0  0  0  0  0  0  0  0  0  0
    6.7831  -34.7125    0.0000 C   0  0  0  0  0  0  0  0  0  0  0  0
    8.0145  -35.5690    0.0000 C   0  0  0  0  0  0  0  0  0  0  0  0
    9.2993  -36.3432    0.0000 C   0  0  0  0  0  0  0  0  0  0  0  0
   10.6319  -37.0316    0.0000 C   0  0  0  0  0  0  0  0  0  0  0  0
   12.0068  -37.6315    0.0000 C   0  0  0  0  0  0  0  0  0  0  0  0
   13.4179  -38.1401    0.0000 C   0  0  0  0  0  0  0  0  0  0  0  0
   14.8593  -38.5554    0.0000 C   0  0  0  0  0  0  0  0  0  0  0  0
   16.3247  -38.8755    0.0000 C   0  0  0  0  0  0  0  0  0  0  0  0
   17.8080  -39.0990    0.0000 C   0  0  0  0  0  0  0  0  0  0  0  0
   19.3027  -39.2251    0.0000 C   0  0  0  0  0  0  0  0  0  0  0  0
   20.8024  -39.2531    0.0000 C   0  0  0  0  0  0  0  0  0  0  0  0
   22.3008  -39.1830    0.0000 C   0  0  0  0  0  0  0  0  0  0  0  0
   23.7913  -39.0151    0.0000 C   0  0  0  0  0  0  0  0  0  0  0  0
   25.2677  -38.7500    0.0000 C   0  0  0  0  0  0  0  0  0  0  0  0
   26.7236  -38.3890    0.0000 C   0  0  0  0  0  0  0  0  0  0  0  0
   28.1528  -37.9334    0.0000 C   0  0  0  0  0  0  0  0  0  0  0  0
   29.5491  -37.3854    0.0000 C   0  0  0  0  0  0  0  0  0  0  0  0
   30.9066  -36.7473    0.0000 C   0  0  0  0  0  0  0  0  0  0  0  0
   32.2194  -36.0217    0.0000 C   0  0  0  0  0  0  0  0  0  0  0  0
   33.4820  -35.2118    0.0000 C   0  0  0  0  0  0  0  0  0  0  0  0
   34.6889  -34.3211    0.0000 C   0  0  0  0  0  0  0  0  0  0  0  0
   35.8349  -33.3533    0.0000 C   0  0  0  0  0  0  0  0  0  0  0  0
   36.9152  -32.3127    0.0000 C   0  0  0  0  0  0  0  0  0  0  0  0
   37.9252  -31.2036    0.0000 C   0  0  0  0  0  0  0  0  0  0  0  0
   38.8604  -30.0309    0.0000 C   0  0  0  0  0  0  0  0  0  0  0  0
   39.7169  -28.7995    0.0000 C   0  0  0  0  0  0  0  0  0  0  0  0
   40.4911  -27.5147    0.0000 C   0  0  0  0  0  0  0  0  0  0  0  0
   41.1796  -26.1820    0.0000 C   0  0  0  0  0  0  0  0  0  0  0  0
   41.7794  -24.8072    0.0000 C   0  0  0  0  0  0  0  0  0  0  0  0
   42.2880  -23.3960    0.0000 C   0  0  0  0  0  0  0  0  0  0  0  0
   42.7033  -21.9546    0.0000 C   0  0  0  0  0  0  0  0  0  0  0  0
   43.0234  -20.4892    0.0000 C   0  0  0  0  0  0  0  0  0  0  0  0
   43.2470  -19.0060    0.0000 C   0  0  0  0  0  0  0  0  0  0  0  0
   43.3730  -17.5113    0.0000 C   0  0  0  0  0  0  0  0  0  0  0  0
   43.4011  -16.0115    0.0000 C   0  0  0  0  0  0  0  0  0  0  0  0
   43.3310  -14.5132    0.0000 C   0  0  0  0  0  0  0  0  0  0  0  0
   43.1630  -13.0226    0.0000 C   0  0  0  0  0  0  0  0  0  0  0  0
   42.8980  -11.5462    0.0000 C   0  0  0  0  0  0  0  0  0  0  0  0
   42.5369  -10.0903    0.0000 C   0  0  0  0  0  0  0  0  0  0  0  0
   42.0814   -8.6611    0.0000 C   0  0  0  0  0  0  0  0  0  0  0  0
   41.5334   -7.2648    0.0000 C   0  0  0  0  0  0  0  0  0  0  0  0
   40.8952   -5.9074    0.0000 C   0  0  0  0  0  0  0  0  0  0  0  0
   40.1696   -4.5945    0.0000 C   0  0  0  0  0  0  0  0  0  0  0  0
   39.3597   -3.3319    0.0000 C   0  0  0  0  0  0  0  0  0  0  0  0
   38.4690   -2.1251    0.0000 C   0  0  0  0  0  0  0  0  0  0  0  0
   37.5012   -0.9790    0.0000 C   0  0  0  0  0  0  0  0  0  0  0  0
   36.4606    0.1013    0.0000 C   0  0  0  0  0  0  0  0  0  0  0  0
   35.3515    1.1112    0.0000 C   0  0  0  0  0  0  0  0  0  0  0  0
   34.1788    2.0465    0.0000 C   0  0  0  0  0  0  0  0  0  0  0  0
   32.9474    2.9030    0.0000 C   0  0  0  0  0  0  0  0  0  0  0  0
   31.6626    3.6772    0.0000 C   0  0  0  0  0  0  0  0  0  0  0  0
   30.3299    4.3656    0.0000 C   0  0  0  0  0  0  0  0  0  0  0  0
   28.9551    4.9655    0.0000 C   0  0  0  0  0  0  0  0  0  0  0  0
   27.5440    5.4741    0.0000 C   0  0  0  0  0  0  0  0  0  0  0  0
   26.1026    5.8894    0.0000 C   0  0  0  0  0  0  0  0  0  0  0  0
   24.6371    6.2095    0.0000 C   0  0  0  0  0  0  0  0  0  0  0  0
   23.1539    6.4330    0.0000 C   0  0  0  0  0  0  0  0  0  0  0  0
   21.6592    6.5591    0.0000 C   0  0  0  0  0  0  0  0  0  0  0  0
   20.1595    6.5872    0.0000 C   0  0  0  0  0  0  0  0  0  0  0  0
   18.6611    6.5171    0.0000 C   0  0  0  0  0  0  0  0  0  0  0  0
   17.1705    6.3491    0.0000 C   0  0  0  0  0  0  0  0  0  0  0  0
   15.6941    6.0840    0.0000 C   0  0  0  0  0  0  0  0  0  0  0  0
   14.2382    5.7230    0.0000 C   0  0  0  0  0  0  0  0  0  0  0  0
   12.8091    5.2674    0.0000 C   0  0  0  0  0  0  0  0  0  0  0  0
   11.4128    4.7194    0.0000 C   0  0  0  0  0  0  0  0  0  0  0  0
   10.0553    4.0813    0.0000 C   0  0  0  0  0  0  0  0  0  0  0  0
    8.7425    3.3557    0.0000 C   0  0  0  0  0  0  0  0  0  0  0  0
    7.4799    2.5458    0.0000 C   0  0  0  0  0  0  0  0  0  0  0  0
    6.2730    1.6551    0.0000 C   0  0  0  0  0  0  0  0  0  0  0  0
    5.1269    0.6873    0.0000 C   0  0  0  0  0  0  0  0  0  0  0  0
    4.0466   -0.3533    0.0000 C   0  0  0  0  0  0  0  0  0  0  0  0
    3.0367   -1.4624    0.0000 C   0  0  0  0  0  0  0  0  0  0  0  0
    3.3705    0.0000    0.0000 C   0  0  0  0  0  0  0  0  0  0  0  0
    3.0367    1.4624    0.0000 C   0  0  0  0  0  0  0  0  0  0  0  0
    2.1015    2.6351    0.0000 C   0  0  0  0  0  0  0  0  0  0  0  0
    0.7500    3.2860    0.0000 C   0  0  0  0  0  0  0  0  0  0  0  0
   -0.7500    3.2860    0.0000 C   0  0  0  0  0  0  0  0  0  0  0  0
   -2.1015    2.6351    0.0000 C   0  0  0  0  0  0  0  0  0  0  0  0
   -3.0367    1.4624    0.0000 C   0  0  0  0  0  0  0  0  0  0  0  0
   -3.3705    0.0000    0.0000 C   0  0  0  0  0  0  0  0  0  0  0  0
   -3.0367   -1.4624    0.0000 C   0  0  0  0  0  0  0  0  0  0  0  0
   -2.1015   -2.6351    0.0000 C   0  0  0  0  0  0  0  0  0  0  0  0
   -0.7500   -3.2860    0.0000 C   0  0  0  0  0  0  0  0  0  0  0  0
    0.7500   -3.2860    0.0000 C   0  0  0  0  0  0  0  0  0  0  0  0
    2.1015   -2.6351    0.0000 C   0  0  0  0  0  0  0  0  0  0  0  0
  1  2  1  0
  2  3  1  0
  3  4  1  0
  4  5  1  0
  5  6  1  0
  6  7  1  0
  7  8  1  0
  8  9  1  0
  9 10  1  0
 10 11  1  0
 11 12  1  0
 12 13  1  0
 13 14  1  0
 14 15  1  0
 15 16  1  0
 16 17  1  0
 17 18  1  0
 18 19  1  0
 19 20  1  0
 20 21  1  0
 21 22  1  0
 22 23  1  0
 23 24  1  0
 24 25  1  0
 25 26  1  0
 26 27  1  0
 27 28  1  0
 28 29  1  0
 29 30  1  0
 30 31  1  0
 31 32  1  0
 32 33  1  0
 33 34  1  0
 34 35  1  0
 35 36  1  0
 36 37  1  0
 37 38  1  0
 38 39  1  0
 39 40  1  0
 40 41  1  0
 41 42  1  0
 42 43  1  0
 43 44  1  0
 44 45  1  0
 45 46  1  0
 46 47  1  0
 47 48  1  0
 48 49  1  0
 49 50  1  0
 50 51  1  0
 51 52  1  0
 52 53  1  0
 53 54  1  0
 54 55  1  0
 55 56  1  0
 56 57  1  0
 57 58  1  0
 58 59  1  0
 59 60  1  0
 60 61  1  0
 61 62  1  0
 62 63  1  0
 63 64  1  0
 64 65  1  0
 65 66  1  0
 66 67  1  0
 67 68  1  0
 68 69  1  0
 69 70  1  0
 70 71  1  0
 71 72  1  0
 72 73  1  0
 73 74  1  0
 74 75  1  0
 75 76  1  0
 76 77  1  0
 77 78  1  0
 78 79  1  0
 79 80  1  0
 80 81  1  0
 81 82  1  0
 82 83  1  0
 83 84  1  0
 84 85  1  0
 85 86  1  0
 86 87  1  0
 87 88  1  0
 88 89  1  0
 89 90  1  0
 90 91  1  0
 91 92  1  0
 92 93  1  0
 93 94  1  0
 94 95  1  0
 95 96  2  0
 96 97  1  0
 97 98  1  0
 98 99  1  0
 99100  1  0
100101  1  0
101102  1  0
102103  1  0
103104  1  0
104105  2  0
105106  1  0
106107  2  0
107108  1  0
108109  2  0
109  2  1  0
109 96  1  0
M  END
>  <Title>  (282) 
idAAIXgen10

$$$$

     RDKit          2D

 30 33  0  0  0  0  0  0  0  0999 V2000
   -5.5757    3.4136    0.0000 C   0  0  0  0  0  0  0  0  0  0  0  0
   -4.0778    3.4921    0.0000 C   0  0  0  0  0  0  0  0  0  0  0  0
   -3.7659    4.9594    0.0000 C   0  0  0  0  0  0  0  0  0  0  0  0
   -2.7622    6.0741    0.0000 C   0  0  0  0  0  0  0  0  0  0  0  0
   -3.6439    7.2876    0.0000 C   0  0  0  0  0  0  0  0  0  0  0  0
   -2.7622    8.5011    0.0000 C   0  0  0  0  0  0  0  0  0  0  0  0
   -1.3356    8.0376    0.0000 C   0  0  0  0  0  0  0  0  0  0  0  0
   -0.1221    8.9193    0.0000 N   0  0  0  0  0  0  0  0  0  0  0  0
   -0.2789   10.4111    0.0000 C   0  0  0  0  0  0  0  0  0  0  0  0
   -1.6492   11.0212    0.0000 O   0  0  0  0  0  0  0  0  0  0  0  0
    0.9347   11.2928    0.0000 N   0  0  0  0  0  0  0  0  0  0  0  0
    0.7779   12.7845    0.0000 C   0  0  0  0  0  0  0  0  0  0  0  0
    1.9914   13.6662    0.0000 N   0  0  0  0  0  0  0  0  0  0  0  0
    1.8346   15.1580    0.0000 N   0  0  0  0  0  0  0  0  0  0  0  0
    0.4643   15.7681    0.0000 N   0  0  0  0  0  0  0  0  0  0  0  0
   -0.7492   14.8864    0.0000 N   0  0  0  0  0  0  0  0  0  0  0  0
   -0.5925   13.3946    0.0000 N   0  0  0  0  0  0  0  0  0  0  0  0
   -1.3356    6.5376    0.0000 C   0  0  0  0  0  0  0  0  0  0  0  0
    0.1316    6.2257    0.0000 C   0  0  0  0  0  0  0  0  0  0  0  0
    1.2463    5.2220    0.0000 C   0  0  0  0  0  0  0  0  0  0  0  0
    1.7099    3.7955    0.0000 C   0  0  0  0  0  0  0  0  0  0  0  0
    1.3980    2.3282    0.0000 C   0  0  0  0  0  0  0  0  0  0  0  0
    0.3943    1.2135    0.0000 C   0  0  0  0  0  0  0  0  0  0  0  0
    1.2760    0.0000    0.0000 C   0  0  0  0  0  0  0  0  0  0  0  0
    0.3943   -1.2135    0.0000 C   0  0  0  0  0  0  0  0  0  0  0  0
   -1.0323   -0.7500    0.0000 C   0  0  0  0  0  0  0  0  0  0  0  0
   -1.0323    0.7500    0.0000 C   0  0  0  0  0  0  0  0  0  0  0  0
   -2.4995    1.0619    0.0000 C   0  0  0  0  0  0  0  0  0  0  0  0
   -3.1805   -0.2746    0.0000 C   0  0  0  0  0  0  0  0  0  0  0  0
   -3.6142    2.0656    0.0000 C   0  0  0  0  0  0  0  0  0  0  0  0
  1  2  1  0
  2  3  2  0
  3  4  1  0
  4  5  2  0
  5  6  1  0
  6  7  2  0
  7  8  1  0
  8  9  1  0
  9 10  2  0
  9 11  1  0
 11 12  1  0
 12 13  2  0
 13 14  1  0
 14 15  2  0
 15 16  1  0
 16 17  2  0
  7 18  1  0
 18 19  2  0
 19 20  1  0
 20 21  2  0
 21 22  1  0
 22 23  2  0
 23 24  1  0
 24 25  2  0
 25 26  1  0
 26 27  2  0
 27 28  1  0
 28 29  1  0
 28 30  2  0
 30  2  1  0
 18  4  1  0
 27 23  1  0
 17 12  1  0
M  END
>  <Title>  (283) 
idAAIYgen10

$$$$

     RDKit          2D

  7  7  0  0  0  0  0  0  0  0999 V2000
    3.0000    0.0000    0.0000 C   0  0  0  0  0  0  0  0  0  0  0  0
    1.5000    0.0000    0.0000 N   0  0  0  0  0  0  0  0  0  0  0  0
    0.7500   -1.2990    0.0000 C   0  0  0  0  0  0  0  0  0  0  0  0
   -0.7500   -1.2990    0.0000 C   0  0  0  0  0  0  0  0  0  0  0  0
   -1.5000    0.0000    0.0000 C   0  0  0  0  0  0  0  0  0  0  0  0
   -0.7500    1.2990    0.0000 C   0  0  0  0  0  0  0  0  0  0  0  0
    0.7500    1.2990    0.0000 C   0  0  0  0  0  0  0  0  0  0  0  0
  1  2  1  0
  2  3  1  0
  3  4  1  0
  4  5  1  0
  5  6  1  0
  6  7  1  0
  7  2  1  0
M  END
>  <Title>  (284) 
idAAIZgen10

$$$$

     RDKit          2D

  6  5  0  0  0  0  0  0  0  0999 V2000
    0.0000    0.0000    0.0000 C   0  0  0  0  0  0  0  0  0  0  0  0
   -0.0000   -1.5000    0.0000 C   0  0  0  0  0  0  0  0  0  0  0  0
   -0.0000   -3.0000    0.0000 C   0  0  0  0  0  0  0  0  0  0  0  0
   -0.0000   -4.5000    0.0000 C   0  0  0  0  0  0  0  0  0  0  0  0
   -0.0000   -6.0000    0.0000 C   0  0  0  0  0  0  0  0  0  0  0  0
    1.2990   -6.7500    0.0000 C   0  0  0  0  0  0  0  0  0  0  0  0
  1  2  3  0
  2  3  1  0
  3  4  3  0
  4  5  1  0
  5  6  1  0
M  END
>  <Title>  (285) 
idAAJAgen10

$$$$

     RDKit          2D

 18 19  0  0  0  0  0  0  0  0999 V2000
    4.9876  -10.4138    0.0000 C   0  0  0  0  0  0  0  0  0  0  0  0
    4.8308   -8.9221    0.0000 C   0  0  0  0  0  0  0  0  0  0  0  0
    4.6740   -7.4303    0.0000 C   0  0  0  0  0  0  0  0  0  0  0  0
    5.8875   -6.5486    0.0000 O   0  0  0  0  0  0  0  0  0  0  0  0
    3.3037   -6.8202    0.0000 N   0  0  0  0  0  0  0  0  0  0  0  0
    2.9918   -5.3529    0.0000 C   0  0  0  0  0  0  0  0  0  0  0  0
    1.5000   -5.1962    0.0000 C   0  0  0  0  0  0  0  0  0  0  0  0
    0.7500   -3.8971    0.0000 C   0  0  0  0  0  0  0  0  0  0  0  0
   -0.7500   -3.8971    0.0000 O   0  0  0  0  0  0  0  0  0  0  0  0
    1.5000   -2.5981    0.0000 O   0  0  0  0  0  0  0  0  0  0  0  0
    0.7500   -1.2990    0.0000 C   0  0  0  0  0  0  0  0  0  0  0  0
    1.5000    0.0000    0.0000 N   0  0  0  0  0  0  0  0  0  0  0  0
    0.7500    1.2990    0.0000 N   0  0  0  0  0  0  0  0  0  0  0  0
   -0.7500    1.2990    0.0000 N   0  0  0  0  0  0  0  0  0  0  0  0
   -1.5000    0.0000    0.0000 N   0  0  0  0  0  0  0  0  0  0  0  0
   -0.7500   -1.2990    0.0000 N   0  0  0  0  0  0  0  0  0  0  0  0
    0.8899   -6.5665    0.0000 C   0  0  0  0  0  0  0  0  0  0  0  0
    2.0046   -7.5702    0.0000 C   0  0  0  0  0  0  0  0  0  0  0  0
  1  2  3  0
  2  3  1  0
  3  4  2  0
  3  5  1  0
  5  6  1  0
  6  7  2  0
  7  8  1  0
  8  9  2  0
  8 10  1  0
 10 11  1  0
 11 12  2  0
 12 13  1  0
 13 14  2  0
 14 15  1  0
 15 16  2  0
  7 17  1  0
 17 18  1  0
 18  5  1  0
 16 11  1  0
M  END
>  <Title>  (286) 
idAAJBgen10

$$$$

     RDKit          2D

 15 16  0  0  0  0  0  0  0  0999 V2000
    4.1621    0.0000    0.0000 C   0  0  0  0  0  0  0  0  0  0  0  0
    2.6621    0.0000    0.0000 C   0  0  0  0  0  0  0  0  0  0  0  0
    2.2395    1.4392    0.0000 C   0  0  0  0  0  0  0  0  0  0  0  0
    1.1059    2.4215    0.0000 C   0  0  0  0  0  0  0  0  0  0  0  0
   -0.3789    2.6350    0.0000 C   0  0  0  0  0  0  0  0  0  0  0  0
   -1.7433    2.0119    0.0000 C   0  0  0  0  0  0  0  0  0  0  0  0
   -3.0052    2.8228    0.0000 C   0  0  0  0  0  0  0  0  0  0  0  0
   -3.3240    4.2886    0.0000 O   0  0  0  0  0  0  0  0  0  0  0  0
   -3.8161    1.5610    0.0000 N   0  0  0  0  0  0  0  0  0  0  0  0
   -2.5543    0.7500    0.0000 C   0  0  0  0  0  0  0  0  0  0  0  0
   -2.5543   -0.7500    0.0000 N   0  0  0  0  0  0  0  0  0  0  0  0
   -1.7433   -2.0119    0.0000 N   0  0  0  0  0  0  0  0  0  0  0  0
   -0.3789   -2.6350    0.0000 N   0  0  0  0  0  0  0  0  0  0  0  0
    1.1059   -2.4215    0.0000 N   0  0  0  0  0  0  0  0  0  0  0  0
    2.2395   -1.4392    0.0000 N   0  0  0  0  0  0  0  0  0  0  0  0
  1  2  1  0
  2  3  2  0
  3  4  1  0
  4  5  1  0
  5  6  2  0
  6  7  1  0
  7  8  2  0
  7  9  1  0
  9 10  1  0
 10 11  2  0
 11 12  1  0
 12 13  2  0
 13 14  1  0
 14 15  2  0
 15  2  1  0
 10  6  1  0
M  END
>  <Title>  (287) 
idAAJCgen10

$$$$

     RDKit          2D

 16 17  0  0  0  0  0  0  0  0999 V2000
    4.5000   -2.5981    0.0000 C   0  0  0  0  0  0  0  0  0  0  0  0
    3.7500   -1.2990    0.0000 C   0  0  0  0  0  0  0  0  0  0  0  0
    3.0000    0.0000    0.0000 C   0  0  0  0  0  0  0  0  0  0  0  0
    1.5000    0.0000    0.0000 C   0  0  0  0  0  0  0  0  0  0  0  0
    0.7500   -1.2990    0.0000 C   0  0  0  0  0  0  0  0  0  0  0  0
   -0.7500   -1.2990    0.0000 C   0  0  0  0  0  0  0  0  0  0  0  0
   -1.5000   -2.5981    0.0000 C   0  0  0  0  0  0  0  0  0  0  0  0
   -1.5000    0.0000    0.0000 C   0  0  0  0  0  0  0  0  0  0  0  0
   -0.7500    1.2990    0.0000 C   0  0  0  0  0  0  0  0  0  0  0  0
    0.7500    1.2990    0.0000 C   0  0  0  0  0  0  0  0  0  0  0  0
    1.5000    2.5981    0.0000 C   0  0  0  0  0  0  0  0  0  0  0  0
    3.0000    2.5981    0.0000 C   0  0  0  0  0  0  0  0  0  0  0  0
    3.7500    3.8971    0.0000 C   0  0  0  0  0  0  0  0  0  0  0  0
    3.0000    5.1962    0.0000 C   0  0  0  0  0  0  0  0  0  0  0  0
    1.5000    5.1962    0.0000 C   0  0  0  0  0  0  0  0  0  0  0  0
    0.7500    3.8971    0.0000 C   0  0  0  0  0  0  0  0  0  0  0  0
  1  2  3  0
  2  3  1  0
  3  4  1  0
  4  5  2  0
  5  6  1  0
  6  7  1  0
  6  8  2  0
  8  9  1  0
  9 10  2  0
 10 11  1  0
 11 12  2  0
 12 13  1  0
 13 14  2  0
 14 15  1  0
 15 16  2  0
 10  4  1  0
 16 11  1  0
M  END
>  <Title>  (288) 
idAAJDgen10

$$$$

     RDKit          2D

 91 92  0  0  0  0  0  0  0  0999 V2000
   -2.1842   -1.0769    0.0000 C   0  0  0  0  0  0  0  0  0  0  0  0
   -2.4889    0.3918    0.0000 C   0  0  0  0  0  0  0  0  0  0  0  0
   -3.9678    0.1410    0.0000 C   0  0  0  0  0  0  0  0  0  0  0  0
   -5.4610   -0.0013    0.0000 C   0  0  0  0  0  0  0  0  0  0  0  0
   -5.3734   -1.4987    0.0000 C   0  0  0  0  0  0  0  0  0  0  0  0
   -6.9607   -0.0342    0.0000 N   0  0  0  0  0  0  0  0  0  0  0  0
   -8.4587    0.0425    0.0000 C   0  0  0  0  0  0  0  0  0  0  0  0
   -9.9471    0.2283    0.0000 C   0  0  0  0  0  0  0  0  0  0  0  0
  -11.4180    0.5223    0.0000 C   0  0  0  0  0  0  0  0  0  0  0  0
  -12.8636    0.9229    0.0000 C   0  0  0  0  0  0  0  0  0  0  0  0
  -14.2760    1.4279    0.0000 C   0  0  0  0  0  0  0  0  0  0  0  0
  -15.6478    2.0347    0.0000 C   0  0  0  0  0  0  0  0  0  0  0  0
  -16.9717    2.7400    0.0000 C   0  0  0  0  0  0  0  0  0  0  0  0
  -18.2405    3.5400    0.0000 C   0  0  0  0  0  0  0  0  0  0  0  0
  -19.4475    4.4305    0.0000 C   0  0  0  0  0  0  0  0  0  0  0  0
  -20.5864    5.4068    0.0000 C   0  0  0  0  0  0  0  0  0  0  0  0
  -21.6509    6.4635    0.0000 C   0  0  0  0  0  0  0  0  0  0  0  0
  -22.6354    7.5952    0.0000 C   0  0  0  0  0  0  0  0  0  0  0  0
  -23.5348    8.7957    0.0000 C   0  0  0  0  0  0  0  0  0  0  0  0
  -24.3440   10.0587    0.0000 C   0  0  0  0  0  0  0  0  0  0  0  0
  -25.0590   11.3773    0.0000 C   0  0  0  0  0  0  0  0  0  0  0  0
  -25.6758   12.7447    0.0000 C   0  0  0  0  0  0  0  0  0  0  0  0
  -26.1911   14.1534    0.0000 C   0  0  0  0  0  0  0  0  0  0  0  0
  -26.6022   15.5959    0.0000 C   0  0  0  0  0  0  0  0  0  0  0  0
  -26.9069   17.0647    0.0000 C   0  0  0  0  0  0  0  0  0  0  0  0
  -27.1036   18.5517    0.0000 C   0  0  0  0  0  0  0  0  0  0  0  0
  -27.1912   20.0491    0.0000 C   0  0  0  0  0  0  0  0  0  0  0  0
  -27.1693   21.5490    0.0000 C   0  0  0  0  0  0  0  0  0  0  0  0
  -27.0380   23.0432    0.0000 C   0  0  0  0  0  0  0  0  0  0  0  0
  -26.7979   24.5239    0.0000 C   0  0  0  0  0  0  0  0  0  0  0  0
  -26.4504   25.9831    0.0000 C   0  0  0  0  0  0  0  0  0  0  0  0
  -25.9973   27.4130    0.0000 C   0  0  0  0  0  0  0  0  0  0  0  0
  -25.4410   28.8061    0.0000 C   0  0  0  0  0  0  0  0  0  0  0  0
  -24.7846   30.1548    0.0000 C   0  0  0  0  0  0  0  0  0  0  0  0
  -24.0314   31.4520    0.0000 C   0  0  0  0  0  0  0  0  0  0  0  0
  -23.1856   32.6908    0.0000 C   0  0  0  0  0  0  0  0  0  0  0  0
  -22.2516   33.8645    0.0000 C   0  0  0  0  0  0  0  0  0  0  0  0
  -21.2344   34.9669    0.0000 C   0  0  0  0  0  0  0  0  0  0  0  0
  -20.1394   35.9921    0.0000 C   0  0  0  0  0  0  0  0  0  0  0  0
  -18.9726   36.9347    0.0000 C   0  0  0  0  0  0  0  0  0  0  0  0
  -17.7400   37.7895    0.0000 C   0  0  0  0  0  0  0  0  0  0  0  0
  -16.4483   38.5522    0.0000 C   0  0  0  0  0  0  0  0  0  0  0  0
  -15.1044   39.2185    0.0000 C   0  0  0  0  0  0  0  0  0  0  0  0
  -13.7155   39.7849    0.0000 C   0  0  0  0  0  0  0  0  0  0  0  0
  -12.2889   40.2484    0.0000 C   0  0  0  0  0  0  0  0  0  0  0  0
  -10.8323   40.6066    0.0000 C   0  0  0  0  0  0  0  0  0  0  0  0
   -9.3534   40.8574    0.0000 C   0  0  0  0  0  0  0  0  0  0  0  0
   -7.8602   40.9997    0.0000 C   0  0  0  0  0  0  0  0  0  0  0  0
   -6.3605   41.0326    0.0000 C   0  0  0  0  0  0  0  0  0  0  0  0
   -4.8625   40.9559    0.0000 C   0  0  0  0  0  0  0  0  0  0  0  0
   -3.3741   40.7701    0.0000 C   0  0  0  0  0  0  0  0  0  0  0  0
   -1.9031   40.4761    0.0000 C   0  0  0  0  0  0  0  0  0  0  0  0
   -0.4576   40.0755    0.0000 C   0  0  0  0  0  0  0  0  0  0  0  0
    0.9548   39.5705    0.0000 C   0  0  0  0  0  0  0  0  0  0  0  0
    2.3266   38.9637    0.0000 C   0  0  0  0  0  0  0  0  0  0  0  0
    3.6505   38.2585    0.0000 C   0  0  0  0  0  0  0  0  0  0  0  0
    4.9193   37.4584    0.0000 C   0  0  0  0  0  0  0  0  0  0  0  0
    6.1263   36.5679    0.0000 C   0  0  0  0  0  0  0  0  0  0  0  0
    7.2652   35.5917    0.0000 C   0  0  0  0  0  0  0  0  0  0  0  0
    8.3297   34.5349    0.0000 C   0  0  0  0  0  0  0  0  0  0  0  0
    9.3143   33.4032    0.0000 C   0  0  0  0  0  0  0  0  0  0  0  0
   10.2136   32.2027    0.0000 C   0  0  0  0  0  0  0  0  0  0  0  0
   11.0229   30.9397    0.0000 C   0  0  0  0  0  0  0  0  0  0  0  0
   11.7378   29.6211    0.0000 C   0  0  0  0  0  0  0  0  0  0  0  0
   12.3546   28.2537    0.0000 C   0  0  0  0  0  0  0  0  0  0  0  0
   12.8699   26.8450    0.0000 C   0  0  0  0  0  0  0  0  0  0  0  0
   13.2810   25.4025    0.0000 C   0  0  0  0  0  0  0  0  0  0  0  0
   13.5857   23.9338    0.0000 C   0  0  0  0  0  0  0  0  0  0  0  0
   13.7824   22.4467    0.0000 C   0  0  0  0  0  0  0  0  0  0  0  0
   13.8700   20.9493    0.0000 C   0  0  0  0  0  0  0  0  0  0  0  0
   13.8481   19.4494    0.0000 C   0  0  0  0  0  0  0  0  0  0  0  0
   13.7168   17.9552    0.0000 C   0  0  0  0  0  0  0  0  0  0  0  0
   13.4767   16.4745    0.0000 C   0  0  0  0  0  0  0  0  0  0  0  0
   13.1292   15.0153    0.0000 C   0  0  0  0  0  0  0  0  0  0  0  0
   12.6761   13.5854    0.0000 C   0  0  0  0  0  0  0  0  0  0  0  0
   12.1199   12.1924    0.0000 C   0  0  0  0  0  0  0  0  0  0  0  0
   11.4634   10.8436    0.0000 C   0  0  0  0  0  0  0  0  0  0  0  0
   10.7102    9.5464    0.0000 C   0  0  0  0  0  0  0  0  0  0  0  0
    9.8644    8.3077    0.0000 C   0  0  0  0  0  0  0  0  0  0  0  0
    8.9304    7.1339    0.0000 C   0  0  0  0  0  0  0  0  0  0  0  0
    7.9132    6.0315    0.0000 C   0  0  0  0  0  0  0  0  0  0  0  0
    6.8182    5.0063    0.0000 C   0  0  0  0  0  0  0  0  0  0  0  0
    5.6514    4.0637    0.0000 C   0  0  0  0  0  0  0  0  0  0  0  0
    4.4188    3.2089    0.0000 C   0  0  0  0  0  0  0  0  0  0  0  0
    3.1271    2.4462    0.0000 C   0  0  0  0  0  0  0  0  0  0  0  0
    1.7832    1.7799    0.0000 C   0  0  0  0  0  0  0  0  0  0  0  0
    0.3943    1.2135    0.0000 C   0  0  0  0  0  0  0  0  0  0  0  0
    1.2760    0.0000    0.0000 C   0  0  0  0  0  0  0  0  0  0  0  0
    0.3943   -1.2135    0.0000 C   0  0  0  0  0  0  0  0  0  0  0  0
   -1.0323   -0.7500    0.0000 C   0  0  0  0  0  0  0  0  0  0  0  0
   -1.0323    0.7500    0.0000 C   0  0  0  0  0  0  0  0  0  0  0  0
  1  2  1  0
  2  3  2  0
  3  4  1  0
  4  5  1  0
  4  6  1  0
  6  7  1  0
  7  8  1  0
  8  9  1  0
  9 10  1  0
 10 11  1  0
 11 12  1  0
 12 13  1  0
 13 14  1  0
 14 15  1  0
 15 16  1  0
 16 17  1  0
 17 18  1  0
 18 19  1  0
 19 20  1  0
 20 21  1  0
 21 22  1  0
 22 23  1  0
 23 24  1  0
 24 25  1  0
 25 26  1  0
 26 27  1  0
 27 28  1  0
 28 29  1  0
 29 30  1  0
 30 31  1  0
 31 32  1  0
 32 33  1  0
 33 34  1  0
 34 35  1  0
 35 36  1  0
 36 37  1  0
 37 38  1  0
 38 39  1  0
 39 40  1  0
 40 41  1  0
 41 42  1  0
 42 43  1  0
 43 44  1  0
 44 45  1  0
 45 46  1  0
 46 47  1  0
 47 48  1  0
 48 49  1  0
 49 50  1  0
 50 51  1  0
 51 52  1  0
 52 53  1  0
 53 54  1  0
 54 55  1  0
 55 56  1  0
 56 57  1  0
 57 58  1  0
 58 59  1  0
 59 60  1  0
 60 61  1  0
 61 62  1  0
 62 63  1  0
 63 64  1  0
 64 65  2  0
 65 66  1  0
 66 67  2  0
 67 68  1  0
 68 69  2  0
 69 70  1  0
 70 71  2  0
 71 72  1  0
 72 73  2  0
 73 74  1  0
 74 75  2  0
 75 76  1  0
 76 77  2  0
 77 78  1  0
 78 79  2  0
 79 80  1  0
 80 81  2  0
 81 82  1  0
 82 83  2  0
 83 84  1  0
 84 85  2  0
 85 86  1  0
 86 87  2  0
 87 88  1  0
 88 89  2  0
 89 90  1  0
 90 91  2  0
 91  2  1  0
 91 87  1  0
M  END
>  <Title>  (289) 
idAAJEgen10

$$$$

     RDKit          2D

 13 14  0  0  0  0  0  0  0  0999 V2000
   -4.6100   -1.8042    0.0000 C   0  0  0  0  0  0  0  0  0  0  0  0
   -3.1476   -2.1380    0.0000 C   0  0  0  0  0  0  0  0  0  0  0  0
   -1.6852   -2.4718    0.0000 C   0  0  0  0  0  0  0  0  0  0  0  0
   -1.3515   -3.9342    0.0000 C   0  0  0  0  0  0  0  0  0  0  0  0
   -0.0000   -4.5850    0.0000 C   0  0  0  0  0  0  0  0  0  0  0  0
    1.3515   -3.9342    0.0000 C   0  0  0  0  0  0  0  0  0  0  0  0
    1.6852   -2.4718    0.0000 C   0  0  0  0  0  0  0  0  0  0  0  0
    0.7500   -1.2990    0.0000 C   0  0  0  0  0  0  0  0  0  0  0  0
    1.5000    0.0000    0.0000 C   0  0  0  0  0  0  0  0  0  0  0  0
    0.7500    1.2990    0.0000 C   0  0  0  0  0  0  0  0  0  0  0  0
   -0.7500    1.2990    0.0000 C   0  0  0  0  0  0  0  0  0  0  0  0
   -1.5000    0.0000    0.0000 C   0  0  0  0  0  0  0  0  0  0  0  0
   -0.7500   -1.2990    0.0000 C   0  0  0  0  0  0  0  0  0  0  0  0
  1  2  3  0
  2  3  1  0
  3  4  1  0
  4  5  1  0
  5  6  1  0
  6  7  1  0
  7  8  1  0
  8  9  2  0
  9 10  1  0
 10 11  2  0
 11 12  1  0
 12 13  2  0
 13  3  1  0
 13  8  1  0
M  END
>  <Title>  (290) 
idAAJFgen10

$$$$

     RDKit          2D

  7  7  0  0  0  0  0  0  0  0999 V2000
    4.2760   -0.0000    0.0000 N   0  0  0  0  0  0  0  0  0  0  0  0
    2.7760    0.0000    0.0000 C   0  0  0  0  0  0  0  0  0  0  0  0
    1.2760    0.0000    0.0000 C   0  0  0  0  0  0  0  0  0  0  0  0
    0.3943    1.2135    0.0000 C   0  0  0  0  0  0  0  0  0  0  0  0
   -1.0323    0.7500    0.0000 C   0  0  0  0  0  0  0  0  0  0  0  0
   -1.0323   -0.7500    0.0000 C   0  0  0  0  0  0  0  0  0  0  0  0
    0.3943   -1.2135    0.0000 C   0  0  0  0  0  0  0  0  0  0  0  0
  1  2  3  0
  2  3  1  0
  3  4  2  0
  4  5  1  0
  5  6  1  0
  6  7  2  0
  7  3  1  0
M  END
>  <Title>  (291) 
idAAJGgen10

$$$$

     RDKit          2D

  9  9  0  0  0  0  0  0  0  0999 V2000
    4.5000    0.0000    0.0000 C   0  0  0  0  0  0  0  0  0  0  0  0
    3.0000    0.0000    0.0000 C   0  0  0  0  0  0  0  0  0  0  0  0
    1.5000    0.0000    0.0000 C   0  0  0  0  0  0  0  0  0  0  0  0
    0.7500   -1.2990    0.0000 C   0  0  0  0  0  0  0  0  0  0  0  0
   -0.7500   -1.2990    0.0000 C   0  0  0  0  0  0  0  0  0  0  0  0
   -1.5000    0.0000    0.0000 C   0  0  0  0  0  0  0  0  0  0  0  0
   -0.7500    1.2990    0.0000 C   0  0  0  0  0  0  0  0  0  0  0  0
   -1.5000    2.5981    0.0000 C   0  0  0  0  0  0  0  0  0  0  0  0
    0.7500    1.2990    0.0000 C   0  0  0  0  0  0  0  0  0  0  0  0
  1  2  3  0
  2  3  1  0
  3  4  2  0
  4  5  1  0
  5  6  1  0
  6  7  1  0
  7  8  1  0
  7  9  1  0
  9  3  1  0
M  END
>  <Title>  (292) 
idAAJHgen10

$$$$

     RDKit          2D

 10 10  0  0  0  0  0  0  0  0999 V2000
    4.2760   -2.5981    0.0000 C   0  0  0  0  0  0  0  0  0  0  0  0
    3.5260   -1.2990    0.0000 C   0  0  0  0  0  0  0  0  0  0  0  0
    2.7760    0.0000    0.0000 C   0  0  0  0  0  0  0  0  0  0  0  0
    3.5260    1.2990    0.0000 O   0  0  0  0  0  0  0  0  0  0  0  0
    1.2760    0.0000    0.0000 C   0  0  0  0  0  0  0  0  0  0  0  0
    0.3943    1.2135    0.0000 C   0  0  0  0  0  0  0  0  0  0  0  0
   -1.0323    0.7500    0.0000 C   0  0  0  0  0  0  0  0  0  0  0  0
   -1.0323   -0.7500    0.0000 C   0  0  0  0  0  0  0  0  0  0  0  0
   -2.2458   -1.6317    0.0000 C   0  0  0  0  0  0  0  0  0  0  0  0
    0.3943   -1.2135    0.0000 N   0  0  0  0  0  0  0  0  0  0  0  0
  1  2  3  0
  2  3  1  0
  3  4  2  0
  3  5  1  0
  5  6  2  0
  6  7  1  0
  7  8  2  0
  8  9  1  0
  8 10  1  0
 10  5  1  0
M  END
>  <Title>  (293) 
idAAJIgen10

$$$$

     RDKit          2D

 10 10  0  0  0  0  0  0  0  0999 V2000
    5.2500   -1.2990    0.0000 C   0  0  0  0  0  0  0  0  0  0  0  0
    3.7500   -1.2990    0.0000 C   0  0  0  0  0  0  0  0  0  0  0  0
    3.0000   -2.5981    0.0000 O   0  0  0  0  0  0  0  0  0  0  0  0
    3.0000    0.0000    0.0000 N   0  0  0  0  0  0  0  0  0  0  0  0
    1.5000    0.0000    0.0000 C   0  0  0  0  0  0  0  0  0  0  0  0
    0.7500   -1.2990    0.0000 C   0  0  0  0  0  0  0  0  0  0  0  0
   -0.7500   -1.2990    0.0000 C   0  0  0  0  0  0  0  0  0  0  0  0
   -1.5000    0.0000    0.0000 C   0  0  0  0  0  0  0  0  0  0  0  0
   -0.7500    1.2990    0.0000 C   0  0  0  0  0  0  0  0  0  0  0  0
    0.7500    1.2990    0.0000 C   0  0  0  0  0  0  0  0  0  0  0  0
  1  2  1  0
  2  3  2  0
  2  4  1  0
  4  5  1  0
  5  6  2  0
  6  7  1  0
  7  8  2  0
  8  9  1  0
  9 10  2  0
 10  5  1  0
M  END
>  <Title>  (294) 
idAAJJgen10

$$$$

     RDKit          2D

 10 10  0  0  0  0  0  0  0  0999 V2000
    3.0000    0.0000    0.0000 C   0  0  0  0  0  0  0  0  0  0  0  0
    1.5000    0.0000    0.0000 C   0  0  0  0  0  0  0  0  0  0  0  0
    0.7500   -1.2990    0.0000 C   0  0  0  0  0  0  0  0  0  0  0  0
   -0.7500   -1.2990    0.0000 C   0  0  0  0  0  0  0  0  0  0  0  0
   -1.5000    0.0000    0.0000 C   0  0  0  0  0  0  0  0  0  0  0  0
   -3.0000    0.0000    0.0000 C   0  0  0  0  0  0  0  0  0  0  0  0
   -4.5000    0.0000    0.0000 N   0  0  0  0  0  0  0  0  0  0  0  0
   -0.7500    1.2990    0.0000 C   0  0  0  0  0  0  0  0  0  0  0  0
   -1.5000    2.5981    0.0000 C   0  0  0  0  0  0  0  0  0  0  0  0
    0.7500    1.2990    0.0000 C   0  0  0  0  0  0  0  0  0  0  0  0
  1  2  1  0
  2  3  2  0
  3  4  1  0
  4  5  2  0
  5  6  1  0
  6  7  3  0
  5  8  1  0
  8  9  1  0
  8 10  2  0
 10  2  1  0
M  END
>  <Title>  (295) 
idAAJKgen10

$$$$

     RDKit          2D

 80 81  0  0  0  0  0  0  0  0999 V2000
   13.1932    4.6785    0.0000 C   0  0  0  0  0  0  0  0  0  0  0  0
   13.9617    4.4669    0.0000 C   0  0  0  0  0  0  0  0  0  0  0  0
   14.5616    5.8417    0.0000 C   0  0  0  0  0  0  0  0  0  0  0  0
   15.5246    6.9918    0.0000 C   0  0  0  0  0  0  0  0  0  0  0  0
   16.7726    7.8240    0.0000 C   0  0  0  0  0  0  0  0  0  0  0  0
   18.2044    8.2710    0.0000 C   0  0  0  0  0  0  0  0  0  0  0  0
   19.7042    8.2964    0.0000 C   0  0  0  0  0  0  0  0  0  0  0  0
   21.1504    7.8982    0.0000 C   0  0  0  0  0  0  0  0  0  0  0  0
   22.4258    7.1088    0.0000 C   0  0  0  0  0  0  0  0  0  0  0  0
   23.4272    5.9919    0.0000 C   0  0  0  0  0  0  0  0  0  0  0  0
   24.0733    4.6382    0.0000 C   0  0  0  0  0  0  0  0  0  0  0  0
   24.3119    3.1573    0.0000 C   0  0  0  0  0  0  0  0  0  0  0  0
   24.1237    1.6692    0.0000 C   0  0  0  0  0  0  0  0  0  0  0  0
   23.5237    0.2944    0.0000 C   0  0  0  0  0  0  0  0  0  0  0  0
   22.5608   -0.8557    0.0000 C   0  0  0  0  0  0  0  0  0  0  0  0
   21.3128   -1.6879    0.0000 C   0  0  0  0  0  0  0  0  0  0  0  0
   19.8810   -2.1349    0.0000 C   0  0  0  0  0  0  0  0  0  0  0  0
   18.3812   -2.1603    0.0000 C   0  0  0  0  0  0  0  0  0  0  0  0
   16.9350   -1.7621    0.0000 C   0  0  0  0  0  0  0  0  0  0  0  0
   15.6595   -0.9726    0.0000 C   0  0  0  0  0  0  0  0  0  0  0  0
   14.6582    0.1442    0.0000 C   0  0  0  0  0  0  0  0  0  0  0  0
   14.0120    1.4979    0.0000 C   0  0  0  0  0  0  0  0  0  0  0  0
   13.3919   -0.0000    0.0000 C   0  0  0  0  0  0  0  0  0  0  0  0
   13.3160   -1.4235    0.0000 C   0  0  0  0  0  0  0  0  0  0  0  0
   13.0893   -2.8308    0.0000 C   0  0  0  0  0  0  0  0  0  0  0  0
   12.7142   -4.2061    0.0000 C   0  0  0  0  0  0  0  0  0  0  0  0
   12.1951   -5.5337    0.0000 C   0  0  0  0  0  0  0  0  0  0  0  0
   11.5378   -6.7986    0.0000 C   0  0  0  0  0  0  0  0  0  0  0  0
   10.7498   -7.9865    0.0000 C   0  0  0  0  0  0  0  0  0  0  0  0
    9.8400   -9.0839    0.0000 C   0  0  0  0  0  0  0  0  0  0  0  0
    8.8187  -10.0783    0.0000 C   0  0  0  0  0  0  0  0  0  0  0  0
    7.6975  -10.9586    0.0000 C   0  0  0  0  0  0  0  0  0  0  0  0
    6.4890  -11.7147    0.0000 C   0  0  0  0  0  0  0  0  0  0  0  0
    5.2071  -12.3381    0.0000 C   0  0  0  0  0  0  0  0  0  0  0  0
    3.8661  -12.8217    0.0000 C   0  0  0  0  0  0  0  0  0  0  0  0
    2.4814  -13.1600    0.0000 C   0  0  0  0  0  0  0  0  0  0  0  0
    1.0685  -13.3492    0.0000 C   0  0  0  0  0  0  0  0  0  0  0  0
   -0.3565  -13.3871    0.0000 C   0  0  0  0  0  0  0  0  0  0  0  0
   -1.7774  -13.2734    0.0000 C   0  0  0  0  0  0  0  0  0  0  0  0
   -3.1782  -13.0093    0.0000 C   0  0  0  0  0  0  0  0  0  0  0  0
   -4.5430  -12.5977    0.0000 C   0  0  0  0  0  0  0  0  0  0  0  0
   -5.8564  -12.0435    0.0000 C   0  0  0  0  0  0  0  0  0  0  0  0
   -7.1033  -11.3527    0.0000 C   0  0  0  0  0  0  0  0  0  0  0  0
   -8.2698  -10.5334    0.0000 C   0  0  0  0  0  0  0  0  0  0  0  0
   -9.3426   -9.5947    0.0000 C   0  0  0  0  0  0  0  0  0  0  0  0
  -10.3095   -8.5473    0.0000 C   0  0  0  0  0  0  0  0  0  0  0  0
  -11.1596   -7.4030    0.0000 C   0  0  0  0  0  0  0  0  0  0  0  0
  -11.8833   -6.1749    0.0000 C   0  0  0  0  0  0  0  0  0  0  0  0
  -12.4723   -4.8768    0.0000 C   0  0  0  0  0  0  0  0  0  0  0  0
  -12.9200   -3.5234    0.0000 C   0  0  0  0  0  0  0  0  0  0  0  0
  -13.2214   -2.1302    0.0000 C   0  0  0  0  0  0  0  0  0  0  0  0
  -13.3729   -0.7127    0.0000 C   0  0  0  0  0  0  0  0  0  0  0  0
  -13.3729    0.7127    0.0000 C   0  0  0  0  0  0  0  0  0  0  0  0
  -13.2214    2.1302    0.0000 C   0  0  0  0  0  0  0  0  0  0  0  0
  -12.9200    3.5234    0.0000 C   0  0  0  0  0  0  0  0  0  0  0  0
  -12.4723    4.8768    0.0000 C   0  0  0  0  0  0  0  0  0  0  0  0
  -11.8833    6.1749    0.0000 C   0  0  0  0  0  0  0  0  0  0  0  0
  -11.1596    7.4030    0.0000 C   0  0  0  0  0  0  0  0  0  0  0  0
  -10.3095    8.5473    0.0000 C   0  0  0  0  0  0  0  0  0  0  0  0
   -9.3426    9.5947    0.0000 C   0  0  0  0  0  0  0  0  0  0  0  0
   -8.2698   10.5334    0.0000 C   0  0  0  0  0  0  0  0  0  0  0  0
   -7.1033   11.3527    0.0000 C   0  0  0  0  0  0  0  0  0  0  0  0
   -5.8564   12.0435    0.0000 C   0  0  0  0  0  0  0  0  0  0  0  0
   -4.5430   12.5977    0.0000 C   0  0  0  0  0  0  0  0  0  0  0  0
   -3.1782   13.0093    0.0000 C   0  0  0  0  0  0  0  0  0  0  0  0
   -1.7774   13.2734    0.0000 C   0  0  0  0  0  0  0  0  0  0  0  0
   -0.3565   13.3871    0.0000 C   0  0  0  0  0  0  0  0  0  0  0  0
    1.0685   13.3492    0.0000 C   0  0  0  0  0  0  0  0  0  0  0  0
    2.4814   13.1600    0.0000 C   0  0  0  0  0  0  0  0  0  0  0  0
    3.8661   12.8217    0.0000 C   0  0  0  0  0  0  0  0  0  0  0  0
    5.2071   12.3381    0.0000 C   0  0  0  0  0  0  0  0  0  0  0  0
    6.4890   11.7147    0.0000 C   0  0  0  0  0  0  0  0  0  0  0  0
    7.6975   10.9586    0.0000 C   0  0  0  0  0  0  0  0  0  0  0  0
    8.8187   10.0783    0.0000 C   0  0  0  0  0  0  0  0  0  0  0  0
    9.8400    9.0839    0.0000 C   0  0  0  0  0  0  0  0  0  0  0  0
   10.7498    7.9865    0.0000 C   0  0  0  0  0  0  0  0  0  0  0  0
   11.5378    6.7986    0.0000 C   0  0  0  0  0  0  0  0  0  0  0  0
   12.1951    5.5337    0.0000 C   0  0  0  0  0  0  0  0  0  0  0  0
   12.7142    4.2061    0.0000 C   0  0  0  0  0  0  0  0  0  0  0  0
   13.7734    2.9788    0.0000 C   0  0  0  0  0  0  0  0  0  0  0  0
  1  2  1  0
  2  3  1  0
  3  4  2  0
  4  5  1  0
  5  6  2  0
  6  7  1  0
  7  8  2  0
  8  9  1  0
  9 10  2  0
 10 11  1  0
 11 12  2  0
 12 13  1  0
 13 14  2  0
 14 15  1  0
 15 16  2  0
 16 17  1  0
 17 18  2  0
 18 19  1  0
 19 20  2  0
 20 21  1  0
 21 22  2  0
 22 23  1  0
 23 24  2  0
 24 25  1  0
 25 26  2  0
 26 27  1  0
 27 28  2  0
 28 29  1  0
 29 30  2  0
 30 31  1  0
 31 32  2  0
 32 33  1  0
 33 34  2  0
 34 35  1  0
 35 36  2  0
 36 37  1  0
 37 38  2  0
 38 39  1  0
 39 40  2  0
 40 41  1  0
 41 42  2  0
 42 43  1  0
 43 44  2  0
 44 45  1  0
 45 46  2  0
 46 47  1  0
 47 48  2  0
 48 49  1  0
 49 50  2  0
 50 51  1  0
 51 52  2  0
 52 53  1  0
 53 54  2  0
 54 55  1  0
 55 56  2  0
 56 57  1  0
 57 58  2  0
 58 59  1  0
 59 60  2  0
 60 61  1  0
 61 62  2  0
 62 63  1  0
 63 64  2  0
 64 65  1  0
 65 66  2  0
 66 67  1  0
 67 68  2  0
 68 69  1  0
 69 70  2  0
 70 71  1  0
 71 72  2  0
 72 73  1  0
 73 74  2  0
 74 75  1  0
 75 76  2  0
 76 77  1  0
 77 78  2  0
 78 79  1  0
 79 80  2  0
 80  2  1  0
 80 22  1  0
M  END
>  <Title>  (296) 
idAAJLgen10

$$$$

     RDKit          2D

 22 22  0  0  0  0  0  0  0  0999 V2000
    6.5321    0.0000    0.0000 C   0  0  0  0  0  0  0  0  0  0  0  0
    5.0321    0.0000    0.0000 C   0  0  0  0  0  0  0  0  0  0  0  0
    4.8086    1.4832    0.0000 C   0  0  0  0  0  0  0  0  0  0  0  0
    4.1577    2.8347    0.0000 C   0  0  0  0  0  0  0  0  0  0  0  0
    3.1375    3.9343    0.0000 C   0  0  0  0  0  0  0  0  0  0  0  0
    1.8384    4.6843    0.0000 C   0  0  0  0  0  0  0  0  0  0  0  0
    0.3761    5.0181    0.0000 C   0  0  0  0  0  0  0  0  0  0  0  0
   -1.1198    4.9060    0.0000 C   0  0  0  0  0  0  0  0  0  0  0  0
   -2.5161    4.3580    0.0000 C   0  0  0  0  0  0  0  0  0  0  0  0
   -3.6888    3.4227    0.0000 C   0  0  0  0  0  0  0  0  0  0  0  0
   -4.5338    2.1834    0.0000 C   0  0  0  0  0  0  0  0  0  0  0  0
   -4.9759    0.7500    0.0000 C   0  0  0  0  0  0  0  0  0  0  0  0
   -4.9759   -0.7500    0.0000 C   0  0  0  0  0  0  0  0  0  0  0  0
   -4.5338   -2.1834    0.0000 C   0  0  0  0  0  0  0  0  0  0  0  0
   -3.6888   -3.4227    0.0000 C   0  0  0  0  0  0  0  0  0  0  0  0
   -2.5161   -4.3580    0.0000 C   0  0  0  0  0  0  0  0  0  0  0  0
   -1.1198   -4.9060    0.0000 C   0  0  0  0  0  0  0  0  0  0  0  0
    0.3761   -5.0181    0.0000 C   0  0  0  0  0  0  0  0  0  0  0  0
    1.8384   -4.6843    0.0000 C   0  0  0  0  0  0  0  0  0  0  0  0
    3.1375   -3.9343    0.0000 C   0  0  0  0  0  0  0  0  0  0  0  0
    4.1577   -2.8347    0.0000 C   0  0  0  0  0  0  0  0  0  0  0  0
    4.8086   -1.4832    0.0000 N   0  0  0  0  0  0  0  0  0  0  0  0
  1  2  1  0
  2  3  1  0
  3  4  2  0
  4  5  1  0
  5  6  2  0
  6  7  1  0
  7  8  2  0
  8  9  1  0
  9 10  2  0
 10 11  1  0
 11 12  2  0
 12 13  1  0
 13 14  2  0
 14 15  1  0
 15 16  2  0
 16 17  1  0
 17 18  2  0
 18 19  1  0
 19 20  2  0
 20 21  1  0
 21 22  2  0
 22  2  1  0
M  END
>  <Title>  (297) 
idAAJMgen10

$$$$

     RDKit          2D

  9  9  0  0  0  0  0  0  0  0999 V2000
    4.5000    0.0000    0.0000 C   0  0  0  0  0  0  0  0  0  0  0  0
    3.0000    0.0000    0.0000 C   0  0  0  0  0  0  0  0  0  0  0  0
    1.5000    0.0000    0.0000 C   0  0  0  0  0  0  0  0  0  0  0  0
    0.7500   -1.2990    0.0000 C   0  0  0  0  0  0  0  0  0  0  0  0
   -0.7500   -1.2990    0.0000 C   0  0  0  0  0  0  0  0  0  0  0  0
   -1.5000   -2.5981    0.0000 C   0  0  0  0  0  0  0  0  0  0  0  0
   -1.5000    0.0000    0.0000 C   0  0  0  0  0  0  0  0  0  0  0  0
   -0.7500    1.2990    0.0000 C   0  0  0  0  0  0  0  0  0  0  0  0
    0.7500    1.2990    0.0000 N   0  0  0  0  0  0  0  0  0  0  0  0
  1  2  3  0
  2  3  1  0
  3  4  2  0
  4  5  1  0
  5  6  1  0
  5  7  2  0
  7  8  1  0
  8  9  2  0
  9  3  1  0
M  END
>  <Title>  (298) 
idAAJNgen10

$$$$

     RDKit          2D

 23 24  0  0  0  0  0  0  0  0999 V2000
    7.5000    0.0000    0.0000 C   0  0  0  0  0  0  0  0  0  0  0  0
    6.0000    0.0000    0.0000 C   0  0  0  0  0  0  0  0  0  0  0  0
    4.5000    0.0000    0.0000 C   0  0  0  0  0  0  0  0  0  0  0  0
    3.0000    0.0000    0.0000 C   0  0  0  0  0  0  0  0  0  0  0  0
    1.5000    0.0000    0.0000 C   0  0  0  0  0  0  0  0  0  0  0  0
    0.7500   -1.2990    0.0000 C   0  0  0  0  0  0  0  0  0  0  0  0
    1.5000   -2.5981    0.0000 O   0  0  0  0  0  0  0  0  0  0  0  0
   -0.7500   -1.2990    0.0000 C   0  0  0  0  0  0  0  0  0  0  0  0
   -1.5000   -2.5981    0.0000 C   0  0  0  0  0  0  0  0  0  0  0  0
   -1.5000    0.0000    0.0000 C   0  0  0  0  0  0  0  0  0  0  0  0
   -0.7500    1.2990    0.0000 C   0  0  0  0  0  0  0  0  0  0  0  0
    0.7500    1.2990    0.0000 C   0  0  0  0  0  0  0  0  0  0  0  0
    1.5000    2.5981    0.0000 C   0  0  0  0  0  0  0  0  0  0  0  0
    2.2500    3.8971    0.0000 C   0  0  0  0  0  0  0  0  0  0  0  0
    3.0000    5.1962    0.0000 C   0  0  0  0  0  0  0  0  0  0  0  0
    2.2500    6.4952    0.0000 C   0  0  0  0  0  0  0  0  0  0  0  0
    3.0000    7.7942    0.0000 C   0  0  0  0  0  0  0  0  0  0  0  0
    2.2500    9.0933    0.0000 C   0  0  0  0  0  0  0  0  0  0  0  0
    3.0000   10.3923    0.0000 C   0  0  0  0  0  0  0  0  0  0  0  0
    2.2500   11.6913    0.0000 C   0  0  0  0  0  0  0  0  0  0  0  0
    0.7500   11.6913    0.0000 C   0  0  0  0  0  0  0  0  0  0  0  0
    0.0000   10.3923    0.0000 C   0  0  0  0  0  0  0  0  0  0  0  0
    0.7500    9.0933    0.0000 O   0  0  0  0  0  0  0  0  0  0  0  0
  1  2  3  0
  2  3  1  0
  3  4  3  0
  4  5  1  0
  5  6  1  0
  6  7  2  0
  6  8  1  0
  8  9  1  0
  8 10  2  0
 10 11  1  0
 11 12  2  0
 12 13  1  0
 13 14  3  0
 14 15  1  0
 15 16  2  3
 16 17  1  0
 17 18  2  3
 18 19  1  0
 19 20  1  0
 20 21  2  0
 21 22  1  0
 22 23  1  0
 12  5  1  0
 23 18  1  0
M  END
>  <Title>  (299) 
idAAJOgen10

$$$$

     RDKit          2D

  9  9  0  0  0  0  0  0  0  0999 V2000
    4.5000    0.0000    0.0000 C   0  0  0  0  0  0  0  0  0  0  0  0
    3.0000    0.0000    0.0000 C   0  0  0  0  0  0  0  0  0  0  0  0
    1.5000    0.0000    0.0000 C   0  0  0  0  0  0  0  0  0  0  0  0
    0.7500   -1.2990    0.0000 C   0  0  0  0  0  0  0  0  0  0  0  0
   -0.7500   -1.2990    0.0000 C   0  0  0  0  0  0  0  0  0  0  0  0
   -1.5000    0.0000    0.0000 C   0  0  0  0  0  0  0  0  0  0  0  0
   -0.7500    1.2990    0.0000 C   0  0  0  0  0  0  0  0  0  0  0  0
    0.7500    1.2990    0.0000 C   0  0  0  0  0  0  0  0  0  0  0  0
    1.5000    2.5981    0.0000 C   0  0  0  0  0  0  0  0  0  0  0  0
  1  2  3  0
  2  3  1  0
  3  4  2  0
  4  5  1  0
  5  6  2  0
  6  7  1  0
  7  8  2  0
  8  9  1  0
  8  3  1  0
M  END
>  <Title>  (300) 
idAAJPgen10

$$$$

     RDKit          2D

 51 58  0  0  0  0  0  0  0  0999 V2000
    4.9965   -7.7991    0.0000 C   0  0  0  0  0  0  0  0  0  0  0  0
    3.6537   -7.1305    0.0000 C   0  0  0  0  0  0  0  0  0  0  0  0
    4.0642   -5.6878    0.0000 C   0  0  0  0  0  0  0  0  0  0  0  0
    3.9258   -4.1942    0.0000 C   0  0  0  0  0  0  0  0  0  0  0  0
    3.2572   -2.8514    0.0000 C   0  0  0  0  0  0  0  0  0  0  0  0
    2.1487   -1.8409    0.0000 C   0  0  0  0  0  0  0  0  0  0  0  0
    2.9384   -0.5656    0.0000 C   0  0  0  0  0  0  0  0  0  0  0  0
    2.2287    0.7559    0.0000 O   0  0  0  0  0  0  0  0  0  0  0  0
    4.4376   -0.6118    0.0000 N   0  0  0  0  0  0  0  0  0  0  0  0
    5.2273    0.6636    0.0000 C   0  0  0  0  0  0  0  0  0  0  0  0
    6.7266    0.6174    0.0000 N   0  0  0  0  0  0  0  0  0  0  0  0
    7.5162    1.8927    0.0000 N   0  0  0  0  0  0  0  0  0  0  0  0
    6.8066    3.2142    0.0000 N   0  0  0  0  0  0  0  0  0  0  0  0
    5.3073    3.2604    0.0000 N   0  0  0  0  0  0  0  0  0  0  0  0
    4.5177    1.9851    0.0000 N   0  0  0  0  0  0  0  0  0  0  0  0
    0.7500   -1.2990    0.0000 C   0  0  0  0  0  0  0  0  0  0  0  0
    1.5000    0.0000    0.0000 C   0  0  0  0  0  0  0  0  0  0  0  0
    0.7500    1.2990    0.0000 C   0  0  0  0  0  0  0  0  0  0  0  0
   -0.7500    1.2990    0.0000 C   0  0  0  0  0  0  0  0  0  0  0  0
   -1.5000    0.0000    0.0000 C   0  0  0  0  0  0  0  0  0  0  0  0
   -0.7500   -1.2990    0.0000 C   0  0  0  0  0  0  0  0  0  0  0  0
   -2.1487   -1.8409    0.0000 C   0  0  0  0  0  0  0  0  0  0  0  0
   -2.4696   -0.3756    0.0000 C   0  0  0  0  0  0  0  0  0  0  0  0
   -3.8990    0.0791    0.0000 C   0  0  0  0  0  0  0  0  0  0  0  0
   -5.0075   -0.9314    0.0000 C   0  0  0  0  0  0  0  0  0  0  0  0
   -4.6866   -2.3967    0.0000 C   0  0  0  0  0  0  0  0  0  0  0  0
   -3.2572   -2.8514    0.0000 C   0  0  0  0  0  0  0  0  0  0  0  0
   -3.9258   -4.1942    0.0000 C   0  0  0  0  0  0  0  0  0  0  0  0
   -5.1501   -3.3275    0.0000 C   0  0  0  0  0  0  0  0  0  0  0  0
   -6.5128   -3.9545    0.0000 C   0  0  0  0  0  0  0  0  0  0  0  0
   -6.6512   -5.4481    0.0000 C   0  0  0  0  0  0  0  0  0  0  0  0
   -5.4269   -6.3147    0.0000 C   0  0  0  0  0  0  0  0  0  0  0  0
   -4.0642   -5.6878    0.0000 C   0  0  0  0  0  0  0  0  0  0  0  0
   -3.6537   -7.1305    0.0000 C   0  0  0  0  0  0  0  0  0  0  0  0
   -5.1424   -7.3149    0.0000 C   0  0  0  0  0  0  0  0  0  0  0  0
   -5.7270   -8.6962    0.0000 C   0  0  0  0  0  0  0  0  0  0  0  0
   -4.8231   -9.8932    0.0000 C   0  0  0  0  0  0  0  0  0  0  0  0
   -3.3345   -9.7089    0.0000 C   0  0  0  0  0  0  0  0  0  0  0  0
   -2.7498   -8.3276    0.0000 C   0  0  0  0  0  0  0  0  0  0  0  0
   -1.4745   -9.1172    0.0000 C   0  0  0  0  0  0  0  0  0  0  0  0
   -2.4504  -10.2563    0.0000 C   0  0  0  0  0  0  0  0  0  0  0  0
   -1.9519  -11.6710    0.0000 C   0  0  0  0  0  0  0  0  0  0  0  0
   -0.4774  -11.9467    0.0000 C   0  0  0  0  0  0  0  0  0  0  0  0
    0.4985  -10.8076    0.0000 C   0  0  0  0  0  0  0  0  0  0  0  0
   -0.0000   -9.3928    0.0000 C   0  0  0  0  0  0  0  0  0  0  0  0
    1.4745   -9.1172    0.0000 C   0  0  0  0  0  0  0  0  0  0  0  0
    1.5207  -10.6165    0.0000 C   0  0  0  0  0  0  0  0  0  0  0  0
    2.8422  -11.3261    0.0000 C   0  0  0  0  0  0  0  0  0  0  0  0
    4.1175  -10.5365    0.0000 C   0  0  0  0  0  0  0  0  0  0  0  0
    4.0713   -9.0372    0.0000 C   0  0  0  0  0  0  0  0  0  0  0  0
    2.7498   -8.3276    0.0000 C   0  0  0  0  0  0  0  0  0  0  0  0
  1  2  1  0
  2  3  2  0
  3  4  1  0
  4  5  1  0
  5  6  2  0
  6  7  1  0
  7  8  2  0
  7  9  1  0
  9 10  1  0
 10 11  2  0
 11 12  1  0
 12 13  2  0
 13 14  1  0
 14 15  2  0
  6 16  1  0
 16 17  2  0
 17 18  1  0
 18 19  2  0
 19 20  1  0
 20 21  2  0
 21 22  1  0
 22 23  2  0
 23 24  1  0
 24 25  2  0
 25 26  1  0
 26 27  2  0
 27 28  1  0
 28 29  2  0
 29 30  1  0
 30 31  2  0
 31 32  1  0
 32 33  2  0
 33 34  1  0
 34 35  2  0
 35 36  1  0
 36 37  2  0
 37 38  1  0
 38 39  2  0
 39 40  1  0
 40 41  2  0
 41 42  1  0
 42 43  2  0
 43 44  1  0
 44 45  2  0
 45 46  1  0
 46 47  2  0
 47 48  1  0
 48 49  2  0
 49 50  1  0
 50 51  2  0
 51  2  1  0
 15 10  1  0
 21 16  1  0
 27 22  1  0
 33 28  1  0
 39 34  1  0
 45 40  1  0
 51 46  1  0
M  END
>  <Title>  (301) 
idAAJQgen10

$$$$

     RDKit          2D

  7  7  0  0  0  0  0  0  0  0999 V2000
    3.0000    0.0000    0.0000 C   0  0  0  0  0  0  0  0  0  0  0  0
    1.5000    0.0000    0.0000 C   0  0  0  0  0  0  0  0  0  0  0  0
    0.7500   -1.2990    0.0000 C   0  0  0  0  0  0  0  0  0  0  0  0
   -0.7500   -1.2990    0.0000 C   0  0  0  0  0  0  0  0  0  0  0  0
   -1.5000    0.0000    0.0000 C   0  0  0  0  0  0  0  0  0  0  0  0
   -0.7500    1.2990    0.0000 C   0  0  0  0  0  0  0  0  0  0  0  0
    0.7500    1.2990    0.0000 C   0  0  0  0  0  0  0  0  0  0  0  0
  1  2  1  0
  2  3  2  0
  3  4  1  0
  4  5  1  0
  5  6  2  0
  6  7  1  0
  7  2  1  0
M  END
>  <Title>  (302) 
idAAJRgen10

$$$$

     RDKit          2D

 61 69  0  0  0  0  0  0  0  0999 V2000
   10.7926   -0.3793    0.0000 C   0  0  0  0  0  0  0  0  0  0  0  0
   10.2550   -1.7797    0.0000 C   0  0  0  0  0  0  0  0  0  0  0  0
    8.7735   -2.0143    0.0000 C   0  0  0  0  0  0  0  0  0  0  0  0
    8.2359   -3.4147    0.0000 C   0  0  0  0  0  0  0  0  0  0  0  0
    9.1799   -4.5804    0.0000 C   0  0  0  0  0  0  0  0  0  0  0  0
   10.6614   -4.3457    0.0000 O   0  0  0  0  0  0  0  0  0  0  0  0
    6.7544   -3.6493    0.0000 C   0  0  0  0  0  0  0  0  0  0  0  0
    5.8104   -2.4836    0.0000 O   0  0  0  0  0  0  0  0  0  0  0  0
    6.2168   -5.0497    0.0000 N   0  0  0  0  0  0  0  0  0  0  0  0
    4.7353   -5.2844    0.0000 C   0  0  0  0  0  0  0  0  0  0  0  0
    4.2718   -3.8578    0.0000 N   0  0  0  0  0  0  0  0  0  0  0  0
    3.3901   -2.6442    0.0000 N   0  0  0  0  0  0  0  0  0  0  0  0
    2.1766   -1.7626    0.0000 N   0  0  0  0  0  0  0  0  0  0  0  0
    0.7500   -1.2990    0.0000 N   0  0  0  0  0  0  0  0  0  0  0  0
    1.5000    0.0000    0.0000 C   0  0  0  0  0  0  0  0  0  0  0  0
    0.7500    1.2990    0.0000 C   0  0  0  0  0  0  0  0  0  0  0  0
   -0.7500    1.2990    0.0000 C   0  0  0  0  0  0  0  0  0  0  0  0
   -1.5000    0.0000    0.0000 C   0  0  0  0  0  0  0  0  0  0  0  0
   -0.7500   -1.2990    0.0000 C   0  0  0  0  0  0  0  0  0  0  0  0
   -2.1766   -1.7626    0.0000 C   0  0  0  0  0  0  0  0  0  0  0  0
   -2.3334   -0.2708    0.0000 C   0  0  0  0  0  0  0  0  0  0  0  0
   -3.7037    0.3393    0.0000 C   0  0  0  0  0  0  0  0  0  0  0  0
   -4.9172   -0.5424    0.0000 C   0  0  0  0  0  0  0  0  0  0  0  0
   -4.7604   -2.0341    0.0000 C   0  0  0  0  0  0  0  0  0  0  0  0
   -3.3901   -2.6442    0.0000 C   0  0  0  0  0  0  0  0  0  0  0  0
   -4.2718   -3.8578    0.0000 C   0  0  0  0  0  0  0  0  0  0  0  0
   -5.2755   -2.7430    0.0000 C   0  0  0  0  0  0  0  0  0  0  0  0
   -6.7427   -3.0549    0.0000 C   0  0  0  0  0  0  0  0  0  0  0  0
   -7.2062   -4.4815    0.0000 C   0  0  0  0  0  0  0  0  0  0  0  0
   -6.2025   -5.5962    0.0000 C   0  0  0  0  0  0  0  0  0  0  0  0
   -4.7353   -5.2844    0.0000 C   0  0  0  0  0  0  0  0  0  0  0  0
   -4.7353   -6.7844    0.0000 C   0  0  0  0  0  0  0  0  0  0  0  0
   -6.2025   -6.4725    0.0000 C   0  0  0  0  0  0  0  0  0  0  0  0
   -7.2062   -7.5872    0.0000 C   0  0  0  0  0  0  0  0  0  0  0  0
   -6.7427   -9.0138    0.0000 C   0  0  0  0  0  0  0  0  0  0  0  0
   -5.2755   -9.3257    0.0000 C   0  0  0  0  0  0  0  0  0  0  0  0
   -4.2718   -8.2109    0.0000 C   0  0  0  0  0  0  0  0  0  0  0  0
   -3.3901   -9.4245    0.0000 C   0  0  0  0  0  0  0  0  0  0  0  0
   -4.7604  -10.0346    0.0000 C   0  0  0  0  0  0  0  0  0  0  0  0
   -4.9172  -11.5263    0.0000 C   0  0  0  0  0  0  0  0  0  0  0  0
   -3.7037  -12.4080    0.0000 C   0  0  0  0  0  0  0  0  0  0  0  0
   -2.3334  -11.7979    0.0000 C   0  0  0  0  0  0  0  0  0  0  0  0
   -2.1766  -10.3061    0.0000 C   0  0  0  0  0  0  0  0  0  0  0  0
   -0.7500  -10.7697    0.0000 C   0  0  0  0  0  0  0  0  0  0  0  0
   -1.5000  -12.0687    0.0000 C   0  0  0  0  0  0  0  0  0  0  0  0
   -0.7500  -13.3677    0.0000 C   0  0  0  0  0  0  0  0  0  0  0  0
    0.7500  -13.3677    0.0000 C   0  0  0  0  0  0  0  0  0  0  0  0
    1.5000  -12.0687    0.0000 C   0  0  0  0  0  0  0  0  0  0  0  0
    0.7500  -10.7697    0.0000 C   0  0  0  0  0  0  0  0  0  0  0  0
    2.1766  -10.3061    0.0000 C   0  0  0  0  0  0  0  0  0  0  0  0
    2.3334  -11.7979    0.0000 C   0  0  0  0  0  0  0  0  0  0  0  0
    3.7037  -12.4080    0.0000 C   0  0  0  0  0  0  0  0  0  0  0  0
    4.9172  -11.5263    0.0000 C   0  0  0  0  0  0  0  0  0  0  0  0
    4.7604  -10.0346    0.0000 C   0  0  0  0  0  0  0  0  0  0  0  0
    3.3901   -9.4245    0.0000 C   0  0  0  0  0  0  0  0  0  0  0  0
    4.2718   -8.2109    0.0000 C   0  0  0  0  0  0  0  0  0  0  0  0
    5.2755   -9.3257    0.0000 C   0  0  0  0  0  0  0  0  0  0  0  0
    6.7427   -9.0138    0.0000 C   0  0  0  0  0  0  0  0  0  0  0  0
    7.2062   -7.5872    0.0000 C   0  0  0  0  0  0  0  0  0  0  0  0
    6.2025   -6.4725    0.0000 C   0  0  0  0  0  0  0  0  0  0  0  0
    4.7353   -6.7844    0.0000 C   0  0  0  0  0  0  0  0  0  0  0  0
  1  2  1  0
  2  3  1  0
  3  4  1  0
  4  5  1  0
  5  6  1  0
  4  7  1  0
  7  8  2  0
  7  9  1  0
  9 10  1  0
 10 11  2  0
 11 12  1  0
 12 13  2  0
 13 14  1  0
 14 15  1  0
 15 16  1  0
 16 17  2  0
 17 18  1  0
 18 19  2  0
 19 20  1  0
 20 21  2  0
 21 22  1  0
 22 23  2  0
 23 24  1  0
 24 25  2  0
 25 26  1  0
 26 27  2  0
 27 28  1  0
 28 29  2  0
 29 30  1  0
 30 31  2  0
 31 32  1  0
 32 33  2  0
 33 34  1  0
 34 35  2  0
 35 36  1  0
 36 37  2  0
 37 38  1  0
 38 39  2  0
 39 40  1  0
 40 41  2  0
 41 42  1  0
 42 43  2  0
 43 44  1  0
 44 45  2  0
 45 46  1  0
 46 47  2  0
 47 48  1  0
 48 49  2  0
 49 50  1  0
 50 51  2  0
 51 52  1  0
 52 53  2  0
 53 54  1  0
 54 55  2  0
 55 56  1  0
 56 57  2  0
 57 58  1  0
 58 59  2  0
 59 60  1  0
 60 61  2  0
 61 10  1  0
 19 14  1  0
 25 20  1  0
 31 26  1  0
 37 32  1  0
 43 38  1  0
 49 44  1  0
 55 50  1  0
 61 56  1  0
M  END
>  <Title>  (303) 
idAAJSgen10

$$$$

     RDKit          2D

 11 12  0  0  0  0  0  0  0  0999 V2000
   -3.0000   -2.5981    0.0000 C   0  0  0  0  0  0  0  0  0  0  0  0
   -1.5000   -2.5981    0.0000 C   0  0  0  0  0  0  0  0  0  0  0  0
   -0.7500   -3.8971    0.0000 C   0  0  0  0  0  0  0  0  0  0  0  0
    0.7500   -3.8971    0.0000 C   0  0  0  0  0  0  0  0  0  0  0  0
    1.5000   -2.5981    0.0000 C   0  0  0  0  0  0  0  0  0  0  0  0
    0.7500   -1.2990    0.0000 C   0  0  0  0  0  0  0  0  0  0  0  0
    1.5000    0.0000    0.0000 N   0  0  0  0  0  0  0  0  0  0  0  0
    0.7500    1.2990    0.0000 C   0  0  0  0  0  0  0  0  0  0  0  0
   -0.7500    1.2990    0.0000 C   0  0  0  0  0  0  0  0  0  0  0  0
   -1.5000    0.0000    0.0000 C   0  0  0  0  0  0  0  0  0  0  0  0
   -0.7500   -1.2990    0.0000 C   0  0  0  0  0  0  0  0  0  0  0  0
  1  2  1  0
  2  3  1  0
  3  4  1  0
  4  5  1  0
  5  6  1  0
  6  7  2  0
  7  8  1  0
  8  9  2  0
  9 10  1  0
 10 11  2  0
 11  2  1  0
 11  6  1  0
M  END
>  <Title>  (304) 
idAAJTgen10

$$$$

     RDKit          2D

 10 10  0  0  0  0  0  0  0  0999 V2000
    3.2286   -0.0000    0.0000 C   0  0  0  0  0  0  0  0  0  0  0  0
    1.7286    0.0000    0.0000 C   0  0  0  0  0  0  0  0  0  0  0  0
    1.0777    1.3515    0.0000 C   0  0  0  0  0  0  0  0  0  0  0  0
   -0.3846    1.6852    0.0000 C   0  0  0  0  0  0  0  0  0  0  0  0
   -0.7184    3.1476    0.0000 C   0  0  0  0  0  0  0  0  0  0  0  0
   -1.5574    0.7500    0.0000 N   0  0  0  0  0  0  0  0  0  0  0  0
   -1.5574   -0.7500    0.0000 C   0  0  0  0  0  0  0  0  0  0  0  0
   -0.3846   -1.6852    0.0000 C   0  0  0  0  0  0  0  0  0  0  0  0
   -0.7184   -3.1476    0.0000 N   0  0  0  0  0  0  0  0  0  0  0  0
    1.0777   -1.3515    0.0000 C   0  0  0  0  0  0  0  0  0  0  0  0
  1  2  1  0
  2  3  2  0
  3  4  1  0
  4  5  1  0
  4  6  1  0
  6  7  1  0
  7  8  1  0
  8  9  1  0
  8 10  1  0
 10  2  1  0
M  END
>  <Title>  (305) 
idAAJUgen10

$$$$

     RDKit          2D

 10 10  0  0  0  0  0  0  0  0999 V2000
    4.2760   -2.5981    0.0000 C   0  0  0  0  0  0  0  0  0  0  0  0
    3.5260   -1.2990    0.0000 C   0  0  0  0  0  0  0  0  0  0  0  0
    2.7760    0.0000    0.0000 C   0  0  0  0  0  0  0  0  0  0  0  0
    3.5260    1.2990    0.0000 O   0  0  0  0  0  0  0  0  0  0  0  0
    1.2760    0.0000    0.0000 C   0  0  0  0  0  0  0  0  0  0  0  0
    0.3943    1.2135    0.0000 C   0  0  0  0  0  0  0  0  0  0  0  0
   -1.0323    0.7500    0.0000 C   0  0  0  0  0  0  0  0  0  0  0  0
   -1.0323   -0.7500    0.0000 C   0  0  0  0  0  0  0  0  0  0  0  0
   -2.2458   -1.6317    0.0000 C   0  0  0  0  0  0  0  0  0  0  0  0
    0.3943   -1.2135    0.0000 C   0  0  0  0  0  0  0  0  0  0  0  0
  1  2  3  0
  2  3  1  0
  3  4  2  0
  3  5  1  0
  5  6  2  0
  6  7  1  0
  7  8  2  0
  8  9  1  0
  8 10  1  0
 10  5  1  0
M  END
>  <Title>  (306) 
idAAJVgen10

$$$$

     RDKit          2D

 13 13  0  0  0  0  0  0  0  0999 V2000
    9.5260   -1.2990    0.0000 C   0  0  0  0  0  0  0  0  0  0  0  0
    8.7760   -0.0000    0.0000 C   0  0  0  0  0  0  0  0  0  0  0  0
    7.2760   -0.0000    0.0000 C   0  0  0  0  0  0  0  0  0  0  0  0
    5.7760   -0.0000    0.0000 C   0  0  0  0  0  0  0  0  0  0  0  0
    4.2760   -0.0000    0.0000 C   0  0  0  0  0  0  0  0  0  0  0  0
    2.7760    0.0000    0.0000 C   0  0  0  0  0  0  0  0  0  0  0  0
    1.2760    0.0000    0.0000 C   0  0  0  0  0  0  0  0  0  0  0  0
    0.3943    1.2135    0.0000 C   0  0  0  0  0  0  0  0  0  0  0  0
   -1.0323    0.7500    0.0000 C   0  0  0  0  0  0  0  0  0  0  0  0
   -2.2458    1.6317    0.0000 C   0  0  0  0  0  0  0  0  0  0  0  0
   -1.0323   -0.7500    0.0000 C   0  0  0  0  0  0  0  0  0  0  0  0
   -2.2458   -1.6317    0.0000 C   0  0  0  0  0  0  0  0  0  0  0  0
    0.3943   -1.2135    0.0000 C   0  0  0  0  0  0  0  0  0  0  0  0
  1  2  2  0
  2  3  1  0
  3  4  3  0
  4  5  1  0
  5  6  3  0
  6  7  1  0
  7  8  2  0
  8  9  1  0
  9 10  1  0
  9 11  1  0
 11 12  1  0
 11 13  2  0
 13  7  1  0
M  END
>  <Title>  (307) 
idAAJWgen10

$$$$

     RDKit          2D

 76 76  0  0  0  0  0  0  0  0999 V2000
   18.1488    0.0000    0.0000 C   0  0  0  0  0  0  0  0  0  0  0  0
   18.0868   -1.4987    0.0000 C   0  0  0  0  0  0  0  0  0  0  0  0
   17.9013   -2.9872    0.0000 C   0  0  0  0  0  0  0  0  0  0  0  0
   17.5935   -4.4553    0.0000 C   0  0  0  0  0  0  0  0  0  0  0  0
   17.1655   -5.8929    0.0000 C   0  0  0  0  0  0  0  0  0  0  0  0
   16.6202   -7.2903    0.0000 C   0  0  0  0  0  0  0  0  0  0  0  0
   15.9614   -8.6379    0.0000 C   0  0  0  0  0  0  0  0  0  0  0  0
   15.1936   -9.9265    0.0000 C   0  0  0  0  0  0  0  0  0  0  0  0
   14.3220  -11.1472    0.0000 C   0  0  0  0  0  0  0  0  0  0  0  0
   13.3525  -12.2919    0.0000 C   0  0  0  0  0  0  0  0  0  0  0  0
   12.2919  -13.3525    0.0000 C   0  0  0  0  0  0  0  0  0  0  0  0
   11.1472  -14.3220    0.0000 C   0  0  0  0  0  0  0  0  0  0  0  0
    9.9265  -15.1936    0.0000 C   0  0  0  0  0  0  0  0  0  0  0  0
    8.6379  -15.9614    0.0000 C   0  0  0  0  0  0  0  0  0  0  0  0
    7.2903  -16.6202    0.0000 C   0  0  0  0  0  0  0  0  0  0  0  0
    5.8929  -17.1655    0.0000 C   0  0  0  0  0  0  0  0  0  0  0  0
    4.4553  -17.5935    0.0000 C   0  0  0  0  0  0  0  0  0  0  0  0
    2.9872  -17.9013    0.0000 C   0  0  0  0  0  0  0  0  0  0  0  0
    1.4987  -18.0868    0.0000 C   0  0  0  0  0  0  0  0  0  0  0  0
   -0.0000  -18.1488    0.0000 C   0  0  0  0  0  0  0  0  0  0  0  0
   -1.4987  -18.0868    0.0000 C   0  0  0  0  0  0  0  0  0  0  0  0
   -2.9872  -17.9013    0.0000 C   0  0  0  0  0  0  0  0  0  0  0  0
   -4.4553  -17.5935    0.0000 C   0  0  0  0  0  0  0  0  0  0  0  0
   -5.8929  -17.1655    0.0000 C   0  0  0  0  0  0  0  0  0  0  0  0
   -7.2903  -16.6202    0.0000 C   0  0  0  0  0  0  0  0  0  0  0  0
   -8.6379  -15.9614    0.0000 C   0  0  0  0  0  0  0  0  0  0  0  0
   -9.9265  -15.1936    0.0000 C   0  0  0  0  0  0  0  0  0  0  0  0
  -11.1472  -14.3220    0.0000 C   0  0  0  0  0  0  0  0  0  0  0  0
  -12.2919  -13.3525    0.0000 C   0  0  0  0  0  0  0  0  0  0  0  0
  -13.3525  -12.2919    0.0000 C   0  0  0  0  0  0  0  0  0  0  0  0
  -14.3220  -11.1472    0.0000 C   0  0  0  0  0  0  0  0  0  0  0  0
  -15.1936   -9.9265    0.0000 C   0  0  0  0  0  0  0  0  0  0  0  0
  -15.9614   -8.6379    0.0000 C   0  0  0  0  0  0  0  0  0  0  0  0
  -16.6202   -7.2903    0.0000 C   0  0  0  0  0  0  0  0  0  0  0  0
  -17.1655   -5.8929    0.0000 C   0  0  0  0  0  0  0  0  0  0  0  0
  -17.5935   -4.4553    0.0000 C   0  0  0  0  0  0  0  0  0  0  0  0
  -17.9013   -2.9872    0.0000 C   0  0  0  0  0  0  0  0  0  0  0  0
  -18.0868   -1.4987    0.0000 C   0  0  0  0  0  0  0  0  0  0  0  0
  -18.1488    0.0000    0.0000 C   0  0  0  0  0  0  0  0  0  0  0  0
  -18.0868    1.4987    0.0000 C   0  0  0  0  0  0  0  0  0  0  0  0
  -17.9013    2.9872    0.0000 C   0  0  0  0  0  0  0  0  0  0  0  0
  -17.5935    4.4553    0.0000 C   0  0  0  0  0  0  0  0  0  0  0  0
  -17.1655    5.8929    0.0000 C   0  0  0  0  0  0  0  0  0  0  0  0
  -16.6202    7.2903    0.0000 C   0  0  0  0  0  0  0  0  0  0  0  0
  -15.9614    8.6379    0.0000 C   0  0  0  0  0  0  0  0  0  0  0  0
  -15.1936    9.9265    0.0000 C   0  0  0  0  0  0  0  0  0  0  0  0
  -14.3220   11.1472    0.0000 C   0  0  0  0  0  0  0  0  0  0  0  0
  -13.3525   12.2919    0.0000 C   0  0  0  0  0  0  0  0  0  0  0  0
  -12.2919   13.3525    0.0000 C   0  0  0  0  0  0  0  0  0  0  0  0
  -11.1472   14.3220    0.0000 C   0  0  0  0  0  0  0  0  0  0  0  0
   -9.9265   15.1936    0.0000 C   0  0  0  0  0  0  0  0  0  0  0  0
   -8.6379   15.9614    0.0000 C   0  0  0  0  0  0  0  0  0  0  0  0
   -7.2903   16.6202    0.0000 C   0  0  0  0  0  0  0  0  0  0  0  0
   -5.8929   17.1655    0.0000 C   0  0  0  0  0  0  0  0  0  0  0  0
   -4.4553   17.5935    0.0000 C   0  0  0  0  0  0  0  0  0  0  0  0
   -2.9872   17.9013    0.0000 C   0  0  0  0  0  0  0  0  0  0  0  0
   -1.4987   18.0868    0.0000 C   0  0  0  0  0  0  0  0  0  0  0  0
    0.0000   18.1488    0.0000 C   0  0  0  0  0  0  0  0  0  0  0  0
    1.4987   18.0868    0.0000 C   0  0  0  0  0  0  0  0  0  0  0  0
    2.9872   17.9013    0.0000 C   0  0  0  0  0  0  0  0  0  0  0  0
    4.4553   17.5935    0.0000 C   0  0  0  0  0  0  0  0  0  0  0  0
    5.8929   17.1655    0.0000 C   0  0  0  0  0  0  0  0  0  0  0  0
    7.2903   16.6202    0.0000 C   0  0  0  0  0  0  0  0  0  0  0  0
    8.6379   15.9614    0.0000 C   0  0  0  0  0  0  0  0  0  0  0  0
    9.9265   15.1936    0.0000 C   0  0  0  0  0  0  0  0  0  0  0  0
   11.1472   14.3220    0.0000 C   0  0  0  0  0  0  0  0  0  0  0  0
   12.2919   13.3525    0.0000 C   0  0  0  0  0  0  0  0  0  0  0  0
   13.3525   12.2919    0.0000 C   0  0  0  0  0  0  0  0  0  0  0  0
   14.3220   11.1472    0.0000 C   0  0  0  0  0  0  0  0  0  0  0  0
   15.1936    9.9265    0.0000 C   0  0  0  0  0  0  0  0  0  0  0  0
   15.9614    8.6379    0.0000 C   0  0  0  0  0  0  0  0  0  0  0  0
   16.6202    7.2903    0.0000 C   0  0  0  0  0  0  0  0  0  0  0  0
   17.1655    5.8929    0.0000 C   0  0  0  0  0  0  0  0  0  0  0  0
   17.5935    4.4553    0.0000 C   0  0  0  0  0  0  0  0  0  0  0  0
   17.9013    2.9872    0.0000 C   0  0  0  0  0  0  0  0  0  0  0  0
   18.0868    1.4987    0.0000 C   0  0  0  0  0  0  0  0  0  0  0  0
  1  2  1  0
  2  3  1  0
  3  4  1  0
  4  5  1  0
  5  6  1  0
  6  7  1  0
  7  8  1  0
  8  9  1  0
  9 10  1  0
 10 11  1  0
 11 12  1  0
 12 13  1  0
 13 14  1  0
 14 15  1  0
 15 16  1  0
 16 17  1  0
 17 18  1  0
 18 19  1  0
 19 20  1  0
 20 21  1  0
 21 22  1  0
 22 23  1  0
 23 24  1  0
 24 25  1  0
 25 26  1  0
 26 27  1  0
 27 28  1  0
 28 29  1  0
 29 30  1  0
 30 31  1  0
 31 32  1  0
 32 33  1  0
 33 34  1  0
 34 35  1  0
 35 36  1  0
 36 37  1  0
 37 38  1  0
 38 39  1  0
 39 40  1  0
 40 41  1  0
 41 42  1  0
 42 43  1  0
 43 44  1  0
 44 45  1  0
 45 46  1  0
 46 47  1  0
 47 48  1  0
 48 49  1  0
 49 50  1  0
 50 51  1  0
 51 52  1  0
 52 53  1  0
 53 54  1  0
 54 55  1  0
 55 56  1  0
 56 57  1  0
 57 58  1  0
 58 59  1  0
 59 60  1  0
 60 61  1  0
 61 62  1  0
 62 63  1  0
 63 64  1  0
 64 65  1  0
 65 66  1  0
 66 67  1  0
 67 68  1  0
 68 69  1  0
 69 70  1  0
 70 71  1  0
 71 72  1  0
 72 73  1  0
 73 74  1  0
 74 75  1  0
 75 76  1  0
 76  1  1  0
M  END
>  <Title>  (308) 
idAAJXgen10

$$$$

     RDKit          2D

119119  0  0  0  0  0  0  0  0999 V2000
   29.6738    0.0000    0.0000 C   0  0  0  0  0  0  0  0  0  0  0  0
   28.1738    0.0000    0.0000 C   0  0  0  0  0  0  0  0  0  0  0  0
   28.1338   -1.4995    0.0000 C   0  0  0  0  0  0  0  0  0  0  0  0
   28.0141   -2.9947    0.0000 C   0  0  0  0  0  0  0  0  0  0  0  0
   27.8151   -4.4814    0.0000 C   0  0  0  0  0  0  0  0  0  0  0  0
   27.5371   -5.9554    0.0000 C   0  0  0  0  0  0  0  0  0  0  0  0
   27.1811   -7.4126    0.0000 C   0  0  0  0  0  0  0  0  0  0  0  0
   26.7481   -8.8487    0.0000 C   0  0  0  0  0  0  0  0  0  0  0  0
   26.2392  -10.2598    0.0000 C   0  0  0  0  0  0  0  0  0  0  0  0
   25.6560  -11.6417    0.0000 C   0  0  0  0  0  0  0  0  0  0  0  0
   25.0000  -12.9907    0.0000 C   0  0  0  0  0  0  0  0  0  0  0  0
   24.2732  -14.3029    0.0000 C   0  0  0  0  0  0  0  0  0  0  0  0
   23.4776  -15.5745    0.0000 C   0  0  0  0  0  0  0  0  0  0  0  0
   22.6154  -16.8019    0.0000 C   0  0  0  0  0  0  0  0  0  0  0  0
   21.6891  -17.9817    0.0000 C   0  0  0  0  0  0  0  0  0  0  0  0
   20.7013  -19.1106    0.0000 C   0  0  0  0  0  0  0  0  0  0  0  0
   19.6549  -20.1853    0.0000 C   0  0  0  0  0  0  0  0  0  0  0  0
   18.5527  -21.2027    0.0000 C   0  0  0  0  0  0  0  0  0  0  0  0
   17.3980  -22.1601    0.0000 C   0  0  0  0  0  0  0  0  0  0  0  0
   16.1939  -23.0547    0.0000 C   0  0  0  0  0  0  0  0  0  0  0  0
   14.9439  -23.8839    0.0000 C   0  0  0  0  0  0  0  0  0  0  0  0
   13.6516  -24.6454    0.0000 C   0  0  0  0  0  0  0  0  0  0  0  0
   12.3206  -25.3370    0.0000 C   0  0  0  0  0  0  0  0  0  0  0  0
   10.9546  -25.9568    0.0000 C   0  0  0  0  0  0  0  0  0  0  0  0
    9.5576  -26.5031    0.0000 C   0  0  0  0  0  0  0  0  0  0  0  0
    8.1335  -26.9742    0.0000 C   0  0  0  0  0  0  0  0  0  0  0  0
    6.6864  -27.3688    0.0000 C   0  0  0  0  0  0  0  0  0  0  0  0
    5.2203  -27.6859    0.0000 C   0  0  0  0  0  0  0  0  0  0  0  0
    3.7394  -27.9245    0.0000 C   0  0  0  0  0  0  0  0  0  0  0  0
    2.2479  -28.0839    0.0000 C   0  0  0  0  0  0  0  0  0  0  0  0
    0.7500  -28.1638    0.0000 C   0  0  0  0  0  0  0  0  0  0  0  0
   -0.7500  -28.1638    0.0000 C   0  0  0  0  0  0  0  0  0  0  0  0
   -2.2479  -28.0839    0.0000 C   0  0  0  0  0  0  0  0  0  0  0  0
   -3.7394  -27.9245    0.0000 C   0  0  0  0  0  0  0  0  0  0  0  0
   -5.2203  -27.6859    0.0000 C   0  0  0  0  0  0  0  0  0  0  0  0
   -6.6864  -27.3688    0.0000 C   0  0  0  0  0  0  0  0  0  0  0  0
   -8.1335  -26.9742    0.0000 C   0  0  0  0  0  0  0  0  0  0  0  0
   -9.5576  -26.5031    0.0000 C   0  0  0  0  0  0  0  0  0  0  0  0
  -10.9546  -25.9568    0.0000 C   0  0  0  0  0  0  0  0  0  0  0  0
  -12.3206  -25.3370    0.0000 C   0  0  0  0  0  0  0  0  0  0  0  0
  -13.6516  -24.6454    0.0000 C   0  0  0  0  0  0  0  0  0  0  0  0
  -14.9439  -23.8839    0.0000 C   0  0  0  0  0  0  0  0  0  0  0  0
  -16.1939  -23.0547    0.0000 C   0  0  0  0  0  0  0  0  0  0  0  0
  -17.3980  -22.1601    0.0000 C   0  0  0  0  0  0  0  0  0  0  0  0
  -18.5527  -21.2027    0.0000 C   0  0  0  0  0  0  0  0  0  0  0  0
  -19.6549  -20.1853    0.0000 C   0  0  0  0  0  0  0  0  0  0  0  0
  -20.7013  -19.1106    0.0000 C   0  0  0  0  0  0  0  0  0  0  0  0
  -21.6891  -17.9817    0.0000 C   0  0  0  0  0  0  0  0  0  0  0  0
  -22.6154  -16.8019    0.0000 C   0  0  0  0  0  0  0  0  0  0  0  0
  -23.4776  -15.5745    0.0000 C   0  0  0  0  0  0  0  0  0  0  0  0
  -24.2732  -14.3029    0.0000 C   0  0  0  0  0  0  0  0  0  0  0  0
  -25.0000  -12.9907    0.0000 C   0  0  0  0  0  0  0  0  0  0  0  0
  -25.6560  -11.6417    0.0000 C   0  0  0  0  0  0  0  0  0  0  0  0
  -26.2392  -10.2598    0.0000 C   0  0  0  0  0  0  0  0  0  0  0  0
  -26.7481   -8.8487    0.0000 C   0  0  0  0  0  0  0  0  0  0  0  0
  -27.1811   -7.4126    0.0000 C   0  0  0  0  0  0  0  0  0  0  0  0
  -27.5371   -5.9554    0.0000 C   0  0  0  0  0  0  0  0  0  0  0  0
  -27.8151   -4.4814    0.0000 C   0  0  0  0  0  0  0  0  0  0  0  0
  -28.0141   -2.9947    0.0000 C   0  0  0  0  0  0  0  0  0  0  0  0
  -28.1338   -1.4995    0.0000 C   0  0  0  0  0  0  0  0  0  0  0  0
  -28.1738    0.0000    0.0000 C   0  0  0  0  0  0  0  0  0  0  0  0
  -28.1338    1.4995    0.0000 C   0  0  0  0  0  0  0  0  0  0  0  0
  -28.0141    2.9947    0.0000 C   0  0  0  0  0  0  0  0  0  0  0  0
  -27.8151    4.4814    0.0000 C   0  0  0  0  0  0  0  0  0  0  0  0
  -27.5371    5.9554    0.0000 C   0  0  0  0  0  0  0  0  0  0  0  0
  -27.1811    7.4126    0.0000 C   0  0  0  0  0  0  0  0  0  0  0  0
  -26.7481    8.8487    0.0000 C   0  0  0  0  0  0  0  0  0  0  0  0
  -26.2392   10.2598    0.0000 C   0  0  0  0  0  0  0  0  0  0  0  0
  -25.6560   11.6417    0.0000 C   0  0  0  0  0  0  0  0  0  0  0  0
  -25.0000   12.9907    0.0000 C   0  0  0  0  0  0  0  0  0  0  0  0
  -24.2732   14.3029    0.0000 C   0  0  0  0  0  0  0  0  0  0  0  0
  -23.4776   15.5745    0.0000 C   0  0  0  0  0  0  0  0  0  0  0  0
  -22.6154   16.8019    0.0000 C   0  0  0  0  0  0  0  0  0  0  0  0
  -21.6891   17.9817    0.0000 C   0  0  0  0  0  0  0  0  0  0  0  0
  -20.7013   19.1106    0.0000 C   0  0  0  0  0  0  0  0  0  0  0  0
  -19.6549   20.1853    0.0000 C   0  0  0  0  0  0  0  0  0  0  0  0
  -18.5527   21.2027    0.0000 C   0  0  0  0  0  0  0  0  0  0  0  0
  -17.3980   22.1601    0.0000 C   0  0  0  0  0  0  0  0  0  0  0  0
  -16.1939   23.0547    0.0000 C   0  0  0  0  0  0  0  0  0  0  0  0
  -14.9439   23.8839    0.0000 C   0  0  0  0  0  0  0  0  0  0  0  0
  -13.6516   24.6454    0.0000 C   0  0  0  0  0  0  0  0  0  0  0  0
  -12.3206   25.3370    0.0000 C   0  0  0  0  0  0  0  0  0  0  0  0
  -10.9546   25.9568    0.0000 C   0  0  0  0  0  0  0  0  0  0  0  0
   -9.5576   26.5031    0.0000 C   0  0  0  0  0  0  0  0  0  0  0  0
   -8.1335   26.9742    0.0000 C   0  0  0  0  0  0  0  0  0  0  0  0
   -6.6864   27.3688    0.0000 C   0  0  0  0  0  0  0  0  0  0  0  0
   -5.2203   27.6859    0.0000 C   0  0  0  0  0  0  0  0  0  0  0  0
   -3.7394   27.9245    0.0000 C   0  0  0  0  0  0  0  0  0  0  0  0
   -2.2479   28.0839    0.0000 C   0  0  0  0  0  0  0  0  0  0  0  0
   -0.7500   28.1638    0.0000 C   0  0  0  0  0  0  0  0  0  0  0  0
    0.7500   28.1638    0.0000 C   0  0  0  0  0  0  0  0  0  0  0  0
    2.2479   28.0839    0.0000 C   0  0  0  0  0  0  0  0  0  0  0  0
    3.7394   27.9245    0.0000 C   0  0  0  0  0  0  0  0  0  0  0  0
    5.2203   27.6859    0.0000 C   0  0  0  0  0  0  0  0  0  0  0  0
    6.6864   27.3688    0.0000 C   0  0  0  0  0  0  0  0  0  0  0  0
    8.1335   26.9742    0.0000 C   0  0  0  0  0  0  0  0  0  0  0  0
    9.5576   26.5031    0.0000 C   0  0  0  0  0  0  0  0  0  0  0  0
   10.9546   25.9568    0.0000 C   0  0  0  0  0  0  0  0  0  0  0  0
   12.3206   25.3370    0.0000 C   0  0  0  0  0  0  0  0  0  0  0  0
   13.6516   24.6454    0.0000 C   0  0  0  0  0  0  0  0  0  0  0  0
   14.9439   23.8839    0.0000 C   0  0  0  0  0  0  0  0  0  0  0  0
   16.1939   23.0547    0.0000 C   0  0  0  0  0  0  0  0  0  0  0  0
   17.3980   22.1601    0.0000 C   0  0  0  0  0  0  0  0  0  0  0  0
   18.5527   21.2027    0.0000 C   0  0  0  0  0  0  0  0  0  0  0  0
   19.6549   20.1853    0.0000 C   0  0  0  0  0  0  0  0  0  0  0  0
   20.7013   19.1106    0.0000 C   0  0  0  0  0  0  0  0  0  0  0  0
   21.6891   17.9817    0.0000 C   0  0  0  0  0  0  0  0  0  0  0  0
   22.6154   16.8019    0.0000 C   0  0  0  0  0  0  0  0  0  0  0  0
   23.4776   15.5745    0.0000 C   0  0  0  0  0  0  0  0  0  0  0  0
   24.2732   14.3029    0.0000 C   0  0  0  0  0  0  0  0  0  0  0  0
   25.0000   12.9907    0.0000 C   0  0  0  0  0  0  0  0  0  0  0  0
   25.6560   11.6417    0.0000 C   0  0  0  0  0  0  0  0  0  0  0  0
   26.2392   10.2598    0.0000 C   0  0  0  0  0  0  0  0  0  0  0  0
   26.7481    8.8487    0.0000 C   0  0  0  0  0  0  0  0  0  0  0  0
   27.1811    7.4126    0.0000 C   0  0  0  0  0  0  0  0  0  0  0  0
   27.5371    5.9554    0.0000 C   0  0  0  0  0  0  0  0  0  0  0  0
   27.8151    4.4814    0.0000 C   0  0  0  0  0  0  0  0  0  0  0  0
   28.0141    2.9947    0.0000 C   0  0  0  0  0  0  0  0  0  0  0  0
   28.1338    1.4995    0.0000 C   0  0  0  0  0  0  0  0  0  0  0  0
  1  2  1  0
  2  3  1  0
  3  4  1  0
  4  5  1  0
  5  6  1  0
  6  7  1  0
  7  8  1  0
  8  9  1  0
  9 10  1  0
 10 11  1  0
 11 12  1  0
 12 13  1  0
 13 14  1  0
 14 15  1  0
 15 16  1  0
 16 17  1  0
 17 18  1  0
 18 19  1  0
 19 20  1  0
 20 21  1  0
 21 22  1  0
 22 23  1  0
 23 24  1  0
 24 25  1  0
 25 26  1  0
 26 27  1  0
 27 28  1  0
 28 29  1  0
 29 30  1  0
 30 31  1  0
 31 32  1  0
 32 33  1  0
 33 34  1  0
 34 35  1  0
 35 36  1  0
 36 37  1  0
 37 38  1  0
 38 39  1  0
 39 40  1  0
 40 41  1  0
 41 42  1  0
 42 43  1  0
 43 44  1  0
 44 45  1  0
 45 46  1  0
 46 47  1  0
 47 48  1  0
 48 49  1  0
 49 50  1  0
 50 51  1  0
 51 52  1  0
 52 53  1  0
 53 54  1  0
 54 55  1  0
 55 56  1  0
 56 57  1  0
 57 58  1  0
 58 59  1  0
 59 60  1  0
 60 61  1  0
 61 62  1  0
 62 63  1  0
 63 64  1  0
 64 65  1  0
 65 66  1  0
 66 67  1  0
 67 68  1  0
 68 69  1  0
 69 70  1  0
 70 71  1  0
 71 72  1  0
 72 73  1  0
 73 74  1  0
 74 75  1  0
 75 76  1  0
 76 77  1  0
 77 78  1  0
 78 79  1  0
 79 80  1  0
 80 81  1  0
 81 82  1  0
 82 83  1  0
 83 84  1  0
 84 85  1  0
 85 86  1  0
 86 87  1  0
 87 88  1  0
 88 89  1  0
 89 90  1  0
 90 91  1  0
 91 92  1  0
 92 93  1  0
 93 94  1  0
 94 95  1  0
 95 96  1  0
 96 97  1  0
 97 98  1  0
 98 99  1  0
 99100  1  0
100101  1  0
101102  1  0
102103  1  0
103104  1  0
104105  1  0
105106  1  0
106107  1  0
107108  1  0
108109  1  0
109110  1  0
110111  1  0
111112  1  0
112113  1  0
113114  1  0
114115  1  0
115116  1  0
116117  1  0
117118  1  0
118119  1  0
119  2  1  0
M  END
>  <Title>  (309) 
idAAJYgen10

$$$$

     RDKit          2D

 10 10  0  0  0  0  0  0  0  0999 V2000
    7.0607    0.0000    0.0000 C   0  0  0  0  0  0  0  0  0  0  0  0
    5.5607    0.0000    0.0000 C   0  0  0  0  0  0  0  0  0  0  0  0
    4.0607    0.0000    0.0000 C   0  0  0  0  0  0  0  0  0  0  0  0
    2.5607    0.0000    0.0000 C   0  0  0  0  0  0  0  0  0  0  0  0
    1.0607    0.0000    0.0000 C   0  0  0  0  0  0  0  0  0  0  0  0
   -0.0000   -1.0607    0.0000 C   0  0  0  0  0  0  0  0  0  0  0  0
   -0.0000   -2.5607    0.0000 C   0  0  0  0  0  0  0  0  0  0  0  0
   -1.0607    0.0000    0.0000 C   0  0  0  0  0  0  0  0  0  0  0  0
   -2.5607    0.0000    0.0000 C   0  0  0  0  0  0  0  0  0  0  0  0
    0.0000    1.0607    0.0000 C   0  0  0  0  0  0  0  0  0  0  0  0
  1  2  3  0
  2  3  1  0
  3  4  3  0
  4  5  1  0
  5  6  2  0
  6  7  1  0
  6  8  1  0
  8  9  1  0
  8 10  2  0
 10  5  1  0
M  END
>  <Title>  (310) 
idAAJZgen10

$$$$

     RDKit          2D

 97 97  0  0  0  0  0  0  0  0999 V2000
   24.4224   -0.0000    0.0000 C   0  0  0  0  0  0  0  0  0  0  0  0
   22.9224    0.0000    0.0000 C   0  0  0  0  0  0  0  0  0  0  0  0
   22.8733   -1.4992    0.0000 C   0  0  0  0  0  0  0  0  0  0  0  0
   22.7263   -2.9920    0.0000 C   0  0  0  0  0  0  0  0  0  0  0  0
   22.4820   -4.4719    0.0000 C   0  0  0  0  0  0  0  0  0  0  0  0
   22.1413   -5.9328    0.0000 C   0  0  0  0  0  0  0  0  0  0  0  0
   21.7059   -7.3682    0.0000 C   0  0  0  0  0  0  0  0  0  0  0  0
   21.1775   -8.7720    0.0000 C   0  0  0  0  0  0  0  0  0  0  0  0
   20.5585  -10.1383    0.0000 C   0  0  0  0  0  0  0  0  0  0  0  0
   19.8514  -11.4612    0.0000 C   0  0  0  0  0  0  0  0  0  0  0  0
   19.0593  -12.7350    0.0000 C   0  0  0  0  0  0  0  0  0  0  0  0
   18.1856  -13.9543    0.0000 C   0  0  0  0  0  0  0  0  0  0  0  0
   17.2340  -15.1138    0.0000 C   0  0  0  0  0  0  0  0  0  0  0  0
   16.2086  -16.2086    0.0000 C   0  0  0  0  0  0  0  0  0  0  0  0
   15.1138  -17.2340    0.0000 C   0  0  0  0  0  0  0  0  0  0  0  0
   13.9543  -18.1856    0.0000 C   0  0  0  0  0  0  0  0  0  0  0  0
   12.7350  -19.0593    0.0000 C   0  0  0  0  0  0  0  0  0  0  0  0
   11.4612  -19.8514    0.0000 C   0  0  0  0  0  0  0  0  0  0  0  0
   10.1383  -20.5585    0.0000 C   0  0  0  0  0  0  0  0  0  0  0  0
    8.7720  -21.1775    0.0000 C   0  0  0  0  0  0  0  0  0  0  0  0
    7.3682  -21.7059    0.0000 C   0  0  0  0  0  0  0  0  0  0  0  0
    5.9328  -22.1413    0.0000 C   0  0  0  0  0  0  0  0  0  0  0  0
    4.4719  -22.4820    0.0000 C   0  0  0  0  0  0  0  0  0  0  0  0
    2.9920  -22.7263    0.0000 C   0  0  0  0  0  0  0  0  0  0  0  0
    1.4992  -22.8733    0.0000 C   0  0  0  0  0  0  0  0  0  0  0  0
   -0.0000  -22.9224    0.0000 C   0  0  0  0  0  0  0  0  0  0  0  0
   -1.4992  -22.8733    0.0000 C   0  0  0  0  0  0  0  0  0  0  0  0
   -2.9920  -22.7263    0.0000 C   0  0  0  0  0  0  0  0  0  0  0  0
   -4.4719  -22.4820    0.0000 C   0  0  0  0  0  0  0  0  0  0  0  0
   -5.9328  -22.1413    0.0000 C   0  0  0  0  0  0  0  0  0  0  0  0
   -7.3682  -21.7059    0.0000 C   0  0  0  0  0  0  0  0  0  0  0  0
   -8.7720  -21.1775    0.0000 C   0  0  0  0  0  0  0  0  0  0  0  0
  -10.1383  -20.5585    0.0000 C   0  0  0  0  0  0  0  0  0  0  0  0
  -11.4612  -19.8514    0.0000 C   0  0  0  0  0  0  0  0  0  0  0  0
  -12.7350  -19.0593    0.0000 C   0  0  0  0  0  0  0  0  0  0  0  0
  -13.9543  -18.1856    0.0000 C   0  0  0  0  0  0  0  0  0  0  0  0
  -15.1138  -17.2340    0.0000 C   0  0  0  0  0  0  0  0  0  0  0  0
  -16.2086  -16.2086    0.0000 C   0  0  0  0  0  0  0  0  0  0  0  0
  -17.2340  -15.1138    0.0000 C   0  0  0  0  0  0  0  0  0  0  0  0
  -18.1856  -13.9543    0.0000 C   0  0  0  0  0  0  0  0  0  0  0  0
  -19.0593  -12.7350    0.0000 C   0  0  0  0  0  0  0  0  0  0  0  0
  -19.8514  -11.4612    0.0000 C   0  0  0  0  0  0  0  0  0  0  0  0
  -20.5585  -10.1383    0.0000 C   0  0  0  0  0  0  0  0  0  0  0  0
  -21.1775   -8.7720    0.0000 C   0  0  0  0  0  0  0  0  0  0  0  0
  -21.7059   -7.3682    0.0000 C   0  0  0  0  0  0  0  0  0  0  0  0
  -22.1413   -5.9328    0.0000 C   0  0  0  0  0  0  0  0  0  0  0  0
  -22.4820   -4.4719    0.0000 C   0  0  0  0  0  0  0  0  0  0  0  0
  -22.7263   -2.9920    0.0000 C   0  0  0  0  0  0  0  0  0  0  0  0
  -22.8733   -1.4992    0.0000 C   0  0  0  0  0  0  0  0  0  0  0  0
  -22.9224    0.0000    0.0000 C   0  0  0  0  0  0  0  0  0  0  0  0
  -22.8733    1.4992    0.0000 C   0  0  0  0  0  0  0  0  0  0  0  0
  -22.7263    2.9920    0.0000 C   0  0  0  0  0  0  0  0  0  0  0  0
  -22.4820    4.4719    0.0000 C   0  0  0  0  0  0  0  0  0  0  0  0
  -22.1413    5.9328    0.0000 C   0  0  0  0  0  0  0  0  0  0  0  0
  -21.7059    7.3682    0.0000 C   0  0  0  0  0  0  0  0  0  0  0  0
  -21.1775    8.7720    0.0000 C   0  0  0  0  0  0  0  0  0  0  0  0
  -20.5585   10.1383    0.0000 C   0  0  0  0  0  0  0  0  0  0  0  0
  -19.8514   11.4612    0.0000 C   0  0  0  0  0  0  0  0  0  0  0  0
  -19.0593   12.7350    0.0000 C   0  0  0  0  0  0  0  0  0  0  0  0
  -18.1856   13.9543    0.0000 C   0  0  0  0  0  0  0  0  0  0  0  0
  -17.2340   15.1138    0.0000 C   0  0  0  0  0  0  0  0  0  0  0  0
  -16.2086   16.2086    0.0000 C   0  0  0  0  0  0  0  0  0  0  0  0
  -15.1138   17.2340    0.0000 C   0  0  0  0  0  0  0  0  0  0  0  0
  -13.9543   18.1856    0.0000 C   0  0  0  0  0  0  0  0  0  0  0  0
  -12.7350   19.0593    0.0000 C   0  0  0  0  0  0  0  0  0  0  0  0
  -11.4612   19.8514    0.0000 C   0  0  0  0  0  0  0  0  0  0  0  0
  -10.1383   20.5585    0.0000 C   0  0  0  0  0  0  0  0  0  0  0  0
   -8.7720   21.1775    0.0000 C   0  0  0  0  0  0  0  0  0  0  0  0
   -7.3682   21.7059    0.0000 C   0  0  0  0  0  0  0  0  0  0  0  0
   -5.9328   22.1413    0.0000 C   0  0  0  0  0  0  0  0  0  0  0  0
   -4.4719   22.4820    0.0000 C   0  0  0  0  0  0  0  0  0  0  0  0
   -2.9920   22.7263    0.0000 C   0  0  0  0  0  0  0  0  0  0  0  0
   -1.4992   22.8733    0.0000 C   0  0  0  0  0  0  0  0  0  0  0  0
    0.0000   22.9224    0.0000 C   0  0  0  0  0  0  0  0  0  0  0  0
    1.4992   22.8733    0.0000 C   0  0  0  0  0  0  0  0  0  0  0  0
    2.9920   22.7263    0.0000 C   0  0  0  0  0  0  0  0  0  0  0  0
    4.4719   22.4820    0.0000 C   0  0  0  0  0  0  0  0  0  0  0  0
    5.9328   22.1413    0.0000 C   0  0  0  0  0  0  0  0  0  0  0  0
    7.3682   21.7059    0.0000 C   0  0  0  0  0  0  0  0  0  0  0  0
    8.7720   21.1775    0.0000 C   0  0  0  0  0  0  0  0  0  0  0  0
   10.1383   20.5585    0.0000 C   0  0  0  0  0  0  0  0  0  0  0  0
   11.4612   19.8514    0.0000 C   0  0  0  0  0  0  0  0  0  0  0  0
   12.7350   19.0593    0.0000 C   0  0  0  0  0  0  0  0  0  0  0  0
   13.9543   18.1856    0.0000 C   0  0  0  0  0  0  0  0  0  0  0  0
   15.1138   17.2340    0.0000 C   0  0  0  0  0  0  0  0  0  0  0  0
   16.2086   16.2086    0.0000 C   0  0  0  0  0  0  0  0  0  0  0  0
   17.2340   15.1138    0.0000 C   0  0  0  0  0  0  0  0  0  0  0  0
   18.1856   13.9543    0.0000 C   0  0  0  0  0  0  0  0  0  0  0  0
   19.0593   12.7350    0.0000 C   0  0  0  0  0  0  0  0  0  0  0  0
   19.8514   11.4612    0.0000 C   0  0  0  0  0  0  0  0  0  0  0  0
   20.5585   10.1383    0.0000 C   0  0  0  0  0  0  0  0  0  0  0  0
   21.1775    8.7720    0.0000 C   0  0  0  0  0  0  0  0  0  0  0  0
   21.7059    7.3682    0.0000 C   0  0  0  0  0  0  0  0  0  0  0  0
   22.1413    5.9328    0.0000 C   0  0  0  0  0  0  0  0  0  0  0  0
   22.4820    4.4719    0.0000 N   0  0  0  0  0  0  0  0  0  0  0  0
   22.7263    2.9920    0.0000 C   0  0  0  0  0  0  0  0  0  0  0  0
   22.8733    1.4992    0.0000 C   0  0  0  0  0  0  0  0  0  0  0  0
  1  2  1  0
  2  3  1  0
  3  4  2  0
  4  5  1  0
  5  6  2  0
  6  7  1  0
  7  8  2  0
  8  9  1  0
  9 10  2  0
 10 11  1  0
 11 12  2  0
 12 13  1  0
 13 14  2  0
 14 15  1  0
 15 16  2  0
 16 17  1  0
 17 18  2  0
 18 19  1  0
 19 20  2  0
 20 21  1  0
 21 22  1  0
 22 23  1  0
 23 24  1  0
 24 25  1  0
 25 26  1  0
 26 27  1  0
 27 28  1  0
 28 29  1  0
 29 30  1  0
 30 31  1  0
 31 32  1  0
 32 33  1  0
 33 34  1  0
 34 35  1  0
 35 36  1  0
 36 37  1  0
 37 38  1  0
 38 39  1  0
 39 40  1  0
 40 41  1  0
 41 42  1  0
 42 43  1  0
 43 44  1  0
 44 45  1  0
 45 46  1  0
 46 47  1  0
 47 48  1  0
 48 49  1  0
 49 50  1  0
 50 51  1  0
 51 52  1  0
 52 53  1  0
 53 54  1  0
 54 55  1  0
 55 56  1  0
 56 57  1  0
 57 58  1  0
 58 59  1  0
 59 60  1  0
 60 61  1  0
 61 62  1  0
 62 63  1  0
 63 64  1  0
 64 65  1  0
 65 66  1  0
 66 67  1  0
 67 68  1  0
 68 69  1  0
 69 70  1  0
 70 71  1  0
 71 72  1  0
 72 73  1  0
 73 74  1  0
 74 75  1  0
 75 76  1  0
 76 77  1  0
 77 78  1  0
 78 79  1  0
 79 80  1  0
 80 81  1  0
 81 82  1  0
 82 83  1  0
 83 84  1  0
 84 85  1  0
 85 86  1  0
 86 87  1  0
 87 88  1  0
 88 89  1  0
 89 90  1  0
 90 91  1  0
 91 92  1  0
 92 93  1  0
 93 94  1  0
 94 95  1  0
 95 96  1  0
 96 97  1  0
 97  2  1  0
M  END
>  <Title>  (311) 
idAAKAgen10

$$$$

     RDKit          2D

  7  6  0  0  0  0  0  0  0  0999 V2000
    0.0000    0.0000    0.0000 C   0  0  0  0  0  0  0  0  0  0  0  0
    1.2990    0.7500    0.0000 C   0  0  0  0  0  0  0  0  0  0  0  0
    2.5981   -0.0000    0.0000 C   0  0  0  0  0  0  0  0  0  0  0  0
    3.8971    0.7500    0.0000 C   0  0  0  0  0  0  0  0  0  0  0  0
    5.1962   -0.0000    0.0000 C   0  0  0  0  0  0  0  0  0  0  0  0
    6.4952    0.7500    0.0000 C   0  0  0  0  0  0  0  0  0  0  0  0
    7.7942   -0.0000    0.0000 C   0  0  0  0  0  0  0  0  0  0  0  0
  1  2  2  0
  2  3  1  0
  3  4  1  0
  4  5  1  0
  5  6  2  3
  6  7  1  0
M  END
>  <Title>  (312) 
idAAKBgen10

$$$$

     RDKit          2D

110113  0  0  0  0  0  0  0  0999 V2000
   -5.5407   -0.4113    0.0000 C   0  0  0  0  0  0  0  0  0  0  0  0
   -5.2069   -1.8737    0.0000 C   0  0  0  0  0  0  0  0  0  0  0  0
   -6.6579   -2.2542    0.0000 C   0  0  0  0  0  0  0  0  0  0  0  0
   -8.0815   -2.7268    0.0000 N   0  0  0  0  0  0  0  0  0  0  0  0
   -9.4718   -3.2897    0.0000 C   0  0  0  0  0  0  0  0  0  0  0  0
  -10.8233   -3.9406    0.0000 C   0  0  0  0  0  0  0  0  0  0  0  0
  -12.1303   -4.6766    0.0000 C   0  0  0  0  0  0  0  0  0  0  0  0
  -13.3874   -5.4949    0.0000 C   0  0  0  0  0  0  0  0  0  0  0  0
  -14.5895   -6.3921    0.0000 C   0  0  0  0  0  0  0  0  0  0  0  0
  -15.7317   -7.3645    0.0000 C   0  0  0  0  0  0  0  0  0  0  0  0
  -16.8092   -8.4080    0.0000 C   0  0  0  0  0  0  0  0  0  0  0  0
  -17.8177   -9.5184    0.0000 C   0  0  0  0  0  0  0  0  0  0  0  0
  -18.7529  -10.6911    0.0000 C   0  0  0  0  0  0  0  0  0  0  0  0
  -19.6111  -11.9214    0.0000 C   0  0  0  0  0  0  0  0  0  0  0  0
  -20.3887  -13.2041    0.0000 C   0  0  0  0  0  0  0  0  0  0  0  0
  -21.0825  -14.5340    0.0000 C   0  0  0  0  0  0  0  0  0  0  0  0
  -21.6897  -15.9056    0.0000 C   0  0  0  0  0  0  0  0  0  0  0  0
  -22.2077  -17.3133    0.0000 C   0  0  0  0  0  0  0  0  0  0  0  0
  -22.6345  -18.7513    0.0000 C   0  0  0  0  0  0  0  0  0  0  0  0
  -22.9683  -20.2137    0.0000 C   0  0  0  0  0  0  0  0  0  0  0  0
  -23.2077  -21.6945    0.0000 C   0  0  0  0  0  0  0  0  0  0  0  0
  -23.3517  -23.1876    0.0000 C   0  0  0  0  0  0  0  0  0  0  0  0
  -23.3998  -24.6868    0.0000 C   0  0  0  0  0  0  0  0  0  0  0  0
  -23.3517  -26.1860    0.0000 C   0  0  0  0  0  0  0  0  0  0  0  0
  -23.2077  -27.6791    0.0000 C   0  0  0  0  0  0  0  0  0  0  0  0
  -22.9683  -29.1599    0.0000 C   0  0  0  0  0  0  0  0  0  0  0  0
  -22.6345  -30.6223    0.0000 C   0  0  0  0  0  0  0  0  0  0  0  0
  -22.2077  -32.0603    0.0000 C   0  0  0  0  0  0  0  0  0  0  0  0
  -21.6897  -33.4680    0.0000 C   0  0  0  0  0  0  0  0  0  0  0  0
  -21.0825  -34.8396    0.0000 C   0  0  0  0  0  0  0  0  0  0  0  0
  -20.3887  -36.1695    0.0000 C   0  0  0  0  0  0  0  0  0  0  0  0
  -19.6111  -37.4522    0.0000 C   0  0  0  0  0  0  0  0  0  0  0  0
  -18.7529  -38.6825    0.0000 C   0  0  0  0  0  0  0  0  0  0  0  0
  -17.8177  -39.8552    0.0000 C   0  0  0  0  0  0  0  0  0  0  0  0
  -16.8092  -40.9656    0.0000 C   0  0  0  0  0  0  0  0  0  0  0  0
  -15.7317  -42.0091    0.0000 C   0  0  0  0  0  0  0  0  0  0  0  0
  -14.5895  -42.9815    0.0000 C   0  0  0  0  0  0  0  0  0  0  0  0
  -13.3874  -43.8787    0.0000 C   0  0  0  0  0  0  0  0  0  0  0  0
  -12.1303  -44.6970    0.0000 C   0  0  0  0  0  0  0  0  0  0  0  0
  -10.8233  -45.4330    0.0000 C   0  0  0  0  0  0  0  0  0  0  0  0
   -9.4718  -46.0839    0.0000 C   0  0  0  0  0  0  0  0  0  0  0  0
   -8.0815  -46.6468    0.0000 C   0  0  0  0  0  0  0  0  0  0  0  0
   -6.6579  -47.1194    0.0000 C   0  0  0  0  0  0  0  0  0  0  0  0
   -5.2069  -47.4999    0.0000 C   0  0  0  0  0  0  0  0  0  0  0  0
   -3.7346  -47.7866    0.0000 C   0  0  0  0  0  0  0  0  0  0  0  0
   -2.2469  -47.9785    0.0000 C   0  0  0  0  0  0  0  0  0  0  0  0
   -0.7500  -48.0746    0.0000 C   0  0  0  0  0  0  0  0  0  0  0  0
    0.7500  -48.0746    0.0000 C   0  0  0  0  0  0  0  0  0  0  0  0
    2.2469  -47.9785    0.0000 C   0  0  0  0  0  0  0  0  0  0  0  0
    3.7346  -47.7866    0.0000 C   0  0  0  0  0  0  0  0  0  0  0  0
    5.2069  -47.4999    0.0000 C   0  0  0  0  0  0  0  0  0  0  0  0
    6.6579  -47.1194    0.0000 C   0  0  0  0  0  0  0  0  0  0  0  0
    8.0815  -46.6468    0.0000 C   0  0  0  0  0  0  0  0  0  0  0  0
    9.4718  -46.0839    0.0000 C   0  0  0  0  0  0  0  0  0  0  0  0
   10.8233  -45.4330    0.0000 C   0  0  0  0  0  0  0  0  0  0  0  0
   12.1303  -44.6970    0.0000 C   0  0  0  0  0  0  0  0  0  0  0  0
   13.3874  -43.8787    0.0000 C   0  0  0  0  0  0  0  0  0  0  0  0
   14.5895  -42.9815    0.0000 C   0  0  0  0  0  0  0  0  0  0  0  0
   15.7317  -42.0091    0.0000 C   0  0  0  0  0  0  0  0  0  0  0  0
   16.8092  -40.9656    0.0000 C   0  0  0  0  0  0  0  0  0  0  0  0
   17.8177  -39.8552    0.0000 C   0  0  0  0  0  0  0  0  0  0  0  0
   18.7529  -38.6825    0.0000 C   0  0  0  0  0  0  0  0  0  0  0  0
   19.6111  -37.4522    0.0000 C   0  0  0  0  0  0  0  0  0  0  0  0
   20.3887  -36.1695    0.0000 C   0  0  0  0  0  0  0  0  0  0  0  0
   21.0825  -34.8396    0.0000 C   0  0  0  0  0  0  0  0  0  0  0  0
   21.6897  -33.4680    0.0000 C   0  0  0  0  0  0  0  0  0  0  0  0
   22.2077  -32.0603    0.0000 C   0  0  0  0  0  0  0  0  0  0  0  0
   22.6345  -30.6223    0.0000 C   0  0  0  0  0  0  0  0  0  0  0  0
   22.9683  -29.1599    0.0000 C   0  0  0  0  0  0  0  0  0  0  0  0
   23.2077  -27.6791    0.0000 C   0  0  0  0  0  0  0  0  0  0  0  0
   23.3517  -26.1860    0.0000 C   0  0  0  0  0  0  0  0  0  0  0  0
   23.3998  -24.6868    0.0000 C   0  0  0  0  0  0  0  0  0  0  0  0
   23.3517  -23.1876    0.0000 C   0  0  0  0  0  0  0  0  0  0  0  0
   23.2077  -21.6945    0.0000 C   0  0  0  0  0  0  0  0  0  0  0  0
   22.9683  -20.2137    0.0000 C   0  0  0  0  0  0  0  0  0  0  0  0
   22.6345  -18.7513    0.0000 C   0  0  0  0  0  0  0  0  0  0  0  0
   22.2077  -17.3133    0.0000 C   0  0  0  0  0  0  0  0  0  0  0  0
   21.6897  -15.9056    0.0000 C   0  0  0  0  0  0  0  0  0  0  0  0
   21.0825  -14.5340    0.0000 C   0  0  0  0  0  0  0  0  0  0  0  0
   20.3887  -13.2041    0.0000 C   0  0  0  0  0  0  0  0  0  0  0  0
   19.6111  -11.9214    0.0000 C   0  0  0  0  0  0  0  0  0  0  0  0
   18.7529  -10.6911    0.0000 C   0  0  0  0  0  0  0  0  0  0  0  0
   17.8177   -9.5184    0.0000 C   0  0  0  0  0  0  0  0  0  0  0  0
   16.8092   -8.4080    0.0000 C   0  0  0  0  0  0  0  0  0  0  0  0
   15.7317   -7.3645    0.0000 C   0  0  0  0  0  0  0  0  0  0  0  0
   14.5895   -6.3921    0.0000 C   0  0  0  0  0  0  0  0  0  0  0  0
   13.3874   -5.4949    0.0000 C   0  0  0  0  0  0  0  0  0  0  0  0
   12.1303   -4.6766    0.0000 C   0  0  0  0  0  0  0  0  0  0  0  0
   10.8233   -3.9406    0.0000 C   0  0  0  0  0  0  0  0  0  0  0  0
    9.4718   -3.2897    0.0000 C   0  0  0  0  0  0  0  0  0  0  0  0
    8.0815   -2.7268    0.0000 C   0  0  0  0  0  0  0  0  0  0  0  0
    6.6579   -2.2542    0.0000 C   0  0  0  0  0  0  0  0  0  0  0  0
    5.2069   -1.8737    0.0000 C   0  0  0  0  0  0  0  0  0  0  0  0
    3.7346   -1.5870    0.0000 C   0  0  0  0  0  0  0  0  0  0  0  0
    4.0119   -3.0611    0.0000 C   0  0  0  0  0  0  0  0  0  0  0  0
    2.6956   -3.7804    0.0000 C   0  0  0  0  0  0  0  0  0  0  0  0
    1.6048   -2.7507    0.0000 C   0  0  0  0  0  0  0  0  0  0  0  0
    2.2469   -1.3951    0.0000 C   0  0  0  0  0  0  0  0  0  0  0  0
    0.7500   -1.2990    0.0000 C   0  0  0  0  0  0  0  0  0  0  0  0
    1.5000    0.0000    0.0000 C   0  0  0  0  0  0  0  0  0  0  0  0
    0.7500    1.2990    0.0000 C   0  0  0  0  0  0  0  0  0  0  0  0
   -0.7500    1.2990    0.0000 C   0  0  0  0  0  0  0  0  0  0  0  0
   -1.5000    0.0000    0.0000 C   0  0  0  0  0  0  0  0  0  0  0  0
   -0.7500   -1.2990    0.0000 C   0  0  0  0  0  0  0  0  0  0  0  0
   -2.2469   -1.3951    0.0000 C   0  0  0  0  0  0  0  0  0  0  0  0
   -1.3370   -2.5876    0.0000 C   0  0  0  0  0  0  0  0  0  0  0  0
   -1.9147   -3.9719    0.0000 C   0  0  0  0  0  0  0  0  0  0  0  0
   -3.4024   -4.1637    0.0000 C   0  0  0  0  0  0  0  0  0  0  0  0
   -4.3123   -2.9712    0.0000 C   0  0  0  0  0  0  0  0  0  0  0  0
   -3.7346   -1.5870    0.0000 C   0  0  0  0  0  0  0  0  0  0  0  0
  1  2  1  0
  2  3  1  0
  3  4  1  0
  4  5  1  0
  5  6  1  0
  6  7  1  0
  7  8  1  0
  8  9  1  0
  9 10  1  0
 10 11  1  0
 11 12  1  0
 12 13  1  0
 13 14  1  0
 14 15  1  0
 15 16  1  0
 16 17  1  0
 17 18  1  0
 18 19  1  0
 19 20  1  0
 20 21  1  0
 21 22  1  0
 22 23  1  0
 23 24  1  0
 24 25  1  0
 25 26  1  0
 26 27  1  0
 27 28  1  0
 28 29  1  0
 29 30  1  0
 30 31  1  0
 31 32  1  0
 32 33  1  0
 33 34  1  0
 34 35  1  0
 35 36  1  0
 36 37  1  0
 37 38  1  0
 38 39  1  0
 39 40  1  0
 40 41  1  0
 41 42  1  0
 42 43  1  0
 43 44  1  0
 44 45  1  0
 45 46  1  0
 46 47  1  0
 47 48  1  0
 48 49  1  0
 49 50  1  0
 50 51  1  0
 51 52  1  0
 52 53  1  0
 53 54  1  0
 54 55  1  0
 55 56  1  0
 56 57  1  0
 57 58  1  0
 58 59  1  0
 59 60  1  0
 60 61  1  0
 61 62  1  0
 62 63  1  0
 63 64  1  0
 64 65  1  0
 65 66  1  0
 66 67  1  0
 67 68  1  0
 68 69  1  0
 69 70  1  0
 70 71  1  0
 71 72  1  0
 72 73  1  0
 73 74  1  0
 74 75  1  0
 75 76  1  0
 76 77  1  0
 77 78  1  0
 78 79  1  0
 79 80  1  0
 80 81  1  0
 81 82  1  0
 82 83  1  0
 83 84  1  0
 84 85  1  0
 85 86  1  0
 86 87  1  0
 87 88  1  0
 88 89  1  0
 89 90  1  0
 90 91  1  0
 91 92  1  0
 92 93  1  0
 93 94  1  0
 94 95  1  0
 95 96  2  0
 96 97  1  0
 97 98  2  0
 98 99  1  0
 99100  2  0
100101  1  0
101102  2  0
102103  1  0
103104  2  0
104105  1  0
105106  2  0
106107  1  0
107108  2  0
108109  1  0
109110  2  0
110  2  1  0
 98 94  1  0
104 99  1  0
110105  1  0
M  END
>  <Title>  (313) 
idAAKCgen10

$$$$

     RDKit          2D

 12 13  0  0  0  0  0  0  0  0999 V2000
   -4.0667   -3.6527    0.0000 C   0  0  0  0  0  0  0  0  0  0  0  0
   -2.6401   -3.1891    0.0000 C   0  0  0  0  0  0  0  0  0  0  0  0
   -1.2135   -2.7256    0.0000 C   0  0  0  0  0  0  0  0  0  0  0  0
   -0.0000   -3.6073    0.0000 C   0  0  0  0  0  0  0  0  0  0  0  0
    1.2135   -2.7256    0.0000 C   0  0  0  0  0  0  0  0  0  0  0  0
    2.6401   -3.1891    0.0000 C   0  0  0  0  0  0  0  0  0  0  0  0
    0.7500   -1.2990    0.0000 C   0  0  0  0  0  0  0  0  0  0  0  0
    1.5000    0.0000    0.0000 C   0  0  0  0  0  0  0  0  0  0  0  0
    0.7500    1.2990    0.0000 C   0  0  0  0  0  0  0  0  0  0  0  0
   -0.7500    1.2990    0.0000 C   0  0  0  0  0  0  0  0  0  0  0  0
   -1.5000    0.0000    0.0000 C   0  0  0  0  0  0  0  0  0  0  0  0
   -0.7500   -1.2990    0.0000 C   0  0  0  0  0  0  0  0  0  0  0  0
  1  2  3  0
  2  3  1  0
  3  4  2  0
  4  5  1  0
  5  6  1  0
  5  7  1  0
  7  8  2  0
  8  9  1  0
  9 10  2  0
 10 11  1  0
 11 12  2  0
 12  3  1  0
 12  7  1  0
M  END
>  <Title>  (314) 
idAAKDgen10

$$$$

     RDKit          2D

 11 12  0  0  0  0  0  0  0  0999 V2000
   -4.0667   -3.6527    0.0000 N   0  0  0  0  0  0  0  0  0  0  0  0
   -2.6401   -3.1891    0.0000 C   0  0  0  0  0  0  0  0  0  0  0  0
   -1.2135   -2.7256    0.0000 C   0  0  0  0  0  0  0  0  0  0  0  0
   -0.0000   -3.6073    0.0000 C   0  0  0  0  0  0  0  0  0  0  0  0
    1.2135   -2.7256    0.0000 C   0  0  0  0  0  0  0  0  0  0  0  0
    0.7500   -1.2990    0.0000 C   0  0  0  0  0  0  0  0  0  0  0  0
    1.5000    0.0000    0.0000 C   0  0  0  0  0  0  0  0  0  0  0  0
    0.7500    1.2990    0.0000 C   0  0  0  0  0  0  0  0  0  0  0  0
   -0.7500    1.2990    0.0000 C   0  0  0  0  0  0  0  0  0  0  0  0
   -1.5000    0.0000    0.0000 C   0  0  0  0  0  0  0  0  0  0  0  0
   -0.7500   -1.2990    0.0000 C   0  0  0  0  0  0  0  0  0  0  0  0
  1  2  3  0
  2  3  1  0
  3  4  2  0
  4  5  1  0
  5  6  1  0
  6  7  2  0
  7  8  1  0
  8  9  2  0
  9 10  1  0
 10 11  2  0
 11  3  1  0
 11  6  1  0
M  END
>  <Title>  (315) 
idAAKEgen10

$$$$

     RDKit          2D

 49 49  0  0  0  0  0  0  0  0999 V2000
   12.9673    0.0000    0.0000 C   0  0  0  0  0  0  0  0  0  0  0  0
   11.4673    0.0000    0.0000 C   0  0  0  0  0  0  0  0  0  0  0  0
   11.3692   -1.4968    0.0000 C   0  0  0  0  0  0  0  0  0  0  0  0
   11.0766   -2.9680    0.0000 C   0  0  0  0  0  0  0  0  0  0  0  0
   10.5944   -4.3884    0.0000 C   0  0  0  0  0  0  0  0  0  0  0  0
    9.9310   -5.7337    0.0000 C   0  0  0  0  0  0  0  0  0  0  0  0
    9.0977   -6.9809    0.0000 C   0  0  0  0  0  0  0  0  0  0  0  0
    8.1086   -8.1086    0.0000 C   0  0  0  0  0  0  0  0  0  0  0  0
    6.9809   -9.0977    0.0000 C   0  0  0  0  0  0  0  0  0  0  0  0
    5.7337   -9.9310    0.0000 C   0  0  0  0  0  0  0  0  0  0  0  0
    4.3884  -10.5944    0.0000 C   0  0  0  0  0  0  0  0  0  0  0  0
    2.9680  -11.0766    0.0000 C   0  0  0  0  0  0  0  0  0  0  0  0
    1.4968  -11.3692    0.0000 C   0  0  0  0  0  0  0  0  0  0  0  0
   -0.0000  -11.4673    0.0000 C   0  0  0  0  0  0  0  0  0  0  0  0
   -1.4968  -11.3692    0.0000 C   0  0  0  0  0  0  0  0  0  0  0  0
   -2.9680  -11.0766    0.0000 C   0  0  0  0  0  0  0  0  0  0  0  0
   -4.3884  -10.5944    0.0000 C   0  0  0  0  0  0  0  0  0  0  0  0
   -5.7337   -9.9310    0.0000 C   0  0  0  0  0  0  0  0  0  0  0  0
   -6.9809   -9.0977    0.0000 C   0  0  0  0  0  0  0  0  0  0  0  0
   -8.1086   -8.1086    0.0000 C   0  0  0  0  0  0  0  0  0  0  0  0
   -9.0977   -6.9809    0.0000 C   0  0  0  0  0  0  0  0  0  0  0  0
   -9.9310   -5.7337    0.0000 C   0  0  0  0  0  0  0  0  0  0  0  0
  -10.5944   -4.3884    0.0000 C   0  0  0  0  0  0  0  0  0  0  0  0
  -11.0766   -2.9680    0.0000 C   0  0  0  0  0  0  0  0  0  0  0  0
  -11.3692   -1.4968    0.0000 C   0  0  0  0  0  0  0  0  0  0  0  0
  -11.4673    0.0000    0.0000 C   0  0  0  0  0  0  0  0  0  0  0  0
  -11.3692    1.4968    0.0000 C   0  0  0  0  0  0  0  0  0  0  0  0
  -11.0766    2.9680    0.0000 C   0  0  0  0  0  0  0  0  0  0  0  0
  -10.5944    4.3884    0.0000 C   0  0  0  0  0  0  0  0  0  0  0  0
   -9.9310    5.7337    0.0000 C   0  0  0  0  0  0  0  0  0  0  0  0
   -9.0977    6.9809    0.0000 C   0  0  0  0  0  0  0  0  0  0  0  0
   -8.1086    8.1086    0.0000 C   0  0  0  0  0  0  0  0  0  0  0  0
   -6.9809    9.0977    0.0000 C   0  0  0  0  0  0  0  0  0  0  0  0
   -5.7337    9.9310    0.0000 C   0  0  0  0  0  0  0  0  0  0  0  0
   -4.3884   10.5944    0.0000 C   0  0  0  0  0  0  0  0  0  0  0  0
   -2.9680   11.0766    0.0000 C   0  0  0  0  0  0  0  0  0  0  0  0
   -1.4968   11.3692    0.0000 C   0  0  0  0  0  0  0  0  0  0  0  0
    0.0000   11.4673    0.0000 C   0  0  0  0  0  0  0  0  0  0  0  0
    1.4968   11.3692    0.0000 C   0  0  0  0  0  0  0  0  0  0  0  0
    2.9680   11.0766    0.0000 C   0  0  0  0  0  0  0  0  0  0  0  0
    4.3884   10.5944    0.0000 C   0  0  0  0  0  0  0  0  0  0  0  0
    5.7337    9.9310    0.0000 C   0  0  0  0  0  0  0  0  0  0  0  0
    6.9809    9.0977    0.0000 C   0  0  0  0  0  0  0  0  0  0  0  0
    8.1086    8.1086    0.0000 C   0  0  0  0  0  0  0  0  0  0  0  0
    9.0977    6.9809    0.0000 C   0  0  0  0  0  0  0  0  0  0  0  0
    9.9310    5.7337    0.0000 C   0  0  0  0  0  0  0  0  0  0  0  0
   10.5944    4.3884    0.0000 C   0  0  0  0  0  0  0  0  0  0  0  0
   11.0766    2.9680    0.0000 C   0  0  0  0  0  0  0  0  0  0  0  0
   11.3692    1.4968    0.0000 C   0  0  0  0  0  0  0  0  0  0  0  0
  1  2  1  0
  2  3  2  0
  3  4  1  0
  4  5  1  0
  5  6  1  0
  6  7  1  0
  7  8  1  0
  8  9  1  0
  9 10  1  0
 10 11  1  0
 11 12  1  0
 12 13  1  0
 13 14  1  0
 14 15  1  0
 15 16  1  0
 16 17  1  0
 17 18  1  0
 18 19  1  0
 19 20  1  0
 20 21  1  0
 21 22  1  0
 22 23  1  0
 23 24  1  0
 24 25  1  0
 25 26  1  0
 26 27  1  0
 27 28  1  0
 28 29  1  0
 29 30  1  0
 30 31  1  0
 31 32  1  0
 32 33  1  0
 33 34  1  0
 34 35  1  0
 35 36  1  0
 36 37  1  0
 37 38  1  0
 38 39  1  0
 39 40  1  0
 40 41  1  0
 41 42  1  0
 42 43  1  0
 43 44  1  0
 44 45  1  0
 45 46  1  0
 46 47  1  0
 47 48  1  0
 48 49  1  0
 49  2  1  0
M  END
>  <Title>  (316) 
idAAKFgen10

$$$$

     RDKit          2D

  8  9  0  0  0  0  0  0  0  0999 V2000
   -0.7500   -2.7990    0.0000 C   0  0  0  0  0  0  0  0  0  0  0  0
    0.7500   -2.7990    0.0000 C   0  0  0  0  0  0  0  0  0  0  0  0
    0.7500   -1.2990    0.0000 C   0  0  0  0  0  0  0  0  0  0  0  0
    1.5000    0.0000    0.0000 C   0  0  0  0  0  0  0  0  0  0  0  0
    0.7500    1.2990    0.0000 C   0  0  0  0  0  0  0  0  0  0  0  0
   -0.7500    1.2990    0.0000 C   0  0  0  0  0  0  0  0  0  0  0  0
   -1.5000    0.0000    0.0000 C   0  0  0  0  0  0  0  0  0  0  0  0
   -0.7500   -1.2990    0.0000 C   0  0  0  0  0  0  0  0  0  0  0  0
  1  2  2  0
  2  3  1  0
  3  4  2  0
  4  5  1  0
  5  6  2  0
  6  7  1  0
  7  8  2  0
  8  1  1  0
  8  3  1  0
M  END
>  <Title>  (317) 
idAAKGgen10

$$$$

     RDKit          2D

 13 13  0  0  0  0  0  0  0  0999 V2000
    7.7286   -0.0000    0.0000 C   0  0  0  0  0  0  0  0  0  0  0  0
    6.2286   -0.0000    0.0000 C   0  0  0  0  0  0  0  0  0  0  0  0
    4.7286   -0.0000    0.0000 C   0  0  0  0  0  0  0  0  0  0  0  0
    3.2286   -0.0000    0.0000 C   0  0  0  0  0  0  0  0  0  0  0  0
    1.7286    0.0000    0.0000 C   0  0  0  0  0  0  0  0  0  0  0  0
    1.0777    1.3515    0.0000 C   0  0  0  0  0  0  0  0  0  0  0  0
   -0.3846    1.6852    0.0000 C   0  0  0  0  0  0  0  0  0  0  0  0
   -0.7184    3.1476    0.0000 C   0  0  0  0  0  0  0  0  0  0  0  0
   -1.5574    0.7500    0.0000 C   0  0  0  0  0  0  0  0  0  0  0  0
   -2.9088    1.4008    0.0000 C   0  0  0  0  0  0  0  0  0  0  0  0
   -1.5574   -0.7500    0.0000 C   0  0  0  0  0  0  0  0  0  0  0  0
   -0.3846   -1.6852    0.0000 C   0  0  0  0  0  0  0  0  0  0  0  0
    1.0777   -1.3515    0.0000 C   0  0  0  0  0  0  0  0  0  0  0  0
  1  2  3  0
  2  3  1  0
  3  4  3  0
  4  5  1  0
  5  6  2  0
  6  7  1  0
  7  8  1  0
  7  9  1  0
  9 10  1  0
  9 11  2  0
 11 12  1  0
 12 13  2  0
 13  5  1  0
M  END
>  <Title>  (318) 
idAAKHgen10

$$$$

     RDKit          2D

 34 38  0  0  0  0  0  0  0  0999 V2000
    1.4043  -12.2212    0.0000 C   0  0  0  0  0  0  0  0  0  0  0  0
    0.0340  -11.6111    0.0000 C   0  0  0  0  0  0  0  0  0  0  0  0
   -1.3364  -11.0010    0.0000 C   0  0  0  0  0  0  0  0  0  0  0  0
   -2.7067  -10.3909    0.0000 C   0  0  0  0  0  0  0  0  0  0  0  0
   -4.0770   -9.7808    0.0000 C   0  0  0  0  0  0  0  0  0  0  0  0
   -5.2905  -10.6625    0.0000 C   0  0  0  0  0  0  0  0  0  0  0  0
   -6.6608  -10.0524    0.0000 C   0  0  0  0  0  0  0  0  0  0  0  0
   -6.8176   -8.5606    0.0000 C   0  0  0  0  0  0  0  0  0  0  0  0
   -5.6041   -7.6789    0.0000 C   0  0  0  0  0  0  0  0  0  0  0  0
   -4.2338   -8.2890    0.0000 C   0  0  0  0  0  0  0  0  0  0  0  0
   -3.0203   -7.4073    0.0000 C   0  0  0  0  0  0  0  0  0  0  0  0
   -1.6499   -8.0175    0.0000 O   0  0  0  0  0  0  0  0  0  0  0  0
   -3.1771   -5.9156    0.0000 N   0  0  0  0  0  0  0  0  0  0  0  0
   -1.9635   -5.0339    0.0000 C   0  0  0  0  0  0  0  0  0  0  0  0
   -0.7500   -5.9156    0.0000 N   0  0  0  0  0  0  0  0  0  0  0  0
    0.7500   -5.9156    0.0000 N   0  0  0  0  0  0  0  0  0  0  0  0
    1.9635   -5.0339    0.0000 N   0  0  0  0  0  0  0  0  0  0  0  0
    2.4271   -3.6073    0.0000 N   0  0  0  0  0  0  0  0  0  0  0  0
    3.9271   -3.6073    0.0000 C   0  0  0  0  0  0  0  0  0  0  0  0
    4.3906   -2.1807    0.0000 C   0  0  0  0  0  0  0  0  0  0  0  0
    3.1771   -1.2990    0.0000 C   0  0  0  0  0  0  0  0  0  0  0  0
    1.9635   -2.1807    0.0000 C   0  0  0  0  0  0  0  0  0  0  0  0
    0.7500   -1.2990    0.0000 C   0  0  0  0  0  0  0  0  0  0  0  0
    1.5000    0.0000    0.0000 C   0  0  0  0  0  0  0  0  0  0  0  0
    0.7500    1.2990    0.0000 C   0  0  0  0  0  0  0  0  0  0  0  0
   -0.7500    1.2990    0.0000 C   0  0  0  0  0  0  0  0  0  0  0  0
   -1.5000    0.0000    0.0000 C   0  0  0  0  0  0  0  0  0  0  0  0
   -0.7500   -1.2990    0.0000 C   0  0  0  0  0  0  0  0  0  0  0  0
   -1.9635   -2.1807    0.0000 C   0  0  0  0  0  0  0  0  0  0  0  0
   -2.9672   -1.0660    0.0000 C   0  0  0  0  0  0  0  0  0  0  0  0
   -4.4344   -1.3779    0.0000 C   0  0  0  0  0  0  0  0  0  0  0  0
   -4.8980   -2.8045    0.0000 C   0  0  0  0  0  0  0  0  0  0  0  0
   -3.8943   -3.9192    0.0000 C   0  0  0  0  0  0  0  0  0  0  0  0
   -2.4271   -3.6073    0.0000 C   0  0  0  0  0  0  0  0  0  0  0  0
  1  2  3  0
  2  3  1  0
  3  4  3  0
  4  5  1  0
  5  6  2  0
  6  7  1  0
  7  8  2  0
  8  9  1  0
  9 10  2  0
 10 11  1  0
 11 12  2  0
 11 13  1  0
 13 14  1  0
 14 15  2  0
 15 16  1  0
 16 17  2  0
 17 18  1  0
 18 19  1  0
 19 20  2  0
 20 21  1  0
 21 22  2  0
 22 23  1  0
 23 24  2  0
 24 25  1  0
 25 26  2  0
 26 27  1  0
 27 28  2  0
 28 29  1  0
 29 30  2  0
 30 31  1  0
 31 32  2  0
 32 33  1  0
 33 34  2  0
 10  5  1  0
 34 14  1  0
 22 18  1  0
 28 23  1  0
 34 29  1  0
M  END
>  <Title>  (319) 
idAAKIgen10

$$$$

     RDKit          2D

 12 12  0  0  0  0  0  0  0  0999 V2000
    4.5000    2.5981    0.0000 C   0  0  0  0  0  0  0  0  0  0  0  0
    3.7500    1.2990    0.0000 C   0  0  0  0  0  0  0  0  0  0  0  0
    3.0000    0.0000    0.0000 C   0  0  0  0  0  0  0  0  0  0  0  0
    3.7500   -1.2990    0.0000 C   0  0  0  0  0  0  0  0  0  0  0  0
    1.5000    0.0000    0.0000 C   0  0  0  0  0  0  0  0  0  0  0  0
    0.7500   -1.2990    0.0000 C   0  0  0  0  0  0  0  0  0  0  0  0
   -0.7500   -1.2990    0.0000 C   0  0  0  0  0  0  0  0  0  0  0  0
   -1.5000   -2.5981    0.0000 O   0  0  0  0  0  0  0  0  0  0  0  0
   -1.5000    0.0000    0.0000 C   0  0  0  0  0  0  0  0  0  0  0  0
   -0.7500    1.2990    0.0000 C   0  0  0  0  0  0  0  0  0  0  0  0
   -1.5000    2.5981    0.0000 O   0  0  0  0  0  0  0  0  0  0  0  0
    0.7500    1.2990    0.0000 C   0  0  0  0  0  0  0  0  0  0  0  0
  1  2  3  0
  2  3  1  0
  3  4  1  0
  3  5  1  0
  5  6  2  0
  6  7  1  0
  7  8  1  0
  7  9  2  0
  9 10  1  0
 10 11  1  0
 10 12  1  0
 12  5  1  0
M  END
>  <Title>  (320) 
idAAKJgen10

$$$$

     RDKit          2D

  8  8  0  0  0  0  0  0  0  0999 V2000
    3.2286   -0.0000    0.0000 C   0  0  0  0  0  0  0  0  0  0  0  0
    1.7286    0.0000    0.0000 C   0  0  0  0  0  0  0  0  0  0  0  0
    1.0777    1.3515    0.0000 C   0  0  0  0  0  0  0  0  0  0  0  0
   -0.3846    1.6852    0.0000 C   0  0  0  0  0  0  0  0  0  0  0  0
   -1.5574    0.7500    0.0000 C   0  0  0  0  0  0  0  0  0  0  0  0
   -1.5574   -0.7500    0.0000 C   0  0  0  0  0  0  0  0  0  0  0  0
   -0.3846   -1.6852    0.0000 C   0  0  0  0  0  0  0  0  0  0  0  0
    1.0777   -1.3515    0.0000 C   0  0  0  0  0  0  0  0  0  0  0  0
  1  2  1  0
  2  3  2  0
  3  4  1  0
  4  5  1  0
  5  6  1  0
  6  7  1  0
  7  8  2  0
  8  2  1  0
M  END
>  <Title>  (321) 
idAAKKgen10

$$$$

     RDKit          2D

  8  8  0  0  0  0  0  0  0  0999 V2000
    2.7760    0.0000    0.0000 C   0  0  0  0  0  0  0  0  0  0  0  0
    1.2760    0.0000    0.0000 C   0  0  0  0  0  0  0  0  0  0  0  0
    0.3943    1.2135    0.0000 C   0  0  0  0  0  0  0  0  0  0  0  0
   -1.0323    0.7500    0.0000 C   0  0  0  0  0  0  0  0  0  0  0  0
   -2.2458    1.6317    0.0000 C   0  0  0  0  0  0  0  0  0  0  0  0
   -1.0323   -0.7500    0.0000 C   0  0  0  0  0  0  0  0  0  0  0  0
   -2.2458   -1.6317    0.0000 C   0  0  0  0  0  0  0  0  0  0  0  0
    0.3943   -1.2135    0.0000 C   0  0  0  0  0  0  0  0  0  0  0  0
  1  2  1  0
  2  3  2  0
  3  4  1  0
  4  5  1  0
  4  6  1  0
  6  7  1  0
  6  8  2  0
  8  2  1  0
M  END
>  <Title>  (322) 
idAAKLgen10

$$$$

     RDKit          2D

 96 97  0  0  0  0  0  0  0  0999 V2000
   10.1773   -4.4613    0.0000 C   0  0  0  0  0  0  0  0  0  0  0  0
   10.9745   -4.4645    0.0000 C   0  0  0  0  0  0  0  0  0  0  0  0
   11.0646   -5.9618    0.0000 C   0  0  0  0  0  0  0  0  0  0  0  0
   11.3454   -7.4353    0.0000 C   0  0  0  0  0  0  0  0  0  0  0  0
   11.8124   -8.8607    0.0000 C   0  0  0  0  0  0  0  0  0  0  0  0
   12.4578  -10.2148    0.0000 C   0  0  0  0  0  0  0  0  0  0  0  0
   13.2711  -11.4752    0.0000 C   0  0  0  0  0  0  0  0  0  0  0  0
   14.2388  -12.6212    0.0000 C   0  0  0  0  0  0  0  0  0  0  0  0
   15.3452  -13.6341    0.0000 C   0  0  0  0  0  0  0  0  0  0  0  0
   16.5720  -14.4972    0.0000 C   0  0  0  0  0  0  0  0  0  0  0  0
   17.8991  -15.1963    0.0000 C   0  0  0  0  0  0  0  0  0  0  0  0
   19.3047  -15.7200    0.0000 C   0  0  0  0  0  0  0  0  0  0  0  0
   20.7658  -16.0597    0.0000 C   0  0  0  0  0  0  0  0  0  0  0  0
   22.2582  -16.2097    0.0000 C   0  0  0  0  0  0  0  0  0  0  0  0
   23.7576  -16.1676    0.0000 C   0  0  0  0  0  0  0  0  0  0  0  0
   25.2394  -15.9342    0.0000 C   0  0  0  0  0  0  0  0  0  0  0  0
   26.6791  -15.5131    0.0000 C   0  0  0  0  0  0  0  0  0  0  0  0
   28.0531  -14.9115    0.0000 C   0  0  0  0  0  0  0  0  0  0  0  0
   29.3389  -14.1390    0.0000 C   0  0  0  0  0  0  0  0  0  0  0  0
   30.5154  -13.2085    0.0000 C   0  0  0  0  0  0  0  0  0  0  0  0
   31.5632  -12.1352    0.0000 C   0  0  0  0  0  0  0  0  0  0  0  0
   32.4652  -10.9366    0.0000 C   0  0  0  0  0  0  0  0  0  0  0  0
   33.2065   -9.6326    0.0000 C   0  0  0  0  0  0  0  0  0  0  0  0
   33.7750   -8.2445    0.0000 C   0  0  0  0  0  0  0  0  0  0  0  0
   34.1613   -6.7951    0.0000 C   0  0  0  0  0  0  0  0  0  0  0  0
   34.3591   -5.3082    0.0000 C   0  0  0  0  0  0  0  0  0  0  0  0
   34.3651   -3.8082    0.0000 C   0  0  0  0  0  0  0  0  0  0  0  0
   34.1792   -2.3198    0.0000 C   0  0  0  0  0  0  0  0  0  0  0  0
   33.8046   -0.8673    0.0000 C   0  0  0  0  0  0  0  0  0  0  0  0
   33.2472    0.5253    0.0000 C   0  0  0  0  0  0  0  0  0  0  0  0
   32.5164    1.8352    0.0000 C   0  0  0  0  0  0  0  0  0  0  0  0
   31.6241    3.0409    0.0000 C   0  0  0  0  0  0  0  0  0  0  0  0
   30.5849    4.1226    0.0000 C   0  0  0  0  0  0  0  0  0  0  0  0
   29.4159    5.0626    0.0000 C   0  0  0  0  0  0  0  0  0  0  0  0
   28.1363    5.8453    0.0000 C   0  0  0  0  0  0  0  0  0  0  0  0
   26.7671    6.4579    0.0000 C   0  0  0  0  0  0  0  0  0  0  0  0
   25.3308    6.8905    0.0000 C   0  0  0  0  0  0  0  0  0  0  0  0
   23.8510    7.1358    0.0000 C   0  0  0  0  0  0  0  0  0  0  0  0
   22.3520    7.1899    0.0000 C   0  0  0  0  0  0  0  0  0  0  0  0
   20.8584    7.0519    0.0000 C   0  0  0  0  0  0  0  0  0  0  0  0
   19.3947    6.7239    0.0000 C   0  0  0  0  0  0  0  0  0  0  0  0
   17.9849    6.2115    0.0000 C   0  0  0  0  0  0  0  0  0  0  0  0
   16.6522    5.5231    0.0000 C   0  0  0  0  0  0  0  0  0  0  0  0
   15.4185    4.6698    0.0000 C   0  0  0  0  0  0  0  0  0  0  0  0
   14.3041    3.6658    0.0000 C   0  0  0  0  0  0  0  0  0  0  0  0
   13.3272    2.5276    0.0000 C   0  0  0  0  0  0  0  0  0  0  0  0
   12.5038    1.2737    0.0000 C   0  0  0  0  0  0  0  0  0  0  0  0
   11.8476   -0.0751    0.0000 C   0  0  0  0  0  0  0  0  0  0  0  0
   11.3692   -1.4968    0.0000 C   0  0  0  0  0  0  0  0  0  0  0  0
   10.7673   -0.0000    0.0000 C   0  0  0  0  0  0  0  0  0  0  0  0
   10.6752    1.4054    0.0000 C   0  0  0  0  0  0  0  0  0  0  0  0
   10.4005    2.7868    0.0000 C   0  0  0  0  0  0  0  0  0  0  0  0
    9.9477    4.1205    0.0000 C   0  0  0  0  0  0  0  0  0  0  0  0
    9.3248    5.3837    0.0000 C   0  0  0  0  0  0  0  0  0  0  0  0
    8.5423    6.5547    0.0000 C   0  0  0  0  0  0  0  0  0  0  0  0
    7.6137    7.6137    0.0000 C   0  0  0  0  0  0  0  0  0  0  0  0
    6.5547    8.5423    0.0000 C   0  0  0  0  0  0  0  0  0  0  0  0
    5.3837    9.3248    0.0000 C   0  0  0  0  0  0  0  0  0  0  0  0
    4.1205    9.9477    0.0000 C   0  0  0  0  0  0  0  0  0  0  0  0
    2.7868   10.4005    0.0000 C   0  0  0  0  0  0  0  0  0  0  0  0
    1.4054   10.6752    0.0000 C   0  0  0  0  0  0  0  0  0  0  0  0
    0.0000   10.7673    0.0000 C   0  0  0  0  0  0  0  0  0  0  0  0
   -1.4054   10.6752    0.0000 C   0  0  0  0  0  0  0  0  0  0  0  0
   -2.7868   10.4005    0.0000 C   0  0  0  0  0  0  0  0  0  0  0  0
   -4.1205    9.9477    0.0000 C   0  0  0  0  0  0  0  0  0  0  0  0
   -5.3837    9.3248    0.0000 C   0  0  0  0  0  0  0  0  0  0  0  0
   -6.5547    8.5423    0.0000 C   0  0  0  0  0  0  0  0  0  0  0  0
   -7.6137    7.6137    0.0000 C   0  0  0  0  0  0  0  0  0  0  0  0
   -8.5423    6.5547    0.0000 C   0  0  0  0  0  0  0  0  0  0  0  0
   -9.3248    5.3837    0.0000 C   0  0  0  0  0  0  0  0  0  0  0  0
   -9.9477    4.1205    0.0000 C   0  0  0  0  0  0  0  0  0  0  0  0
  -10.4005    2.7868    0.0000 C   0  0  0  0  0  0  0  0  0  0  0  0
  -10.6752    1.4054    0.0000 C   0  0  0  0  0  0  0  0  0  0  0  0
  -10.7673    0.0000    0.0000 C   0  0  0  0  0  0  0  0  0  0  0  0
  -10.6752   -1.4054    0.0000 C   0  0  0  0  0  0  0  0  0  0  0  0
  -10.4005   -2.7868    0.0000 C   0  0  0  0  0  0  0  0  0  0  0  0
   -9.9477   -4.1205    0.0000 C   0  0  0  0  0  0  0  0  0  0  0  0
   -9.3248   -5.3837    0.0000 C   0  0  0  0  0  0  0  0  0  0  0  0
   -8.5423   -6.5547    0.0000 C   0  0  0  0  0  0  0  0  0  0  0  0
   -7.6137   -7.6137    0.0000 C   0  0  0  0  0  0  0  0  0  0  0  0
   -6.5547   -8.5423    0.0000 C   0  0  0  0  0  0  0  0  0  0  0  0
   -5.3837   -9.3248    0.0000 C   0  0  0  0  0  0  0  0  0  0  0  0
   -4.1205   -9.9477    0.0000 C   0  0  0  0  0  0  0  0  0  0  0  0
   -2.7868  -10.4005    0.0000 C   0  0  0  0  0  0  0  0  0  0  0  0
   -1.4054  -10.6752    0.0000 C   0  0  0  0  0  0  0  0  0  0  0  0
   -0.0000  -10.7673    0.0000 C   0  0  0  0  0  0  0  0  0  0  0  0
    1.4054  -10.6752    0.0000 C   0  0  0  0  0  0  0  0  0  0  0  0
    2.7868  -10.4005    0.0000 C   0  0  0  0  0  0  0  0  0  0  0  0
    4.1205   -9.9477    0.0000 C   0  0  0  0  0  0  0  0  0  0  0  0
    5.3837   -9.3248    0.0000 C   0  0  0  0  0  0  0  0  0  0  0  0
    6.5547   -8.5423    0.0000 C   0  0  0  0  0  0  0  0  0  0  0  0
    7.6137   -7.6137    0.0000 C   0  0  0  0  0  0  0  0  0  0  0  0
    8.5423   -6.5547    0.0000 C   0  0  0  0  0  0  0  0  0  0  0  0
    9.3248   -5.3837    0.0000 C   0  0  0  0  0  0  0  0  0  0  0  0
    9.9477   -4.1205    0.0000 C   0  0  0  0  0  0  0  0  0  0  0  0
   11.0766   -2.9680    0.0000 C   0  0  0  0  0  0  0  0  0  0  0  0
  1  2  1  0
  2  3  1  0
  3  4  1  0
  4  5  1  0
  5  6  1  0
  6  7  1  0
  7  8  1  0
  8  9  1  0
  9 10  1  0
 10 11  1  0
 11 12  1  0
 12 13  1  0
 13 14  1  0
 14 15  1  0
 15 16  1  0
 16 17  1  0
 17 18  1  0
 18 19  1  0
 19 20  1  0
 20 21  1  0
 21 22  1  0
 22 23  1  0
 23 24  1  0
 24 25  1  0
 25 26  1  0
 26 27  1  0
 27 28  1  0
 28 29  1  0
 29 30  1  0
 30 31  1  0
 31 32  1  0
 32 33  1  0
 33 34  1  0
 34 35  1  0
 35 36  1  0
 36 37  1  0
 37 38  1  0
 38 39  1  0
 39 40  1  0
 40 41  1  0
 41 42  1  0
 42 43  1  0
 43 44  1  0
 44 45  1  0
 45 46  1  0
 46 47  1  0
 47 48  1  0
 48 49  1  0
 49 50  1  0
 50 51  1  0
 51 52  1  0
 52 53  1  0
 53 54  1  0
 54 55  1  0
 55 56  1  0
 56 57  1  0
 57 58  1  0
 58 59  1  0
 59 60  1  0
 60 61  1  0
 61 62  1  0
 62 63  1  0
 63 64  2  0
 64 65  1  0
 65 66  2  0
 66 67  1  0
 67 68  2  0
 68 69  1  0
 69 70  2  0
 70 71  1  0
 71 72  2  0
 72 73  1  0
 73 74  2  0
 74 75  1  0
 75 76  2  0
 76 77  1  0
 77 78  2  0
 78 79  1  0
 79 80  2  0
 80 81  1  0
 81 82  2  0
 82 83  1  0
 83 84  2  0
 84 85  1  0
 85 86  2  0
 86 87  1  0
 87 88  2  0
 88 89  1  0
 89 90  2  0
 90 91  1  0
 91 92  2  0
 92 93  1  0
 93 94  2  0
 94 95  1  0
 95 96  2  0
 96  2  1  0
 96 49  1  0
M  END
>  <Title>  (323) 
idAAKMgen10

$$$$

     RDKit          2D

 88 93  0  0  0  0  0  0  0  0999 V2000
  -13.6094   -6.2793    0.0000 C   0  0  0  0  0  0  0  0  0  0  0  0
  -12.4429   -7.2224    0.0000 C   0  0  0  0  0  0  0  0  0  0  0  0
  -13.3303   -8.4318    0.0000 C   0  0  0  0  0  0  0  0  0  0  0  0
  -14.1005   -9.7189    0.0000 C   0  0  0  0  0  0  0  0  0  0  0  0
  -14.7468  -11.0726    0.0000 C   0  0  0  0  0  0  0  0  0  0  0  0
  -15.2635  -12.4808    0.0000 C   0  0  0  0  0  0  0  0  0  0  0  0
  -15.6461  -13.9311    0.0000 C   0  0  0  0  0  0  0  0  0  0  0  0
  -15.8911  -15.4110    0.0000 C   0  0  0  0  0  0  0  0  0  0  0  0
  -15.9965  -16.9073    0.0000 C   0  0  0  0  0  0  0  0  0  0  0  0
  -15.9614  -18.4069    0.0000 C   0  0  0  0  0  0  0  0  0  0  0  0
  -15.7859  -19.8966    0.0000 C   0  0  0  0  0  0  0  0  0  0  0  0
  -15.4718  -21.3633    0.0000 C   0  0  0  0  0  0  0  0  0  0  0  0
  -15.0217  -22.7942    0.0000 C   0  0  0  0  0  0  0  0  0  0  0  0
  -14.4395  -24.1766    0.0000 C   0  0  0  0  0  0  0  0  0  0  0  0
  -13.7305  -25.4985    0.0000 C   0  0  0  0  0  0  0  0  0  0  0  0
  -12.9008  -26.7481    0.0000 C   0  0  0  0  0  0  0  0  0  0  0  0
  -11.9577  -27.9146    0.0000 C   0  0  0  0  0  0  0  0  0  0  0  0
  -10.9096  -28.9876    0.0000 C   0  0  0  0  0  0  0  0  0  0  0  0
   -9.7655  -29.9577    0.0000 C   0  0  0  0  0  0  0  0  0  0  0  0
   -8.5357  -30.8165    0.0000 C   0  0  0  0  0  0  0  0  0  0  0  0
   -7.2308  -31.5563    0.0000 C   0  0  0  0  0  0  0  0  0  0  0  0
   -5.8624  -32.1707    0.0000 C   0  0  0  0  0  0  0  0  0  0  0  0
   -4.4425  -32.6542    0.0000 C   0  0  0  0  0  0  0  0  0  0  0  0
   -2.9835  -33.0027    0.0000 C   0  0  0  0  0  0  0  0  0  0  0  0
   -1.4984  -33.2130    0.0000 C   0  0  0  0  0  0  0  0  0  0  0  0
    0.0000  -33.2833    0.0000 C   0  0  0  0  0  0  0  0  0  0  0  0
    1.4984  -33.2130    0.0000 C   0  0  0  0  0  0  0  0  0  0  0  0
    2.9835  -33.0027    0.0000 C   0  0  0  0  0  0  0  0  0  0  0  0
    4.4425  -32.6542    0.0000 C   0  0  0  0  0  0  0  0  0  0  0  0
    5.8624  -32.1707    0.0000 C   0  0  0  0  0  0  0  0  0  0  0  0
    7.2308  -31.5563    0.0000 C   0  0  0  0  0  0  0  0  0  0  0  0
    8.5357  -30.8165    0.0000 C   0  0  0  0  0  0  0  0  0  0  0  0
    9.7655  -29.9577    0.0000 C   0  0  0  0  0  0  0  0  0  0  0  0
   10.9096  -28.9876    0.0000 C   0  0  0  0  0  0  0  0  0  0  0  0
   11.9577  -27.9146    0.0000 C   0  0  0  0  0  0  0  0  0  0  0  0
   12.9008  -26.7481    0.0000 C   0  0  0  0  0  0  0  0  0  0  0  0
   13.7305  -25.4985    0.0000 C   0  0  0  0  0  0  0  0  0  0  0  0
   14.4395  -24.1766    0.0000 C   0  0  0  0  0  0  0  0  0  0  0  0
   15.0217  -22.7942    0.0000 C   0  0  0  0  0  0  0  0  0  0  0  0
   15.4718  -21.3633    0.0000 C   0  0  0  0  0  0  0  0  0  0  0  0
   15.7859  -19.8966    0.0000 C   0  0  0  0  0  0  0  0  0  0  0  0
   15.9614  -18.4069    0.0000 C   0  0  0  0  0  0  0  0  0  0  0  0
   15.9965  -16.9073    0.0000 C   0  0  0  0  0  0  0  0  0  0  0  0
   15.8911  -15.4110    0.0000 C   0  0  0  0  0  0  0  0  0  0  0  0
   15.6461  -13.9311    0.0000 C   0  0  0  0  0  0  0  0  0  0  0  0
   15.2635  -12.4808    0.0000 C   0  0  0  0  0  0  0  0  0  0  0  0
   14.7468  -11.0726    0.0000 C   0  0  0  0  0  0  0  0  0  0  0  0
   14.1005   -9.7189    0.0000 C   0  0  0  0  0  0  0  0  0  0  0  0
   13.3303   -8.4318    0.0000 C   0  0  0  0  0  0  0  0  0  0  0  0
   12.4429   -7.2224    0.0000 C   0  0  0  0  0  0  0  0  0  0  0  0
   11.4462   -6.1014    0.0000 C   0  0  0  0  0  0  0  0  0  0  0  0
   10.3489   -5.0787    0.0000 C   0  0  0  0  0  0  0  0  0  0  0  0
    9.1607   -4.1632    0.0000 C   0  0  0  0  0  0  0  0  0  0  0  0
    7.8919   -3.3631    0.0000 C   0  0  0  0  0  0  0  0  0  0  0  0
    6.5538   -2.6852    0.0000 C   0  0  0  0  0  0  0  0  0  0  0  0
    5.1581   -2.1357    0.0000 C   0  0  0  0  0  0  0  0  0  0  0  0
    3.7171   -1.7192    0.0000 C   0  0  0  0  0  0  0  0  0  0  0  0
    2.2434   -1.4395    0.0000 C   0  0  0  0  0  0  0  0  0  0  0  0
    0.7500   -1.2990    0.0000 C   0  0  0  0  0  0  0  0  0  0  0  0
    1.5000    0.0000    0.0000 C   0  0  0  0  0  0  0  0  0  0  0  0
    0.7500    1.2990    0.0000 C   0  0  0  0  0  0  0  0  0  0  0  0
   -0.7500    1.2990    0.0000 C   0  0  0  0  0  0  0  0  0  0  0  0
   -1.5000    0.0000    0.0000 C   0  0  0  0  0  0  0  0  0  0  0  0
   -0.7500   -1.2990    0.0000 C   0  0  0  0  0  0  0  0  0  0  0  0
   -2.2434   -1.4395    0.0000 C   0  0  0  0  0  0  0  0  0  0  0  0
   -1.2643   -2.5759    0.0000 C   0  0  0  0  0  0  0  0  0  0  0  0
   -1.7590   -3.9920    0.0000 C   0  0  0  0  0  0  0  0  0  0  0  0
   -3.2327   -4.2717    0.0000 C   0  0  0  0  0  0  0  0  0  0  0  0
   -4.2117   -3.1353    0.0000 C   0  0  0  0  0  0  0  0  0  0  0  0
   -3.7171   -1.7192    0.0000 C   0  0  0  0  0  0  0  0  0  0  0  0
   -5.1581   -2.1357    0.0000 C   0  0  0  0  0  0  0  0  0  0  0  0
   -4.9362   -0.6522    0.0000 C   0  0  0  0  0  0  0  0  0  0  0  0
   -6.1100    0.2818    0.0000 C   0  0  0  0  0  0  0  0  0  0  0  0
   -7.5057   -0.2678    0.0000 C   0  0  0  0  0  0  0  0  0  0  0  0
   -7.7276   -1.7513    0.0000 C   0  0  0  0  0  0  0  0  0  0  0  0
   -6.5538   -2.6852    0.0000 C   0  0  0  0  0  0  0  0  0  0  0  0
   -7.8919   -3.3631    0.0000 C   0  0  0  0  0  0  0  0  0  0  0  0
   -6.5646   -4.0618    0.0000 C   0  0  0  0  0  0  0  0  0  0  0  0
   -6.5060   -5.5606    0.0000 C   0  0  0  0  0  0  0  0  0  0  0  0
   -7.7747   -6.3608    0.0000 C   0  0  0  0  0  0  0  0  0  0  0  0
   -9.1021   -5.6621    0.0000 C   0  0  0  0  0  0  0  0  0  0  0  0
   -9.1607   -4.1632    0.0000 C   0  0  0  0  0  0  0  0  0  0  0  0
  -10.3489   -5.0787    0.0000 C   0  0  0  0  0  0  0  0  0  0  0  0
  -10.6860   -3.6171    0.0000 C   0  0  0  0  0  0  0  0  0  0  0  0
  -12.1203   -3.1781    0.0000 C   0  0  0  0  0  0  0  0  0  0  0  0
  -13.2176   -4.2008    0.0000 C   0  0  0  0  0  0  0  0  0  0  0  0
  -12.8806   -5.6625    0.0000 C   0  0  0  0  0  0  0  0  0  0  0  0
  -11.4462   -6.1014    0.0000 C   0  0  0  0  0  0  0  0  0  0  0  0
  1  2  1  0
  2  3  1  0
  3  4  1  0
  4  5  1  0
  5  6  1  0
  6  7  1  0
  7  8  1  0
  8  9  1  0
  9 10  1  0
 10 11  1  0
 11 12  1  0
 12 13  1  0
 13 14  1  0
 14 15  1  0
 15 16  1  0
 16 17  1  0
 17 18  1  0
 18 19  1  0
 19 20  1  0
 20 21  1  0
 21 22  1  0
 22 23  1  0
 23 24  1  0
 24 25  1  0
 25 26  1  0
 26 27  1  0
 27 28  1  0
 28 29  1  0
 29 30  1  0
 30 31  1  0
 31 32  1  0
 32 33  1  0
 33 34  1  0
 34 35  1  0
 35 36  1  0
 36 37  1  0
 37 38  1  0
 38 39  1  0
 39 40  1  0
 40 41  1  0
 41 42  1  0
 42 43  1  0
 43 44  1  0
 44 45  1  0
 45 46  1  0
 46 47  1  0
 47 48  1  0
 48 49  1  0
 49 50  1  0
 50 51  1  0
 51 52  1  0
 52 53  1  0
 53 54  1  0
 54 55  1  0
 55 56  1  0
 56 57  1  0
 57 58  1  0
 58 59  1  0
 59 60  2  0
 60 61  1  0
 61 62  2  0
 62 63  1  0
 63 64  2  0
 64 65  1  0
 65 66  2  0
 66 67  1  0
 67 68  2  0
 68 69  1  0
 69 70  2  0
 70 71  1  0
 71 72  2  0
 72 73  1  0
 73 74  2  0
 74 75  1  0
 75 76  2  0
 76 77  1  0
 77 78  2  0
 78 79  1  0
 79 80  2  0
 80 81  1  0
 81 82  2  0
 82 83  1  0
 83 84  2  0
 84 85  1  0
 85 86  2  0
 86 87  1  0
 87 88  2  0
 88  2  1  0
 64 59  1  0
 70 65  1  0
 76 71  1  0
 82 77  1  0
 88 83  1  0
M  END
>  <Title>  (324) 
idAAKNgen10

$$$$

     RDKit          2D

 66 67  0  0  0  0  0  0  0  0999 V2000
   -2.2563   -1.0471    0.0000 C   0  0  0  0  0  0  0  0  0  0  0  0
   -2.4984    0.4332    0.0000 C   0  0  0  0  0  0  0  0  0  0  0  0
   -3.9891    0.2663    0.0000 C   0  0  0  0  0  0  0  0  0  0  0  0
   -5.4891    0.2511    0.0000 C   0  0  0  0  0  0  0  0  0  0  0  0
   -6.9828    0.3877    0.0000 C   0  0  0  0  0  0  0  0  0  0  0  0
   -8.4551    0.6748    0.0000 C   0  0  0  0  0  0  0  0  0  0  0  0
   -9.8908    1.1093    0.0000 C   0  0  0  0  0  0  0  0  0  0  0  0
  -11.2751    1.6868    0.0000 C   0  0  0  0  0  0  0  0  0  0  0  0
  -12.5940    2.4015    0.0000 C   0  0  0  0  0  0  0  0  0  0  0  0
  -13.8337    3.2458    0.0000 C   0  0  0  0  0  0  0  0  0  0  0  0
  -14.9817    4.2113    0.0000 C   0  0  0  0  0  0  0  0  0  0  0  0
  -16.0261    5.2880    0.0000 C   0  0  0  0  0  0  0  0  0  0  0  0
  -16.9563    6.4648    0.0000 C   0  0  0  0  0  0  0  0  0  0  0  0
  -17.7626    7.7296    0.0000 C   0  0  0  0  0  0  0  0  0  0  0  0
  -18.4368    9.0696    0.0000 C   0  0  0  0  0  0  0  0  0  0  0  0
  -18.9720   10.4708    0.0000 C   0  0  0  0  0  0  0  0  0  0  0  0
  -19.3626   11.9191    0.0000 C   0  0  0  0  0  0  0  0  0  0  0  0
  -19.6048   13.3994    0.0000 C   0  0  0  0  0  0  0  0  0  0  0  0
  -19.6960   14.8966    0.0000 C   0  0  0  0  0  0  0  0  0  0  0  0
  -19.6352   16.3954    0.0000 C   0  0  0  0  0  0  0  0  0  0  0  0
  -19.4231   17.8803    0.0000 C   0  0  0  0  0  0  0  0  0  0  0  0
  -19.0618   19.3362    0.0000 C   0  0  0  0  0  0  0  0  0  0  0  0
  -18.5551   20.7480    0.0000 C   0  0  0  0  0  0  0  0  0  0  0  0
  -17.9082   22.1013    0.0000 C   0  0  0  0  0  0  0  0  0  0  0  0
  -17.1277   23.3823    0.0000 C   0  0  0  0  0  0  0  0  0  0  0  0
  -16.2216   24.5777    0.0000 C   0  0  0  0  0  0  0  0  0  0  0  0
  -15.1993   25.6753    0.0000 C   0  0  0  0  0  0  0  0  0  0  0  0
  -14.0711   26.6638    0.0000 C   0  0  0  0  0  0  0  0  0  0  0  0
  -12.8487   27.5332    0.0000 C   0  0  0  0  0  0  0  0  0  0  0  0
  -11.5446   28.2744    0.0000 C   0  0  0  0  0  0  0  0  0  0  0  0
  -10.1722   28.8799    0.0000 C   0  0  0  0  0  0  0  0  0  0  0  0
   -8.7456   29.3434    0.0000 C   0  0  0  0  0  0  0  0  0  0  0  0
   -7.2795   29.6602    0.0000 C   0  0  0  0  0  0  0  0  0  0  0  0
   -5.7888   29.8271    0.0000 C   0  0  0  0  0  0  0  0  0  0  0  0
   -4.2889   29.8423    0.0000 C   0  0  0  0  0  0  0  0  0  0  0  0
   -2.7951   29.7056    0.0000 C   0  0  0  0  0  0  0  0  0  0  0  0
   -1.3228   29.4186    0.0000 C   0  0  0  0  0  0  0  0  0  0  0  0
    0.1129   28.9841    0.0000 C   0  0  0  0  0  0  0  0  0  0  0  0
    1.4972   28.4066    0.0000 C   0  0  0  0  0  0  0  0  0  0  0  0
    2.8160   27.6919    0.0000 C   0  0  0  0  0  0  0  0  0  0  0  0
    4.0558   26.8475    0.0000 C   0  0  0  0  0  0  0  0  0  0  0  0
    5.2038   25.8821    0.0000 C   0  0  0  0  0  0  0  0  0  0  0  0
    6.2482   24.8054    0.0000 C   0  0  0  0  0  0  0  0  0  0  0  0
    7.1783   23.6286    0.0000 C   0  0  0  0  0  0  0  0  0  0  0  0
    7.9846   22.3638    0.0000 C   0  0  0  0  0  0  0  0  0  0  0  0
    8.6589   21.0238    0.0000 C   0  0  0  0  0  0  0  0  0  0  0  0
    9.1940   19.6225    0.0000 C   0  0  0  0  0  0  0  0  0  0  0  0
    9.5847   18.1743    0.0000 C   0  0  0  0  0  0  0  0  0  0  0  0
    9.8269   16.6940    0.0000 C   0  0  0  0  0  0  0  0  0  0  0  0
    9.9180   15.1968    0.0000 C   0  0  0  0  0  0  0  0  0  0  0  0
    9.8572   13.6980    0.0000 C   0  0  0  0  0  0  0  0  0  0  0  0
    9.6451   12.2131    0.0000 C   0  0  0  0  0  0  0  0  0  0  0  0
    9.2839   10.7572    0.0000 C   0  0  0  0  0  0  0  0  0  0  0  0
    8.7772    9.3454    0.0000 C   0  0  0  0  0  0  0  0  0  0  0  0
    8.1303    7.9920    0.0000 C   0  0  0  0  0  0  0  0  0  0  0  0
    7.3498    6.7111    0.0000 C   0  0  0  0  0  0  0  0  0  0  0  0
    6.4437    5.5157    0.0000 C   0  0  0  0  0  0  0  0  0  0  0  0
    5.4213    4.4181    0.0000 C   0  0  0  0  0  0  0  0  0  0  0  0
    4.2931    3.4295    0.0000 C   0  0  0  0  0  0  0  0  0  0  0  0
    3.0707    2.5602    0.0000 C   0  0  0  0  0  0  0  0  0  0  0  0
    1.7667    1.8190    0.0000 C   0  0  0  0  0  0  0  0  0  0  0  0
    0.3943    1.2135    0.0000 C   0  0  0  0  0  0  0  0  0  0  0  0
    1.2760    0.0000    0.0000 C   0  0  0  0  0  0  0  0  0  0  0  0
    0.3943   -1.2135    0.0000 C   0  0  0  0  0  0  0  0  0  0  0  0
   -1.0323   -0.7500    0.0000 C   0  0  0  0  0  0  0  0  0  0  0  0
   -1.0323    0.7500    0.0000 C   0  0  0  0  0  0  0  0  0  0  0  0
  1  2  1  0
  2  3  1  0
  3  4  2  0
  4  5  1  0
  5  6  2  0
  6  7  1  0
  7  8  2  0
  8  9  1  0
  9 10  2  0
 10 11  1  0
 11 12  2  0
 12 13  1  0
 13 14  2  0
 14 15  1  0
 15 16  2  0
 16 17  1  0
 17 18  2  0
 18 19  1  0
 19 20  2  0
 20 21  1  0
 21 22  2  0
 22 23  1  0
 23 24  2  0
 24 25  1  0
 25 26  2  0
 26 27  1  0
 27 28  2  0
 28 29  1  0
 29 30  2  0
 30 31  1  0
 31 32  2  0
 32 33  1  0
 33 34  2  0
 34 35  1  0
 35 36  2  0
 36 37  1  0
 37 38  2  0
 38 39  1  0
 39 40  2  0
 40 41  1  0
 41 42  2  0
 42 43  1  0
 43 44  2  0
 44 45  1  0
 45 46  2  0
 46 47  1  0
 47 48  2  0
 48 49  1  0
 49 50  2  0
 50 51  1  0
 51 52  2  0
 52 53  1  0
 53 54  2  0
 54 55  1  0
 55 56  2  0
 56 57  1  0
 57 58  2  0
 58 59  1  0
 59 60  2  0
 60 61  1  0
 61 62  2  0
 62 63  1  0
 63 64  2  0
 64 65  1  0
 65 66  2  0
 66  2  1  0
 66 62  1  0
M  END
>  <Title>  (325) 
idAAKOgen10

$$$$

     RDKit          2D

 10 10  0  0  0  0  0  0  0  0999 V2000
    8.0260   -1.2990    0.0000 C   0  0  0  0  0  0  0  0  0  0  0  0
    6.5260   -1.2990    0.0000 C   0  0  0  0  0  0  0  0  0  0  0  0
    5.7760   -0.0000    0.0000 C   0  0  0  0  0  0  0  0  0  0  0  0
    4.2760   -0.0000    0.0000 C   0  0  0  0  0  0  0  0  0  0  0  0
    2.7760    0.0000    0.0000 C   0  0  0  0  0  0  0  0  0  0  0  0
    1.2760    0.0000    0.0000 C   0  0  0  0  0  0  0  0  0  0  0  0
    0.3943    1.2135    0.0000 C   0  0  0  0  0  0  0  0  0  0  0  0
   -1.0323    0.7500    0.0000 C   0  0  0  0  0  0  0  0  0  0  0  0
   -1.0323   -0.7500    0.0000 C   0  0  0  0  0  0  0  0  0  0  0  0
    0.3943   -1.2135    0.0000 C   0  0  0  0  0  0  0  0  0  0  0  0
  1  2  2  0
  2  3  1  0
  3  4  1  0
  4  5  3  0
  5  6  1  0
  6  7  2  0
  7  8  1  0
  8  9  2  0
  9 10  1  0
 10  6  1  0
M  END
>  <Title>  (326) 
idAAKPgen10

$$$$

     RDKit          2D

 10 10  0  0  0  0  0  0  0  0999 V2000
    5.2500   -1.2990    0.0000 C   0  0  0  0  0  0  0  0  0  0  0  0
    3.7500   -1.2990    0.0000 C   0  0  0  0  0  0  0  0  0  0  0  0
    3.0000   -2.5981    0.0000 C   0  0  0  0  0  0  0  0  0  0  0  0
    3.0000    0.0000    0.0000 C   0  0  0  0  0  0  0  0  0  0  0  0
    1.5000    0.0000    0.0000 C   0  0  0  0  0  0  0  0  0  0  0  0
    0.7500   -1.2990    0.0000 C   0  0  0  0  0  0  0  0  0  0  0  0
   -0.7500   -1.2990    0.0000 C   0  0  0  0  0  0  0  0  0  0  0  0
   -1.5000    0.0000    0.0000 C   0  0  0  0  0  0  0  0  0  0  0  0
   -0.7500    1.2990    0.0000 C   0  0  0  0  0  0  0  0  0  0  0  0
    0.7500    1.2990    0.0000 C   0  0  0  0  0  0  0  0  0  0  0  0
  1  2  1  0
  2  3  1  0
  2  4  1  0
  4  5  1  0
  5  6  2  0
  6  7  1  0
  7  8  2  0
  8  9  1  0
  9 10  2  0
 10  5  1  0
M  END
>  <Title>  (327) 
idAAKQgen10

$$$$

     RDKit          2D

  9  9  0  0  0  0  0  0  0  0999 V2000
    4.5000   -2.5981    0.0000 C   0  0  0  0  0  0  0  0  0  0  0  0
    3.7500   -1.2990    0.0000 C   0  0  0  0  0  0  0  0  0  0  0  0
    3.0000    0.0000    0.0000 C   0  0  0  0  0  0  0  0  0  0  0  0
    1.5000    0.0000    0.0000 C   0  0  0  0  0  0  0  0  0  0  0  0
    0.7500   -1.2990    0.0000 C   0  0  0  0  0  0  0  0  0  0  0  0
   -0.7500   -1.2990    0.0000 C   0  0  0  0  0  0  0  0  0  0  0  0
   -1.5000    0.0000    0.0000 C   0  0  0  0  0  0  0  0  0  0  0  0
   -0.7500    1.2990    0.0000 C   0  0  0  0  0  0  0  0  0  0  0  0
    0.7500    1.2990    0.0000 C   0  0  0  0  0  0  0  0  0  0  0  0
  1  2  3  0
  2  3  1  0
  3  4  1  0
  4  5  2  0
  5  6  1  0
  6  7  2  0
  7  8  1  0
  8  9  2  0
  9  4  1  0
M  END
>  <Title>  (328) 
idAAKRgen10

$$$$

     RDKit          2D

 20 21  0  0  0  0  0  0  0  0999 V2000
    3.7500   -3.8971    0.0000 C   0  0  0  0  0  0  0  0  0  0  0  0
    3.0000   -2.5981    0.0000 C   0  0  0  0  0  0  0  0  0  0  0  0
    3.7500   -1.2990    0.0000 C   0  0  0  0  0  0  0  0  0  0  0  0
    5.2500   -1.2990    0.0000 C   0  0  0  0  0  0  0  0  0  0  0  0
    3.0000    0.0000    0.0000 C   0  0  0  0  0  0  0  0  0  0  0  0
    3.7500    1.2990    0.0000 O   0  0  0  0  0  0  0  0  0  0  0  0
    1.5000    0.0000    0.0000 N   0  0  0  0  0  0  0  0  0  0  0  0
    0.7500   -1.2990    0.0000 C   0  0  0  0  0  0  0  0  0  0  0  0
   -0.7500   -1.2990    0.0000 C   0  0  0  0  0  0  0  0  0  0  0  0
   -1.5000    0.0000    0.0000 N   0  0  0  0  0  0  0  0  0  0  0  0
   -3.0000    0.0000    0.0000 C   0  0  0  0  0  0  0  0  0  0  0  0
   -3.7500   -1.2990    0.0000 O   0  0  0  0  0  0  0  0  0  0  0  0
   -3.7500    1.2990    0.0000 C   0  0  0  0  0  0  0  0  0  0  0  0
   -3.0000    2.5981    0.0000 C   0  0  0  0  0  0  0  0  0  0  0  0
   -3.7500    3.8971    0.0000 C   0  0  0  0  0  0  0  0  0  0  0  0
   -5.2500    3.8971    0.0000 C   0  0  0  0  0  0  0  0  0  0  0  0
   -6.0000    2.5981    0.0000 N   0  0  0  0  0  0  0  0  0  0  0  0
   -5.2500    1.2990    0.0000 C   0  0  0  0  0  0  0  0  0  0  0  0
   -0.7500    1.2990    0.0000 C   0  0  0  0  0  0  0  0  0  0  0  0
    0.7500    1.2990    0.0000 C   0  0  0  0  0  0  0  0  0  0  0  0
  1  2  1  0
  2  3  1  0
  3  4  1  0
  3  5  1  0
  5  6  2  0
  5  7  1  0
  7  8  1  0
  8  9  1  0
  9 10  1  0
 10 11  1  0
 11 12  2  0
 11 13  1  0
 13 14  2  0
 14 15  1  0
 15 16  2  0
 16 17  1  0
 17 18  2  0
 10 19  1  0
 19 20  1  0
 20  7  1  0
 18 13  1  0
M  END
>  <Title>  (329) 
idAAKSgen10

$$$$

     RDKit          2D

 10 10  0  0  0  0  0  0  0  0999 V2000
    6.0000   -2.5981    0.0000 C   0  0  0  0  0  0  0  0  0  0  0  0
    5.2500   -1.2990    0.0000 C   0  0  0  0  0  0  0  0  0  0  0  0
    3.7500   -1.2990    0.0000 C   0  0  0  0  0  0  0  0  0  0  0  0
    3.0000    0.0000    0.0000 C   0  0  0  0  0  0  0  0  0  0  0  0
    1.5000    0.0000    0.0000 C   0  0  0  0  0  0  0  0  0  0  0  0
    0.7500   -1.2990    0.0000 C   0  0  0  0  0  0  0  0  0  0  0  0
   -0.7500   -1.2990    0.0000 C   0  0  0  0  0  0  0  0  0  0  0  0
   -1.5000    0.0000    0.0000 C   0  0  0  0  0  0  0  0  0  0  0  0
   -0.7500    1.2990    0.0000 C   0  0  0  0  0  0  0  0  0  0  0  0
    0.7500    1.2990    0.0000 N   0  0  0  0  0  0  0  0  0  0  0  0
  1  2  2  0
  2  3  1  0
  3  4  1  0
  4  5  1  0
  5  6  2  0
  6  7  1  0
  7  8  2  0
  8  9  1  0
  9 10  2  0
 10  5  1  0
M  END
>  <Title>  (330) 
idAAKTgen10

$$$$

     RDKit          2D

125124  0  0  0  0  0  0  0  0999 V2000
    0.0000    0.0000    0.0000 C   0  0  0  0  0  0  0  0  0  0  0  0
   -0.0000   -1.5000    0.0000 C   0  0  0  0  0  0  0  0  0  0  0  0
   -0.0000   -3.0000    0.0000 C   0  0  0  0  0  0  0  0  0  0  0  0
   -0.0000   -4.5000    0.0000 C   0  0  0  0  0  0  0  0  0  0  0  0
   -0.0000   -6.0000    0.0000 C   0  0  0  0  0  0  0  0  0  0  0  0
    1.2990   -6.7500    0.0000 C   0  0  0  0  0  0  0  0  0  0  0  0
    1.2990   -8.2500    0.0000 C   0  0  0  0  0  0  0  0  0  0  0  0
    2.5981   -9.0000    0.0000 C   0  0  0  0  0  0  0  0  0  0  0  0
    2.5981  -10.5000    0.0000 C   0  0  0  0  0  0  0  0  0  0  0  0
    3.8971  -11.2500    0.0000 C   0  0  0  0  0  0  0  0  0  0  0  0
    3.8971  -12.7500    0.0000 C   0  0  0  0  0  0  0  0  0  0  0  0
    5.1962  -13.5000    0.0000 C   0  0  0  0  0  0  0  0  0  0  0  0
    5.1962  -15.0000    0.0000 C   0  0  0  0  0  0  0  0  0  0  0  0
    6.4952  -15.7500    0.0000 C   0  0  0  0  0  0  0  0  0  0  0  0
    6.4952  -17.2500    0.0000 C   0  0  0  0  0  0  0  0  0  0  0  0
    7.7942  -18.0000    0.0000 C   0  0  0  0  0  0  0  0  0  0  0  0
    7.7942  -19.5000    0.0000 C   0  0  0  0  0  0  0  0  0  0  0  0
    9.0933  -20.2500    0.0000 C   0  0  0  0  0  0  0  0  0  0  0  0
    9.0933  -21.7500    0.0000 C   0  0  0  0  0  0  0  0  0  0  0  0
   10.3923  -22.5000    0.0000 C   0  0  0  0  0  0  0  0  0  0  0  0
   10.3923  -24.0000    0.0000 C   0  0  0  0  0  0  0  0  0  0  0  0
   11.6913  -24.7500    0.0000 C   0  0  0  0  0  0  0  0  0  0  0  0
   11.6913  -26.2500    0.0000 C   0  0  0  0  0  0  0  0  0  0  0  0
   12.9904  -27.0000    0.0000 C   0  0  0  0  0  0  0  0  0  0  0  0
   12.9904  -28.5000    0.0000 C   0  0  0  0  0  0  0  0  0  0  0  0
   14.2894  -29.2500    0.0000 C   0  0  0  0  0  0  0  0  0  0  0  0
   14.2894  -30.7500    0.0000 C   0  0  0  0  0  0  0  0  0  0  0  0
   15.5885  -31.5000    0.0000 C   0  0  0  0  0  0  0  0  0  0  0  0
   15.5885  -33.0000    0.0000 C   0  0  0  0  0  0  0  0  0  0  0  0
   16.8875  -33.7500    0.0000 C   0  0  0  0  0  0  0  0  0  0  0  0
   16.8875  -35.2500    0.0000 C   0  0  0  0  0  0  0  0  0  0  0  0
   18.1865  -36.0000    0.0000 C   0  0  0  0  0  0  0  0  0  0  0  0
   18.1865  -37.5000    0.0000 C   0  0  0  0  0  0  0  0  0  0  0  0
   19.4856  -38.2500    0.0000 C   0  0  0  0  0  0  0  0  0  0  0  0
   19.4856  -39.7500    0.0000 C   0  0  0  0  0  0  0  0  0  0  0  0
   20.7846  -40.5000    0.0000 C   0  0  0  0  0  0  0  0  0  0  0  0
   20.7846  -42.0000    0.0000 C   0  0  0  0  0  0  0  0  0  0  0  0
   22.0836  -42.7500    0.0000 C   0  0  0  0  0  0  0  0  0  0  0  0
   22.0836  -44.2500    0.0000 C   0  0  0  0  0  0  0  0  0  0  0  0
   23.3827  -45.0000    0.0000 C   0  0  0  0  0  0  0  0  0  0  0  0
   23.3827  -46.5000    0.0000 C   0  0  0  0  0  0  0  0  0  0  0  0
   24.6817  -47.2500    0.0000 C   0  0  0  0  0  0  0  0  0  0  0  0
   24.6817  -48.7500    0.0000 C   0  0  0  0  0  0  0  0  0  0  0  0
   25.9808  -49.5000    0.0000 C   0  0  0  0  0  0  0  0  0  0  0  0
   25.9808  -51.0000    0.0000 C   0  0  0  0  0  0  0  0  0  0  0  0
   27.2798  -51.7500    0.0000 C   0  0  0  0  0  0  0  0  0  0  0  0
   27.2798  -53.2500    0.0000 C   0  0  0  0  0  0  0  0  0  0  0  0
   28.5788  -54.0000    0.0000 C   0  0  0  0  0  0  0  0  0  0  0  0
   28.5788  -55.5000    0.0000 C   0  0  0  0  0  0  0  0  0  0  0  0
   29.8779  -56.2500    0.0000 C   0  0  0  0  0  0  0  0  0  0  0  0
   29.8779  -57.7500    0.0000 C   0  0  0  0  0  0  0  0  0  0  0  0
   31.1769  -58.5000    0.0000 C   0  0  0  0  0  0  0  0  0  0  0  0
   31.1769  -60.0000    0.0000 C   0  0  0  0  0  0  0  0  0  0  0  0
   32.4760  -60.7500    0.0000 C   0  0  0  0  0  0  0  0  0  0  0  0
   32.4760  -62.2500    0.0000 C   0  0  0  0  0  0  0  0  0  0  0  0
   33.7750  -63.0000    0.0000 C   0  0  0  0  0  0  0  0  0  0  0  0
   33.7750  -64.5000    0.0000 C   0  0  0  0  0  0  0  0  0  0  0  0
   35.0740  -65.2500    0.0000 C   0  0  0  0  0  0  0  0  0  0  0  0
   35.0740  -66.7500    0.0000 C   0  0  0  0  0  0  0  0  0  0  0  0
   36.3731  -67.5000    0.0000 C   0  0  0  0  0  0  0  0  0  0  0  0
   36.3731  -69.0000    0.0000 C   0  0  0  0  0  0  0  0  0  0  0  0
   37.6721  -69.7500    0.0000 C   0  0  0  0  0  0  0  0  0  0  0  0
   37.6721  -71.2500    0.0000 C   0  0  0  0  0  0  0  0  0  0  0  0
   38.9711  -72.0000    0.0000 C   0  0  0  0  0  0  0  0  0  0  0  0
   38.9711  -73.5000    0.0000 C   0  0  0  0  0  0  0  0  0  0  0  0
   40.2702  -74.2500    0.0000 C   0  0  0  0  0  0  0  0  0  0  0  0
   40.2702  -75.7500    0.0000 C   0  0  0  0  0  0  0  0  0  0  0  0
   41.5692  -76.5000    0.0000 C   0  0  0  0  0  0  0  0  0  0  0  0
   41.5692  -78.0000    0.0000 C   0  0  0  0  0  0  0  0  0  0  0  0
   42.8683  -78.7500    0.0000 C   0  0  0  0  0  0  0  0  0  0  0  0
   42.8683  -80.2500    0.0000 C   0  0  0  0  0  0  0  0  0  0  0  0
   44.1673  -81.0000    0.0000 C   0  0  0  0  0  0  0  0  0  0  0  0
   44.1673  -82.5000    0.0000 C   0  0  0  0  0  0  0  0  0  0  0  0
   45.4663  -83.2500    0.0000 C   0  0  0  0  0  0  0  0  0  0  0  0
   45.4663  -84.7500    0.0000 C   0  0  0  0  0  0  0  0  0  0  0  0
   46.7654  -85.5000    0.0000 C   0  0  0  0  0  0  0  0  0  0  0  0
   46.7654  -87.0000    0.0000 C   0  0  0  0  0  0  0  0  0  0  0  0
   48.0644  -87.7500    0.0000 C   0  0  0  0  0  0  0  0  0  0  0  0
   48.0644  -89.2500    0.0000 C   0  0  0  0  0  0  0  0  0  0  0  0
   49.3634  -90.0000    0.0000 C   0  0  0  0  0  0  0  0  0  0  0  0
   49.3634  -91.5000    0.0000 C   0  0  0  0  0  0  0  0  0  0  0  0
   50.6625  -92.2500    0.0000 C   0  0  0  0  0  0  0  0  0  0  0  0
   50.6625  -93.7500    0.0000 C   0  0  0  0  0  0  0  0  0  0  0  0
   51.9615  -94.5000    0.0000 C   0  0  0  0  0  0  0  0  0  0  0  0
   51.9615  -96.0000    0.0000 C   0  0  0  0  0  0  0  0  0  0  0  0
   53.2606  -96.7500    0.0000 C   0  0  0  0  0  0  0  0  0  0  0  0
   53.2606  -98.2500    0.0000 C   0  0  0  0  0  0  0  0  0  0  0  0
   54.5596  -99.0000    0.0000 C   0  0  0  0  0  0  0  0  0  0  0  0
   54.5596 -100.5000    0.0000 C   0  0  0  0  0  0  0  0  0  0  0  0
   55.8586 -101.2500    0.0000 C   0  0  0  0  0  0  0  0  0  0  0  0
   55.8586 -102.7500    0.0000 C   0  0  0  0  0  0  0  0  0  0  0  0
   57.1577 -103.5000    0.0000 C   0  0  0  0  0  0  0  0  0  0  0  0
   57.1577 -105.0000    0.0000 C   0  0  0  0  0  0  0  0  0  0  0  0
   58.4567 -105.7500    0.0000 C   0  0  0  0  0  0  0  0  0  0  0  0
   58.4567 -107.2500    0.0000 C   0  0  0  0  0  0  0  0  0  0  0  0
   59.7558 -108.0000    0.0000 C   0  0  0  0  0  0  0  0  0  0  0  0
   59.7558 -109.5000    0.0000 C   0  0  0  0  0  0  0  0  0  0  0  0
   61.0548 -110.2500    0.0000 C   0  0  0  0  0  0  0  0  0  0  0  0
   61.0548 -111.7500    0.0000 C   0  0  0  0  0  0  0  0  0  0  0  0
   62.3538 -112.5000    0.0000 C   0  0  0  0  0  0  0  0  0  0  0  0
   62.3538 -114.0000    0.0000 C   0  0  0  0  0  0  0  0  0  0  0  0
   63.6529 -114.7500    0.0000 C   0  0  0  0  0  0  0  0  0  0  0  0
   63.6529 -116.2500    0.0000 C   0  0  0  0  0  0  0  0  0  0  0  0
   64.9519 -117.0000    0.0000 C   0  0  0  0  0  0  0  0  0  0  0  0
   64.9519 -118.5000    0.0000 C   0  0  0  0  0  0  0  0  0  0  0  0
   66.2509 -119.2500    0.0000 C   0  0  0  0  0  0  0  0  0  0  0  0
   66.2509 -120.7500    0.0000 C   0  0  0  0  0  0  0  0  0  0  0  0
   67.5500 -121.5000    0.0000 C   0  0  0  0  0  0  0  0  0  0  0  0
   67.5500 -123.0000    0.0000 C   0  0  0  0  0  0  0  0  0  0  0  0
   68.8490 -123.7500    0.0000 C   0  0  0  0  0  0  0  0  0  0  0  0
   68.8490 -125.2500    0.0000 C   0  0  0  0  0  0  0  0  0  0  0  0
   70.1481 -126.0000    0.0000 C   0  0  0  0  0  0  0  0  0  0  0  0
   70.1481 -127.5000    0.0000 C   0  0  0  0  0  0  0  0  0  0  0  0
   71.4471 -128.2500    0.0000 C   0  0  0  0  0  0  0  0  0  0  0  0
   71.4471 -129.7500    0.0000 C   0  0  0  0  0  0  0  0  0  0  0  0
   72.7461 -130.5000    0.0000 C   0  0  0  0  0  0  0  0  0  0  0  0
   72.7461 -132.0000    0.0000 C   0  0  0  0  0  0  0  0  0  0  0  0
   74.0452 -132.7500    0.0000 C   0  0  0  0  0  0  0  0  0  0  0  0
   74.0452 -134.2500    0.0000 C   0  0  0  0  0  0  0  0  0  0  0  0
   75.3442 -135.0000    0.0000 C   0  0  0  0  0  0  0  0  0  0  0  0
   75.3442 -136.5000    0.0000 C   0  0  0  0  0  0  0  0  0  0  0  0
   76.6432 -137.2500    0.0000 C   0  0  0  0  0  0  0  0  0  0  0  0
   76.6432 -138.7500    0.0000 C   0  0  0  0  0  0  0  0  0  0  0  0
   77.9423 -139.5000    0.0000 C   0  0  0  0  0  0  0  0  0  0  0  0
   77.9423 -141.0000    0.0000 C   0  0  0  0  0  0  0  0  0  0  0  0
  1  2  3  0
  2  3  1  0
  3  4  3  0
  4  5  1  0
  5  6  2  3
  6  7  1  0
  7  8  1  0
  8  9  1  0
  9 10  1  0
 10 11  1  0
 11 12  1  0
 12 13  1  0
 13 14  1  0
 14 15  1  0
 15 16  1  0
 16 17  1  0
 17 18  1  0
 18 19  1  0
 19 20  1  0
 20 21  1  0
 21 22  1  0
 22 23  1  0
 23 24  1  0
 24 25  1  0
 25 26  1  0
 26 27  1  0
 27 28  1  0
 28 29  1  0
 29 30  1  0
 30 31  1  0
 31 32  1  0
 32 33  1  0
 33 34  1  0
 34 35  1  0
 35 36  1  0
 36 37  1  0
 37 38  1  0
 38 39  1  0
 39 40  1  0
 40 41  1  0
 41 42  1  0
 42 43  1  0
 43 44  1  0
 44 45  1  0
 45 46  1  0
 46 47  1  0
 47 48  1  0
 48 49  1  0
 49 50  1  0
 50 51  1  0
 51 52  1  0
 52 53  1  0
 53 54  1  0
 54 55  1  0
 55 56  1  0
 56 57  1  0
 57 58  1  0
 58 59  1  0
 59 60  1  0
 60 61  1  0
 61 62  1  0
 62 63  1  0
 63 64  1  0
 64 65  1  0
 65 66  1  0
 66 67  1  0
 67 68  1  0
 68 69  1  0
 69 70  1  0
 70 71  1  0
 71 72  1  0
 72 73  1  0
 73 74  1  0
 74 75  1  0
 75 76  1  0
 76 77  1  0
 77 78  1  0
 78 79  1  0
 79 80  1  0
 80 81  1  0
 81 82  1  0
 82 83  1  0
 83 84  1  0
 84 85  1  0
 85 86  1  0
 86 87  1  0
 87 88  1  0
 88 89  1  0
 89 90  1  0
 90 91  1  0
 91 92  1  0
 92 93  1  0
 93 94  1  0
 94 95  1  0
 95 96  1  0
 96 97  1  0
 97 98  1  0
 98 99  1  0
 99100  1  0
100101  1  0
101102  1  0
102103  1  0
103104  1  0
104105  1  0
105106  1  0
106107  1  0
107108  1  0
108109  1  0
109110  1  0
110111  1  0
111112  1  0
112113  1  0
113114  1  0
114115  1  0
115116  1  0
116117  1  0
117118  1  0
118119  1  0
119120  1  0
120121  1  0
121122  1  0
122123  1  0
123124  1  0
124125  1  0
M  END
>  <Title>  (331) 
idAAKUgen10

$$$$

     RDKit          2D

 15 16  0  0  0  0  0  0  0  0999 V2000
    1.8478   -9.0619    0.0000 C   0  0  0  0  0  0  0  0  0  0  0  0
    2.0046   -7.5702    0.0000 C   0  0  0  0  0  0  0  0  0  0  0  0
    3.3037   -6.8202    0.0000 C   0  0  0  0  0  0  0  0  0  0  0  0
    2.9918   -5.3529    0.0000 C   0  0  0  0  0  0  0  0  0  0  0  0
    1.5000   -5.1962    0.0000 C   0  0  0  0  0  0  0  0  0  0  0  0
    0.7500   -3.8971    0.0000 C   0  0  0  0  0  0  0  0  0  0  0  0
   -0.7500   -3.8971    0.0000 O   0  0  0  0  0  0  0  0  0  0  0  0
    1.5000   -2.5981    0.0000 N   0  0  0  0  0  0  0  0  0  0  0  0
    0.7500   -1.2990    0.0000 C   0  0  0  0  0  0  0  0  0  0  0  0
    1.5000    0.0000    0.0000 N   0  0  0  0  0  0  0  0  0  0  0  0
    0.7500    1.2990    0.0000 N   0  0  0  0  0  0  0  0  0  0  0  0
   -0.7500    1.2990    0.0000 N   0  0  0  0  0  0  0  0  0  0  0  0
   -1.5000    0.0000    0.0000 N   0  0  0  0  0  0  0  0  0  0  0  0
   -0.7500   -1.2990    0.0000 N   0  0  0  0  0  0  0  0  0  0  0  0
    0.8899   -6.5665    0.0000 C   0  0  0  0  0  0  0  0  0  0  0  0
  1  2  1  0
  2  3  1  0
  3  4  1  0
  4  5  1  0
  5  6  1  0
  6  7  2  0
  6  8  1  0
  8  9  1  0
  9 10  2  0
 10 11  1  0
 11 12  2  0
 12 13  1  0
 13 14  2  0
  5 15  1  0
 15  2  1  0
 14  9  1  0
M  END
>  <Title>  (332) 
idAAKVgen10

$$$$

     RDKit          2D

 69 80  0  0  0  0  0  0  0  0999 V2000
    7.3515   -5.8335    0.0000 O   0  0  0  0  0  0  0  0  0  0  0  0
    5.8781   -6.1146    0.0000 C   0  0  0  0  0  0  0  0  0  0  0  0
    5.4145   -4.6880    0.0000 C   0  0  0  0  0  0  0  0  0  0  0  0
    4.6108   -3.4215    0.0000 C   0  0  0  0  0  0  0  0  0  0  0  0
    3.5173   -2.3947    0.0000 C   0  0  0  0  0  0  0  0  0  0  0  0
    4.6108   -1.3679    0.0000 C   0  0  0  0  0  0  0  0  0  0  0  0
    3.9721   -0.0106    0.0000 C   0  0  0  0  0  0  0  0  0  0  0  0
    2.4839   -0.1986    0.0000 C   0  0  0  0  0  0  0  0  0  0  0  0
    2.2029   -1.6721    0.0000 C   0  0  0  0  0  0  0  0  0  0  0  0
    0.7500   -1.2990    0.0000 C   0  0  0  0  0  0  0  0  0  0  0  0
    1.5000    0.0000    0.0000 C   0  0  0  0  0  0  0  0  0  0  0  0
    0.7500    1.2990    0.0000 C   0  0  0  0  0  0  0  0  0  0  0  0
   -0.7500    1.2990    0.0000 C   0  0  0  0  0  0  0  0  0  0  0  0
   -1.5000    0.0000    0.0000 C   0  0  0  0  0  0  0  0  0  0  0  0
   -0.7500   -1.2990    0.0000 C   0  0  0  0  0  0  0  0  0  0  0  0
   -2.2029   -1.6721    0.0000 C   0  0  0  0  0  0  0  0  0  0  0  0
   -2.7849   -0.5096    0.0000 C   0  0  0  0  0  0  0  0  0  0  0  0
   -3.4692   -0.0952    0.0000 C   0  0  0  0  0  0  0  0  0  0  0  0
   -4.1702   -0.4806    0.0000 C   0  0  0  0  0  0  0  0  0  0  0  0
   -4.1870   -1.2804    0.0000 C   0  0  0  0  0  0  0  0  0  0  0  0
   -3.5173   -2.3947    0.0000 C   0  0  0  0  0  0  0  0  0  0  0  0
   -4.6108   -3.4215    0.0000 C   0  0  0  0  0  0  0  0  0  0  0  0
   -5.3057   -2.0922    0.0000 C   0  0  0  0  0  0  0  0  0  0  0  0
   -6.8044   -2.0294    0.0000 C   0  0  0  0  0  0  0  0  0  0  0  0
   -7.6082   -3.2959    0.0000 C   0  0  0  0  0  0  0  0  0  0  0  0
   -6.9132   -4.6252    0.0000 C   0  0  0  0  0  0  0  0  0  0  0  0
   -5.4145   -4.6880    0.0000 C   0  0  0  0  0  0  0  0  0  0  0  0
   -5.8781   -6.1146    0.0000 C   0  0  0  0  0  0  0  0  0  0  0  0
   -7.1714   -5.9831    0.0000 C   0  0  0  0  0  0  0  0  0  0  0  0
   -7.8880   -6.3388    0.0000 C   0  0  0  0  0  0  0  0  0  0  0  0
   -7.9382   -7.1373    0.0000 C   0  0  0  0  0  0  0  0  0  0  0  0
   -7.2719   -7.5800    0.0000 C   0  0  0  0  0  0  0  0  0  0  0  0
   -5.9722   -7.6116    0.0000 C   0  0  0  0  0  0  0  0  0  0  0  0
   -5.6912   -9.0851    0.0000 C   0  0  0  0  0  0  0  0  0  0  0  0
   -7.1859   -8.9596    0.0000 C   0  0  0  0  0  0  0  0  0  0  0  0
   -8.0420  -10.1913    0.0000 C   0  0  0  0  0  0  0  0  0  0  0  0
   -7.4033  -11.5485    0.0000 C   0  0  0  0  0  0  0  0  0  0  0  0
   -5.9086  -11.6740    0.0000 C   0  0  0  0  0  0  0  0  0  0  0  0
   -5.0525  -10.4423    0.0000 C   0  0  0  0  0  0  0  0  0  0  0  0
   -4.0964  -11.5981    0.0000 C   0  0  0  0  0  0  0  0  0  0  0  0
   -4.9004  -12.6196    0.0000 C   0  0  0  0  0  0  0  0  0  0  0  0
   -4.9840  -13.4153    0.0000 C   0  0  0  0  0  0  0  0  0  0  0  0
   -4.3368  -13.8855    0.0000 C   0  0  0  0  0  0  0  0  0  0  0  0
   -3.6059  -13.5601    0.0000 C   0  0  0  0  0  0  0  0  0  0  0  0
   -2.8828  -12.4798    0.0000 C   0  0  0  0  0  0  0  0  0  0  0  0
   -1.4882  -13.0319    0.0000 C   0  0  0  0  0  0  0  0  0  0  0  0
   -2.3951  -14.2267    0.0000 C   0  0  0  0  0  0  0  0  0  0  0  0
   -1.8138  -15.6095    0.0000 C   0  0  0  0  0  0  0  0  0  0  0  0
   -0.3256  -15.7975    0.0000 C   0  0  0  0  0  0  0  0  0  0  0  0
    0.5813  -14.6027    0.0000 C   0  0  0  0  0  0  0  0  0  0  0  0
    0.0000  -13.2199    0.0000 C   0  0  0  0  0  0  0  0  0  0  0  0
    1.4882  -13.0319    0.0000 C   0  0  0  0  0  0  0  0  0  0  0  0
    1.9199  -14.2582    0.0000 C   0  0  0  0  0  0  0  0  0  0  0  0
    2.5468  -14.7551    0.0000 C   0  0  0  0  0  0  0  0  0  0  0  0
    3.2907  -14.4606    0.0000 C   0  0  0  0  0  0  0  0  0  0  0  0
    3.4075  -13.6692    0.0000 C   0  0  0  0  0  0  0  0  0  0  0  0
    2.8828  -12.4798    0.0000 C   0  0  0  0  0  0  0  0  0  0  0  0
    4.0964  -11.5981    0.0000 C   0  0  0  0  0  0  0  0  0  0  0  0
    4.6192  -13.0040    0.0000 C   0  0  0  0  0  0  0  0  0  0  0  0
    6.0982  -13.2542    0.0000 C   0  0  0  0  0  0  0  0  0  0  0  0
    7.0544  -12.0984    0.0000 C   0  0  0  0  0  0  0  0  0  0  0  0
    6.5315  -10.6925    0.0000 C   0  0  0  0  0  0  0  0  0  0  0  0
    5.0525  -10.4423    0.0000 C   0  0  0  0  0  0  0  0  0  0  0  0
    5.6912   -9.0851    0.0000 C   0  0  0  0  0  0  0  0  0  0  0  0
    6.9578   -9.3776    0.0000 C   0  0  0  0  0  0  0  0  0  0  0  0
    7.7133   -9.1145    0.0000 C   0  0  0  0  0  0  0  0  0  0  0  0
    7.8632   -8.3287    0.0000 C   0  0  0  0  0  0  0  0  0  0  0  0
    7.2576   -7.8059    0.0000 C   0  0  0  0  0  0  0  0  0  0  0  0
    5.9722   -7.6116    0.0000 C   0  0  0  0  0  0  0  0  0  0  0  0
  1  2  1  0
  2  3  2  0
  3  4  1  0
  4  5  2  0
  5  6  1  0
  6  7  2  0
  7  8  1  0
  8  9  2  0
  9 10  1  0
 10 11  2  0
 11 12  1  0
 12 13  2  0
 13 14  1  0
 14 15  2  0
 15 16  1  0
 16 17  2  0
 17 18  1  0
 18 19  2  0
 19 20  1  0
 20 21  2  0
 21 22  1  0
 22 23  2  0
 23 24  1  0
 24 25  2  0
 25 26  1  0
 26 27  2  0
 27 28  1  0
 28 29  2  0
 29 30  1  0
 30 31  2  0
 31 32  1  0
 32 33  2  0
 33 34  1  0
 34 35  2  0
 35 36  1  0
 36 37  2  0
 37 38  1  0
 38 39  2  0
 39 40  1  0
 40 41  2  0
 41 42  1  0
 42 43  2  0
 43 44  1  0
 44 45  2  0
 45 46  1  0
 46 47  2  0
 47 48  1  0
 48 49  2  0
 49 50  1  0
 50 51  2  0
 51 52  1  0
 52 53  2  0
 53 54  1  0
 54 55  2  0
 55 56  1  0
 56 57  2  0
 57 58  1  0
 58 59  2  0
 59 60  1  0
 60 61  2  0
 61 62  1  0
 62 63  2  0
 63 64  1  0
 64 65  2  0
 65 66  1  0
 66 67  2  0
 67 68  1  0
 68 69  2  0
 69  2  1  0
  9  5  1  0
 15 10  1  0
 21 16  1  0
 27 22  1  0
 33 28  1  0
 39 34  1  0
 45 40  1  0
 51 46  1  0
 57 52  1  0
 63 58  1  0
 69 64  1  0
M  END
>  <Title>  (333) 
idAAKWgen10

$$$$

     RDKit          2D

  9  9  0  0  0  0  0  0  0  0999 V2000
    3.0000    0.0000    0.0000 C   0  0  0  0  0  0  0  0  0  0  0  0
    1.5000    0.0000    0.0000 C   0  0  0  0  0  0  0  0  0  0  0  0
    0.7500   -1.2990    0.0000 C   0  0  0  0  0  0  0  0  0  0  0  0
   -0.7500   -1.2990    0.0000 C   0  0  0  0  0  0  0  0  0  0  0  0
   -1.5000   -2.5981    0.0000 C   0  0  0  0  0  0  0  0  0  0  0  0
   -2.2500   -3.8971    0.0000 N   0  0  0  0  0  0  0  0  0  0  0  0
   -1.5000    0.0000    0.0000 C   0  0  0  0  0  0  0  0  0  0  0  0
   -0.7500    1.2990    0.0000 C   0  0  0  0  0  0  0  0  0  0  0  0
    0.7500    1.2990    0.0000 C   0  0  0  0  0  0  0  0  0  0  0  0
  1  2  1  0
  2  3  1  0
  3  4  2  0
  4  5  1  0
  5  6  3  0
  4  7  1  0
  7  8  1  0
  8  9  1  0
  9  2  1  0
M  END
>  <Title>  (334) 
idAAKXgen10

$$$$

     RDKit          2D

 17 18  0  0  0  0  0  0  0  0999 V2000
    3.2286   -0.0000    0.0000 C   0  0  0  0  0  0  0  0  0  0  0  0
    1.7286    0.0000    0.0000 C   0  0  0  0  0  0  0  0  0  0  0  0
    1.0777    1.3515    0.0000 C   0  0  0  0  0  0  0  0  0  0  0  0
   -0.3846    1.6852    0.0000 C   0  0  0  0  0  0  0  0  0  0  0  0
   -1.5574    0.7500    0.0000 C   0  0  0  0  0  0  0  0  0  0  0  0
   -1.5574   -0.7500    0.0000 C   0  0  0  0  0  0  0  0  0  0  0  0
   -0.3846   -1.6852    0.0000 C   0  0  0  0  0  0  0  0  0  0  0  0
   -0.7184   -3.1476    0.0000 C   0  0  0  0  0  0  0  0  0  0  0  0
    0.3812   -4.1679    0.0000 O   0  0  0  0  0  0  0  0  0  0  0  0
   -2.1518   -3.5898    0.0000 N   0  0  0  0  0  0  0  0  0  0  0  0
   -2.4856   -5.0522    0.0000 C   0  0  0  0  0  0  0  0  0  0  0  0
   -3.9189   -5.4943    0.0000 N   0  0  0  0  0  0  0  0  0  0  0  0
   -4.2527   -6.9567    0.0000 N   0  0  0  0  0  0  0  0  0  0  0  0
   -3.1531   -7.9769    0.0000 N   0  0  0  0  0  0  0  0  0  0  0  0
   -1.7198   -7.5348    0.0000 N   0  0  0  0  0  0  0  0  0  0  0  0
   -1.3860   -6.0724    0.0000 N   0  0  0  0  0  0  0  0  0  0  0  0
    1.0777   -1.3515    0.0000 C   0  0  0  0  0  0  0  0  0  0  0  0
  1  2  1  0
  2  3  2  0
  3  4  1  0
  4  5  1  0
  5  6  1  0
  6  7  1  0
  7  8  1  0
  8  9  2  0
  8 10  1  0
 10 11  1  0
 11 12  2  0
 12 13  1  0
 13 14  2  0
 14 15  1  0
 15 16  2  0
  7 17  2  0
 17  2  1  0
 16 11  1  0
M  END
>  <Title>  (335) 
idAAKYgen10

$$$$

     RDKit          2D

 12 12  0  0  0  0  0  0  0  0999 V2000
    9.7500   -1.2990    0.0000 C   0  0  0  0  0  0  0  0  0  0  0  0
    9.0000    0.0000    0.0000 C   0  0  0  0  0  0  0  0  0  0  0  0
    7.5000    0.0000    0.0000 C   0  0  0  0  0  0  0  0  0  0  0  0
    6.0000    0.0000    0.0000 C   0  0  0  0  0  0  0  0  0  0  0  0
    4.5000    0.0000    0.0000 C   0  0  0  0  0  0  0  0  0  0  0  0
    3.0000    0.0000    0.0000 C   0  0  0  0  0  0  0  0  0  0  0  0
    1.5000    0.0000    0.0000 C   0  0  0  0  0  0  0  0  0  0  0  0
    0.7500   -1.2990    0.0000 C   0  0  0  0  0  0  0  0  0  0  0  0
   -0.7500   -1.2990    0.0000 C   0  0  0  0  0  0  0  0  0  0  0  0
   -1.5000    0.0000    0.0000 C   0  0  0  0  0  0  0  0  0  0  0  0
   -0.7500    1.2990    0.0000 C   0  0  0  0  0  0  0  0  0  0  0  0
    0.7500    1.2990    0.0000 N   0  0  0  0  0  0  0  0  0  0  0  0
  1  2  2  0
  2  3  1  0
  3  4  3  0
  4  5  1  0
  5  6  3  0
  6  7  1  0
  7  8  2  0
  8  9  1  0
  9 10  2  0
 10 11  1  0
 11 12  2  0
 12  7  1  0
M  END
>  <Title>  (336) 
idAAKZgen10

$$$$

     RDKit          2D

 12 12  0  0  0  0  0  0  0  0999 V2000
    4.5000   -2.5981    0.0000 C   0  0  0  0  0  0  0  0  0  0  0  0
    3.7500   -1.2990    0.0000 C   0  0  0  0  0  0  0  0  0  0  0  0
    3.0000    0.0000    0.0000 C   0  0  0  0  0  0  0  0  0  0  0  0
    3.7500    1.2990    0.0000 O   0  0  0  0  0  0  0  0  0  0  0  0
    1.5000    0.0000    0.0000 C   0  0  0  0  0  0  0  0  0  0  0  0
    0.7500   -1.2990    0.0000 C   0  0  0  0  0  0  0  0  0  0  0  0
   -0.7500   -1.2990    0.0000 C   0  0  0  0  0  0  0  0  0  0  0  0
   -1.5000    0.0000    0.0000 C   0  0  0  0  0  0  0  0  0  0  0  0
   -3.0000    0.0000    0.0000 C   0  0  0  0  0  0  0  0  0  0  0  0
   -0.7500    1.2990    0.0000 C   0  0  0  0  0  0  0  0  0  0  0  0
   -1.5000    2.5981    0.0000 O   0  0  0  0  0  0  0  0  0  0  0  0
    0.7500    1.2990    0.0000 C   0  0  0  0  0  0  0  0  0  0  0  0
  1  2  3  0
  2  3  1  0
  3  4  2  0
  3  5  1  0
  5  6  2  0
  6  7  1  0
  7  8  2  0
  8  9  1  0
  8 10  1  0
 10 11  2  0
 10 12  1  0
 12  5  1  0
M  END
>  <Title>  (337) 
idAALAgen10

$$$$

     RDKit          2D

  6  6  0  0  0  0  0  0  0  0999 V2000
    2.7760    0.0000    0.0000 C   0  0  0  0  0  0  0  0  0  0  0  0
    1.2760    0.0000    0.0000 C   0  0  0  0  0  0  0  0  0  0  0  0
    0.3943    1.2135    0.0000 C   0  0  0  0  0  0  0  0  0  0  0  0
   -1.0323    0.7500    0.0000 C   0  0  0  0  0  0  0  0  0  0  0  0
   -1.0323   -0.7500    0.0000 C   0  0  0  0  0  0  0  0  0  0  0  0
    0.3943   -1.2135    0.0000 C   0  0  0  0  0  0  0  0  0  0  0  0
  1  2  1  0
  2  3  1  0
  3  4  2  0
  4  5  1  0
  5  6  2  0
  6  2  1  0
M  END
>  <Title>  (338) 
idAALBgen10

$$$$

     RDKit          2D

 12 13  0  0  0  0  0  0  0  0999 V2000
   -4.6883    2.2939    0.0000 C   0  0  0  0  0  0  0  0  0  0  0  0
   -3.5736    1.2902    0.0000 C   0  0  0  0  0  0  0  0  0  0  0  0
   -3.8855   -0.1771    0.0000 C   0  0  0  0  0  0  0  0  0  0  0  0
   -2.1470    1.7537    0.0000 C   0  0  0  0  0  0  0  0  0  0  0  0
   -1.8351    3.2209    0.0000 N   0  0  0  0  0  0  0  0  0  0  0  0
   -0.4086    3.6844    0.0000 N   0  0  0  0  0  0  0  0  0  0  0  0
    0.7062    2.6807    0.0000 N   0  0  0  0  0  0  0  0  0  0  0  0
    0.3943    1.2135    0.0000 N   0  0  0  0  0  0  0  0  0  0  0  0
    1.2760    0.0000    0.0000 C   0  0  0  0  0  0  0  0  0  0  0  0
    0.3943   -1.2135    0.0000 C   0  0  0  0  0  0  0  0  0  0  0  0
   -1.0323   -0.7500    0.0000 C   0  0  0  0  0  0  0  0  0  0  0  0
   -1.0323    0.7500    0.0000 C   0  0  0  0  0  0  0  0  0  0  0  0
  1  2  1  0
  2  3  1  0
  2  4  1  0
  4  5  2  0
  5  6  1  0
  6  7  2  0
  7  8  1  0
  8  9  1  0
  9 10  2  0
 10 11  1  0
 11 12  2  0
 12  4  1  0
 12  8  1  0
M  END
>  <Title>  (339) 
idAALCgen10

$$$$

     RDKit          2D

 13 14  0  0  0  0  0  0  0  0999 V2000
   -3.1965   -1.7857    0.0000 C   0  0  0  0  0  0  0  0  0  0  0  0
   -1.8107   -2.3597    0.0000 C   0  0  0  0  0  0  0  0  0  0  0  0
   -1.8107   -3.8597    0.0000 C   0  0  0  0  0  0  0  0  0  0  0  0
   -0.7500   -4.9204    0.0000 C   0  0  0  0  0  0  0  0  0  0  0  0
    0.7500   -4.9204    0.0000 C   0  0  0  0  0  0  0  0  0  0  0  0
    1.8107   -3.8597    0.0000 C   0  0  0  0  0  0  0  0  0  0  0  0
    1.8107   -2.3597    0.0000 C   0  0  0  0  0  0  0  0  0  0  0  0
    0.7500   -1.2990    0.0000 C   0  0  0  0  0  0  0  0  0  0  0  0
    1.5000    0.0000    0.0000 C   0  0  0  0  0  0  0  0  0  0  0  0
    0.7500    1.2990    0.0000 C   0  0  0  0  0  0  0  0  0  0  0  0
   -0.7500    1.2990    0.0000 C   0  0  0  0  0  0  0  0  0  0  0  0
   -1.5000    0.0000    0.0000 C   0  0  0  0  0  0  0  0  0  0  0  0
   -0.7500   -1.2990    0.0000 C   0  0  0  0  0  0  0  0  0  0  0  0
  1  2  1  0
  2  3  1  0
  3  4  1  0
  4  5  1  0
  5  6  1  0
  6  7  1  0
  7  8  1  0
  8  9  2  0
  9 10  1  0
 10 11  2  0
 11 12  1  0
 12 13  2  0
 13  2  1  0
 13  8  1  0
M  END
>  <Title>  (340) 
idAALDgen10

$$$$

     RDKit          2D

  6  5  0  0  0  0  0  0  0  0999 V2000
    0.0000    0.0000    0.0000 C   0  0  0  0  0  0  0  0  0  0  0  0
    1.2990    0.7500    0.0000 C   0  0  0  0  0  0  0  0  0  0  0  0
    2.5981   -0.0000    0.0000 C   0  0  0  0  0  0  0  0  0  0  0  0
    3.8971   -0.7500    0.0000 C   0  0  0  0  0  0  0  0  0  0  0  0
    5.1962   -1.5000    0.0000 C   0  0  0  0  0  0  0  0  0  0  0  0
    6.4952   -0.7500    0.0000 C   0  0  0  0  0  0  0  0  0  0  0  0
  1  2  2  0
  2  3  1  0
  3  4  3  0
  4  5  1  0
  5  6  1  0
M  END
>  <Title>  (341) 
idAALEgen10

$$$$

     RDKit          2D

 54 58  0  0  0  0  0  0  0  0999 V2000
   -9.7610   -7.2561    0.0000 C   0  0  0  0  0  0  0  0  0  0  0  0
   -8.3121   -7.6444    0.0000 C   0  0  0  0  0  0  0  0  0  0  0  0
   -8.5725   -9.1216    0.0000 C   0  0  0  0  0  0  0  0  0  0  0  0
   -8.5725  -10.6216    0.0000 C   0  0  0  0  0  0  0  0  0  0  0  0
   -8.3121  -12.0988    0.0000 C   0  0  0  0  0  0  0  0  0  0  0  0
   -7.7990  -13.5083    0.0000 C   0  0  0  0  0  0  0  0  0  0  0  0
   -7.0490  -14.8074    0.0000 C   0  0  0  0  0  0  0  0  0  0  0  0
   -6.0849  -15.9564    0.0000 C   0  0  0  0  0  0  0  0  0  0  0  0
   -4.9358  -16.9206    0.0000 C   0  0  0  0  0  0  0  0  0  0  0  0
   -3.6368  -17.6706    0.0000 C   0  0  0  0  0  0  0  0  0  0  0  0
   -2.2272  -18.1836    0.0000 C   0  0  0  0  0  0  0  0  0  0  0  0
   -0.7500  -18.4441    0.0000 C   0  0  0  0  0  0  0  0  0  0  0  0
    0.7500  -18.4441    0.0000 C   0  0  0  0  0  0  0  0  0  0  0  0
    2.2272  -18.1836    0.0000 C   0  0  0  0  0  0  0  0  0  0  0  0
    3.6368  -17.6706    0.0000 C   0  0  0  0  0  0  0  0  0  0  0  0
    4.9358  -16.9206    0.0000 C   0  0  0  0  0  0  0  0  0  0  0  0
    6.0849  -15.9564    0.0000 C   0  0  0  0  0  0  0  0  0  0  0  0
    7.0490  -14.8074    0.0000 C   0  0  0  0  0  0  0  0  0  0  0  0
    7.7990  -13.5083    0.0000 C   0  0  0  0  0  0  0  0  0  0  0  0
    8.3121  -12.0988    0.0000 C   0  0  0  0  0  0  0  0  0  0  0  0
    8.5725  -10.6216    0.0000 C   0  0  0  0  0  0  0  0  0  0  0  0
    8.5725   -9.1216    0.0000 C   0  0  0  0  0  0  0  0  0  0  0  0
    8.3121   -7.6444    0.0000 C   0  0  0  0  0  0  0  0  0  0  0  0
    7.7990   -6.2348    0.0000 C   0  0  0  0  0  0  0  0  0  0  0  0
    7.0490   -4.9358    0.0000 C   0  0  0  0  0  0  0  0  0  0  0  0
    6.0849   -3.7867    0.0000 C   0  0  0  0  0  0  0  0  0  0  0  0
    4.9358   -2.8225    0.0000 C   0  0  0  0  0  0  0  0  0  0  0  0
    3.6368   -2.0725    0.0000 C   0  0  0  0  0  0  0  0  0  0  0  0
    2.2272   -1.5595    0.0000 C   0  0  0  0  0  0  0  0  0  0  0  0
    2.6154   -0.1106    0.0000 C   0  0  0  0  0  0  0  0  0  0  0  0
    0.7500   -1.2990    0.0000 N   0  0  0  0  0  0  0  0  0  0  0  0
    1.5000    0.0000    0.0000 C   0  0  0  0  0  0  0  0  0  0  0  0
    0.7500    1.2990    0.0000 C   0  0  0  0  0  0  0  0  0  0  0  0
   -0.7500    1.2990    0.0000 C   0  0  0  0  0  0  0  0  0  0  0  0
   -1.5000    0.0000    0.0000 C   0  0  0  0  0  0  0  0  0  0  0  0
   -0.7500   -1.2990    0.0000 C   0  0  0  0  0  0  0  0  0  0  0  0
   -2.2272   -1.5595    0.0000 C   0  0  0  0  0  0  0  0  0  0  0  0
   -2.6245   -0.3217    0.0000 C   0  0  0  0  0  0  0  0  0  0  0  0
   -3.2374    0.1925    0.0000 C   0  0  0  0  0  0  0  0  0  0  0  0
   -3.9891   -0.0811    0.0000 C   0  0  0  0  0  0  0  0  0  0  0  0
   -4.1280   -0.8689    0.0000 C   0  0  0  0  0  0  0  0  0  0  0  0
   -3.6368   -2.0725    0.0000 C   0  0  0  0  0  0  0  0  0  0  0  0
   -4.9358   -2.8225    0.0000 C   0  0  0  0  0  0  0  0  0  0  0  0
   -5.1963   -1.3453    0.0000 C   0  0  0  0  0  0  0  0  0  0  0  0
   -6.6058   -0.8323    0.0000 C   0  0  0  0  0  0  0  0  0  0  0  0
   -7.7549   -1.7965    0.0000 C   0  0  0  0  0  0  0  0  0  0  0  0
   -7.4944   -3.2737    0.0000 C   0  0  0  0  0  0  0  0  0  0  0  0
   -6.0849   -3.7867    0.0000 C   0  0  0  0  0  0  0  0  0  0  0  0
   -7.0490   -4.9358    0.0000 C   0  0  0  0  0  0  0  0  0  0  0  0
   -8.1490   -4.2430    0.0000 C   0  0  0  0  0  0  0  0  0  0  0  0
   -8.9490   -4.2430    0.0000 C   0  0  0  0  0  0  0  0  0  0  0  0
   -9.3490   -4.9358    0.0000 C   0  0  0  0  0  0  0  0  0  0  0  0
   -8.9490   -5.6286    0.0000 C   0  0  0  0  0  0  0  0  0  0  0  0
   -7.7990   -6.2348    0.0000 C   0  0  0  0  0  0  0  0  0  0  0  0
  1  2  1  0
  2  3  1  0
  3  4  1  0
  4  5  1  0
  5  6  1  0
  6  7  1  0
  7  8  1  0
  8  9  1  0
  9 10  1  0
 10 11  1  0
 11 12  1  0
 12 13  1  0
 13 14  1  0
 14 15  1  0
 15 16  1  0
 16 17  1  0
 17 18  1  0
 18 19  1  0
 19 20  1  0
 20 21  1  0
 21 22  1  0
 22 23  1  0
 23 24  1  0
 24 25  1  0
 25 26  1  0
 26 27  1  0
 27 28  1  0
 28 29  1  0
 29 30  1  0
 29 31  1  0
 31 32  1  0
 32 33  1  0
 33 34  2  0
 34 35  1  0
 35 36  2  0
 36 37  1  0
 37 38  2  0
 38 39  1  0
 39 40  2  0
 40 41  1  0
 41 42  2  0
 42 43  1  0
 43 44  2  0
 44 45  1  0
 45 46  2  0
 46 47  1  0
 47 48  2  0
 48 49  1  0
 49 50  2  0
 50 51  1  0
 51 52  2  0
 52 53  1  0
 53 54  2  0
 54  2  1  0
 36 31  1  0
 42 37  1  0
 48 43  1  0
 54 49  1  0
M  END
>  <Title>  (342) 
idAALFgen10

$$$$

     RDKit          2D

 11 11  0  0  0  0  0  0  0  0999 V2000
    5.2500   -1.2990    0.0000 C   0  0  0  0  0  0  0  0  0  0  0  0
    3.7500   -1.2990    0.0000 C   0  0  0  0  0  0  0  0  0  0  0  0
    3.0000   -2.5981    0.0000 C   0  0  0  0  0  0  0  0  0  0  0  0
    3.7500   -3.8971    0.0000 O   0  0  0  0  0  0  0  0  0  0  0  0
    3.0000    0.0000    0.0000 N   0  0  0  0  0  0  0  0  0  0  0  0
    1.5000    0.0000    0.0000 C   0  0  0  0  0  0  0  0  0  0  0  0
    0.7500   -1.2990    0.0000 C   0  0  0  0  0  0  0  0  0  0  0  0
   -0.7500   -1.2990    0.0000 C   0  0  0  0  0  0  0  0  0  0  0  0
   -1.5000    0.0000    0.0000 C   0  0  0  0  0  0  0  0  0  0  0  0
   -0.7500    1.2990    0.0000 C   0  0  0  0  0  0  0  0  0  0  0  0
    0.7500    1.2990    0.0000 C   0  0  0  0  0  0  0  0  0  0  0  0
  1  2  1  0
  2  3  1  0
  3  4  1  0
  2  5  1  0
  5  6  1  0
  6  7  2  0
  7  8  1  0
  8  9  2  0
  9 10  1  0
 10 11  2  0
 11  6  1  0
M  END
>  <Title>  (343) 
idAALGgen10

$$$$

     RDKit          2D

 41 44  0  0  0  0  0  0  0  0999 V2000
    8.6303    0.5553    0.0000 C   0  0  0  0  0  0  0  0  0  0  0  0
    8.2420   -0.8936    0.0000 C   0  0  0  0  0  0  0  0  0  0  0  0
    9.3027   -1.9542    0.0000 N   0  0  0  0  0  0  0  0  0  0  0  0
    8.9145   -3.4031    0.0000 C   0  0  0  0  0  0  0  0  0  0  0  0
    9.9751   -4.4638    0.0000 O   0  0  0  0  0  0  0  0  0  0  0  0
    7.4656   -3.7913    0.0000 N   0  0  0  0  0  0  0  0  0  0  0  0
    6.4049   -2.7307    0.0000 C   0  0  0  0  0  0  0  0  0  0  0  0
    4.9560   -3.1189    0.0000 N   0  0  0  0  0  0  0  0  0  0  0  0
    3.8954   -2.0583    0.0000 N   0  0  0  0  0  0  0  0  0  0  0  0
    2.4465   -2.4465    0.0000 N   0  0  0  0  0  0  0  0  0  0  0  0
    1.3858   -1.3858    0.0000 N   0  0  0  0  0  0  0  0  0  0  0  0
    1.9598    0.0000    0.0000 N   0  0  0  0  0  0  0  0  0  0  0  0
    1.3858    1.3858    0.0000 C   0  0  0  0  0  0  0  0  0  0  0  0
    2.4465    2.4465    0.0000 O   0  0  0  0  0  0  0  0  0  0  0  0
    0.0000    1.9598    0.0000 N   0  0  0  0  0  0  0  0  0  0  0  0
   -1.3858    1.3858    0.0000 C   0  0  0  0  0  0  0  0  0  0  0  0
   -1.9598    0.0000    0.0000 C   0  0  0  0  0  0  0  0  0  0  0  0
   -1.3858   -1.3858    0.0000 C   0  0  0  0  0  0  0  0  0  0  0  0
   -2.4465   -2.4465    0.0000 C   0  0  0  0  0  0  0  0  0  0  0  0
   -2.0583   -3.8954    0.0000 O   0  0  0  0  0  0  0  0  0  0  0  0
   -3.8954   -2.0583    0.0000 N   0  0  0  0  0  0  0  0  0  0  0  0
   -4.9560   -3.1189    0.0000 C   0  0  0  0  0  0  0  0  0  0  0  0
   -6.4049   -2.7307    0.0000 N   0  0  0  0  0  0  0  0  0  0  0  0
   -7.4656   -3.7913    0.0000 N   0  0  0  0  0  0  0  0  0  0  0  0
   -7.0773   -5.2402    0.0000 N   0  0  0  0  0  0  0  0  0  0  0  0
   -5.6285   -5.6285    0.0000 N   0  0  0  0  0  0  0  0  0  0  0  0
   -4.5678   -4.5678    0.0000 N   0  0  0  0  0  0  0  0  0  0  0  0
   -0.0000   -1.9598    0.0000 C   0  0  0  0  0  0  0  0  0  0  0  0
   -0.0000   -3.4598    0.0000 O   0  0  0  0  0  0  0  0  0  0  0  0
    6.7931   -1.2818    0.0000 C   0  0  0  0  0  0  0  0  0  0  0  0
    5.7325   -0.2211    0.0000 C   0  0  0  0  0  0  0  0  0  0  0  0
    6.1207    1.2278    0.0000 C   0  0  0  0  0  0  0  0  0  0  0  0
    5.0601    2.2884    0.0000 C   0  0  0  0  0  0  0  0  0  0  0  0
    5.4483    3.7373    0.0000 C   0  0  0  0  0  0  0  0  0  0  0  0
    4.3876    4.7980    0.0000 C   0  0  0  0  0  0  0  0  0  0  0  0
    2.9061    4.5633    0.0000 O   0  0  0  0  0  0  0  0  0  0  0  0
    2.2251    5.8998    0.0000 C   0  0  0  0  0  0  0  0  0  0  0  0
    3.2858    6.9605    0.0000 C   0  0  0  0  0  0  0  0  0  0  0  0
    3.0511    8.4420    0.0000 O   0  0  0  0  0  0  0  0  0  0  0  0
    4.6223    6.2795    0.0000 C   0  0  0  0  0  0  0  0  0  0  0  0
    5.9588    6.9605    0.0000 O   0  0  0  0  0  0  0  0  0  0  0  0
  1  2  1  0
  2  3  1  0
  3  4  1  0
  4  5  2  0
  4  6  1  0
  6  7  1  0
  7  8  2  3
  8  9  1  0
  9 10  2  3
 10 11  1  0
 11 12  1  0
 12 13  1  0
 13 14  2  0
 13 15  1  0
 15 16  1  0
 16 17  1  0
 17 18  2  0
 18 19  1  0
 19 20  2  0
 19 21  1  0
 21 22  1  0
 22 23  2  0
 23 24  1  0
 24 25  2  0
 25 26  1  0
 26 27  2  0
 18 28  1  0
 28 29  2  0
  7 30  1  0
 30 31  2  3
 31 32  1  0
 32 33  2  3
 33 34  1  0
 34 35  2  3
 35 36  1  0
 36 37  1  0
 37 38  1  0
 38 39  1  0
 38 40  1  0
 40 41  1  0
 30  2  1  0
 40 35  1  0
 28 11  1  0
 27 22  1  0
M  END
>  <Title>  (344) 
idAALHgen10

$$$$

     RDKit          2D

 72 73  0  0  0  0  0  0  0  0999 V2000
   -2.3472    0.7565    0.0000 C   0  0  0  0  0  0  0  0  0  0  0  0
   -1.8087    2.1565    0.0000 C   0  0  0  0  0  0  0  0  0  0  0  0
   -3.1815    2.7610    0.0000 C   0  0  0  0  0  0  0  0  0  0  0  0
   -4.4906    3.4933    0.0000 C   0  0  0  0  0  0  0  0  0  0  0  0
   -5.7242    4.3467    0.0000 C   0  0  0  0  0  0  0  0  0  0  0  0
   -6.8711    5.3135    0.0000 C   0  0  0  0  0  0  0  0  0  0  0  0
   -7.9208    6.3849    0.0000 C   0  0  0  0  0  0  0  0  0  0  0  0
   -8.8640    7.5512    0.0000 C   0  0  0  0  0  0  0  0  0  0  0  0
   -9.6921    8.8020    0.0000 C   0  0  0  0  0  0  0  0  0  0  0  0
  -10.3975   10.1258    0.0000 C   0  0  0  0  0  0  0  0  0  0  0  0
  -10.9739   11.5106    0.0000 C   0  0  0  0  0  0  0  0  0  0  0  0
  -11.4160   12.9440    0.0000 C   0  0  0  0  0  0  0  0  0  0  0  0
  -11.7199   14.4129    0.0000 C   0  0  0  0  0  0  0  0  0  0  0  0
  -11.8828   15.9040    0.0000 C   0  0  0  0  0  0  0  0  0  0  0  0
  -11.9032   17.4038    0.0000 C   0  0  0  0  0  0  0  0  0  0  0  0
  -11.7809   18.8989    0.0000 C   0  0  0  0  0  0  0  0  0  0  0  0
  -11.5171   20.3755    0.0000 C   0  0  0  0  0  0  0  0  0  0  0  0
  -11.1141   21.8203    0.0000 C   0  0  0  0  0  0  0  0  0  0  0  0
  -10.5756   23.2203    0.0000 C   0  0  0  0  0  0  0  0  0  0  0  0
   -9.9064   24.5628    0.0000 C   0  0  0  0  0  0  0  0  0  0  0  0
   -9.1127   25.8356    0.0000 C   0  0  0  0  0  0  0  0  0  0  0  0
   -8.2016   27.0272    0.0000 C   0  0  0  0  0  0  0  0  0  0  0  0
   -7.1813   28.1268    0.0000 C   0  0  0  0  0  0  0  0  0  0  0  0
   -6.0612   29.1244    0.0000 C   0  0  0  0  0  0  0  0  0  0  0  0
   -4.8513   30.0110    0.0000 C   0  0  0  0  0  0  0  0  0  0  0  0
   -3.5625   30.7786    0.0000 C   0  0  0  0  0  0  0  0  0  0  0  0
   -2.2067   31.4202    0.0000 C   0  0  0  0  0  0  0  0  0  0  0  0
   -0.7960   31.9301    0.0000 C   0  0  0  0  0  0  0  0  0  0  0  0
    0.6568   32.3035    0.0000 C   0  0  0  0  0  0  0  0  0  0  0  0
    2.1385   32.5371    0.0000 C   0  0  0  0  0  0  0  0  0  0  0  0
    3.6357   32.6289    0.0000 C   0  0  0  0  0  0  0  0  0  0  0  0
    5.1348   32.5779    0.0000 C   0  0  0  0  0  0  0  0  0  0  0  0
    6.6223   32.3846    0.0000 C   0  0  0  0  0  0  0  0  0  0  0  0
    8.0847   32.0508    0.0000 C   0  0  0  0  0  0  0  0  0  0  0  0
    9.5087   31.5796    0.0000 C   0  0  0  0  0  0  0  0  0  0  0  0
   10.8815   30.9750    0.0000 C   0  0  0  0  0  0  0  0  0  0  0  0
   12.1906   30.2428    0.0000 C   0  0  0  0  0  0  0  0  0  0  0  0
   13.4242   29.3894    0.0000 C   0  0  0  0  0  0  0  0  0  0  0  0
   14.5711   28.4226    0.0000 C   0  0  0  0  0  0  0  0  0  0  0  0
   15.6209   27.3512    0.0000 C   0  0  0  0  0  0  0  0  0  0  0  0
   16.5641   26.1848    0.0000 C   0  0  0  0  0  0  0  0  0  0  0  0
   17.3921   24.9341    0.0000 C   0  0  0  0  0  0  0  0  0  0  0  0
   18.0975   23.6103    0.0000 C   0  0  0  0  0  0  0  0  0  0  0  0
   18.6739   22.2255    0.0000 C   0  0  0  0  0  0  0  0  0  0  0  0
   19.1160   20.7921    0.0000 C   0  0  0  0  0  0  0  0  0  0  0  0
   19.4199   19.3232    0.0000 C   0  0  0  0  0  0  0  0  0  0  0  0
   19.5828   17.8321    0.0000 C   0  0  0  0  0  0  0  0  0  0  0  0
   19.6032   16.3322    0.0000 C   0  0  0  0  0  0  0  0  0  0  0  0
   19.4809   14.8372    0.0000 C   0  0  0  0  0  0  0  0  0  0  0  0
   19.2171   13.3606    0.0000 C   0  0  0  0  0  0  0  0  0  0  0  0
   18.8141   11.9157    0.0000 C   0  0  0  0  0  0  0  0  0  0  0  0
   18.2756   10.5157    0.0000 C   0  0  0  0  0  0  0  0  0  0  0  0
   17.6065    9.1733    0.0000 C   0  0  0  0  0  0  0  0  0  0  0  0
   16.8128    7.9005    0.0000 C   0  0  0  0  0  0  0  0  0  0  0  0
   15.9016    6.7089    0.0000 C   0  0  0  0  0  0  0  0  0  0  0  0
   14.8814    5.6093    0.0000 C   0  0  0  0  0  0  0  0  0  0  0  0
   13.7612    4.6117    0.0000 C   0  0  0  0  0  0  0  0  0  0  0  0
   12.5513    3.7251    0.0000 C   0  0  0  0  0  0  0  0  0  0  0  0
   11.2626    2.9575    0.0000 C   0  0  0  0  0  0  0  0  0  0  0  0
    9.9067    2.3159    0.0000 C   0  0  0  0  0  0  0  0  0  0  0  0
    8.4960    1.8060    0.0000 C   0  0  0  0  0  0  0  0  0  0  0  0
    7.0433    1.4326    0.0000 C   0  0  0  0  0  0  0  0  0  0  0  0
    5.5616    1.1989    0.0000 C   0  0  0  0  0  0  0  0  0  0  0  0
    4.0644    1.1072    0.0000 C   0  0  0  0  0  0  0  0  0  0  0  0
    2.5652    1.1582    0.0000 C   0  0  0  0  0  0  0  0  0  0  0  0
    1.0777    1.3515    0.0000 C   0  0  0  0  0  0  0  0  0  0  0  0
    1.7286    0.0000    0.0000 C   0  0  0  0  0  0  0  0  0  0  0  0
    1.0777   -1.3515    0.0000 C   0  0  0  0  0  0  0  0  0  0  0  0
   -0.3846   -1.6852    0.0000 C   0  0  0  0  0  0  0  0  0  0  0  0
   -1.5574   -0.7500    0.0000 C   0  0  0  0  0  0  0  0  0  0  0  0
   -1.5574    0.7500    0.0000 C   0  0  0  0  0  0  0  0  0  0  0  0
   -0.3846    1.6852    0.0000 C   0  0  0  0  0  0  0  0  0  0  0  0
  1  2  1  0
  2  3  2  0
  3  4  1  0
  4  5  1  0
  5  6  1  0
  6  7  1  0
  7  8  2  0
  8  9  1  0
  9 10  2  0
 10 11  1  0
 11 12  2  0
 12 13  1  0
 13 14  2  0
 14 15  1  0
 15 16  2  0
 16 17  1  0
 17 18  2  0
 18 19  1  0
 19 20  2  0
 20 21  1  0
 21 22  2  0
 22 23  1  0
 23 24  2  0
 24 25  1  0
 25 26  2  0
 26 27  1  0
 27 28  2  0
 28 29  1  0
 29 30  2  0
 30 31  1  0
 31 32  2  0
 32 33  1  0
 33 34  2  0
 34 35  1  0
 35 36  2  0
 36 37  1  0
 37 38  2  0
 38 39  1  0
 39 40  2  0
 40 41  1  0
 41 42  2  0
 42 43  1  0
 43 44  2  0
 44 45  1  0
 45 46  2  0
 46 47  1  0
 47 48  2  0
 48 49  1  0
 49 50  2  0
 50 51  1  0
 51 52  2  0
 52 53  1  0
 53 54  2  0
 54 55  1  0
 55 56  2  0
 56 57  1  0
 57 58  2  0
 58 59  1  0
 59 60  2  0
 60 61  1  0
 61 62  2  0
 62 63  1  0
 63 64  2  0
 64 65  1  0
 65 66  2  0
 66 67  1  0
 67 68  1  0
 68 69  1  0
 69 70  1  0
 70 71  1  0
 71 72  2  0
 72  2  1  0
 72 66  1  0
M  END
>  <Title>  (345) 
idAALIgen10

$$$$

     RDKit          2D

 52 56  0  0  0  0  0  0  0  0999 V2000
   -9.6195   -7.4366    0.0000 C   0  0  0  0  0  0  0  0  0  0  0  0
   -8.1571   -7.7704    0.0000 C   0  0  0  0  0  0  0  0  0  0  0  0
   -8.3584   -9.2568    0.0000 C   0  0  0  0  0  0  0  0  0  0  0  0
   -8.2911  -10.7553    0.0000 C   0  0  0  0  0  0  0  0  0  0  0  0
   -7.9574  -12.2177    0.0000 C   0  0  0  0  0  0  0  0  0  0  0  0
   -7.3678  -13.5970    0.0000 C   0  0  0  0  0  0  0  0  0  0  0  0
   -6.5415  -14.8489    0.0000 C   0  0  0  0  0  0  0  0  0  0  0  0
   -5.5049  -15.9331    0.0000 C   0  0  0  0  0  0  0  0  0  0  0  0
   -4.2914  -16.8147    0.0000 C   0  0  0  0  0  0  0  0  0  0  0  0
   -2.9399  -17.4656    0.0000 C   0  0  0  0  0  0  0  0  0  0  0  0
   -1.4940  -17.8646    0.0000 C   0  0  0  0  0  0  0  0  0  0  0  0
   -0.0000  -17.9991    0.0000 C   0  0  0  0  0  0  0  0  0  0  0  0
    1.4940  -17.8646    0.0000 C   0  0  0  0  0  0  0  0  0  0  0  0
    2.9399  -17.4656    0.0000 C   0  0  0  0  0  0  0  0  0  0  0  0
    4.2914  -16.8147    0.0000 C   0  0  0  0  0  0  0  0  0  0  0  0
    5.5049  -15.9331    0.0000 C   0  0  0  0  0  0  0  0  0  0  0  0
    6.5415  -14.8489    0.0000 C   0  0  0  0  0  0  0  0  0  0  0  0
    7.3678  -13.5970    0.0000 C   0  0  0  0  0  0  0  0  0  0  0  0
    7.9574  -12.2177    0.0000 C   0  0  0  0  0  0  0  0  0  0  0  0
    8.2911  -10.7553    0.0000 C   0  0  0  0  0  0  0  0  0  0  0  0
    8.3584   -9.2568    0.0000 C   0  0  0  0  0  0  0  0  0  0  0  0
    8.1571   -7.7704    0.0000 C   0  0  0  0  0  0  0  0  0  0  0  0
    7.6936   -6.3438    0.0000 C   0  0  0  0  0  0  0  0  0  0  0  0
    6.9828   -5.0229    0.0000 C   0  0  0  0  0  0  0  0  0  0  0  0
    6.0475   -3.8502    0.0000 C   0  0  0  0  0  0  0  0  0  0  0  0
    4.9179   -2.8633    0.0000 C   0  0  0  0  0  0  0  0  0  0  0  0
    3.6302   -2.0939    0.0000 C   0  0  0  0  0  0  0  0  0  0  0  0
    2.2259   -1.5669    0.0000 C   0  0  0  0  0  0  0  0  0  0  0  0
    0.7500   -1.2990    0.0000 C   0  0  0  0  0  0  0  0  0  0  0  0
    1.5000    0.0000    0.0000 C   0  0  0  0  0  0  0  0  0  0  0  0
    0.7500    1.2990    0.0000 C   0  0  0  0  0  0  0  0  0  0  0  0
   -0.7500    1.2990    0.0000 C   0  0  0  0  0  0  0  0  0  0  0  0
   -1.5000    0.0000    0.0000 C   0  0  0  0  0  0  0  0  0  0  0  0
   -0.7500   -1.2990    0.0000 C   0  0  0  0  0  0  0  0  0  0  0  0
   -2.2259   -1.5669    0.0000 C   0  0  0  0  0  0  0  0  0  0  0  0
   -2.6355   -0.3331    0.0000 C   0  0  0  0  0  0  0  0  0  0  0  0
   -3.2535    0.1750    0.0000 C   0  0  0  0  0  0  0  0  0  0  0  0
   -4.0025   -0.1061    0.0000 C   0  0  0  0  0  0  0  0  0  0  0  0
   -4.1335   -0.8953    0.0000 C   0  0  0  0  0  0  0  0  0  0  0  0
   -3.6302   -2.0939    0.0000 C   0  0  0  0  0  0  0  0  0  0  0  0
   -4.9179   -2.8633    0.0000 C   0  0  0  0  0  0  0  0  0  0  0  0
   -5.2078   -1.3916    0.0000 C   0  0  0  0  0  0  0  0  0  0  0  0
   -6.6273   -0.9067    0.0000 C   0  0  0  0  0  0  0  0  0  0  0  0
   -7.7569   -1.8937    0.0000 C   0  0  0  0  0  0  0  0  0  0  0  0
   -7.4670   -3.3654    0.0000 C   0  0  0  0  0  0  0  0  0  0  0  0
   -6.0475   -3.8502    0.0000 C   0  0  0  0  0  0  0  0  0  0  0  0
   -6.9828   -5.0229    0.0000 C   0  0  0  0  0  0  0  0  0  0  0  0
   -8.1030   -4.3633    0.0000 C   0  0  0  0  0  0  0  0  0  0  0  0
   -8.9026   -4.3873    0.0000 C   0  0  0  0  0  0  0  0  0  0  0  0
   -9.2817   -5.0917    0.0000 C   0  0  0  0  0  0  0  0  0  0  0  0
   -8.8612   -5.7723    0.0000 C   0  0  0  0  0  0  0  0  0  0  0  0
   -7.6936   -6.3438    0.0000 C   0  0  0  0  0  0  0  0  0  0  0  0
  1  2  1  0
  2  3  2  0
  3  4  1  0
  4  5  2  0
  5  6  1  0
  6  7  2  0
  7  8  1  0
  8  9  2  0
  9 10  1  0
 10 11  2  0
 11 12  1  0
 12 13  2  0
 13 14  1  0
 14 15  2  0
 15 16  1  0
 16 17  2  0
 17 18  1  0
 18 19  2  0
 19 20  1  0
 20 21  2  0
 21 22  1  0
 22 23  2  0
 23 24  1  0
 24 25  2  0
 25 26  1  0
 26 27  2  0
 27 28  1  0
 28 29  2  0
 29 30  1  0
 30 31  1  0
 31 32  1  0
 32 33  1  0
 33 34  2  0
 34 35  1  0
 35 36  2  0
 36 37  1  0
 37 38  2  0
 38 39  1  0
 39 40  2  0
 40 41  1  0
 41 42  2  0
 42 43  1  0
 43 44  2  0
 44 45  1  0
 45 46  2  0
 46 47  1  0
 47 48  2  0
 48 49  1  0
 49 50  2  0
 50 51  1  0
 51 52  2  0
 52  2  1  0
 34 29  1  0
 40 35  1  0
 46 41  1  0
 52 47  1  0
M  END
>  <Title>  (346) 
idAALJgen10

$$$$

     RDKit          2D

  8  8  0  0  0  0  0  0  0  0999 V2000
    3.5260   -1.2990    0.0000 C   0  0  0  0  0  0  0  0  0  0  0  0
    2.7760    0.0000    0.0000 C   0  0  0  0  0  0  0  0  0  0  0  0
    1.2760    0.0000    0.0000 C   0  0  0  0  0  0  0  0  0  0  0  0
    0.3943    1.2135    0.0000 C   0  0  0  0  0  0  0  0  0  0  0  0
   -1.0323    0.7500    0.0000 C   0  0  0  0  0  0  0  0  0  0  0  0
   -1.0323   -0.7500    0.0000 C   0  0  0  0  0  0  0  0  0  0  0  0
   -2.2458   -1.6317    0.0000 C   0  0  0  0  0  0  0  0  0  0  0  0
    0.3943   -1.2135    0.0000 N   0  0  0  0  0  0  0  0  0  0  0  0
  1  2  2  0
  2  3  1  0
  3  4  2  0
  4  5  1  0
  5  6  2  0
  6  7  1  0
  6  8  1  0
  8  3  1  0
M  END
>  <Title>  (347) 
idAALKgen10

$$$$

     RDKit          2D

 89 90  0  0  0  0  0  0  0  0999 V2000
   -2.1864   -1.0760    0.0000 C   0  0  0  0  0  0  0  0  0  0  0  0
   -2.4892    0.3931    0.0000 C   0  0  0  0  0  0  0  0  0  0  0  0
   -3.9685    0.1448    0.0000 C   0  0  0  0  0  0  0  0  0  0  0  0
   -5.4621    0.0064    0.0000 C   0  0  0  0  0  0  0  0  0  0  0  0
   -6.9619   -0.0214    0.0000 C   0  0  0  0  0  0  0  0  0  0  0  0
   -8.4595    0.0618    0.0000 C   0  0  0  0  0  0  0  0  0  0  0  0
   -9.9470    0.2553    0.0000 C   0  0  0  0  0  0  0  0  0  0  0  0
  -11.4161    0.5581    0.0000 C   0  0  0  0  0  0  0  0  0  0  0  0
  -12.8589    0.9686    0.0000 C   0  0  0  0  0  0  0  0  0  0  0  0
  -14.2674    1.4845    0.0000 C   0  0  0  0  0  0  0  0  0  0  0  0
  -15.6339    2.1030    0.0000 C   0  0  0  0  0  0  0  0  0  0  0  0
  -16.9510    2.8208    0.0000 C   0  0  0  0  0  0  0  0  0  0  0  0
  -18.2115    3.6339    0.0000 C   0  0  0  0  0  0  0  0  0  0  0  0
  -19.4086    4.5378    0.0000 C   0  0  0  0  0  0  0  0  0  0  0  0
  -20.5355    5.5277    0.0000 C   0  0  0  0  0  0  0  0  0  0  0  0
  -21.5864    6.5981    0.0000 C   0  0  0  0  0  0  0  0  0  0  0  0
  -22.5553    7.7432    0.0000 C   0  0  0  0  0  0  0  0  0  0  0  0
  -23.4369    8.9568    0.0000 C   0  0  0  0  0  0  0  0  0  0  0  0
  -24.2266   10.2321    0.0000 C   0  0  0  0  0  0  0  0  0  0  0  0
  -24.9199   11.5622    0.0000 C   0  0  0  0  0  0  0  0  0  0  0  0
  -25.5131   12.9400    0.0000 C   0  0  0  0  0  0  0  0  0  0  0  0
  -26.0029   14.3578    0.0000 C   0  0  0  0  0  0  0  0  0  0  0  0
  -26.3866   15.8078    0.0000 C   0  0  0  0  0  0  0  0  0  0  0  0
  -26.6623   17.2823    0.0000 C   0  0  0  0  0  0  0  0  0  0  0  0
  -26.8282   18.7731    0.0000 C   0  0  0  0  0  0  0  0  0  0  0  0
  -26.8837   20.2721    0.0000 C   0  0  0  0  0  0  0  0  0  0  0  0
  -26.8282   21.7710    0.0000 C   0  0  0  0  0  0  0  0  0  0  0  0
  -26.6623   23.2618    0.0000 C   0  0  0  0  0  0  0  0  0  0  0  0
  -26.3866   24.7363    0.0000 C   0  0  0  0  0  0  0  0  0  0  0  0
  -26.0029   26.1864    0.0000 C   0  0  0  0  0  0  0  0  0  0  0  0
  -25.5131   27.6041    0.0000 C   0  0  0  0  0  0  0  0  0  0  0  0
  -24.9199   28.9819    0.0000 C   0  0  0  0  0  0  0  0  0  0  0  0
  -24.2266   30.3120    0.0000 C   0  0  0  0  0  0  0  0  0  0  0  0
  -23.4369   31.5873    0.0000 C   0  0  0  0  0  0  0  0  0  0  0  0
  -22.5553   32.8009    0.0000 C   0  0  0  0  0  0  0  0  0  0  0  0
  -21.5864   33.9460    0.0000 C   0  0  0  0  0  0  0  0  0  0  0  0
  -20.5355   35.0164    0.0000 C   0  0  0  0  0  0  0  0  0  0  0  0
  -19.4086   36.0063    0.0000 C   0  0  0  0  0  0  0  0  0  0  0  0
  -18.2115   36.9102    0.0000 C   0  0  0  0  0  0  0  0  0  0  0  0
  -16.9510   37.7233    0.0000 C   0  0  0  0  0  0  0  0  0  0  0  0
  -15.6339   38.4411    0.0000 C   0  0  0  0  0  0  0  0  0  0  0  0
  -14.2674   39.0596    0.0000 C   0  0  0  0  0  0  0  0  0  0  0  0
  -12.8589   39.5755    0.0000 C   0  0  0  0  0  0  0  0  0  0  0  0
  -11.4161   39.9860    0.0000 C   0  0  0  0  0  0  0  0  0  0  0  0
   -9.9470   40.2889    0.0000 C   0  0  0  0  0  0  0  0  0  0  0  0
   -8.4595   40.4823    0.0000 C   0  0  0  0  0  0  0  0  0  0  0  0
   -6.9619   40.5655    0.0000 C   0  0  0  0  0  0  0  0  0  0  0  0
   -5.4621   40.5377    0.0000 C   0  0  0  0  0  0  0  0  0  0  0  0
   -3.9685   40.3993    0.0000 C   0  0  0  0  0  0  0  0  0  0  0  0
   -2.4892   40.1510    0.0000 C   0  0  0  0  0  0  0  0  0  0  0  0
   -1.0323   39.7941    0.0000 C   0  0  0  0  0  0  0  0  0  0  0  0
    0.3943   39.3306    0.0000 C   0  0  0  0  0  0  0  0  0  0  0  0
    1.7828   38.7630    0.0000 C   0  0  0  0  0  0  0  0  0  0  0  0
    3.1255   38.0944    0.0000 C   0  0  0  0  0  0  0  0  0  0  0  0
    4.4152   37.3284    0.0000 C   0  0  0  0  0  0  0  0  0  0  0  0
    5.6448   36.4693    0.0000 C   0  0  0  0  0  0  0  0  0  0  0  0
    6.8076   35.5217    0.0000 C   0  0  0  0  0  0  0  0  0  0  0  0
    7.8973   34.4909    0.0000 C   0  0  0  0  0  0  0  0  0  0  0  0
    8.9078   33.3824    0.0000 C   0  0  0  0  0  0  0  0  0  0  0  0
    9.8337   32.2023    0.0000 C   0  0  0  0  0  0  0  0  0  0  0  0
   10.6700   30.9570    0.0000 C   0  0  0  0  0  0  0  0  0  0  0  0
   11.4119   29.6534    0.0000 C   0  0  0  0  0  0  0  0  0  0  0  0
   12.0556   28.2985    0.0000 C   0  0  0  0  0  0  0  0  0  0  0  0
   12.5975   26.8998    0.0000 C   0  0  0  0  0  0  0  0  0  0  0  0
   13.0346   25.4649    0.0000 C   0  0  0  0  0  0  0  0  0  0  0  0
   13.3645   24.0016    0.0000 C   0  0  0  0  0  0  0  0  0  0  0  0
   13.5854   22.5180    0.0000 C   0  0  0  0  0  0  0  0  0  0  0  0
   13.6962   21.0221    0.0000 C   0  0  0  0  0  0  0  0  0  0  0  0
   13.6962   19.5221    0.0000 C   0  0  0  0  0  0  0  0  0  0  0  0
   13.5854   18.0262    0.0000 C   0  0  0  0  0  0  0  0  0  0  0  0
   13.3645   16.5425    0.0000 C   0  0  0  0  0  0  0  0  0  0  0  0
   13.0346   15.0792    0.0000 C   0  0  0  0  0  0  0  0  0  0  0  0
   12.5975   13.6443    0.0000 C   0  0  0  0  0  0  0  0  0  0  0  0
   12.0556   12.2456    0.0000 C   0  0  0  0  0  0  0  0  0  0  0  0
   11.4119   10.8908    0.0000 C   0  0  0  0  0  0  0  0  0  0  0  0
   10.6700    9.5871    0.0000 C   0  0  0  0  0  0  0  0  0  0  0  0
    9.8337    8.3419    0.0000 C   0  0  0  0  0  0  0  0  0  0  0  0
    8.9078    7.1617    0.0000 C   0  0  0  0  0  0  0  0  0  0  0  0
    7.8973    6.0532    0.0000 C   0  0  0  0  0  0  0  0  0  0  0  0
    6.8076    5.0224    0.0000 C   0  0  0  0  0  0  0  0  0  0  0  0
    5.6448    4.0748    0.0000 C   0  0  0  0  0  0  0  0  0  0  0  0
    4.4152    3.2157    0.0000 C   0  0  0  0  0  0  0  0  0  0  0  0
    3.1255    2.4497    0.0000 C   0  0  0  0  0  0  0  0  0  0  0  0
    1.7828    1.7811    0.0000 C   0  0  0  0  0  0  0  0  0  0  0  0
    0.3943    1.2135    0.0000 C   0  0  0  0  0  0  0  0  0  0  0  0
    1.2760    0.0000    0.0000 C   0  0  0  0  0  0  0  0  0  0  0  0
    0.3943   -1.2135    0.0000 C   0  0  0  0  0  0  0  0  0  0  0  0
   -1.0323   -0.7500    0.0000 C   0  0  0  0  0  0  0  0  0  0  0  0
   -1.0323    0.7500    0.0000 C   0  0  0  0  0  0  0  0  0  0  0  0
  1  2  1  0
  2  3  1  0
  3  4  1  0
  4  5  1  0
  5  6  1  0
  6  7  1  0
  7  8  1  0
  8  9  1  0
  9 10  1  0
 10 11  1  0
 11 12  1  0
 12 13  1  0
 13 14  1  0
 14 15  1  0
 15 16  1  0
 16 17  1  0
 17 18  1  0
 18 19  1  0
 19 20  1  0
 20 21  1  0
 21 22  1  0
 22 23  1  0
 23 24  1  0
 24 25  1  0
 25 26  1  0
 26 27  1  0
 27 28  1  0
 28 29  1  0
 29 30  1  0
 30 31  1  0
 31 32  1  0
 32 33  1  0
 33 34  1  0
 34 35  1  0
 35 36  1  0
 36 37  1  0
 37 38  1  0
 38 39  1  0
 39 40  1  0
 40 41  1  0
 41 42  1  0
 42 43  1  0
 43 44  1  0
 44 45  1  0
 45 46  1  0
 46 47  1  0
 47 48  1  0
 48 49  1  0
 49 50  1  0
 50 51  1  0
 51 52  1  0
 52 53  1  0
 53 54  1  0
 54 55  1  0
 55 56  1  0
 56 57  1  0
 57 58  1  0
 58 59  1  0
 59 60  1  0
 60 61  1  0
 61 62  1  0
 62 63  1  0
 63 64  1  0
 64 65  1  0
 65 66  1  0
 66 67  1  0
 67 68  1  0
 68 69  1  0
 69 70  1  0
 70 71  1  0
 71 72  1  0
 72 73  1  0
 73 74  1  0
 74 75  2  0
 75 76  1  0
 76 77  2  0
 77 78  1  0
 78 79  2  0
 79 80  1  0
 80 81  2  0
 81 82  1  0
 82 83  2  0
 83 84  1  0
 84 85  2  0
 85 86  1  0
 86 87  2  0
 87 88  1  0
 88 89  2  0
 89  2  1  0
 89 85  1  0
M  END
>  <Title>  (348) 
idAALLgen10

$$$$

     RDKit          2D

 77 77  0  0  0  0  0  0  0  0999 V2000
   20.9102   -0.0000    0.0000 C   0  0  0  0  0  0  0  0  0  0  0  0
   19.4102    0.0000    0.0000 C   0  0  0  0  0  0  0  0  0  0  0  0
   17.9102    0.0000    0.0000 C   0  0  0  0  0  0  0  0  0  0  0  0
   17.8474    1.4987    0.0000 C   0  0  0  0  0  0  0  0  0  0  0  0
   17.6594    2.9869    0.0000 C   0  0  0  0  0  0  0  0  0  0  0  0
   17.3475    4.4541    0.0000 C   0  0  0  0  0  0  0  0  0  0  0  0
   16.9139    5.8901    0.0000 C   0  0  0  0  0  0  0  0  0  0  0  0
   16.3618    7.2847    0.0000 C   0  0  0  0  0  0  0  0  0  0  0  0
   15.6948    8.6283    0.0000 C   0  0  0  0  0  0  0  0  0  0  0  0
   14.9178    9.9113    0.0000 C   0  0  0  0  0  0  0  0  0  0  0  0
   14.0361   11.1249    0.0000 C   0  0  0  0  0  0  0  0  0  0  0  0
   13.0560   12.2604    0.0000 C   0  0  0  0  0  0  0  0  0  0  0  0
   11.9842   13.3098    0.0000 C   0  0  0  0  0  0  0  0  0  0  0  0
   10.8285   14.2660    0.0000 C   0  0  0  0  0  0  0  0  0  0  0  0
    9.5967   15.1221    0.0000 C   0  0  0  0  0  0  0  0  0  0  0  0
    8.2977   15.8721    0.0000 C   0  0  0  0  0  0  0  0  0  0  0  0
    6.9405   16.5107    0.0000 C   0  0  0  0  0  0  0  0  0  0  0  0
    5.5345   17.0336    0.0000 C   0  0  0  0  0  0  0  0  0  0  0  0
    4.0898   17.4370    0.0000 C   0  0  0  0  0  0  0  0  0  0  0  0
    2.6164   17.7180    0.0000 C   0  0  0  0  0  0  0  0  0  0  0  0
    1.1246   17.8748    0.0000 C   0  0  0  0  0  0  0  0  0  0  0  0
   -0.3751   17.9062    0.0000 C   0  0  0  0  0  0  0  0  0  0  0  0
   -1.8721   17.8121    0.0000 C   0  0  0  0  0  0  0  0  0  0  0  0
   -3.3560   17.5929    0.0000 C   0  0  0  0  0  0  0  0  0  0  0  0
   -4.8164   17.2504    0.0000 C   0  0  0  0  0  0  0  0  0  0  0  0
   -6.2430   16.7869    0.0000 C   0  0  0  0  0  0  0  0  0  0  0  0
   -7.6258   16.2056    0.0000 C   0  0  0  0  0  0  0  0  0  0  0  0
   -8.9551   15.5107    0.0000 C   0  0  0  0  0  0  0  0  0  0  0  0
  -10.2216   14.7069    0.0000 C   0  0  0  0  0  0  0  0  0  0  0  0
  -11.4164   13.8000    0.0000 C   0  0  0  0  0  0  0  0  0  0  0  0
  -12.5311   12.7963    0.0000 C   0  0  0  0  0  0  0  0  0  0  0  0
  -13.5579   11.7029    0.0000 C   0  0  0  0  0  0  0  0  0  0  0  0
  -14.4896   10.5273    0.0000 C   0  0  0  0  0  0  0  0  0  0  0  0
  -15.3197    9.2780    0.0000 C   0  0  0  0  0  0  0  0  0  0  0  0
  -16.0423    7.9635    0.0000 C   0  0  0  0  0  0  0  0  0  0  0  0
  -16.6525    6.5932    0.0000 C   0  0  0  0  0  0  0  0  0  0  0  0
  -17.1458    5.1766    0.0000 C   0  0  0  0  0  0  0  0  0  0  0  0
  -17.5188    3.7237    0.0000 C   0  0  0  0  0  0  0  0  0  0  0  0
  -17.7689    2.2447    0.0000 C   0  0  0  0  0  0  0  0  0  0  0  0
  -17.8945    0.7500    0.0000 C   0  0  0  0  0  0  0  0  0  0  0  0
  -17.8945   -0.7500    0.0000 C   0  0  0  0  0  0  0  0  0  0  0  0
  -17.7689   -2.2447    0.0000 C   0  0  0  0  0  0  0  0  0  0  0  0
  -17.5188   -3.7237    0.0000 C   0  0  0  0  0  0  0  0  0  0  0  0
  -17.1458   -5.1766    0.0000 C   0  0  0  0  0  0  0  0  0  0  0  0
  -16.6525   -6.5932    0.0000 C   0  0  0  0  0  0  0  0  0  0  0  0
  -16.0423   -7.9635    0.0000 C   0  0  0  0  0  0  0  0  0  0  0  0
  -15.3197   -9.2780    0.0000 C   0  0  0  0  0  0  0  0  0  0  0  0
  -14.4896  -10.5273    0.0000 C   0  0  0  0  0  0  0  0  0  0  0  0
  -13.5579  -11.7029    0.0000 C   0  0  0  0  0  0  0  0  0  0  0  0
  -12.5311  -12.7963    0.0000 C   0  0  0  0  0  0  0  0  0  0  0  0
  -11.4164  -13.8000    0.0000 C   0  0  0  0  0  0  0  0  0  0  0  0
  -10.2216  -14.7069    0.0000 C   0  0  0  0  0  0  0  0  0  0  0  0
   -8.9551  -15.5107    0.0000 C   0  0  0  0  0  0  0  0  0  0  0  0
   -7.6258  -16.2056    0.0000 C   0  0  0  0  0  0  0  0  0  0  0  0
   -6.2430  -16.7869    0.0000 C   0  0  0  0  0  0  0  0  0  0  0  0
   -4.8164  -17.2504    0.0000 C   0  0  0  0  0  0  0  0  0  0  0  0
   -3.3560  -17.5929    0.0000 C   0  0  0  0  0  0  0  0  0  0  0  0
   -1.8721  -17.8121    0.0000 C   0  0  0  0  0  0  0  0  0  0  0  0
   -0.3751  -17.9062    0.0000 C   0  0  0  0  0  0  0  0  0  0  0  0
    1.1246  -17.8748    0.0000 C   0  0  0  0  0  0  0  0  0  0  0  0
    2.6164  -17.7180    0.0000 C   0  0  0  0  0  0  0  0  0  0  0  0
    4.0898  -17.4370    0.0000 C   0  0  0  0  0  0  0  0  0  0  0  0
    5.5345  -17.0336    0.0000 C   0  0  0  0  0  0  0  0  0  0  0  0
    6.9405  -16.5107    0.0000 C   0  0  0  0  0  0  0  0  0  0  0  0
    8.2977  -15.8721    0.0000 C   0  0  0  0  0  0  0  0  0  0  0  0
    9.5967  -15.1221    0.0000 C   0  0  0  0  0  0  0  0  0  0  0  0
   10.8285  -14.2660    0.0000 C   0  0  0  0  0  0  0  0  0  0  0  0
   11.9842  -13.3098    0.0000 C   0  0  0  0  0  0  0  0  0  0  0  0
   13.0560  -12.2604    0.0000 C   0  0  0  0  0  0  0  0  0  0  0  0
   14.0361  -11.1249    0.0000 C   0  0  0  0  0  0  0  0  0  0  0  0
   14.9178   -9.9113    0.0000 C   0  0  0  0  0  0  0  0  0  0  0  0
   15.6948   -8.6283    0.0000 C   0  0  0  0  0  0  0  0  0  0  0  0
   16.3618   -7.2847    0.0000 C   0  0  0  0  0  0  0  0  0  0  0  0
   16.9139   -5.8901    0.0000 C   0  0  0  0  0  0  0  0  0  0  0  0
   17.3475   -4.4541    0.0000 C   0  0  0  0  0  0  0  0  0  0  0  0
   17.6594   -2.9869    0.0000 C   0  0  0  0  0  0  0  0  0  0  0  0
   17.8474   -1.4987    0.0000 C   0  0  0  0  0  0  0  0  0  0  0  0
  1  2  3  0
  2  3  1  0
  3  4  1  0
  4  5  1  0
  5  6  1  0
  6  7  1  0
  7  8  1  0
  8  9  1  0
  9 10  1  0
 10 11  1  0
 11 12  1  0
 12 13  1  0
 13 14  1  0
 14 15  1  0
 15 16  1  0
 16 17  1  0
 17 18  1  0
 18 19  1  0
 19 20  1  0
 20 21  1  0
 21 22  1  0
 22 23  1  0
 23 24  1  0
 24 25  1  0
 25 26  1  0
 26 27  1  0
 27 28  1  0
 28 29  1  0
 29 30  1  0
 30 31  1  0
 31 32  1  0
 32 33  1  0
 33 34  1  0
 34 35  1  0
 35 36  1  0
 36 37  1  0
 37 38  1  0
 38 39  1  0
 39 40  1  0
 40 41  1  0
 41 42  1  0
 42 43  1  0
 43 44  1  0
 44 45  1  0
 45 46  1  0
 46 47  1  0
 47 48  1  0
 48 49  1  0
 49 50  1  0
 50 51  1  0
 51 52  1  0
 52 53  1  0
 53 54  1  0
 54 55  1  0
 55 56  1  0
 56 57  1  0
 57 58  1  0
 58 59  1  0
 59 60  1  0
 60 61  1  0
 61 62  1  0
 62 63  1  0
 63 64  1  0
 64 65  1  0
 65 66  1  0
 66 67  1  0
 67 68  1  0
 68 69  1  0
 69 70  1  0
 70 71  1  0
 71 72  1  0
 72 73  1  0
 73 74  1  0
 74 75  1  0
 75 76  1  0
 76 77  1  0
 77  3  1  0
M  END
>  <Title>  (349) 
idAALMgen10

$$$$

     RDKit          2D

 12 12  0  0  0  0  0  0  0  0999 V2000
    6.7500   -3.8971    0.0000 C   0  0  0  0  0  0  0  0  0  0  0  0
    5.2500   -3.8971    0.0000 C   0  0  0  0  0  0  0  0  0  0  0  0
    4.5000   -2.5981    0.0000 C   0  0  0  0  0  0  0  0  0  0  0  0
    3.7500   -1.2990    0.0000 C   0  0  0  0  0  0  0  0  0  0  0  0
    3.0000    0.0000    0.0000 C   0  0  0  0  0  0  0  0  0  0  0  0
    3.7500    1.2990    0.0000 O   0  0  0  0  0  0  0  0  0  0  0  0
    1.5000    0.0000    0.0000 C   0  0  0  0  0  0  0  0  0  0  0  0
    0.7500   -1.2990    0.0000 C   0  0  0  0  0  0  0  0  0  0  0  0
   -0.7500   -1.2990    0.0000 C   0  0  0  0  0  0  0  0  0  0  0  0
   -1.5000    0.0000    0.0000 C   0  0  0  0  0  0  0  0  0  0  0  0
   -0.7500    1.2990    0.0000 C   0  0  0  0  0  0  0  0  0  0  0  0
    0.7500    1.2990    0.0000 C   0  0  0  0  0  0  0  0  0  0  0  0
  1  2  2  0
  2  3  1  0
  3  4  3  0
  4  5  1  0
  5  6  2  0
  5  7  1  0
  7  8  2  0
  8  9  1  0
  9 10  2  0
 10 11  1  0
 11 12  2  0
 12  7  1  0
M  END
>  <Title>  (350) 
idAALNgen10

$$$$

     RDKit          2D

 11 12  0  0  0  0  0  0  0  0999 V2000
   -3.0000   -2.5981    0.0000 C   0  0  0  0  0  0  0  0  0  0  0  0
   -1.5000   -2.5981    0.0000 C   0  0  0  0  0  0  0  0  0  0  0  0
   -0.7500   -3.8971    0.0000 C   0  0  0  0  0  0  0  0  0  0  0  0
    0.7500   -3.8971    0.0000 C   0  0  0  0  0  0  0  0  0  0  0  0
    1.5000   -2.5981    0.0000 C   0  0  0  0  0  0  0  0  0  0  0  0
    0.7500   -1.2990    0.0000 C   0  0  0  0  0  0  0  0  0  0  0  0
    1.5000    0.0000    0.0000 C   0  0  0  0  0  0  0  0  0  0  0  0
    0.7500    1.2990    0.0000 C   0  0  0  0  0  0  0  0  0  0  0  0
   -0.7500    1.2990    0.0000 C   0  0  0  0  0  0  0  0  0  0  0  0
   -1.5000    0.0000    0.0000 C   0  0  0  0  0  0  0  0  0  0  0  0
   -0.7500   -1.2990    0.0000 C   0  0  0  0  0  0  0  0  0  0  0  0
  1  2  1  0
  2  3  1  0
  3  4  1  0
  4  5  1  0
  5  6  1  0
  6  7  2  0
  7  8  1  0
  8  9  2  0
  9 10  1  0
 10 11  2  0
 11  2  1  0
 11  6  1  0
M  END
>  <Title>  (351) 
idAALOgen10

$$$$

     RDKit          2D

 53 61  0  0  0  0  0  0  0  0999 V2000
    6.2168   -5.0497    0.0000 C   0  0  0  0  0  0  0  0  0  0  0  0
    4.7353   -5.2844    0.0000 C   0  0  0  0  0  0  0  0  0  0  0  0
    4.2718   -3.8578    0.0000 N   0  0  0  0  0  0  0  0  0  0  0  0
    3.3901   -2.6442    0.0000 N   0  0  0  0  0  0  0  0  0  0  0  0
    2.1766   -1.7626    0.0000 N   0  0  0  0  0  0  0  0  0  0  0  0
    0.7500   -1.2990    0.0000 N   0  0  0  0  0  0  0  0  0  0  0  0
    1.5000    0.0000    0.0000 C   0  0  0  0  0  0  0  0  0  0  0  0
    0.7500    1.2990    0.0000 C   0  0  0  0  0  0  0  0  0  0  0  0
   -0.7500    1.2990    0.0000 C   0  0  0  0  0  0  0  0  0  0  0  0
   -1.5000    0.0000    0.0000 C   0  0  0  0  0  0  0  0  0  0  0  0
   -0.7500   -1.2990    0.0000 C   0  0  0  0  0  0  0  0  0  0  0  0
   -2.1766   -1.7626    0.0000 C   0  0  0  0  0  0  0  0  0  0  0  0
   -2.3334   -0.2708    0.0000 C   0  0  0  0  0  0  0  0  0  0  0  0
   -3.7037    0.3393    0.0000 C   0  0  0  0  0  0  0  0  0  0  0  0
   -4.9172   -0.5424    0.0000 C   0  0  0  0  0  0  0  0  0  0  0  0
   -4.7604   -2.0341    0.0000 C   0  0  0  0  0  0  0  0  0  0  0  0
   -3.3901   -2.6442    0.0000 C   0  0  0  0  0  0  0  0  0  0  0  0
   -4.2718   -3.8578    0.0000 C   0  0  0  0  0  0  0  0  0  0  0  0
   -5.2755   -2.7430    0.0000 C   0  0  0  0  0  0  0  0  0  0  0  0
   -6.7427   -3.0549    0.0000 C   0  0  0  0  0  0  0  0  0  0  0  0
   -7.2062   -4.4815    0.0000 C   0  0  0  0  0  0  0  0  0  0  0  0
   -6.2025   -5.5962    0.0000 C   0  0  0  0  0  0  0  0  0  0  0  0
   -4.7353   -5.2844    0.0000 C   0  0  0  0  0  0  0  0  0  0  0  0
   -4.7353   -6.7844    0.0000 C   0  0  0  0  0  0  0  0  0  0  0  0
   -6.2025   -6.4725    0.0000 C   0  0  0  0  0  0  0  0  0  0  0  0
   -7.2062   -7.5872    0.0000 C   0  0  0  0  0  0  0  0  0  0  0  0
   -6.7427   -9.0138    0.0000 C   0  0  0  0  0  0  0  0  0  0  0  0
   -5.2755   -9.3257    0.0000 C   0  0  0  0  0  0  0  0  0  0  0  0
   -4.2718   -8.2109    0.0000 C   0  0  0  0  0  0  0  0  0  0  0  0
   -3.3901   -9.4245    0.0000 C   0  0  0  0  0  0  0  0  0  0  0  0
   -4.7604  -10.0346    0.0000 C   0  0  0  0  0  0  0  0  0  0  0  0
   -4.9172  -11.5263    0.0000 C   0  0  0  0  0  0  0  0  0  0  0  0
   -3.7037  -12.4080    0.0000 C   0  0  0  0  0  0  0  0  0  0  0  0
   -2.3334  -11.7979    0.0000 C   0  0  0  0  0  0  0  0  0  0  0  0
   -2.1766  -10.3061    0.0000 C   0  0  0  0  0  0  0  0  0  0  0  0
   -0.7500  -10.7697    0.0000 C   0  0  0  0  0  0  0  0  0  0  0  0
   -1.5000  -12.0687    0.0000 C   0  0  0  0  0  0  0  0  0  0  0  0
   -0.7500  -13.3677    0.0000 C   0  0  0  0  0  0  0  0  0  0  0  0
    0.7500  -13.3677    0.0000 C   0  0  0  0  0  0  0  0  0  0  0  0
    1.5000  -12.0687    0.0000 C   0  0  0  0  0  0  0  0  0  0  0  0
    0.7500  -10.7697    0.0000 C   0  0  0  0  0  0  0  0  0  0  0  0
    2.1766  -10.3061    0.0000 C   0  0  0  0  0  0  0  0  0  0  0  0
    2.3334  -11.7979    0.0000 C   0  0  0  0  0  0  0  0  0  0  0  0
    3.7037  -12.4080    0.0000 C   0  0  0  0  0  0  0  0  0  0  0  0
    4.9172  -11.5263    0.0000 C   0  0  0  0  0  0  0  0  0  0  0  0
    4.7604  -10.0346    0.0000 C   0  0  0  0  0  0  0  0  0  0  0  0
    3.3901   -9.4245    0.0000 C   0  0  0  0  0  0  0  0  0  0  0  0
    4.2718   -8.2109    0.0000 C   0  0  0  0  0  0  0  0  0  0  0  0
    5.2755   -9.3257    0.0000 C   0  0  0  0  0  0  0  0  0  0  0  0
    6.7427   -9.0138    0.0000 C   0  0  0  0  0  0  0  0  0  0  0  0
    7.2062   -7.5872    0.0000 C   0  0  0  0  0  0  0  0  0  0  0  0
    6.2025   -6.4725    0.0000 C   0  0  0  0  0  0  0  0  0  0  0  0
    4.7353   -6.7844    0.0000 C   0  0  0  0  0  0  0  0  0  0  0  0
  1  2  1  0
  2  3  2  0
  3  4  1  0
  4  5  2  0
  5  6  1  0
  6  7  1  0
  7  8  1  0
  8  9  2  0
  9 10  1  0
 10 11  2  0
 11 12  1  0
 12 13  2  0
 13 14  1  0
 14 15  2  0
 15 16  1  0
 16 17  2  0
 17 18  1  0
 18 19  2  0
 19 20  1  0
 20 21  2  0
 21 22  1  0
 22 23  2  0
 23 24  1  0
 24 25  2  0
 25 26  1  0
 26 27  2  0
 27 28  1  0
 28 29  2  0
 29 30  1  0
 30 31  2  0
 31 32  1  0
 32 33  2  0
 33 34  1  0
 34 35  2  0
 35 36  1  0
 36 37  2  0
 37 38  1  0
 38 39  2  0
 39 40  1  0
 40 41  2  0
 41 42  1  0
 42 43  2  0
 43 44  1  0
 44 45  2  0
 45 46  1  0
 46 47  2  0
 47 48  1  0
 48 49  2  0
 49 50  1  0
 50 51  2  0
 51 52  1  0
 52 53  2  0
 53  2  1  0
 11  6  1  0
 17 12  1  0
 23 18  1  0
 29 24  1  0
 35 30  1  0
 41 36  1  0
 47 42  1  0
 53 48  1  0
M  END
>  <Title>  (352) 
idAALPgen10

$$$$

     RDKit          2D

 58 59  0  0  0  0  0  0  0  0999 V2000
   -2.0959   -2.5137    0.0000 C   0  0  0  0  0  0  0  0  0  0  0  0
   -2.2998   -1.0276    0.0000 C   0  0  0  0  0  0  0  0  0  0  0  0
   -2.5037    0.4585    0.0000 C   0  0  0  0  0  0  0  0  0  0  0  0
   -3.9992    0.3430    0.0000 C   0  0  0  0  0  0  0  0  0  0  0  0
   -5.4979    0.4052    0.0000 C   0  0  0  0  0  0  0  0  0  0  0  0
   -6.9788    0.6442    0.0000 C   0  0  0  0  0  0  0  0  0  0  0  0
   -8.4209    1.0568    0.0000 C   0  0  0  0  0  0  0  0  0  0  0  0
   -9.8042    1.6369    0.0000 C   0  0  0  0  0  0  0  0  0  0  0  0
  -11.1091    2.3766    0.0000 C   0  0  0  0  0  0  0  0  0  0  0  0
  -12.3174    3.2655    0.0000 C   0  0  0  0  0  0  0  0  0  0  0  0
  -13.4121    4.2910    0.0000 C   0  0  0  0  0  0  0  0  0  0  0  0
  -14.3778    5.4388    0.0000 C   0  0  0  0  0  0  0  0  0  0  0  0
  -15.2009    6.6928    0.0000 C   0  0  0  0  0  0  0  0  0  0  0  0
  -15.8700    8.0353    0.0000 C   0  0  0  0  0  0  0  0  0  0  0  0
  -16.3756    9.4475    0.0000 C   0  0  0  0  0  0  0  0  0  0  0  0
  -16.7106   10.9096    0.0000 C   0  0  0  0  0  0  0  0  0  0  0  0
  -16.8703   12.4011    0.0000 C   0  0  0  0  0  0  0  0  0  0  0  0
  -16.8526   13.9010    0.0000 C   0  0  0  0  0  0  0  0  0  0  0  0
  -16.6575   15.3882    0.0000 C   0  0  0  0  0  0  0  0  0  0  0  0
  -16.2879   16.8420    0.0000 C   0  0  0  0  0  0  0  0  0  0  0  0
  -15.7490   18.2418    0.0000 C   0  0  0  0  0  0  0  0  0  0  0  0
  -15.0483   19.5681    0.0000 C   0  0  0  0  0  0  0  0  0  0  0  0
  -14.1956   20.8022    0.0000 C   0  0  0  0  0  0  0  0  0  0  0  0
  -13.2030   21.9268    0.0000 C   0  0  0  0  0  0  0  0  0  0  0  0
  -12.0843   22.9261    0.0000 C   0  0  0  0  0  0  0  0  0  0  0  0
  -10.8553   23.7860    0.0000 C   0  0  0  0  0  0  0  0  0  0  0  0
   -9.5332   24.4946    0.0000 C   0  0  0  0  0  0  0  0  0  0  0  0
   -8.1366   25.0418    0.0000 C   0  0  0  0  0  0  0  0  0  0  0  0
   -6.6850   25.4200    0.0000 C   0  0  0  0  0  0  0  0  0  0  0  0
   -5.1990   25.6239    0.0000 C   0  0  0  0  0  0  0  0  0  0  0  0
   -3.6992   25.6505    0.0000 C   0  0  0  0  0  0  0  0  0  0  0  0
   -2.2068   25.4996    0.0000 C   0  0  0  0  0  0  0  0  0  0  0  0
   -0.7427   25.1733    0.0000 C   0  0  0  0  0  0  0  0  0  0  0  0
    0.6725   24.6761    0.0000 C   0  0  0  0  0  0  0  0  0  0  0  0
    2.0189   24.0150    0.0000 C   0  0  0  0  0  0  0  0  0  0  0  0
    3.2777   23.1993    0.0000 C   0  0  0  0  0  0  0  0  0  0  0  0
    4.4312   22.2404    0.0000 C   0  0  0  0  0  0  0  0  0  0  0  0
    5.4632   21.1518    0.0000 C   0  0  0  0  0  0  0  0  0  0  0  0
    6.3592   19.9488    0.0000 C   0  0  0  0  0  0  0  0  0  0  0  0
    7.1067   18.6483    0.0000 C   0  0  0  0  0  0  0  0  0  0  0  0
    7.6950   17.2685    0.0000 C   0  0  0  0  0  0  0  0  0  0  0  0
    8.1161   15.8288    0.0000 C   0  0  0  0  0  0  0  0  0  0  0  0
    8.3639   14.3494    0.0000 C   0  0  0  0  0  0  0  0  0  0  0  0
    8.4350   12.8511    0.0000 C   0  0  0  0  0  0  0  0  0  0  0  0
    8.3284   11.3549    0.0000 C   0  0  0  0  0  0  0  0  0  0  0  0
    8.0456    9.8818    0.0000 C   0  0  0  0  0  0  0  0  0  0  0  0
    7.5905    8.4525    0.0000 C   0  0  0  0  0  0  0  0  0  0  0  0
    6.9696    7.0871    0.0000 C   0  0  0  0  0  0  0  0  0  0  0  0
    6.1915    5.8046    0.0000 C   0  0  0  0  0  0  0  0  0  0  0  0
    5.2673    4.6232    0.0000 C   0  0  0  0  0  0  0  0  0  0  0  0
    4.2098    3.5594    0.0000 C   0  0  0  0  0  0  0  0  0  0  0  0
    3.0338    2.6282    0.0000 C   0  0  0  0  0  0  0  0  0  0  0  0
    1.7560    1.8425    0.0000 C   0  0  0  0  0  0  0  0  0  0  0  0
    0.3943    1.2135    0.0000 C   0  0  0  0  0  0  0  0  0  0  0  0
    1.2760    0.0000    0.0000 C   0  0  0  0  0  0  0  0  0  0  0  0
    0.3943   -1.2135    0.0000 C   0  0  0  0  0  0  0  0  0  0  0  0
   -1.0323   -0.7500    0.0000 C   0  0  0  0  0  0  0  0  0  0  0  0
   -1.0323    0.7500    0.0000 C   0  0  0  0  0  0  0  0  0  0  0  0
  1  2  3  0
  2  3  1  0
  3  4  1  0
  4  5  1  0
  5  6  1  0
  6  7  1  0
  7  8  1  0
  8  9  1  0
  9 10  1  0
 10 11  1  0
 11 12  1  0
 12 13  1  0
 13 14  1  0
 14 15  1  0
 15 16  1  0
 16 17  1  0
 17 18  1  0
 18 19  1  0
 19 20  1  0
 20 21  1  0
 21 22  1  0
 22 23  1  0
 23 24  1  0
 24 25  1  0
 25 26  1  0
 26 27  1  0
 27 28  1  0
 28 29  1  0
 29 30  1  0
 30 31  1  0
 31 32  1  0
 32 33  1  0
 33 34  1  0
 34 35  1  0
 35 36  1  0
 36 37  1  0
 37 38  1  0
 38 39  1  0
 39 40  1  0
 40 41  1  0
 41 42  2  0
 42 43  1  0
 43 44  2  0
 44 45  1  0
 45 46  2  0
 46 47  1  0
 47 48  2  0
 48 49  1  0
 49 50  2  0
 50 51  1  0
 51 52  2  0
 52 53  1  0
 53 54  2  0
 54 55  1  0
 55 56  2  0
 56 57  1  0
 57 58  2  0
 58  3  1  0
 58 54  1  0
M  END
>  <Title>  (353) 
idAALQgen10

$$$$

     RDKit          2D

 12 12  0  0  0  0  0  0  0  0999 V2000
    9.3107   -1.2990    0.0000 C   0  0  0  0  0  0  0  0  0  0  0  0
    7.8107   -1.2990    0.0000 C   0  0  0  0  0  0  0  0  0  0  0  0
    6.3107   -1.2990    0.0000 C   0  0  0  0  0  0  0  0  0  0  0  0
    4.8107   -1.2990    0.0000 C   0  0  0  0  0  0  0  0  0  0  0  0
    3.3107   -1.2990    0.0000 C   0  0  0  0  0  0  0  0  0  0  0  0
    2.5607    0.0000    0.0000 C   0  0  0  0  0  0  0  0  0  0  0  0
    1.0607    0.0000    0.0000 C   0  0  0  0  0  0  0  0  0  0  0  0
   -0.0000   -1.0607    0.0000 C   0  0  0  0  0  0  0  0  0  0  0  0
   -0.0000   -2.5607    0.0000 C   0  0  0  0  0  0  0  0  0  0  0  0
   -0.0000   -4.0607    0.0000 N   0  0  0  0  0  0  0  0  0  0  0  0
   -1.0607    0.0000    0.0000 C   0  0  0  0  0  0  0  0  0  0  0  0
    0.0000    1.0607    0.0000 C   0  0  0  0  0  0  0  0  0  0  0  0
  1  2  3  0
  2  3  1  0
  3  4  3  0
  4  5  1  0
  5  6  2  3
  6  7  1  0
  7  8  2  0
  8  9  1  0
  9 10  3  0
  8 11  1  0
 11 12  2  0
 12  7  1  0
M  END
>  <Title>  (354) 
idAALRgen10

$$$$

     RDKit          2D

 32 36  0  0  0  0  0  0  0  0999 V2000
    2.8202   -6.6535    0.0000 C   0  0  0  0  0  0  0  0  0  0  0  0
    2.4320   -8.1023    0.0000 C   0  0  0  0  0  0  0  0  0  0  0  0
    2.0438   -9.5512    0.0000 C   0  0  0  0  0  0  0  0  0  0  0  0
    3.1044  -10.6119    0.0000 C   0  0  0  0  0  0  0  0  0  0  0  0
    2.7162  -12.0608    0.0000 C   0  0  0  0  0  0  0  0  0  0  0  0
    1.2673  -12.4490    0.0000 C   0  0  0  0  0  0  0  0  0  0  0  0
    0.2066  -11.3883    0.0000 C   0  0  0  0  0  0  0  0  0  0  0  0
    0.5949   -9.9395    0.0000 C   0  0  0  0  0  0  0  0  0  0  0  0
   -0.4658   -8.8788    0.0000 C   0  0  0  0  0  0  0  0  0  0  0  0
   -1.9147   -9.2670    0.0000 O   0  0  0  0  0  0  0  0  0  0  0  0
   -0.0776   -7.4299    0.0000 N   0  0  0  0  0  0  0  0  0  0  0  0
   -1.1382   -6.3692    0.0000 C   0  0  0  0  0  0  0  0  0  0  0  0
   -2.5871   -6.7575    0.0000 N   0  0  0  0  0  0  0  0  0  0  0  0
   -3.6478   -5.6968    0.0000 N   0  0  0  0  0  0  0  0  0  0  0  0
   -3.2595   -4.2479    0.0000 N   0  0  0  0  0  0  0  0  0  0  0  0
   -1.8107   -3.8597    0.0000 N   0  0  0  0  0  0  0  0  0  0  0  0
   -1.8107   -2.3597    0.0000 C   0  0  0  0  0  0  0  0  0  0  0  0
   -2.0711   -0.8825    0.0000 C   0  0  0  0  0  0  0  0  0  0  0  0
   -1.3211    0.4166    0.0000 C   0  0  0  0  0  0  0  0  0  0  0  0
    0.0884    0.9296    0.0000 C   0  0  0  0  0  0  0  0  0  0  0  0
    1.4979    0.4166    0.0000 C   0  0  0  0  0  0  0  0  0  0  0  0
    2.2479   -0.8825    0.0000 O   0  0  0  0  0  0  0  0  0  0  0  0
    1.8107   -2.3597    0.0000 C   0  0  0  0  0  0  0  0  0  0  0  0
    1.8107   -3.8597    0.0000 C   0  0  0  0  0  0  0  0  0  0  0  0
    0.7500   -4.9204    0.0000 C   0  0  0  0  0  0  0  0  0  0  0  0
   -0.7500   -4.9204    0.0000 C   0  0  0  0  0  0  0  0  0  0  0  0
    0.7500   -1.2990    0.0000 C   0  0  0  0  0  0  0  0  0  0  0  0
    0.2930   -1.2377    0.0000 C   0  0  0  0  0  0  0  0  0  0  0  0
    0.5575   -1.2051    0.0000 C   0  0  0  0  0  0  0  0  0  0  0  0
   -0.5575   -1.2051    0.0000 C   0  0  0  0  0  0  0  0  0  0  0  0
   -0.2930   -1.2377    0.0000 C   0  0  0  0  0  0  0  0  0  0  0  0
   -0.7500   -1.2990    0.0000 C   0  0  0  0  0  0  0  0  0  0  0  0
  1  2  3  0
  2  3  1  0
  3  4  2  0
  4  5  1  0
  5  6  2  0
  6  7  1  0
  7  8  2  0
  8  9  1  0
  9 10  2  0
  9 11  1  0
 11 12  1  0
 12 13  2  0
 13 14  1  0
 14 15  2  0
 15 16  1  0
 16 17  1  0
 17 18  2  0
 18 19  1  0
 19 20  2  0
 20 21  1  0
 21 22  1  0
 22 23  1  0
 23 24  2  0
 24 25  1  0
 25 26  2  0
 23 27  1  0
 27 28  2  0
 28 29  1  0
 29 30  2  0
 30 31  1  0
 31 32  2  0
  8  3  1  0
 26 12  1  0
 32 27  1  0
 26 16  1  0
 32 17  1  0
M  END
>  <Title>  (355) 
idAALSgen10

$$$$

     RDKit          2D

  9  9  0  0  0  0  0  0  0  0999 V2000
    4.2760   -2.5981    0.0000 C   0  0  0  0  0  0  0  0  0  0  0  0
    3.5260   -1.2990    0.0000 C   0  0  0  0  0  0  0  0  0  0  0  0
    2.7760    0.0000    0.0000 C   0  0  0  0  0  0  0  0  0  0  0  0
    3.5260    1.2990    0.0000 O   0  0  0  0  0  0  0  0  0  0  0  0
    1.2760    0.0000    0.0000 C   0  0  0  0  0  0  0  0  0  0  0  0
    0.3943    1.2135    0.0000 C   0  0  0  0  0  0  0  0  0  0  0  0
   -1.0323    0.7500    0.0000 C   0  0  0  0  0  0  0  0  0  0  0  0
   -1.0323   -0.7500    0.0000 C   0  0  0  0  0  0  0  0  0  0  0  0
    0.3943   -1.2135    0.0000 C   0  0  0  0  0  0  0  0  0  0  0  0
  1  2  3  0
  2  3  1  0
  3  4  2  0
  3  5  1  0
  5  6  2  0
  6  7  1  0
  7  8  1  0
  8  9  2  0
  9  5  1  0
M  END
>  <Title>  (356) 
idAALTgen10

$$$$

     RDKit          2D

 22 24  0  0  0  0  0  0  0  0999 V2000
   -2.5355    3.0367    0.0000 C   0  0  0  0  0  0  0  0  0  0  0  0
   -1.0355    3.0367    0.0000 C   0  0  0  0  0  0  0  0  0  0  0  0
   -0.3846    4.3881    0.0000 C   0  0  0  0  0  0  0  0  0  0  0  0
    1.0777    4.7219    0.0000 C   0  0  0  0  0  0  0  0  0  0  0  0
    2.2505    3.7867    0.0000 C   0  0  0  0  0  0  0  0  0  0  0  0
    2.2505    2.2867    0.0000 C   0  0  0  0  0  0  0  0  0  0  0  0
    3.6019    1.6359    0.0000 N   0  0  0  0  0  0  0  0  0  0  0  0
    4.8413    2.4808    0.0000 C   0  0  0  0  0  0  0  0  0  0  0  0
    4.7292    3.9766    0.0000 O   0  0  0  0  0  0  0  0  0  0  0  0
    6.1928    1.8300    0.0000 C   0  0  0  0  0  0  0  0  0  0  0  0
    6.3049    0.3342    0.0000 C   0  0  0  0  0  0  0  0  0  0  0  0
    7.6563   -0.3166    0.0000 N   0  0  0  0  0  0  0  0  0  0  0  0
    8.8957    0.5284    0.0000 N   0  0  0  0  0  0  0  0  0  0  0  0
    8.7836    2.0242    0.0000 N   0  0  0  0  0  0  0  0  0  0  0  0
    7.4321    2.6750    0.0000 N   0  0  0  0  0  0  0  0  0  0  0  0
    1.0777    1.3515    0.0000 C   0  0  0  0  0  0  0  0  0  0  0  0
    1.7286    0.0000    0.0000 C   0  0  0  0  0  0  0  0  0  0  0  0
    1.0777   -1.3515    0.0000 C   0  0  0  0  0  0  0  0  0  0  0  0
   -0.3846   -1.6852    0.0000 C   0  0  0  0  0  0  0  0  0  0  0  0
   -1.5574   -0.7500    0.0000 C   0  0  0  0  0  0  0  0  0  0  0  0
   -1.5574    0.7500    0.0000 C   0  0  0  0  0  0  0  0  0  0  0  0
   -0.3846    1.6852    0.0000 C   0  0  0  0  0  0  0  0  0  0  0  0
  1  2  1  0
  2  3  1  0
  3  4  2  0
  4  5  1  0
  5  6  2  0
  6  7  1  0
  7  8  1  0
  8  9  2  0
  8 10  1  0
 10 11  2  0
 11 12  1  0
 12 13  2  0
 13 14  1  0
 14 15  2  0
  6 16  1  0
 16 17  2  0
 17 18  1  0
 18 19  1  0
 19 20  1  0
 20 21  1  0
 21 22  2  0
 22  2  1  0
 15 10  1  0
 22 16  1  0
M  END
>  <Title>  (357) 
idAALUgen10

$$$$

     RDKit          2D

 11 11  0  0  0  0  0  0  0  0999 V2000
    4.5000    2.5981    0.0000 C   0  0  0  0  0  0  0  0  0  0  0  0
    3.7500    1.2990    0.0000 C   0  0  0  0  0  0  0  0  0  0  0  0
    3.0000    0.0000    0.0000 C   0  0  0  0  0  0  0  0  0  0  0  0
    3.7500   -1.2990    0.0000 C   0  0  0  0  0  0  0  0  0  0  0  0
    5.2500   -1.2990    0.0000 C   0  0  0  0  0  0  0  0  0  0  0  0
    1.5000    0.0000    0.0000 C   0  0  0  0  0  0  0  0  0  0  0  0
    0.7500   -1.2990    0.0000 C   0  0  0  0  0  0  0  0  0  0  0  0
   -0.7500   -1.2990    0.0000 C   0  0  0  0  0  0  0  0  0  0  0  0
   -1.5000    0.0000    0.0000 C   0  0  0  0  0  0  0  0  0  0  0  0
   -0.7500    1.2990    0.0000 C   0  0  0  0  0  0  0  0  0  0  0  0
    0.7500    1.2990    0.0000 C   0  0  0  0  0  0  0  0  0  0  0  0
  1  2  3  0
  2  3  1  0
  3  4  1  0
  4  5  1  0
  3  6  1  0
  6  7  2  0
  7  8  1  0
  8  9  2  0
  9 10  1  0
 10 11  2  0
 11  6  1  0
M  END
>  <Title>  (358) 
idAALVgen10

$$$$

     RDKit          2D

114115  0  0  0  0  0  0  0  0999 V2000
   -2.3770    0.1089    0.0000 C   0  0  0  0  0  0  0  0  0  0  0  0
   -2.2475   -1.3855    0.0000 C   0  0  0  0  0  0  0  0  0  0  0  0
   -3.7376   -1.5580    0.0000 C   0  0  0  0  0  0  0  0  0  0  0  0
   -5.2152   -1.8161    0.0000 C   0  0  0  0  0  0  0  0  0  0  0  0
   -6.6755   -2.1589    0.0000 C   0  0  0  0  0  0  0  0  0  0  0  0
   -8.1136   -2.5853    0.0000 C   0  0  0  0  0  0  0  0  0  0  0  0
   -9.5248   -3.0938    0.0000 C   0  0  0  0  0  0  0  0  0  0  0  0
  -10.9043   -3.6828    0.0000 C   0  0  0  0  0  0  0  0  0  0  0  0
  -12.2476   -4.3502    0.0000 C   0  0  0  0  0  0  0  0  0  0  0  0
  -13.5503   -5.0940    0.0000 C   0  0  0  0  0  0  0  0  0  0  0  0
  -14.8079   -5.9116    0.0000 C   0  0  0  0  0  0  0  0  0  0  0  0
  -16.0163   -6.8002    0.0000 C   0  0  0  0  0  0  0  0  0  0  0  0
  -17.1715   -7.7570    0.0000 C   0  0  0  0  0  0  0  0  0  0  0  0
  -18.2697   -8.7788    0.0000 C   0  0  0  0  0  0  0  0  0  0  0  0
  -19.3072   -9.8621    0.0000 C   0  0  0  0  0  0  0  0  0  0  0  0
  -20.2805  -11.0034    0.0000 C   0  0  0  0  0  0  0  0  0  0  0  0
  -21.1865  -12.1989    0.0000 C   0  0  0  0  0  0  0  0  0  0  0  0
  -22.0221  -13.4446    0.0000 C   0  0  0  0  0  0  0  0  0  0  0  0
  -22.7845  -14.7364    0.0000 C   0  0  0  0  0  0  0  0  0  0  0  0
  -23.4713  -16.0699    0.0000 C   0  0  0  0  0  0  0  0  0  0  0  0
  -24.0801  -17.4409    0.0000 C   0  0  0  0  0  0  0  0  0  0  0  0
  -24.6089  -18.8446    0.0000 C   0  0  0  0  0  0  0  0  0  0  0  0
  -25.0559  -20.2764    0.0000 C   0  0  0  0  0  0  0  0  0  0  0  0
  -25.4198  -21.7316    0.0000 C   0  0  0  0  0  0  0  0  0  0  0  0
  -25.6991  -23.2054    0.0000 C   0  0  0  0  0  0  0  0  0  0  0  0
  -25.8931  -24.6928    0.0000 C   0  0  0  0  0  0  0  0  0  0  0  0
  -26.0011  -26.1889    0.0000 C   0  0  0  0  0  0  0  0  0  0  0  0
  -26.0227  -27.6887    0.0000 C   0  0  0  0  0  0  0  0  0  0  0  0
  -25.9579  -29.1873    0.0000 C   0  0  0  0  0  0  0  0  0  0  0  0
  -25.8068  -30.6797    0.0000 C   0  0  0  0  0  0  0  0  0  0  0  0
  -25.5701  -32.1609    0.0000 C   0  0  0  0  0  0  0  0  0  0  0  0
  -25.2483  -33.6260    0.0000 C   0  0  0  0  0  0  0  0  0  0  0  0
  -24.8427  -35.0701    0.0000 C   0  0  0  0  0  0  0  0  0  0  0  0
  -24.3546  -36.4884    0.0000 C   0  0  0  0  0  0  0  0  0  0  0  0
  -23.7856  -37.8763    0.0000 C   0  0  0  0  0  0  0  0  0  0  0  0
  -23.1375  -39.2291    0.0000 C   0  0  0  0  0  0  0  0  0  0  0  0
  -22.4126  -40.5423    0.0000 C   0  0  0  0  0  0  0  0  0  0  0  0
  -21.6133  -41.8116    0.0000 C   0  0  0  0  0  0  0  0  0  0  0  0
  -20.7421  -43.0327    0.0000 C   0  0  0  0  0  0  0  0  0  0  0  0
  -19.8021  -44.2016    0.0000 C   0  0  0  0  0  0  0  0  0  0  0  0
  -18.7962  -45.3144    0.0000 C   0  0  0  0  0  0  0  0  0  0  0  0
  -17.7280  -46.3673    0.0000 C   0  0  0  0  0  0  0  0  0  0  0  0
  -16.6008  -47.3570    0.0000 C   0  0  0  0  0  0  0  0  0  0  0  0
  -15.4185  -48.2802    0.0000 C   0  0  0  0  0  0  0  0  0  0  0  0
  -14.1850  -49.1336    0.0000 C   0  0  0  0  0  0  0  0  0  0  0  0
  -12.9043  -49.9146    0.0000 C   0  0  0  0  0  0  0  0  0  0  0  0
  -11.5808  -50.6205    0.0000 C   0  0  0  0  0  0  0  0  0  0  0  0
  -10.2188  -51.2490    0.0000 C   0  0  0  0  0  0  0  0  0  0  0  0
   -8.8229  -51.7980    0.0000 C   0  0  0  0  0  0  0  0  0  0  0  0
   -7.3976  -52.2656    0.0000 C   0  0  0  0  0  0  0  0  0  0  0  0
   -5.9478  -52.6503    0.0000 C   0  0  0  0  0  0  0  0  0  0  0  0
   -4.4782  -52.9509    0.0000 C   0  0  0  0  0  0  0  0  0  0  0  0
   -2.9938  -53.1663    0.0000 C   0  0  0  0  0  0  0  0  0  0  0  0
   -1.4994  -53.2959    0.0000 C   0  0  0  0  0  0  0  0  0  0  0  0
    0.0000  -53.3391    0.0000 C   0  0  0  0  0  0  0  0  0  0  0  0
    1.4994  -53.2959    0.0000 C   0  0  0  0  0  0  0  0  0  0  0  0
    2.9938  -53.1663    0.0000 C   0  0  0  0  0  0  0  0  0  0  0  0
    4.4782  -52.9509    0.0000 C   0  0  0  0  0  0  0  0  0  0  0  0
    5.9478  -52.6503    0.0000 C   0  0  0  0  0  0  0  0  0  0  0  0
    7.3976  -52.2656    0.0000 C   0  0  0  0  0  0  0  0  0  0  0  0
    8.8229  -51.7980    0.0000 C   0  0  0  0  0  0  0  0  0  0  0  0
   10.2188  -51.2490    0.0000 C   0  0  0  0  0  0  0  0  0  0  0  0
   11.5808  -50.6205    0.0000 C   0  0  0  0  0  0  0  0  0  0  0  0
   12.9043  -49.9146    0.0000 C   0  0  0  0  0  0  0  0  0  0  0  0
   14.1850  -49.1336    0.0000 C   0  0  0  0  0  0  0  0  0  0  0  0
   15.4185  -48.2802    0.0000 C   0  0  0  0  0  0  0  0  0  0  0  0
   16.6008  -47.3570    0.0000 C   0  0  0  0  0  0  0  0  0  0  0  0
   17.7280  -46.3673    0.0000 C   0  0  0  0  0  0  0  0  0  0  0  0
   18.7962  -45.3144    0.0000 C   0  0  0  0  0  0  0  0  0  0  0  0
   19.8021  -44.2016    0.0000 C   0  0  0  0  0  0  0  0  0  0  0  0
   20.7421  -43.0327    0.0000 C   0  0  0  0  0  0  0  0  0  0  0  0
   21.6133  -41.8116    0.0000 C   0  0  0  0  0  0  0  0  0  0  0  0
   22.4126  -40.5423    0.0000 C   0  0  0  0  0  0  0  0  0  0  0  0
   23.1375  -39.2291    0.0000 C   0  0  0  0  0  0  0  0  0  0  0  0
   23.7856  -37.8763    0.0000 C   0  0  0  0  0  0  0  0  0  0  0  0
   24.3546  -36.4884    0.0000 C   0  0  0  0  0  0  0  0  0  0  0  0
   24.8427  -35.0701    0.0000 C   0  0  0  0  0  0  0  0  0  0  0  0
   25.2483  -33.6260    0.0000 C   0  0  0  0  0  0  0  0  0  0  0  0
   25.5701  -32.1609    0.0000 C   0  0  0  0  0  0  0  0  0  0  0  0
   25.8068  -30.6797    0.0000 C   0  0  0  0  0  0  0  0  0  0  0  0
   25.9579  -29.1873    0.0000 C   0  0  0  0  0  0  0  0  0  0  0  0
   26.0227  -27.6887    0.0000 C   0  0  0  0  0  0  0  0  0  0  0  0
   26.0011  -26.1889    0.0000 C   0  0  0  0  0  0  0  0  0  0  0  0
   25.8931  -24.6928    0.0000 C   0  0  0  0  0  0  0  0  0  0  0  0
   25.6991  -23.2054    0.0000 C   0  0  0  0  0  0  0  0  0  0  0  0
   25.4198  -21.7316    0.0000 C   0  0  0  0  0  0  0  0  0  0  0  0
   25.0559  -20.2764    0.0000 C   0  0  0  0  0  0  0  0  0  0  0  0
   24.6089  -18.8446    0.0000 C   0  0  0  0  0  0  0  0  0  0  0  0
   24.0801  -17.4409    0.0000 C   0  0  0  0  0  0  0  0  0  0  0  0
   23.4713  -16.0699    0.0000 C   0  0  0  0  0  0  0  0  0  0  0  0
   22.7845  -14.7364    0.0000 C   0  0  0  0  0  0  0  0  0  0  0  0
   22.0221  -13.4446    0.0000 C   0  0  0  0  0  0  0  0  0  0  0  0
   21.1865  -12.1989    0.0000 C   0  0  0  0  0  0  0  0  0  0  0  0
   20.2805  -11.0034    0.0000 C   0  0  0  0  0  0  0  0  0  0  0  0
   19.3072   -9.8621    0.0000 C   0  0  0  0  0  0  0  0  0  0  0  0
   18.2697   -8.7788    0.0000 C   0  0  0  0  0  0  0  0  0  0  0  0
   17.1715   -7.7570    0.0000 C   0  0  0  0  0  0  0  0  0  0  0  0
   16.0163   -6.8002    0.0000 C   0  0  0  0  0  0  0  0  0  0  0  0
   14.8079   -5.9116    0.0000 C   0  0  0  0  0  0  0  0  0  0  0  0
   13.5503   -5.0940    0.0000 C   0  0  0  0  0  0  0  0  0  0  0  0
   12.2476   -4.3502    0.0000 C   0  0  0  0  0  0  0  0  0  0  0  0
   10.9043   -3.6828    0.0000 C   0  0  0  0  0  0  0  0  0  0  0  0
    9.5248   -3.0938    0.0000 C   0  0  0  0  0  0  0  0  0  0  0  0
    8.1136   -2.5853    0.0000 C   0  0  0  0  0  0  0  0  0  0  0  0
    6.6755   -2.1589    0.0000 C   0  0  0  0  0  0  0  0  0  0  0  0
    5.2152   -1.8161    0.0000 C   0  0  0  0  0  0  0  0  0  0  0  0
    3.7376   -1.5580    0.0000 C   0  0  0  0  0  0  0  0  0  0  0  0
    2.2475   -1.3855    0.0000 C   0  0  0  0  0  0  0  0  0  0  0  0
    0.7500   -1.2990    0.0000 C   0  0  0  0  0  0  0  0  0  0  0  0
    1.5000    0.0000    0.0000 C   0  0  0  0  0  0  0  0  0  0  0  0
    0.7500    1.2990    0.0000 C   0  0  0  0  0  0  0  0  0  0  0  0
   -0.7500    1.2990    0.0000 C   0  0  0  0  0  0  0  0  0  0  0  0
   -1.5000    0.0000    0.0000 C   0  0  0  0  0  0  0  0  0  0  0  0
   -0.7500   -1.2990    0.0000 C   0  0  0  0  0  0  0  0  0  0  0  0
  1  2  1  0
  2  3  1  0
  3  4  1  0
  4  5  1  0
  5  6  1  0
  6  7  1  0
  7  8  1  0
  8  9  1  0
  9 10  1  0
 10 11  1  0
 11 12  1  0
 12 13  1  0
 13 14  1  0
 14 15  1  0
 15 16  1  0
 16 17  1  0
 17 18  1  0
 18 19  1  0
 19 20  1  0
 20 21  1  0
 21 22  1  0
 22 23  1  0
 23 24  1  0
 24 25  1  0
 25 26  1  0
 26 27  1  0
 27 28  1  0
 28 29  1  0
 29 30  1  0
 30 31  1  0
 31 32  1  0
 32 33  1  0
 33 34  1  0
 34 35  1  0
 35 36  1  0
 36 37  1  0
 37 38  1  0
 38 39  1  0
 39 40  1  0
 40 41  1  0
 41 42  1  0
 42 43  1  0
 43 44  1  0
 44 45  1  0
 45 46  1  0
 46 47  1  0
 47 48  1  0
 48 49  1  0
 49 50  1  0
 50 51  1  0
 51 52  1  0
 52 53  1  0
 53 54  1  0
 54 55  1  0
 55 56  1  0
 56 57  1  0
 57 58  1  0
 58 59  1  0
 59 60  1  0
 60 61  1  0
 61 62  1  0
 62 63  1  0
 63 64  1  0
 64 65  1  0
 65 66  1  0
 66 67  1  0
 67 68  1  0
 68 69  1  0
 69 70  1  0
 70 71  1  0
 71 72  1  0
 72 73  1  0
 73 74  1  0
 74 75  1  0
 75 76  1  0
 76 77  1  0
 77 78  1  0
 78 79  1  0
 79 80  1  0
 80 81  1  0
 81 82  1  0
 82 83  1  0
 83 84  1  0
 84 85  1  0
 85 86  1  0
 86 87  1  0
 87 88  1  0
 88 89  1  0
 89 90  1  0
 90 91  1  0
 91 92  1  0
 92 93  1  0
 93 94  1  0
 94 95  1  0
 95 96  1  0
 96 97  1  0
 97 98  1  0
 98 99  1  0
 99100  1  0
100101  1  0
101102  1  0
102103  1  0
103104  1  0
104105  1  0
105106  1  0
106107  1  0
107108  1  0
108109  1  0
109110  2  0
110111  1  0
111112  2  0
112113  1  0
113114  2  0
114  2  1  0
114109  1  0
M  END
>  <Title>  (359) 
idAALWgen10

$$$$

     RDKit          2D

 18 19  0  0  0  0  0  0  0  0999 V2000
    4.5000   -2.5981    0.0000 C   0  0  0  0  0  0  0  0  0  0  0  0
    3.7500   -1.2990    0.0000 C   0  0  0  0  0  0  0  0  0  0  0  0
    3.0000    0.0000    0.0000 C   0  0  0  0  0  0  0  0  0  0  0  0
    3.7500    1.2990    0.0000 O   0  0  0  0  0  0  0  0  0  0  0  0
    1.5000    0.0000    0.0000 C   0  0  0  0  0  0  0  0  0  0  0  0
    0.7500   -1.2990    0.0000 C   0  0  0  0  0  0  0  0  0  0  0  0
   -0.7500   -1.2990    0.0000 C   0  0  0  0  0  0  0  0  0  0  0  0
   -1.5000    0.0000    0.0000 C   0  0  0  0  0  0  0  0  0  0  0  0
   -0.7500    1.2990    0.0000 C   0  0  0  0  0  0  0  0  0  0  0  0
    0.7500    1.2990    0.0000 C   0  0  0  0  0  0  0  0  0  0  0  0
    1.5000    2.5981    0.0000 O   0  0  0  0  0  0  0  0  0  0  0  0
    0.7500    3.8971    0.0000 C   0  0  0  0  0  0  0  0  0  0  0  0
    1.5000    5.1962    0.0000 C   0  0  0  0  0  0  0  0  0  0  0  0
    0.7500    6.4952    0.0000 C   0  0  0  0  0  0  0  0  0  0  0  0
   -0.7418    6.6520    0.0000 C   0  0  0  0  0  0  0  0  0  0  0  0
   -1.0537    8.1192    0.0000 C   0  0  0  0  0  0  0  0  0  0  0  0
    0.2454    8.8692    0.0000 C   0  0  0  0  0  0  0  0  0  0  0  0
    1.3601    7.8655    0.0000 C   0  0  0  0  0  0  0  0  0  0  0  0
  1  2  3  0
  2  3  1  0
  3  4  2  0
  3  5  1  0
  5  6  2  0
  6  7  1  0
  7  8  2  0
  8  9  1  0
  9 10  2  0
 10 11  1  0
 11 12  1  0
 12 13  1  0
 13 14  2  3
 14 15  1  0
 15 16  2  0
 16 17  1  0
 17 18  2  0
 10  5  1  0
 18 14  1  0
M  END
>  <Title>  (360) 
idAALXgen10

$$$$

     RDKit          2D

 90 90  0  0  0  0  0  0  0  0999 V2000
   21.4903    0.0000    0.0000 C   0  0  0  0  0  0  0  0  0  0  0  0
   21.4379   -1.4991    0.0000 C   0  0  0  0  0  0  0  0  0  0  0  0
   21.2811   -2.9909    0.0000 C   0  0  0  0  0  0  0  0  0  0  0  0
   21.0207   -4.4681    0.0000 C   0  0  0  0  0  0  0  0  0  0  0  0
   20.6578   -5.9235    0.0000 C   0  0  0  0  0  0  0  0  0  0  0  0
   20.1943   -7.3501    0.0000 C   0  0  0  0  0  0  0  0  0  0  0  0
   19.6323   -8.7409    0.0000 C   0  0  0  0  0  0  0  0  0  0  0  0
   18.9748  -10.0891    0.0000 C   0  0  0  0  0  0  0  0  0  0  0  0
   18.2248  -11.3881    0.0000 C   0  0  0  0  0  0  0  0  0  0  0  0
   17.3860  -12.6317    0.0000 C   0  0  0  0  0  0  0  0  0  0  0  0
   16.4625  -13.8137    0.0000 C   0  0  0  0  0  0  0  0  0  0  0  0
   15.4588  -14.9284    0.0000 C   0  0  0  0  0  0  0  0  0  0  0  0
   14.3798  -15.9704    0.0000 C   0  0  0  0  0  0  0  0  0  0  0  0
   13.2307  -16.9346    0.0000 C   0  0  0  0  0  0  0  0  0  0  0  0
   12.0172  -17.8163    0.0000 C   0  0  0  0  0  0  0  0  0  0  0  0
   10.7451  -18.6111    0.0000 C   0  0  0  0  0  0  0  0  0  0  0  0
    9.4207  -19.3153    0.0000 C   0  0  0  0  0  0  0  0  0  0  0  0
    8.0504  -19.9254    0.0000 C   0  0  0  0  0  0  0  0  0  0  0  0
    6.6409  -20.4385    0.0000 C   0  0  0  0  0  0  0  0  0  0  0  0
    5.1990  -20.8519    0.0000 C   0  0  0  0  0  0  0  0  0  0  0  0
    3.7317  -21.1638    0.0000 C   0  0  0  0  0  0  0  0  0  0  0  0
    2.2463  -21.3726    0.0000 C   0  0  0  0  0  0  0  0  0  0  0  0
    0.7500  -21.4772    0.0000 C   0  0  0  0  0  0  0  0  0  0  0  0
   -0.7500  -21.4772    0.0000 C   0  0  0  0  0  0  0  0  0  0  0  0
   -2.2463  -21.3726    0.0000 C   0  0  0  0  0  0  0  0  0  0  0  0
   -3.7317  -21.1638    0.0000 C   0  0  0  0  0  0  0  0  0  0  0  0
   -5.1990  -20.8519    0.0000 C   0  0  0  0  0  0  0  0  0  0  0  0
   -6.6409  -20.4385    0.0000 C   0  0  0  0  0  0  0  0  0  0  0  0
   -8.0504  -19.9254    0.0000 C   0  0  0  0  0  0  0  0  0  0  0  0
   -9.4207  -19.3153    0.0000 C   0  0  0  0  0  0  0  0  0  0  0  0
  -10.7451  -18.6111    0.0000 C   0  0  0  0  0  0  0  0  0  0  0  0
  -12.0172  -17.8163    0.0000 C   0  0  0  0  0  0  0  0  0  0  0  0
  -13.2307  -16.9346    0.0000 C   0  0  0  0  0  0  0  0  0  0  0  0
  -14.3798  -15.9704    0.0000 C   0  0  0  0  0  0  0  0  0  0  0  0
  -15.4588  -14.9284    0.0000 C   0  0  0  0  0  0  0  0  0  0  0  0
  -16.4625  -13.8137    0.0000 C   0  0  0  0  0  0  0  0  0  0  0  0
  -17.3860  -12.6317    0.0000 C   0  0  0  0  0  0  0  0  0  0  0  0
  -18.2248  -11.3881    0.0000 C   0  0  0  0  0  0  0  0  0  0  0  0
  -18.9748  -10.0891    0.0000 C   0  0  0  0  0  0  0  0  0  0  0  0
  -19.6323   -8.7409    0.0000 C   0  0  0  0  0  0  0  0  0  0  0  0
  -20.1943   -7.3501    0.0000 C   0  0  0  0  0  0  0  0  0  0  0  0
  -20.6578   -5.9235    0.0000 C   0  0  0  0  0  0  0  0  0  0  0  0
  -21.0207   -4.4681    0.0000 C   0  0  0  0  0  0  0  0  0  0  0  0
  -21.2811   -2.9909    0.0000 C   0  0  0  0  0  0  0  0  0  0  0  0
  -21.4379   -1.4991    0.0000 C   0  0  0  0  0  0  0  0  0  0  0  0
  -21.4903    0.0000    0.0000 C   0  0  0  0  0  0  0  0  0  0  0  0
  -21.4379    1.4991    0.0000 C   0  0  0  0  0  0  0  0  0  0  0  0
  -21.2811    2.9909    0.0000 C   0  0  0  0  0  0  0  0  0  0  0  0
  -21.0207    4.4681    0.0000 C   0  0  0  0  0  0  0  0  0  0  0  0
  -20.6578    5.9235    0.0000 C   0  0  0  0  0  0  0  0  0  0  0  0
  -20.1943    7.3501    0.0000 C   0  0  0  0  0  0  0  0  0  0  0  0
  -19.6323    8.7409    0.0000 C   0  0  0  0  0  0  0  0  0  0  0  0
  -18.9748   10.0891    0.0000 C   0  0  0  0  0  0  0  0  0  0  0  0
  -18.2248   11.3881    0.0000 C   0  0  0  0  0  0  0  0  0  0  0  0
  -17.3860   12.6317    0.0000 C   0  0  0  0  0  0  0  0  0  0  0  0
  -16.4625   13.8137    0.0000 C   0  0  0  0  0  0  0  0  0  0  0  0
  -15.4588   14.9284    0.0000 C   0  0  0  0  0  0  0  0  0  0  0  0
  -14.3798   15.9704    0.0000 C   0  0  0  0  0  0  0  0  0  0  0  0
  -13.2307   16.9346    0.0000 C   0  0  0  0  0  0  0  0  0  0  0  0
  -12.0172   17.8163    0.0000 C   0  0  0  0  0  0  0  0  0  0  0  0
  -10.7451   18.6111    0.0000 C   0  0  0  0  0  0  0  0  0  0  0  0
   -9.4207   19.3153    0.0000 C   0  0  0  0  0  0  0  0  0  0  0  0
   -8.0504   19.9254    0.0000 C   0  0  0  0  0  0  0  0  0  0  0  0
   -6.6409   20.4385    0.0000 C   0  0  0  0  0  0  0  0  0  0  0  0
   -5.1990   20.8519    0.0000 C   0  0  0  0  0  0  0  0  0  0  0  0
   -3.7317   21.1638    0.0000 C   0  0  0  0  0  0  0  0  0  0  0  0
   -2.2463   21.3726    0.0000 C   0  0  0  0  0  0  0  0  0  0  0  0
   -0.7500   21.4772    0.0000 C   0  0  0  0  0  0  0  0  0  0  0  0
    0.7500   21.4772    0.0000 C   0  0  0  0  0  0  0  0  0  0  0  0
    2.2463   21.3726    0.0000 C   0  0  0  0  0  0  0  0  0  0  0  0
    3.7317   21.1638    0.0000 C   0  0  0  0  0  0  0  0  0  0  0  0
    5.1990   20.8519    0.0000 C   0  0  0  0  0  0  0  0  0  0  0  0
    6.6409   20.4385    0.0000 C   0  0  0  0  0  0  0  0  0  0  0  0
    8.0504   19.9254    0.0000 C   0  0  0  0  0  0  0  0  0  0  0  0
    9.4207   19.3153    0.0000 C   0  0  0  0  0  0  0  0  0  0  0  0
   10.7451   18.6111    0.0000 C   0  0  0  0  0  0  0  0  0  0  0  0
   12.0172   17.8163    0.0000 C   0  0  0  0  0  0  0  0  0  0  0  0
   13.2307   16.9346    0.0000 C   0  0  0  0  0  0  0  0  0  0  0  0
   14.3798   15.9704    0.0000 C   0  0  0  0  0  0  0  0  0  0  0  0
   15.4588   14.9284    0.0000 C   0  0  0  0  0  0  0  0  0  0  0  0
   16.4625   13.8137    0.0000 C   0  0  0  0  0  0  0  0  0  0  0  0
   17.3860   12.6317    0.0000 C   0  0  0  0  0  0  0  0  0  0  0  0
   18.2248   11.3881    0.0000 C   0  0  0  0  0  0  0  0  0  0  0  0
   18.9748   10.0891    0.0000 C   0  0  0  0  0  0  0  0  0  0  0  0
   19.6323    8.7409    0.0000 C   0  0  0  0  0  0  0  0  0  0  0  0
   20.1943    7.3501    0.0000 C   0  0  0  0  0  0  0  0  0  0  0  0
   20.6578    5.9235    0.0000 C   0  0  0  0  0  0  0  0  0  0  0  0
   21.0207    4.4681    0.0000 C   0  0  0  0  0  0  0  0  0  0  0  0
   21.2811    2.9909    0.0000 C   0  0  0  0  0  0  0  0  0  0  0  0
   21.4379    1.4991    0.0000 C   0  0  0  0  0  0  0  0  0  0  0  0
  1  2  2  0
  2  3  1  0
  3  4  2  0
  4  5  1  0
  5  6  2  0
  6  7  1  0
  7  8  2  0
  8  9  1  0
  9 10  1  0
 10 11  1  0
 11 12  1  0
 12 13  1  0
 13 14  1  0
 14 15  1  0
 15 16  1  0
 16 17  1  0
 17 18  1  0
 18 19  1  0
 19 20  1  0
 20 21  1  0
 21 22  1  0
 22 23  1  0
 23 24  1  0
 24 25  1  0
 25 26  1  0
 26 27  1  0
 27 28  1  0
 28 29  1  0
 29 30  1  0
 30 31  1  0
 31 32  1  0
 32 33  1  0
 33 34  1  0
 34 35  1  0
 35 36  1  0
 36 37  1  0
 37 38  1  0
 38 39  1  0
 39 40  1  0
 40 41  1  0
 41 42  1  0
 42 43  1  0
 43 44  1  0
 44 45  1  0
 45 46  1  0
 46 47  1  0
 47 48  1  0
 48 49  1  0
 49 50  1  0
 50 51  1  0
 51 52  1  0
 52 53  1  0
 53 54  1  0
 54 55  1  0
 55 56  1  0
 56 57  1  0
 57 58  1  0
 58 59  1  0
 59 60  1  0
 60 61  1  0
 61 62  1  0
 62 63  1  0
 63 64  1  0
 64 65  1  0
 65 66  1  0
 66 67  1  0
 67 68  1  0
 68 69  1  0
 69 70  1  0
 70 71  1  0
 71 72  1  0
 72 73  1  0
 73 74  1  0
 74 75  1  0
 75 76  1  0
 76 77  1  0
 77 78  1  0
 78 79  1  0
 79 80  1  0
 80 81  1  0
 81 82  1  0
 82 83  1  0
 83 84  1  0
 84 85  1  0
 85 86  2  0
 86 87  1  0
 87 88  2  0
 88 89  1  0
 89 90  2  0
 90  1  1  0
M  END
>  <Title>  (361) 
idAALYgen10

$$$$

     RDKit          2D

 19 20  0  0  0  0  0  0  0  0999 V2000
    1.3774  -13.5373    0.0000 C   0  0  0  0  0  0  0  0  0  0  0  0
    1.5342  -12.0455    0.0000 C   0  0  0  0  0  0  0  0  0  0  0  0
    1.6910  -10.5537    0.0000 C   0  0  0  0  0  0  0  0  0  0  0  0
    1.8478   -9.0619    0.0000 C   0  0  0  0  0  0  0  0  0  0  0  0
    2.0046   -7.5702    0.0000 C   0  0  0  0  0  0  0  0  0  0  0  0
    3.3037   -6.8202    0.0000 C   0  0  0  0  0  0  0  0  0  0  0  0
    2.9918   -5.3529    0.0000 C   0  0  0  0  0  0  0  0  0  0  0  0
    3.9955   -4.2382    0.0000 C   0  0  0  0  0  0  0  0  0  0  0  0
    1.5000   -5.1962    0.0000 C   0  0  0  0  0  0  0  0  0  0  0  0
    0.7500   -3.8971    0.0000 C   0  0  0  0  0  0  0  0  0  0  0  0
   -0.7500   -3.8971    0.0000 O   0  0  0  0  0  0  0  0  0  0  0  0
    1.5000   -2.5981    0.0000 O   0  0  0  0  0  0  0  0  0  0  0  0
    0.7500   -1.2990    0.0000 C   0  0  0  0  0  0  0  0  0  0  0  0
    1.5000    0.0000    0.0000 N   0  0  0  0  0  0  0  0  0  0  0  0
    0.7500    1.2990    0.0000 N   0  0  0  0  0  0  0  0  0  0  0  0
   -0.7500    1.2990    0.0000 N   0  0  0  0  0  0  0  0  0  0  0  0
   -1.5000    0.0000    0.0000 N   0  0  0  0  0  0  0  0  0  0  0  0
   -0.7500   -1.2990    0.0000 N   0  0  0  0  0  0  0  0  0  0  0  0
    0.8899   -6.5665    0.0000 C   0  0  0  0  0  0  0  0  0  0  0  0
  1  2  3  0
  2  3  1  0
  3  4  3  0
  4  5  1  0
  5  6  2  0
  6  7  1  0
  7  8  1  0
  7  9  1  0
  9 10  1  0
 10 11  2  0
 10 12  1  0
 12 13  1  0
 13 14  2  0
 14 15  1  0
 15 16  2  0
 16 17  1  0
 17 18  2  0
  9 19  1  0
 19  5  1  0
 18 13  1  0
M  END
>  <Title>  (362) 
idAALZgen10

$$$$

     RDKit          2D

  8  7  0  0  0  0  0  0  0  0999 V2000
    0.0000    0.0000    0.0000 C   0  0  0  0  0  0  0  0  0  0  0  0
   -0.0000   -1.5000    0.0000 C   0  0  0  0  0  0  0  0  0  0  0  0
   -0.0000   -3.0000    0.0000 C   0  0  0  0  0  0  0  0  0  0  0  0
   -0.0000   -4.5000    0.0000 C   0  0  0  0  0  0  0  0  0  0  0  0
   -0.0000   -6.0000    0.0000 C   0  0  0  0  0  0  0  0  0  0  0  0
    1.2990   -6.7500    0.0000 C   0  0  0  0  0  0  0  0  0  0  0  0
    1.2990   -8.2500    0.0000 C   0  0  0  0  0  0  0  0  0  0  0  0
    2.5981   -9.0000    0.0000 C   0  0  0  0  0  0  0  0  0  0  0  0
  1  2  3  0
  2  3  1  0
  3  4  3  0
  4  5  1  0
  5  6  2  3
  6  7  1  0
  7  8  1  0
M  END
>  <Title>  (363) 
idAAMAgen10

$$$$

     RDKit          2D

 11 11  0  0  0  0  0  0  0  0999 V2000
    4.5000    2.5981    0.0000 C   0  0  0  0  0  0  0  0  0  0  0  0
    3.7500    1.2990    0.0000 C   0  0  0  0  0  0  0  0  0  0  0  0
    3.0000    0.0000    0.0000 C   0  0  0  0  0  0  0  0  0  0  0  0
    3.7500   -1.2990    0.0000 O   0  0  0  0  0  0  0  0  0  0  0  0
    1.5000    0.0000    0.0000 C   0  0  0  0  0  0  0  0  0  0  0  0
    0.7500   -1.2990    0.0000 C   0  0  0  0  0  0  0  0  0  0  0  0
    1.5000   -2.5981    0.0000 C   0  0  0  0  0  0  0  0  0  0  0  0
   -0.7500   -1.2990    0.0000 C   0  0  0  0  0  0  0  0  0  0  0  0
   -1.5000    0.0000    0.0000 C   0  0  0  0  0  0  0  0  0  0  0  0
   -0.7500    1.2990    0.0000 C   0  0  0  0  0  0  0  0  0  0  0  0
    0.7500    1.2990    0.0000 C   0  0  0  0  0  0  0  0  0  0  0  0
  1  2  3  0
  2  3  1  0
  3  4  2  0
  3  5  1  0
  5  6  2  0
  6  7  1  0
  6  8  1  0
  8  9  1  0
  9 10  1  0
 10 11  1  0
 11  5  1  0
M  END
>  <Title>  (364) 
idAAMBgen10

$$$$

     RDKit          2D

104107  0  0  0  0  0  0  0  0999 V2000
   -7.1962   -5.1359    0.0000 C   0  0  0  0  0  0  0  0  0  0  0  0
   -6.1402   -6.2012    0.0000 C   0  0  0  0  0  0  0  0  0  0  0  0
   -7.1676   -7.2941    0.0000 C   0  0  0  0  0  0  0  0  0  0  0  0
   -8.1154   -8.4568    0.0000 C   0  0  0  0  0  0  0  0  0  0  0  0
   -8.9787   -9.6834    0.0000 C   0  0  0  0  0  0  0  0  0  0  0  0
   -9.7534  -10.9679    0.0000 C   0  0  0  0  0  0  0  0  0  0  0  0
  -10.4356  -12.3038    0.0000 C   0  0  0  0  0  0  0  0  0  0  0  0
  -11.0218  -13.6845    0.0000 C   0  0  0  0  0  0  0  0  0  0  0  0
  -11.5092  -15.1031    0.0000 C   0  0  0  0  0  0  0  0  0  0  0  0
  -11.8953  -16.5525    0.0000 C   0  0  0  0  0  0  0  0  0  0  0  0
  -12.1782  -18.0256    0.0000 C   0  0  0  0  0  0  0  0  0  0  0  0
  -12.3565  -19.5150    0.0000 C   0  0  0  0  0  0  0  0  0  0  0  0
  -12.4293  -21.0132    0.0000 C   0  0  0  0  0  0  0  0  0  0  0  0
  -12.3962  -22.5129    0.0000 C   0  0  0  0  0  0  0  0  0  0  0  0
  -12.2574  -24.0064    0.0000 C   0  0  0  0  0  0  0  0  0  0  0  0
  -12.0136  -25.4865    0.0000 C   0  0  0  0  0  0  0  0  0  0  0  0
  -11.6660  -26.9456    0.0000 C   0  0  0  0  0  0  0  0  0  0  0  0
  -11.2163  -28.3767    0.0000 C   0  0  0  0  0  0  0  0  0  0  0  0
  -10.6669  -29.7724    0.0000 C   0  0  0  0  0  0  0  0  0  0  0  0
  -10.0203  -31.1259    0.0000 C   0  0  0  0  0  0  0  0  0  0  0  0
   -9.2799  -32.4304    0.0000 C   0  0  0  0  0  0  0  0  0  0  0  0
   -8.4493  -33.6795    0.0000 C   0  0  0  0  0  0  0  0  0  0  0  0
   -7.5326  -34.8668    0.0000 C   0  0  0  0  0  0  0  0  0  0  0  0
   -6.5345  -35.9865    0.0000 C   0  0  0  0  0  0  0  0  0  0  0  0
   -5.4599  -37.0330    0.0000 C   0  0  0  0  0  0  0  0  0  0  0  0
   -4.3142  -38.0012    0.0000 C   0  0  0  0  0  0  0  0  0  0  0  0
   -3.1030  -38.8860    0.0000 C   0  0  0  0  0  0  0  0  0  0  0  0
   -1.8324  -39.6833    0.0000 C   0  0  0  0  0  0  0  0  0  0  0  0
   -0.5087  -40.3889    0.0000 C   0  0  0  0  0  0  0  0  0  0  0  0
    0.8614  -40.9994    0.0000 C   0  0  0  0  0  0  0  0  0  0  0  0
    2.2712  -41.5118    0.0000 C   0  0  0  0  0  0  0  0  0  0  0  0
    3.7136  -41.9234    0.0000 C   0  0  0  0  0  0  0  0  0  0  0  0
    5.1815  -42.2322    0.0000 C   0  0  0  0  0  0  0  0  0  0  0  0
    6.6675  -42.4368    0.0000 C   0  0  0  0  0  0  0  0  0  0  0  0
    8.1642  -42.5360    0.0000 C   0  0  0  0  0  0  0  0  0  0  0  0
    9.6642  -42.5294    0.0000 C   0  0  0  0  0  0  0  0  0  0  0  0
   11.1600  -42.4170    0.0000 C   0  0  0  0  0  0  0  0  0  0  0  0
   12.6441  -42.1993    0.0000 C   0  0  0  0  0  0  0  0  0  0  0  0
   14.1092  -41.8775    0.0000 C   0  0  0  0  0  0  0  0  0  0  0  0
   15.5479  -41.4532    0.0000 C   0  0  0  0  0  0  0  0  0  0  0  0
   16.9531  -40.9284    0.0000 C   0  0  0  0  0  0  0  0  0  0  0  0
   18.3178  -40.3059    0.0000 C   0  0  0  0  0  0  0  0  0  0  0  0
   19.6352  -39.5886    0.0000 C   0  0  0  0  0  0  0  0  0  0  0  0
   20.8987  -38.7801    0.0000 C   0  0  0  0  0  0  0  0  0  0  0  0
   22.1020  -37.8846    0.0000 C   0  0  0  0  0  0  0  0  0  0  0  0
   23.2392  -36.9064    0.0000 C   0  0  0  0  0  0  0  0  0  0  0  0
   24.3045  -35.8504    0.0000 C   0  0  0  0  0  0  0  0  0  0  0  0
   25.2927  -34.7220    0.0000 C   0  0  0  0  0  0  0  0  0  0  0  0
   26.1988  -33.5266    0.0000 C   0  0  0  0  0  0  0  0  0  0  0  0
   27.0184  -32.2702    0.0000 C   0  0  0  0  0  0  0  0  0  0  0  0
   27.7473  -30.9592    0.0000 C   0  0  0  0  0  0  0  0  0  0  0  0
   28.3819  -29.6001    0.0000 C   0  0  0  0  0  0  0  0  0  0  0  0
   28.9190  -28.1996    0.0000 C   0  0  0  0  0  0  0  0  0  0  0  0
   29.3560  -26.7646    0.0000 C   0  0  0  0  0  0  0  0  0  0  0  0
   29.6907  -25.3025    0.0000 C   0  0  0  0  0  0  0  0  0  0  0  0
   29.9214  -23.8203    0.0000 C   0  0  0  0  0  0  0  0  0  0  0  0
   30.0470  -22.3256    0.0000 C   0  0  0  0  0  0  0  0  0  0  0  0
   30.0669  -20.8257    0.0000 C   0  0  0  0  0  0  0  0  0  0  0  0
   29.9809  -19.3282    0.0000 C   0  0  0  0  0  0  0  0  0  0  0  0
   29.7895  -17.8404    0.0000 C   0  0  0  0  0  0  0  0  0  0  0  0
   29.4936  -16.3699    0.0000 C   0  0  0  0  0  0  0  0  0  0  0  0
   29.0947  -14.9239    0.0000 C   0  0  0  0  0  0  0  0  0  0  0  0
   28.5949  -13.5097    0.0000 C   0  0  0  0  0  0  0  0  0  0  0  0
   27.9965  -12.1342    0.0000 C   0  0  0  0  0  0  0  0  0  0  0  0
   27.3025  -10.8043    0.0000 C   0  0  0  0  0  0  0  0  0  0  0  0
   26.5165   -9.5268    0.0000 C   0  0  0  0  0  0  0  0  0  0  0  0
   25.6424   -8.3078    0.0000 C   0  0  0  0  0  0  0  0  0  0  0  0
   24.6844   -7.1536    0.0000 C   0  0  0  0  0  0  0  0  0  0  0  0
   23.6474   -6.0698    0.0000 C   0  0  0  0  0  0  0  0  0  0  0  0
   22.5365   -5.0618    0.0000 C   0  0  0  0  0  0  0  0  0  0  0  0
   21.3573   -4.1347    0.0000 C   0  0  0  0  0  0  0  0  0  0  0  0
   20.1157   -3.2932    0.0000 C   0  0  0  0  0  0  0  0  0  0  0  0
   18.8177   -2.5412    0.0000 C   0  0  0  0  0  0  0  0  0  0  0  0
   17.4700   -1.8828    0.0000 C   0  0  0  0  0  0  0  0  0  0  0  0
   16.0792   -1.3210    0.0000 C   0  0  0  0  0  0  0  0  0  0  0  0
   14.6522   -0.8587    0.0000 C   0  0  0  0  0  0  0  0  0  0  0  0
   13.1961   -0.4983    0.0000 C   0  0  0  0  0  0  0  0  0  0  0  0
   11.7183   -0.2414    0.0000 C   0  0  0  0  0  0  0  0  0  0  0  0
   10.2260   -0.0894    0.0000 C   0  0  0  0  0  0  0  0  0  0  0  0
    8.7267   -0.0431    0.0000 C   0  0  0  0  0  0  0  0  0  0  0  0
    7.2279   -0.1027    0.0000 C   0  0  0  0  0  0  0  0  0  0  0  0
    5.7370   -0.2678    0.0000 C   0  0  0  0  0  0  0  0  0  0  0  0
    4.2615   -0.5377    0.0000 C   0  0  0  0  0  0  0  0  0  0  0  0
    2.8087   -0.9110    0.0000 C   0  0  0  0  0  0  0  0  0  0  0  0
    1.3858   -1.3858    0.0000 C   0  0  0  0  0  0  0  0  0  0  0  0
    1.9598    0.0000    0.0000 C   0  0  0  0  0  0  0  0  0  0  0  0
    1.3858    1.3858    0.0000 C   0  0  0  0  0  0  0  0  0  0  0  0
    0.0000    1.9598    0.0000 C   0  0  0  0  0  0  0  0  0  0  0  0
   -1.3858    1.3858    0.0000 C   0  0  0  0  0  0  0  0  0  0  0  0
   -1.9598    0.0000    0.0000 C   0  0  0  0  0  0  0  0  0  0  0  0
   -1.3858   -1.3858    0.0000 C   0  0  0  0  0  0  0  0  0  0  0  0
   -0.0000   -1.9598    0.0000 C   0  0  0  0  0  0  0  0  0  0  0  0
   -1.3419   -2.6302    0.0000 C   0  0  0  0  0  0  0  0  0  0  0  0
   -0.0352   -3.3668    0.0000 C   0  0  0  0  0  0  0  0  0  0  0  0
   -0.0197   -4.8667    0.0000 C   0  0  0  0  0  0  0  0  0  0  0  0
   -1.3110   -5.6300    0.0000 C   0  0  0  0  0  0  0  0  0  0  0  0
   -2.6177   -4.8934    0.0000 C   0  0  0  0  0  0  0  0  0  0  0  0
   -2.6331   -3.3935    0.0000 C   0  0  0  0  0  0  0  0  0  0  0  0
   -3.8673   -4.2460    0.0000 C   0  0  0  0  0  0  0  0  0  0  0  0
   -4.0937   -2.7632    0.0000 C   0  0  0  0  0  0  0  0  0  0  0  0
   -5.4910   -2.2179    0.0000 C   0  0  0  0  0  0  0  0  0  0  0  0
   -6.6620   -3.1553    0.0000 C   0  0  0  0  0  0  0  0  0  0  0  0
   -6.4356   -4.6381    0.0000 C   0  0  0  0  0  0  0  0  0  0  0  0
   -5.0383   -5.1835    0.0000 C   0  0  0  0  0  0  0  0  0  0  0  0
  1  2  1  0
  2  3  1  0
  3  4  1  0
  4  5  1  0
  5  6  1  0
  6  7  1  0
  7  8  1  0
  8  9  1  0
  9 10  1  0
 10 11  1  0
 11 12  1  0
 12 13  1  0
 13 14  1  0
 14 15  1  0
 15 16  1  0
 16 17  1  0
 17 18  1  0
 18 19  1  0
 19 20  1  0
 20 21  1  0
 21 22  1  0
 22 23  1  0
 23 24  1  0
 24 25  1  0
 25 26  1  0
 26 27  1  0
 27 28  1  0
 28 29  1  0
 29 30  1  0
 30 31  1  0
 31 32  1  0
 32 33  1  0
 33 34  1  0
 34 35  1  0
 35 36  1  0
 36 37  1  0
 37 38  1  0
 38 39  1  0
 39 40  1  0
 40 41  1  0
 41 42  1  0
 42 43  1  0
 43 44  1  0
 44 45  1  0
 45 46  1  0
 46 47  1  0
 47 48  1  0
 48 49  1  0
 49 50  1  0
 50 51  1  0
 51 52  1  0
 52 53  1  0
 53 54  1  0
 54 55  1  0
 55 56  1  0
 56 57  1  0
 57 58  1  0
 58 59  1  0
 59 60  1  0
 60 61  1  0
 61 62  1  0
 62 63  1  0
 63 64  1  0
 64 65  1  0
 65 66  1  0
 66 67  1  0
 67 68  1  0
 68 69  1  0
 69 70  1  0
 70 71  1  0
 71 72  1  0
 72 73  1  0
 73 74  1  0
 74 75  1  0
 75 76  1  0
 76 77  1  0
 77 78  1  0
 78 79  1  0
 79 80  1  0
 80 81  1  0
 81 82  1  0
 82 83  1  0
 83 84  1  0
 84 85  1  0
 85 86  1  0
 86 87  1  0
 87 88  1  0
 88 89  1  0
 89 90  1  0
 90 91  1  0
 91 92  1  0
 92 93  1  0
 93 94  2  0
 94 95  1  0
 95 96  2  0
 96 97  1  0
 97 98  2  0
 98 99  1  0
 99100  2  0
100101  1  0
101102  2  0
102103  1  0
103104  2  0
104  2  1  0
 92 85  1  0
 98 93  1  0
104 99  1  0
M  END
>  <Title>  (365) 
idAAMCgen10

$$$$

     RDKit          2D

 10 10  0  0  0  0  0  0  0  0999 V2000
    6.0000   -2.5981    0.0000 C   0  0  0  0  0  0  0  0  0  0  0  0
    5.2500   -1.2990    0.0000 C   0  0  0  0  0  0  0  0  0  0  0  0
    3.7500   -1.2990    0.0000 C   0  0  0  0  0  0  0  0  0  0  0  0
    3.0000    0.0000    0.0000 C   0  0  0  0  0  0  0  0  0  0  0  0
    1.5000    0.0000    0.0000 C   0  0  0  0  0  0  0  0  0  0  0  0
    0.7500   -1.2990    0.0000 C   0  0  0  0  0  0  0  0  0  0  0  0
   -0.7500   -1.2990    0.0000 C   0  0  0  0  0  0  0  0  0  0  0  0
   -1.5000    0.0000    0.0000 C   0  0  0  0  0  0  0  0  0  0  0  0
   -0.7500    1.2990    0.0000 C   0  0  0  0  0  0  0  0  0  0  0  0
    0.7500    1.2990    0.0000 C   0  0  0  0  0  0  0  0  0  0  0  0
  1  2  2  0
  2  3  1  0
  3  4  1  0
  4  5  1  0
  5  6  2  0
  6  7  1  0
  7  8  2  0
  8  9  1  0
  9 10  2  0
 10  5  1  0
M  END
>  <Title>  (366) 
idAAMDgen10

$$$$

     RDKit          2D

 10 10  0  0  0  0  0  0  0  0999 V2000
    5.0260   -1.2990    0.0000 C   0  0  0  0  0  0  0  0  0  0  0  0
    3.5260   -1.2990    0.0000 C   0  0  0  0  0  0  0  0  0  0  0  0
    2.7760    0.0000    0.0000 C   0  0  0  0  0  0  0  0  0  0  0  0
    1.2760    0.0000    0.0000 C   0  0  0  0  0  0  0  0  0  0  0  0
    0.3943    1.2135    0.0000 C   0  0  0  0  0  0  0  0  0  0  0  0
   -1.0323    0.7500    0.0000 C   0  0  0  0  0  0  0  0  0  0  0  0
   -2.2458    1.6317    0.0000 C   0  0  0  0  0  0  0  0  0  0  0  0
   -1.0323   -0.7500    0.0000 C   0  0  0  0  0  0  0  0  0  0  0  0
   -2.2458   -1.6317    0.0000 C   0  0  0  0  0  0  0  0  0  0  0  0
    0.3943   -1.2135    0.0000 N   0  0  0  0  0  0  0  0  0  0  0  0
  1  2  2  0
  2  3  1  0
  3  4  1  0
  4  5  2  0
  5  6  1  0
  6  7  1  0
  6  8  1  0
  8  9  1  0
  8 10  1  0
 10  4  1  0
M  END
>  <Title>  (367) 
idAAMEgen10

$$$$

     RDKit          2D

  8  8  0  0  0  0  0  0  0  0999 V2000
    3.2286   -0.0000    0.0000 C   0  0  0  0  0  0  0  0  0  0  0  0
    1.7286    0.0000    0.0000 C   0  0  0  0  0  0  0  0  0  0  0  0
    1.0777    1.3515    0.0000 C   0  0  0  0  0  0  0  0  0  0  0  0
   -0.3846    1.6852    0.0000 C   0  0  0  0  0  0  0  0  0  0  0  0
   -1.5574    0.7500    0.0000 C   0  0  0  0  0  0  0  0  0  0  0  0
   -1.5574   -0.7500    0.0000 C   0  0  0  0  0  0  0  0  0  0  0  0
   -0.3846   -1.6852    0.0000 C   0  0  0  0  0  0  0  0  0  0  0  0
    1.0777   -1.3515    0.0000 N   0  0  0  0  0  0  0  0  0  0  0  0
  1  2  1  0
  2  3  2  0
  3  4  1  0
  4  5  1  0
  5  6  2  0
  6  7  1  0
  7  8  2  0
  8  2  1  0
M  END
>  <Title>  (368) 
idAAMFgen10

$$$$

     RDKit          2D

 70 70  0  0  0  0  0  0  0  0999 V2000
   19.0009   -0.0000    0.0000 C   0  0  0  0  0  0  0  0  0  0  0  0
   17.5009   -0.0000    0.0000 C   0  0  0  0  0  0  0  0  0  0  0  0
   16.0009    0.0000    0.0000 C   0  0  0  0  0  0  0  0  0  0  0  0
   15.9306    1.4984    0.0000 C   0  0  0  0  0  0  0  0  0  0  0  0
   15.7203    2.9835    0.0000 C   0  0  0  0  0  0  0  0  0  0  0  0
   15.3719    4.4425    0.0000 C   0  0  0  0  0  0  0  0  0  0  0  0
   14.8883    5.8624    0.0000 C   0  0  0  0  0  0  0  0  0  0  0  0
   14.2739    7.2308    0.0000 C   0  0  0  0  0  0  0  0  0  0  0  0
   13.5341    8.5357    0.0000 C   0  0  0  0  0  0  0  0  0  0  0  0
   12.6753    9.7655    0.0000 C   0  0  0  0  0  0  0  0  0  0  0  0
   11.7052   10.9096    0.0000 C   0  0  0  0  0  0  0  0  0  0  0  0
   10.6322   11.9577    0.0000 C   0  0  0  0  0  0  0  0  0  0  0  0
    9.4657   12.9008    0.0000 C   0  0  0  0  0  0  0  0  0  0  0  0
    8.2161   13.7305    0.0000 C   0  0  0  0  0  0  0  0  0  0  0  0
    6.8942   14.4395    0.0000 C   0  0  0  0  0  0  0  0  0  0  0  0
    5.5118   15.0217    0.0000 C   0  0  0  0  0  0  0  0  0  0  0  0
    4.0809   15.4718    0.0000 C   0  0  0  0  0  0  0  0  0  0  0  0
    2.6142   15.7859    0.0000 C   0  0  0  0  0  0  0  0  0  0  0  0
    1.1245   15.9614    0.0000 C   0  0  0  0  0  0  0  0  0  0  0  0
   -0.3751   15.9965    0.0000 C   0  0  0  0  0  0  0  0  0  0  0  0
   -1.8714   15.8911    0.0000 C   0  0  0  0  0  0  0  0  0  0  0  0
   -3.3512   15.6461    0.0000 C   0  0  0  0  0  0  0  0  0  0  0  0
   -4.8016   15.2635    0.0000 C   0  0  0  0  0  0  0  0  0  0  0  0
   -6.2098   14.7468    0.0000 C   0  0  0  0  0  0  0  0  0  0  0  0
   -7.5635   14.1005    0.0000 C   0  0  0  0  0  0  0  0  0  0  0  0
   -8.8506   13.3303    0.0000 C   0  0  0  0  0  0  0  0  0  0  0  0
  -10.0600   12.4429    0.0000 C   0  0  0  0  0  0  0  0  0  0  0  0
  -11.1810   11.4462    0.0000 C   0  0  0  0  0  0  0  0  0  0  0  0
  -12.2037   10.3489    0.0000 C   0  0  0  0  0  0  0  0  0  0  0  0
  -13.1191    9.1607    0.0000 C   0  0  0  0  0  0  0  0  0  0  0  0
  -13.9193    7.8919    0.0000 C   0  0  0  0  0  0  0  0  0  0  0  0
  -14.5972    6.5538    0.0000 C   0  0  0  0  0  0  0  0  0  0  0  0
  -15.1467    5.1581    0.0000 C   0  0  0  0  0  0  0  0  0  0  0  0
  -15.5632    3.7171    0.0000 C   0  0  0  0  0  0  0  0  0  0  0  0
  -15.8429    2.2434    0.0000 C   0  0  0  0  0  0  0  0  0  0  0  0
  -15.9833    0.7500    0.0000 C   0  0  0  0  0  0  0  0  0  0  0  0
  -15.9833   -0.7500    0.0000 C   0  0  0  0  0  0  0  0  0  0  0  0
  -15.8429   -2.2434    0.0000 C   0  0  0  0  0  0  0  0  0  0  0  0
  -15.5632   -3.7171    0.0000 C   0  0  0  0  0  0  0  0  0  0  0  0
  -15.1467   -5.1581    0.0000 C   0  0  0  0  0  0  0  0  0  0  0  0
  -14.5972   -6.5538    0.0000 C   0  0  0  0  0  0  0  0  0  0  0  0
  -13.9193   -7.8919    0.0000 C   0  0  0  0  0  0  0  0  0  0  0  0
  -13.1191   -9.1607    0.0000 C   0  0  0  0  0  0  0  0  0  0  0  0
  -12.2037  -10.3489    0.0000 C   0  0  0  0  0  0  0  0  0  0  0  0
  -11.1810  -11.4462    0.0000 C   0  0  0  0  0  0  0  0  0  0  0  0
  -10.0600  -12.4429    0.0000 C   0  0  0  0  0  0  0  0  0  0  0  0
   -8.8506  -13.3303    0.0000 C   0  0  0  0  0  0  0  0  0  0  0  0
   -7.5635  -14.1005    0.0000 C   0  0  0  0  0  0  0  0  0  0  0  0
   -6.2098  -14.7468    0.0000 C   0  0  0  0  0  0  0  0  0  0  0  0
   -4.8016  -15.2635    0.0000 C   0  0  0  0  0  0  0  0  0  0  0  0
   -3.3512  -15.6461    0.0000 C   0  0  0  0  0  0  0  0  0  0  0  0
   -1.8714  -15.8911    0.0000 C   0  0  0  0  0  0  0  0  0  0  0  0
   -0.3751  -15.9965    0.0000 C   0  0  0  0  0  0  0  0  0  0  0  0
    1.1245  -15.9614    0.0000 C   0  0  0  0  0  0  0  0  0  0  0  0
    2.6142  -15.7859    0.0000 C   0  0  0  0  0  0  0  0  0  0  0  0
    4.0809  -15.4718    0.0000 C   0  0  0  0  0  0  0  0  0  0  0  0
    5.5118  -15.0217    0.0000 C   0  0  0  0  0  0  0  0  0  0  0  0
    6.8942  -14.4395    0.0000 C   0  0  0  0  0  0  0  0  0  0  0  0
    8.2161  -13.7305    0.0000 C   0  0  0  0  0  0  0  0  0  0  0  0
    9.4657  -12.9008    0.0000 C   0  0  0  0  0  0  0  0  0  0  0  0
   10.6322  -11.9577    0.0000 C   0  0  0  0  0  0  0  0  0  0  0  0
   11.7052  -10.9096    0.0000 C   0  0  0  0  0  0  0  0  0  0  0  0
   12.6753   -9.7655    0.0000 C   0  0  0  0  0  0  0  0  0  0  0  0
   13.5341   -8.5357    0.0000 C   0  0  0  0  0  0  0  0  0  0  0  0
   14.2739   -7.2308    0.0000 C   0  0  0  0  0  0  0  0  0  0  0  0
   14.8883   -5.8624    0.0000 C   0  0  0  0  0  0  0  0  0  0  0  0
   15.3719   -4.4425    0.0000 C   0  0  0  0  0  0  0  0  0  0  0  0
   15.7203   -2.9835    0.0000 C   0  0  0  0  0  0  0  0  0  0  0  0
   15.9306   -1.4984    0.0000 C   0  0  0  0  0  0  0  0  0  0  0  0
   17.4240   -1.6388    0.0000 C   0  0  0  0  0  0  0  0  0  0  0  0
  1  2  3  0
  2  3  1  0
  3  4  1  0
  4  5  1  0
  5  6  1  0
  6  7  1  0
  7  8  1  0
  8  9  2  0
  9 10  1  0
 10 11  1  0
 11 12  1  0
 12 13  1  0
 13 14  1  0
 14 15  1  0
 15 16  1  0
 16 17  1  0
 17 18  1  0
 18 19  1  0
 19 20  1  0
 20 21  1  0
 21 22  1  0
 22 23  1  0
 23 24  1  0
 24 25  1  0
 25 26  1  0
 26 27  1  0
 27 28  1  0
 28 29  1  0
 29 30  1  0
 30 31  1  0
 31 32  1  0
 32 33  1  0
 33 34  1  0
 34 35  1  0
 35 36  1  0
 36 37  1  0
 37 38  1  0
 38 39  1  0
 39 40  1  0
 40 41  1  0
 41 42  1  0
 42 43  1  0
 43 44  1  0
 44 45  1  0
 45 46  1  0
 46 47  1  0
 47 48  1  0
 48 49  1  0
 49 50  1  0
 50 51  1  0
 51 52  1  0
 52 53  1  0
 53 54  1  0
 54 55  1  0
 55 56  1  0
 56 57  1  0
 57 58  1  0
 58 59  2  0
 59 60  1  0
 60 61  2  0
 61 62  1  0
 62 63  2  0
 63 64  1  0
 64 65  2  0
 65 66  1  0
 66 67  2  0
 67 68  1  0
 68 69  2  0
 69 70  1  0
 69  3  1  0
M  END
>  <Title>  (369) 
idAAMGgen10

$$$$

     RDKit          2D

  9  9  0  0  0  0  0  0  0  0999 V2000
    6.5260   -1.2990    0.0000 C   0  0  0  0  0  0  0  0  0  0  0  0
    5.7760   -0.0000    0.0000 C   0  0  0  0  0  0  0  0  0  0  0  0
    4.2760   -0.0000    0.0000 C   0  0  0  0  0  0  0  0  0  0  0  0
    2.7760    0.0000    0.0000 C   0  0  0  0  0  0  0  0  0  0  0  0
    1.2760    0.0000    0.0000 C   0  0  0  0  0  0  0  0  0  0  0  0
    0.3943    1.2135    0.0000 C   0  0  0  0  0  0  0  0  0  0  0  0
   -1.0323    0.7500    0.0000 C   0  0  0  0  0  0  0  0  0  0  0  0
   -1.0323   -0.7500    0.0000 C   0  0  0  0  0  0  0  0  0  0  0  0
    0.3943   -1.2135    0.0000 C   0  0  0  0  0  0  0  0  0  0  0  0
  1  2  2  0
  2  3  1  0
  3  4  3  0
  4  5  1  0
  5  6  2  0
  6  7  1  0
  7  8  1  0
  8  9  2  0
  9  5  1  0
M  END
>  <Title>  (370) 
idAAMHgen10

$$$$

     RDKit          2D

  8  8  0  0  0  0  0  0  0  0999 V2000
    3.7500   -1.2990    0.0000 C   0  0  0  0  0  0  0  0  0  0  0  0
    3.0000    0.0000    0.0000 O   0  0  0  0  0  0  0  0  0  0  0  0
    1.5000    0.0000    0.0000 C   0  0  0  0  0  0  0  0  0  0  0  0
    0.7500   -1.2990    0.0000 C   0  0  0  0  0  0  0  0  0  0  0  0
   -0.7500   -1.2990    0.0000 C   0  0  0  0  0  0  0  0  0  0  0  0
   -1.5000    0.0000    0.0000 C   0  0  0  0  0  0  0  0  0  0  0  0
   -0.7500    1.2990    0.0000 C   0  0  0  0  0  0  0  0  0  0  0  0
    0.7500    1.2990    0.0000 C   0  0  0  0  0  0  0  0  0  0  0  0
  1  2  1  0
  2  3  1  0
  3  4  2  0
  4  5  1  0
  5  6  2  0
  6  7  1  0
  7  8  2  0
  8  3  1  0
M  END
>  <Title>  (371) 
idAAMIgen10

$$$$

     RDKit          2D

 14 14  0  0  0  0  0  0  0  0999 V2000
    6.7500   -1.2990    0.0000 C   0  0  0  0  0  0  0  0  0  0  0  0
    5.2500   -1.2990    0.0000 C   0  0  0  0  0  0  0  0  0  0  0  0
    3.7500   -1.2990    0.0000 C   0  0  0  0  0  0  0  0  0  0  0  0
    3.0000   -2.5981    0.0000 O   0  0  0  0  0  0  0  0  0  0  0  0
    3.0000    0.0000    0.0000 N   0  0  0  0  0  0  0  0  0  0  0  0
    1.5000    0.0000    0.0000 C   0  0  0  0  0  0  0  0  0  0  0  0
    0.7500   -1.2990    0.0000 N   0  0  0  0  0  0  0  0  0  0  0  0
   -0.7500   -1.2990    0.0000 C   0  0  0  0  0  0  0  0  0  0  0  0
   -1.5000    0.0000    0.0000 C   0  0  0  0  0  0  0  0  0  0  0  0
   -0.7500    1.2990    0.0000 C   0  0  0  0  0  0  0  0  0  0  0  0
    0.7500    1.2990    0.0000 C   0  0  0  0  0  0  0  0  0  0  0  0
    1.5000    2.5981    0.0000 C   0  0  0  0  0  0  0  0  0  0  0  0
    3.0000    2.5981    0.0000 C   0  0  0  0  0  0  0  0  0  0  0  0
    0.7500    3.8971    0.0000 O   0  0  0  0  0  0  0  0  0  0  0  0
  1  2  3  0
  2  3  1  0
  3  4  2  0
  3  5  1  0
  5  6  1  0
  6  7  2  0
  7  8  1  0
  8  9  2  0
  9 10  1  0
 10 11  2  0
 11 12  1  0
 12 13  1  0
 12 14  2  0
 11  6  1  0
M  END
>  <Title>  (372) 
idAAMJgen10

$$$$

     RDKit          2D

 10 10  0  0  0  0  0  0  0  0999 V2000
    5.7760   -5.1962    0.0000 C   0  0  0  0  0  0  0  0  0  0  0  0
    5.0260   -3.8971    0.0000 C   0  0  0  0  0  0  0  0  0  0  0  0
    4.2760   -2.5981    0.0000 C   0  0  0  0  0  0  0  0  0  0  0  0
    3.5260   -1.2990    0.0000 C   0  0  0  0  0  0  0  0  0  0  0  0
    2.7760    0.0000    0.0000 C   0  0  0  0  0  0  0  0  0  0  0  0
    1.2760    0.0000    0.0000 C   0  0  0  0  0  0  0  0  0  0  0  0
    0.3943    1.2135    0.0000 C   0  0  0  0  0  0  0  0  0  0  0  0
   -1.0323    0.7500    0.0000 C   0  0  0  0  0  0  0  0  0  0  0  0
   -1.0323   -0.7500    0.0000 C   0  0  0  0  0  0  0  0  0  0  0  0
    0.3943   -1.2135    0.0000 C   0  0  0  0  0  0  0  0  0  0  0  0
  1  2  3  0
  2  3  1  0
  3  4  3  0
  4  5  1  0
  5  6  1  0
  6  7  2  0
  7  8  1  0
  8  9  1  0
  9 10  2  0
 10  6  1  0
M  END
>  <Title>  (373) 
idAAMKgen10

$$$$

     RDKit          2D

  9  9  0  0  0  0  0  0  0  0999 V2000
    7.2760   -0.0000    0.0000 C   0  0  0  0  0  0  0  0  0  0  0  0
    5.7760   -0.0000    0.0000 C   0  0  0  0  0  0  0  0  0  0  0  0
    4.2760   -0.0000    0.0000 C   0  0  0  0  0  0  0  0  0  0  0  0
    2.7760    0.0000    0.0000 C   0  0  0  0  0  0  0  0  0  0  0  0
    1.2760    0.0000    0.0000 C   0  0  0  0  0  0  0  0  0  0  0  0
    0.3943    1.2135    0.0000 C   0  0  0  0  0  0  0  0  0  0  0  0
   -1.0323    0.7500    0.0000 C   0  0  0  0  0  0  0  0  0  0  0  0
   -1.0323   -0.7500    0.0000 C   0  0  0  0  0  0  0  0  0  0  0  0
    0.3943   -1.2135    0.0000 C   0  0  0  0  0  0  0  0  0  0  0  0
  1  2  3  0
  2  3  1  0
  3  4  3  0
  4  5  1  0
  5  6  1  0
  6  7  1  0
  7  8  2  0
  8  9  1  0
  9  5  1  0
M  END
>  <Title>  (374) 
idAAMLgen10

$$$$

     RDKit          2D

  8  8  0  0  0  0  0  0  0  0999 V2000
    4.5000    0.0000    0.0000 C   0  0  0  0  0  0  0  0  0  0  0  0
    3.0000    0.0000    0.0000 C   0  0  0  0  0  0  0  0  0  0  0  0
    1.5000    0.0000    0.0000 C   0  0  0  0  0  0  0  0  0  0  0  0
    0.7500   -1.2990    0.0000 C   0  0  0  0  0  0  0  0  0  0  0  0
   -0.7500   -1.2990    0.0000 C   0  0  0  0  0  0  0  0  0  0  0  0
   -1.5000    0.0000    0.0000 C   0  0  0  0  0  0  0  0  0  0  0  0
   -0.7500    1.2990    0.0000 C   0  0  0  0  0  0  0  0  0  0  0  0
    0.7500    1.2990    0.0000 C   0  0  0  0  0  0  0  0  0  0  0  0
  1  2  3  0
  2  3  1  0
  3  4  1  0
  4  5  1  0
  5  6  1  0
  6  7  1  0
  7  8  1  0
  8  3  1  0
M  END
>  <Title>  (375) 
idAAMMgen10

$$$$

     RDKit          2D

 16 17  0  0  0  0  0  0  0  0999 V2000
    4.5000    0.0000    0.0000 C   0  0  0  0  0  0  0  0  0  0  0  0
    3.0000    0.0000    0.0000 C   0  0  0  0  0  0  0  0  0  0  0  0
    1.5000    0.0000    0.0000 C   0  0  0  0  0  0  0  0  0  0  0  0
    0.7500   -1.2990    0.0000 C   0  0  0  0  0  0  0  0  0  0  0  0
   -0.7500   -1.2990    0.0000 C   0  0  0  0  0  0  0  0  0  0  0  0
   -1.5000   -2.5981    0.0000 C   0  0  0  0  0  0  0  0  0  0  0  0
   -1.5000    0.0000    0.0000 C   0  0  0  0  0  0  0  0  0  0  0  0
   -0.7500    1.2990    0.0000 C   0  0  0  0  0  0  0  0  0  0  0  0
    0.7500    1.2990    0.0000 C   0  0  0  0  0  0  0  0  0  0  0  0
    1.5000    2.5981    0.0000 O   0  0  0  0  0  0  0  0  0  0  0  0
    0.7500    3.8971    0.0000 C   0  0  0  0  0  0  0  0  0  0  0  0
    1.5000    5.1962    0.0000 C   0  0  0  0  0  0  0  0  0  0  0  0
    0.8899    6.5665    0.0000 C   0  0  0  0  0  0  0  0  0  0  0  0
    2.0046    7.5702    0.0000 C   0  0  0  0  0  0  0  0  0  0  0  0
    3.3037    6.8202    0.0000 C   0  0  0  0  0  0  0  0  0  0  0  0
    2.9918    5.3529    0.0000 C   0  0  0  0  0  0  0  0  0  0  0  0
  1  2  3  0
  2  3  1  0
  3  4  2  0
  4  5  1  0
  5  6  1  0
  5  7  2  0
  7  8  1  0
  8  9  2  0
  9 10  1  0
 10 11  1  0
 11 12  1  0
 12 13  2  0
 13 14  1  0
 14 15  2  0
 15 16  1  0
  9  3  1  0
 16 12  1  0
M  END
>  <Title>  (376) 
idAAMNgen10

$$$$

     RDKit          2D

 29 33  0  0  0  0  0  0  0  0999 V2000
    3.1097   -7.2078    0.0000 C   0  0  0  0  0  0  0  0  0  0  0  0
    2.0490   -6.1471    0.0000 C   0  0  0  0  0  0  0  0  0  0  0  0
    2.7990   -4.8481    0.0000 C   0  0  0  0  0  0  0  0  0  0  0  0
    2.7990   -3.3481    0.0000 C   0  0  0  0  0  0  0  0  0  0  0  0
    2.0490   -2.0490    0.0000 C   0  0  0  0  0  0  0  0  0  0  0  0
    0.7500   -1.2990    0.0000 C   0  0  0  0  0  0  0  0  0  0  0  0
    1.5000    0.0000    0.0000 C   0  0  0  0  0  0  0  0  0  0  0  0
    0.7500    1.2990    0.0000 C   0  0  0  0  0  0  0  0  0  0  0  0
   -0.7500    1.2990    0.0000 C   0  0  0  0  0  0  0  0  0  0  0  0
   -1.5000    0.0000    0.0000 C   0  0  0  0  0  0  0  0  0  0  0  0
   -0.7500   -1.2990    0.0000 C   0  0  0  0  0  0  0  0  0  0  0  0
   -2.0490   -2.0490    0.0000 C   0  0  0  0  0  0  0  0  0  0  0  0
   -2.7990   -0.7500    0.0000 C   0  0  0  0  0  0  0  0  0  0  0  0
   -4.2990   -0.7500    0.0000 C   0  0  0  0  0  0  0  0  0  0  0  0
   -5.0490   -2.0490    0.0000 C   0  0  0  0  0  0  0  0  0  0  0  0
   -4.2990   -3.3481    0.0000 C   0  0  0  0  0  0  0  0  0  0  0  0
   -2.7990   -3.3481    0.0000 C   0  0  0  0  0  0  0  0  0  0  0  0
   -2.7990   -4.8481    0.0000 C   0  0  0  0  0  0  0  0  0  0  0  0
   -4.2990   -4.8481    0.0000 C   0  0  0  0  0  0  0  0  0  0  0  0
   -5.0490   -6.1471    0.0000 C   0  0  0  0  0  0  0  0  0  0  0  0
   -4.2990   -7.4462    0.0000 C   0  0  0  0  0  0  0  0  0  0  0  0
   -2.7990   -7.4462    0.0000 C   0  0  0  0  0  0  0  0  0  0  0  0
   -2.0490   -6.1471    0.0000 C   0  0  0  0  0  0  0  0  0  0  0  0
   -0.7500   -6.8971    0.0000 C   0  0  0  0  0  0  0  0  0  0  0  0
   -1.5000   -8.1962    0.0000 C   0  0  0  0  0  0  0  0  0  0  0  0
   -0.7500   -9.4952    0.0000 C   0  0  0  0  0  0  0  0  0  0  0  0
    0.7500   -9.4952    0.0000 C   0  0  0  0  0  0  0  0  0  0  0  0
    1.5000   -8.1962    0.0000 C   0  0  0  0  0  0  0  0  0  0  0  0
    0.7500   -6.8971    0.0000 C   0  0  0  0  0  0  0  0  0  0  0  0
  1  2  1  0
  2  3  2  0
  3  4  1  0
  4  5  1  0
  5  6  2  0
  6  7  1  0
  7  8  1  0
  8  9  2  0
  9 10  1  0
 10 11  2  0
 11 12  1  0
 12 13  2  0
 13 14  1  0
 14 15  2  0
 15 16  1  0
 16 17  2  0
 17 18  1  0
 18 19  2  0
 19 20  1  0
 20 21  2  0
 21 22  1  0
 22 23  2  0
 23 24  1  0
 24 25  2  0
 25 26  1  0
 26 27  2  0
 27 28  1  0
 28 29  2  0
 29  2  1  0
 11  6  1  0
 17 12  1  0
 23 18  1  0
 29 24  1  0
M  END
>  <Title>  (377) 
idAAMOgen10

$$$$

     RDKit          2D

 59 60  0  0  0  0  0  0  0  0999 V2000
   -2.5003    0.0040    0.0000 C   0  0  0  0  0  0  0  0  0  0  0  0
   -2.2399   -1.4732    0.0000 C   0  0  0  0  0  0  0  0  0  0  0  0
   -3.6994   -1.8191    0.0000 C   0  0  0  0  0  0  0  0  0  0  0  0
   -5.1090   -2.3321    0.0000 C   0  0  0  0  0  0  0  0  0  0  0  0
   -6.4494   -3.0053    0.0000 C   0  0  0  0  0  0  0  0  0  0  0  0
   -7.7026   -3.8296    0.0000 C   0  0  0  0  0  0  0  0  0  0  0  0
   -8.8517   -4.7938    0.0000 C   0  0  0  0  0  0  0  0  0  0  0  0
   -9.8811   -5.8848    0.0000 C   0  0  0  0  0  0  0  0  0  0  0  0
  -10.7768   -7.0880    0.0000 C   0  0  0  0  0  0  0  0  0  0  0  0
  -11.5268   -8.3871    0.0000 C   0  0  0  0  0  0  0  0  0  0  0  0
  -12.1209   -9.7644    0.0000 C   0  0  0  0  0  0  0  0  0  0  0  0
  -12.5511  -11.2014    0.0000 C   0  0  0  0  0  0  0  0  0  0  0  0
  -12.8116  -12.6786    0.0000 C   0  0  0  0  0  0  0  0  0  0  0  0
  -12.8988  -14.1760    0.0000 C   0  0  0  0  0  0  0  0  0  0  0  0
  -12.8116  -15.6735    0.0000 C   0  0  0  0  0  0  0  0  0  0  0  0
  -12.5511  -17.1507    0.0000 C   0  0  0  0  0  0  0  0  0  0  0  0
  -12.1209  -18.5877    0.0000 C   0  0  0  0  0  0  0  0  0  0  0  0
  -11.5268  -19.9650    0.0000 C   0  0  0  0  0  0  0  0  0  0  0  0
  -10.7768  -21.2641    0.0000 C   0  0  0  0  0  0  0  0  0  0  0  0
   -9.8811  -22.4672    0.0000 C   0  0  0  0  0  0  0  0  0  0  0  0
   -8.8517  -23.5583    0.0000 C   0  0  0  0  0  0  0  0  0  0  0  0
   -7.7026  -24.5225    0.0000 C   0  0  0  0  0  0  0  0  0  0  0  0
   -6.4494  -25.3468    0.0000 C   0  0  0  0  0  0  0  0  0  0  0  0
   -5.1090  -26.0200    0.0000 C   0  0  0  0  0  0  0  0  0  0  0  0
   -3.6994  -26.5330    0.0000 C   0  0  0  0  0  0  0  0  0  0  0  0
   -2.2399  -26.8789    0.0000 C   0  0  0  0  0  0  0  0  0  0  0  0
   -0.7500  -27.0530    0.0000 C   0  0  0  0  0  0  0  0  0  0  0  0
    0.7500  -27.0530    0.0000 C   0  0  0  0  0  0  0  0  0  0  0  0
    2.2399  -26.8789    0.0000 C   0  0  0  0  0  0  0  0  0  0  0  0
    3.6994  -26.5330    0.0000 C   0  0  0  0  0  0  0  0  0  0  0  0
    5.1090  -26.0200    0.0000 C   0  0  0  0  0  0  0  0  0  0  0  0
    6.4494  -25.3468    0.0000 C   0  0  0  0  0  0  0  0  0  0  0  0
    7.7026  -24.5225    0.0000 C   0  0  0  0  0  0  0  0  0  0  0  0
    8.8517  -23.5583    0.0000 C   0  0  0  0  0  0  0  0  0  0  0  0
    9.8811  -22.4672    0.0000 C   0  0  0  0  0  0  0  0  0  0  0  0
   10.7768  -21.2641    0.0000 C   0  0  0  0  0  0  0  0  0  0  0  0
   11.5268  -19.9650    0.0000 C   0  0  0  0  0  0  0  0  0  0  0  0
   12.1209  -18.5877    0.0000 C   0  0  0  0  0  0  0  0  0  0  0  0
   12.5511  -17.1507    0.0000 C   0  0  0  0  0  0  0  0  0  0  0  0
   12.8116  -15.6735    0.0000 C   0  0  0  0  0  0  0  0  0  0  0  0
   12.8988  -14.1760    0.0000 C   0  0  0  0  0  0  0  0  0  0  0  0
   12.8116  -12.6786    0.0000 C   0  0  0  0  0  0  0  0  0  0  0  0
   12.5511  -11.2014    0.0000 C   0  0  0  0  0  0  0  0  0  0  0  0
   12.1209   -9.7644    0.0000 C   0  0  0  0  0  0  0  0  0  0  0  0
   11.5268   -8.3871    0.0000 C   0  0  0  0  0  0  0  0  0  0  0  0
   10.7768   -7.0880    0.0000 C   0  0  0  0  0  0  0  0  0  0  0  0
    9.8811   -5.8848    0.0000 C   0  0  0  0  0  0  0  0  0  0  0  0
    8.8517   -4.7938    0.0000 C   0  0  0  0  0  0  0  0  0  0  0  0
    7.7026   -3.8296    0.0000 C   0  0  0  0  0  0  0  0  0  0  0  0
    6.4494   -3.0053    0.0000 C   0  0  0  0  0  0  0  0  0  0  0  0
    5.1090   -2.3321    0.0000 C   0  0  0  0  0  0  0  0  0  0  0  0
    3.6994   -1.8191    0.0000 C   0  0  0  0  0  0  0  0  0  0  0  0
    2.2399   -1.4732    0.0000 C   0  0  0  0  0  0  0  0  0  0  0  0
    0.7500   -1.2990    0.0000 C   0  0  0  0  0  0  0  0  0  0  0  0
    1.5000    0.0000    0.0000 C   0  0  0  0  0  0  0  0  0  0  0  0
    0.7500    1.2990    0.0000 C   0  0  0  0  0  0  0  0  0  0  0  0
   -0.7500    1.2990    0.0000 C   0  0  0  0  0  0  0  0  0  0  0  0
   -1.5000    0.0000    0.0000 C   0  0  0  0  0  0  0  0  0  0  0  0
   -0.7500   -1.2990    0.0000 C   0  0  0  0  0  0  0  0  0  0  0  0
  1  2  1  0
  2  3  1  0
  3  4  2  0
  4  5  1  0
  5  6  2  0
  6  7  1  0
  7  8  2  0
  8  9  1  0
  9 10  2  0
 10 11  1  0
 11 12  2  0
 12 13  1  0
 13 14  2  0
 14 15  1  0
 15 16  2  0
 16 17  1  0
 17 18  2  0
 18 19  1  0
 19 20  2  0
 20 21  1  0
 21 22  2  0
 22 23  1  0
 23 24  2  0
 24 25  1  0
 25 26  2  0
 26 27  1  0
 27 28  2  0
 28 29  1  0
 29 30  2  0
 30 31  1  0
 31 32  2  0
 32 33  1  0
 33 34  2  0
 34 35  1  0
 35 36  2  0
 36 37  1  0
 37 38  2  0
 38 39  1  0
 39 40  2  0
 40 41  1  0
 41 42  2  0
 42 43  1  0
 43 44  2  0
 44 45  1  0
 45 46  2  0
 46 47  1  0
 47 48  2  0
 48 49  1  0
 49 50  2  0
 50 51  1  0
 51 52  2  0
 52 53  1  0
 53 54  2  0
 54 55  1  0
 55 56  1  0
 56 57  1  0
 57 58  1  0
 58 59  2  0
 59  2  1  0
 59 54  1  0
M  END
>  <Title>  (378) 
idAAMPgen10

$$$$

     RDKit          2D

 98 98  0  0  0  0  0  0  0  0999 V2000
   24.4224   -0.0000    0.0000 C   0  0  0  0  0  0  0  0  0  0  0  0
   22.9224    0.0000    0.0000 C   0  0  0  0  0  0  0  0  0  0  0  0
   22.8733   -1.4992    0.0000 C   0  0  0  0  0  0  0  0  0  0  0  0
   22.7263   -2.9920    0.0000 C   0  0  0  0  0  0  0  0  0  0  0  0
   22.4820   -4.4719    0.0000 C   0  0  0  0  0  0  0  0  0  0  0  0
   22.1413   -5.9328    0.0000 C   0  0  0  0  0  0  0  0  0  0  0  0
   21.7059   -7.3682    0.0000 C   0  0  0  0  0  0  0  0  0  0  0  0
   21.1775   -8.7720    0.0000 C   0  0  0  0  0  0  0  0  0  0  0  0
   20.5585  -10.1383    0.0000 C   0  0  0  0  0  0  0  0  0  0  0  0
   19.8514  -11.4612    0.0000 C   0  0  0  0  0  0  0  0  0  0  0  0
   19.0593  -12.7350    0.0000 C   0  0  0  0  0  0  0  0  0  0  0  0
   18.1856  -13.9543    0.0000 C   0  0  0  0  0  0  0  0  0  0  0  0
   17.2340  -15.1138    0.0000 C   0  0  0  0  0  0  0  0  0  0  0  0
   16.2086  -16.2086    0.0000 C   0  0  0  0  0  0  0  0  0  0  0  0
   15.1138  -17.2340    0.0000 C   0  0  0  0  0  0  0  0  0  0  0  0
   13.9543  -18.1856    0.0000 C   0  0  0  0  0  0  0  0  0  0  0  0
   12.7350  -19.0593    0.0000 C   0  0  0  0  0  0  0  0  0  0  0  0
   11.4612  -19.8514    0.0000 C   0  0  0  0  0  0  0  0  0  0  0  0
   10.1383  -20.5585    0.0000 C   0  0  0  0  0  0  0  0  0  0  0  0
    8.7720  -21.1775    0.0000 C   0  0  0  0  0  0  0  0  0  0  0  0
    7.3682  -21.7059    0.0000 C   0  0  0  0  0  0  0  0  0  0  0  0
    5.9328  -22.1413    0.0000 C   0  0  0  0  0  0  0  0  0  0  0  0
    4.4719  -22.4820    0.0000 C   0  0  0  0  0  0  0  0  0  0  0  0
    2.9920  -22.7263    0.0000 C   0  0  0  0  0  0  0  0  0  0  0  0
    1.4992  -22.8733    0.0000 C   0  0  0  0  0  0  0  0  0  0  0  0
   -0.0000  -22.9224    0.0000 C   0  0  0  0  0  0  0  0  0  0  0  0
   -1.4992  -22.8733    0.0000 C   0  0  0  0  0  0  0  0  0  0  0  0
   -2.9920  -22.7263    0.0000 C   0  0  0  0  0  0  0  0  0  0  0  0
   -4.4719  -22.4820    0.0000 C   0  0  0  0  0  0  0  0  0  0  0  0
   -5.9328  -22.1413    0.0000 C   0  0  0  0  0  0  0  0  0  0  0  0
   -7.3682  -21.7059    0.0000 C   0  0  0  0  0  0  0  0  0  0  0  0
   -8.7720  -21.1775    0.0000 C   0  0  0  0  0  0  0  0  0  0  0  0
  -10.1383  -20.5585    0.0000 C   0  0  0  0  0  0  0  0  0  0  0  0
  -11.4612  -19.8514    0.0000 C   0  0  0  0  0  0  0  0  0  0  0  0
  -12.7350  -19.0593    0.0000 C   0  0  0  0  0  0  0  0  0  0  0  0
  -13.9543  -18.1856    0.0000 C   0  0  0  0  0  0  0  0  0  0  0  0
  -15.1138  -17.2340    0.0000 C   0  0  0  0  0  0  0  0  0  0  0  0
  -16.2086  -16.2086    0.0000 C   0  0  0  0  0  0  0  0  0  0  0  0
  -17.2340  -15.1138    0.0000 C   0  0  0  0  0  0  0  0  0  0  0  0
  -18.1856  -13.9543    0.0000 C   0  0  0  0  0  0  0  0  0  0  0  0
  -19.0593  -12.7350    0.0000 C   0  0  0  0  0  0  0  0  0  0  0  0
  -19.8514  -11.4612    0.0000 C   0  0  0  0  0  0  0  0  0  0  0  0
  -20.5585  -10.1383    0.0000 C   0  0  0  0  0  0  0  0  0  0  0  0
  -21.1775   -8.7720    0.0000 C   0  0  0  0  0  0  0  0  0  0  0  0
  -21.7059   -7.3682    0.0000 C   0  0  0  0  0  0  0  0  0  0  0  0
  -22.1413   -5.9328    0.0000 C   0  0  0  0  0  0  0  0  0  0  0  0
  -22.4820   -4.4719    0.0000 C   0  0  0  0  0  0  0  0  0  0  0  0
  -22.7263   -2.9920    0.0000 C   0  0  0  0  0  0  0  0  0  0  0  0
  -22.8733   -1.4992    0.0000 C   0  0  0  0  0  0  0  0  0  0  0  0
  -22.9224    0.0000    0.0000 C   0  0  0  0  0  0  0  0  0  0  0  0
  -22.8733    1.4992    0.0000 C   0  0  0  0  0  0  0  0  0  0  0  0
  -22.7263    2.9920    0.0000 C   0  0  0  0  0  0  0  0  0  0  0  0
  -22.4820    4.4719    0.0000 C   0  0  0  0  0  0  0  0  0  0  0  0
  -22.1413    5.9328    0.0000 C   0  0  0  0  0  0  0  0  0  0  0  0
  -21.7059    7.3682    0.0000 C   0  0  0  0  0  0  0  0  0  0  0  0
  -21.1775    8.7720    0.0000 C   0  0  0  0  0  0  0  0  0  0  0  0
  -20.5585   10.1383    0.0000 C   0  0  0  0  0  0  0  0  0  0  0  0
  -19.8514   11.4612    0.0000 C   0  0  0  0  0  0  0  0  0  0  0  0
  -19.0593   12.7350    0.0000 C   0  0  0  0  0  0  0  0  0  0  0  0
  -18.1856   13.9543    0.0000 C   0  0  0  0  0  0  0  0  0  0  0  0
  -17.2340   15.1138    0.0000 C   0  0  0  0  0  0  0  0  0  0  0  0
  -16.2086   16.2086    0.0000 C   0  0  0  0  0  0  0  0  0  0  0  0
  -15.1138   17.2340    0.0000 C   0  0  0  0  0  0  0  0  0  0  0  0
  -13.9543   18.1856    0.0000 C   0  0  0  0  0  0  0  0  0  0  0  0
  -12.7350   19.0593    0.0000 C   0  0  0  0  0  0  0  0  0  0  0  0
  -11.4612   19.8514    0.0000 C   0  0  0  0  0  0  0  0  0  0  0  0
  -10.1383   20.5585    0.0000 C   0  0  0  0  0  0  0  0  0  0  0  0
   -8.7720   21.1775    0.0000 C   0  0  0  0  0  0  0  0  0  0  0  0
   -7.3682   21.7059    0.0000 C   0  0  0  0  0  0  0  0  0  0  0  0
   -5.9328   22.1413    0.0000 C   0  0  0  0  0  0  0  0  0  0  0  0
   -4.4719   22.4820    0.0000 C   0  0  0  0  0  0  0  0  0  0  0  0
   -2.9920   22.7263    0.0000 C   0  0  0  0  0  0  0  0  0  0  0  0
   -1.4992   22.8733    0.0000 C   0  0  0  0  0  0  0  0  0  0  0  0
    0.0000   22.9224    0.0000 C   0  0  0  0  0  0  0  0  0  0  0  0
    1.4992   22.8733    0.0000 C   0  0  0  0  0  0  0  0  0  0  0  0
    2.9920   22.7263    0.0000 C   0  0  0  0  0  0  0  0  0  0  0  0
    4.4719   22.4820    0.0000 C   0  0  0  0  0  0  0  0  0  0  0  0
    5.9328   22.1413    0.0000 C   0  0  0  0  0  0  0  0  0  0  0  0
    7.3682   21.7059    0.0000 C   0  0  0  0  0  0  0  0  0  0  0  0
    8.7720   21.1775    0.0000 C   0  0  0  0  0  0  0  0  0  0  0  0
   10.1383   20.5585    0.0000 C   0  0  0  0  0  0  0  0  0  0  0  0
   11.4612   19.8514    0.0000 C   0  0  0  0  0  0  0  0  0  0  0  0
   12.7350   19.0593    0.0000 C   0  0  0  0  0  0  0  0  0  0  0  0
   13.9543   18.1856    0.0000 C   0  0  0  0  0  0  0  0  0  0  0  0
   15.1138   17.2340    0.0000 C   0  0  0  0  0  0  0  0  0  0  0  0
   16.2086   16.2086    0.0000 C   0  0  0  0  0  0  0  0  0  0  0  0
   17.2340   15.1138    0.0000 C   0  0  0  0  0  0  0  0  0  0  0  0
   18.1856   13.9543    0.0000 C   0  0  0  0  0  0  0  0  0  0  0  0
   19.0593   12.7350    0.0000 C   0  0  0  0  0  0  0  0  0  0  0  0
   19.8514   11.4612    0.0000 C   0  0  0  0  0  0  0  0  0  0  0  0
   20.5585   10.1383    0.0000 C   0  0  0  0  0  0  0  0  0  0  0  0
   21.1775    8.7720    0.0000 C   0  0  0  0  0  0  0  0  0  0  0  0
   21.7059    7.3682    0.0000 C   0  0  0  0  0  0  0  0  0  0  0  0
   22.1413    5.9328    0.0000 C   0  0  0  0  0  0  0  0  0  0  0  0
   22.4820    4.4719    0.0000 C   0  0  0  0  0  0  0  0  0  0  0  0
   22.7263    2.9920    0.0000 C   0  0  0  0  0  0  0  0  0  0  0  0
   22.8733    1.4992    0.0000 C   0  0  0  0  0  0  0  0  0  0  0  0
   24.3701    1.5973    0.0000 C   0  0  0  0  0  0  0  0  0  0  0  0
  1  2  1  0
  2  3  2  0
  3  4  1  0
  4  5  2  0
  5  6  1  0
  6  7  2  0
  7  8  1  0
  8  9  2  0
  9 10  1  0
 10 11  2  0
 11 12  1  0
 12 13  2  0
 13 14  1  0
 14 15  1  0
 15 16  1  0
 16 17  1  0
 17 18  1  0
 18 19  1  0
 19 20  1  0
 20 21  1  0
 21 22  1  0
 22 23  1  0
 23 24  1  0
 24 25  1  0
 25 26  1  0
 26 27  1  0
 27 28  1  0
 28 29  1  0
 29 30  1  0
 30 31  1  0
 31 32  1  0
 32 33  1  0
 33 34  1  0
 34 35  1  0
 35 36  1  0
 36 37  1  0
 37 38  1  0
 38 39  1  0
 39 40  1  0
 40 41  1  0
 41 42  1  0
 42 43  1  0
 43 44  1  0
 44 45  1  0
 45 46  1  0
 46 47  1  0
 47 48  1  0
 48 49  1  0
 49 50  1  0
 50 51  1  0
 51 52  1  0
 52 53  1  0
 53 54  1  0
 54 55  1  0
 55 56  1  0
 56 57  1  0
 57 58  1  0
 58 59  1  0
 59 60  1  0
 60 61  1  0
 61 62  1  0
 62 63  1  0
 63 64  1  0
 64 65  1  0
 65 66  1  0
 66 67  1  0
 67 68  1  0
 68 69  1  0
 69 70  1  0
 70 71  1  0
 71 72  1  0
 72 73  1  0
 73 74  1  0
 74 75  1  0
 75 76  1  0
 76 77  1  0
 77 78  1  0
 78 79  1  0
 79 80  1  0
 80 81  1  0
 81 82  1  0
 82 83  1  0
 83 84  1  0
 84 85  1  0
 85 86  1  0
 86 87  1  0
 87 88  1  0
 88 89  1  0
 89 90  1  0
 90 91  1  0
 91 92  1  0
 92 93  1  0
 93 94  1  0
 94 95  1  0
 95 96  1  0
 96 97  1  0
 97 98  1  0
 97  2  1  0
M  END
>  <Title>  (379) 
idAAMQgen10

$$$$

     RDKit          2D

  5  4  0  0  0  0  0  0  0  0999 V2000
    0.0000    0.0000    0.0000 C   0  0  0  0  0  0  0  0  0  0  0  0
    1.2990    0.7500    0.0000 C   0  0  0  0  0  0  0  0  0  0  0  0
    2.5981   -0.0000    0.0000 C   0  0  0  0  0  0  0  0  0  0  0  0
    1.2990    2.2500    0.0000 C   0  0  0  0  0  0  0  0  0  0  0  0
    1.2990    3.7500    0.0000 N   0  0  0  0  0  0  0  0  0  0  0  0
  1  2  1  0
  2  3  1  0
  2  4  1  0
  4  5  3  0
M  END
>  <Title>  (380) 
idAAMRgen10

$$$$

     RDKit          2D

102103  0  0  0  0  0  0  0  0999 V2000
   -2.1612   -1.0857    0.0000 C   0  0  0  0  0  0  0  0  0  0  0  0
   -2.4856    0.3788    0.0000 C   0  0  0  0  0  0  0  0  0  0  0  0
   -3.9598    0.1015    0.0000 C   0  0  0  0  0  0  0  0  0  0  0  0
   -5.4487   -0.0807    0.0000 C   0  0  0  0  0  0  0  0  0  0  0  0
   -6.9462   -0.1672    0.0000 C   0  0  0  0  0  0  0  0  0  0  0  0
   -8.4461   -0.1576    0.0000 C   0  0  0  0  0  0  0  0  0  0  0  0
   -9.9424   -0.0519    0.0000 C   0  0  0  0  0  0  0  0  0  0  0  0
  -11.4288    0.1494    0.0000 C   0  0  0  0  0  0  0  0  0  0  0  0
  -12.8993    0.4456    0.0000 C   0  0  0  0  0  0  0  0  0  0  0  0
  -14.3478    0.8354    0.0000 C   0  0  0  0  0  0  0  0  0  0  0  0
  -15.7683    1.3172    0.0000 C   0  0  0  0  0  0  0  0  0  0  0  0
  -17.1550    1.8890    0.0000 C   0  0  0  0  0  0  0  0  0  0  0  0
  -18.5023    2.5484    0.0000 C   0  0  0  0  0  0  0  0  0  0  0  0
  -19.8045    3.2929    0.0000 C   0  0  0  0  0  0  0  0  0  0  0  0
  -21.0564    4.1192    0.0000 C   0  0  0  0  0  0  0  0  0  0  0  0
  -22.2527    5.0241    0.0000 C   0  0  0  0  0  0  0  0  0  0  0  0
  -23.3886    6.0037    0.0000 C   0  0  0  0  0  0  0  0  0  0  0  0
  -24.4595    7.0541    0.0000 C   0  0  0  0  0  0  0  0  0  0  0  0
  -25.4608    8.1710    0.0000 C   0  0  0  0  0  0  0  0  0  0  0  0
  -26.3885    9.3497    0.0000 C   0  0  0  0  0  0  0  0  0  0  0  0
  -27.2387   10.5854    0.0000 C   0  0  0  0  0  0  0  0  0  0  0  0
  -28.0081   11.8731    0.0000 C   0  0  0  0  0  0  0  0  0  0  0  0
  -28.6933   13.2074    0.0000 C   0  0  0  0  0  0  0  0  0  0  0  0
  -29.2917   14.5829    0.0000 C   0  0  0  0  0  0  0  0  0  0  0  0
  -29.8007   15.9939    0.0000 C   0  0  0  0  0  0  0  0  0  0  0  0
  -30.2183   17.4346    0.0000 C   0  0  0  0  0  0  0  0  0  0  0  0
  -30.5427   18.8991    0.0000 C   0  0  0  0  0  0  0  0  0  0  0  0
  -30.7726   20.3814    0.0000 C   0  0  0  0  0  0  0  0  0  0  0  0
  -30.9070   21.8754    0.0000 C   0  0  0  0  0  0  0  0  0  0  0  0
  -30.9455   23.3749    0.0000 C   0  0  0  0  0  0  0  0  0  0  0  0
  -30.8878   24.8738    0.0000 C   0  0  0  0  0  0  0  0  0  0  0  0
  -30.7342   26.3659    0.0000 C   0  0  0  0  0  0  0  0  0  0  0  0
  -30.4853   27.8451    0.0000 C   0  0  0  0  0  0  0  0  0  0  0  0
  -30.1422   29.3053    0.0000 C   0  0  0  0  0  0  0  0  0  0  0  0
  -29.7062   30.7405    0.0000 C   0  0  0  0  0  0  0  0  0  0  0  0
  -29.1791   32.1449    0.0000 C   0  0  0  0  0  0  0  0  0  0  0  0
  -28.5632   33.5126    0.0000 C   0  0  0  0  0  0  0  0  0  0  0  0
  -27.8608   34.8380    0.0000 C   0  0  0  0  0  0  0  0  0  0  0  0
  -27.0750   36.1157    0.0000 C   0  0  0  0  0  0  0  0  0  0  0  0
  -26.2090   37.3404    0.0000 C   0  0  0  0  0  0  0  0  0  0  0  0
  -25.2663   38.5072    0.0000 C   0  0  0  0  0  0  0  0  0  0  0  0
  -24.2507   39.6111    0.0000 C   0  0  0  0  0  0  0  0  0  0  0  0
  -23.1665   40.6477    0.0000 C   0  0  0  0  0  0  0  0  0  0  0  0
  -22.0181   41.6127    0.0000 C   0  0  0  0  0  0  0  0  0  0  0  0
  -20.8103   42.5021    0.0000 C   0  0  0  0  0  0  0  0  0  0  0  0
  -19.5479   43.3124    0.0000 C   0  0  0  0  0  0  0  0  0  0  0  0
  -18.2363   44.0400    0.0000 C   0  0  0  0  0  0  0  0  0  0  0  0
  -16.8807   44.6822    0.0000 C   0  0  0  0  0  0  0  0  0  0  0  0
  -15.4867   45.2362    0.0000 C   0  0  0  0  0  0  0  0  0  0  0  0
  -14.0601   45.6997    0.0000 C   0  0  0  0  0  0  0  0  0  0  0  0
  -12.6068   46.0709    0.0000 C   0  0  0  0  0  0  0  0  0  0  0  0
  -11.1326   46.3482    0.0000 C   0  0  0  0  0  0  0  0  0  0  0  0
   -9.6438   46.5304    0.0000 C   0  0  0  0  0  0  0  0  0  0  0  0
   -8.1462   46.6169    0.0000 C   0  0  0  0  0  0  0  0  0  0  0  0
   -6.6463   46.6073    0.0000 C   0  0  0  0  0  0  0  0  0  0  0  0
   -5.1500   46.5016    0.0000 C   0  0  0  0  0  0  0  0  0  0  0  0
   -3.6636   46.3003    0.0000 C   0  0  0  0  0  0  0  0  0  0  0  0
   -2.1931   46.0041    0.0000 C   0  0  0  0  0  0  0  0  0  0  0  0
   -0.7446   45.6143    0.0000 C   0  0  0  0  0  0  0  0  0  0  0  0
    0.6759   45.1325    0.0000 C   0  0  0  0  0  0  0  0  0  0  0  0
    2.0626   44.5607    0.0000 C   0  0  0  0  0  0  0  0  0  0  0  0
    3.4099   43.9013    0.0000 C   0  0  0  0  0  0  0  0  0  0  0  0
    4.7121   43.1568    0.0000 C   0  0  0  0  0  0  0  0  0  0  0  0
    5.9640   42.3305    0.0000 C   0  0  0  0  0  0  0  0  0  0  0  0
    7.1603   41.4256    0.0000 C   0  0  0  0  0  0  0  0  0  0  0  0
    8.2962   40.4460    0.0000 C   0  0  0  0  0  0  0  0  0  0  0  0
    9.3670   39.3956    0.0000 C   0  0  0  0  0  0  0  0  0  0  0  0
   10.3683   38.2787    0.0000 C   0  0  0  0  0  0  0  0  0  0  0  0
   11.2960   37.1000    0.0000 C   0  0  0  0  0  0  0  0  0  0  0  0
   12.1463   35.8642    0.0000 C   0  0  0  0  0  0  0  0  0  0  0  0
   12.9157   34.5766    0.0000 C   0  0  0  0  0  0  0  0  0  0  0  0
   13.6009   33.2423    0.0000 C   0  0  0  0  0  0  0  0  0  0  0  0
   14.1993   31.8668    0.0000 C   0  0  0  0  0  0  0  0  0  0  0  0
   14.7083   30.4558    0.0000 C   0  0  0  0  0  0  0  0  0  0  0  0
   15.1259   29.0151    0.0000 C   0  0  0  0  0  0  0  0  0  0  0  0
   15.4503   27.5506    0.0000 C   0  0  0  0  0  0  0  0  0  0  0  0
   15.6802   26.0683    0.0000 C   0  0  0  0  0  0  0  0  0  0  0  0
   15.8146   24.5743    0.0000 C   0  0  0  0  0  0  0  0  0  0  0  0
   15.8531   23.0748    0.0000 C   0  0  0  0  0  0  0  0  0  0  0  0
   15.7954   21.5759    0.0000 C   0  0  0  0  0  0  0  0  0  0  0  0
   15.6418   20.0838    0.0000 C   0  0  0  0  0  0  0  0  0  0  0  0
   15.3929   18.6046    0.0000 C   0  0  0  0  0  0  0  0  0  0  0  0
   15.0498   17.1444    0.0000 C   0  0  0  0  0  0  0  0  0  0  0  0
   14.6138   15.7092    0.0000 C   0  0  0  0  0  0  0  0  0  0  0  0
   14.0867   14.3048    0.0000 C   0  0  0  0  0  0  0  0  0  0  0  0
   13.4707   12.9371    0.0000 C   0  0  0  0  0  0  0  0  0  0  0  0
   12.7684   11.6117    0.0000 C   0  0  0  0  0  0  0  0  0  0  0  0
   11.9826   10.3340    0.0000 C   0  0  0  0  0  0  0  0  0  0  0  0
   11.1166    9.1092    0.0000 C   0  0  0  0  0  0  0  0  0  0  0  0
   10.1738    7.9425    0.0000 C   0  0  0  0  0  0  0  0  0  0  0  0
    9.1583    6.8386    0.0000 C   0  0  0  0  0  0  0  0  0  0  0  0
    8.0741    5.8020    0.0000 C   0  0  0  0  0  0  0  0  0  0  0  0
    6.9257    4.8370    0.0000 C   0  0  0  0  0  0  0  0  0  0  0  0
    5.7179    3.9476    0.0000 C   0  0  0  0  0  0  0  0  0  0  0  0
    4.4555    3.1373    0.0000 C   0  0  0  0  0  0  0  0  0  0  0  0
    3.1439    2.4096    0.0000 C   0  0  0  0  0  0  0  0  0  0  0  0
    1.7883    1.7675    0.0000 C   0  0  0  0  0  0  0  0  0  0  0  0
    0.3943    1.2135    0.0000 C   0  0  0  0  0  0  0  0  0  0  0  0
    1.2760    0.0000    0.0000 C   0  0  0  0  0  0  0  0  0  0  0  0
    0.3943   -1.2135    0.0000 C   0  0  0  0  0  0  0  0  0  0  0  0
   -1.0323   -0.7500    0.0000 C   0  0  0  0  0  0  0  0  0  0  0  0
   -1.0323    0.7500    0.0000 C   0  0  0  0  0  0  0  0  0  0  0  0
  1  2  1  0
  2  3  1  0
  3  4  1  0
  4  5  1  0
  5  6  1  0
  6  7  1  0
  7  8  1  0
  8  9  1  0
  9 10  1  0
 10 11  1  0
 11 12  1  0
 12 13  1  0
 13 14  1  0
 14 15  1  0
 15 16  1  0
 16 17  1  0
 17 18  1  0
 18 19  1  0
 19 20  1  0
 20 21  1  0
 21 22  1  0
 22 23  1  0
 23 24  1  0
 24 25  1  0
 25 26  1  0
 26 27  1  0
 27 28  1  0
 28 29  1  0
 29 30  1  0
 30 31  1  0
 31 32  1  0
 32 33  1  0
 33 34  1  0
 34 35  1  0
 35 36  1  0
 36 37  1  0
 37 38  1  0
 38 39  1  0
 39 40  1  0
 40 41  1  0
 41 42  1  0
 42 43  1  0
 43 44  1  0
 44 45  1  0
 45 46  1  0
 46 47  1  0
 47 48  1  0
 48 49  1  0
 49 50  1  0
 50 51  1  0
 51 52  1  0
 52 53  1  0
 53 54  1  0
 54 55  1  0
 55 56  1  0
 56 57  1  0
 57 58  1  0
 58 59  1  0
 59 60  1  0
 60 61  1  0
 61 62  1  0
 62 63  1  0
 63 64  1  0
 64 65  1  0
 65 66  1  0
 66 67  1  0
 67 68  1  0
 68 69  1  0
 69 70  1  0
 70 71  1  0
 71 72  1  0
 72 73  1  0
 73 74  1  0
 74 75  1  0
 75 76  2  0
 76 77  1  0
 77 78  2  0
 78 79  1  0
 79 80  2  0
 80 81  1  0
 81 82  2  0
 82 83  1  0
 83 84  2  0
 84 85  1  0
 85 86  2  0
 86 87  1  0
 87 88  2  0
 88 89  1  0
 89 90  2  0
 90 91  1  0
 91 92  2  0
 92 93  1  0
 93 94  2  0
 94 95  1  0
 95 96  2  0
 96 97  1  0
 97 98  2  0
 98 99  1  0
 99100  2  0
100101  1  0
101102  2  0
102  2  1  0
102 98  1  0
M  END
>  <Title>  (381) 
idAAMSgen10

$$$$

     RDKit          2D

  8  9  0  0  0  0  0  0  0  0999 V2000
   -0.0000   -4.0981    0.0000 C   0  0  0  0  0  0  0  0  0  0  0  0
   -0.0000   -2.5981    0.0000 C   0  0  0  0  0  0  0  0  0  0  0  0
    0.7500   -1.2990    0.0000 C   0  0  0  0  0  0  0  0  0  0  0  0
    1.5000    0.0000    0.0000 C   0  0  0  0  0  0  0  0  0  0  0  0
    0.7500    1.2990    0.0000 C   0  0  0  0  0  0  0  0  0  0  0  0
   -0.7500    1.2990    0.0000 C   0  0  0  0  0  0  0  0  0  0  0  0
   -1.5000    0.0000    0.0000 C   0  0  0  0  0  0  0  0  0  0  0  0
   -0.7500   -1.2990    0.0000 C   0  0  0  0  0  0  0  0  0  0  0  0
  1  2  1  0
  2  3  1  0
  3  4  2  0
  4  5  1  0
  5  6  2  0
  6  7  1  0
  7  8  2  0
  8  2  1  0
  8  3  1  0
M  END
>  <Title>  (382) 
idAAMTgen10

$$$$

     RDKit          2D

 11 11  0  0  0  0  0  0  0  0999 V2000
    5.7760   -2.5981    0.0000 C   0  0  0  0  0  0  0  0  0  0  0  0
    5.0260   -1.2990    0.0000 C   0  0  0  0  0  0  0  0  0  0  0  0
    3.5260   -1.2990    0.0000 C   0  0  0  0  0  0  0  0  0  0  0  0
    2.7760    0.0000    0.0000 C   0  0  0  0  0  0  0  0  0  0  0  0
    1.2760    0.0000    0.0000 C   0  0  0  0  0  0  0  0  0  0  0  0
    0.3943    1.2135    0.0000 C   0  0  0  0  0  0  0  0  0  0  0  0
   -1.0323    0.7500    0.0000 C   0  0  0  0  0  0  0  0  0  0  0  0
   -2.2458    1.6317    0.0000 C   0  0  0  0  0  0  0  0  0  0  0  0
   -1.0323   -0.7500    0.0000 C   0  0  0  0  0  0  0  0  0  0  0  0
   -2.2458   -1.6317    0.0000 C   0  0  0  0  0  0  0  0  0  0  0  0
    0.3943   -1.2135    0.0000 N   0  0  0  0  0  0  0  0  0  0  0  0
  1  2  1  0
  2  3  1  0
  3  4  1  0
  4  5  1  0
  5  6  2  0
  6  7  1  0
  7  8  1  0
  7  9  2  0
  9 10  1  0
  9 11  1  0
 11  5  1  0
M  END
>  <Title>  (383) 
idAAMUgen10

$$$$

     RDKit          2D

 11 11  0  0  0  0  0  0  0  0999 V2000
    7.2760   -0.0000    0.0000 C   0  0  0  0  0  0  0  0  0  0  0  0
    5.7760   -0.0000    0.0000 C   0  0  0  0  0  0  0  0  0  0  0  0
    4.2760   -0.0000    0.0000 C   0  0  0  0  0  0  0  0  0  0  0  0
    2.7760    0.0000    0.0000 C   0  0  0  0  0  0  0  0  0  0  0  0
    1.2760    0.0000    0.0000 C   0  0  0  0  0  0  0  0  0  0  0  0
    0.3943    1.2135    0.0000 C   0  0  0  0  0  0  0  0  0  0  0  0
   -1.0323    0.7500    0.0000 C   0  0  0  0  0  0  0  0  0  0  0  0
   -2.2458    1.6317    0.0000 C   0  0  0  0  0  0  0  0  0  0  0  0
   -1.0323   -0.7500    0.0000 C   0  0  0  0  0  0  0  0  0  0  0  0
   -2.2458   -1.6317    0.0000 N   0  0  0  0  0  0  0  0  0  0  0  0
    0.3943   -1.2135    0.0000 C   0  0  0  0  0  0  0  0  0  0  0  0
  1  2  3  0
  2  3  1  0
  3  4  3  0
  4  5  1  0
  5  6  2  0
  6  7  1  0
  7  8  1  0
  7  9  1  0
  9 10  2  0
  9 11  1  0
 11  5  1  0
M  END
>  <Title>  (384) 
idAAMVgen10

$$$$

     RDKit          2D

 19 20  0  0  0  0  0  0  0  0999 V2000
    7.5000    0.0000    0.0000 C   0  0  0  0  0  0  0  0  0  0  0  0
    6.0000    0.0000    0.0000 C   0  0  0  0  0  0  0  0  0  0  0  0
    4.5000    0.0000    0.0000 C   0  0  0  0  0  0  0  0  0  0  0  0
    3.0000    0.0000    0.0000 C   0  0  0  0  0  0  0  0  0  0  0  0
    1.5000    0.0000    0.0000 C   0  0  0  0  0  0  0  0  0  0  0  0
    0.7500   -1.2990    0.0000 C   0  0  0  0  0  0  0  0  0  0  0  0
   -0.7500   -1.2990    0.0000 C   0  0  0  0  0  0  0  0  0  0  0  0
   -1.5000    0.0000    0.0000 C   0  0  0  0  0  0  0  0  0  0  0  0
   -0.7500    1.2990    0.0000 C   0  0  0  0  0  0  0  0  0  0  0  0
    0.7500    1.2990    0.0000 C   0  0  0  0  0  0  0  0  0  0  0  0
    1.5000    2.5981    0.0000 N   0  0  0  0  0  0  0  0  0  0  0  0
    0.7500    3.8971    0.0000 C   0  0  0  0  0  0  0  0  0  0  0  0
    1.5000    5.1962    0.0000 C   0  0  0  0  0  0  0  0  0  0  0  0
    3.0000    5.1962    0.0000 C   0  0  0  0  0  0  0  0  0  0  0  0
    3.7500    6.4952    0.0000 C   0  0  0  0  0  0  0  0  0  0  0  0
    3.0000    7.7942    0.0000 C   0  0  0  0  0  0  0  0  0  0  0  0
    1.5000    7.7942    0.0000 C   0  0  0  0  0  0  0  0  0  0  0  0
    0.7500    6.4952    0.0000 C   0  0  0  0  0  0  0  0  0  0  0  0
   -0.7500    6.4952    0.0000 O   0  0  0  0  0  0  0  0  0  0  0  0
  1  2  3  0
  2  3  1  0
  3  4  3  0
  4  5  1  0
  5  6  2  0
  6  7  1  0
  7  8  2  0
  8  9  1  0
  9 10  2  0
 10 11  1  0
 11 12  1  0
 12 13  1  0
 13 14  2  0
 14 15  1  0
 15 16  2  0
 16 17  1  0
 17 18  2  0
 18 19  1  0
 10  5  1  0
 18 13  1  0
M  END
>  <Title>  (385) 
idAAMWgen10

$$$$

     RDKit          2D

  8  8  0  0  0  0  0  0  0  0999 V2000
    4.5000    0.0000    0.0000 C   0  0  0  0  0  0  0  0  0  0  0  0
    3.0000    0.0000    0.0000 C   0  0  0  0  0  0  0  0  0  0  0  0
    1.5000    0.0000    0.0000 C   0  0  0  0  0  0  0  0  0  0  0  0
    0.7500   -1.2990    0.0000 C   0  0  0  0  0  0  0  0  0  0  0  0
   -0.7500   -1.2990    0.0000 C   0  0  0  0  0  0  0  0  0  0  0  0
   -1.5000    0.0000    0.0000 C   0  0  0  0  0  0  0  0  0  0  0  0
   -0.7500    1.2990    0.0000 C   0  0  0  0  0  0  0  0  0  0  0  0
    0.7500    1.2990    0.0000 C   0  0  0  0  0  0  0  0  0  0  0  0
  1  2  3  0
  2  3  1  0
  3  4  1  0
  4  5  2  0
  5  6  1  0
  6  7  1  0
  7  8  1  0
  8  3  1  0
M  END
>  <Title>  (386) 
idAAMXgen10

$$$$

     RDKit          2D

 51 51  0  0  0  0  0  0  0  0999 V2000
   14.7059   -0.0000    0.0000 C   0  0  0  0  0  0  0  0  0  0  0  0
   13.2059   -0.0000    0.0000 C   0  0  0  0  0  0  0  0  0  0  0  0
   11.7059    0.0000    0.0000 C   0  0  0  0  0  0  0  0  0  0  0  0
   11.6098    1.4969    0.0000 C   0  0  0  0  0  0  0  0  0  0  0  0
   11.3231    2.9693    0.0000 C   0  0  0  0  0  0  0  0  0  0  0  0
   10.8504    4.3928    0.0000 C   0  0  0  0  0  0  0  0  0  0  0  0
   10.1996    5.7443    0.0000 C   0  0  0  0  0  0  0  0  0  0  0  0
    9.3813    7.0014    0.0000 C   0  0  0  0  0  0  0  0  0  0  0  0
    8.4089    8.1436    0.0000 C   0  0  0  0  0  0  0  0  0  0  0  0
    7.2985    9.1520    0.0000 C   0  0  0  0  0  0  0  0  0  0  0  0
    6.0683   10.0102    0.0000 C   0  0  0  0  0  0  0  0  0  0  0  0
    4.7384   10.7040    0.0000 C   0  0  0  0  0  0  0  0  0  0  0  0
    3.3307   11.2221    0.0000 C   0  0  0  0  0  0  0  0  0  0  0  0
    1.8683   11.5559    0.0000 C   0  0  0  0  0  0  0  0  0  0  0  0
    0.3752   11.6999    0.0000 C   0  0  0  0  0  0  0  0  0  0  0  0
   -1.1240   11.6518    0.0000 C   0  0  0  0  0  0  0  0  0  0  0  0
   -2.6048   11.4124    0.0000 C   0  0  0  0  0  0  0  0  0  0  0  0
   -4.0428   10.9856    0.0000 C   0  0  0  0  0  0  0  0  0  0  0  0
   -5.4144   10.3784    0.0000 C   0  0  0  0  0  0  0  0  0  0  0  0
   -6.6971    9.6009    0.0000 C   0  0  0  0  0  0  0  0  0  0  0  0
   -7.8699    8.6656    0.0000 C   0  0  0  0  0  0  0  0  0  0  0  0
   -8.9134    7.5881    0.0000 C   0  0  0  0  0  0  0  0  0  0  0  0
   -9.8106    6.3860    0.0000 C   0  0  0  0  0  0  0  0  0  0  0  0
  -10.5467    5.0790    0.0000 C   0  0  0  0  0  0  0  0  0  0  0  0
  -11.1096    3.6886    0.0000 C   0  0  0  0  0  0  0  0  0  0  0  0
  -11.4900    2.2377    0.0000 C   0  0  0  0  0  0  0  0  0  0  0  0
  -11.6819    0.7500    0.0000 C   0  0  0  0  0  0  0  0  0  0  0  0
  -11.6819   -0.7500    0.0000 C   0  0  0  0  0  0  0  0  0  0  0  0
  -11.4900   -2.2377    0.0000 C   0  0  0  0  0  0  0  0  0  0  0  0
  -11.1096   -3.6886    0.0000 C   0  0  0  0  0  0  0  0  0  0  0  0
  -10.5467   -5.0790    0.0000 C   0  0  0  0  0  0  0  0  0  0  0  0
   -9.8106   -6.3860    0.0000 C   0  0  0  0  0  0  0  0  0  0  0  0
   -8.9134   -7.5881    0.0000 C   0  0  0  0  0  0  0  0  0  0  0  0
   -7.8699   -8.6656    0.0000 C   0  0  0  0  0  0  0  0  0  0  0  0
   -6.6971   -9.6009    0.0000 C   0  0  0  0  0  0  0  0  0  0  0  0
   -5.4144  -10.3784    0.0000 C   0  0  0  0  0  0  0  0  0  0  0  0
   -4.0428  -10.9856    0.0000 C   0  0  0  0  0  0  0  0  0  0  0  0
   -2.6048  -11.4124    0.0000 C   0  0  0  0  0  0  0  0  0  0  0  0
   -1.1240  -11.6518    0.0000 C   0  0  0  0  0  0  0  0  0  0  0  0
    0.3752  -11.6999    0.0000 C   0  0  0  0  0  0  0  0  0  0  0  0
    1.8683  -11.5559    0.0000 C   0  0  0  0  0  0  0  0  0  0  0  0
    3.3307  -11.2221    0.0000 C   0  0  0  0  0  0  0  0  0  0  0  0
    4.7384  -10.7040    0.0000 C   0  0  0  0  0  0  0  0  0  0  0  0
    6.0683  -10.0102    0.0000 C   0  0  0  0  0  0  0  0  0  0  0  0
    7.2985   -9.1520    0.0000 C   0  0  0  0  0  0  0  0  0  0  0  0
    8.4089   -8.1436    0.0000 C   0  0  0  0  0  0  0  0  0  0  0  0
    9.3813   -7.0014    0.0000 C   0  0  0  0  0  0  0  0  0  0  0  0
   10.1996   -5.7443    0.0000 C   0  0  0  0  0  0  0  0  0  0  0  0
   10.8504   -4.3928    0.0000 C   0  0  0  0  0  0  0  0  0  0  0  0
   11.3231   -2.9693    0.0000 C   0  0  0  0  0  0  0  0  0  0  0  0
   11.6098   -1.4969    0.0000 C   0  0  0  0  0  0  0  0  0  0  0  0
  1  2  3  0
  2  3  1  0
  3  4  1  0
  4  5  1  0
  5  6  1  0
  6  7  1  0
  7  8  1  0
  8  9  1  0
  9 10  1  0
 10 11  1  0
 11 12  1  0
 12 13  1  0
 13 14  1  0
 14 15  1  0
 15 16  1  0
 16 17  1  0
 17 18  1  0
 18 19  1  0
 19 20  1  0
 20 21  1  0
 21 22  1  0
 22 23  1  0
 23 24  1  0
 24 25  1  0
 25 26  1  0
 26 27  1  0
 27 28  1  0
 28 29  1  0
 29 30  1  0
 30 31  1  0
 31 32  1  0
 32 33  1  0
 33 34  1  0
 34 35  1  0
 35 36  1  0
 36 37  1  0
 37 38  1  0
 38 39  1  0
 39 40  1  0
 40 41  1  0
 41 42  1  0
 42 43  1  0
 43 44  1  0
 44 45  1  0
 45 46  1  0
 46 47  1  0
 47 48  1  0
 48 49  1  0
 49 50  1  0
 50 51  1  0
 51  3  1  0
M  END
>  <Title>  (387) 
idAAMYgen10

$$$$

     RDKit          2D

 11 11  0  0  0  0  0  0  0  0999 V2000
    7.7286   -0.0000    0.0000 C   0  0  0  0  0  0  0  0  0  0  0  0
    6.2286   -0.0000    0.0000 C   0  0  0  0  0  0  0  0  0  0  0  0
    4.7286   -0.0000    0.0000 C   0  0  0  0  0  0  0  0  0  0  0  0
    3.2286   -0.0000    0.0000 C   0  0  0  0  0  0  0  0  0  0  0  0
    1.7286    0.0000    0.0000 C   0  0  0  0  0  0  0  0  0  0  0  0
    1.0777    1.3515    0.0000 C   0  0  0  0  0  0  0  0  0  0  0  0
   -0.3846    1.6852    0.0000 C   0  0  0  0  0  0  0  0  0  0  0  0
   -1.5574    0.7500    0.0000 C   0  0  0  0  0  0  0  0  0  0  0  0
   -1.5574   -0.7500    0.0000 C   0  0  0  0  0  0  0  0  0  0  0  0
   -0.3846   -1.6852    0.0000 C   0  0  0  0  0  0  0  0  0  0  0  0
    1.0777   -1.3515    0.0000 C   0  0  0  0  0  0  0  0  0  0  0  0
  1  2  3  0
  2  3  1  0
  3  4  3  0
  4  5  1  0
  5  6  2  0
  6  7  1  0
  7  8  1  0
  8  9  2  0
  9 10  1  0
 10 11  2  0
 11  5  1  0
M  END
>  <Title>  (388) 
idAAMZgen10

$$$$

     RDKit          2D

 19 21  0  0  0  0  0  0  0  0999 V2000
   -6.4680   -0.1040    0.0000 C   0  0  0  0  0  0  0  0  0  0  0  0
   -6.0798    1.3449    0.0000 C   0  0  0  0  0  0  0  0  0  0  0  0
   -5.6915    2.7938    0.0000 C   0  0  0  0  0  0  0  0  0  0  0  0
   -6.7522    3.8544    0.0000 C   0  0  0  0  0  0  0  0  0  0  0  0
   -6.3640    5.3033    0.0000 C   0  0  0  0  0  0  0  0  0  0  0  0
   -4.9151    5.6915    0.0000 C   0  0  0  0  0  0  0  0  0  0  0  0
   -3.8544    4.6309    0.0000 C   0  0  0  0  0  0  0  0  0  0  0  0
   -4.2426    3.1820    0.0000 C   0  0  0  0  0  0  0  0  0  0  0  0
   -3.1820    2.1213    0.0000 C   0  0  0  0  0  0  0  0  0  0  0  0
   -1.7331    2.5095    0.0000 O   0  0  0  0  0  0  0  0  0  0  0  0
   -3.5702    0.6724    0.0000 O   0  0  0  0  0  0  0  0  0  0  0  0
   -2.5095   -0.3882    0.0000 C   0  0  0  0  0  0  0  0  0  0  0  0
   -2.8978   -1.8371    0.0000 N   0  0  0  0  0  0  0  0  0  0  0  0
   -1.8371   -2.8978    0.0000 N   0  0  0  0  0  0  0  0  0  0  0  0
   -0.3882   -2.5095    0.0000 N   0  0  0  0  0  0  0  0  0  0  0  0
   -0.0000   -1.0607    0.0000 N   0  0  0  0  0  0  0  0  0  0  0  0
    1.0607    0.0000    0.0000 C   0  0  0  0  0  0  0  0  0  0  0  0
    0.0000    1.0607    0.0000 C   0  0  0  0  0  0  0  0  0  0  0  0
   -1.0607    0.0000    0.0000 C   0  0  0  0  0  0  0  0  0  0  0  0
  1  2  3  0
  2  3  1  0
  3  4  2  0
  4  5  1  0
  5  6  2  0
  6  7  1  0
  7  8  2  0
  8  9  1  0
  9 10  2  0
  9 11  1  0
 11 12  1  0
 12 13  2  0
 13 14  1  0
 14 15  2  0
 15 16  1  0
 16 17  1  0
 17 18  1  0
 18 19  2  0
  8  3  1  0
 19 12  1  0
 19 16  1  0
M  END
>  <Title>  (389) 
idAANAgen10

$$$$

     RDKit          2D

 10 10  0  0  0  0  0  0  0  0999 V2000
    5.0260   -1.2990    0.0000 C   0  0  0  0  0  0  0  0  0  0  0  0
    3.5260   -1.2990    0.0000 C   0  0  0  0  0  0  0  0  0  0  0  0
    2.7760   -2.5981    0.0000 O   0  0  0  0  0  0  0  0  0  0  0  0
    2.7760    0.0000    0.0000 N   0  0  0  0  0  0  0  0  0  0  0  0
    1.2760    0.0000    0.0000 C   0  0  0  0  0  0  0  0  0  0  0  0
    0.3943    1.2135    0.0000 N   0  0  0  0  0  0  0  0  0  0  0  0
   -1.0323    0.7500    0.0000 N   0  0  0  0  0  0  0  0  0  0  0  0
   -1.0323   -0.7500    0.0000 C   0  0  0  0  0  0  0  0  0  0  0  0
   -2.2458   -1.6317    0.0000 C   0  0  0  0  0  0  0  0  0  0  0  0
    0.3943   -1.2135    0.0000 C   0  0  0  0  0  0  0  0  0  0  0  0
  1  2  1  0
  2  3  2  0
  2  4  1  0
  4  5  1  0
  5  6  2  0
  6  7  1  0
  7  8  2  0
  8  9  1  0
  8 10  1  0
 10  5  1  0
M  END
>  <Title>  (390) 
idAANBgen10

$$$$

     RDKit          2D

 24 26  0  0  0  0  0  0  0  0999 V2000
    7.5000    0.0000    0.0000 C   0  0  0  0  0  0  0  0  0  0  0  0
    6.0000    0.0000    0.0000 C   0  0  0  0  0  0  0  0  0  0  0  0
    4.5000    0.0000    0.0000 C   0  0  0  0  0  0  0  0  0  0  0  0
    3.0000    0.0000    0.0000 C   0  0  0  0  0  0  0  0  0  0  0  0
    1.5000    0.0000    0.0000 C   0  0  0  0  0  0  0  0  0  0  0  0
    0.7500   -1.2990    0.0000 C   0  0  0  0  0  0  0  0  0  0  0  0
   -0.7500   -1.2990    0.0000 C   0  0  0  0  0  0  0  0  0  0  0  0
   -1.5000   -2.5981    0.0000 C   0  0  0  0  0  0  0  0  0  0  0  0
   -1.5000    0.0000    0.0000 C   0  0  0  0  0  0  0  0  0  0  0  0
   -0.7500    1.2990    0.0000 C   0  0  0  0  0  0  0  0  0  0  0  0
    0.7500    1.2990    0.0000 C   0  0  0  0  0  0  0  0  0  0  0  0
    1.5000    2.5981    0.0000 C   0  0  0  0  0  0  0  0  0  0  0  0
    3.0000    2.5981    0.0000 O   0  0  0  0  0  0  0  0  0  0  0  0
    0.7500    3.8971    0.0000 N   0  0  0  0  0  0  0  0  0  0  0  0
   -0.7418    4.0539    0.0000 C   0  0  0  0  0  0  0  0  0  0  0  0
   -1.0537    5.5211    0.0000 C   0  0  0  0  0  0  0  0  0  0  0  0
    0.2454    6.2711    0.0000 C   0  0  0  0  0  0  0  0  0  0  0  0
    0.4022    7.7629    0.0000 N   0  0  0  0  0  0  0  0  0  0  0  0
    1.7725    8.3730    0.0000 C   0  0  0  0  0  0  0  0  0  0  0  0
    1.9293    9.8648    0.0000 C   0  0  0  0  0  0  0  0  0  0  0  0
    0.7158   10.7465    0.0000 N   0  0  0  0  0  0  0  0  0  0  0  0
   -0.6546   10.1364    0.0000 N   0  0  0  0  0  0  0  0  0  0  0  0
   -0.8113    8.6446    0.0000 N   0  0  0  0  0  0  0  0  0  0  0  0
    1.3601    5.2674    0.0000 C   0  0  0  0  0  0  0  0  0  0  0  0
  1  2  3  0
  2  3  1  0
  3  4  3  0
  4  5  1  0
  5  6  2  0
  6  7  1  0
  7  8  1  0
  7  9  2  0
  9 10  1  0
 10 11  2  0
 11 12  1  0
 12 13  2  0
 12 14  1  0
 14 15  1  0
 15 16  1  0
 16 17  1  0
 17 18  1  0
 18 19  1  0
 19 20  1  0
 20 21  2  0
 21 22  1  0
 22 23  2  0
 17 24  1  0
 11  5  1  0
 24 14  1  0
 23 18  1  0
M  END
>  <Title>  (391) 
idAANCgen10

$$$$

     RDKit          2D

 13 13  0  0  0  0  0  0  0  0999 V2000
    5.4786   -1.2990    0.0000 C   0  0  0  0  0  0  0  0  0  0  0  0
    3.9786   -1.2990    0.0000 C   0  0  0  0  0  0  0  0  0  0  0  0
    3.2286   -2.5981    0.0000 O   0  0  0  0  0  0  0  0  0  0  0  0
    3.2286   -0.0000    0.0000 N   0  0  0  0  0  0  0  0  0  0  0  0
    1.7286    0.0000    0.0000 C   0  0  0  0  0  0  0  0  0  0  0  0
    1.0777    1.3515    0.0000 C   0  0  0  0  0  0  0  0  0  0  0  0
   -0.3846    1.6852    0.0000 C   0  0  0  0  0  0  0  0  0  0  0  0
   -1.5574    0.7500    0.0000 C   0  0  0  0  0  0  0  0  0  0  0  0
   -1.5574   -0.7500    0.0000 C   0  0  0  0  0  0  0  0  0  0  0  0
   -0.3846   -1.6852    0.0000 C   0  0  0  0  0  0  0  0  0  0  0  0
   -0.7184   -3.1476    0.0000 O   0  0  0  0  0  0  0  0  0  0  0  0
    1.0777   -1.3515    0.0000 C   0  0  0  0  0  0  0  0  0  0  0  0
    2.0130   -2.5242    0.0000 O   0  0  0  0  0  0  0  0  0  0  0  0
  1  2  1  0
  2  3  2  0
  2  4  1  0
  4  5  1  0
  5  6  2  0
  6  7  1  0
  7  8  1  0
  8  9  1  0
  9 10  1  0
 10 11  1  0
 10 12  1  0
 12 13  1  0
 12  5  1  0
M  END
>  <Title>  (392) 
idAANDgen10

$$$$

     RDKit          2D

 14 14  0  0  0  0  0  0  0  0999 V2000
   10.5000    0.0000    0.0000 C   0  0  0  0  0  0  0  0  0  0  0  0
    9.0000    0.0000    0.0000 C   0  0  0  0  0  0  0  0  0  0  0  0
    7.5000    0.0000    0.0000 C   0  0  0  0  0  0  0  0  0  0  0  0
    6.0000    0.0000    0.0000 C   0  0  0  0  0  0  0  0  0  0  0  0
    4.5000    0.0000    0.0000 C   0  0  0  0  0  0  0  0  0  0  0  0
    3.0000    0.0000    0.0000 C   0  0  0  0  0  0  0  0  0  0  0  0
    1.5000    0.0000    0.0000 C   0  0  0  0  0  0  0  0  0  0  0  0
    0.7500   -1.2990    0.0000 C   0  0  0  0  0  0  0  0  0  0  0  0
    1.5000   -2.5981    0.0000 C   0  0  0  0  0  0  0  0  0  0  0  0
   -0.7500   -1.2990    0.0000 C   0  0  0  0  0  0  0  0  0  0  0  0
   -1.5000    0.0000    0.0000 C   0  0  0  0  0  0  0  0  0  0  0  0
   -0.7500    1.2990    0.0000 C   0  0  0  0  0  0  0  0  0  0  0  0
    0.7500    1.2990    0.0000 C   0  0  0  0  0  0  0  0  0  0  0  0
    1.5000    2.5981    0.0000 C   0  0  0  0  0  0  0  0  0  0  0  0
  1  2  3  0
  2  3  1  0
  3  4  3  0
  4  5  1  0
  5  6  3  0
  6  7  1  0
  7  8  2  0
  8  9  1  0
  8 10  1  0
 10 11  2  0
 11 12  1  0
 12 13  2  0
 13 14  1  0
 13  7  1  0
M  END
>  <Title>  (393) 
idAANEgen10

$$$$

     RDKit          2D

 10 10  0  0  0  0  0  0  0  0999 V2000
    7.2760   -0.0000    0.0000 C   0  0  0  0  0  0  0  0  0  0  0  0
    5.7760   -0.0000    0.0000 C   0  0  0  0  0  0  0  0  0  0  0  0
    4.2760   -0.0000    0.0000 C   0  0  0  0  0  0  0  0  0  0  0  0
    2.7760    0.0000    0.0000 C   0  0  0  0  0  0  0  0  0  0  0  0
    1.2760    0.0000    0.0000 C   0  0  0  0  0  0  0  0  0  0  0  0
    0.3943    1.2135    0.0000 C   0  0  0  0  0  0  0  0  0  0  0  0
   -1.0323    0.7500    0.0000 C   0  0  0  0  0  0  0  0  0  0  0  0
   -2.2458    1.6317    0.0000 C   0  0  0  0  0  0  0  0  0  0  0  0
   -1.0323   -0.7500    0.0000 C   0  0  0  0  0  0  0  0  0  0  0  0
    0.3943   -1.2135    0.0000 C   0  0  0  0  0  0  0  0  0  0  0  0
  1  2  3  0
  2  3  1  0
  3  4  3  0
  4  5  1  0
  5  6  2  0
  6  7  1  0
  7  8  1  0
  7  9  2  0
  9 10  1  0
 10  5  1  0
M  END
>  <Title>  (394) 
idAANFgen10

$$$$

     RDKit          2D

  9  9  0  0  0  0  0  0  0  0999 V2000
    3.2286   -0.0000    0.0000 C   0  0  0  0  0  0  0  0  0  0  0  0
    1.7286    0.0000    0.0000 C   0  0  0  0  0  0  0  0  0  0  0  0
    1.0777    1.3515    0.0000 C   0  0  0  0  0  0  0  0  0  0  0  0
   -0.3846    1.6852    0.0000 C   0  0  0  0  0  0  0  0  0  0  0  0
   -1.5574    0.7500    0.0000 C   0  0  0  0  0  0  0  0  0  0  0  0
   -1.5574   -0.7500    0.0000 C   0  0  0  0  0  0  0  0  0  0  0  0
   -0.3846   -1.6852    0.0000 C   0  0  0  0  0  0  0  0  0  0  0  0
   -0.7184   -3.1476    0.0000 C   0  0  0  0  0  0  0  0  0  0  0  0
    1.0777   -1.3515    0.0000 C   0  0  0  0  0  0  0  0  0  0  0  0
  1  2  1  0
  2  3  2  0
  3  4  1  0
  4  5  1  0
  5  6  1  0
  6  7  1  0
  7  8  1  0
  7  9  1  0
  9  2  1  0
M  END
>  <Title>  (395) 
idAANGgen10

$$$$

     RDKit          2D

 40 45  0  0  0  0  0  0  0  0999 V2000
    2.9692   -9.5132    0.0000 C   0  0  0  0  0  0  0  0  0  0  0  0
    2.1358   -8.2660    0.0000 C   0  0  0  0  0  0  0  0  0  0  0  0
    3.1965   -7.2054    0.0000 C   0  0  0  0  0  0  0  0  0  0  0  0
    3.7705   -5.8195    0.0000 C   0  0  0  0  0  0  0  0  0  0  0  0
    3.7705   -4.3195    0.0000 C   0  0  0  0  0  0  0  0  0  0  0  0
    5.2417   -4.0269    0.0000 C   0  0  0  0  0  0  0  0  0  0  0  0
    3.1965   -2.9337    0.0000 N   0  0  0  0  0  0  0  0  0  0  0  0
    4.4437   -2.1004    0.0000 C   0  0  0  0  0  0  0  0  0  0  0  0
    2.1358   -1.8731    0.0000 C   0  0  0  0  0  0  0  0  0  0  0  0
    2.9692   -0.6259    0.0000 O   0  0  0  0  0  0  0  0  0  0  0  0
    0.7500   -1.2990    0.0000 C   0  0  0  0  0  0  0  0  0  0  0  0
    1.5000    0.0000    0.0000 C   0  0  0  0  0  0  0  0  0  0  0  0
    0.7500    1.2990    0.0000 C   0  0  0  0  0  0  0  0  0  0  0  0
   -0.7500    1.2990    0.0000 C   0  0  0  0  0  0  0  0  0  0  0  0
   -1.5000    0.0000    0.0000 C   0  0  0  0  0  0  0  0  0  0  0  0
   -0.7500   -1.2990    0.0000 C   0  0  0  0  0  0  0  0  0  0  0  0
   -2.1358   -1.8731    0.0000 C   0  0  0  0  0  0  0  0  0  0  0  0
   -2.5240   -0.4242    0.0000 C   0  0  0  0  0  0  0  0  0  0  0  0
   -3.9729   -0.0359    0.0000 C   0  0  0  0  0  0  0  0  0  0  0  0
   -5.0336   -1.0966    0.0000 C   0  0  0  0  0  0  0  0  0  0  0  0
   -4.6454   -2.5455    0.0000 C   0  0  0  0  0  0  0  0  0  0  0  0
   -3.1965   -2.9337    0.0000 C   0  0  0  0  0  0  0  0  0  0  0  0
   -3.7705   -4.3195    0.0000 C   0  0  0  0  0  0  0  0  0  0  0  0
   -5.0695   -3.5695    0.0000 C   0  0  0  0  0  0  0  0  0  0  0  0
   -6.3686   -4.3195    0.0000 C   0  0  0  0  0  0  0  0  0  0  0  0
   -6.3686   -5.8195    0.0000 C   0  0  0  0  0  0  0  0  0  0  0  0
   -5.0695   -6.5695    0.0000 C   0  0  0  0  0  0  0  0  0  0  0  0
   -3.7705   -5.8195    0.0000 C   0  0  0  0  0  0  0  0  0  0  0  0
   -3.1965   -7.2054    0.0000 C   0  0  0  0  0  0  0  0  0  0  0  0
   -4.6454   -7.5936    0.0000 C   0  0  0  0  0  0  0  0  0  0  0  0
   -5.0336   -9.0425    0.0000 C   0  0  0  0  0  0  0  0  0  0  0  0
   -3.9729  -10.1031    0.0000 C   0  0  0  0  0  0  0  0  0  0  0  0
   -2.5240   -9.7149    0.0000 C   0  0  0  0  0  0  0  0  0  0  0  0
   -2.1358   -8.2660    0.0000 C   0  0  0  0  0  0  0  0  0  0  0  0
   -0.7500   -8.8400    0.0000 C   0  0  0  0  0  0  0  0  0  0  0  0
   -1.5000  -10.1391    0.0000 C   0  0  0  0  0  0  0  0  0  0  0  0
   -0.7500  -11.4381    0.0000 C   0  0  0  0  0  0  0  0  0  0  0  0
    0.7500  -11.4381    0.0000 C   0  0  0  0  0  0  0  0  0  0  0  0
    1.5000  -10.1391    0.0000 C   0  0  0  0  0  0  0  0  0  0  0  0
    0.7500   -8.8400    0.0000 C   0  0  0  0  0  0  0  0  0  0  0  0
  1  2  1  0
  2  3  1  0
  3  4  2  0
  4  5  1  0
  5  6  1  0
  5  7  1  0
  7  8  1  0
  7  9  1  0
  9 10  2  0
  9 11  1  0
 11 12  2  0
 12 13  1  0
 13 14  2  0
 14 15  1  0
 15 16  2  0
 16 17  1  0
 17 18  2  0
 18 19  1  0
 19 20  2  0
 20 21  1  0
 21 22  2  0
 22 23  1  0
 23 24  2  0
 24 25  1  0
 25 26  2  0
 26 27  1  0
 27 28  2  0
 28 29  1  0
 29 30  2  0
 30 31  1  0
 31 32  2  0
 32 33  1  0
 33 34  2  0
 34 35  1  0
 35 36  2  0
 36 37  1  0
 37 38  2  0
 38 39  1  0
 39 40  2  0
 40  2  1  0
 16 11  1  0
 22 17  1  0
 28 23  1  0
 34 29  1  0
 40 35  1  0
M  END
>  <Title>  (396) 
idAANHgen10

$$$$

     RDKit          2D

 22 23  0  0  0  0  0  0  0  0999 V2000
    0.7503  -19.5044    0.0000 C   0  0  0  0  0  0  0  0  0  0  0  0
    0.9071  -18.0126    0.0000 C   0  0  0  0  0  0  0  0  0  0  0  0
    1.0639  -16.5209    0.0000 C   0  0  0  0  0  0  0  0  0  0  0  0
    1.2206  -15.0291    0.0000 C   0  0  0  0  0  0  0  0  0  0  0  0
    1.3774  -13.5373    0.0000 C   0  0  0  0  0  0  0  0  0  0  0  0
    1.5342  -12.0455    0.0000 C   0  0  0  0  0  0  0  0  0  0  0  0
    1.6910  -10.5537    0.0000 C   0  0  0  0  0  0  0  0  0  0  0  0
    1.8478   -9.0619    0.0000 C   0  0  0  0  0  0  0  0  0  0  0  0
    2.0046   -7.5702    0.0000 C   0  0  0  0  0  0  0  0  0  0  0  0
    3.3037   -6.8202    0.0000 C   0  0  0  0  0  0  0  0  0  0  0  0
    2.9918   -5.3529    0.0000 C   0  0  0  0  0  0  0  0  0  0  0  0
    1.5000   -5.1962    0.0000 C   0  0  0  0  0  0  0  0  0  0  0  0
    0.7500   -3.8971    0.0000 C   0  0  0  0  0  0  0  0  0  0  0  0
   -0.7500   -3.8971    0.0000 O   0  0  0  0  0  0  0  0  0  0  0  0
    1.5000   -2.5981    0.0000 O   0  0  0  0  0  0  0  0  0  0  0  0
    0.7500   -1.2990    0.0000 C   0  0  0  0  0  0  0  0  0  0  0  0
    1.5000    0.0000    0.0000 N   0  0  0  0  0  0  0  0  0  0  0  0
    0.7500    1.2990    0.0000 N   0  0  0  0  0  0  0  0  0  0  0  0
   -0.7500    1.2990    0.0000 N   0  0  0  0  0  0  0  0  0  0  0  0
   -1.5000    0.0000    0.0000 N   0  0  0  0  0  0  0  0  0  0  0  0
   -0.7500   -1.2990    0.0000 N   0  0  0  0  0  0  0  0  0  0  0  0
    0.8899   -6.5665    0.0000 C   0  0  0  0  0  0  0  0  0  0  0  0
  1  2  3  0
  2  3  1  0
  3  4  3  0
  4  5  1  0
  5  6  3  0
  6  7  1  0
  7  8  3  0
  8  9  1  0
  9 10  2  0
 10 11  1  0
 11 12  2  0
 12 13  1  0
 13 14  2  0
 13 15  1  0
 15 16  1  0
 16 17  2  0
 17 18  1  0
 18 19  2  0
 19 20  1  0
 20 21  2  0
 12 22  1  0
 22  9  1  0
 21 16  1  0
M  END
>  <Title>  (397) 
idAANIgen10

$$$$

     RDKit          2D

 52 60  0  0  0  0  0  0  0  0999 V2000
    5.6909   -1.2670    0.0000 N   0  0  0  0  0  0  0  0  0  0  0  0
    4.4437   -2.1004    0.0000 C   0  0  0  0  0  0  0  0  0  0  0  0
    3.1965   -2.9337    0.0000 C   0  0  0  0  0  0  0  0  0  0  0  0
    2.1358   -1.8731    0.0000 C   0  0  0  0  0  0  0  0  0  0  0  0
    2.9692   -0.6259    0.0000 C   0  0  0  0  0  0  0  0  0  0  0  0
    4.4660   -0.7240    0.0000 C   0  0  0  0  0  0  0  0  0  0  0  0
    5.2993    0.5232    0.0000 C   0  0  0  0  0  0  0  0  0  0  0  0
    4.6359    1.8686    0.0000 C   0  0  0  0  0  0  0  0  0  0  0  0
    3.1391    1.9667    0.0000 C   0  0  0  0  0  0  0  0  0  0  0  0
    2.3057    0.7195    0.0000 C   0  0  0  0  0  0  0  0  0  0  0  0
    0.7500   -1.2990    0.0000 C   0  0  0  0  0  0  0  0  0  0  0  0
    1.5000    0.0000    0.0000 C   0  0  0  0  0  0  0  0  0  0  0  0
    0.7500    1.2990    0.0000 C   0  0  0  0  0  0  0  0  0  0  0  0
   -0.7500    1.2990    0.0000 C   0  0  0  0  0  0  0  0  0  0  0  0
   -1.5000    0.0000    0.0000 C   0  0  0  0  0  0  0  0  0  0  0  0
   -0.7500   -1.2990    0.0000 C   0  0  0  0  0  0  0  0  0  0  0  0
   -2.1358   -1.8731    0.0000 C   0  0  0  0  0  0  0  0  0  0  0  0
   -2.5240   -0.4242    0.0000 C   0  0  0  0  0  0  0  0  0  0  0  0
   -3.9729   -0.0359    0.0000 C   0  0  0  0  0  0  0  0  0  0  0  0
   -5.0336   -1.0966    0.0000 C   0  0  0  0  0  0  0  0  0  0  0  0
   -4.6454   -2.5455    0.0000 C   0  0  0  0  0  0  0  0  0  0  0  0
   -3.1965   -2.9337    0.0000 C   0  0  0  0  0  0  0  0  0  0  0  0
   -3.7705   -4.3195    0.0000 C   0  0  0  0  0  0  0  0  0  0  0  0
   -5.0695   -3.5695    0.0000 C   0  0  0  0  0  0  0  0  0  0  0  0
   -6.3686   -4.3195    0.0000 C   0  0  0  0  0  0  0  0  0  0  0  0
   -6.3686   -5.8195    0.0000 C   0  0  0  0  0  0  0  0  0  0  0  0
   -5.0695   -6.5695    0.0000 C   0  0  0  0  0  0  0  0  0  0  0  0
   -3.7705   -5.8195    0.0000 C   0  0  0  0  0  0  0  0  0  0  0  0
   -3.1965   -7.2054    0.0000 C   0  0  0  0  0  0  0  0  0  0  0  0
   -4.6454   -7.5936    0.0000 C   0  0  0  0  0  0  0  0  0  0  0  0
   -5.0336   -9.0425    0.0000 C   0  0  0  0  0  0  0  0  0  0  0  0
   -3.9729  -10.1031    0.0000 C   0  0  0  0  0  0  0  0  0  0  0  0
   -2.5240   -9.7149    0.0000 C   0  0  0  0  0  0  0  0  0  0  0  0
   -2.1358   -8.2660    0.0000 C   0  0  0  0  0  0  0  0  0  0  0  0
   -0.7500   -8.8400    0.0000 C   0  0  0  0  0  0  0  0  0  0  0  0
   -1.5000  -10.1391    0.0000 C   0  0  0  0  0  0  0  0  0  0  0  0
   -0.7500  -11.4381    0.0000 C   0  0  0  0  0  0  0  0  0  0  0  0
    0.7500  -11.4381    0.0000 C   0  0  0  0  0  0  0  0  0  0  0  0
    1.5000  -10.1391    0.0000 C   0  0  0  0  0  0  0  0  0  0  0  0
    0.7500   -8.8400    0.0000 C   0  0  0  0  0  0  0  0  0  0  0  0
    2.1358   -8.2660    0.0000 C   0  0  0  0  0  0  0  0  0  0  0  0
    2.5240   -9.7149    0.0000 C   0  0  0  0  0  0  0  0  0  0  0  0
    3.9729  -10.1031    0.0000 C   0  0  0  0  0  0  0  0  0  0  0  0
    5.0336   -9.0425    0.0000 C   0  0  0  0  0  0  0  0  0  0  0  0
    4.6454   -7.5936    0.0000 C   0  0  0  0  0  0  0  0  0  0  0  0
    3.1965   -7.2054    0.0000 C   0  0  0  0  0  0  0  0  0  0  0  0
    3.7705   -5.8195    0.0000 C   0  0  0  0  0  0  0  0  0  0  0  0
    5.0695   -6.5695    0.0000 C   0  0  0  0  0  0  0  0  0  0  0  0
    6.3686   -5.8195    0.0000 C   0  0  0  0  0  0  0  0  0  0  0  0
    6.3686   -4.3195    0.0000 C   0  0  0  0  0  0  0  0  0  0  0  0
    5.0695   -3.5695    0.0000 C   0  0  0  0  0  0  0  0  0  0  0  0
    3.7705   -4.3195    0.0000 C   0  0  0  0  0  0  0  0  0  0  0  0
  1  2  3  0
  2  3  1  0
  3  4  2  0
  4  5  1  0
  5  6  2  0
  6  7  1  0
  7  8  2  0
  8  9  1  0
  9 10  2  0
  4 11  1  0
 11 12  2  0
 12 13  1  0
 13 14  2  0
 14 15  1  0
 15 16  2  0
 16 17  1  0
 17 18  2  0
 18 19  1  0
 19 20  2  0
 20 21  1  0
 21 22  2  0
 22 23  1  0
 23 24  2  0
 24 25  1  0
 25 26  2  0
 26 27  1  0
 27 28  2  0
 28 29  1  0
 29 30  2  0
 30 31  1  0
 31 32  2  0
 32 33  1  0
 33 34  2  0
 34 35  1  0
 35 36  2  0
 36 37  1  0
 37 38  2  0
 38 39  1  0
 39 40  2  0
 40 41  1  0
 41 42  2  0
 42 43  1  0
 43 44  2  0
 44 45  1  0
 45 46  2  0
 46 47  1  0
 47 48  2  0
 48 49  1  0
 49 50  2  0
 50 51  1  0
 51 52  2  0
 52  3  1  0
 10  5  1  0
 16 11  1  0
 22 17  1  0
 28 23  1  0
 34 29  1  0
 40 35  1  0
 46 41  1  0
 52 47  1  0
M  END
>  <Title>  (398) 
idAANJgen10

$$$$

     RDKit          2D

 27 30  0  0  0  0  0  0  0  0999 V2000
    3.5604    2.1172    0.0000 C   0  0  0  0  0  0  0  0  0  0  0  0
    2.0980    2.4510    0.0000 C   0  0  0  0  0  0  0  0  0  0  0  0
    1.6559    3.8844    0.0000 N   0  0  0  0  0  0  0  0  0  0  0  0
    0.1935    4.2182    0.0000 N   0  0  0  0  0  0  0  0  0  0  0  0
   -0.8268    3.1186    0.0000 N   0  0  0  0  0  0  0  0  0  0  0  0
   -0.3846    1.6852    0.0000 N   0  0  0  0  0  0  0  0  0  0  0  0
    1.0777    1.3515    0.0000 C   0  0  0  0  0  0  0  0  0  0  0  0
    1.7286    0.0000    0.0000 C   0  0  0  0  0  0  0  0  0  0  0  0
    1.0777   -1.3515    0.0000 C   0  0  0  0  0  0  0  0  0  0  0  0
   -0.3846   -1.6852    0.0000 C   0  0  0  0  0  0  0  0  0  0  0  0
   -1.5574   -0.7500    0.0000 C   0  0  0  0  0  0  0  0  0  0  0  0
   -1.5574    0.7500    0.0000 C   0  0  0  0  0  0  0  0  0  0  0  0
   -2.9088    1.4008    0.0000 C   0  0  0  0  0  0  0  0  0  0  0  0
   -3.0209    2.8966    0.0000 C   0  0  0  0  0  0  0  0  0  0  0  0
   -4.3724    3.5475    0.0000 C   0  0  0  0  0  0  0  0  0  0  0  0
   -5.6118    2.7025    0.0000 C   0  0  0  0  0  0  0  0  0  0  0  0
   -5.4997    1.2067    0.0000 C   0  0  0  0  0  0  0  0  0  0  0  0
   -4.1482    0.5558    0.0000 C   0  0  0  0  0  0  0  0  0  0  0  0
   -4.0361   -0.9400    0.0000 C   0  0  0  0  0  0  0  0  0  0  0  0
   -2.6847   -1.5908    0.0000 O   0  0  0  0  0  0  0  0  0  0  0  0
   -5.2755   -1.7849    0.0000 O   0  0  0  0  0  0  0  0  0  0  0  0
   -5.1634   -3.2807    0.0000 C   0  0  0  0  0  0  0  0  0  0  0  0
   -6.4027   -4.1257    0.0000 C   0  0  0  0  0  0  0  0  0  0  0  0
   -6.2906   -5.6215    0.0000 C   0  0  0  0  0  0  0  0  0  0  0  0
   -4.9392   -6.2724    0.0000 C   0  0  0  0  0  0  0  0  0  0  0  0
   -3.6998   -5.4274    0.0000 C   0  0  0  0  0  0  0  0  0  0  0  0
   -3.8119   -3.9316    0.0000 C   0  0  0  0  0  0  0  0  0  0  0  0
  1  2  1  0
  2  3  2  0
  3  4  1  0
  4  5  2  0
  5  6  1  0
  6  7  1  0
  7  8  2  0
  8  9  1  0
  9 10  2  0
 10 11  1  0
 11 12  2  0
 12 13  1  0
 13 14  2  0
 14 15  1  0
 15 16  2  0
 16 17  1  0
 17 18  2  0
 18 19  1  0
 19 20  2  0
 19 21  1  0
 21 22  1  0
 22 23  2  0
 23 24  1  0
 24 25  2  0
 25 26  1  0
 26 27  2  0
  7  2  1  0
 18 13  1  0
 27 22  1  0
 12  6  1  0
M  END
>  <Title>  (399) 
idAANKgen10

$$$$

     RDKit          2D

  8  7  0  0  0  0  0  0  0  0999 V2000
    0.0000    0.0000    0.0000 C   0  0  0  0  0  0  0  0  0  0  0  0
   -0.0000   -1.5000    0.0000 C   0  0  0  0  0  0  0  0  0  0  0  0
   -0.0000   -3.0000    0.0000 C   0  0  0  0  0  0  0  0  0  0  0  0
    1.2990   -3.7500    0.0000 C   0  0  0  0  0  0  0  0  0  0  0  0
   -1.2990   -3.7500    0.0000 C   0  0  0  0  0  0  0  0  0  0  0  0
   -2.5981   -3.0000    0.0000 C   0  0  0  0  0  0  0  0  0  0  0  0
   -3.8971   -3.7500    0.0000 C   0  0  0  0  0  0  0  0  0  0  0  0
   -5.1962   -3.0000    0.0000 C   0  0  0  0  0  0  0  0  0  0  0  0
  1  2  3  0
  2  3  1  0
  3  4  1  0
  3  5  1  0
  5  6  1  0
  6  7  2  3
  7  8  1  0
M  END
>  <Title>  (400) 
idAANLgen10

$$$$

     RDKit          2D

 12 12  0  0  0  0  0  0  0  0999 V2000
    7.5000    0.0000    0.0000 C   0  0  0  0  0  0  0  0  0  0  0  0
    6.0000    0.0000    0.0000 C   0  0  0  0  0  0  0  0  0  0  0  0
    4.5000    0.0000    0.0000 C   0  0  0  0  0  0  0  0  0  0  0  0
    3.0000    0.0000    0.0000 C   0  0  0  0  0  0  0  0  0  0  0  0
    1.5000    0.0000    0.0000 C   0  0  0  0  0  0  0  0  0  0  0  0
    0.7500   -1.2990    0.0000 C   0  0  0  0  0  0  0  0  0  0  0  0
   -0.7500   -1.2990    0.0000 C   0  0  0  0  0  0  0  0  0  0  0  0
   -1.5000   -2.5981    0.0000 C   0  0  0  0  0  0  0  0  0  0  0  0
   -1.5000    0.0000    0.0000 C   0  0  0  0  0  0  0  0  0  0  0  0
   -0.7500    1.2990    0.0000 C   0  0  0  0  0  0  0  0  0  0  0  0
    0.7500    1.2990    0.0000 C   0  0  0  0  0  0  0  0  0  0  0  0
    1.5000    2.5981    0.0000 O   0  0  0  0  0  0  0  0  0  0  0  0
  1  2  3  0
  2  3  1  0
  3  4  3  0
  4  5  1  0
  5  6  2  0
  6  7  1  0
  7  8  1  0
  7  9  2  0
  9 10  1  0
 10 11  2  0
 11 12  1  0
 11  5  1  0
M  END
>  <Title>  (401) 
idAANMgen10

$$$$

     RDKit          2D

 14 15  0  0  0  0  0  0  0  0999 V2000
    1.8478   -6.4639    0.0000 C   0  0  0  0  0  0  0  0  0  0  0  0
    2.0046   -4.9721    0.0000 C   0  0  0  0  0  0  0  0  0  0  0  0
    3.3037   -4.2221    0.0000 C   0  0  0  0  0  0  0  0  0  0  0  0
    2.9918   -2.7549    0.0000 C   0  0  0  0  0  0  0  0  0  0  0  0
    1.5000   -2.5981    0.0000 C   0  0  0  0  0  0  0  0  0  0  0  0
    0.7500   -1.2990    0.0000 N   0  0  0  0  0  0  0  0  0  0  0  0
    1.5000    0.0000    0.0000 C   0  0  0  0  0  0  0  0  0  0  0  0
    0.7500    1.2990    0.0000 C   0  0  0  0  0  0  0  0  0  0  0  0
   -0.7500    1.2990    0.0000 C   0  0  0  0  0  0  0  0  0  0  0  0
   -1.5000    2.5981    0.0000 C   0  0  0  0  0  0  0  0  0  0  0  0
   -2.2500    3.8971    0.0000 N   0  0  0  0  0  0  0  0  0  0  0  0
   -1.5000    0.0000    0.0000 C   0  0  0  0  0  0  0  0  0  0  0  0
   -0.7500   -1.2990    0.0000 C   0  0  0  0  0  0  0  0  0  0  0  0
    0.8899   -3.9684    0.0000 N   0  0  0  0  0  0  0  0  0  0  0  0
  1  2  1  0
  2  3  1  0
  3  4  2  0
  4  5  1  0
  5  6  1  0
  6  7  1  0
  7  8  2  0
  8  9  1  0
  9 10  1  0
 10 11  3  0
  9 12  2  0
 12 13  1  0
  5 14  2  0
 14  2  1  0
 13  6  1  0
M  END
>  <Title>  (402) 
idAANNgen10

$$$$

     RDKit          2D

 10 10  0  0  0  0  0  0  0  0999 V2000
    6.7500   -1.2990    0.0000 C   0  0  0  0  0  0  0  0  0  0  0  0
    6.0000    0.0000    0.0000 C   0  0  0  0  0  0  0  0  0  0  0  0
    4.5000    0.0000    0.0000 C   0  0  0  0  0  0  0  0  0  0  0  0
    3.0000    0.0000    0.0000 C   0  0  0  0  0  0  0  0  0  0  0  0
    1.5000    0.0000    0.0000 C   0  0  0  0  0  0  0  0  0  0  0  0
    0.7500   -1.2990    0.0000 C   0  0  0  0  0  0  0  0  0  0  0  0
   -0.7500   -1.2990    0.0000 C   0  0  0  0  0  0  0  0  0  0  0  0
   -1.5000    0.0000    0.0000 C   0  0  0  0  0  0  0  0  0  0  0  0
   -0.7500    1.2990    0.0000 C   0  0  0  0  0  0  0  0  0  0  0  0
    0.7500    1.2990    0.0000 C   0  0  0  0  0  0  0  0  0  0  0  0
  1  2  2  0
  2  3  1  0
  3  4  3  0
  4  5  1  0
  5  6  2  0
  6  7  1  0
  7  8  2  0
  8  9  1  0
  9 10  2  0
 10  5  1  0
M  END
>  <Title>  (403) 
idAANOgen10

$$$$

     RDKit          2D

 10 11  0  0  0  0  0  0  0  0999 V2000
    1.2760    0.0000    0.0000 C   0  0  0  0  0  0  0  0  0  0  0  0
    0.3943    1.2135    0.0000 C   0  0  0  0  0  0  0  0  0  0  0  0
   -1.0323    0.7500    0.0000 C   0  0  0  0  0  0  0  0  0  0  0  0
   -1.0323   -0.7500    0.0000 C   0  0  0  0  0  0  0  0  0  0  0  0
   -2.2458   -1.6317    0.0000 C   0  0  0  0  0  0  0  0  0  0  0  0
   -2.2458   -3.1317    0.0000 C   0  0  0  0  0  0  0  0  0  0  0  0
   -3.6724   -3.5952    0.0000 C   0  0  0  0  0  0  0  0  0  0  0  0
   -4.5541   -2.3817    0.0000 C   0  0  0  0  0  0  0  0  0  0  0  0
   -3.6724   -1.1682    0.0000 C   0  0  0  0  0  0  0  0  0  0  0  0
    0.3943   -1.2135    0.0000 C   0  0  0  0  0  0  0  0  0  0  0  0
  1  2  2  0
  2  3  1  0
  3  4  1  0
  4  5  1  0
  5  6  2  0
  6  7  1  0
  7  8  1  0
  8  9  2  0
  4 10  2  0
 10  1  1  0
  9  5  1  0
M  END
>  <Title>  (404) 
idAANPgen10

$$$$

     RDKit          2D

 83 87  0  0  0  0  0  0  0  0999 V2000
   -8.6318   -2.0582    0.0000 C   0  0  0  0  0  0  0  0  0  0  0  0
   -7.8919   -3.3631    0.0000 C   0  0  0  0  0  0  0  0  0  0  0  0
   -9.1607   -4.1632    0.0000 C   0  0  0  0  0  0  0  0  0  0  0  0
  -10.3489   -5.0787    0.0000 C   0  0  0  0  0  0  0  0  0  0  0  0
  -11.4462   -6.1014    0.0000 C   0  0  0  0  0  0  0  0  0  0  0  0
  -12.4429   -7.2224    0.0000 C   0  0  0  0  0  0  0  0  0  0  0  0
  -13.3303   -8.4318    0.0000 C   0  0  0  0  0  0  0  0  0  0  0  0
  -14.1005   -9.7189    0.0000 C   0  0  0  0  0  0  0  0  0  0  0  0
  -14.7468  -11.0726    0.0000 C   0  0  0  0  0  0  0  0  0  0  0  0
  -15.2635  -12.4808    0.0000 C   0  0  0  0  0  0  0  0  0  0  0  0
  -15.6461  -13.9311    0.0000 C   0  0  0  0  0  0  0  0  0  0  0  0
  -15.8911  -15.4110    0.0000 C   0  0  0  0  0  0  0  0  0  0  0  0
  -15.9965  -16.9073    0.0000 C   0  0  0  0  0  0  0  0  0  0  0  0
  -15.9614  -18.4069    0.0000 C   0  0  0  0  0  0  0  0  0  0  0  0
  -15.7859  -19.8966    0.0000 C   0  0  0  0  0  0  0  0  0  0  0  0
  -15.4718  -21.3633    0.0000 C   0  0  0  0  0  0  0  0  0  0  0  0
  -15.0217  -22.7942    0.0000 C   0  0  0  0  0  0  0  0  0  0  0  0
  -14.4395  -24.1766    0.0000 C   0  0  0  0  0  0  0  0  0  0  0  0
  -13.7305  -25.4985    0.0000 C   0  0  0  0  0  0  0  0  0  0  0  0
  -12.9008  -26.7481    0.0000 C   0  0  0  0  0  0  0  0  0  0  0  0
  -11.9577  -27.9146    0.0000 C   0  0  0  0  0  0  0  0  0  0  0  0
  -10.9096  -28.9876    0.0000 C   0  0  0  0  0  0  0  0  0  0  0  0
   -9.7655  -29.9577    0.0000 C   0  0  0  0  0  0  0  0  0  0  0  0
   -8.5357  -30.8165    0.0000 C   0  0  0  0  0  0  0  0  0  0  0  0
   -7.2308  -31.5563    0.0000 C   0  0  0  0  0  0  0  0  0  0  0  0
   -5.8624  -32.1707    0.0000 C   0  0  0  0  0  0  0  0  0  0  0  0
   -4.4425  -32.6542    0.0000 C   0  0  0  0  0  0  0  0  0  0  0  0
   -2.9835  -33.0027    0.0000 C   0  0  0  0  0  0  0  0  0  0  0  0
   -1.4984  -33.2130    0.0000 C   0  0  0  0  0  0  0  0  0  0  0  0
   -0.0000  -33.2833    0.0000 C   0  0  0  0  0  0  0  0  0  0  0  0
    1.4984  -33.2130    0.0000 C   0  0  0  0  0  0  0  0  0  0  0  0
    2.9835  -33.0027    0.0000 C   0  0  0  0  0  0  0  0  0  0  0  0
    4.4425  -32.6542    0.0000 C   0  0  0  0  0  0  0  0  0  0  0  0
    5.8624  -32.1707    0.0000 C   0  0  0  0  0  0  0  0  0  0  0  0
    7.2308  -31.5563    0.0000 C   0  0  0  0  0  0  0  0  0  0  0  0
    8.5357  -30.8165    0.0000 C   0  0  0  0  0  0  0  0  0  0  0  0
    9.7655  -29.9577    0.0000 C   0  0  0  0  0  0  0  0  0  0  0  0
   10.9096  -28.9876    0.0000 C   0  0  0  0  0  0  0  0  0  0  0  0
   11.9577  -27.9146    0.0000 C   0  0  0  0  0  0  0  0  0  0  0  0
   12.9008  -26.7481    0.0000 C   0  0  0  0  0  0  0  0  0  0  0  0
   13.7305  -25.4985    0.0000 C   0  0  0  0  0  0  0  0  0  0  0  0
   14.4395  -24.1766    0.0000 C   0  0  0  0  0  0  0  0  0  0  0  0
   15.0217  -22.7942    0.0000 C   0  0  0  0  0  0  0  0  0  0  0  0
   15.4718  -21.3633    0.0000 C   0  0  0  0  0  0  0  0  0  0  0  0
   15.7859  -19.8966    0.0000 C   0  0  0  0  0  0  0  0  0  0  0  0
   15.9614  -18.4069    0.0000 C   0  0  0  0  0  0  0  0  0  0  0  0
   15.9965  -16.9073    0.0000 C   0  0  0  0  0  0  0  0  0  0  0  0
   15.8911  -15.4110    0.0000 C   0  0  0  0  0  0  0  0  0  0  0  0
   15.6461  -13.9311    0.0000 C   0  0  0  0  0  0  0  0  0  0  0  0
   15.2635  -12.4808    0.0000 C   0  0  0  0  0  0  0  0  0  0  0  0
   14.7468  -11.0726    0.0000 C   0  0  0  0  0  0  0  0  0  0  0  0
   14.1005   -9.7189    0.0000 C   0  0  0  0  0  0  0  0  0  0  0  0
   13.3303   -8.4318    0.0000 C   0  0  0  0  0  0  0  0  0  0  0  0
   12.4429   -7.2224    0.0000 C   0  0  0  0  0  0  0  0  0  0  0  0
   11.4462   -6.1014    0.0000 C   0  0  0  0  0  0  0  0  0  0  0  0
   10.3489   -5.0787    0.0000 C   0  0  0  0  0  0  0  0  0  0  0  0
    9.1607   -4.1632    0.0000 C   0  0  0  0  0  0  0  0  0  0  0  0
    7.8919   -3.3631    0.0000 C   0  0  0  0  0  0  0  0  0  0  0  0
    6.5538   -2.6852    0.0000 C   0  0  0  0  0  0  0  0  0  0  0  0
    5.1581   -2.1357    0.0000 C   0  0  0  0  0  0  0  0  0  0  0  0
    3.7171   -1.7192    0.0000 C   0  0  0  0  0  0  0  0  0  0  0  0
    3.9065   -3.2072    0.0000 C   0  0  0  0  0  0  0  0  0  0  0  0
    2.5499   -3.8471    0.0000 C   0  0  0  0  0  0  0  0  0  0  0  0
    1.5220   -2.7546    0.0000 C   0  0  0  0  0  0  0  0  0  0  0  0
    2.2434   -1.4395    0.0000 C   0  0  0  0  0  0  0  0  0  0  0  0
    0.7500   -1.2990    0.0000 C   0  0  0  0  0  0  0  0  0  0  0  0
    1.5000    0.0000    0.0000 C   0  0  0  0  0  0  0  0  0  0  0  0
    0.7500    1.2990    0.0000 C   0  0  0  0  0  0  0  0  0  0  0  0
   -0.7500    1.2990    0.0000 C   0  0  0  0  0  0  0  0  0  0  0  0
   -1.5000    0.0000    0.0000 C   0  0  0  0  0  0  0  0  0  0  0  0
   -0.7500   -1.2990    0.0000 C   0  0  0  0  0  0  0  0  0  0  0  0
   -2.2434   -1.4395    0.0000 C   0  0  0  0  0  0  0  0  0  0  0  0
   -1.2643   -2.5759    0.0000 C   0  0  0  0  0  0  0  0  0  0  0  0
   -1.7590   -3.9920    0.0000 C   0  0  0  0  0  0  0  0  0  0  0  0
   -3.2327   -4.2717    0.0000 C   0  0  0  0  0  0  0  0  0  0  0  0
   -4.2117   -3.1353    0.0000 C   0  0  0  0  0  0  0  0  0  0  0  0
   -3.7171   -1.7192    0.0000 C   0  0  0  0  0  0  0  0  0  0  0  0
   -5.1581   -2.1357    0.0000 C   0  0  0  0  0  0  0  0  0  0  0  0
   -4.9362   -0.6522    0.0000 C   0  0  0  0  0  0  0  0  0  0  0  0
   -6.1100    0.2818    0.0000 C   0  0  0  0  0  0  0  0  0  0  0  0
   -7.5057   -0.2678    0.0000 C   0  0  0  0  0  0  0  0  0  0  0  0
   -7.7276   -1.7513    0.0000 C   0  0  0  0  0  0  0  0  0  0  0  0
   -6.5538   -2.6852    0.0000 C   0  0  0  0  0  0  0  0  0  0  0  0
  1  2  1  0
  2  3  1  0
  3  4  1  0
  4  5  1  0
  5  6  1  0
  6  7  1  0
  7  8  1  0
  8  9  1  0
  9 10  1  0
 10 11  1  0
 11 12  1  0
 12 13  1  0
 13 14  1  0
 14 15  1  0
 15 16  1  0
 16 17  1  0
 17 18  1  0
 18 19  1  0
 19 20  1  0
 20 21  1  0
 21 22  1  0
 22 23  1  0
 23 24  1  0
 24 25  1  0
 25 26  1  0
 26 27  1  0
 27 28  1  0
 28 29  1  0
 29 30  1  0
 30 31  1  0
 31 32  1  0
 32 33  2  0
 33 34  1  0
 34 35  2  0
 35 36  1  0
 36 37  2  0
 37 38  1  0
 38 39  2  0
 39 40  1  0
 40 41  2  0
 41 42  1  0
 42 43  2  0
 43 44  1  0
 44 45  2  0
 45 46  1  0
 46 47  2  0
 47 48  1  0
 48 49  2  0
 49 50  1  0
 50 51  2  0
 51 52  1  0
 52 53  2  0
 53 54  1  0
 54 55  2  0
 55 56  1  0
 56 57  2  0
 57 58  1  0
 58 59  2  0
 59 60  1  0
 60 61  2  0
 61 62  1  0
 62 63  2  0
 63 64  1  0
 64 65  2  0
 65 66  1  0
 66 67  2  0
 67 68  1  0
 68 69  2  0
 69 70  1  0
 70 71  2  0
 71 72  1  0
 72 73  2  0
 73 74  1  0
 74 75  2  0
 75 76  1  0
 76 77  2  0
 77 78  1  0
 78 79  2  0
 79 80  1  0
 80 81  2  0
 81 82  1  0
 82 83  2  0
 83  2  1  0
 65 61  1  0
 71 66  1  0
 77 72  1  0
 83 78  1  0
M  END
>  <Title>  (405) 
idAANQgen10

$$$$

     RDKit          2D

 12 12  0  0  0  0  0  0  0  0999 V2000
    6.0000   -5.1962    0.0000 C   0  0  0  0  0  0  0  0  0  0  0  0
    5.2500   -3.8971    0.0000 C   0  0  0  0  0  0  0  0  0  0  0  0
    4.5000   -2.5981    0.0000 C   0  0  0  0  0  0  0  0  0  0  0  0
    3.7500   -1.2990    0.0000 C   0  0  0  0  0  0  0  0  0  0  0  0
    3.0000    0.0000    0.0000 C   0  0  0  0  0  0  0  0  0  0  0  0
    3.7500    1.2990    0.0000 O   0  0  0  0  0  0  0  0  0  0  0  0
    1.5000    0.0000    0.0000 C   0  0  0  0  0  0  0  0  0  0  0  0
    0.7500   -1.2990    0.0000 C   0  0  0  0  0  0  0  0  0  0  0  0
   -0.7500   -1.2990    0.0000 C   0  0  0  0  0  0  0  0  0  0  0  0
   -1.5000    0.0000    0.0000 C   0  0  0  0  0  0  0  0  0  0  0  0
   -0.7500    1.2990    0.0000 C   0  0  0  0  0  0  0  0  0  0  0  0
    0.7500    1.2990    0.0000 C   0  0  0  0  0  0  0  0  0  0  0  0
  1  2  3  0
  2  3  1  0
  3  4  3  0
  4  5  1  0
  5  6  2  0
  5  7  1  0
  7  8  2  0
  8  9  1  0
  9 10  2  0
 10 11  1  0
 11 12  2  0
 12  7  1  0
M  END
>  <Title>  (406) 
idAANRgen10

$$$$

     RDKit          2D

  7  6  0  0  0  0  0  0  0  0999 V2000
    0.0000    0.0000    0.0000 C   0  0  0  0  0  0  0  0  0  0  0  0
   -0.0000   -1.5000    0.0000 C   0  0  0  0  0  0  0  0  0  0  0  0
   -0.0000   -3.0000    0.0000 C   0  0  0  0  0  0  0  0  0  0  0  0
   -0.0000   -4.5000    0.0000 C   0  0  0  0  0  0  0  0  0  0  0  0
   -0.0000   -6.0000    0.0000 C   0  0  0  0  0  0  0  0  0  0  0  0
    1.2990   -6.7500    0.0000 C   0  0  0  0  0  0  0  0  0  0  0  0
    1.2990   -8.2500    0.0000 C   0  0  0  0  0  0  0  0  0  0  0  0
  1  2  3  0
  2  3  1  0
  3  4  3  0
  4  5  1  0
  5  6  2  3
  6  7  1  0
M  END
>  <Title>  (407) 
idAANSgen10

$$$$

     RDKit          2D

 71 71  0  0  0  0  0  0  0  0999 V2000
   16.9555    0.0000    0.0000 C   0  0  0  0  0  0  0  0  0  0  0  0
   16.8892    1.4985    0.0000 C   0  0  0  0  0  0  0  0  0  0  0  0
   16.6907    2.9853    0.0000 C   0  0  0  0  0  0  0  0  0  0  0  0
   16.3615    4.4488    0.0000 C   0  0  0  0  0  0  0  0  0  0  0  0
   15.9043    5.8774    0.0000 C   0  0  0  0  0  0  0  0  0  0  0  0
   15.3226    7.2600    0.0000 C   0  0  0  0  0  0  0  0  0  0  0  0
   14.6210    8.5858    0.0000 C   0  0  0  0  0  0  0  0  0  0  0  0
   13.8050    9.8444    0.0000 C   0  0  0  0  0  0  0  0  0  0  0  0
   12.8809   11.0260    0.0000 C   0  0  0  0  0  0  0  0  0  0  0  0
   11.8560   12.1213    0.0000 C   0  0  0  0  0  0  0  0  0  0  0  0
   10.7383   13.1217    0.0000 C   0  0  0  0  0  0  0  0  0  0  0  0
    9.5366   14.0194    0.0000 C   0  0  0  0  0  0  0  0  0  0  0  0
    8.2603   14.8074    0.0000 C   0  0  0  0  0  0  0  0  0  0  0  0
    6.9193   15.4795    0.0000 C   0  0  0  0  0  0  0  0  0  0  0  0
    5.5241   16.0304    0.0000 C   0  0  0  0  0  0  0  0  0  0  0  0
    4.0857   16.4559    0.0000 C   0  0  0  0  0  0  0  0  0  0  0  0
    2.6154   16.7526    0.0000 C   0  0  0  0  0  0  0  0  0  0  0  0
    1.1245   16.9182    0.0000 C   0  0  0  0  0  0  0  0  0  0  0  0
   -0.3751   16.9514    0.0000 C   0  0  0  0  0  0  0  0  0  0  0  0
   -1.8718   16.8519    0.0000 C   0  0  0  0  0  0  0  0  0  0  0  0
   -3.3538   16.6205    0.0000 C   0  0  0  0  0  0  0  0  0  0  0  0
   -4.8096   16.2591    0.0000 C   0  0  0  0  0  0  0  0  0  0  0  0
   -6.2278   15.7704    0.0000 C   0  0  0  0  0  0  0  0  0  0  0  0
   -7.5972   15.1582    0.0000 C   0  0  0  0  0  0  0  0  0  0  0  0
   -8.9072   14.4275    0.0000 C   0  0  0  0  0  0  0  0  0  0  0  0
  -10.1474   13.5838    0.0000 C   0  0  0  0  0  0  0  0  0  0  0  0
  -11.3082   12.6338    0.0000 C   0  0  0  0  0  0  0  0  0  0  0  0
  -12.3806   11.5850    0.0000 C   0  0  0  0  0  0  0  0  0  0  0  0
  -13.3560   10.4454    0.0000 C   0  0  0  0  0  0  0  0  0  0  0  0
  -14.2269    9.2242    0.0000 C   0  0  0  0  0  0  0  0  0  0  0  0
  -14.9865    7.9307    0.0000 C   0  0  0  0  0  0  0  0  0  0  0  0
  -15.6287    6.5751    0.0000 C   0  0  0  0  0  0  0  0  0  0  0  0
  -16.1487    5.1681    0.0000 C   0  0  0  0  0  0  0  0  0  0  0  0
  -16.5423    3.7207    0.0000 C   0  0  0  0  0  0  0  0  0  0  0  0
  -16.8064    2.2441    0.0000 C   0  0  0  0  0  0  0  0  0  0  0  0
  -16.9389    0.7500    0.0000 C   0  0  0  0  0  0  0  0  0  0  0  0
  -16.9389   -0.7500    0.0000 C   0  0  0  0  0  0  0  0  0  0  0  0
  -16.8064   -2.2441    0.0000 C   0  0  0  0  0  0  0  0  0  0  0  0
  -16.5423   -3.7207    0.0000 C   0  0  0  0  0  0  0  0  0  0  0  0
  -16.1487   -5.1681    0.0000 C   0  0  0  0  0  0  0  0  0  0  0  0
  -15.6287   -6.5751    0.0000 C   0  0  0  0  0  0  0  0  0  0  0  0
  -14.9865   -7.9307    0.0000 C   0  0  0  0  0  0  0  0  0  0  0  0
  -14.2269   -9.2242    0.0000 C   0  0  0  0  0  0  0  0  0  0  0  0
  -13.3560  -10.4454    0.0000 C   0  0  0  0  0  0  0  0  0  0  0  0
  -12.3806  -11.5850    0.0000 C   0  0  0  0  0  0  0  0  0  0  0  0
  -11.3082  -12.6338    0.0000 C   0  0  0  0  0  0  0  0  0  0  0  0
  -10.1474  -13.5838    0.0000 C   0  0  0  0  0  0  0  0  0  0  0  0
   -8.9072  -14.4275    0.0000 C   0  0  0  0  0  0  0  0  0  0  0  0
   -7.5972  -15.1582    0.0000 C   0  0  0  0  0  0  0  0  0  0  0  0
   -6.2278  -15.7704    0.0000 C   0  0  0  0  0  0  0  0  0  0  0  0
   -4.8096  -16.2591    0.0000 C   0  0  0  0  0  0  0  0  0  0  0  0
   -3.3538  -16.6205    0.0000 C   0  0  0  0  0  0  0  0  0  0  0  0
   -1.8718  -16.8519    0.0000 C   0  0  0  0  0  0  0  0  0  0  0  0
   -0.3751  -16.9514    0.0000 C   0  0  0  0  0  0  0  0  0  0  0  0
    1.1245  -16.9182    0.0000 C   0  0  0  0  0  0  0  0  0  0  0  0
    2.6154  -16.7526    0.0000 C   0  0  0  0  0  0  0  0  0  0  0  0
    4.0857  -16.4559    0.0000 C   0  0  0  0  0  0  0  0  0  0  0  0
    5.5241  -16.0304    0.0000 C   0  0  0  0  0  0  0  0  0  0  0  0
    6.9193  -15.4795    0.0000 C   0  0  0  0  0  0  0  0  0  0  0  0
    8.2603  -14.8074    0.0000 C   0  0  0  0  0  0  0  0  0  0  0  0
    9.5366  -14.0194    0.0000 C   0  0  0  0  0  0  0  0  0  0  0  0
   10.7383  -13.1217    0.0000 C   0  0  0  0  0  0  0  0  0  0  0  0
   11.8560  -12.1213    0.0000 C   0  0  0  0  0  0  0  0  0  0  0  0
   12.8809  -11.0260    0.0000 C   0  0  0  0  0  0  0  0  0  0  0  0
   13.8050   -9.8444    0.0000 C   0  0  0  0  0  0  0  0  0  0  0  0
   14.6210   -8.5858    0.0000 C   0  0  0  0  0  0  0  0  0  0  0  0
   15.3226   -7.2600    0.0000 C   0  0  0  0  0  0  0  0  0  0  0  0
   15.9043   -5.8774    0.0000 C   0  0  0  0  0  0  0  0  0  0  0  0
   16.3615   -4.4488    0.0000 C   0  0  0  0  0  0  0  0  0  0  0  0
   16.6907   -2.9853    0.0000 C   0  0  0  0  0  0  0  0  0  0  0  0
   16.8892   -1.4985    0.0000 C   0  0  0  0  0  0  0  0  0  0  0  0
  1  2  1  0
  2  3  1  0
  3  4  1  0
  4  5  1  0
  5  6  1  0
  6  7  1  0
  7  8  1  0
  8  9  1  0
  9 10  1  0
 10 11  1  0
 11 12  1  0
 12 13  1  0
 13 14  1  0
 14 15  1  0
 15 16  1  0
 16 17  1  0
 17 18  1  0
 18 19  1  0
 19 20  1  0
 20 21  1  0
 21 22  1  0
 22 23  1  0
 23 24  1  0
 24 25  1  0
 25 26  1  0
 26 27  1  0
 27 28  1  0
 28 29  1  0
 29 30  1  0
 30 31  1  0
 31 32  1  0
 32 33  1  0
 33 34  1  0
 34 35  1  0
 35 36  1  0
 36 37  1  0
 37 38  1  0
 38 39  1  0
 39 40  1  0
 40 41  1  0
 41 42  1  0
 42 43  1  0
 43 44  1  0
 44 45  1  0
 45 46  1  0
 46 47  1  0
 47 48  1  0
 48 49  1  0
 49 50  1  0
 50 51  1  0
 51 52  1  0
 52 53  1  0
 53 54  1  0
 54 55  1  0
 55 56  1  0
 56 57  1  0
 57 58  1  0
 58 59  1  0
 59 60  1  0
 60 61  1  0
 61 62  1  0
 62 63  1  0
 63 64  1  0
 64 65  1  0
 65 66  1  0
 66 67  1  0
 67 68  1  0
 68 69  1  0
 69 70  1  0
 70 71  1  0
 71  1  1  0
M  END
>  <Title>  (408) 
idAANTgen10

$$$$

     RDKit          2D

 10 10  0  0  0  0  0  0  0  0999 V2000
    4.5000    0.0000    0.0000 C   0  0  0  0  0  0  0  0  0  0  0  0
    3.0000    0.0000    0.0000 C   0  0  0  0  0  0  0  0  0  0  0  0
    1.5000    0.0000    0.0000 C   0  0  0  0  0  0  0  0  0  0  0  0
    0.7500   -1.2990    0.0000 C   0  0  0  0  0  0  0  0  0  0  0  0
   -0.7500   -1.2990    0.0000 C   0  0  0  0  0  0  0  0  0  0  0  0
   -1.5000    0.0000    0.0000 C   0  0  0  0  0  0  0  0  0  0  0  0
   -0.7500    1.2990    0.0000 C   0  0  0  0  0  0  0  0  0  0  0  0
   -1.5000    2.5981    0.0000 C   0  0  0  0  0  0  0  0  0  0  0  0
    0.7500    1.2990    0.0000 C   0  0  0  0  0  0  0  0  0  0  0  0
    1.5000    2.5981    0.0000 C   0  0  0  0  0  0  0  0  0  0  0  0
  1  2  3  0
  2  3  1  0
  3  4  2  0
  4  5  1  0
  5  6  2  0
  6  7  1  0
  7  8  1  0
  7  9  2  0
  9 10  1  0
  9  3  1  0
M  END
>  <Title>  (409) 
idAANUgen10

$$$$

     RDKit          2D

 72 75  0  0  0  0  0  0  0  0999 V2000
   -8.6192   -2.3780    0.0000 C   0  0  0  0  0  0  0  0  0  0  0  0
   -7.7900   -3.6280    0.0000 C   0  0  0  0  0  0  0  0  0  0  0  0
   -8.9941   -4.5225    0.0000 C   0  0  0  0  0  0  0  0  0  0  0  0
  -10.0962   -5.5400    0.0000 C   0  0  0  0  0  0  0  0  0  0  0  0
  -11.0840   -6.6689    0.0000 C   0  0  0  0  0  0  0  0  0  0  0  0
  -11.9462   -7.8963    0.0000 C   0  0  0  0  0  0  0  0  0  0  0  0
  -12.6730   -9.2085    0.0000 C   0  0  0  0  0  0  0  0  0  0  0  0
  -13.2562  -10.5904    0.0000 C   0  0  0  0  0  0  0  0  0  0  0  0
  -13.6893  -12.0266    0.0000 C   0  0  0  0  0  0  0  0  0  0  0  0
  -13.9672  -13.5006    0.0000 C   0  0  0  0  0  0  0  0  0  0  0  0
  -14.0869  -14.9958    0.0000 C   0  0  0  0  0  0  0  0  0  0  0  0
  -14.0469  -16.4953    0.0000 C   0  0  0  0  0  0  0  0  0  0  0  0
  -13.8479  -17.9820    0.0000 C   0  0  0  0  0  0  0  0  0  0  0  0
  -13.4919  -19.4391    0.0000 C   0  0  0  0  0  0  0  0  0  0  0  0
  -12.9830  -20.8502    0.0000 C   0  0  0  0  0  0  0  0  0  0  0  0
  -12.3270  -22.1992    0.0000 C   0  0  0  0  0  0  0  0  0  0  0  0
  -11.5314  -23.4708    0.0000 C   0  0  0  0  0  0  0  0  0  0  0  0
  -10.6051  -24.6506    0.0000 C   0  0  0  0  0  0  0  0  0  0  0  0
   -9.5587  -25.7253    0.0000 C   0  0  0  0  0  0  0  0  0  0  0  0
   -8.4039  -26.6826    0.0000 C   0  0  0  0  0  0  0  0  0  0  0  0
   -7.1540  -27.5118    0.0000 C   0  0  0  0  0  0  0  0  0  0  0  0
   -5.8229  -28.2035    0.0000 C   0  0  0  0  0  0  0  0  0  0  0  0
   -4.4259  -28.7497    0.0000 C   0  0  0  0  0  0  0  0  0  0  0  0
   -2.9788  -29.1444    0.0000 C   0  0  0  0  0  0  0  0  0  0  0  0
   -1.4979  -29.3830    0.0000 C   0  0  0  0  0  0  0  0  0  0  0  0
   -0.0000  -29.4628    0.0000 C   0  0  0  0  0  0  0  0  0  0  0  0
    1.4979  -29.3830    0.0000 C   0  0  0  0  0  0  0  0  0  0  0  0
    2.9788  -29.1444    0.0000 C   0  0  0  0  0  0  0  0  0  0  0  0
    4.4259  -28.7497    0.0000 C   0  0  0  0  0  0  0  0  0  0  0  0
    5.8229  -28.2035    0.0000 C   0  0  0  0  0  0  0  0  0  0  0  0
    7.1540  -27.5118    0.0000 C   0  0  0  0  0  0  0  0  0  0  0  0
    8.4039  -26.6826    0.0000 C   0  0  0  0  0  0  0  0  0  0  0  0
    9.5587  -25.7253    0.0000 C   0  0  0  0  0  0  0  0  0  0  0  0
   10.6051  -24.6506    0.0000 C   0  0  0  0  0  0  0  0  0  0  0  0
   11.5314  -23.4708    0.0000 C   0  0  0  0  0  0  0  0  0  0  0  0
   12.3270  -22.1992    0.0000 C   0  0  0  0  0  0  0  0  0  0  0  0
   12.9830  -20.8502    0.0000 C   0  0  0  0  0  0  0  0  0  0  0  0
   13.4919  -19.4391    0.0000 C   0  0  0  0  0  0  0  0  0  0  0  0
   13.8479  -17.9820    0.0000 C   0  0  0  0  0  0  0  0  0  0  0  0
   14.0469  -16.4953    0.0000 C   0  0  0  0  0  0  0  0  0  0  0  0
   14.0869  -14.9958    0.0000 C   0  0  0  0  0  0  0  0  0  0  0  0
   13.9672  -13.5006    0.0000 C   0  0  0  0  0  0  0  0  0  0  0  0
   13.6893  -12.0266    0.0000 C   0  0  0  0  0  0  0  0  0  0  0  0
   13.2562  -10.5904    0.0000 C   0  0  0  0  0  0  0  0  0  0  0  0
   12.6730   -9.2085    0.0000 C   0  0  0  0  0  0  0  0  0  0  0  0
   11.9462   -7.8963    0.0000 C   0  0  0  0  0  0  0  0  0  0  0  0
   11.0840   -6.6689    0.0000 C   0  0  0  0  0  0  0  0  0  0  0  0
   10.0962   -5.5400    0.0000 C   0  0  0  0  0  0  0  0  0  0  0  0
    8.9941   -4.5225    0.0000 C   0  0  0  0  0  0  0  0  0  0  0  0
    7.7900   -3.6280    0.0000 C   0  0  0  0  0  0  0  0  0  0  0  0
    6.4977   -2.8665    0.0000 C   0  0  0  0  0  0  0  0  0  0  0  0
    5.1317   -2.2467    0.0000 C   0  0  0  0  0  0  0  0  0  0  0  0
    3.7076   -1.7756    0.0000 C   0  0  0  0  0  0  0  0  0  0  0  0
    2.2415   -1.4585    0.0000 C   0  0  0  0  0  0  0  0  0  0  0  0
    0.7500   -1.2990    0.0000 C   0  0  0  0  0  0  0  0  0  0  0  0
    1.5000    0.0000    0.0000 C   0  0  0  0  0  0  0  0  0  0  0  0
    0.7500    1.2990    0.0000 C   0  0  0  0  0  0  0  0  0  0  0  0
   -0.7500    1.2990    0.0000 C   0  0  0  0  0  0  0  0  0  0  0  0
   -1.5000    0.0000    0.0000 C   0  0  0  0  0  0  0  0  0  0  0  0
   -0.7500   -1.2990    0.0000 C   0  0  0  0  0  0  0  0  0  0  0  0
   -2.2415   -1.4585    0.0000 C   0  0  0  0  0  0  0  0  0  0  0  0
   -1.2339   -2.5696    0.0000 C   0  0  0  0  0  0  0  0  0  0  0  0
   -1.6923   -3.9978    0.0000 C   0  0  0  0  0  0  0  0  0  0  0  0
   -3.1584   -4.3149    0.0000 C   0  0  0  0  0  0  0  0  0  0  0  0
   -4.1661   -3.2038    0.0000 C   0  0  0  0  0  0  0  0  0  0  0  0
   -3.7076   -1.7756    0.0000 C   0  0  0  0  0  0  0  0  0  0  0  0
   -5.1317   -2.2467    0.0000 C   0  0  0  0  0  0  0  0  0  0  0  0
   -4.9855   -0.7538    0.0000 C   0  0  0  0  0  0  0  0  0  0  0  0
   -6.2053    0.1192    0.0000 C   0  0  0  0  0  0  0  0  0  0  0  0
   -7.5712   -0.5006    0.0000 C   0  0  0  0  0  0  0  0  0  0  0  0
   -7.7174   -1.9934    0.0000 C   0  0  0  0  0  0  0  0  0  0  0  0
   -6.4977   -2.8665    0.0000 C   0  0  0  0  0  0  0  0  0  0  0  0
  1  2  1  0
  2  3  1  0
  3  4  1  0
  4  5  1  0
  5  6  1  0
  6  7  1  0
  7  8  1  0
  8  9  1  0
  9 10  1  0
 10 11  1  0
 11 12  1  0
 12 13  1  0
 13 14  1  0
 14 15  1  0
 15 16  1  0
 16 17  1  0
 17 18  1  0
 18 19  1  0
 19 20  1  0
 20 21  1  0
 21 22  1  0
 22 23  1  0
 23 24  1  0
 24 25  1  0
 25 26  1  0
 26 27  1  0
 27 28  1  0
 28 29  1  0
 29 30  1  0
 30 31  1  0
 31 32  1  0
 32 33  1  0
 33 34  1  0
 34 35  1  0
 35 36  1  0
 36 37  1  0
 37 38  1  0
 38 39  1  0
 39 40  1  0
 40 41  1  0
 41 42  1  0
 42 43  1  0
 43 44  1  0
 44 45  1  0
 45 46  1  0
 46 47  1  0
 47 48  1  0
 48 49  1  0
 49 50  1  0
 50 51  1  0
 51 52  1  0
 52 53  1  0
 53 54  1  0
 54 55  1  0
 55 56  1  0
 56 57  1  0
 57 58  1  0
 58 59  1  0
 59 60  1  0
 60 61  1  0
 61 62  2  0
 62 63  1  0
 63 64  2  0
 64 65  1  0
 65 66  2  0
 66 67  1  0
 67 68  2  0
 68 69  1  0
 69 70  2  0
 70 71  1  0
 71 72  2  0
 72  2  1  0
 60 55  1  0
 66 61  1  0
 72 67  1  0
M  END
>  <Title>  (410) 
idAANVgen10

$$$$

     RDKit          2D

  7  7  0  0  0  0  0  0  0  0999 V2000
    4.2760   -0.0000    0.0000 C   0  0  0  0  0  0  0  0  0  0  0  0
    2.7760    0.0000    0.0000 C   0  0  0  0  0  0  0  0  0  0  0  0
    1.2760    0.0000    0.0000 C   0  0  0  0  0  0  0  0  0  0  0  0
    0.3943    1.2135    0.0000 C   0  0  0  0  0  0  0  0  0  0  0  0
   -1.0323    0.7500    0.0000 C   0  0  0  0  0  0  0  0  0  0  0  0
   -1.0323   -0.7500    0.0000 C   0  0  0  0  0  0  0  0  0  0  0  0
    0.3943   -1.2135    0.0000 C   0  0  0  0  0  0  0  0  0  0  0  0
  1  2  3  0
  2  3  1  0
  3  4  1  0
  4  5  1  0
  5  6  2  0
  6  7  1  0
  7  3  1  0
M  END
>  <Title>  (411) 
idAANWgen10

$$$$

     RDKit          2D

  9  9  0  0  0  0  0  0  0  0999 V2000
    5.0260   -1.2990    0.0000 C   0  0  0  0  0  0  0  0  0  0  0  0
    3.5260   -1.2990    0.0000 C   0  0  0  0  0  0  0  0  0  0  0  0
    2.7760   -2.5981    0.0000 O   0  0  0  0  0  0  0  0  0  0  0  0
    2.7760    0.0000    0.0000 N   0  0  0  0  0  0  0  0  0  0  0  0
    1.2760    0.0000    0.0000 C   0  0  0  0  0  0  0  0  0  0  0  0
    0.3943    1.2135    0.0000 C   0  0  0  0  0  0  0  0  0  0  0  0
   -1.0323    0.7500    0.0000 C   0  0  0  0  0  0  0  0  0  0  0  0
   -1.0323   -0.7500    0.0000 C   0  0  0  0  0  0  0  0  0  0  0  0
    0.3943   -1.2135    0.0000 C   0  0  0  0  0  0  0  0  0  0  0  0
  1  2  1  0
  2  3  2  0
  2  4  1  0
  4  5  1  0
  5  6  2  0
  6  7  1  0
  7  8  1  0
  8  9  2  0
  9  5  1  0
M  END
>  <Title>  (412) 
idAANXgen10

$$$$

     RDKit          2D

  8  8  0  0  0  0  0  0  0  0999 V2000
    4.5000    0.0000    0.0000 C   0  0  0  0  0  0  0  0  0  0  0  0
    3.0000    0.0000    0.0000 C   0  0  0  0  0  0  0  0  0  0  0  0
    1.5000    0.0000    0.0000 C   0  0  0  0  0  0  0  0  0  0  0  0
    0.7500   -1.2990    0.0000 C   0  0  0  0  0  0  0  0  0  0  0  0
   -0.7500   -1.2990    0.0000 C   0  0  0  0  0  0  0  0  0  0  0  0
   -1.5000    0.0000    0.0000 C   0  0  0  0  0  0  0  0  0  0  0  0
   -0.7500    1.2990    0.0000 N   0  0  0  0  0  0  0  0  0  0  0  0
    0.7500    1.2990    0.0000 C   0  0  0  0  0  0  0  0  0  0  0  0
  1  2  3  0
  2  3  1  0
  3  4  2  0
  4  5  1  0
  5  6  2  0
  6  7  1  0
  7  8  2  0
  8  3  1  0
M  END
>  <Title>  (413) 
idAANYgen10

$$$$

     RDKit          2D

 67 77  0  0  0  0  0  0  0  0999 V2000
    6.3852  -12.4693    0.0000 C   0  0  0  0  0  0  0  0  0  0  0  0
    5.1820  -11.5735    0.0000 C   0  0  0  0  0  0  0  0  0  0  0  0
    5.9320  -10.2745    0.0000 C   0  0  0  0  0  0  0  0  0  0  0  0
    6.3622   -8.8375    0.0000 C   0  0  0  0  0  0  0  0  0  0  0  0
    6.4494   -7.3401    0.0000 C   0  0  0  0  0  0  0  0  0  0  0  0
    6.1889   -5.8629    0.0000 C   0  0  0  0  0  0  0  0  0  0  0  0
    7.5663   -5.2687    0.0000 C   0  0  0  0  0  0  0  0  0  0  0  0
    8.9603   -5.8225    0.0000 O   0  0  0  0  0  0  0  0  0  0  0  0
    6.9721   -3.8914    0.0000 N   0  0  0  0  0  0  0  0  0  0  0  0
    5.5948   -4.4855    0.0000 C   0  0  0  0  0  0  0  0  0  0  0  0
    4.6991   -3.2823    0.0000 N   0  0  0  0  0  0  0  0  0  0  0  0
    3.5500   -2.3182    0.0000 N   0  0  0  0  0  0  0  0  0  0  0  0
    2.2096   -1.6450    0.0000 N   0  0  0  0  0  0  0  0  0  0  0  0
    0.7500   -1.2990    0.0000 N   0  0  0  0  0  0  0  0  0  0  0  0
    1.5000    0.0000    0.0000 C   0  0  0  0  0  0  0  0  0  0  0  0
    0.7500    1.2990    0.0000 C   0  0  0  0  0  0  0  0  0  0  0  0
   -0.7500    1.2990    0.0000 C   0  0  0  0  0  0  0  0  0  0  0  0
   -1.5000    0.0000    0.0000 C   0  0  0  0  0  0  0  0  0  0  0  0
   -0.7500   -1.2990    0.0000 C   0  0  0  0  0  0  0  0  0  0  0  0
   -2.2096   -1.6450    0.0000 C   0  0  0  0  0  0  0  0  0  0  0  0
   -2.7479   -0.4617    0.0000 C   0  0  0  0  0  0  0  0  0  0  0  0
   -3.4163   -0.0221    0.0000 C   0  0  0  0  0  0  0  0  0  0  0  0
   -4.1312   -0.3811    0.0000 C   0  0  0  0  0  0  0  0  0  0  0  0
   -4.1777   -1.1797    0.0000 C   0  0  0  0  0  0  0  0  0  0  0  0
   -3.5500   -2.3182    0.0000 C   0  0  0  0  0  0  0  0  0  0  0  0
   -4.6991   -3.2823    0.0000 C   0  0  0  0  0  0  0  0  0  0  0  0
   -5.2932   -1.9050    0.0000 C   0  0  0  0  0  0  0  0  0  0  0  0
   -6.7831   -1.7309    0.0000 C   0  0  0  0  0  0  0  0  0  0  0  0
   -7.6788   -2.9341    0.0000 C   0  0  0  0  0  0  0  0  0  0  0  0
   -7.0847   -4.3114    0.0000 C   0  0  0  0  0  0  0  0  0  0  0  0
   -5.5948   -4.4855    0.0000 C   0  0  0  0  0  0  0  0  0  0  0  0
   -6.1889   -5.8629    0.0000 C   0  0  0  0  0  0  0  0  0  0  0  0
   -7.4596   -5.5880    0.0000 C   0  0  0  0  0  0  0  0  0  0  0  0
   -8.2113   -5.8617    0.0000 C   0  0  0  0  0  0  0  0  0  0  0  0
   -8.3502   -6.6495    0.0000 C   0  0  0  0  0  0  0  0  0  0  0  0
   -7.7374   -7.1637    0.0000 C   0  0  0  0  0  0  0  0  0  0  0  0
   -6.4494   -7.3401    0.0000 C   0  0  0  0  0  0  0  0  0  0  0  0
   -6.3622   -8.8375    0.0000 C   0  0  0  0  0  0  0  0  0  0  0  0
   -7.8218   -8.4916    0.0000 C   0  0  0  0  0  0  0  0  0  0  0  0
   -8.8511   -9.5827    0.0000 C   0  0  0  0  0  0  0  0  0  0  0  0
   -8.4209  -11.0196    0.0000 C   0  0  0  0  0  0  0  0  0  0  0  0
   -6.9614  -11.3656    0.0000 C   0  0  0  0  0  0  0  0  0  0  0  0
   -5.9320  -10.2745    0.0000 C   0  0  0  0  0  0  0  0  0  0  0  0
   -5.1820  -11.5735    0.0000 C   0  0  0  0  0  0  0  0  0  0  0  0
   -6.1612  -12.4286    0.0000 C   0  0  0  0  0  0  0  0  0  0  0  0
   -6.3906  -13.1950    0.0000 C   0  0  0  0  0  0  0  0  0  0  0  0
   -5.8416  -13.7769    0.0000 C   0  0  0  0  0  0  0  0  0  0  0  0
   -5.0632  -13.5924    0.0000 C   0  0  0  0  0  0  0  0  0  0  0  0
   -4.1526  -12.6646    0.0000 C   0  0  0  0  0  0  0  0  0  0  0  0
   -2.8994  -13.4889    0.0000 C   0  0  0  0  0  0  0  0  0  0  0  0
   -4.0485  -14.4531    0.0000 C   0  0  0  0  0  0  0  0  0  0  0  0
   -3.7880  -15.9303    0.0000 C   0  0  0  0  0  0  0  0  0  0  0  0
   -2.3785  -16.4433    0.0000 C   0  0  0  0  0  0  0  0  0  0  0  0
   -1.2294  -15.4791    0.0000 C   0  0  0  0  0  0  0  0  0  0  0  0
   -1.4899  -14.0019    0.0000 C   0  0  0  0  0  0  0  0  0  0  0  0
   -0.0000  -14.1760    0.0000 C   0  0  0  0  0  0  0  0  0  0  0  0
    0.1011  -15.4721    0.0000 C   0  0  0  0  0  0  0  0  0  0  0  0
    0.5789  -16.1138    0.0000 C   0  0  0  0  0  0  0  0  0  0  0  0
    1.3735  -16.0209    0.0000 C   0  0  0  0  0  0  0  0  0  0  0  0
    1.6903  -15.2864    0.0000 C   0  0  0  0  0  0  0  0  0  0  0  0
    1.4899  -14.0019    0.0000 C   0  0  0  0  0  0  0  0  0  0  0  0
    2.8994  -13.4889    0.0000 C   0  0  0  0  0  0  0  0  0  0  0  0
    2.9866  -14.9863    0.0000 C   0  0  0  0  0  0  0  0  0  0  0  0
    4.3271  -15.6595    0.0000 C   0  0  0  0  0  0  0  0  0  0  0  0
    5.5803  -14.8353    0.0000 C   0  0  0  0  0  0  0  0  0  0  0  0
    5.4931  -13.3378    0.0000 C   0  0  0  0  0  0  0  0  0  0  0  0
    4.1526  -12.6646    0.0000 C   0  0  0  0  0  0  0  0  0  0  0  0
  1  2  1  0
  2  3  2  0
  3  4  1  0
  4  5  1  0
  5  6  2  0
  6  7  1  0
  7  8  2  0
  7  9  1  0
  9 10  1  0
 10 11  2  0
 11 12  1  0
 12 13  2  0
 13 14  1  0
 14 15  1  0
 15 16  1  0
 16 17  2  0
 17 18  1  0
 18 19  2  0
 19 20  1  0
 20 21  2  0
 21 22  1  0
 22 23  2  0
 23 24  1  0
 24 25  2  0
 25 26  1  0
 26 27  2  0
 27 28  1  0
 28 29  2  0
 29 30  1  0
 30 31  2  0
 31 32  1  0
 32 33  2  0
 33 34  1  0
 34 35  2  0
 35 36  1  0
 36 37  2  0
 37 38  1  0
 38 39  2  0
 39 40  1  0
 40 41  2  0
 41 42  1  0
 42 43  2  0
 43 44  1  0
 44 45  2  0
 45 46  1  0
 46 47  2  0
 47 48  1  0
 48 49  2  0
 49 50  1  0
 50 51  2  0
 51 52  1  0
 52 53  2  0
 53 54  1  0
 54 55  2  0
 55 56  1  0
 56 57  2  0
 57 58  1  0
 58 59  2  0
 59 60  1  0
 60 61  2  0
 61 62  1  0
 62 63  2  0
 63 64  1  0
 64 65  2  0
 65 66  1  0
 66 67  2  0
 67  2  1  0
 10  6  1  0
 19 14  1  0
 25 20  1  0
 31 26  1  0
 37 32  1  0
 43 38  1  0
 49 44  1  0
 55 50  1  0
 61 56  1  0
 67 62  1  0
M  END
>  <Title>  (414) 
idAANZgen10

$$$$

     RDKit          2D

114115  0  0  0  0  0  0  0  0999 V2000
   -2.1433   -1.0923    0.0000 C   0  0  0  0  0  0  0  0  0  0  0  0
   -2.4830    0.3687    0.0000 C   0  0  0  0  0  0  0  0  0  0  0  0
   -3.9531    0.0708    0.0000 C   0  0  0  0  0  0  0  0  0  0  0  0
   -5.4379   -0.1427    0.0000 C   0  0  0  0  0  0  0  0  0  0  0  0
   -6.9324   -0.2710    0.0000 C   0  0  0  0  0  0  0  0  0  0  0  0
   -8.4317   -0.3139    0.0000 C   0  0  0  0  0  0  0  0  0  0  0  0
   -9.9311   -0.2710    0.0000 C   0  0  0  0  0  0  0  0  0  0  0  0
  -11.4256   -0.1427    0.0000 C   0  0  0  0  0  0  0  0  0  0  0  0
  -12.9104    0.0708    0.0000 C   0  0  0  0  0  0  0  0  0  0  0  0
  -14.3805    0.3687    0.0000 C   0  0  0  0  0  0  0  0  0  0  0  0
  -15.8312    0.7500    0.0000 C   0  0  0  0  0  0  0  0  0  0  0  0
  -17.2578    1.2135    0.0000 C   0  0  0  0  0  0  0  0  0  0  0  0
  -18.6556    1.7577    0.0000 C   0  0  0  0  0  0  0  0  0  0  0  0
  -20.0200    2.3809    0.0000 C   0  0  0  0  0  0  0  0  0  0  0  0
  -21.3467    3.0809    0.0000 C   0  0  0  0  0  0  0  0  0  0  0  0
  -22.6312    3.8555    0.0000 C   0  0  0  0  0  0  0  0  0  0  0  0
  -23.8694    4.7021    0.0000 C   0  0  0  0  0  0  0  0  0  0  0  0
  -25.0573    5.6181    0.0000 C   0  0  0  0  0  0  0  0  0  0  0  0
  -26.1909    6.6004    0.0000 C   0  0  0  0  0  0  0  0  0  0  0  0
  -27.2666    7.6458    0.0000 C   0  0  0  0  0  0  0  0  0  0  0  0
  -28.2809    8.7509    0.0000 C   0  0  0  0  0  0  0  0  0  0  0  0
  -29.2304    9.9121    0.0000 C   0  0  0  0  0  0  0  0  0  0  0  0
  -30.1121   11.1256    0.0000 C   0  0  0  0  0  0  0  0  0  0  0  0
  -30.9230   12.3875    0.0000 C   0  0  0  0  0  0  0  0  0  0  0  0
  -31.6606   13.6936    0.0000 C   0  0  0  0  0  0  0  0  0  0  0  0
  -32.3224   15.0397    0.0000 C   0  0  0  0  0  0  0  0  0  0  0  0
  -32.9064   16.4214    0.0000 C   0  0  0  0  0  0  0  0  0  0  0  0
  -33.4104   17.8342    0.0000 C   0  0  0  0  0  0  0  0  0  0  0  0
  -33.8330   19.2734    0.0000 C   0  0  0  0  0  0  0  0  0  0  0  0
  -34.1728   20.7344    0.0000 C   0  0  0  0  0  0  0  0  0  0  0  0
  -34.4286   22.2125    0.0000 C   0  0  0  0  0  0  0  0  0  0  0  0
  -34.5995   23.7027    0.0000 C   0  0  0  0  0  0  0  0  0  0  0  0
  -34.6852   25.2003    0.0000 C   0  0  0  0  0  0  0  0  0  0  0  0
  -34.6852   26.7003    0.0000 C   0  0  0  0  0  0  0  0  0  0  0  0
  -34.5995   28.1978    0.0000 C   0  0  0  0  0  0  0  0  0  0  0  0
  -34.4286   29.6880    0.0000 C   0  0  0  0  0  0  0  0  0  0  0  0
  -34.1728   31.1661    0.0000 C   0  0  0  0  0  0  0  0  0  0  0  0
  -33.8330   32.6271    0.0000 C   0  0  0  0  0  0  0  0  0  0  0  0
  -33.4104   34.0663    0.0000 C   0  0  0  0  0  0  0  0  0  0  0  0
  -32.9064   35.4791    0.0000 C   0  0  0  0  0  0  0  0  0  0  0  0
  -32.3224   36.8608    0.0000 C   0  0  0  0  0  0  0  0  0  0  0  0
  -31.6606   38.2069    0.0000 C   0  0  0  0  0  0  0  0  0  0  0  0
  -30.9230   39.5130    0.0000 C   0  0  0  0  0  0  0  0  0  0  0  0
  -30.1121   40.7749    0.0000 C   0  0  0  0  0  0  0  0  0  0  0  0
  -29.2304   41.9884    0.0000 C   0  0  0  0  0  0  0  0  0  0  0  0
  -28.2809   43.1496    0.0000 C   0  0  0  0  0  0  0  0  0  0  0  0
  -27.2666   44.2547    0.0000 C   0  0  0  0  0  0  0  0  0  0  0  0
  -26.1909   45.3001    0.0000 C   0  0  0  0  0  0  0  0  0  0  0  0
  -25.0573   46.2824    0.0000 C   0  0  0  0  0  0  0  0  0  0  0  0
  -23.8694   47.1984    0.0000 C   0  0  0  0  0  0  0  0  0  0  0  0
  -22.6312   48.0451    0.0000 C   0  0  0  0  0  0  0  0  0  0  0  0
  -21.3467   48.8196    0.0000 C   0  0  0  0  0  0  0  0  0  0  0  0
  -20.0200   49.5196    0.0000 C   0  0  0  0  0  0  0  0  0  0  0  0
  -18.6556   50.1428    0.0000 C   0  0  0  0  0  0  0  0  0  0  0  0
  -17.2578   50.6870    0.0000 C   0  0  0  0  0  0  0  0  0  0  0  0
  -15.8312   51.1505    0.0000 C   0  0  0  0  0  0  0  0  0  0  0  0
  -14.3805   51.5318    0.0000 C   0  0  0  0  0  0  0  0  0  0  0  0
  -12.9104   51.8297    0.0000 C   0  0  0  0  0  0  0  0  0  0  0  0
  -11.4256   52.0432    0.0000 C   0  0  0  0  0  0  0  0  0  0  0  0
   -9.9311   52.1716    0.0000 C   0  0  0  0  0  0  0  0  0  0  0  0
   -8.4317   52.2144    0.0000 C   0  0  0  0  0  0  0  0  0  0  0  0
   -6.9324   52.1716    0.0000 C   0  0  0  0  0  0  0  0  0  0  0  0
   -5.4379   52.0432    0.0000 C   0  0  0  0  0  0  0  0  0  0  0  0
   -3.9531   51.8297    0.0000 C   0  0  0  0  0  0  0  0  0  0  0  0
   -2.4830   51.5318    0.0000 C   0  0  0  0  0  0  0  0  0  0  0  0
   -1.0323   51.1505    0.0000 C   0  0  0  0  0  0  0  0  0  0  0  0
    0.3943   50.6870    0.0000 C   0  0  0  0  0  0  0  0  0  0  0  0
    1.7921   50.1428    0.0000 C   0  0  0  0  0  0  0  0  0  0  0  0
    3.1565   49.5196    0.0000 C   0  0  0  0  0  0  0  0  0  0  0  0
    4.4832   48.8196    0.0000 C   0  0  0  0  0  0  0  0  0  0  0  0
    5.7677   48.0451    0.0000 C   0  0  0  0  0  0  0  0  0  0  0  0
    7.0059   47.1984    0.0000 C   0  0  0  0  0  0  0  0  0  0  0  0
    8.1938   46.2824    0.0000 C   0  0  0  0  0  0  0  0  0  0  0  0
    9.3274   45.3001    0.0000 C   0  0  0  0  0  0  0  0  0  0  0  0
   10.4031   44.2547    0.0000 C   0  0  0  0  0  0  0  0  0  0  0  0
   11.4174   43.1496    0.0000 C   0  0  0  0  0  0  0  0  0  0  0  0
   12.3669   41.9884    0.0000 C   0  0  0  0  0  0  0  0  0  0  0  0
   13.2486   40.7749    0.0000 C   0  0  0  0  0  0  0  0  0  0  0  0
   14.0595   39.5130    0.0000 C   0  0  0  0  0  0  0  0  0  0  0  0
   14.7971   38.2069    0.0000 C   0  0  0  0  0  0  0  0  0  0  0  0
   15.4589   36.8608    0.0000 C   0  0  0  0  0  0  0  0  0  0  0  0
   16.0429   35.4791    0.0000 C   0  0  0  0  0  0  0  0  0  0  0  0
   16.5469   34.0663    0.0000 C   0  0  0  0  0  0  0  0  0  0  0  0
   16.9695   32.6271    0.0000 C   0  0  0  0  0  0  0  0  0  0  0  0
   17.3093   31.1661    0.0000 C   0  0  0  0  0  0  0  0  0  0  0  0
   17.5651   29.6880    0.0000 C   0  0  0  0  0  0  0  0  0  0  0  0
   17.7360   28.1978    0.0000 C   0  0  0  0  0  0  0  0  0  0  0  0
   17.8217   26.7003    0.0000 C   0  0  0  0  0  0  0  0  0  0  0  0
   17.8217   25.2003    0.0000 C   0  0  0  0  0  0  0  0  0  0  0  0
   17.7360   23.7027    0.0000 C   0  0  0  0  0  0  0  0  0  0  0  0
   17.5651   22.2125    0.0000 C   0  0  0  0  0  0  0  0  0  0  0  0
   17.3093   20.7344    0.0000 C   0  0  0  0  0  0  0  0  0  0  0  0
   16.9695   19.2734    0.0000 C   0  0  0  0  0  0  0  0  0  0  0  0
   16.5469   17.8342    0.0000 C   0  0  0  0  0  0  0  0  0  0  0  0
   16.0429   16.4214    0.0000 C   0  0  0  0  0  0  0  0  0  0  0  0
   15.4589   15.0397    0.0000 C   0  0  0  0  0  0  0  0  0  0  0  0
   14.7971   13.6936    0.0000 C   0  0  0  0  0  0  0  0  0  0  0  0
   14.0595   12.3875    0.0000 C   0  0  0  0  0  0  0  0  0  0  0  0
   13.2486   11.1256    0.0000 C   0  0  0  0  0  0  0  0  0  0  0  0
   12.3669    9.9121    0.0000 C   0  0  0  0  0  0  0  0  0  0  0  0
   11.4174    8.7509    0.0000 C   0  0  0  0  0  0  0  0  0  0  0  0
   10.4031    7.6458    0.0000 C   0  0  0  0  0  0  0  0  0  0  0  0
    9.3274    6.6004    0.0000 C   0  0  0  0  0  0  0  0  0  0  0  0
    8.1938    5.6181    0.0000 C   0  0  0  0  0  0  0  0  0  0  0  0
    7.0059    4.7021    0.0000 C   0  0  0  0  0  0  0  0  0  0  0  0
    5.7677    3.8555    0.0000 C   0  0  0  0  0  0  0  0  0  0  0  0
    4.4832    3.0809    0.0000 C   0  0  0  0  0  0  0  0  0  0  0  0
    3.1565    2.3809    0.0000 C   0  0  0  0  0  0  0  0  0  0  0  0
    1.7921    1.7577    0.0000 C   0  0  0  0  0  0  0  0  0  0  0  0
    0.3943    1.2135    0.0000 C   0  0  0  0  0  0  0  0  0  0  0  0
    1.2760    0.0000    0.0000 C   0  0  0  0  0  0  0  0  0  0  0  0
    0.3943   -1.2135    0.0000 C   0  0  0  0  0  0  0  0  0  0  0  0
   -1.0323   -0.7500    0.0000 C   0  0  0  0  0  0  0  0  0  0  0  0
   -1.0323    0.7500    0.0000 C   0  0  0  0  0  0  0  0  0  0  0  0
  1  2  1  0
  2  3  1  0
  3  4  1  0
  4  5  1  0
  5  6  1  0
  6  7  1  0
  7  8  1  0
  8  9  1  0
  9 10  1  0
 10 11  1  0
 11 12  1  0
 12 13  1  0
 13 14  1  0
 14 15  1  0
 15 16  1  0
 16 17  1  0
 17 18  1  0
 18 19  1  0
 19 20  1  0
 20 21  1  0
 21 22  1  0
 22 23  1  0
 23 24  1  0
 24 25  1  0
 25 26  1  0
 26 27  1  0
 27 28  1  0
 28 29  1  0
 29 30  1  0
 30 31  1  0
 31 32  1  0
 32 33  1  0
 33 34  1  0
 34 35  1  0
 35 36  1  0
 36 37  1  0
 37 38  1  0
 38 39  1  0
 39 40  1  0
 40 41  1  0
 41 42  1  0
 42 43  1  0
 43 44  1  0
 44 45  1  0
 45 46  1  0
 46 47  1  0
 47 48  1  0
 48 49  1  0
 49 50  1  0
 50 51  1  0
 51 52  1  0
 52 53  1  0
 53 54  1  0
 54 55  1  0
 55 56  1  0
 56 57  1  0
 57 58  1  0
 58 59  1  0
 59 60  1  0
 60 61  1  0
 61 62  1  0
 62 63  1  0
 63 64  1  0
 64 65  1  0
 65 66  1  0
 66 67  1  0
 67 68  1  0
 68 69  1  0
 69 70  1  0
 70 71  1  0
 71 72  1  0
 72 73  1  0
 73 74  1  0
 74 75  1  0
 75 76  1  0
 76 77  1  0
 77 78  1  0
 78 79  1  0
 79 80  1  0
 80 81  1  0
 81 82  1  0
 82 83  1  0
 83 84  1  0
 84 85  1  0
 85 86  1  0
 86 87  1  0
 87 88  1  0
 88 89  1  0
 89 90  1  0
 90 91  1  0
 91 92  1  0
 92 93  1  0
 93 94  1  0
 94 95  1  0
 95 96  1  0
 96 97  1  0
 97 98  1  0
 98 99  1  0
 99100  1  0
100101  1  0
101102  1  0
102103  1  0
103104  1  0
104105  1  0
105106  1  0
106107  1  0
107108  1  0
108109  1  0
109110  1  0
110111  1  0
111112  2  0
112113  1  0
113114  2  0
114  2  1  0
114110  1  0
M  END
>  <Title>  (415) 
idAAOAgen10

$$$$

     RDKit          2D

 18 17  0  0  0  0  0  0  0  0999 V2000
    0.0000    0.0000    0.0000 C   0  0  0  0  0  0  0  0  0  0  0  0
    1.2990    0.7500    0.0000 C   0  0  0  0  0  0  0  0  0  0  0  0
    2.5981   -0.0000    0.0000 C   0  0  0  0  0  0  0  0  0  0  0  0
    3.8971   -0.7500    0.0000 C   0  0  0  0  0  0  0  0  0  0  0  0
    5.1962   -1.5000    0.0000 C   0  0  0  0  0  0  0  0  0  0  0  0
    6.4952   -0.7500    0.0000 C   0  0  0  0  0  0  0  0  0  0  0  0
    7.7942   -1.5000    0.0000 C   0  0  0  0  0  0  0  0  0  0  0  0
    9.0933   -0.7500    0.0000 C   0  0  0  0  0  0  0  0  0  0  0  0
   10.3923   -1.5000    0.0000 C   0  0  0  0  0  0  0  0  0  0  0  0
   11.6913   -0.7500    0.0000 C   0  0  0  0  0  0  0  0  0  0  0  0
   12.9904   -1.5000    0.0000 C   0  0  0  0  0  0  0  0  0  0  0  0
   14.2894   -0.7500    0.0000 C   0  0  0  0  0  0  0  0  0  0  0  0
   15.5885   -1.5000    0.0000 C   0  0  0  0  0  0  0  0  0  0  0  0
   16.8875   -0.7500    0.0000 C   0  0  0  0  0  0  0  0  0  0  0  0
   18.1865   -1.5000    0.0000 C   0  0  0  0  0  0  0  0  0  0  0  0
   19.4856   -0.7500    0.0000 C   0  0  0  0  0  0  0  0  0  0  0  0
   20.7846   -1.5000    0.0000 C   0  0  0  0  0  0  0  0  0  0  0  0
   22.0836   -0.7500    0.0000 C   0  0  0  0  0  0  0  0  0  0  0  0
  1  2  2  0
  2  3  1  0
  3  4  3  0
  4  5  1  0
  5  6  2  3
  6  7  1  0
  7  8  1  0
  8  9  1  0
  9 10  1  0
 10 11  1  0
 11 12  1  0
 12 13  1  0
 13 14  1  0
 14 15  1  0
 15 16  2  3
 16 17  1  0
 17 18  1  0
M  END
>  <Title>  (416) 
idAAOBgen10

$$$$

     RDKit          2D

 12 12  0  0  0  0  0  0  0  0999 V2000
    7.9598   -0.0000    0.0000 C   0  0  0  0  0  0  0  0  0  0  0  0
    6.4598   -0.0000    0.0000 C   0  0  0  0  0  0  0  0  0  0  0  0
    4.9598   -0.0000    0.0000 C   0  0  0  0  0  0  0  0  0  0  0  0
    3.4598   -0.0000    0.0000 C   0  0  0  0  0  0  0  0  0  0  0  0
    1.9598    0.0000    0.0000 C   0  0  0  0  0  0  0  0  0  0  0  0
    1.3858   -1.3858    0.0000 C   0  0  0  0  0  0  0  0  0  0  0  0
   -0.0000   -1.9598    0.0000 C   0  0  0  0  0  0  0  0  0  0  0  0
   -1.3858   -1.3858    0.0000 C   0  0  0  0  0  0  0  0  0  0  0  0
   -1.9598    0.0000    0.0000 C   0  0  0  0  0  0  0  0  0  0  0  0
   -1.3858    1.3858    0.0000 C   0  0  0  0  0  0  0  0  0  0  0  0
    0.0000    1.9598    0.0000 C   0  0  0  0  0  0  0  0  0  0  0  0
    1.3858    1.3858    0.0000 C   0  0  0  0  0  0  0  0  0  0  0  0
  1  2  3  0
  2  3  1  0
  3  4  3  0
  4  5  1  0
  5  6  2  0
  6  7  1  0
  7  8  2  0
  8  9  1  0
  9 10  2  0
 10 11  1  0
 11 12  2  0
 12  5  1  0
M  END
>  <Title>  (417) 
idAAOCgen10

$$$$

     RDKit          2D

 11 11  0  0  0  0  0  0  0  0999 V2000
    7.2760   -0.0000    0.0000 C   0  0  0  0  0  0  0  0  0  0  0  0
    5.7760   -0.0000    0.0000 C   0  0  0  0  0  0  0  0  0  0  0  0
    4.2760   -0.0000    0.0000 C   0  0  0  0  0  0  0  0  0  0  0  0
    2.7760    0.0000    0.0000 C   0  0  0  0  0  0  0  0  0  0  0  0
    1.2760    0.0000    0.0000 C   0  0  0  0  0  0  0  0  0  0  0  0
    0.3943    1.2135    0.0000 C   0  0  0  0  0  0  0  0  0  0  0  0
   -1.0323    0.7500    0.0000 C   0  0  0  0  0  0  0  0  0  0  0  0
   -2.2458    1.6317    0.0000 C   0  0  0  0  0  0  0  0  0  0  0  0
   -1.0323   -0.7500    0.0000 C   0  0  0  0  0  0  0  0  0  0  0  0
   -2.2458   -1.6317    0.0000 C   0  0  0  0  0  0  0  0  0  0  0  0
    0.3943   -1.2135    0.0000 C   0  0  0  0  0  0  0  0  0  0  0  0
  1  2  3  0
  2  3  1  0
  3  4  3  0
  4  5  1  0
  5  6  2  0
  6  7  1  0
  7  8  1  0
  7  9  1  0
  9 10  1  0
  9 11  1  0
 11  5  1  0
M  END
>  <Title>  (418) 
idAAODgen10

$$$$

     RDKit          2D

  8  7  0  0  0  0  0  0  0  0999 V2000
    0.0000    0.0000    0.0000 C   0  0  0  0  0  0  0  0  0  0  0  0
   -0.0000   -1.5000    0.0000 C   0  0  0  0  0  0  0  0  0  0  0  0
   -0.0000   -3.0000    0.0000 C   0  0  0  0  0  0  0  0  0  0  0  0
    1.2990   -3.7500    0.0000 C   0  0  0  0  0  0  0  0  0  0  0  0
    1.2990   -5.2500    0.0000 C   0  0  0  0  0  0  0  0  0  0  0  0
    2.5981   -6.0000    0.0000 C   0  0  0  0  0  0  0  0  0  0  0  0
    2.5981   -7.5000    0.0000 C   0  0  0  0  0  0  0  0  0  0  0  0
    3.8971   -8.2500    0.0000 C   0  0  0  0  0  0  0  0  0  0  0  0
  1  2  3  0
  2  3  1  0
  3  4  1  0
  4  5  1  0
  5  6  1  0
  6  7  2  3
  7  8  1  0
M  END
>  <Title>  (419) 
idAAOEgen10

$$$$

     RDKit          2D

 11 11  0  0  0  0  0  0  0  0999 V2000
    4.5000    2.5981    0.0000 C   0  0  0  0  0  0  0  0  0  0  0  0
    3.7500    1.2990    0.0000 C   0  0  0  0  0  0  0  0  0  0  0  0
    3.0000    0.0000    0.0000 C   0  0  0  0  0  0  0  0  0  0  0  0
    3.7500   -1.2990    0.0000 C   0  0  0  0  0  0  0  0  0  0  0  0
    1.5000    0.0000    0.0000 C   0  0  0  0  0  0  0  0  0  0  0  0
    0.7500   -1.2990    0.0000 C   0  0  0  0  0  0  0  0  0  0  0  0
   -0.7500   -1.2990    0.0000 C   0  0  0  0  0  0  0  0  0  0  0  0
   -1.5000   -2.5981    0.0000 C   0  0  0  0  0  0  0  0  0  0  0  0
   -1.5000    0.0000    0.0000 C   0  0  0  0  0  0  0  0  0  0  0  0
   -0.7500    1.2990    0.0000 C   0  0  0  0  0  0  0  0  0  0  0  0
    0.7500    1.2990    0.0000 N   0  0  0  0  0  0  0  0  0  0  0  0
  1  2  3  0
  2  3  1  0
  3  4  1  0
  3  5  1  0
  5  6  2  0
  6  7  1  0
  7  8  1  0
  7  9  2  0
  9 10  1  0
 10 11  2  0
 11  5  1  0
M  END
>  <Title>  (420) 
idAAOFgen10

$$$$

     RDKit          2D

 74 77  0  0  0  0  0  0  0  0999 V2000
   -8.6242   -2.2901    0.0000 C   0  0  0  0  0  0  0  0  0  0  0  0
   -7.8192   -3.5558    0.0000 C   0  0  0  0  0  0  0  0  0  0  0  0
   -9.0417   -4.4249    0.0000 C   0  0  0  0  0  0  0  0  0  0  0  0
  -10.1684   -5.4151    0.0000 C   0  0  0  0  0  0  0  0  0  0  0  0
  -11.1873   -6.5160    0.0000 C   0  0  0  0  0  0  0  0  0  0  0  0
  -12.0877   -7.7157    0.0000 C   0  0  0  0  0  0  0  0  0  0  0  0
  -12.8599   -9.0017    0.0000 C   0  0  0  0  0  0  0  0  0  0  0  0
  -13.4957  -10.3602    0.0000 C   0  0  0  0  0  0  0  0  0  0  0  0
  -13.9885  -11.7770    0.0000 C   0  0  0  0  0  0  0  0  0  0  0  0
  -14.3331  -13.2369    0.0000 C   0  0  0  0  0  0  0  0  0  0  0  0
  -14.5257  -14.7245    0.0000 C   0  0  0  0  0  0  0  0  0  0  0  0
  -14.5643  -16.2240    0.0000 C   0  0  0  0  0  0  0  0  0  0  0  0
  -14.4485  -17.7195    0.0000 C   0  0  0  0  0  0  0  0  0  0  0  0
  -14.1796  -19.1952    0.0000 C   0  0  0  0  0  0  0  0  0  0  0  0
  -13.7604  -20.6354    0.0000 C   0  0  0  0  0  0  0  0  0  0  0  0
  -13.1953  -22.0249    0.0000 C   0  0  0  0  0  0  0  0  0  0  0  0
  -12.4903  -23.3489    0.0000 C   0  0  0  0  0  0  0  0  0  0  0  0
  -11.6530  -24.5934    0.0000 C   0  0  0  0  0  0  0  0  0  0  0  0
  -10.6921  -25.7453    0.0000 C   0  0  0  0  0  0  0  0  0  0  0  0
   -9.6178  -26.7922    0.0000 C   0  0  0  0  0  0  0  0  0  0  0  0
   -8.4417  -27.7231    0.0000 C   0  0  0  0  0  0  0  0  0  0  0  0
   -7.1760  -28.5281    0.0000 C   0  0  0  0  0  0  0  0  0  0  0  0
   -5.8343  -29.1988    0.0000 C   0  0  0  0  0  0  0  0  0  0  0  0
   -4.4307  -29.7279    0.0000 C   0  0  0  0  0  0  0  0  0  0  0  0
   -2.9801  -30.1099    0.0000 C   0  0  0  0  0  0  0  0  0  0  0  0
   -1.4980  -30.3407    0.0000 C   0  0  0  0  0  0  0  0  0  0  0  0
    0.0000  -30.4180    0.0000 C   0  0  0  0  0  0  0  0  0  0  0  0
    1.4980  -30.3407    0.0000 C   0  0  0  0  0  0  0  0  0  0  0  0
    2.9801  -30.1099    0.0000 C   0  0  0  0  0  0  0  0  0  0  0  0
    4.4307  -29.7279    0.0000 C   0  0  0  0  0  0  0  0  0  0  0  0
    5.8343  -29.1988    0.0000 C   0  0  0  0  0  0  0  0  0  0  0  0
    7.1760  -28.5281    0.0000 C   0  0  0  0  0  0  0  0  0  0  0  0
    8.4417  -27.7231    0.0000 C   0  0  0  0  0  0  0  0  0  0  0  0
    9.6178  -26.7922    0.0000 C   0  0  0  0  0  0  0  0  0  0  0  0
   10.6921  -25.7453    0.0000 C   0  0  0  0  0  0  0  0  0  0  0  0
   11.6530  -24.5934    0.0000 C   0  0  0  0  0  0  0  0  0  0  0  0
   12.4903  -23.3489    0.0000 C   0  0  0  0  0  0  0  0  0  0  0  0
   13.1953  -22.0249    0.0000 C   0  0  0  0  0  0  0  0  0  0  0  0
   13.7604  -20.6354    0.0000 C   0  0  0  0  0  0  0  0  0  0  0  0
   14.1796  -19.1952    0.0000 C   0  0  0  0  0  0  0  0  0  0  0  0
   14.4485  -17.7195    0.0000 C   0  0  0  0  0  0  0  0  0  0  0  0
   14.5643  -16.2240    0.0000 C   0  0  0  0  0  0  0  0  0  0  0  0
   14.5257  -14.7245    0.0000 C   0  0  0  0  0  0  0  0  0  0  0  0
   14.3331  -13.2369    0.0000 C   0  0  0  0  0  0  0  0  0  0  0  0
   13.9885  -11.7770    0.0000 C   0  0  0  0  0  0  0  0  0  0  0  0
   13.4957  -10.3602    0.0000 C   0  0  0  0  0  0  0  0  0  0  0  0
   12.8599   -9.0017    0.0000 C   0  0  0  0  0  0  0  0  0  0  0  0
   12.0877   -7.7157    0.0000 C   0  0  0  0  0  0  0  0  0  0  0  0
   11.1873   -6.5160    0.0000 C   0  0  0  0  0  0  0  0  0  0  0  0
   10.1684   -5.4151    0.0000 C   0  0  0  0  0  0  0  0  0  0  0  0
    9.0417   -4.4249    0.0000 C   0  0  0  0  0  0  0  0  0  0  0  0
    7.8192   -3.5558    0.0000 C   0  0  0  0  0  0  0  0  0  0  0  0
    6.5138   -2.8170    0.0000 C   0  0  0  0  0  0  0  0  0  0  0  0
    5.1393   -2.2163    0.0000 C   0  0  0  0  0  0  0  0  0  0  0  0
    3.7103   -1.7601    0.0000 C   0  0  0  0  0  0  0  0  0  0  0  0
    3.8722   -3.2513    0.0000 C   0  0  0  0  0  0  0  0  0  0  0  0
    2.5040   -3.8661    0.0000 C   0  0  0  0  0  0  0  0  0  0  0  0
    1.4965   -2.7549    0.0000 C   0  0  0  0  0  0  0  0  0  0  0  0
    2.2420   -1.4533    0.0000 C   0  0  0  0  0  0  0  0  0  0  0  0
    0.7500   -1.2990    0.0000 C   0  0  0  0  0  0  0  0  0  0  0  0
    1.5000    0.0000    0.0000 C   0  0  0  0  0  0  0  0  0  0  0  0
    0.7500    1.2990    0.0000 C   0  0  0  0  0  0  0  0  0  0  0  0
   -0.7500    1.2990    0.0000 C   0  0  0  0  0  0  0  0  0  0  0  0
   -1.5000    0.0000    0.0000 C   0  0  0  0  0  0  0  0  0  0  0  0
   -0.7500   -1.2990    0.0000 C   0  0  0  0  0  0  0  0  0  0  0  0
   -2.2420   -1.4533    0.0000 C   0  0  0  0  0  0  0  0  0  0  0  0
   -1.2422   -2.5714    0.0000 C   0  0  0  0  0  0  0  0  0  0  0  0
   -1.7106   -3.9964    0.0000 C   0  0  0  0  0  0  0  0  0  0  0  0
   -3.1789   -4.3032    0.0000 C   0  0  0  0  0  0  0  0  0  0  0  0
   -4.1788   -3.1851    0.0000 C   0  0  0  0  0  0  0  0  0  0  0  0
   -3.7103   -1.7601    0.0000 C   0  0  0  0  0  0  0  0  0  0  0  0
   -5.1393   -2.2163    0.0000 C   0  0  0  0  0  0  0  0  0  0  0  0
   -5.6684   -0.8127    0.0000 C   0  0  0  0  0  0  0  0  0  0  0  0
   -6.5138   -2.8170    0.0000 C   0  0  0  0  0  0  0  0  0  0  0  0
  1  2  1  0
  2  3  2  0
  3  4  1  0
  4  5  2  0
  5  6  1  0
  6  7  2  0
  7  8  1  0
  8  9  2  0
  9 10  1  0
 10 11  2  0
 11 12  1  0
 12 13  2  0
 13 14  1  0
 14 15  2  0
 15 16  1  0
 16 17  2  0
 17 18  1  0
 18 19  2  0
 19 20  1  0
 20 21  2  0
 21 22  1  0
 22 23  2  0
 23 24  1  0
 24 25  2  0
 25 26  1  0
 26 27  2  0
 27 28  1  0
 28 29  2  0
 29 30  1  0
 30 31  2  0
 31 32  1  0
 32 33  2  0
 33 34  1  0
 34 35  2  0
 35 36  1  0
 36 37  2  0
 37 38  1  0
 38 39  2  0
 39 40  1  0
 40 41  2  0
 41 42  1  0
 42 43  2  0
 43 44  1  0
 44 45  2  0
 45 46  1  0
 46 47  2  0
 47 48  1  0
 48 49  2  0
 49 50  1  0
 50 51  2  0
 51 52  1  0
 52 53  2  0
 53 54  1  0
 54 55  2  0
 55 56  1  0
 56 57  2  0
 57 58  1  0
 58 59  2  0
 59 60  1  0
 60 61  2  0
 61 62  1  0
 62 63  2  0
 63 64  1  0
 64 65  2  0
 65 66  1  0
 66 67  2  0
 67 68  1  0
 68 69  2  0
 69 70  1  0
 70 71  2  0
 71 72  1  0
 72 73  1  0
 72 74  2  0
 74  2  1  0
 59 55  1  0
 65 60  1  0
 71 66  1  0
M  END
>  <Title>  (421) 
idAAOGgen10

$$$$

     RDKit          2D

 10 10  0  0  0  0  0  0  0  0999 V2000
    4.2760   -2.5981    0.0000 C   0  0  0  0  0  0  0  0  0  0  0  0
    3.5260   -1.2990    0.0000 C   0  0  0  0  0  0  0  0  0  0  0  0
    2.7760    0.0000    0.0000 C   0  0  0  0  0  0  0  0  0  0  0  0
    3.5260    1.2990    0.0000 O   0  0  0  0  0  0  0  0  0  0  0  0
    1.2760    0.0000    0.0000 C   0  0  0  0  0  0  0  0  0  0  0  0
    0.3943    1.2135    0.0000 C   0  0  0  0  0  0  0  0  0  0  0  0
    0.8578    2.6401    0.0000 C   0  0  0  0  0  0  0  0  0  0  0  0
   -1.0323    0.7500    0.0000 C   0  0  0  0  0  0  0  0  0  0  0  0
   -1.0323   -0.7500    0.0000 C   0  0  0  0  0  0  0  0  0  0  0  0
    0.3943   -1.2135    0.0000 C   0  0  0  0  0  0  0  0  0  0  0  0
  1  2  3  0
  2  3  1  0
  3  4  2  0
  3  5  1  0
  5  6  2  0
  6  7  1  0
  6  8  1  0
  8  9  1  0
  9 10  2  0
 10  5  1  0
M  END
>  <Title>  (422) 
idAAOHgen10

$$$$

     RDKit          2D

 95 96  0  0  0  0  0  0  0  0999 V2000
   21.4903    0.0000    0.0000 C   0  0  0  0  0  0  0  0  0  0  0  0
   21.4379   -1.4991    0.0000 C   0  0  0  0  0  0  0  0  0  0  0  0
   21.2811   -2.9909    0.0000 C   0  0  0  0  0  0  0  0  0  0  0  0
   21.0207   -4.4681    0.0000 C   0  0  0  0  0  0  0  0  0  0  0  0
   20.6578   -5.9235    0.0000 C   0  0  0  0  0  0  0  0  0  0  0  0
   20.1943   -7.3501    0.0000 C   0  0  0  0  0  0  0  0  0  0  0  0
   19.6323   -8.7409    0.0000 C   0  0  0  0  0  0  0  0  0  0  0  0
   18.9748  -10.0891    0.0000 C   0  0  0  0  0  0  0  0  0  0  0  0
   18.2248  -11.3881    0.0000 C   0  0  0  0  0  0  0  0  0  0  0  0
   17.3860  -12.6317    0.0000 C   0  0  0  0  0  0  0  0  0  0  0  0
   16.4625  -13.8137    0.0000 C   0  0  0  0  0  0  0  0  0  0  0  0
   15.4588  -14.9284    0.0000 C   0  0  0  0  0  0  0  0  0  0  0  0
   14.3798  -15.9704    0.0000 C   0  0  0  0  0  0  0  0  0  0  0  0
   13.2307  -16.9346    0.0000 C   0  0  0  0  0  0  0  0  0  0  0  0
   12.0172  -17.8163    0.0000 C   0  0  0  0  0  0  0  0  0  0  0  0
   10.7451  -18.6111    0.0000 C   0  0  0  0  0  0  0  0  0  0  0  0
    9.4207  -19.3153    0.0000 C   0  0  0  0  0  0  0  0  0  0  0  0
    8.0504  -19.9254    0.0000 C   0  0  0  0  0  0  0  0  0  0  0  0
    6.6409  -20.4385    0.0000 C   0  0  0  0  0  0  0  0  0  0  0  0
    5.1990  -20.8519    0.0000 C   0  0  0  0  0  0  0  0  0  0  0  0
    3.7317  -21.1638    0.0000 C   0  0  0  0  0  0  0  0  0  0  0  0
    2.2463  -21.3726    0.0000 C   0  0  0  0  0  0  0  0  0  0  0  0
    0.7500  -21.4772    0.0000 C   0  0  0  0  0  0  0  0  0  0  0  0
   -0.7500  -21.4772    0.0000 C   0  0  0  0  0  0  0  0  0  0  0  0
   -2.2463  -21.3726    0.0000 C   0  0  0  0  0  0  0  0  0  0  0  0
   -3.7317  -21.1638    0.0000 C   0  0  0  0  0  0  0  0  0  0  0  0
   -5.1990  -20.8519    0.0000 C   0  0  0  0  0  0  0  0  0  0  0  0
   -6.6409  -20.4385    0.0000 C   0  0  0  0  0  0  0  0  0  0  0  0
   -8.0504  -19.9254    0.0000 C   0  0  0  0  0  0  0  0  0  0  0  0
   -9.4207  -19.3153    0.0000 C   0  0  0  0  0  0  0  0  0  0  0  0
  -10.7451  -18.6111    0.0000 C   0  0  0  0  0  0  0  0  0  0  0  0
  -12.0172  -17.8163    0.0000 C   0  0  0  0  0  0  0  0  0  0  0  0
  -13.2307  -16.9346    0.0000 C   0  0  0  0  0  0  0  0  0  0  0  0
  -14.3798  -15.9704    0.0000 C   0  0  0  0  0  0  0  0  0  0  0  0
  -15.4588  -14.9284    0.0000 C   0  0  0  0  0  0  0  0  0  0  0  0
  -16.4625  -13.8137    0.0000 C   0  0  0  0  0  0  0  0  0  0  0  0
  -17.3860  -12.6317    0.0000 C   0  0  0  0  0  0  0  0  0  0  0  0
  -18.2248  -11.3881    0.0000 C   0  0  0  0  0  0  0  0  0  0  0  0
  -18.9748  -10.0891    0.0000 C   0  0  0  0  0  0  0  0  0  0  0  0
  -19.6323   -8.7409    0.0000 C   0  0  0  0  0  0  0  0  0  0  0  0
  -20.1943   -7.3501    0.0000 C   0  0  0  0  0  0  0  0  0  0  0  0
  -20.6578   -5.9235    0.0000 C   0  0  0  0  0  0  0  0  0  0  0  0
  -21.0207   -4.4681    0.0000 C   0  0  0  0  0  0  0  0  0  0  0  0
  -21.2811   -2.9909    0.0000 C   0  0  0  0  0  0  0  0  0  0  0  0
  -21.4379   -1.4991    0.0000 C   0  0  0  0  0  0  0  0  0  0  0  0
  -21.4903    0.0000    0.0000 C   0  0  0  0  0  0  0  0  0  0  0  0
  -22.6950   -0.8937    0.0000 C   0  0  0  0  0  0  0  0  0  0  0  0
  -24.1448   -0.5091    0.0000 C   0  0  0  0  0  0  0  0  0  0  0  0
  -24.7481    0.8642    0.0000 C   0  0  0  0  0  0  0  0  0  0  0  0
  -24.0505    2.1921    0.0000 C   0  0  0  0  0  0  0  0  0  0  0  0
  -22.5773    2.4747    0.0000 C   0  0  0  0  0  0  0  0  0  0  0  0
  -21.4379    1.4991    0.0000 C   0  0  0  0  0  0  0  0  0  0  0  0
  -21.2811    2.9909    0.0000 C   0  0  0  0  0  0  0  0  0  0  0  0
  -21.0207    4.4681    0.0000 C   0  0  0  0  0  0  0  0  0  0  0  0
  -20.6578    5.9235    0.0000 C   0  0  0  0  0  0  0  0  0  0  0  0
  -20.1943    7.3501    0.0000 C   0  0  0  0  0  0  0  0  0  0  0  0
  -19.6323    8.7409    0.0000 C   0  0  0  0  0  0  0  0  0  0  0  0
  -18.9748   10.0891    0.0000 C   0  0  0  0  0  0  0  0  0  0  0  0
  -18.2248   11.3881    0.0000 C   0  0  0  0  0  0  0  0  0  0  0  0
  -17.3860   12.6317    0.0000 C   0  0  0  0  0  0  0  0  0  0  0  0
  -16.4625   13.8137    0.0000 C   0  0  0  0  0  0  0  0  0  0  0  0
  -15.4588   14.9284    0.0000 C   0  0  0  0  0  0  0  0  0  0  0  0
  -14.3798   15.9704    0.0000 C   0  0  0  0  0  0  0  0  0  0  0  0
  -13.2307   16.9346    0.0000 C   0  0  0  0  0  0  0  0  0  0  0  0
  -12.0172   17.8163    0.0000 C   0  0  0  0  0  0  0  0  0  0  0  0
  -10.7451   18.6111    0.0000 C   0  0  0  0  0  0  0  0  0  0  0  0
   -9.4207   19.3153    0.0000 C   0  0  0  0  0  0  0  0  0  0  0  0
   -8.0504   19.9254    0.0000 C   0  0  0  0  0  0  0  0  0  0  0  0
   -6.6409   20.4385    0.0000 C   0  0  0  0  0  0  0  0  0  0  0  0
   -5.1990   20.8519    0.0000 C   0  0  0  0  0  0  0  0  0  0  0  0
   -3.7317   21.1638    0.0000 C   0  0  0  0  0  0  0  0  0  0  0  0
   -2.2463   21.3726    0.0000 C   0  0  0  0  0  0  0  0  0  0  0  0
   -0.7500   21.4772    0.0000 C   0  0  0  0  0  0  0  0  0  0  0  0
    0.7500   21.4772    0.0000 C   0  0  0  0  0  0  0  0  0  0  0  0
    2.2463   21.3726    0.0000 C   0  0  0  0  0  0  0  0  0  0  0  0
    3.7317   21.1638    0.0000 C   0  0  0  0  0  0  0  0  0  0  0  0
    5.1990   20.8519    0.0000 C   0  0  0  0  0  0  0  0  0  0  0  0
    6.6409   20.4385    0.0000 C   0  0  0  0  0  0  0  0  0  0  0  0
    8.0504   19.9254    0.0000 C   0  0  0  0  0  0  0  0  0  0  0  0
    9.4207   19.3153    0.0000 C   0  0  0  0  0  0  0  0  0  0  0  0
   10.7451   18.6111    0.0000 C   0  0  0  0  0  0  0  0  0  0  0  0
   12.0172   17.8163    0.0000 C   0  0  0  0  0  0  0  0  0  0  0  0
   13.2307   16.9346    0.0000 C   0  0  0  0  0  0  0  0  0  0  0  0
   14.3798   15.9704    0.0000 C   0  0  0  0  0  0  0  0  0  0  0  0
   15.4588   14.9284    0.0000 C   0  0  0  0  0  0  0  0  0  0  0  0
   16.4625   13.8137    0.0000 C   0  0  0  0  0  0  0  0  0  0  0  0
   17.3860   12.6317    0.0000 C   0  0  0  0  0  0  0  0  0  0  0  0
   18.2248   11.3881    0.0000 C   0  0  0  0  0  0  0  0  0  0  0  0
   18.9748   10.0891    0.0000 C   0  0  0  0  0  0  0  0  0  0  0  0
   19.6323    8.7409    0.0000 C   0  0  0  0  0  0  0  0  0  0  0  0
   20.1943    7.3501    0.0000 C   0  0  0  0  0  0  0  0  0  0  0  0
   20.6578    5.9235    0.0000 C   0  0  0  0  0  0  0  0  0  0  0  0
   21.0207    4.4681    0.0000 C   0  0  0  0  0  0  0  0  0  0  0  0
   21.2811    2.9909    0.0000 C   0  0  0  0  0  0  0  0  0  0  0  0
   21.4379    1.4991    0.0000 C   0  0  0  0  0  0  0  0  0  0  0  0
  1  2  1  0
  2  3  1  0
  3  4  1  0
  4  5  1  0
  5  6  1  0
  6  7  1  0
  7  8  1  0
  8  9  1  0
  9 10  1  0
 10 11  1  0
 11 12  1  0
 12 13  1  0
 13 14  1  0
 14 15  1  0
 15 16  1  0
 16 17  1  0
 17 18  1  0
 18 19  1  0
 19 20  1  0
 20 21  1  0
 21 22  1  0
 22 23  1  0
 23 24  1  0
 24 25  1  0
 25 26  1  0
 26 27  1  0
 27 28  1  0
 28 29  1  0
 29 30  1  0
 30 31  1  0
 31 32  1  0
 32 33  1  0
 33 34  1  0
 34 35  1  0
 35 36  1  0
 36 37  1  0
 37 38  1  0
 38 39  1  0
 39 40  1  0
 40 41  1  0
 41 42  1  0
 42 43  1  0
 43 44  1  0
 44 45  1  0
 45 46  1  0
 46 47  1  0
 47 48  1  0
 48 49  1  0
 49 50  1  0
 50 51  1  0
 51 52  1  0
 52 53  1  0
 53 54  1  0
 54 55  1  0
 55 56  1  0
 56 57  1  0
 57 58  1  0
 58 59  1  0
 59 60  1  0
 60 61  1  0
 61 62  1  0
 62 63  1  0
 63 64  1  0
 64 65  1  0
 65 66  1  0
 66 67  1  0
 67 68  1  0
 68 69  1  0
 69 70  1  0
 70 71  1  0
 71 72  1  0
 72 73  1  0
 73 74  1  0
 74 75  1  0
 75 76  1  0
 76 77  1  0
 77 78  1  0
 78 79  1  0
 79 80  1  0
 80 81  1  0
 81 82  1  0
 82 83  1  0
 83 84  1  0
 84 85  1  0
 85 86  1  0
 86 87  1  0
 87 88  1  0
 88 89  1  0
 89 90  1  0
 90 91  1  0
 91 92  1  0
 92 93  1  0
 93 94  1  0
 94 95  1  0
 95  1  1  0
 52 46  1  0
M  END
>  <Title>  (423) 
idAAOIgen10

$$$$

     RDKit          2D

  9  9  0  0  0  0  0  0  0  0999 V2000
    4.5000    0.0000    0.0000 C   0  0  0  0  0  0  0  0  0  0  0  0
    3.0000    0.0000    0.0000 C   0  0  0  0  0  0  0  0  0  0  0  0
    1.5000    0.0000    0.0000 C   0  0  0  0  0  0  0  0  0  0  0  0
    0.7500   -1.2990    0.0000 C   0  0  0  0  0  0  0  0  0  0  0  0
   -0.7500   -1.2990    0.0000 C   0  0  0  0  0  0  0  0  0  0  0  0
   -1.5000   -2.5981    0.0000 C   0  0  0  0  0  0  0  0  0  0  0  0
   -1.5000    0.0000    0.0000 C   0  0  0  0  0  0  0  0  0  0  0  0
   -0.7500    1.2990    0.0000 C   0  0  0  0  0  0  0  0  0  0  0  0
    0.7500    1.2990    0.0000 C   0  0  0  0  0  0  0  0  0  0  0  0
  1  2  3  0
  2  3  1  0
  3  4  2  0
  4  5  1  0
  5  6  1  0
  5  7  1  0
  7  8  1  0
  8  9  1  0
  9  3  1  0
M  END
>  <Title>  (424) 
idAAOJgen10

$$$$

     RDKit          2D

 82 83  0  0  0  0  0  0  0  0999 V2000
   -2.3266    0.7288    0.0000 C   0  0  0  0  0  0  0  0  0  0  0  0
   -1.8145    2.1386    0.0000 C   0  0  0  0  0  0  0  0  0  0  0  0
   -3.2020    2.7086    0.0000 C   0  0  0  0  0  0  0  0  0  0  0  0
   -4.5377    3.3911    0.0000 C   0  0  0  0  0  0  0  0  0  0  0  0
   -5.8125    4.1817    0.0000 C   0  0  0  0  0  0  0  0  0  0  0  0
   -7.0176    5.0748    0.0000 C   0  0  0  0  0  0  0  0  0  0  0  0
   -8.1449    6.0643    0.0000 C   0  0  0  0  0  0  0  0  0  0  0  0
   -9.1866    7.1436    0.0000 C   0  0  0  0  0  0  0  0  0  0  0  0
  -10.1356    8.3052    0.0000 C   0  0  0  0  0  0  0  0  0  0  0  0
  -10.9855    9.5413    0.0000 C   0  0  0  0  0  0  0  0  0  0  0  0
  -11.7303   10.8433    0.0000 C   0  0  0  0  0  0  0  0  0  0  0  0
  -12.3652   12.2023    0.0000 C   0  0  0  0  0  0  0  0  0  0  0  0
  -12.8856   13.6091    0.0000 C   0  0  0  0  0  0  0  0  0  0  0  0
  -13.2880   15.0541    0.0000 C   0  0  0  0  0  0  0  0  0  0  0  0
  -13.5698   16.5274    0.0000 C   0  0  0  0  0  0  0  0  0  0  0  0
  -13.7290   18.0190    0.0000 C   0  0  0  0  0  0  0  0  0  0  0  0
  -13.7644   19.5185    0.0000 C   0  0  0  0  0  0  0  0  0  0  0  0
  -13.6759   21.0159    0.0000 C   0  0  0  0  0  0  0  0  0  0  0  0
  -13.4640   22.5009    0.0000 C   0  0  0  0  0  0  0  0  0  0  0  0
  -13.1302   23.9633    0.0000 C   0  0  0  0  0  0  0  0  0  0  0  0
  -12.6768   25.3931    0.0000 C   0  0  0  0  0  0  0  0  0  0  0  0
  -12.1069   26.7806    0.0000 C   0  0  0  0  0  0  0  0  0  0  0  0
  -11.4243   28.1163    0.0000 C   0  0  0  0  0  0  0  0  0  0  0  0
  -10.6338   29.3911    0.0000 C   0  0  0  0  0  0  0  0  0  0  0  0
   -9.7407   30.5962    0.0000 C   0  0  0  0  0  0  0  0  0  0  0  0
   -8.7511   31.7235    0.0000 C   0  0  0  0  0  0  0  0  0  0  0  0
   -7.6718   32.7652    0.0000 C   0  0  0  0  0  0  0  0  0  0  0  0
   -6.5102   33.7142    0.0000 C   0  0  0  0  0  0  0  0  0  0  0  0
   -5.2742   34.5641    0.0000 C   0  0  0  0  0  0  0  0  0  0  0  0
   -3.9722   35.3090    0.0000 C   0  0  0  0  0  0  0  0  0  0  0  0
   -2.6131   35.9438    0.0000 C   0  0  0  0  0  0  0  0  0  0  0  0
   -1.2063   36.4642    0.0000 C   0  0  0  0  0  0  0  0  0  0  0  0
    0.2387   36.8667    0.0000 C   0  0  0  0  0  0  0  0  0  0  0  0
    1.7120   37.1484    0.0000 C   0  0  0  0  0  0  0  0  0  0  0  0
    3.2035   37.3076    0.0000 C   0  0  0  0  0  0  0  0  0  0  0  0
    4.7031   37.3430    0.0000 C   0  0  0  0  0  0  0  0  0  0  0  0
    6.2005   37.2545    0.0000 C   0  0  0  0  0  0  0  0  0  0  0  0
    7.6854   37.0426    0.0000 C   0  0  0  0  0  0  0  0  0  0  0  0
    9.1478   36.7088    0.0000 C   0  0  0  0  0  0  0  0  0  0  0  0
   10.5777   36.2554    0.0000 C   0  0  0  0  0  0  0  0  0  0  0  0
   11.9652   35.6855    0.0000 C   0  0  0  0  0  0  0  0  0  0  0  0
   13.3009   35.0029    0.0000 C   0  0  0  0  0  0  0  0  0  0  0  0
   14.5757   34.2124    0.0000 C   0  0  0  0  0  0  0  0  0  0  0  0
   15.7808   33.3193    0.0000 C   0  0  0  0  0  0  0  0  0  0  0  0
   16.9081   32.3297    0.0000 C   0  0  0  0  0  0  0  0  0  0  0  0
   17.9498   31.2504    0.0000 C   0  0  0  0  0  0  0  0  0  0  0  0
   18.8988   30.0888    0.0000 C   0  0  0  0  0  0  0  0  0  0  0  0
   19.7487   28.8528    0.0000 C   0  0  0  0  0  0  0  0  0  0  0  0
   20.4935   27.5508    0.0000 C   0  0  0  0  0  0  0  0  0  0  0  0
   21.1284   26.1918    0.0000 C   0  0  0  0  0  0  0  0  0  0  0  0
   21.6488   24.7849    0.0000 C   0  0  0  0  0  0  0  0  0  0  0  0
   22.0512   23.3399    0.0000 C   0  0  0  0  0  0  0  0  0  0  0  0
   22.3330   21.8666    0.0000 C   0  0  0  0  0  0  0  0  0  0  0  0
   22.4922   20.3751    0.0000 C   0  0  0  0  0  0  0  0  0  0  0  0
   22.5276   18.8755    0.0000 C   0  0  0  0  0  0  0  0  0  0  0  0
   22.4391   17.3781    0.0000 C   0  0  0  0  0  0  0  0  0  0  0  0
   22.2272   15.8932    0.0000 C   0  0  0  0  0  0  0  0  0  0  0  0
   21.8934   14.4308    0.0000 C   0  0  0  0  0  0  0  0  0  0  0  0
   21.4400   13.0010    0.0000 C   0  0  0  0  0  0  0  0  0  0  0  0
   20.8701   11.6134    0.0000 C   0  0  0  0  0  0  0  0  0  0  0  0
   20.1875   10.2777    0.0000 C   0  0  0  0  0  0  0  0  0  0  0  0
   19.3970    9.0030    0.0000 C   0  0  0  0  0  0  0  0  0  0  0  0
   18.5039    7.7978    0.0000 C   0  0  0  0  0  0  0  0  0  0  0  0
   17.5143    6.6706    0.0000 C   0  0  0  0  0  0  0  0  0  0  0  0
   16.4350    5.6288    0.0000 C   0  0  0  0  0  0  0  0  0  0  0  0
   15.2734    4.6798    0.0000 C   0  0  0  0  0  0  0  0  0  0  0  0
   14.0374    3.8300    0.0000 C   0  0  0  0  0  0  0  0  0  0  0  0
   12.7354    3.0851    0.0000 C   0  0  0  0  0  0  0  0  0  0  0  0
   11.3763    2.4503    0.0000 C   0  0  0  0  0  0  0  0  0  0  0  0
    9.9695    1.9299    0.0000 C   0  0  0  0  0  0  0  0  0  0  0  0
    8.5245    1.5274    0.0000 C   0  0  0  0  0  0  0  0  0  0  0  0
    7.0512    1.2456    0.0000 C   0  0  0  0  0  0  0  0  0  0  0  0
    5.5597    1.0865    0.0000 C   0  0  0  0  0  0  0  0  0  0  0  0
    4.0601    1.0510    0.0000 C   0  0  0  0  0  0  0  0  0  0  0  0
    2.5627    1.1396    0.0000 C   0  0  0  0  0  0  0  0  0  0  0  0
    1.0777    1.3515    0.0000 C   0  0  0  0  0  0  0  0  0  0  0  0
    1.7286    0.0000    0.0000 C   0  0  0  0  0  0  0  0  0  0  0  0
    1.0777   -1.3515    0.0000 C   0  0  0  0  0  0  0  0  0  0  0  0
   -0.3846   -1.6852    0.0000 C   0  0  0  0  0  0  0  0  0  0  0  0
   -1.5574   -0.7500    0.0000 C   0  0  0  0  0  0  0  0  0  0  0  0
   -1.5574    0.7500    0.0000 C   0  0  0  0  0  0  0  0  0  0  0  0
   -0.3846    1.6852    0.0000 C   0  0  0  0  0  0  0  0  0  0  0  0
  1  2  1  0
  2  3  1  0
  3  4  1  0
  4  5  1  0
  5  6  1  0
  6  7  1  0
  7  8  1  0
  8  9  1  0
  9 10  1  0
 10 11  1  0
 11 12  1  0
 12 13  1  0
 13 14  1  0
 14 15  1  0
 15 16  1  0
 16 17  1  0
 17 18  1  0
 18 19  1  0
 19 20  1  0
 20 21  1  0
 21 22  1  0
 22 23  1  0
 23 24  1  0
 24 25  1  0
 25 26  1  0
 26 27  1  0
 27 28  1  0
 28 29  1  0
 29 30  1  0
 30 31  1  0
 31 32  1  0
 32 33  1  0
 33 34  1  0
 34 35  1  0
 35 36  1  0
 36 37  1  0
 37 38  1  0
 38 39  1  0
 39 40  1  0
 40 41  1  0
 41 42  1  0
 42 43  1  0
 43 44  1  0
 44 45  1  0
 45 46  1  0
 46 47  1  0
 47 48  1  0
 48 49  1  0
 49 50  1  0
 50 51  1  0
 51 52  1  0
 52 53  1  0
 53 54  1  0
 54 55  1  0
 55 56  1  0
 56 57  1  0
 57 58  1  0
 58 59  1  0
 59 60  1  0
 60 61  1  0
 61 62  1  0
 62 63  1  0
 63 64  1  0
 64 65  1  0
 65 66  1  0
 66 67  1  0
 67 68  1  0
 68 69  1  0
 69 70  1  0
 70 71  1  0
 71 72  1  0
 72 73  1  0
 73 74  1  0
 74 75  1  0
 75 76  1  0
 76 77  1  0
 77 78  1  0
 78 79  1  0
 79 80  1  0
 80 81  1  0
 81 82  1  0
 82  2  1  0
 82 76  1  0
M  END
>  <Title>  (425) 
idAAOKgen10

$$$$

     RDKit          2D

 10 10  0  0  0  0  0  0  0  0999 V2000
    6.7500   -1.2990    0.0000 C   0  0  0  0  0  0  0  0  0  0  0  0
    5.2500   -1.2990    0.0000 C   0  0  0  0  0  0  0  0  0  0  0  0
    3.7500   -1.2990    0.0000 C   0  0  0  0  0  0  0  0  0  0  0  0
    3.0000    0.0000    0.0000 O   0  0  0  0  0  0  0  0  0  0  0  0
    1.5000    0.0000    0.0000 C   0  0  0  0  0  0  0  0  0  0  0  0
    0.7500   -1.2990    0.0000 C   0  0  0  0  0  0  0  0  0  0  0  0
   -0.7500   -1.2990    0.0000 C   0  0  0  0  0  0  0  0  0  0  0  0
   -1.5000    0.0000    0.0000 C   0  0  0  0  0  0  0  0  0  0  0  0
   -0.7500    1.2990    0.0000 C   0  0  0  0  0  0  0  0  0  0  0  0
    0.7500    1.2990    0.0000 C   0  0  0  0  0  0  0  0  0  0  0  0
  1  2  3  0
  2  3  1  0
  3  4  1  0
  4  5  1  0
  5  6  2  0
  6  7  1  0
  7  8  2  0
  8  9  1  0
  9 10  2  0
 10  5  1  0
M  END
>  <Title>  (426) 
idAAOLgen10

$$$$

     RDKit          2D

  6  6  0  0  0  0  0  0  0  0999 V2000
    2.5607    0.0000    0.0000 C   0  0  0  0  0  0  0  0  0  0  0  0
    1.0607    0.0000    0.0000 C   0  0  0  0  0  0  0  0  0  0  0  0
   -0.0000   -1.0607    0.0000 C   0  0  0  0  0  0  0  0  0  0  0  0
   -1.0607    0.0000    0.0000 C   0  0  0  0  0  0  0  0  0  0  0  0
   -2.5607    0.0000    0.0000 C   0  0  0  0  0  0  0  0  0  0  0  0
    0.0000    1.0607    0.0000 N   0  0  0  0  0  0  0  0  0  0  0  0
  1  2  1  0
  2  3  2  0
  3  4  1  0
  4  5  1  0
  4  6  1  0
  6  2  1  0
M  END
>  <Title>  (427) 
idAAOMgen10

$$$$

     RDKit          2D

 93 97  0  0  0  0  0  0  0  0999 V2000
   -9.2885   -0.4324    0.0000 C   0  0  0  0  0  0  0  0  0  0  0  0
   -8.6297   -1.7800    0.0000 C   0  0  0  0  0  0  0  0  0  0  0  0
   -7.9709   -3.1276    0.0000 C   0  0  0  0  0  0  0  0  0  0  0  0
   -9.2901   -3.8415    0.0000 C   0  0  0  0  0  0  0  0  0  0  0  0
  -10.5459   -4.6620    0.0000 C   0  0  0  0  0  0  0  0  0  0  0  0
  -11.7296   -5.5833    0.0000 C   0  0  0  0  0  0  0  0  0  0  0  0
  -12.8332   -6.5992    0.0000 C   0  0  0  0  0  0  0  0  0  0  0  0
  -13.8491   -7.7028    0.0000 C   0  0  0  0  0  0  0  0  0  0  0  0
  -14.7704   -8.8865    0.0000 C   0  0  0  0  0  0  0  0  0  0  0  0
  -15.5908  -10.1423    0.0000 C   0  0  0  0  0  0  0  0  0  0  0  0
  -16.3047  -11.4615    0.0000 C   0  0  0  0  0  0  0  0  0  0  0  0
  -16.9073  -12.8351    0.0000 C   0  0  0  0  0  0  0  0  0  0  0  0
  -17.3943  -14.2538    0.0000 C   0  0  0  0  0  0  0  0  0  0  0  0
  -17.7626  -15.7079    0.0000 C   0  0  0  0  0  0  0  0  0  0  0  0
  -18.0095  -17.1875    0.0000 C   0  0  0  0  0  0  0  0  0  0  0  0
  -18.1333  -18.6824    0.0000 C   0  0  0  0  0  0  0  0  0  0  0  0
  -18.1333  -20.1824    0.0000 C   0  0  0  0  0  0  0  0  0  0  0  0
  -18.0095  -21.6772    0.0000 C   0  0  0  0  0  0  0  0  0  0  0  0
  -17.7626  -23.1568    0.0000 C   0  0  0  0  0  0  0  0  0  0  0  0
  -17.3943  -24.6109    0.0000 C   0  0  0  0  0  0  0  0  0  0  0  0
  -16.9073  -26.0296    0.0000 C   0  0  0  0  0  0  0  0  0  0  0  0
  -16.3047  -27.4033    0.0000 C   0  0  0  0  0  0  0  0  0  0  0  0
  -15.5908  -28.7225    0.0000 C   0  0  0  0  0  0  0  0  0  0  0  0
  -14.7704  -29.9782    0.0000 C   0  0  0  0  0  0  0  0  0  0  0  0
  -13.8491  -31.1619    0.0000 C   0  0  0  0  0  0  0  0  0  0  0  0
  -12.8332  -32.2655    0.0000 C   0  0  0  0  0  0  0  0  0  0  0  0
  -11.7296  -33.2815    0.0000 C   0  0  0  0  0  0  0  0  0  0  0  0
  -10.5459  -34.2028    0.0000 C   0  0  0  0  0  0  0  0  0  0  0  0
   -9.2901  -35.0232    0.0000 C   0  0  0  0  0  0  0  0  0  0  0  0
   -7.9709  -35.7371    0.0000 C   0  0  0  0  0  0  0  0  0  0  0  0
   -6.5972  -36.3397    0.0000 C   0  0  0  0  0  0  0  0  0  0  0  0
   -5.1785  -36.8267    0.0000 C   0  0  0  0  0  0  0  0  0  0  0  0
   -3.7244  -37.1949    0.0000 C   0  0  0  0  0  0  0  0  0  0  0  0
   -2.2449  -37.4418    0.0000 C   0  0  0  0  0  0  0  0  0  0  0  0
   -0.7500  -37.5657    0.0000 C   0  0  0  0  0  0  0  0  0  0  0  0
    0.7500  -37.5657    0.0000 C   0  0  0  0  0  0  0  0  0  0  0  0
    2.2449  -37.4418    0.0000 C   0  0  0  0  0  0  0  0  0  0  0  0
    3.7244  -37.1949    0.0000 C   0  0  0  0  0  0  0  0  0  0  0  0
    5.1785  -36.8267    0.0000 C   0  0  0  0  0  0  0  0  0  0  0  0
    6.5972  -36.3397    0.0000 C   0  0  0  0  0  0  0  0  0  0  0  0
    7.9709  -35.7371    0.0000 C   0  0  0  0  0  0  0  0  0  0  0  0
    9.2901  -35.0232    0.0000 C   0  0  0  0  0  0  0  0  0  0  0  0
   10.5459  -34.2028    0.0000 C   0  0  0  0  0  0  0  0  0  0  0  0
   11.7296  -33.2815    0.0000 C   0  0  0  0  0  0  0  0  0  0  0  0
   12.8332  -32.2655    0.0000 C   0  0  0  0  0  0  0  0  0  0  0  0
   13.8491  -31.1619    0.0000 C   0  0  0  0  0  0  0  0  0  0  0  0
   14.7704  -29.9782    0.0000 C   0  0  0  0  0  0  0  0  0  0  0  0
   15.5908  -28.7225    0.0000 C   0  0  0  0  0  0  0  0  0  0  0  0
   16.3047  -27.4033    0.0000 C   0  0  0  0  0  0  0  0  0  0  0  0
   16.9073  -26.0296    0.0000 C   0  0  0  0  0  0  0  0  0  0  0  0
   17.3943  -24.6109    0.0000 C   0  0  0  0  0  0  0  0  0  0  0  0
   17.7626  -23.1568    0.0000 C   0  0  0  0  0  0  0  0  0  0  0  0
   18.0095  -21.6772    0.0000 C   0  0  0  0  0  0  0  0  0  0  0  0
   18.1333  -20.1824    0.0000 C   0  0  0  0  0  0  0  0  0  0  0  0
   18.1333  -18.6824    0.0000 C   0  0  0  0  0  0  0  0  0  0  0  0
   18.0095  -17.1875    0.0000 C   0  0  0  0  0  0  0  0  0  0  0  0
   17.7626  -15.7079    0.0000 C   0  0  0  0  0  0  0  0  0  0  0  0
   17.3943  -14.2538    0.0000 C   0  0  0  0  0  0  0  0  0  0  0  0
   16.9073  -12.8351    0.0000 C   0  0  0  0  0  0  0  0  0  0  0  0
   16.3047  -11.4615    0.0000 C   0  0  0  0  0  0  0  0  0  0  0  0
   15.5908  -10.1423    0.0000 C   0  0  0  0  0  0  0  0  0  0  0  0
   14.7704   -8.8865    0.0000 C   0  0  0  0  0  0  0  0  0  0  0  0
   13.8491   -7.7028    0.0000 C   0  0  0  0  0  0  0  0  0  0  0  0
   12.8332   -6.5992    0.0000 C   0  0  0  0  0  0  0  0  0  0  0  0
   11.7296   -5.5833    0.0000 C   0  0  0  0  0  0  0  0  0  0  0  0
   10.5459   -4.6620    0.0000 C   0  0  0  0  0  0  0  0  0  0  0  0
    9.2901   -3.8415    0.0000 C   0  0  0  0  0  0  0  0  0  0  0  0
    7.9709   -3.1276    0.0000 C   0  0  0  0  0  0  0  0  0  0  0  0
    6.5972   -2.5251    0.0000 C   0  0  0  0  0  0  0  0  0  0  0  0
    5.1785   -2.0380    0.0000 C   0  0  0  0  0  0  0  0  0  0  0  0
    3.7244   -1.6698    0.0000 C   0  0  0  0  0  0  0  0  0  0  0  0
    3.9468   -3.1532    0.0000 C   0  0  0  0  0  0  0  0  0  0  0  0
    2.6047   -3.8231    0.0000 C   0  0  0  0  0  0  0  0  0  0  0  0
    1.5529   -2.7537    0.0000 C   0  0  0  0  0  0  0  0  0  0  0  0
    2.2449   -1.4229    0.0000 C   0  0  0  0  0  0  0  0  0  0  0  0
    0.7500   -1.2990    0.0000 C   0  0  0  0  0  0  0  0  0  0  0  0
    1.5000    0.0000    0.0000 C   0  0  0  0  0  0  0  0  0  0  0  0
    0.7500    1.2990    0.0000 C   0  0  0  0  0  0  0  0  0  0  0  0
   -0.7500    1.2990    0.0000 C   0  0  0  0  0  0  0  0  0  0  0  0
   -1.5000    0.0000    0.0000 C   0  0  0  0  0  0  0  0  0  0  0  0
   -0.7500   -1.2990    0.0000 C   0  0  0  0  0  0  0  0  0  0  0  0
   -2.2449   -1.4229    0.0000 C   0  0  0  0  0  0  0  0  0  0  0  0
   -1.2913   -2.5808    0.0000 C   0  0  0  0  0  0  0  0  0  0  0  0
   -1.8172   -3.9855    0.0000 C   0  0  0  0  0  0  0  0  0  0  0  0
   -3.2968   -4.2324    0.0000 C   0  0  0  0  0  0  0  0  0  0  0  0
   -4.2504   -3.0746    0.0000 C   0  0  0  0  0  0  0  0  0  0  0  0
   -3.7244   -1.6698    0.0000 C   0  0  0  0  0  0  0  0  0  0  0  0
   -5.1785   -2.0380    0.0000 C   0  0  0  0  0  0  0  0  0  0  0  0
   -4.8910   -0.5659    0.0000 C   0  0  0  0  0  0  0  0  0  0  0  0
   -6.0221    0.4193    0.0000 C   0  0  0  0  0  0  0  0  0  0  0  0
   -7.4408   -0.0678    0.0000 C   0  0  0  0  0  0  0  0  0  0  0  0
   -7.7284   -1.5399    0.0000 C   0  0  0  0  0  0  0  0  0  0  0  0
   -6.5972   -2.5251    0.0000 C   0  0  0  0  0  0  0  0  0  0  0  0
  1  2  3  0
  2  3  1  0
  3  4  1  0
  4  5  1  0
  5  6  1  0
  6  7  1  0
  7  8  1  0
  8  9  1  0
  9 10  1  0
 10 11  1  0
 11 12  1  0
 12 13  1  0
 13 14  1  0
 14 15  1  0
 15 16  1  0
 16 17  1  0
 17 18  1  0
 18 19  1  0
 19 20  1  0
 20 21  1  0
 21 22  1  0
 22 23  1  0
 23 24  1  0
 24 25  1  0
 25 26  1  0
 26 27  1  0
 27 28  1  0
 28 29  1  0
 29 30  1  0
 30 31  1  0
 31 32  1  0
 32 33  1  0
 33 34  1  0
 34 35  1  0
 35 36  1  0
 36 37  1  0
 37 38  1  0
 38 39  1  0
 39 40  1  0
 40 41  1  0
 41 42  1  0
 42 43  1  0
 43 44  1  0
 44 45  1  0
 45 46  1  0
 46 47  1  0
 47 48  1  0
 48 49  1  0
 49 50  1  0
 50 51  1  0
 51 52  1  0
 52 53  1  0
 53 54  1  0
 54 55  1  0
 55 56  1  0
 56 57  1  0
 57 58  1  0
 58 59  1  0
 59 60  1  0
 60 61  1  0
 61 62  1  0
 62 63  1  0
 63 64  1  0
 64 65  1  0
 65 66  1  0
 66 67  1  0
 67 68  1  0
 68 69  2  0
 69 70  1  0
 70 71  2  0
 71 72  1  0
 72 73  2  0
 73 74  1  0
 74 75  2  0
 75 76  1  0
 76 77  2  0
 77 78  1  0
 78 79  2  0
 79 80  1  0
 80 81  2  0
 81 82  1  0
 82 83  2  0
 83 84  1  0
 84 85  2  0
 85 86  1  0
 86 87  2  0
 87 88  1  0
 88 89  2  0
 89 90  1  0
 90 91  2  0
 91 92  1  0
 92 93  2  0
 93  3  1  0
 75 71  1  0
 81 76  1  0
 87 82  1  0
 93 88  1  0
M  END
>  <Title>  (428) 
idAAONgen10

$$$$

     RDKit          2D

 71 72  0  0  0  0  0  0  0  0999 V2000
   -2.2371   -1.0554    0.0000 C   0  0  0  0  0  0  0  0  0  0  0  0
   -2.4960    0.4221    0.0000 C   0  0  0  0  0  0  0  0  0  0  0  0
   -3.9840    0.2327    0.0000 C   0  0  0  0  0  0  0  0  0  0  0  0
   -5.4832    0.1835    0.0000 C   0  0  0  0  0  0  0  0  0  0  0  0
   -6.9804    0.2749    0.0000 C   0  0  0  0  0  0  0  0  0  0  0  0
   -8.4625    0.5060    0.0000 C   0  0  0  0  0  0  0  0  0  0  0  0
   -9.9164    0.8750    0.0000 C   0  0  0  0  0  0  0  0  0  0  0  0
  -11.3294    1.3785    0.0000 C   0  0  0  0  0  0  0  0  0  0  0  0
  -12.6890    2.0120    0.0000 C   0  0  0  0  0  0  0  0  0  0  0  0
  -13.9833    2.7701    0.0000 C   0  0  0  0  0  0  0  0  0  0  0  0
  -15.2010    3.6461    0.0000 C   0  0  0  0  0  0  0  0  0  0  0  0
  -16.3313    4.6323    0.0000 C   0  0  0  0  0  0  0  0  0  0  0  0
  -17.3642    5.7199    0.0000 C   0  0  0  0  0  0  0  0  0  0  0  0
  -18.2908    6.8995    0.0000 C   0  0  0  0  0  0  0  0  0  0  0  0
  -19.1028    8.1607    0.0000 C   0  0  0  0  0  0  0  0  0  0  0  0
  -19.7932    9.4924    0.0000 C   0  0  0  0  0  0  0  0  0  0  0  0
  -20.3558   10.8829    0.0000 C   0  0  0  0  0  0  0  0  0  0  0  0
  -20.7858   12.3199    0.0000 C   0  0  0  0  0  0  0  0  0  0  0  0
  -21.0793   13.7909    0.0000 C   0  0  0  0  0  0  0  0  0  0  0  0
  -21.2337   15.2830    0.0000 C   0  0  0  0  0  0  0  0  0  0  0  0
  -21.2478   16.7829    0.0000 C   0  0  0  0  0  0  0  0  0  0  0  0
  -21.1213   18.2776    0.0000 C   0  0  0  0  0  0  0  0  0  0  0  0
  -20.8555   19.7538    0.0000 C   0  0  0  0  0  0  0  0  0  0  0  0
  -20.4526   21.1987    0.0000 C   0  0  0  0  0  0  0  0  0  0  0  0
  -19.9161   22.5995    0.0000 C   0  0  0  0  0  0  0  0  0  0  0  0
  -19.2508   23.9439    0.0000 C   0  0  0  0  0  0  0  0  0  0  0  0
  -18.4626   25.2201    0.0000 C   0  0  0  0  0  0  0  0  0  0  0  0
  -17.5583   26.4169    0.0000 C   0  0  0  0  0  0  0  0  0  0  0  0
  -16.5459   27.5237    0.0000 C   0  0  0  0  0  0  0  0  0  0  0  0
  -15.4344   28.5309    0.0000 C   0  0  0  0  0  0  0  0  0  0  0  0
  -14.2334   29.4295    0.0000 C   0  0  0  0  0  0  0  0  0  0  0  0
  -12.9535   30.2118    0.0000 C   0  0  0  0  0  0  0  0  0  0  0  0
  -11.6060   30.8707    0.0000 C   0  0  0  0  0  0  0  0  0  0  0  0
  -10.2027   31.4006    0.0000 C   0  0  0  0  0  0  0  0  0  0  0  0
   -8.7559   31.7968    0.0000 C   0  0  0  0  0  0  0  0  0  0  0  0
   -7.2785   32.0557    0.0000 C   0  0  0  0  0  0  0  0  0  0  0  0
   -5.7832   32.1751    0.0000 C   0  0  0  0  0  0  0  0  0  0  0  0
   -4.2834   32.1540    0.0000 C   0  0  0  0  0  0  0  0  0  0  0  0
   -2.7921   31.9926    0.0000 C   0  0  0  0  0  0  0  0  0  0  0  0
   -1.3225   31.6922    0.0000 C   0  0  0  0  0  0  0  0  0  0  0  0
    0.1126   31.2555    0.0000 C   0  0  0  0  0  0  0  0  0  0  0  0
    1.5004   30.6864    0.0000 C   0  0  0  0  0  0  0  0  0  0  0  0
    2.8288   29.9898    0.0000 C   0  0  0  0  0  0  0  0  0  0  0  0
    4.0862   29.1718    0.0000 C   0  0  0  0  0  0  0  0  0  0  0  0
    5.2614   28.2397    0.0000 C   0  0  0  0  0  0  0  0  0  0  0  0
    6.3442   27.2017    0.0000 C   0  0  0  0  0  0  0  0  0  0  0  0
    7.3251   26.0668    0.0000 C   0  0  0  0  0  0  0  0  0  0  0  0
    8.1953   24.8451    0.0000 C   0  0  0  0  0  0  0  0  0  0  0  0
    8.9474   23.5472    0.0000 C   0  0  0  0  0  0  0  0  0  0  0  0
    9.5746   22.1846    0.0000 C   0  0  0  0  0  0  0  0  0  0  0  0
   10.0714   20.7693    0.0000 C   0  0  0  0  0  0  0  0  0  0  0  0
   10.4335   19.3137    0.0000 C   0  0  0  0  0  0  0  0  0  0  0  0
   10.6578   17.8305    0.0000 C   0  0  0  0  0  0  0  0  0  0  0  0
   10.7421   16.3329    0.0000 C   0  0  0  0  0  0  0  0  0  0  0  0
   10.6859   14.8339    0.0000 C   0  0  0  0  0  0  0  0  0  0  0  0
   10.4895   13.3468    0.0000 C   0  0  0  0  0  0  0  0  0  0  0  0
   10.1547   11.8847    0.0000 C   0  0  0  0  0  0  0  0  0  0  0  0
    9.6845   10.4603    0.0000 C   0  0  0  0  0  0  0  0  0  0  0  0
    9.0830    9.0862    0.0000 C   0  0  0  0  0  0  0  0  0  0  0  0
    8.3554    7.7744    0.0000 C   0  0  0  0  0  0  0  0  0  0  0  0
    7.5082    6.5366    0.0000 C   0  0  0  0  0  0  0  0  0  0  0  0
    6.5489    5.3835    0.0000 C   0  0  0  0  0  0  0  0  0  0  0  0
    5.4857    4.3253    0.0000 C   0  0  0  0  0  0  0  0  0  0  0  0
    4.3282    3.3714    0.0000 C   0  0  0  0  0  0  0  0  0  0  0  0
    3.0863    2.5300    0.0000 C   0  0  0  0  0  0  0  0  0  0  0  0
    1.7712    1.8086    0.0000 C   0  0  0  0  0  0  0  0  0  0  0  0
    0.3943    1.2135    0.0000 C   0  0  0  0  0  0  0  0  0  0  0  0
    1.2760    0.0000    0.0000 C   0  0  0  0  0  0  0  0  0  0  0  0
    0.3943   -1.2135    0.0000 C   0  0  0  0  0  0  0  0  0  0  0  0
   -1.0323   -0.7500    0.0000 C   0  0  0  0  0  0  0  0  0  0  0  0
   -1.0323    0.7500    0.0000 C   0  0  0  0  0  0  0  0  0  0  0  0
  1  2  1  0
  2  3  1  0
  3  4  1  0
  4  5  1  0
  5  6  1  0
  6  7  1  0
  7  8  1  0
  8  9  1  0
  9 10  1  0
 10 11  1  0
 11 12  1  0
 12 13  1  0
 13 14  1  0
 14 15  1  0
 15 16  1  0
 16 17  1  0
 17 18  1  0
 18 19  1  0
 19 20  1  0
 20 21  1  0
 21 22  1  0
 22 23  1  0
 23 24  1  0
 24 25  1  0
 25 26  1  0
 26 27  1  0
 27 28  1  0
 28 29  1  0
 29 30  1  0
 30 31  1  0
 31 32  1  0
 32 33  1  0
 33 34  1  0
 34 35  1  0
 35 36  1  0
 36 37  1  0
 37 38  1  0
 38 39  1  0
 39 40  1  0
 40 41  1  0
 41 42  1  0
 42 43  1  0
 43 44  1  0
 44 45  1  0
 45 46  1  0
 46 47  1  0
 47 48  1  0
 48 49  1  0
 49 50  1  0
 50 51  1  0
 51 52  1  0
 52 53  2  0
 53 54  1  0
 54 55  2  0
 55 56  1  0
 56 57  2  0
 57 58  1  0
 58 59  2  0
 59 60  1  0
 60 61  2  0
 61 62  1  0
 62 63  2  0
 63 64  1  0
 64 65  2  0
 65 66  1  0
 66 67  2  0
 67 68  1  0
 68 69  2  0
 69 70  1  0
 70 71  2  0
 71  2  1  0
 71 67  1  0
M  END
>  <Title>  (429) 
idAAOOgen10

$$$$

     RDKit          2D

 12 12  0  0  0  0  0  0  0  0999 V2000
    4.5000   -2.5981    0.0000 C   0  0  0  0  0  0  0  0  0  0  0  0
    3.7500   -1.2990    0.0000 C   0  0  0  0  0  0  0  0  0  0  0  0
    3.0000    0.0000    0.0000 C   0  0  0  0  0  0  0  0  0  0  0  0
    3.7500    1.2990    0.0000 O   0  0  0  0  0  0  0  0  0  0  0  0
    1.5000    0.0000    0.0000 N   0  0  0  0  0  0  0  0  0  0  0  0
    0.7500   -1.2990    0.0000 C   0  0  0  0  0  0  0  0  0  0  0  0
   -0.7500   -1.2990    0.0000 C   0  0  0  0  0  0  0  0  0  0  0  0
   -1.5000    0.0000    0.0000 C   0  0  0  0  0  0  0  0  0  0  0  0
   -3.0000    0.0000    0.0000 O   0  0  0  0  0  0  0  0  0  0  0  0
   -3.7500    1.2990    0.0000 C   0  0  0  0  0  0  0  0  0  0  0  0
   -0.7500    1.2990    0.0000 C   0  0  0  0  0  0  0  0  0  0  0  0
    0.7500    1.2990    0.0000 C   0  0  0  0  0  0  0  0  0  0  0  0
  1  2  3  0
  2  3  1  0
  3  4  2  0
  3  5  1  0
  5  6  1  0
  6  7  2  0
  7  8  1  0
  8  9  1  0
  9 10  1  0
  8 11  2  0
 11 12  1  0
 12  5  1  0
M  END
>  <Title>  (430) 
idAAOPgen10

$$$$

     RDKit          2D

 20 22  0  0  0  0  0  0  0  0999 V2000
   -3.0000   -2.5981    0.0000 C   0  0  0  0  0  0  0  0  0  0  0  0
   -1.5000   -2.5981    0.0000 C   0  0  0  0  0  0  0  0  0  0  0  0
   -0.7500   -3.8971    0.0000 C   0  0  0  0  0  0  0  0  0  0  0  0
    0.7500   -3.8971    0.0000 C   0  0  0  0  0  0  0  0  0  0  0  0
    1.5000   -2.5981    0.0000 C   0  0  0  0  0  0  0  0  0  0  0  0
    3.0000   -2.5981    0.0000 C   0  0  0  0  0  0  0  0  0  0  0  0
    3.7500   -1.2990    0.0000 O   0  0  0  0  0  0  0  0  0  0  0  0
    3.7500   -3.8971    0.0000 N   0  0  0  0  0  0  0  0  0  0  0  0
    5.2500   -3.8971    0.0000 C   0  0  0  0  0  0  0  0  0  0  0  0
    6.0000   -5.1962    0.0000 N   0  0  0  0  0  0  0  0  0  0  0  0
    7.5000   -5.1962    0.0000 N   0  0  0  0  0  0  0  0  0  0  0  0
    8.2500   -3.8971    0.0000 N   0  0  0  0  0  0  0  0  0  0  0  0
    7.5000   -2.5981    0.0000 N   0  0  0  0  0  0  0  0  0  0  0  0
    6.0000   -2.5981    0.0000 N   0  0  0  0  0  0  0  0  0  0  0  0
    0.7500   -1.2990    0.0000 C   0  0  0  0  0  0  0  0  0  0  0  0
    1.5000    0.0000    0.0000 C   0  0  0  0  0  0  0  0  0  0  0  0
    0.7500    1.2990    0.0000 C   0  0  0  0  0  0  0  0  0  0  0  0
   -0.7500    1.2990    0.0000 C   0  0  0  0  0  0  0  0  0  0  0  0
   -1.5000    0.0000    0.0000 C   0  0  0  0  0  0  0  0  0  0  0  0
   -0.7500   -1.2990    0.0000 C   0  0  0  0  0  0  0  0  0  0  0  0
  1  2  1  0
  2  3  1  0
  3  4  1  0
  4  5  1  0
  5  6  1  0
  6  7  2  0
  6  8  1  0
  8  9  1  0
  9 10  2  0
 10 11  1  0
 11 12  2  0
 12 13  1  0
 13 14  2  0
  5 15  1  0
 15 16  2  0
 16 17  1  0
 17 18  2  0
 18 19  1  0
 19 20  2  0
 20  2  1  0
 14  9  1  0
 20 15  1  0
M  END
>  <Title>  (431) 
idAAOQgen10

$$$$

     RDKit          2D

 91 93  0  0  0  0  0  0  0  0999 V2000
   -5.5860   -0.5382    0.0000 C   0  0  0  0  0  0  0  0  0  0  0  0
   -5.1886   -1.9846    0.0000 C   0  0  0  0  0  0  0  0  0  0  0  0
   -6.6187   -2.4372    0.0000 C   0  0  0  0  0  0  0  0  0  0  0  0
   -8.0099   -2.9979    0.0000 C   0  0  0  0  0  0  0  0  0  0  0  0
   -9.3542   -3.6635    0.0000 C   0  0  0  0  0  0  0  0  0  0  0  0
  -10.6435   -4.4300    0.0000 C   0  0  0  0  0  0  0  0  0  0  0  0
  -11.8704   -5.2930    0.0000 C   0  0  0  0  0  0  0  0  0  0  0  0
  -13.0276   -6.2474    0.0000 C   0  0  0  0  0  0  0  0  0  0  0  0
  -14.1084   -7.2875    0.0000 C   0  0  0  0  0  0  0  0  0  0  0  0
  -15.1064   -8.4074    0.0000 C   0  0  0  0  0  0  0  0  0  0  0  0
  -16.0158   -9.6003    0.0000 C   0  0  0  0  0  0  0  0  0  0  0  0
  -16.8311  -10.8593    0.0000 C   0  0  0  0  0  0  0  0  0  0  0  0
  -17.5477  -12.1771    0.0000 C   0  0  0  0  0  0  0  0  0  0  0  0
  -18.1613  -13.5459    0.0000 C   0  0  0  0  0  0  0  0  0  0  0  0
  -18.6683  -14.9576    0.0000 C   0  0  0  0  0  0  0  0  0  0  0  0
  -19.0658  -16.4040    0.0000 C   0  0  0  0  0  0  0  0  0  0  0  0
  -19.3514  -17.8765    0.0000 C   0  0  0  0  0  0  0  0  0  0  0  0
  -19.5234  -19.3666    0.0000 C   0  0  0  0  0  0  0  0  0  0  0  0
  -19.5808  -20.8655    0.0000 C   0  0  0  0  0  0  0  0  0  0  0  0
  -19.5234  -22.3644    0.0000 C   0  0  0  0  0  0  0  0  0  0  0  0
  -19.3514  -23.8545    0.0000 C   0  0  0  0  0  0  0  0  0  0  0  0
  -19.0658  -25.3271    0.0000 C   0  0  0  0  0  0  0  0  0  0  0  0
  -18.6683  -26.7735    0.0000 C   0  0  0  0  0  0  0  0  0  0  0  0
  -18.1613  -28.1852    0.0000 C   0  0  0  0  0  0  0  0  0  0  0  0
  -17.5477  -29.5539    0.0000 C   0  0  0  0  0  0  0  0  0  0  0  0
  -16.8311  -30.8717    0.0000 C   0  0  0  0  0  0  0  0  0  0  0  0
  -16.0158  -32.1307    0.0000 C   0  0  0  0  0  0  0  0  0  0  0  0
  -15.1064  -33.3237    0.0000 C   0  0  0  0  0  0  0  0  0  0  0  0
  -14.1084  -34.4435    0.0000 C   0  0  0  0  0  0  0  0  0  0  0  0
  -13.0276  -35.4837    0.0000 C   0  0  0  0  0  0  0  0  0  0  0  0
  -11.8704  -36.4380    0.0000 C   0  0  0  0  0  0  0  0  0  0  0  0
  -10.6435  -37.3010    0.0000 C   0  0  0  0  0  0  0  0  0  0  0  0
   -9.3542  -38.0675    0.0000 C   0  0  0  0  0  0  0  0  0  0  0  0
   -8.0099  -38.7331    0.0000 C   0  0  0  0  0  0  0  0  0  0  0  0
   -6.6187  -39.2938    0.0000 C   0  0  0  0  0  0  0  0  0  0  0  0
   -5.1886  -39.7464    0.0000 C   0  0  0  0  0  0  0  0  0  0  0  0
   -3.7280  -40.0882    0.0000 C   0  0  0  0  0  0  0  0  0  0  0  0
   -2.2456  -40.3172    0.0000 C   0  0  0  0  0  0  0  0  0  0  0  0
   -0.7500  -40.4320    0.0000 C   0  0  0  0  0  0  0  0  0  0  0  0
    0.7500  -40.4320    0.0000 C   0  0  0  0  0  0  0  0  0  0  0  0
    2.2456  -40.3172    0.0000 C   0  0  0  0  0  0  0  0  0  0  0  0
    3.7280  -40.0882    0.0000 C   0  0  0  0  0  0  0  0  0  0  0  0
    5.1886  -39.7464    0.0000 C   0  0  0  0  0  0  0  0  0  0  0  0
    6.6187  -39.2938    0.0000 C   0  0  0  0  0  0  0  0  0  0  0  0
    8.0099  -38.7331    0.0000 C   0  0  0  0  0  0  0  0  0  0  0  0
    9.3542  -38.0675    0.0000 C   0  0  0  0  0  0  0  0  0  0  0  0
   10.6435  -37.3010    0.0000 C   0  0  0  0  0  0  0  0  0  0  0  0
   11.8704  -36.4380    0.0000 C   0  0  0  0  0  0  0  0  0  0  0  0
   13.0276  -35.4837    0.0000 C   0  0  0  0  0  0  0  0  0  0  0  0
   14.1084  -34.4435    0.0000 C   0  0  0  0  0  0  0  0  0  0  0  0
   15.1064  -33.3237    0.0000 C   0  0  0  0  0  0  0  0  0  0  0  0
   16.0158  -32.1307    0.0000 C   0  0  0  0  0  0  0  0  0  0  0  0
   16.8311  -30.8717    0.0000 C   0  0  0  0  0  0  0  0  0  0  0  0
   17.5477  -29.5539    0.0000 C   0  0  0  0  0  0  0  0  0  0  0  0
   18.1613  -28.1852    0.0000 C   0  0  0  0  0  0  0  0  0  0  0  0
   18.6683  -26.7735    0.0000 C   0  0  0  0  0  0  0  0  0  0  0  0
   19.0658  -25.3271    0.0000 C   0  0  0  0  0  0  0  0  0  0  0  0
   19.3514  -23.8545    0.0000 C   0  0  0  0  0  0  0  0  0  0  0  0
   19.5234  -22.3644    0.0000 C   0  0  0  0  0  0  0  0  0  0  0  0
   19.5808  -20.8655    0.0000 C   0  0  0  0  0  0  0  0  0  0  0  0
   19.5234  -19.3666    0.0000 C   0  0  0  0  0  0  0  0  0  0  0  0
   19.3514  -17.8765    0.0000 C   0  0  0  0  0  0  0  0  0  0  0  0
   19.0658  -16.4040    0.0000 C   0  0  0  0  0  0  0  0  0  0  0  0
   18.6683  -14.9576    0.0000 C   0  0  0  0  0  0  0  0  0  0  0  0
   18.1613  -13.5459    0.0000 C   0  0  0  0  0  0  0  0  0  0  0  0
   17.5477  -12.1771    0.0000 C   0  0  0  0  0  0  0  0  0  0  0  0
   16.8311  -10.8593    0.0000 C   0  0  0  0  0  0  0  0  0  0  0  0
   16.0158   -9.6003    0.0000 C   0  0  0  0  0  0  0  0  0  0  0  0
   15.1064   -8.4074    0.0000 C   0  0  0  0  0  0  0  0  0  0  0  0
   14.1084   -7.2875    0.0000 C   0  0  0  0  0  0  0  0  0  0  0  0
   13.0276   -6.2474    0.0000 C   0  0  0  0  0  0  0  0  0  0  0  0
   11.8704   -5.2930    0.0000 C   0  0  0  0  0  0  0  0  0  0  0  0
   10.6435   -4.4300    0.0000 C   0  0  0  0  0  0  0  0  0  0  0  0
    9.3542   -3.6635    0.0000 C   0  0  0  0  0  0  0  0  0  0  0  0
    8.0099   -2.9979    0.0000 C   0  0  0  0  0  0  0  0  0  0  0  0
    6.6187   -2.4372    0.0000 C   0  0  0  0  0  0  0  0  0  0  0  0
    5.1886   -1.9846    0.0000 C   0  0  0  0  0  0  0  0  0  0  0  0
    3.7280   -1.6428    0.0000 C   0  0  0  0  0  0  0  0  0  0  0  0
    2.2456   -1.4139    0.0000 C   0  0  0  0  0  0  0  0  0  0  0  0
    0.7500   -1.2990    0.0000 C   0  0  0  0  0  0  0  0  0  0  0  0
    1.5000    0.0000    0.0000 C   0  0  0  0  0  0  0  0  0  0  0  0
    0.7500    1.2990    0.0000 C   0  0  0  0  0  0  0  0  0  0  0  0
   -0.7500    1.2990    0.0000 C   0  0  0  0  0  0  0  0  0  0  0  0
   -1.5000    0.0000    0.0000 C   0  0  0  0  0  0  0  0  0  0  0  0
   -0.7500   -1.2990    0.0000 C   0  0  0  0  0  0  0  0  0  0  0  0
   -2.2456   -1.4139    0.0000 C   0  0  0  0  0  0  0  0  0  0  0  0
   -1.3061   -2.5832    0.0000 C   0  0  0  0  0  0  0  0  0  0  0  0
   -1.8490   -3.9815    0.0000 C   0  0  0  0  0  0  0  0  0  0  0  0
   -3.3314   -4.2105    0.0000 C   0  0  0  0  0  0  0  0  0  0  0  0
   -4.2709   -3.0411    0.0000 C   0  0  0  0  0  0  0  0  0  0  0  0
   -3.7280   -1.6428    0.0000 C   0  0  0  0  0  0  0  0  0  0  0  0
  1  2  1  0
  2  3  1  0
  3  4  1  0
  4  5  1  0
  5  6  1  0
  6  7  1  0
  7  8  1  0
  8  9  1  0
  9 10  1  0
 10 11  1  0
 11 12  1  0
 12 13  1  0
 13 14  1  0
 14 15  1  0
 15 16  1  0
 16 17  1  0
 17 18  1  0
 18 19  1  0
 19 20  1  0
 20 21  1  0
 21 22  1  0
 22 23  1  0
 23 24  1  0
 24 25  1  0
 25 26  1  0
 26 27  1  0
 27 28  1  0
 28 29  1  0
 29 30  1  0
 30 31  1  0
 31 32  1  0
 32 33  1  0
 33 34  1  0
 34 35  1  0
 35 36  1  0
 36 37  1  0
 37 38  1  0
 38 39  1  0
 39 40  1  0
 40 41  1  0
 41 42  1  0
 42 43  1  0
 43 44  1  0
 44 45  1  0
 45 46  1  0
 46 47  1  0
 47 48  1  0
 48 49  1  0
 49 50  1  0
 50 51  1  0
 51 52  1  0
 52 53  1  0
 53 54  1  0
 54 55  1  0
 55 56  1  0
 56 57  1  0
 57 58  1  0
 58 59  1  0
 59 60  1  0
 60 61  1  0
 61 62  1  0
 62 63  1  0
 63 64  1  0
 64 65  1  0
 65 66  1  0
 66 67  1  0
 67 68  1  0
 68 69  1  0
 69 70  1  0
 70 71  1  0
 71 72  1  0
 72 73  1  0
 73 74  1  0
 74 75  1  0
 75 76  1  0
 76 77  1  0
 77 78  1  0
 78 79  1  0
 79 80  1  0
 80 81  1  0
 81 82  1  0
 82 83  2  0
 83 84  1  0
 84 85  2  0
 85 86  1  0
 86 87  2  0
 87 88  1  0
 88 89  2  0
 89 90  1  0
 90 91  2  0
 91  2  1  0
 85 80  1  0
 91 86  1  0
M  END
>  <Title>  (432) 
idAAORgen10

$$$$

     RDKit          2D

  8  7  0  0  0  0  0  0  0  0999 V2000
    0.0000    0.0000    0.0000 C   0  0  0  0  0  0  0  0  0  0  0  0
   -0.0000   -1.5000    0.0000 C   0  0  0  0  0  0  0  0  0  0  0  0
   -0.0000   -3.0000    0.0000 C   0  0  0  0  0  0  0  0  0  0  0  0
   -0.0000   -4.5000    0.0000 C   0  0  0  0  0  0  0  0  0  0  0  0
   -0.0000   -6.0000    0.0000 C   0  0  0  0  0  0  0  0  0  0  0  0
   -0.0000   -7.5000    0.0000 C   0  0  0  0  0  0  0  0  0  0  0  0
   -0.0000   -9.0000    0.0000 C   0  0  0  0  0  0  0  0  0  0  0  0
    1.2990   -9.7500    0.0000 C   0  0  0  0  0  0  0  0  0  0  0  0
  1  2  3  0
  2  3  1  0
  3  4  3  0
  4  5  1  0
  5  6  3  0
  6  7  1  0
  7  8  1  0
M  END
>  <Title>  (433) 
idAAOSgen10

$$$$

     RDKit          2D

102103  0  0  0  0  0  0  0  0999 V2000
   -0.7007   -2.6955    0.0000 C   0  0  0  0  0  0  0  0  0  0  0  0
    0.4639   -3.6409    0.0000 C   0  0  0  0  0  0  0  0  0  0  0  0
   -0.4406   -4.8374    0.0000 C   0  0  0  0  0  0  0  0  0  0  0  0
   -1.2605   -6.0935    0.0000 C   0  0  0  0  0  0  0  0  0  0  0  0
   -1.9917   -7.4032    0.0000 C   0  0  0  0  0  0  0  0  0  0  0  0
   -2.6309   -8.7603    0.0000 C   0  0  0  0  0  0  0  0  0  0  0  0
   -3.1748  -10.1581    0.0000 C   0  0  0  0  0  0  0  0  0  0  0  0
   -3.6211  -11.5902    0.0000 C   0  0  0  0  0  0  0  0  0  0  0  0
   -3.9675  -13.0497    0.0000 C   0  0  0  0  0  0  0  0  0  0  0  0
   -4.2124  -14.5296    0.0000 C   0  0  0  0  0  0  0  0  0  0  0  0
   -4.3546  -16.0228    0.0000 C   0  0  0  0  0  0  0  0  0  0  0  0
   -4.3934  -17.5223    0.0000 C   0  0  0  0  0  0  0  0  0  0  0  0
   -4.3287  -19.0209    0.0000 C   0  0  0  0  0  0  0  0  0  0  0  0
   -4.1607  -20.5115    0.0000 C   0  0  0  0  0  0  0  0  0  0  0  0
   -3.8904  -21.9869    0.0000 C   0  0  0  0  0  0  0  0  0  0  0  0
   -3.5188  -23.4402    0.0000 C   0  0  0  0  0  0  0  0  0  0  0  0
   -3.0479  -24.8643    0.0000 C   0  0  0  0  0  0  0  0  0  0  0  0
   -2.4799  -26.2526    0.0000 C   0  0  0  0  0  0  0  0  0  0  0  0
   -1.8174  -27.5984    0.0000 C   0  0  0  0  0  0  0  0  0  0  0  0
   -1.0637  -28.8953    0.0000 C   0  0  0  0  0  0  0  0  0  0  0  0
   -0.2223  -30.1371    0.0000 C   0  0  0  0  0  0  0  0  0  0  0  0
    0.7028  -31.3178    0.0000 C   0  0  0  0  0  0  0  0  0  0  0  0
    1.7071  -32.4320    0.0000 C   0  0  0  0  0  0  0  0  0  0  0  0
    2.7860  -33.4742    0.0000 C   0  0  0  0  0  0  0  0  0  0  0  0
    3.9341  -34.4394    0.0000 C   0  0  0  0  0  0  0  0  0  0  0  0
    5.1461  -35.3232    0.0000 C   0  0  0  0  0  0  0  0  0  0  0  0
    6.4162  -36.1213    0.0000 C   0  0  0  0  0  0  0  0  0  0  0  0
    7.7383  -36.8298    0.0000 C   0  0  0  0  0  0  0  0  0  0  0  0
    9.1062  -37.4454    0.0000 C   0  0  0  0  0  0  0  0  0  0  0  0
   10.5132  -37.9652    0.0000 C   0  0  0  0  0  0  0  0  0  0  0  0
   11.9528  -38.3867    0.0000 C   0  0  0  0  0  0  0  0  0  0  0  0
   13.4180  -38.7078    0.0000 C   0  0  0  0  0  0  0  0  0  0  0  0
   14.9019  -38.9271    0.0000 C   0  0  0  0  0  0  0  0  0  0  0  0
   16.3974  -39.0435    0.0000 C   0  0  0  0  0  0  0  0  0  0  0  0
   17.8973  -39.0564    0.0000 C   0  0  0  0  0  0  0  0  0  0  0  0
   19.3946  -38.9659    0.0000 C   0  0  0  0  0  0  0  0  0  0  0  0
   20.8820  -38.7722    0.0000 C   0  0  0  0  0  0  0  0  0  0  0  0
   22.3526  -38.4764    0.0000 C   0  0  0  0  0  0  0  0  0  0  0  0
   23.7992  -38.0799    0.0000 C   0  0  0  0  0  0  0  0  0  0  0  0
   25.2150  -37.5844    0.0000 C   0  0  0  0  0  0  0  0  0  0  0  0
   26.5933  -36.9925    0.0000 C   0  0  0  0  0  0  0  0  0  0  0  0
   27.9274  -36.3069    0.0000 C   0  0  0  0  0  0  0  0  0  0  0  0
   29.2111  -35.5309    0.0000 C   0  0  0  0  0  0  0  0  0  0  0  0
   30.4382  -34.6682    0.0000 C   0  0  0  0  0  0  0  0  0  0  0  0
   31.6028  -33.7229    0.0000 C   0  0  0  0  0  0  0  0  0  0  0  0
   32.6995  -32.6995    0.0000 C   0  0  0  0  0  0  0  0  0  0  0  0
   33.7229  -31.6028    0.0000 C   0  0  0  0  0  0  0  0  0  0  0  0
   34.6682  -30.4382    0.0000 C   0  0  0  0  0  0  0  0  0  0  0  0
   35.5309  -29.2111    0.0000 C   0  0  0  0  0  0  0  0  0  0  0  0
   36.3069  -27.9274    0.0000 C   0  0  0  0  0  0  0  0  0  0  0  0
   36.9925  -26.5933    0.0000 C   0  0  0  0  0  0  0  0  0  0  0  0
   37.5844  -25.2150    0.0000 C   0  0  0  0  0  0  0  0  0  0  0  0
   38.0799  -23.7992    0.0000 C   0  0  0  0  0  0  0  0  0  0  0  0
   38.4764  -22.3526    0.0000 C   0  0  0  0  0  0  0  0  0  0  0  0
   38.7722  -20.8820    0.0000 C   0  0  0  0  0  0  0  0  0  0  0  0
   38.9659  -19.3946    0.0000 C   0  0  0  0  0  0  0  0  0  0  0  0
   39.0564  -17.8973    0.0000 C   0  0  0  0  0  0  0  0  0  0  0  0
   39.0435  -16.3974    0.0000 C   0  0  0  0  0  0  0  0  0  0  0  0
   38.9271  -14.9019    0.0000 C   0  0  0  0  0  0  0  0  0  0  0  0
   38.7078  -13.4180    0.0000 C   0  0  0  0  0  0  0  0  0  0  0  0
   38.3867  -11.9528    0.0000 C   0  0  0  0  0  0  0  0  0  0  0  0
   37.9652  -10.5132    0.0000 C   0  0  0  0  0  0  0  0  0  0  0  0
   37.4454   -9.1062    0.0000 C   0  0  0  0  0  0  0  0  0  0  0  0
   36.8298   -7.7383    0.0000 C   0  0  0  0  0  0  0  0  0  0  0  0
   36.1213   -6.4162    0.0000 C   0  0  0  0  0  0  0  0  0  0  0  0
   35.3232   -5.1461    0.0000 C   0  0  0  0  0  0  0  0  0  0  0  0
   34.4394   -3.9341    0.0000 C   0  0  0  0  0  0  0  0  0  0  0  0
   33.4742   -2.7860    0.0000 C   0  0  0  0  0  0  0  0  0  0  0  0
   32.4320   -1.7071    0.0000 C   0  0  0  0  0  0  0  0  0  0  0  0
   31.3178   -0.7028    0.0000 C   0  0  0  0  0  0  0  0  0  0  0  0
   30.1371    0.2223    0.0000 C   0  0  0  0  0  0  0  0  0  0  0  0
   28.8953    1.0637    0.0000 C   0  0  0  0  0  0  0  0  0  0  0  0
   27.5984    1.8174    0.0000 C   0  0  0  0  0  0  0  0  0  0  0  0
   26.2526    2.4799    0.0000 C   0  0  0  0  0  0  0  0  0  0  0  0
   24.8643    3.0479    0.0000 C   0  0  0  0  0  0  0  0  0  0  0  0
   23.4402    3.5188    0.0000 C   0  0  0  0  0  0  0  0  0  0  0  0
   21.9869    3.8904    0.0000 C   0  0  0  0  0  0  0  0  0  0  0  0
   20.5115    4.1607    0.0000 C   0  0  0  0  0  0  0  0  0  0  0  0
   19.0209    4.3287    0.0000 C   0  0  0  0  0  0  0  0  0  0  0  0
   17.5223    4.3934    0.0000 C   0  0  0  0  0  0  0  0  0  0  0  0
   16.0228    4.3546    0.0000 C   0  0  0  0  0  0  0  0  0  0  0  0
   14.5296    4.2124    0.0000 C   0  0  0  0  0  0  0  0  0  0  0  0
   13.0497    3.9675    0.0000 C   0  0  0  0  0  0  0  0  0  0  0  0
   11.5902    3.6211    0.0000 C   0  0  0  0  0  0  0  0  0  0  0  0
   10.1581    3.1748    0.0000 C   0  0  0  0  0  0  0  0  0  0  0  0
    8.7603    2.6309    0.0000 C   0  0  0  0  0  0  0  0  0  0  0  0
    7.4032    1.9917    0.0000 C   0  0  0  0  0  0  0  0  0  0  0  0
    6.0935    1.2605    0.0000 C   0  0  0  0  0  0  0  0  0  0  0  0
    4.8374    0.4406    0.0000 C   0  0  0  0  0  0  0  0  0  0  0  0
    3.6409   -0.4639    0.0000 C   0  0  0  0  0  0  0  0  0  0  0  0
    2.5095   -1.4489    0.0000 C   0  0  0  0  0  0  0  0  0  0  0  0
    2.8978    0.0000    0.0000 C   0  0  0  0  0  0  0  0  0  0  0  0
    2.5095    1.4489    0.0000 C   0  0  0  0  0  0  0  0  0  0  0  0
    1.4489    2.5095    0.0000 C   0  0  0  0  0  0  0  0  0  0  0  0
    0.0000    2.8978    0.0000 C   0  0  0  0  0  0  0  0  0  0  0  0
   -1.4489    2.5095    0.0000 C   0  0  0  0  0  0  0  0  0  0  0  0
   -2.5095    1.4489    0.0000 C   0  0  0  0  0  0  0  0  0  0  0  0
   -2.8978    0.0000    0.0000 C   0  0  0  0  0  0  0  0  0  0  0  0
   -2.5095   -1.4489    0.0000 C   0  0  0  0  0  0  0  0  0  0  0  0
   -1.4489   -2.5095    0.0000 C   0  0  0  0  0  0  0  0  0  0  0  0
   -0.0000   -2.8978    0.0000 C   0  0  0  0  0  0  0  0  0  0  0  0
    1.4489   -2.5095    0.0000 C   0  0  0  0  0  0  0  0  0  0  0  0
  1  2  1  0
  2  3  1  0
  3  4  1  0
  4  5  1  0
  5  6  1  0
  6  7  1  0
  7  8  1  0
  8  9  1  0
  9 10  1  0
 10 11  1  0
 11 12  1  0
 12 13  1  0
 13 14  1  0
 14 15  1  0
 15 16  1  0
 16 17  1  0
 17 18  1  0
 18 19  1  0
 19 20  1  0
 20 21  1  0
 21 22  1  0
 22 23  1  0
 23 24  1  0
 24 25  1  0
 25 26  1  0
 26 27  1  0
 27 28  1  0
 28 29  1  0
 29 30  1  0
 30 31  1  0
 31 32  1  0
 32 33  1  0
 33 34  1  0
 34 35  1  0
 35 36  1  0
 36 37  1  0
 37 38  1  0
 38 39  1  0
 39 40  1  0
 40 41  1  0
 41 42  1  0
 42 43  1  0
 43 44  1  0
 44 45  1  0
 45 46  1  0
 46 47  1  0
 47 48  1  0
 48 49  1  0
 49 50  1  0
 50 51  1  0
 51 52  1  0
 52 53  1  0
 53 54  1  0
 54 55  1  0
 55 56  1  0
 56 57  1  0
 57 58  1  0
 58 59  1  0
 59 60  1  0
 60 61  1  0
 61 62  1  0
 62 63  1  0
 63 64  1  0
 64 65  1  0
 65 66  1  0
 66 67  1  0
 67 68  1  0
 68 69  1  0
 69 70  1  0
 70 71  1  0
 71 72  1  0
 72 73  1  0
 73 74  1  0
 74 75  1  0
 75 76  1  0
 76 77  1  0
 77 78  1  0
 78 79  1  0
 79 80  1  0
 80 81  1  0
 81 82  1  0
 82 83  1  0
 83 84  1  0
 84 85  1  0
 85 86  1  0
 86 87  1  0
 87 88  1  0
 88 89  1  0
 89 90  1  0
 90 91  1  0
 91 92  1  0
 92 93  1  0
 93 94  1  0
 94 95  1  0
 95 96  2  0
 96 97  1  0
 97 98  2  0
 98 99  1  0
 99100  2  0
100101  1  0
101102  2  0
102  2  1  0
102 91  1  0
M  END
>  <Title>  (434) 
idAAOTgen10

$$$$

     RDKit          2D

 87 89  0  0  0  0  0  0  0  0999 V2000
   20.1942   -0.0000    0.0000 C   0  0  0  0  0  0  0  0  0  0  0  0
   18.6942    0.0000    0.0000 C   0  0  0  0  0  0  0  0  0  0  0  0
   17.1942    0.0000    0.0000 C   0  0  0  0  0  0  0  0  0  0  0  0
   17.1288   -1.4986    0.0000 C   0  0  0  0  0  0  0  0  0  0  0  0
   16.9330   -2.9857    0.0000 C   0  0  0  0  0  0  0  0  0  0  0  0
   16.6083   -4.4502    0.0000 C   0  0  0  0  0  0  0  0  0  0  0  0
   16.1573   -5.8808    0.0000 C   0  0  0  0  0  0  0  0  0  0  0  0
   15.5832   -7.2666    0.0000 C   0  0  0  0  0  0  0  0  0  0  0  0
   14.8906   -8.5971    0.0000 C   0  0  0  0  0  0  0  0  0  0  0  0
   14.0847   -9.8622    0.0000 C   0  0  0  0  0  0  0  0  0  0  0  0
   13.1715  -11.0522    0.0000 C   0  0  0  0  0  0  0  0  0  0  0  0
   12.1581  -12.1581    0.0000 C   0  0  0  0  0  0  0  0  0  0  0  0
   11.0522  -13.1715    0.0000 C   0  0  0  0  0  0  0  0  0  0  0  0
    9.8622  -14.0847    0.0000 C   0  0  0  0  0  0  0  0  0  0  0  0
    8.5971  -14.8906    0.0000 C   0  0  0  0  0  0  0  0  0  0  0  0
    7.2666  -15.5832    0.0000 C   0  0  0  0  0  0  0  0  0  0  0  0
    5.8808  -16.1573    0.0000 C   0  0  0  0  0  0  0  0  0  0  0  0
    4.4502  -16.6083    0.0000 C   0  0  0  0  0  0  0  0  0  0  0  0
    2.9857  -16.9330    0.0000 C   0  0  0  0  0  0  0  0  0  0  0  0
    1.4986  -17.1288    0.0000 C   0  0  0  0  0  0  0  0  0  0  0  0
   -0.0000  -17.1942    0.0000 C   0  0  0  0  0  0  0  0  0  0  0  0
   -1.4986  -17.1288    0.0000 C   0  0  0  0  0  0  0  0  0  0  0  0
   -2.9857  -16.9330    0.0000 C   0  0  0  0  0  0  0  0  0  0  0  0
   -4.4502  -16.6083    0.0000 C   0  0  0  0  0  0  0  0  0  0  0  0
   -5.8808  -16.1573    0.0000 C   0  0  0  0  0  0  0  0  0  0  0  0
   -7.2666  -15.5832    0.0000 C   0  0  0  0  0  0  0  0  0  0  0  0
   -8.5971  -14.8906    0.0000 C   0  0  0  0  0  0  0  0  0  0  0  0
   -9.8622  -14.0847    0.0000 C   0  0  0  0  0  0  0  0  0  0  0  0
  -11.0522  -13.1715    0.0000 C   0  0  0  0  0  0  0  0  0  0  0  0
  -12.1581  -12.1581    0.0000 C   0  0  0  0  0  0  0  0  0  0  0  0
  -13.1715  -11.0522    0.0000 C   0  0  0  0  0  0  0  0  0  0  0  0
  -14.0847   -9.8622    0.0000 C   0  0  0  0  0  0  0  0  0  0  0  0
  -14.8906   -8.5971    0.0000 C   0  0  0  0  0  0  0  0  0  0  0  0
  -15.5832   -7.2666    0.0000 C   0  0  0  0  0  0  0  0  0  0  0  0
  -16.1573   -5.8808    0.0000 C   0  0  0  0  0  0  0  0  0  0  0  0
  -16.6083   -4.4502    0.0000 C   0  0  0  0  0  0  0  0  0  0  0  0
  -16.9330   -2.9857    0.0000 C   0  0  0  0  0  0  0  0  0  0  0  0
  -17.1288   -1.4986    0.0000 C   0  0  0  0  0  0  0  0  0  0  0  0
  -17.1942    0.0000    0.0000 C   0  0  0  0  0  0  0  0  0  0  0  0
  -17.1288    1.4986    0.0000 C   0  0  0  0  0  0  0  0  0  0  0  0
  -16.9330    2.9857    0.0000 C   0  0  0  0  0  0  0  0  0  0  0  0
  -16.6083    4.4502    0.0000 C   0  0  0  0  0  0  0  0  0  0  0  0
  -16.1573    5.8808    0.0000 C   0  0  0  0  0  0  0  0  0  0  0  0
  -15.5832    7.2666    0.0000 C   0  0  0  0  0  0  0  0  0  0  0  0
  -14.8906    8.5971    0.0000 C   0  0  0  0  0  0  0  0  0  0  0  0
  -14.0847    9.8622    0.0000 C   0  0  0  0  0  0  0  0  0  0  0  0
  -13.1715   11.0522    0.0000 C   0  0  0  0  0  0  0  0  0  0  0  0
  -12.1581   12.1581    0.0000 C   0  0  0  0  0  0  0  0  0  0  0  0
  -11.0522   13.1715    0.0000 C   0  0  0  0  0  0  0  0  0  0  0  0
   -9.8622   14.0847    0.0000 C   0  0  0  0  0  0  0  0  0  0  0  0
   -8.5971   14.8906    0.0000 C   0  0  0  0  0  0  0  0  0  0  0  0
   -7.2666   15.5832    0.0000 C   0  0  0  0  0  0  0  0  0  0  0  0
   -5.8808   16.1573    0.0000 C   0  0  0  0  0  0  0  0  0  0  0  0
   -4.4502   16.6083    0.0000 C   0  0  0  0  0  0  0  0  0  0  0  0
   -2.9857   16.9330    0.0000 C   0  0  0  0  0  0  0  0  0  0  0  0
   -1.4986   17.1288    0.0000 C   0  0  0  0  0  0  0  0  0  0  0  0
    0.0000   17.1942    0.0000 C   0  0  0  0  0  0  0  0  0  0  0  0
    1.4986   17.1288    0.0000 C   0  0  0  0  0  0  0  0  0  0  0  0
    2.9857   16.9330    0.0000 C   0  0  0  0  0  0  0  0  0  0  0  0
    4.4502   16.6083    0.0000 C   0  0  0  0  0  0  0  0  0  0  0  0
    5.8808   16.1573    0.0000 C   0  0  0  0  0  0  0  0  0  0  0  0
    7.2666   15.5832    0.0000 C   0  0  0  0  0  0  0  0  0  0  0  0
    8.5971   14.8906    0.0000 C   0  0  0  0  0  0  0  0  0  0  0  0
    9.8622   14.0847    0.0000 C   0  0  0  0  0  0  0  0  0  0  0  0
   11.0522   13.1715    0.0000 C   0  0  0  0  0  0  0  0  0  0  0  0
   12.1581   12.1581    0.0000 C   0  0  0  0  0  0  0  0  0  0  0  0
   13.1715   11.0522    0.0000 C   0  0  0  0  0  0  0  0  0  0  0  0
   14.0847    9.8622    0.0000 C   0  0  0  0  0  0  0  0  0  0  0  0
   14.8906    8.5971    0.0000 C   0  0  0  0  0  0  0  0  0  0  0  0
   15.5832    7.2666    0.0000 C   0  0  0  0  0  0  0  0  0  0  0  0
   16.1573    5.8808    0.0000 C   0  0  0  0  0  0  0  0  0  0  0  0
   16.6083    4.4502    0.0000 C   0  0  0  0  0  0  0  0  0  0  0  0
   16.9330    2.9857    0.0000 C   0  0  0  0  0  0  0  0  0  0  0  0
   17.1288    1.4986    0.0000 C   0  0  0  0  0  0  0  0  0  0  0  0
   18.6231    1.6293    0.0000 C   0  0  0  0  0  0  0  0  0  0  0  0
   19.4834    0.4006    0.0000 C   0  0  0  0  0  0  0  0  0  0  0  0
   20.9777    0.5313    0.0000 C   0  0  0  0  0  0  0  0  0  0  0  0
   21.6116    1.8908    0.0000 C   0  0  0  0  0  0  0  0  0  0  0  0
   20.7513    3.1195    0.0000 C   0  0  0  0  0  0  0  0  0  0  0  0
   19.2570    2.9888    0.0000 C   0  0  0  0  0  0  0  0  0  0  0  0
   18.3966    4.2175    0.0000 C   0  0  0  0  0  0  0  0  0  0  0  0
   16.9023    4.0868    0.0000 C   0  0  0  0  0  0  0  0  0  0  0  0
   16.0420    5.3155    0.0000 C   0  0  0  0  0  0  0  0  0  0  0  0
   16.6759    6.6750    0.0000 C   0  0  0  0  0  0  0  0  0  0  0  0
   18.1702    6.8057    0.0000 C   0  0  0  0  0  0  0  0  0  0  0  0
   19.0305    5.5770    0.0000 C   0  0  0  0  0  0  0  0  0  0  0  0
   20.5248    5.7077    0.0000 C   0  0  0  0  0  0  0  0  0  0  0  0
  1  2  3  0
  2  3  1  0
  3  4  1  0
  4  5  1  0
  5  6  1  0
  6  7  1  0
  7  8  1  0
  8  9  1  0
  9 10  1  0
 10 11  1  0
 11 12  1  0
 12 13  1  0
 13 14  1  0
 14 15  1  0
 15 16  1  0
 16 17  1  0
 17 18  1  0
 18 19  1  0
 19 20  1  0
 20 21  1  0
 21 22  1  0
 22 23  1  0
 23 24  1  0
 24 25  1  0
 25 26  1  0
 26 27  1  0
 27 28  1  0
 28 29  1  0
 29 30  1  0
 30 31  1  0
 31 32  1  0
 32 33  1  0
 33 34  1  0
 34 35  1  0
 35 36  1  0
 36 37  1  0
 37 38  1  0
 38 39  1  0
 39 40  1  0
 40 41  1  0
 41 42  1  0
 42 43  1  0
 43 44  1  0
 44 45  1  0
 45 46  1  0
 46 47  1  0
 47 48  1  0
 48 49  1  0
 49 50  1  0
 50 51  1  0
 51 52  1  0
 52 53  1  0
 53 54  1  0
 54 55  1  0
 55 56  1  0
 56 57  1  0
 57 58  1  0
 58 59  1  0
 59 60  1  0
 60 61  1  0
 61 62  1  0
 62 63  1  0
 63 64  1  0
 64 65  1  0
 65 66  1  0
 66 67  1  0
 67 68  1  0
 68 69  1  0
 69 70  2  0
 70 71  1  0
 71 72  2  0
 72 73  1  0
 73 74  2  0
 74 75  1  0
 75 76  2  0
 76 77  1  0
 77 78  2  0
 78 79  1  0
 79 80  2  0
 80 81  1  0
 81 82  2  0
 82 83  1  0
 83 84  2  0
 84 85  1  0
 85 86  2  0
 86 87  1  0
 74  3  1  0
 80 75  1  0
 86 81  1  0
M  END
>  <Title>  (435) 
idAAOUgen10

$$$$

     RDKit          2D

 22 23  0  0  0  0  0  0  0  0999 V2000
    4.1621    0.0000    0.0000 C   0  0  0  0  0  0  0  0  0  0  0  0
    2.6621    0.0000    0.0000 C   0  0  0  0  0  0  0  0  0  0  0  0
    2.2395    1.4392    0.0000 C   0  0  0  0  0  0  0  0  0  0  0  0
    1.1059    2.4215    0.0000 C   0  0  0  0  0  0  0  0  0  0  0  0
   -0.3789    2.6350    0.0000 C   0  0  0  0  0  0  0  0  0  0  0  0
   -1.7433    2.0119    0.0000 C   0  0  0  0  0  0  0  0  0  0  0  0
   -2.5543    0.7500    0.0000 C   0  0  0  0  0  0  0  0  0  0  0  0
   -2.5543   -0.7500    0.0000 C   0  0  0  0  0  0  0  0  0  0  0  0
   -1.7433   -2.0119    0.0000 C   0  0  0  0  0  0  0  0  0  0  0  0
   -0.3789   -2.6350    0.0000 C   0  0  0  0  0  0  0  0  0  0  0  0
    1.1059   -2.4215    0.0000 C   0  0  0  0  0  0  0  0  0  0  0  0
    2.2395   -1.4392    0.0000 C   0  0  0  0  0  0  0  0  0  0  0  0
    3.5014   -2.2502    0.0000 N   0  0  0  0  0  0  0  0  0  0  0  0
    3.4300   -3.7485    0.0000 C   0  0  0  0  0  0  0  0  0  0  0  0
    2.0968   -4.4358    0.0000 O   0  0  0  0  0  0  0  0  0  0  0  0
    4.6919   -4.5595    0.0000 C   0  0  0  0  0  0  0  0  0  0  0  0
    4.6205   -6.0578    0.0000 C   0  0  0  0  0  0  0  0  0  0  0  0
    3.2873   -6.7451    0.0000 C   0  0  0  0  0  0  0  0  0  0  0  0
    3.2159   -8.2434    0.0000 C   0  0  0  0  0  0  0  0  0  0  0  0
    4.4778   -9.0544    0.0000 C   0  0  0  0  0  0  0  0  0  0  0  0
    5.8110   -8.3670    0.0000 C   0  0  0  0  0  0  0  0  0  0  0  0
    5.8824   -6.8687    0.0000 C   0  0  0  0  0  0  0  0  0  0  0  0
  1  2  1  0
  2  3  1  0
  3  4  2  0
  4  5  1  0
  5  6  2  0
  6  7  1  0
  7  8  2  0
  8  9  1  0
  9 10  2  0
 10 11  1  0
 11 12  2  0
 12 13  1  0
 13 14  1  0
 14 15  2  0
 14 16  1  0
 16 17  1  0
 17 18  2  0
 18 19  1  0
 19 20  2  0
 20 21  1  0
 21 22  2  0
 12  2  1  0
 22 17  1  0
M  END
>  <Title>  (436) 
idAAOVgen10

$$$$

     RDKit          2D

 20 21  0  0  0  0  0  0  0  0999 V2000
   10.5000    0.0000    0.0000 C   0  0  0  0  0  0  0  0  0  0  0  0
    9.0000    0.0000    0.0000 C   0  0  0  0  0  0  0  0  0  0  0  0
    7.5000    0.0000    0.0000 C   0  0  0  0  0  0  0  0  0  0  0  0
    6.0000    0.0000    0.0000 C   0  0  0  0  0  0  0  0  0  0  0  0
    4.5000    0.0000    0.0000 C   0  0  0  0  0  0  0  0  0  0  0  0
    3.0000    0.0000    0.0000 C   0  0  0  0  0  0  0  0  0  0  0  0
    1.5000    0.0000    0.0000 C   0  0  0  0  0  0  0  0  0  0  0  0
    0.7500   -1.2990    0.0000 C   0  0  0  0  0  0  0  0  0  0  0  0
   -0.7500   -1.2990    0.0000 C   0  0  0  0  0  0  0  0  0  0  0  0
   -1.5000    0.0000    0.0000 C   0  0  0  0  0  0  0  0  0  0  0  0
   -0.7500    1.2990    0.0000 C   0  0  0  0  0  0  0  0  0  0  0  0
    0.7500    1.2990    0.0000 C   0  0  0  0  0  0  0  0  0  0  0  0
    1.5000    2.5981    0.0000 C   0  0  0  0  0  0  0  0  0  0  0  0
    3.0000    2.5981    0.0000 C   0  0  0  0  0  0  0  0  0  0  0  0
    0.7500    3.8971    0.0000 C   0  0  0  0  0  0  0  0  0  0  0  0
    1.5000    5.1962    0.0000 C   0  0  0  0  0  0  0  0  0  0  0  0
    0.7500    6.4952    0.0000 C   0  0  0  0  0  0  0  0  0  0  0  0
   -0.7500    6.4952    0.0000 C   0  0  0  0  0  0  0  0  0  0  0  0
   -1.5000    5.1962    0.0000 C   0  0  0  0  0  0  0  0  0  0  0  0
   -0.7500    3.8971    0.0000 C   0  0  0  0  0  0  0  0  0  0  0  0
  1  2  3  0
  2  3  1  0
  3  4  3  0
  4  5  1  0
  5  6  3  0
  6  7  1  0
  7  8  2  0
  8  9  1  0
  9 10  2  0
 10 11  1  0
 11 12  2  0
 12 13  1  0
 13 14  1  0
 13 15  1  0
 15 16  2  0
 16 17  1  0
 17 18  2  0
 18 19  1  0
 19 20  2  0
 12  7  1  0
 20 15  1  0
M  END
>  <Title>  (437) 
idAAOWgen10

$$$$

     RDKit          2D

 10 10  0  0  0  0  0  0  0  0999 V2000
    3.0000    0.0000    0.0000 C   0  0  0  0  0  0  0  0  0  0  0  0
    1.5000    0.0000    0.0000 C   0  0  0  0  0  0  0  0  0  0  0  0
    0.7500   -1.2990    0.0000 C   0  0  0  0  0  0  0  0  0  0  0  0
   -0.7500   -1.2990    0.0000 C   0  0  0  0  0  0  0  0  0  0  0  0
   -1.5000    0.0000    0.0000 C   0  0  0  0  0  0  0  0  0  0  0  0
   -0.7500    1.2990    0.0000 C   0  0  0  0  0  0  0  0  0  0  0  0
   -1.5000    2.5981    0.0000 C   0  0  0  0  0  0  0  0  0  0  0  0
   -0.7500    3.8971    0.0000 N   0  0  0  0  0  0  0  0  0  0  0  0
   -3.0000    2.5981    0.0000 O   0  0  0  0  0  0  0  0  0  0  0  0
    0.7500    1.2990    0.0000 N   0  0  0  0  0  0  0  0  0  0  0  0
  1  2  1  0
  2  3  1  0
  3  4  1  0
  4  5  2  0
  5  6  1  0
  6  7  1  0
  7  8  1  0
  7  9  2  0
  6 10  1  0
 10  2  1  0
M  END
>  <Title>  (438) 
idAAOXgen10

$$$$

     RDKit          2D

 84 89  0  0  0  0  0  0  0  0999 V2000
  -13.4346   -6.6679    0.0000 C   0  0  0  0  0  0  0  0  0  0  0  0
  -12.2167   -7.5435    0.0000 C   0  0  0  0  0  0  0  0  0  0  0  0
  -13.0305   -8.8035    0.0000 C   0  0  0  0  0  0  0  0  0  0  0  0
  -13.7149  -10.1383    0.0000 C   0  0  0  0  0  0  0  0  0  0  0  0
  -14.2629  -11.5346    0.0000 C   0  0  0  0  0  0  0  0  0  0  0  0
  -14.6691  -12.9786    0.0000 C   0  0  0  0  0  0  0  0  0  0  0  0
  -14.9296  -14.4558    0.0000 C   0  0  0  0  0  0  0  0  0  0  0  0
  -15.0417  -15.9516    0.0000 C   0  0  0  0  0  0  0  0  0  0  0  0
  -15.0043  -17.4511    0.0000 C   0  0  0  0  0  0  0  0  0  0  0  0
  -14.8178  -18.9395    0.0000 C   0  0  0  0  0  0  0  0  0  0  0  0
  -14.4840  -20.4019    0.0000 C   0  0  0  0  0  0  0  0  0  0  0  0
  -14.0063  -21.8238    0.0000 C   0  0  0  0  0  0  0  0  0  0  0  0
  -13.3893  -23.1910    0.0000 C   0  0  0  0  0  0  0  0  0  0  0  0
  -12.6393  -24.4901    0.0000 C   0  0  0  0  0  0  0  0  0  0  0  0
  -11.7637  -25.7080    0.0000 C   0  0  0  0  0  0  0  0  0  0  0  0
  -10.7712  -26.8326    0.0000 C   0  0  0  0  0  0  0  0  0  0  0  0
   -9.6716  -27.8529    0.0000 C   0  0  0  0  0  0  0  0  0  0  0  0
   -8.4759  -28.7586    0.0000 C   0  0  0  0  0  0  0  0  0  0  0  0
   -7.1960  -29.5408    0.0000 C   0  0  0  0  0  0  0  0  0  0  0  0
   -5.8445  -30.1916    0.0000 C   0  0  0  0  0  0  0  0  0  0  0  0
   -4.4350  -30.7046    0.0000 C   0  0  0  0  0  0  0  0  0  0  0  0
   -2.9814  -31.0748    0.0000 C   0  0  0  0  0  0  0  0  0  0  0  0
   -1.4981  -31.2983    0.0000 C   0  0  0  0  0  0  0  0  0  0  0  0
   -0.0000  -31.3731    0.0000 C   0  0  0  0  0  0  0  0  0  0  0  0
    1.4981  -31.2983    0.0000 C   0  0  0  0  0  0  0  0  0  0  0  0
    2.9814  -31.0748    0.0000 C   0  0  0  0  0  0  0  0  0  0  0  0
    4.4350  -30.7046    0.0000 C   0  0  0  0  0  0  0  0  0  0  0  0
    5.8445  -30.1916    0.0000 C   0  0  0  0  0  0  0  0  0  0  0  0
    7.1960  -29.5408    0.0000 C   0  0  0  0  0  0  0  0  0  0  0  0
    8.4759  -28.7586    0.0000 C   0  0  0  0  0  0  0  0  0  0  0  0
    9.6716  -27.8529    0.0000 C   0  0  0  0  0  0  0  0  0  0  0  0
   10.7712  -26.8326    0.0000 C   0  0  0  0  0  0  0  0  0  0  0  0
   11.7637  -25.7080    0.0000 C   0  0  0  0  0  0  0  0  0  0  0  0
   12.6393  -24.4901    0.0000 C   0  0  0  0  0  0  0  0  0  0  0  0
   13.3893  -23.1910    0.0000 C   0  0  0  0  0  0  0  0  0  0  0  0
   14.0063  -21.8238    0.0000 C   0  0  0  0  0  0  0  0  0  0  0  0
   14.4840  -20.4019    0.0000 C   0  0  0  0  0  0  0  0  0  0  0  0
   14.8178  -18.9395    0.0000 C   0  0  0  0  0  0  0  0  0  0  0  0
   15.0043  -17.4511    0.0000 C   0  0  0  0  0  0  0  0  0  0  0  0
   15.0417  -15.9516    0.0000 C   0  0  0  0  0  0  0  0  0  0  0  0
   14.9296  -14.4558    0.0000 C   0  0  0  0  0  0  0  0  0  0  0  0
   14.6691  -12.9786    0.0000 C   0  0  0  0  0  0  0  0  0  0  0  0
   14.2629  -11.5346    0.0000 C   0  0  0  0  0  0  0  0  0  0  0  0
   13.7149  -10.1383    0.0000 C   0  0  0  0  0  0  0  0  0  0  0  0
   13.0305   -8.8035    0.0000 C   0  0  0  0  0  0  0  0  0  0  0  0
   12.2167   -7.5435    0.0000 C   0  0  0  0  0  0  0  0  0  0  0  0
   11.2815   -6.3707    0.0000 C   0  0  0  0  0  0  0  0  0  0  0  0
   10.2341   -5.2969    0.0000 C   0  0  0  0  0  0  0  0  0  0  0  0
    9.0851   -4.3328    0.0000 C   0  0  0  0  0  0  0  0  0  0  0  0
    7.8457   -3.4878    0.0000 C   0  0  0  0  0  0  0  0  0  0  0  0
    6.5284   -2.7704    0.0000 C   0  0  0  0  0  0  0  0  0  0  0  0
    5.1462   -2.1877    0.0000 C   0  0  0  0  0  0  0  0  0  0  0  0
    3.7128   -1.7456    0.0000 C   0  0  0  0  0  0  0  0  0  0  0  0
    2.2425   -1.4484    0.0000 C   0  0  0  0  0  0  0  0  0  0  0  0
    0.7500   -1.2990    0.0000 C   0  0  0  0  0  0  0  0  0  0  0  0
    1.5000    0.0000    0.0000 C   0  0  0  0  0  0  0  0  0  0  0  0
    0.7500    1.2990    0.0000 C   0  0  0  0  0  0  0  0  0  0  0  0
   -0.7500    1.2990    0.0000 C   0  0  0  0  0  0  0  0  0  0  0  0
   -1.5000    0.0000    0.0000 C   0  0  0  0  0  0  0  0  0  0  0  0
   -0.7500   -1.2990    0.0000 C   0  0  0  0  0  0  0  0  0  0  0  0
   -2.2425   -1.4484    0.0000 C   0  0  0  0  0  0  0  0  0  0  0  0
   -1.2500   -2.5731    0.0000 C   0  0  0  0  0  0  0  0  0  0  0  0
   -1.7277   -3.9950    0.0000 C   0  0  0  0  0  0  0  0  0  0  0  0
   -3.1980   -4.2922    0.0000 C   0  0  0  0  0  0  0  0  0  0  0  0
   -4.1905   -3.1675    0.0000 C   0  0  0  0  0  0  0  0  0  0  0  0
   -3.7128   -1.7456    0.0000 C   0  0  0  0  0  0  0  0  0  0  0  0
   -5.1462   -2.1877    0.0000 C   0  0  0  0  0  0  0  0  0  0  0  0
   -4.9596   -0.6994    0.0000 C   0  0  0  0  0  0  0  0  0  0  0  0
   -6.1553    0.2063    0.0000 C   0  0  0  0  0  0  0  0  0  0  0  0
   -7.5376   -0.3763    0.0000 C   0  0  0  0  0  0  0  0  0  0  0  0
   -7.7241   -1.8647    0.0000 C   0  0  0  0  0  0  0  0  0  0  0  0
   -6.5284   -2.7704    0.0000 C   0  0  0  0  0  0  0  0  0  0  0  0
   -7.8457   -3.4878    0.0000 C   0  0  0  0  0  0  0  0  0  0  0  0
   -6.4943   -4.1386    0.0000 C   0  0  0  0  0  0  0  0  0  0  0  0
   -6.3822   -5.6344    0.0000 C   0  0  0  0  0  0  0  0  0  0  0  0
   -7.6215   -6.4794    0.0000 C   0  0  0  0  0  0  0  0  0  0  0  0
   -8.9730   -5.8286    0.0000 C   0  0  0  0  0  0  0  0  0  0  0  0
   -9.0851   -4.3328    0.0000 C   0  0  0  0  0  0  0  0  0  0  0  0
  -10.2341   -5.2969    0.0000 C   0  0  0  0  0  0  0  0  0  0  0  0
  -10.6404   -3.8530    0.0000 C   0  0  0  0  0  0  0  0  0  0  0  0
  -12.0940   -3.4829    0.0000 C   0  0  0  0  0  0  0  0  0  0  0  0
  -13.1414   -4.5567    0.0000 C   0  0  0  0  0  0  0  0  0  0  0  0
  -12.7351   -6.0006    0.0000 C   0  0  0  0  0  0  0  0  0  0  0  0
  -11.2815   -6.3707    0.0000 C   0  0  0  0  0  0  0  0  0  0  0  0
  1  2  1  0
  2  3  1  0
  3  4  1  0
  4  5  1  0
  5  6  1  0
  6  7  1  0
  7  8  1  0
  8  9  1  0
  9 10  1  0
 10 11  1  0
 11 12  1  0
 12 13  1  0
 13 14  1  0
 14 15  1  0
 15 16  1  0
 16 17  1  0
 17 18  1  0
 18 19  1  0
 19 20  1  0
 20 21  1  0
 21 22  1  0
 22 23  1  0
 23 24  1  0
 24 25  1  0
 25 26  1  0
 26 27  1  0
 27 28  1  0
 28 29  1  0
 29 30  1  0
 30 31  1  0
 31 32  1  0
 32 33  1  0
 33 34  1  0
 34 35  1  0
 35 36  1  0
 36 37  1  0
 37 38  1  0
 38 39  1  0
 39 40  1  0
 40 41  1  0
 41 42  1  0
 42 43  1  0
 43 44  1  0
 44 45  1  0
 45 46  1  0
 46 47  1  0
 47 48  1  0
 48 49  1  0
 49 50  1  0
 50 51  1  0
 51 52  1  0
 52 53  1  0
 53 54  1  0
 54 55  1  0
 55 56  2  0
 56 57  1  0
 57 58  2  0
 58 59  1  0
 59 60  2  0
 60 61  1  0
 61 62  2  0
 62 63  1  0
 63 64  2  0
 64 65  1  0
 65 66  2  0
 66 67  1  0
 67 68  2  0
 68 69  1  0
 69 70  2  0
 70 71  1  0
 71 72  2  0
 72 73  1  0
 73 74  2  0
 74 75  1  0
 75 76  2  0
 76 77  1  0
 77 78  2  0
 78 79  1  0
 79 80  2  0
 80 81  1  0
 81 82  2  0
 82 83  1  0
 83 84  2  0
 84  2  1  0
 60 55  1  0
 66 61  1  0
 72 67  1  0
 78 73  1  0
 84 79  1  0
M  END
>  <Title>  (439) 
idAAOYgen10

$$$$

     RDKit          2D

 18 19  0  0  0  0  0  0  0  0999 V2000
    3.2286   -0.0000    0.0000 C   0  0  0  0  0  0  0  0  0  0  0  0
    1.7286    0.0000    0.0000 C   0  0  0  0  0  0  0  0  0  0  0  0
    1.0777    1.3515    0.0000 C   0  0  0  0  0  0  0  0  0  0  0  0
   -0.3846    1.6852    0.0000 C   0  0  0  0  0  0  0  0  0  0  0  0
   -1.5574    0.7500    0.0000 C   0  0  0  0  0  0  0  0  0  0  0  0
   -2.9088    1.4008    0.0000 N   0  0  0  0  0  0  0  0  0  0  0  0
   -3.0209    2.8966    0.0000 N   0  0  0  0  0  0  0  0  0  0  0  0
   -4.3724    3.5475    0.0000 N   0  0  0  0  0  0  0  0  0  0  0  0
   -4.4845    5.0433    0.0000 N   0  0  0  0  0  0  0  0  0  0  0  0
   -3.2451    5.8882    0.0000 C   0  0  0  0  0  0  0  0  0  0  0  0
   -3.3572    7.3840    0.0000 C   0  0  0  0  0  0  0  0  0  0  0  0
   -4.7087    8.0349    0.0000 C   0  0  0  0  0  0  0  0  0  0  0  0
   -5.9480    7.1899    0.0000 C   0  0  0  0  0  0  0  0  0  0  0  0
   -5.8359    5.6941    0.0000 C   0  0  0  0  0  0  0  0  0  0  0  0
   -1.5574   -0.7500    0.0000 N   0  0  0  0  0  0  0  0  0  0  0  0
   -0.3846   -1.6852    0.0000 C   0  0  0  0  0  0  0  0  0  0  0  0
   -0.7184   -3.1476    0.0000 O   0  0  0  0  0  0  0  0  0  0  0  0
    1.0777   -1.3515    0.0000 C   0  0  0  0  0  0  0  0  0  0  0  0
  1  2  1  0
  2  3  1  0
  3  4  1  0
  4  5  1  0
  5  6  2  3
  6  7  1  0
  7  8  2  3
  8  9  1  0
  9 10  1  0
 10 11  1  0
 11 12  1  0
 12 13  1  0
 13 14  1  0
  5 15  1  0
 15 16  1  0
 16 17  2  0
 16 18  1  0
 18  2  1  0
 14  9  1  0
M  END
>  <Title>  (440) 
idAAOZgen10

$$$$

     RDKit          2D

 15 16  0  0  0  0  0  0  0  0999 V2000
    6.4664   -0.8373    0.0000 C   0  0  0  0  0  0  0  0  0  0  0  0
    5.4627   -1.9520    0.0000 C   0  0  0  0  0  0  0  0  0  0  0  0
    3.9955   -1.6402    0.0000 C   0  0  0  0  0  0  0  0  0  0  0  0
    3.5320   -0.2136    0.0000 O   0  0  0  0  0  0  0  0  0  0  0  0
    2.9918   -2.7549    0.0000 C   0  0  0  0  0  0  0  0  0  0  0  0
    1.5000   -2.5981    0.0000 C   0  0  0  0  0  0  0  0  0  0  0  0
    0.7500   -1.2990    0.0000 C   0  0  0  0  0  0  0  0  0  0  0  0
    1.5000    0.0000    0.0000 C   0  0  0  0  0  0  0  0  0  0  0  0
    0.7500    1.2990    0.0000 C   0  0  0  0  0  0  0  0  0  0  0  0
   -0.7500    1.2990    0.0000 C   0  0  0  0  0  0  0  0  0  0  0  0
   -1.5000    0.0000    0.0000 C   0  0  0  0  0  0  0  0  0  0  0  0
   -0.7500   -1.2990    0.0000 N   0  0  0  0  0  0  0  0  0  0  0  0
    0.8899   -3.9684    0.0000 C   0  0  0  0  0  0  0  0  0  0  0  0
    2.0046   -4.9721    0.0000 C   0  0  0  0  0  0  0  0  0  0  0  0
    3.3037   -4.2221    0.0000 C   0  0  0  0  0  0  0  0  0  0  0  0
  1  2  2  0
  2  3  1  0
  3  4  2  0
  3  5  1  0
  5  6  2  0
  6  7  1  0
  7  8  2  0
  8  9  1  0
  9 10  2  0
 10 11  1  0
 11 12  2  0
  6 13  1  0
 13 14  1  0
 14 15  1  0
 15  5  1  0
 12  7  1  0
M  END
>  <Title>  (441) 
idAAPAgen10

$$$$

     RDKit          2D

 94 95  0  0  0  0  0  0  0  0999 V2000
   -2.1759   -1.0801    0.0000 C   0  0  0  0  0  0  0  0  0  0  0  0
   -2.4877    0.3871    0.0000 C   0  0  0  0  0  0  0  0  0  0  0  0
   -3.9649    0.1266    0.0000 C   0  0  0  0  0  0  0  0  0  0  0  0
   -5.4567   -0.0301    0.0000 C   0  0  0  0  0  0  0  0  0  0  0  0
   -6.9558   -0.0825    0.0000 C   0  0  0  0  0  0  0  0  0  0  0  0
   -8.4549   -0.0301    0.0000 C   0  0  0  0  0  0  0  0  0  0  0  0
   -9.9467    0.1266    0.0000 C   0  0  0  0  0  0  0  0  0  0  0  0
  -11.4239    0.3871    0.0000 C   0  0  0  0  0  0  0  0  0  0  0  0
  -12.8793    0.7500    0.0000 C   0  0  0  0  0  0  0  0  0  0  0  0
  -14.3059    1.2135    0.0000 C   0  0  0  0  0  0  0  0  0  0  0  0
  -15.6967    1.7754    0.0000 C   0  0  0  0  0  0  0  0  0  0  0  0
  -17.0449    2.4330    0.0000 C   0  0  0  0  0  0  0  0  0  0  0  0
  -18.3439    3.1830    0.0000 C   0  0  0  0  0  0  0  0  0  0  0  0
  -19.5875    4.0218    0.0000 C   0  0  0  0  0  0  0  0  0  0  0  0
  -20.7695    4.9453    0.0000 C   0  0  0  0  0  0  0  0  0  0  0  0
  -21.8842    5.9490    0.0000 C   0  0  0  0  0  0  0  0  0  0  0  0
  -22.9262    7.0280    0.0000 C   0  0  0  0  0  0  0  0  0  0  0  0
  -23.8904    8.1770    0.0000 C   0  0  0  0  0  0  0  0  0  0  0  0
  -24.7721    9.3906    0.0000 C   0  0  0  0  0  0  0  0  0  0  0  0
  -25.5669   10.6626    0.0000 C   0  0  0  0  0  0  0  0  0  0  0  0
  -26.2711   11.9871    0.0000 C   0  0  0  0  0  0  0  0  0  0  0  0
  -26.8813   13.3574    0.0000 C   0  0  0  0  0  0  0  0  0  0  0  0
  -27.3943   14.7669    0.0000 C   0  0  0  0  0  0  0  0  0  0  0  0
  -27.8077   16.2088    0.0000 C   0  0  0  0  0  0  0  0  0  0  0  0
  -28.1196   17.6760    0.0000 C   0  0  0  0  0  0  0  0  0  0  0  0
  -28.3284   19.1614    0.0000 C   0  0  0  0  0  0  0  0  0  0  0  0
  -28.4330   20.6578    0.0000 C   0  0  0  0  0  0  0  0  0  0  0  0
  -28.4330   22.1578    0.0000 C   0  0  0  0  0  0  0  0  0  0  0  0
  -28.3284   23.6541    0.0000 C   0  0  0  0  0  0  0  0  0  0  0  0
  -28.1196   25.1395    0.0000 C   0  0  0  0  0  0  0  0  0  0  0  0
  -27.8077   26.6068    0.0000 C   0  0  0  0  0  0  0  0  0  0  0  0
  -27.3943   28.0486    0.0000 C   0  0  0  0  0  0  0  0  0  0  0  0
  -26.8813   29.4582    0.0000 C   0  0  0  0  0  0  0  0  0  0  0  0
  -26.2711   30.8285    0.0000 C   0  0  0  0  0  0  0  0  0  0  0  0
  -25.5669   32.1529    0.0000 C   0  0  0  0  0  0  0  0  0  0  0  0
  -24.7721   33.4250    0.0000 C   0  0  0  0  0  0  0  0  0  0  0  0
  -23.8904   34.6385    0.0000 C   0  0  0  0  0  0  0  0  0  0  0  0
  -22.9262   35.7876    0.0000 C   0  0  0  0  0  0  0  0  0  0  0  0
  -21.8842   36.8666    0.0000 C   0  0  0  0  0  0  0  0  0  0  0  0
  -20.7695   37.8703    0.0000 C   0  0  0  0  0  0  0  0  0  0  0  0
  -19.5875   38.7938    0.0000 C   0  0  0  0  0  0  0  0  0  0  0  0
  -18.3439   39.6326    0.0000 C   0  0  0  0  0  0  0  0  0  0  0  0
  -17.0449   40.3826    0.0000 C   0  0  0  0  0  0  0  0  0  0  0  0
  -15.6967   41.0401    0.0000 C   0  0  0  0  0  0  0  0  0  0  0  0
  -14.3059   41.6020    0.0000 C   0  0  0  0  0  0  0  0  0  0  0  0
  -12.8793   42.0656    0.0000 C   0  0  0  0  0  0  0  0  0  0  0  0
  -11.4239   42.4285    0.0000 C   0  0  0  0  0  0  0  0  0  0  0  0
   -9.9467   42.6889    0.0000 C   0  0  0  0  0  0  0  0  0  0  0  0
   -8.4549   42.8457    0.0000 C   0  0  0  0  0  0  0  0  0  0  0  0
   -6.9558   42.8981    0.0000 C   0  0  0  0  0  0  0  0  0  0  0  0
   -5.4567   42.8457    0.0000 C   0  0  0  0  0  0  0  0  0  0  0  0
   -3.9649   42.6889    0.0000 C   0  0  0  0  0  0  0  0  0  0  0  0
   -2.4877   42.4285    0.0000 C   0  0  0  0  0  0  0  0  0  0  0  0
   -1.0323   42.0656    0.0000 C   0  0  0  0  0  0  0  0  0  0  0  0
    0.3943   41.6020    0.0000 C   0  0  0  0  0  0  0  0  0  0  0  0
    1.7851   41.0401    0.0000 C   0  0  0  0  0  0  0  0  0  0  0  0
    3.1333   40.3826    0.0000 C   0  0  0  0  0  0  0  0  0  0  0  0
    4.4323   39.6326    0.0000 C   0  0  0  0  0  0  0  0  0  0  0  0
    5.6759   38.7938    0.0000 C   0  0  0  0  0  0  0  0  0  0  0  0
    6.8579   37.8703    0.0000 C   0  0  0  0  0  0  0  0  0  0  0  0
    7.9726   36.8666    0.0000 C   0  0  0  0  0  0  0  0  0  0  0  0
    9.0146   35.7876    0.0000 C   0  0  0  0  0  0  0  0  0  0  0  0
    9.9788   34.6385    0.0000 C   0  0  0  0  0  0  0  0  0  0  0  0
   10.8604   33.4250    0.0000 C   0  0  0  0  0  0  0  0  0  0  0  0
   11.6553   32.1529    0.0000 C   0  0  0  0  0  0  0  0  0  0  0  0
   12.3595   30.8285    0.0000 C   0  0  0  0  0  0  0  0  0  0  0  0
   12.9696   29.4582    0.0000 C   0  0  0  0  0  0  0  0  0  0  0  0
   13.4827   28.0486    0.0000 C   0  0  0  0  0  0  0  0  0  0  0  0
   13.8961   26.6068    0.0000 C   0  0  0  0  0  0  0  0  0  0  0  0
   14.2080   25.1395    0.0000 C   0  0  0  0  0  0  0  0  0  0  0  0
   14.4167   23.6541    0.0000 C   0  0  0  0  0  0  0  0  0  0  0  0
   14.5214   22.1578    0.0000 C   0  0  0  0  0  0  0  0  0  0  0  0
   14.5214   20.6578    0.0000 C   0  0  0  0  0  0  0  0  0  0  0  0
   14.4167   19.1614    0.0000 C   0  0  0  0  0  0  0  0  0  0  0  0
   14.2080   17.6760    0.0000 C   0  0  0  0  0  0  0  0  0  0  0  0
   13.8961   16.2088    0.0000 C   0  0  0  0  0  0  0  0  0  0  0  0
   13.4827   14.7669    0.0000 C   0  0  0  0  0  0  0  0  0  0  0  0
   12.9696   13.3574    0.0000 C   0  0  0  0  0  0  0  0  0  0  0  0
   12.3595   11.9871    0.0000 C   0  0  0  0  0  0  0  0  0  0  0  0
   11.6553   10.6626    0.0000 C   0  0  0  0  0  0  0  0  0  0  0  0
   10.8604    9.3906    0.0000 C   0  0  0  0  0  0  0  0  0  0  0  0
    9.9788    8.1770    0.0000 C   0  0  0  0  0  0  0  0  0  0  0  0
    9.0146    7.0280    0.0000 C   0  0  0  0  0  0  0  0  0  0  0  0
    7.9726    5.9490    0.0000 C   0  0  0  0  0  0  0  0  0  0  0  0
    6.8579    4.9453    0.0000 C   0  0  0  0  0  0  0  0  0  0  0  0
    5.6759    4.0218    0.0000 C   0  0  0  0  0  0  0  0  0  0  0  0
    4.4323    3.1830    0.0000 C   0  0  0  0  0  0  0  0  0  0  0  0
    3.1333    2.4330    0.0000 C   0  0  0  0  0  0  0  0  0  0  0  0
    1.7851    1.7754    0.0000 C   0  0  0  0  0  0  0  0  0  0  0  0
    0.3943    1.2135    0.0000 C   0  0  0  0  0  0  0  0  0  0  0  0
    1.2760    0.0000    0.0000 C   0  0  0  0  0  0  0  0  0  0  0  0
    0.3943   -1.2135    0.0000 C   0  0  0  0  0  0  0  0  0  0  0  0
   -1.0323   -0.7500    0.0000 C   0  0  0  0  0  0  0  0  0  0  0  0
   -1.0323    0.7500    0.0000 C   0  0  0  0  0  0  0  0  0  0  0  0
  1  2  1  0
  2  3  1  0
  3  4  1  0
  4  5  1  0
  5  6  1  0
  6  7  1  0
  7  8  1  0
  8  9  1  0
  9 10  1  0
 10 11  1  0
 11 12  1  0
 12 13  1  0
 13 14  1  0
 14 15  1  0
 15 16  1  0
 16 17  1  0
 17 18  1  0
 18 19  1  0
 19 20  1  0
 20 21  1  0
 21 22  1  0
 22 23  1  0
 23 24  1  0
 24 25  1  0
 25 26  1  0
 26 27  1  0
 27 28  1  0
 28 29  1  0
 29 30  1  0
 30 31  1  0
 31 32  1  0
 32 33  1  0
 33 34  1  0
 34 35  1  0
 35 36  1  0
 36 37  1  0
 37 38  1  0
 38 39  1  0
 39 40  1  0
 40 41  1  0
 41 42  1  0
 42 43  1  0
 43 44  1  0
 44 45  1  0
 45 46  1  0
 46 47  1  0
 47 48  1  0
 48 49  1  0
 49 50  1  0
 50 51  1  0
 51 52  1  0
 52 53  1  0
 53 54  1  0
 54 55  1  0
 55 56  1  0
 56 57  1  0
 57 58  1  0
 58 59  1  0
 59 60  1  0
 60 61  1  0
 61 62  1  0
 62 63  1  0
 63 64  1  0
 64 65  1  0
 65 66  1  0
 66 67  1  0
 67 68  1  0
 68 69  1  0
 69 70  1  0
 70 71  1  0
 71 72  1  0
 72 73  1  0
 73 74  2  0
 74 75  1  0
 75 76  2  0
 76 77  1  0
 77 78  2  0
 78 79  1  0
 79 80  2  0
 80 81  1  0
 81 82  2  0
 82 83  1  0
 83 84  2  0
 84 85  1  0
 85 86  2  0
 86 87  1  0
 87 88  2  0
 88 89  1  0
 89 90  2  0
 90 91  1  0
 91 92  2  0
 92 93  1  0
 93 94  2  0
 94  2  1  0
 94 90  1  0
M  END
>  <Title>  (442) 
idAAPBgen10

$$$$

     RDKit          2D

 10 10  0  0  0  0  0  0  0  0999 V2000
    5.2500   -1.2990    0.0000 C   0  0  0  0  0  0  0  0  0  0  0  0
    3.7500   -1.2990    0.0000 C   0  0  0  0  0  0  0  0  0  0  0  0
    3.0000    0.0000    0.0000 N   0  0  0  0  0  0  0  0  0  0  0  0
    1.5000    0.0000    0.0000 C   0  0  0  0  0  0  0  0  0  0  0  0
    0.7500   -1.2990    0.0000 C   0  0  0  0  0  0  0  0  0  0  0  0
   -0.7500   -1.2990    0.0000 C   0  0  0  0  0  0  0  0  0  0  0  0
   -1.5000   -2.5981    0.0000 C   0  0  0  0  0  0  0  0  0  0  0  0
   -1.5000    0.0000    0.0000 N   0  0  0  0  0  0  0  0  0  0  0  0
   -0.7500    1.2990    0.0000 C   0  0  0  0  0  0  0  0  0  0  0  0
    0.7500    1.2990    0.0000 C   0  0  0  0  0  0  0  0  0  0  0  0
  1  2  1  0
  2  3  1  0
  3  4  1  0
  4  5  2  0
  5  6  1  0
  6  7  1  0
  6  8  1  0
  8  9  1  0
  9 10  2  0
 10  4  1  0
M  END
>  <Title>  (443) 
idAAPCgen10

$$$$

     RDKit          2D

 10 10  0  0  0  0  0  0  0  0999 V2000
    6.0000   -2.5981    0.0000 C   0  0  0  0  0  0  0  0  0  0  0  0
    5.2500   -1.2990    0.0000 C   0  0  0  0  0  0  0  0  0  0  0  0
    3.7500   -1.2990    0.0000 C   0  0  0  0  0  0  0  0  0  0  0  0
    3.0000    0.0000    0.0000 C   0  0  0  0  0  0  0  0  0  0  0  0
    1.5000    0.0000    0.0000 C   0  0  0  0  0  0  0  0  0  0  0  0
    0.7500   -1.2990    0.0000 C   0  0  0  0  0  0  0  0  0  0  0  0
   -0.7500   -1.2990    0.0000 C   0  0  0  0  0  0  0  0  0  0  0  0
   -1.5000    0.0000    0.0000 C   0  0  0  0  0  0  0  0  0  0  0  0
   -0.7500    1.2990    0.0000 C   0  0  0  0  0  0  0  0  0  0  0  0
    0.7500    1.2990    0.0000 C   0  0  0  0  0  0  0  0  0  0  0  0
  1  2  1  0
  2  3  1  0
  3  4  1  0
  4  5  1  0
  5  6  2  0
  6  7  1  0
  7  8  2  0
  8  9  1  0
  9 10  2  0
 10  5  1  0
M  END
>  <Title>  (444) 
idAAPDgen10

$$$$

     RDKit          2D

  7  6  0  0  0  0  0  0  0  0999 V2000
    0.0000    0.0000    0.0000 C   0  0  0  0  0  0  0  0  0  0  0  0
    1.2990    0.7500    0.0000 C   0  0  0  0  0  0  0  0  0  0  0  0
    2.5981   -0.0000    0.0000 C   0  0  0  0  0  0  0  0  0  0  0  0
    3.8971    0.7500    0.0000 C   0  0  0  0  0  0  0  0  0  0  0  0
    5.1962   -0.0000    0.0000 C   0  0  0  0  0  0  0  0  0  0  0  0
    6.4952    0.7500    0.0000 C   0  0  0  0  0  0  0  0  0  0  0  0
    7.7942   -0.0000    0.0000 C   0  0  0  0  0  0  0  0  0  0  0  0
  1  2  1  0
  2  3  2  3
  3  4  1  0
  4  5  1  0
  5  6  1  0
  6  7  1  0
M  END
>  <Title>  (445) 
idAAPEgen10

$$$$

     RDKit          2D

 15 15  0  0  0  0  0  0  0  0999 V2000
   16.2760   -0.0000    0.0000 C   0  0  0  0  0  0  0  0  0  0  0  0
   14.7760   -0.0000    0.0000 C   0  0  0  0  0  0  0  0  0  0  0  0
   13.2760   -0.0000    0.0000 C   0  0  0  0  0  0  0  0  0  0  0  0
   11.7760   -0.0000    0.0000 C   0  0  0  0  0  0  0  0  0  0  0  0
   10.2760   -0.0000    0.0000 C   0  0  0  0  0  0  0  0  0  0  0  0
    8.7760   -0.0000    0.0000 C   0  0  0  0  0  0  0  0  0  0  0  0
    7.2760   -0.0000    0.0000 C   0  0  0  0  0  0  0  0  0  0  0  0
    5.7760   -0.0000    0.0000 C   0  0  0  0  0  0  0  0  0  0  0  0
    4.2760   -0.0000    0.0000 C   0  0  0  0  0  0  0  0  0  0  0  0
    2.7760    0.0000    0.0000 C   0  0  0  0  0  0  0  0  0  0  0  0
    1.2760    0.0000    0.0000 C   0  0  0  0  0  0  0  0  0  0  0  0
    0.3943    1.2135    0.0000 C   0  0  0  0  0  0  0  0  0  0  0  0
   -1.0323    0.7500    0.0000 C   0  0  0  0  0  0  0  0  0  0  0  0
   -1.0323   -0.7500    0.0000 C   0  0  0  0  0  0  0  0  0  0  0  0
    0.3943   -1.2135    0.0000 C   0  0  0  0  0  0  0  0  0  0  0  0
  1  2  3  0
  2  3  1  0
  3  4  3  0
  4  5  1  0
  5  6  3  0
  6  7  1  0
  7  8  3  0
  8  9  1  0
  9 10  3  0
 10 11  1  0
 11 12  2  0
 12 13  1  0
 13 14  1  0
 14 15  2  0
 15 11  1  0
M  END
>  <Title>  (446) 
idAAPFgen10

$$$$

     RDKit          2D

 12 12  0  0  0  0  0  0  0  0999 V2000
    7.5000    2.5981    0.0000 C   0  0  0  0  0  0  0  0  0  0  0  0
    6.7500    1.2990    0.0000 C   0  0  0  0  0  0  0  0  0  0  0  0
    6.0000    0.0000    0.0000 C   0  0  0  0  0  0  0  0  0  0  0  0
    6.7500   -1.2990    0.0000 C   0  0  0  0  0  0  0  0  0  0  0  0
    4.5000    0.0000    0.0000 C   0  0  0  0  0  0  0  0  0  0  0  0
    3.0000    0.0000    0.0000 C   0  0  0  0  0  0  0  0  0  0  0  0
    1.5000    0.0000    0.0000 C   0  0  0  0  0  0  0  0  0  0  0  0
    0.7500   -1.2990    0.0000 C   0  0  0  0  0  0  0  0  0  0  0  0
   -0.7500   -1.2990    0.0000 C   0  0  0  0  0  0  0  0  0  0  0  0
   -1.5000    0.0000    0.0000 C   0  0  0  0  0  0  0  0  0  0  0  0
   -0.7500    1.2990    0.0000 C   0  0  0  0  0  0  0  0  0  0  0  0
    0.7500    1.2990    0.0000 C   0  0  0  0  0  0  0  0  0  0  0  0
  1  2  3  0
  2  3  1  0
  3  4  1  0
  3  5  1  0
  5  6  3  0
  6  7  1  0
  7  8  2  0
  8  9  1  0
  9 10  2  0
 10 11  1  0
 11 12  2  0
 12  7  1  0
M  END
>  <Title>  (447) 
idAAPGgen10

$$$$

     RDKit          2D

  7  7  0  0  0  0  0  0  0  0999 V2000
    3.0000    0.0000    0.0000 O   0  0  0  0  0  0  0  0  0  0  0  0
    1.5000    0.0000    0.0000 C   0  0  0  0  0  0  0  0  0  0  0  0
    0.7500   -1.2990    0.0000 C   0  0  0  0  0  0  0  0  0  0  0  0
   -0.7500   -1.2990    0.0000 C   0  0  0  0  0  0  0  0  0  0  0  0
   -1.5000    0.0000    0.0000 C   0  0  0  0  0  0  0  0  0  0  0  0
   -0.7500    1.2990    0.0000 C   0  0  0  0  0  0  0  0  0  0  0  0
    0.7500    1.2990    0.0000 C   0  0  0  0  0  0  0  0  0  0  0  0
  1  2  1  0
  2  3  1  0
  3  4  1  0
  4  5  1  0
  5  6  1  0
  6  7  1  0
  7  2  1  0
M  END
>  <Title>  (448) 
idAAPHgen10

$$$$

     RDKit          2D

 54 62  0  0  0  0  0  0  0  0999 V2000
    5.1070  -10.3477    0.0000 C   0  0  0  0  0  0  0  0  0  0  0  0
    3.9343   -9.4124    0.0000 C   0  0  0  0  0  0  0  0  0  0  0  0
    4.6843   -8.1134    0.0000 N   0  0  0  0  0  0  0  0  0  0  0  0
    5.0181   -6.6510    0.0000 N   0  0  0  0  0  0  0  0  0  0  0  0
    4.9060   -5.1552    0.0000 N   0  0  0  0  0  0  0  0  0  0  0  0
    4.3580   -3.7589    0.0000 N   0  0  0  0  0  0  0  0  0  0  0  0
    3.4227   -2.5862    0.0000 N   0  0  0  0  0  0  0  0  0  0  0  0
    4.6093   -1.6686    0.0000 C   0  0  0  0  0  0  0  0  0  0  0  0
    4.1033   -0.2565    0.0000 C   0  0  0  0  0  0  0  0  0  0  0  0
    2.6040   -0.3014    0.0000 C   0  0  0  0  0  0  0  0  0  0  0  0
    1.6864    0.8852    0.0000 C   0  0  0  0  0  0  0  0  0  0  0  0
    2.1834   -1.7412    0.0000 N   0  0  0  0  0  0  0  0  0  0  0  0
    0.7500   -1.2990    0.0000 C   0  0  0  0  0  0  0  0  0  0  0  0
    1.5000    0.0000    0.0000 C   0  0  0  0  0  0  0  0  0  0  0  0
    0.7500    1.2990    0.0000 C   0  0  0  0  0  0  0  0  0  0  0  0
   -0.7500    1.2990    0.0000 C   0  0  0  0  0  0  0  0  0  0  0  0
   -1.5000    0.0000    0.0000 C   0  0  0  0  0  0  0  0  0  0  0  0
   -0.7500   -1.2990    0.0000 C   0  0  0  0  0  0  0  0  0  0  0  0
   -2.1834   -1.7412    0.0000 C   0  0  0  0  0  0  0  0  0  0  0  0
   -2.2955   -0.2454    0.0000 C   0  0  0  0  0  0  0  0  0  0  0  0
   -3.6469    0.4055    0.0000 C   0  0  0  0  0  0  0  0  0  0  0  0
   -4.8863   -0.4395    0.0000 C   0  0  0  0  0  0  0  0  0  0  0  0
   -4.7742   -1.9353    0.0000 C   0  0  0  0  0  0  0  0  0  0  0  0
   -3.4227   -2.5862    0.0000 C   0  0  0  0  0  0  0  0  0  0  0  0
   -4.3580   -3.7589    0.0000 C   0  0  0  0  0  0  0  0  0  0  0  0
   -5.2932   -2.5862    0.0000 C   0  0  0  0  0  0  0  0  0  0  0  0
   -6.7764   -2.8097    0.0000 C   0  0  0  0  0  0  0  0  0  0  0  0
   -7.3244   -4.2060    0.0000 C   0  0  0  0  0  0  0  0  0  0  0  0
   -6.3892   -5.3788    0.0000 C   0  0  0  0  0  0  0  0  0  0  0  0
   -4.9060   -5.1552    0.0000 C   0  0  0  0  0  0  0  0  0  0  0  0
   -5.0181   -6.6510    0.0000 C   0  0  0  0  0  0  0  0  0  0  0  0
   -6.4514   -6.2089    0.0000 C   0  0  0  0  0  0  0  0  0  0  0  0
   -7.5510   -7.2291    0.0000 C   0  0  0  0  0  0  0  0  0  0  0  0
   -7.2172   -8.6915    0.0000 C   0  0  0  0  0  0  0  0  0  0  0  0
   -5.7839   -9.1337    0.0000 C   0  0  0  0  0  0  0  0  0  0  0  0
   -4.6843   -8.1134    0.0000 C   0  0  0  0  0  0  0  0  0  0  0  0
   -3.9343   -9.4124    0.0000 C   0  0  0  0  0  0  0  0  0  0  0  0
   -5.3676   -9.8546    0.0000 C   0  0  0  0  0  0  0  0  0  0  0  0
   -5.7014  -11.3170    0.0000 C   0  0  0  0  0  0  0  0  0  0  0  0
   -4.6018  -12.3372    0.0000 C   0  0  0  0  0  0  0  0  0  0  0  0
   -3.1685  -11.8951    0.0000 C   0  0  0  0  0  0  0  0  0  0  0  0
   -2.8347  -10.4327    0.0000 C   0  0  0  0  0  0  0  0  0  0  0  0
   -1.4832  -11.0835    0.0000 C   0  0  0  0  0  0  0  0  0  0  0  0
   -2.4185  -12.2563    0.0000 C   0  0  0  0  0  0  0  0  0  0  0  0
   -1.8705  -13.6526    0.0000 C   0  0  0  0  0  0  0  0  0  0  0  0
   -0.3872  -13.8762    0.0000 C   0  0  0  0  0  0  0  0  0  0  0  0
    0.5480  -12.7034    0.0000 C   0  0  0  0  0  0  0  0  0  0  0  0
   -0.0000  -11.3071    0.0000 C   0  0  0  0  0  0  0  0  0  0  0  0
    1.4832  -11.0835    0.0000 C   0  0  0  0  0  0  0  0  0  0  0  0
    1.3712  -12.5793    0.0000 C   0  0  0  0  0  0  0  0  0  0  0  0
    2.6105  -13.4243    0.0000 C   0  0  0  0  0  0  0  0  0  0  0  0
    3.9620  -12.7735    0.0000 C   0  0  0  0  0  0  0  0  0  0  0  0
    4.0741  -11.2777    0.0000 C   0  0  0  0  0  0  0  0  0  0  0  0
    2.8347  -10.4327    0.0000 C   0  0  0  0  0  0  0  0  0  0  0  0
  1  2  1  0
  2  3  1  0
  3  4  2  0
  4  5  1  0
  5  6  2  0
  6  7  1  0
  7  8  1  0
  8  9  1  0
  9 10  1  0
 10 11  1  0
 10 12  1  0
 12 13  1  0
 13 14  2  0
 14 15  1  0
 15 16  2  0
 16 17  1  0
 17 18  2  0
 18 19  1  0
 19 20  2  0
 20 21  1  0
 21 22  2  0
 22 23  1  0
 23 24  2  0
 24 25  1  0
 25 26  2  0
 26 27  1  0
 27 28  2  0
 28 29  1  0
 29 30  2  0
 30 31  1  0
 31 32  2  0
 32 33  1  0
 33 34  2  0
 34 35  1  0
 35 36  2  0
 36 37  1  0
 37 38  2  0
 38 39  1  0
 39 40  2  0
 40 41  1  0
 41 42  2  0
 42 43  1  0
 43 44  2  0
 44 45  1  0
 45 46  2  0
 46 47  1  0
 47 48  2  0
 48 49  1  0
 49 50  2  0
 50 51  1  0
 51 52  2  0
 52 53  1  0
 53 54  2  0
 54  2  1  0
 12  7  1  0
 18 13  1  0
 24 19  1  0
 30 25  1  0
 36 31  1  0
 42 37  1  0
 48 43  1  0
 54 49  1  0
M  END
>  <Title>  (449) 
idAAPIgen10

$$$$

     RDKit          2D

  7  7  0  0  0  0  0  0  0  0999 V2000
    3.0000    0.0000    0.0000 C   0  0  0  0  0  0  0  0  0  0  0  0
    1.5000    0.0000    0.0000 C   0  0  0  0  0  0  0  0  0  0  0  0
    0.7500   -1.2990    0.0000 C   0  0  0  0  0  0  0  0  0  0  0  0
   -0.7500   -1.2990    0.0000 C   0  0  0  0  0  0  0  0  0  0  0  0
   -1.5000    0.0000    0.0000 C   0  0  0  0  0  0  0  0  0  0  0  0
   -0.7500    1.2990    0.0000 C   0  0  0  0  0  0  0  0  0  0  0  0
    0.7500    1.2990    0.0000 C   0  0  0  0  0  0  0  0  0  0  0  0
  1  2  1  0
  2  3  1  0
  3  4  2  0
  4  5  1  0
  5  6  1  0
  6  7  2  0
  7  2  1  0
M  END
>  <Title>  (450) 
idAAPJgen10

$$$$

     RDKit          2D

 13 13  0  0  0  0  0  0  0  0999 V2000
   10.2760   -0.0000    0.0000 C   0  0  0  0  0  0  0  0  0  0  0  0
    8.7760   -0.0000    0.0000 C   0  0  0  0  0  0  0  0  0  0  0  0
    7.2760   -0.0000    0.0000 C   0  0  0  0  0  0  0  0  0  0  0  0
    5.7760   -0.0000    0.0000 C   0  0  0  0  0  0  0  0  0  0  0  0
    4.2760   -0.0000    0.0000 C   0  0  0  0  0  0  0  0  0  0  0  0
    2.7760    0.0000    0.0000 C   0  0  0  0  0  0  0  0  0  0  0  0
    1.2760    0.0000    0.0000 C   0  0  0  0  0  0  0  0  0  0  0  0
    0.3943    1.2135    0.0000 C   0  0  0  0  0  0  0  0  0  0  0  0
   -1.0323    0.7500    0.0000 C   0  0  0  0  0  0  0  0  0  0  0  0
   -2.2458    1.6317    0.0000 C   0  0  0  0  0  0  0  0  0  0  0  0
   -1.0323   -0.7500    0.0000 C   0  0  0  0  0  0  0  0  0  0  0  0
   -2.2458   -1.6317    0.0000 C   0  0  0  0  0  0  0  0  0  0  0  0
    0.3943   -1.2135    0.0000 C   0  0  0  0  0  0  0  0  0  0  0  0
  1  2  3  0
  2  3  1  0
  3  4  3  0
  4  5  1  0
  5  6  3  0
  6  7  1  0
  7  8  2  0
  8  9  1  0
  9 10  1  0
  9 11  1  0
 11 12  1  0
 11 13  1  0
 13  7  1  0
M  END
>  <Title>  (451) 
idAAPKgen10

$$$$

     RDKit          2D

 11 11  0  0  0  0  0  0  0  0999 V2000
    5.0260   -1.2990    0.0000 C   0  0  0  0  0  0  0  0  0  0  0  0
    3.5260   -1.2990    0.0000 C   0  0  0  0  0  0  0  0  0  0  0  0
    2.7760    0.0000    0.0000 C   0  0  0  0  0  0  0  0  0  0  0  0
    1.2760    0.0000    0.0000 N   0  0  0  0  0  0  0  0  0  0  0  0
    0.3943    1.2135    0.0000 C   0  0  0  0  0  0  0  0  0  0  0  0
    0.8578    2.6401    0.0000 C   0  0  0  0  0  0  0  0  0  0  0  0
   -1.0323    0.7500    0.0000 C   0  0  0  0  0  0  0  0  0  0  0  0
   -1.0323   -0.7500    0.0000 C   0  0  0  0  0  0  0  0  0  0  0  0
   -2.2458   -1.6317    0.0000 C   0  0  0  0  0  0  0  0  0  0  0  0
    0.3943   -1.2135    0.0000 C   0  0  0  0  0  0  0  0  0  0  0  0
    0.8578   -2.6401    0.0000 C   0  0  0  0  0  0  0  0  0  0  0  0
  1  2  1  0
  2  3  1  0
  3  4  1  0
  4  5  1  0
  5  6  1  0
  5  7  2  0
  7  8  1  0
  8  9  1  0
  8 10  1  0
 10 11  1  0
 10  4  1  0
M  END
>  <Title>  (452) 
idAAPLgen10

$$$$

     RDKit          2D

 77 78  0  0  0  0  0  0  0  0999 V2000
   -2.4401    0.0574    0.0000 C   0  0  0  0  0  0  0  0  0  0  0  0
   -2.2443   -1.4298    0.0000 C   0  0  0  0  0  0  0  0  0  0  0  0
   -3.7215   -1.6902    0.0000 C   0  0  0  0  0  0  0  0  0  0  0  0
   -5.1704   -2.0785    0.0000 C   0  0  0  0  0  0  0  0  0  0  0  0
   -6.5799   -2.5915    0.0000 C   0  0  0  0  0  0  0  0  0  0  0  0
   -7.9394   -3.2254    0.0000 C   0  0  0  0  0  0  0  0  0  0  0  0
   -9.2384   -3.9754    0.0000 C   0  0  0  0  0  0  0  0  0  0  0  0
  -10.4672   -4.8358    0.0000 C   0  0  0  0  0  0  0  0  0  0  0  0
  -11.6162   -5.8000    0.0000 C   0  0  0  0  0  0  0  0  0  0  0  0
  -12.6769   -6.8606    0.0000 C   0  0  0  0  0  0  0  0  0  0  0  0
  -13.6411   -8.0097    0.0000 C   0  0  0  0  0  0  0  0  0  0  0  0
  -14.5014   -9.2384    0.0000 C   0  0  0  0  0  0  0  0  0  0  0  0
  -15.2514  -10.5375    0.0000 C   0  0  0  0  0  0  0  0  0  0  0  0
  -15.8854  -11.8969    0.0000 C   0  0  0  0  0  0  0  0  0  0  0  0
  -16.3984  -13.3065    0.0000 C   0  0  0  0  0  0  0  0  0  0  0  0
  -16.7866  -14.7554    0.0000 C   0  0  0  0  0  0  0  0  0  0  0  0
  -17.0471  -16.2326    0.0000 C   0  0  0  0  0  0  0  0  0  0  0  0
  -17.1778  -17.7269    0.0000 C   0  0  0  0  0  0  0  0  0  0  0  0
  -17.1778  -19.2269    0.0000 C   0  0  0  0  0  0  0  0  0  0  0  0
  -17.0471  -20.7212    0.0000 C   0  0  0  0  0  0  0  0  0  0  0  0
  -16.7866  -22.1984    0.0000 C   0  0  0  0  0  0  0  0  0  0  0  0
  -16.3984  -23.6473    0.0000 C   0  0  0  0  0  0  0  0  0  0  0  0
  -15.8854  -25.0568    0.0000 C   0  0  0  0  0  0  0  0  0  0  0  0
  -15.2514  -26.4163    0.0000 C   0  0  0  0  0  0  0  0  0  0  0  0
  -14.5014  -27.7153    0.0000 C   0  0  0  0  0  0  0  0  0  0  0  0
  -13.6411  -28.9440    0.0000 C   0  0  0  0  0  0  0  0  0  0  0  0
  -12.6769  -30.0931    0.0000 C   0  0  0  0  0  0  0  0  0  0  0  0
  -11.6162  -31.1537    0.0000 C   0  0  0  0  0  0  0  0  0  0  0  0
  -10.4672  -32.1179    0.0000 C   0  0  0  0  0  0  0  0  0  0  0  0
   -9.2384  -32.9783    0.0000 C   0  0  0  0  0  0  0  0  0  0  0  0
   -7.9394  -33.7283    0.0000 C   0  0  0  0  0  0  0  0  0  0  0  0
   -6.5799  -34.3622    0.0000 C   0  0  0  0  0  0  0  0  0  0  0  0
   -5.1704  -34.8753    0.0000 C   0  0  0  0  0  0  0  0  0  0  0  0
   -3.7215  -35.2635    0.0000 C   0  0  0  0  0  0  0  0  0  0  0  0
   -2.2443  -35.5240    0.0000 C   0  0  0  0  0  0  0  0  0  0  0  0
   -0.7500  -35.6547    0.0000 C   0  0  0  0  0  0  0  0  0  0  0  0
    0.7500  -35.6547    0.0000 C   0  0  0  0  0  0  0  0  0  0  0  0
    2.2443  -35.5240    0.0000 C   0  0  0  0  0  0  0  0  0  0  0  0
    3.7215  -35.2635    0.0000 C   0  0  0  0  0  0  0  0  0  0  0  0
    5.1704  -34.8753    0.0000 C   0  0  0  0  0  0  0  0  0  0  0  0
    6.5799  -34.3622    0.0000 C   0  0  0  0  0  0  0  0  0  0  0  0
    7.9394  -33.7283    0.0000 C   0  0  0  0  0  0  0  0  0  0  0  0
    9.2384  -32.9783    0.0000 C   0  0  0  0  0  0  0  0  0  0  0  0
   10.4672  -32.1179    0.0000 C   0  0  0  0  0  0  0  0  0  0  0  0
   11.6162  -31.1537    0.0000 C   0  0  0  0  0  0  0  0  0  0  0  0
   12.6769  -30.0931    0.0000 C   0  0  0  0  0  0  0  0  0  0  0  0
   13.6411  -28.9440    0.0000 C   0  0  0  0  0  0  0  0  0  0  0  0
   14.5014  -27.7153    0.0000 C   0  0  0  0  0  0  0  0  0  0  0  0
   15.2514  -26.4163    0.0000 C   0  0  0  0  0  0  0  0  0  0  0  0
   15.8854  -25.0568    0.0000 C   0  0  0  0  0  0  0  0  0  0  0  0
   16.3984  -23.6473    0.0000 C   0  0  0  0  0  0  0  0  0  0  0  0
   16.7866  -22.1984    0.0000 C   0  0  0  0  0  0  0  0  0  0  0  0
   17.0471  -20.7212    0.0000 C   0  0  0  0  0  0  0  0  0  0  0  0
   17.1778  -19.2269    0.0000 C   0  0  0  0  0  0  0  0  0  0  0  0
   17.1778  -17.7269    0.0000 C   0  0  0  0  0  0  0  0  0  0  0  0
   17.0471  -16.2326    0.0000 C   0  0  0  0  0  0  0  0  0  0  0  0
   16.7866  -14.7554    0.0000 C   0  0  0  0  0  0  0  0  0  0  0  0
   16.3984  -13.3065    0.0000 C   0  0  0  0  0  0  0  0  0  0  0  0
   15.8854  -11.8969    0.0000 C   0  0  0  0  0  0  0  0  0  0  0  0
   15.2514  -10.5375    0.0000 C   0  0  0  0  0  0  0  0  0  0  0  0
   14.5014   -9.2384    0.0000 C   0  0  0  0  0  0  0  0  0  0  0  0
   13.6411   -8.0097    0.0000 C   0  0  0  0  0  0  0  0  0  0  0  0
   12.6769   -6.8606    0.0000 C   0  0  0  0  0  0  0  0  0  0  0  0
   11.6162   -5.8000    0.0000 C   0  0  0  0  0  0  0  0  0  0  0  0
   10.4672   -4.8358    0.0000 C   0  0  0  0  0  0  0  0  0  0  0  0
    9.2384   -3.9754    0.0000 C   0  0  0  0  0  0  0  0  0  0  0  0
    7.9394   -3.2254    0.0000 C   0  0  0  0  0  0  0  0  0  0  0  0
    6.5799   -2.5915    0.0000 C   0  0  0  0  0  0  0  0  0  0  0  0
    5.1704   -2.0785    0.0000 C   0  0  0  0  0  0  0  0  0  0  0  0
    3.7215   -1.6902    0.0000 C   0  0  0  0  0  0  0  0  0  0  0  0
    2.2443   -1.4298    0.0000 C   0  0  0  0  0  0  0  0  0  0  0  0
    0.7500   -1.2990    0.0000 C   0  0  0  0  0  0  0  0  0  0  0  0
    1.5000    0.0000    0.0000 C   0  0  0  0  0  0  0  0  0  0  0  0
    0.7500    1.2990    0.0000 C   0  0  0  0  0  0  0  0  0  0  0  0
   -0.7500    1.2990    0.0000 C   0  0  0  0  0  0  0  0  0  0  0  0
   -1.5000    0.0000    0.0000 C   0  0  0  0  0  0  0  0  0  0  0  0
   -0.7500   -1.2990    0.0000 C   0  0  0  0  0  0  0  0  0  0  0  0
  1  2  1  0
  2  3  1  0
  3  4  1  0
  4  5  1  0
  5  6  1  0
  6  7  1  0
  7  8  1  0
  8  9  1  0
  9 10  1  0
 10 11  1  0
 11 12  1  0
 12 13  1  0
 13 14  1  0
 14 15  1  0
 15 16  1  0
 16 17  1  0
 17 18  1  0
 18 19  1  0
 19 20  1  0
 20 21  1  0
 21 22  1  0
 22 23  1  0
 23 24  1  0
 24 25  1  0
 25 26  1  0
 26 27  1  0
 27 28  1  0
 28 29  1  0
 29 30  1  0
 30 31  1  0
 31 32  1  0
 32 33  1  0
 33 34  1  0
 34 35  1  0
 35 36  1  0
 36 37  1  0
 37 38  1  0
 38 39  1  0
 39 40  1  0
 40 41  1  0
 41 42  1  0
 42 43  1  0
 43 44  1  0
 44 45  1  0
 45 46  1  0
 46 47  1  0
 47 48  1  0
 48 49  1  0
 49 50  1  0
 50 51  1  0
 51 52  1  0
 52 53  1  0
 53 54  1  0
 54 55  1  0
 55 56  1  0
 56 57  1  0
 57 58  1  0
 58 59  1  0
 59 60  1  0
 60 61  1  0
 61 62  1  0
 62 63  1  0
 63 64  1  0
 64 65  1  0
 65 66  1  0
 66 67  1  0
 67 68  1  0
 68 69  1  0
 69 70  1  0
 70 71  1  0
 71 72  1  0
 72 73  1  0
 73 74  1  0
 74 75  1  0
 75 76  1  0
 76 77  2  0
 77  2  1  0
 77 72  1  0
M  END
>  <Title>  (453) 
idAAPMgen10

$$$$

     RDKit          2D

 93 93  0  0  0  0  0  0  0  0999 V2000
   24.7290   -0.0000    0.0000 N   0  0  0  0  0  0  0  0  0  0  0  0
   23.2290   -0.0000    0.0000 C   0  0  0  0  0  0  0  0  0  0  0  0
   21.7290    0.0000    0.0000 C   0  0  0  0  0  0  0  0  0  0  0  0
   21.6772    1.4991    0.0000 C   0  0  0  0  0  0  0  0  0  0  0  0
   21.5221    2.9911    0.0000 C   0  0  0  0  0  0  0  0  0  0  0  0
   21.2645    4.4688    0.0000 C   0  0  0  0  0  0  0  0  0  0  0  0
   20.9055    5.9252    0.0000 C   0  0  0  0  0  0  0  0  0  0  0  0
   20.4469    7.3534    0.0000 C   0  0  0  0  0  0  0  0  0  0  0  0
   19.8909    8.7465    0.0000 C   0  0  0  0  0  0  0  0  0  0  0  0
   19.2400   10.0980    0.0000 C   0  0  0  0  0  0  0  0  0  0  0  0
   18.4975   11.4013    0.0000 C   0  0  0  0  0  0  0  0  0  0  0  0
   17.6669   12.6503    0.0000 C   0  0  0  0  0  0  0  0  0  0  0  0
   16.7520   13.8390    0.0000 C   0  0  0  0  0  0  0  0  0  0  0  0
   15.7573   14.9618    0.0000 C   0  0  0  0  0  0  0  0  0  0  0  0
   14.6876   16.0132    0.0000 C   0  0  0  0  0  0  0  0  0  0  0  0
   13.5478   16.9884    0.0000 C   0  0  0  0  0  0  0  0  0  0  0  0
   12.3435   17.8826    0.0000 C   0  0  0  0  0  0  0  0  0  0  0  0
   11.0803   18.6916    0.0000 C   0  0  0  0  0  0  0  0  0  0  0  0
    9.7644   19.4115    0.0000 C   0  0  0  0  0  0  0  0  0  0  0  0
    8.4019   20.0389    0.0000 C   0  0  0  0  0  0  0  0  0  0  0  0
    6.9993   20.5708    0.0000 C   0  0  0  0  0  0  0  0  0  0  0  0
    5.5635   21.0047    0.0000 C   0  0  0  0  0  0  0  0  0  0  0  0
    4.1011   21.3384    0.0000 C   0  0  0  0  0  0  0  0  0  0  0  0
    2.6191   21.5705    0.0000 C   0  0  0  0  0  0  0  0  0  0  0  0
    1.1247   21.6998    0.0000 C   0  0  0  0  0  0  0  0  0  0  0  0
   -0.3751   21.7257    0.0000 C   0  0  0  0  0  0  0  0  0  0  0  0
   -1.8730   21.6481    0.0000 C   0  0  0  0  0  0  0  0  0  0  0  0
   -3.3621   21.4673    0.0000 C   0  0  0  0  0  0  0  0  0  0  0  0
   -4.8351   21.1842    0.0000 C   0  0  0  0  0  0  0  0  0  0  0  0
   -6.2851   20.8001    0.0000 C   0  0  0  0  0  0  0  0  0  0  0  0
   -7.7052   20.3169    0.0000 C   0  0  0  0  0  0  0  0  0  0  0  0
   -9.0885   19.7369    0.0000 C   0  0  0  0  0  0  0  0  0  0  0  0
  -10.4285   19.0629    0.0000 C   0  0  0  0  0  0  0  0  0  0  0  0
  -11.7189   18.2980    0.0000 C   0  0  0  0  0  0  0  0  0  0  0  0
  -12.9533   17.4459    0.0000 C   0  0  0  0  0  0  0  0  0  0  0  0
  -14.1261   16.5106    0.0000 C   0  0  0  0  0  0  0  0  0  0  0  0
  -15.2315   15.4967    0.0000 C   0  0  0  0  0  0  0  0  0  0  0  0
  -16.2644   14.4090    0.0000 C   0  0  0  0  0  0  0  0  0  0  0  0
  -17.2197   13.2525    0.0000 C   0  0  0  0  0  0  0  0  0  0  0  0
  -18.0930   12.0330    0.0000 C   0  0  0  0  0  0  0  0  0  0  0  0
  -18.8800   10.7560    0.0000 C   0  0  0  0  0  0  0  0  0  0  0  0
  -19.5771    9.4278    0.0000 C   0  0  0  0  0  0  0  0  0  0  0  0
  -20.1809    8.0547    0.0000 C   0  0  0  0  0  0  0  0  0  0  0  0
  -20.6885    6.6432    0.0000 C   0  0  0  0  0  0  0  0  0  0  0  0
  -21.0976    5.2001    0.0000 C   0  0  0  0  0  0  0  0  0  0  0  0
  -21.4061    3.7321    0.0000 C   0  0  0  0  0  0  0  0  0  0  0  0
  -21.6125    2.2464    0.0000 C   0  0  0  0  0  0  0  0  0  0  0  0
  -21.7160    0.7500    0.0000 C   0  0  0  0  0  0  0  0  0  0  0  0
  -21.7160   -0.7500    0.0000 C   0  0  0  0  0  0  0  0  0  0  0  0
  -21.6125   -2.2464    0.0000 C   0  0  0  0  0  0  0  0  0  0  0  0
  -21.4061   -3.7321    0.0000 C   0  0  0  0  0  0  0  0  0  0  0  0
  -21.0976   -5.2001    0.0000 C   0  0  0  0  0  0  0  0  0  0  0  0
  -20.6885   -6.6432    0.0000 C   0  0  0  0  0  0  0  0  0  0  0  0
  -20.1809   -8.0547    0.0000 C   0  0  0  0  0  0  0  0  0  0  0  0
  -19.5771   -9.4278    0.0000 C   0  0  0  0  0  0  0  0  0  0  0  0
  -18.8800  -10.7560    0.0000 C   0  0  0  0  0  0  0  0  0  0  0  0
  -18.0930  -12.0330    0.0000 C   0  0  0  0  0  0  0  0  0  0  0  0
  -17.2197  -13.2525    0.0000 C   0  0  0  0  0  0  0  0  0  0  0  0
  -16.2644  -14.4090    0.0000 C   0  0  0  0  0  0  0  0  0  0  0  0
  -15.2315  -15.4967    0.0000 C   0  0  0  0  0  0  0  0  0  0  0  0
  -14.1261  -16.5106    0.0000 C   0  0  0  0  0  0  0  0  0  0  0  0
  -12.9533  -17.4459    0.0000 C   0  0  0  0  0  0  0  0  0  0  0  0
  -11.7189  -18.2980    0.0000 C   0  0  0  0  0  0  0  0  0  0  0  0
  -10.4285  -19.0629    0.0000 C   0  0  0  0  0  0  0  0  0  0  0  0
   -9.0885  -19.7369    0.0000 C   0  0  0  0  0  0  0  0  0  0  0  0
   -7.7052  -20.3169    0.0000 C   0  0  0  0  0  0  0  0  0  0  0  0
   -6.2851  -20.8001    0.0000 C   0  0  0  0  0  0  0  0  0  0  0  0
   -4.8351  -21.1842    0.0000 C   0  0  0  0  0  0  0  0  0  0  0  0
   -3.3621  -21.4673    0.0000 C   0  0  0  0  0  0  0  0  0  0  0  0
   -1.8730  -21.6481    0.0000 C   0  0  0  0  0  0  0  0  0  0  0  0
   -0.3751  -21.7257    0.0000 C   0  0  0  0  0  0  0  0  0  0  0  0
    1.1247  -21.6998    0.0000 C   0  0  0  0  0  0  0  0  0  0  0  0
    2.6191  -21.5705    0.0000 C   0  0  0  0  0  0  0  0  0  0  0  0
    4.1011  -21.3384    0.0000 C   0  0  0  0  0  0  0  0  0  0  0  0
    5.5635  -21.0047    0.0000 C   0  0  0  0  0  0  0  0  0  0  0  0
    6.9993  -20.5708    0.0000 C   0  0  0  0  0  0  0  0  0  0  0  0
    8.4019  -20.0389    0.0000 C   0  0  0  0  0  0  0  0  0  0  0  0
    9.7644  -19.4115    0.0000 C   0  0  0  0  0  0  0  0  0  0  0  0
   11.0803  -18.6916    0.0000 C   0  0  0  0  0  0  0  0  0  0  0  0
   12.3435  -17.8826    0.0000 C   0  0  0  0  0  0  0  0  0  0  0  0
   13.5478  -16.9884    0.0000 C   0  0  0  0  0  0  0  0  0  0  0  0
   14.6876  -16.0132    0.0000 C   0  0  0  0  0  0  0  0  0  0  0  0
   15.7573  -14.9618    0.0000 C   0  0  0  0  0  0  0  0  0  0  0  0
   16.7520  -13.8390    0.0000 C   0  0  0  0  0  0  0  0  0  0  0  0
   17.6669  -12.6503    0.0000 C   0  0  0  0  0  0  0  0  0  0  0  0
   18.4975  -11.4013    0.0000 C   0  0  0  0  0  0  0  0  0  0  0  0
   19.2400  -10.0980    0.0000 C   0  0  0  0  0  0  0  0  0  0  0  0
   19.8909   -8.7465    0.0000 C   0  0  0  0  0  0  0  0  0  0  0  0
   20.4469   -7.3534    0.0000 C   0  0  0  0  0  0  0  0  0  0  0  0
   20.9055   -5.9252    0.0000 C   0  0  0  0  0  0  0  0  0  0  0  0
   21.2645   -4.4688    0.0000 C   0  0  0  0  0  0  0  0  0  0  0  0
   21.5221   -2.9911    0.0000 C   0  0  0  0  0  0  0  0  0  0  0  0
   21.6772   -1.4991    0.0000 C   0  0  0  0  0  0  0  0  0  0  0  0
  1  2  3  0
  2  3  1  0
  3  4  1  0
  4  5  2  0
  5  6  1  0
  6  7  2  0
  7  8  1  0
  8  9  2  0
  9 10  1  0
 10 11  2  0
 11 12  1  0
 12 13  1  0
 13 14  1  0
 14 15  1  0
 15 16  1  0
 16 17  1  0
 17 18  1  0
 18 19  1  0
 19 20  1  0
 20 21  1  0
 21 22  1  0
 22 23  1  0
 23 24  1  0
 24 25  1  0
 25 26  1  0
 26 27  1  0
 27 28  1  0
 28 29  1  0
 29 30  1  0
 30 31  1  0
 31 32  1  0
 32 33  1  0
 33 34  1  0
 34 35  1  0
 35 36  1  0
 36 37  1  0
 37 38  1  0
 38 39  1  0
 39 40  1  0
 40 41  1  0
 41 42  1  0
 42 43  1  0
 43 44  1  0
 44 45  1  0
 45 46  1  0
 46 47  1  0
 47 48  1  0
 48 49  1  0
 49 50  1  0
 50 51  1  0
 51 52  1  0
 52 53  1  0
 53 54  1  0
 54 55  1  0
 55 56  1  0
 56 57  1  0
 57 58  1  0
 58 59  1  0
 59 60  1  0
 60 61  1  0
 61 62  1  0
 62 63  1  0
 63 64  1  0
 64 65  1  0
 65 66  1  0
 66 67  1  0
 67 68  1  0
 68 69  1  0
 69 70  1  0
 70 71  1  0
 71 72  1  0
 72 73  1  0
 73 74  1  0
 74 75  1  0
 75 76  1  0
 76 77  1  0
 77 78  1  0
 78 79  1  0
 79 80  1  0
 80 81  1  0
 81 82  1  0
 82 83  1  0
 83 84  1  0
 84 85  1  0
 85 86  1  0
 86 87  1  0
 87 88  1  0
 88 89  1  0
 89 90  1  0
 90 91  1  0
 91 92  1  0
 92 93  1  0
 93  3  1  0
M  END
>  <Title>  (454) 
idAAPNgen10

$$$$

     RDKit          2D

 56 64  0  0  0  0  0  0  0  0999 V2000
    5.8191   -5.5525    0.0000 C   0  0  0  0  0  0  0  0  0  0  0  0
    4.3191   -5.5525    0.0000 C   0  0  0  0  0  0  0  0  0  0  0  0
    4.0586   -4.0753    0.0000 C   0  0  0  0  0  0  0  0  0  0  0  0
    3.3086   -2.7762    0.0000 C   0  0  0  0  0  0  0  0  0  0  0  0
    2.1595   -1.8121    0.0000 C   0  0  0  0  0  0  0  0  0  0  0  0
    2.9095   -0.5130    0.0000 C   0  0  0  0  0  0  0  0  0  0  0  0
    2.1595    0.7860    0.0000 O   0  0  0  0  0  0  0  0  0  0  0  0
    4.4095   -0.5130    0.0000 O   0  0  0  0  0  0  0  0  0  0  0  0
    5.1595    0.7860    0.0000 C   0  0  0  0  0  0  0  0  0  0  0  0
    6.6595    0.7860    0.0000 N   0  0  0  0  0  0  0  0  0  0  0  0
    7.4095    2.0850    0.0000 N   0  0  0  0  0  0  0  0  0  0  0  0
    6.6595    3.3841    0.0000 N   0  0  0  0  0  0  0  0  0  0  0  0
    5.1595    3.3841    0.0000 N   0  0  0  0  0  0  0  0  0  0  0  0
    4.4095    2.0850    0.0000 N   0  0  0  0  0  0  0  0  0  0  0  0
    0.7500   -1.2990    0.0000 C   0  0  0  0  0  0  0  0  0  0  0  0
    1.5000    0.0000    0.0000 C   0  0  0  0  0  0  0  0  0  0  0  0
    0.7500    1.2990    0.0000 C   0  0  0  0  0  0  0  0  0  0  0  0
   -0.7500    1.2990    0.0000 C   0  0  0  0  0  0  0  0  0  0  0  0
   -1.5000    0.0000    0.0000 C   0  0  0  0  0  0  0  0  0  0  0  0
   -0.7500   -1.2990    0.0000 C   0  0  0  0  0  0  0  0  0  0  0  0
   -2.1595   -1.8121    0.0000 C   0  0  0  0  0  0  0  0  0  0  0  0
   -2.4200   -0.3349    0.0000 C   0  0  0  0  0  0  0  0  0  0  0  0
   -3.8296    0.1782    0.0000 C   0  0  0  0  0  0  0  0  0  0  0  0
   -4.9786   -0.7860    0.0000 C   0  0  0  0  0  0  0  0  0  0  0  0
   -4.7181   -2.2632    0.0000 C   0  0  0  0  0  0  0  0  0  0  0  0
   -3.3086   -2.7762    0.0000 C   0  0  0  0  0  0  0  0  0  0  0  0
   -4.0586   -4.0753    0.0000 C   0  0  0  0  0  0  0  0  0  0  0  0
   -5.2077   -3.1111    0.0000 C   0  0  0  0  0  0  0  0  0  0  0  0
   -6.6172   -3.6241    0.0000 C   0  0  0  0  0  0  0  0  0  0  0  0
   -6.8777   -5.1013    0.0000 C   0  0  0  0  0  0  0  0  0  0  0  0
   -5.7286   -6.0655    0.0000 C   0  0  0  0  0  0  0  0  0  0  0  0
   -4.3191   -5.5525    0.0000 C   0  0  0  0  0  0  0  0  0  0  0  0
   -4.0586   -7.0297    0.0000 C   0  0  0  0  0  0  0  0  0  0  0  0
   -5.5586   -7.0297    0.0000 C   0  0  0  0  0  0  0  0  0  0  0  0
   -6.3086   -8.3287    0.0000 C   0  0  0  0  0  0  0  0  0  0  0  0
   -5.5586   -9.6278    0.0000 C   0  0  0  0  0  0  0  0  0  0  0  0
   -4.0586   -9.6278    0.0000 C   0  0  0  0  0  0  0  0  0  0  0  0
   -3.3086   -8.3287    0.0000 C   0  0  0  0  0  0  0  0  0  0  0  0
   -2.1595   -9.2929    0.0000 C   0  0  0  0  0  0  0  0  0  0  0  0
   -3.3086  -10.2571    0.0000 C   0  0  0  0  0  0  0  0  0  0  0  0
   -3.0481  -11.7343    0.0000 C   0  0  0  0  0  0  0  0  0  0  0  0
   -1.6386  -12.2474    0.0000 C   0  0  0  0  0  0  0  0  0  0  0  0
   -0.4895  -11.2832    0.0000 C   0  0  0  0  0  0  0  0  0  0  0  0
   -0.7500   -9.8060    0.0000 C   0  0  0  0  0  0  0  0  0  0  0  0
    0.7500   -9.8060    0.0000 C   0  0  0  0  0  0  0  0  0  0  0  0
    0.4895  -11.2832    0.0000 C   0  0  0  0  0  0  0  0  0  0  0  0
    1.6386  -12.2474    0.0000 C   0  0  0  0  0  0  0  0  0  0  0  0
    3.0481  -11.7343    0.0000 C   0  0  0  0  0  0  0  0  0  0  0  0
    3.3086  -10.2571    0.0000 C   0  0  0  0  0  0  0  0  0  0  0  0
    2.1595   -9.2929    0.0000 C   0  0  0  0  0  0  0  0  0  0  0  0
    3.3086   -8.3287    0.0000 C   0  0  0  0  0  0  0  0  0  0  0  0
    4.0586   -9.6278    0.0000 C   0  0  0  0  0  0  0  0  0  0  0  0
    5.5586   -9.6278    0.0000 C   0  0  0  0  0  0  0  0  0  0  0  0
    6.3086   -8.3287    0.0000 C   0  0  0  0  0  0  0  0  0  0  0  0
    5.5586   -7.0297    0.0000 C   0  0  0  0  0  0  0  0  0  0  0  0
    4.0586   -7.0297    0.0000 C   0  0  0  0  0  0  0  0  0  0  0  0
  1  2  1  0
  2  3  1  0
  3  4  2  0
  4  5  1  0
  5  6  1  0
  6  7  2  0
  6  8  1  0
  8  9  1  0
  9 10  2  0
 10 11  1  0
 11 12  2  0
 12 13  1  0
 13 14  2  0
  5 15  1  0
 15 16  2  0
 16 17  1  0
 17 18  2  0
 18 19  1  0
 19 20  2  0
 20 21  1  0
 21 22  2  0
 22 23  1  0
 23 24  2  0
 24 25  1  0
 25 26  2  0
 26 27  1  0
 27 28  2  0
 28 29  1  0
 29 30  2  0
 30 31  1  0
 31 32  2  0
 32 33  1  0
 33 34  2  0
 34 35  1  0
 35 36  2  0
 36 37  1  0
 37 38  2  0
 38 39  1  0
 39 40  2  0
 40 41  1  0
 41 42  2  0
 42 43  1  0
 43 44  2  0
 44 45  1  0
 45 46  2  0
 46 47  1  0
 47 48  2  0
 48 49  1  0
 49 50  2  0
 50 51  1  0
 51 52  2  0
 52 53  1  0
 53 54  2  0
 54 55  1  0
 55 56  2  0
 56  2  1  0
 14  9  1  0
 20 15  1  0
 26 21  1  0
 32 27  1  0
 38 33  1  0
 44 39  1  0
 50 45  1  0
 56 51  1  0
M  END
>  <Title>  (455) 
idAAPOgen10

$$$$

     RDKit          2D

 10  9  0  0  0  0  0  0  0  0999 V2000
    0.0000    0.0000    0.0000 C   0  0  0  0  0  0  0  0  0  0  0  0
   -0.0000   -1.5000    0.0000 C   0  0  0  0  0  0  0  0  0  0  0  0
   -0.0000   -3.0000    0.0000 C   0  0  0  0  0  0  0  0  0  0  0  0
   -0.0000   -4.5000    0.0000 C   0  0  0  0  0  0  0  0  0  0  0  0
   -0.0000   -6.0000    0.0000 C   0  0  0  0  0  0  0  0  0  0  0  0
    1.2990   -6.7500    0.0000 C   0  0  0  0  0  0  0  0  0  0  0  0
    1.2990   -8.2500    0.0000 C   0  0  0  0  0  0  0  0  0  0  0  0
    2.5981   -9.0000    0.0000 C   0  0  0  0  0  0  0  0  0  0  0  0
    2.5981  -10.5000    0.0000 C   0  0  0  0  0  0  0  0  0  0  0  0
    3.8971  -11.2500    0.0000 C   0  0  0  0  0  0  0  0  0  0  0  0
  1  2  3  0
  2  3  1  0
  3  4  3  0
  4  5  1  0
  5  6  1  0
  6  7  1  0
  7  8  1  0
  8  9  2  3
  9 10  1  0
M  END
>  <Title>  (456) 
idAAPPgen10

$$$$

     RDKit          2D

 84 84  0  0  0  0  0  0  0  0999 V2000
   21.3195    0.0000    0.0000 C   0  0  0  0  0  0  0  0  0  0  0  0
   19.8195    0.0000    0.0000 C   0  0  0  0  0  0  0  0  0  0  0  0
   19.7628    1.4989    0.0000 C   0  0  0  0  0  0  0  0  0  0  0  0
   19.5928    2.9893    0.0000 C   0  0  0  0  0  0  0  0  0  0  0  0
   19.3106    4.4625    0.0000 C   0  0  0  0  0  0  0  0  0  0  0  0
   18.9178    5.9101    0.0000 C   0  0  0  0  0  0  0  0  0  0  0  0
   18.4167    7.3239    0.0000 C   0  0  0  0  0  0  0  0  0  0  0  0
   17.8100    8.6958    0.0000 C   0  0  0  0  0  0  0  0  0  0  0  0
   17.1014   10.0178    0.0000 C   0  0  0  0  0  0  0  0  0  0  0  0
   16.2947   11.2825    0.0000 C   0  0  0  0  0  0  0  0  0  0  0  0
   15.3948   12.4825    0.0000 C   0  0  0  0  0  0  0  0  0  0  0  0
   14.4067   13.6111    0.0000 C   0  0  0  0  0  0  0  0  0  0  0  0
   13.3360   14.6617    0.0000 C   0  0  0  0  0  0  0  0  0  0  0  0
   12.1890   15.6283    0.0000 C   0  0  0  0  0  0  0  0  0  0  0  0
   10.9721   16.5053    0.0000 C   0  0  0  0  0  0  0  0  0  0  0  0
    9.6924   17.2879    0.0000 C   0  0  0  0  0  0  0  0  0  0  0  0
    8.3572   17.9714    0.0000 C   0  0  0  0  0  0  0  0  0  0  0  0
    6.9741   18.5520    0.0000 C   0  0  0  0  0  0  0  0  0  0  0  0
    5.5511   19.0263    0.0000 C   0  0  0  0  0  0  0  0  0  0  0  0
    4.0962   19.3916    0.0000 C   0  0  0  0  0  0  0  0  0  0  0  0
    2.6180   19.6459    0.0000 C   0  0  0  0  0  0  0  0  0  0  0  0
    1.1247   19.7876    0.0000 C   0  0  0  0  0  0  0  0  0  0  0  0
   -0.3751   19.8160    0.0000 C   0  0  0  0  0  0  0  0  0  0  0  0
   -1.8727   19.7309    0.0000 C   0  0  0  0  0  0  0  0  0  0  0  0
   -3.3595   19.5327    0.0000 C   0  0  0  0  0  0  0  0  0  0  0  0
   -4.8271   19.2227    0.0000 C   0  0  0  0  0  0  0  0  0  0  0  0
   -6.2671   18.8026    0.0000 C   0  0  0  0  0  0  0  0  0  0  0  0
   -7.6712   18.2748    0.0000 C   0  0  0  0  0  0  0  0  0  0  0  0
   -9.0313   17.6423    0.0000 C   0  0  0  0  0  0  0  0  0  0  0  0
  -10.3397   16.9087    0.0000 C   0  0  0  0  0  0  0  0  0  0  0  0
  -11.5888   16.0783    0.0000 C   0  0  0  0  0  0  0  0  0  0  0  0
  -12.7716   15.1558    0.0000 C   0  0  0  0  0  0  0  0  0  0  0  0
  -13.8813   14.1465    0.0000 C   0  0  0  0  0  0  0  0  0  0  0  0
  -14.9114   13.0562    0.0000 C   0  0  0  0  0  0  0  0  0  0  0  0
  -15.8561   11.8910    0.0000 C   0  0  0  0  0  0  0  0  0  0  0  0
  -16.7100   10.6578    0.0000 C   0  0  0  0  0  0  0  0  0  0  0  0
  -17.4682    9.3635    0.0000 C   0  0  0  0  0  0  0  0  0  0  0  0
  -18.1263    8.0156    0.0000 C   0  0  0  0  0  0  0  0  0  0  0  0
  -18.6806    6.6218    0.0000 C   0  0  0  0  0  0  0  0  0  0  0  0
  -19.1279    5.1900    0.0000 C   0  0  0  0  0  0  0  0  0  0  0  0
  -19.4656    3.7285    0.0000 C   0  0  0  0  0  0  0  0  0  0  0  0
  -19.6919    2.2457    0.0000 C   0  0  0  0  0  0  0  0  0  0  0  0
  -19.8053    0.7500    0.0000 C   0  0  0  0  0  0  0  0  0  0  0  0
  -19.8053   -0.7500    0.0000 C   0  0  0  0  0  0  0  0  0  0  0  0
  -19.6919   -2.2457    0.0000 C   0  0  0  0  0  0  0  0  0  0  0  0
  -19.4656   -3.7285    0.0000 C   0  0  0  0  0  0  0  0  0  0  0  0
  -19.1279   -5.1900    0.0000 C   0  0  0  0  0  0  0  0  0  0  0  0
  -18.6806   -6.6218    0.0000 C   0  0  0  0  0  0  0  0  0  0  0  0
  -18.1263   -8.0156    0.0000 C   0  0  0  0  0  0  0  0  0  0  0  0
  -17.4682   -9.3635    0.0000 C   0  0  0  0  0  0  0  0  0  0  0  0
  -16.7100  -10.6578    0.0000 C   0  0  0  0  0  0  0  0  0  0  0  0
  -15.8561  -11.8910    0.0000 C   0  0  0  0  0  0  0  0  0  0  0  0
  -14.9114  -13.0562    0.0000 C   0  0  0  0  0  0  0  0  0  0  0  0
  -13.8813  -14.1465    0.0000 C   0  0  0  0  0  0  0  0  0  0  0  0
  -12.7716  -15.1558    0.0000 C   0  0  0  0  0  0  0  0  0  0  0  0
  -11.5888  -16.0783    0.0000 C   0  0  0  0  0  0  0  0  0  0  0  0
  -10.3397  -16.9087    0.0000 C   0  0  0  0  0  0  0  0  0  0  0  0
   -9.0313  -17.6423    0.0000 C   0  0  0  0  0  0  0  0  0  0  0  0
   -7.6712  -18.2748    0.0000 C   0  0  0  0  0  0  0  0  0  0  0  0
   -6.2671  -18.8026    0.0000 C   0  0  0  0  0  0  0  0  0  0  0  0
   -4.8271  -19.2227    0.0000 C   0  0  0  0  0  0  0  0  0  0  0  0
   -3.3595  -19.5327    0.0000 C   0  0  0  0  0  0  0  0  0  0  0  0
   -1.8727  -19.7309    0.0000 C   0  0  0  0  0  0  0  0  0  0  0  0
   -0.3751  -19.8160    0.0000 C   0  0  0  0  0  0  0  0  0  0  0  0
    1.1247  -19.7876    0.0000 C   0  0  0  0  0  0  0  0  0  0  0  0
    2.6180  -19.6459    0.0000 C   0  0  0  0  0  0  0  0  0  0  0  0
    4.0962  -19.3916    0.0000 C   0  0  0  0  0  0  0  0  0  0  0  0
    5.5511  -19.0263    0.0000 C   0  0  0  0  0  0  0  0  0  0  0  0
    6.9741  -18.5520    0.0000 C   0  0  0  0  0  0  0  0  0  0  0  0
    8.3572  -17.9714    0.0000 C   0  0  0  0  0  0  0  0  0  0  0  0
    9.6924  -17.2879    0.0000 C   0  0  0  0  0  0  0  0  0  0  0  0
   10.9721  -16.5053    0.0000 C   0  0  0  0  0  0  0  0  0  0  0  0
   12.1890  -15.6283    0.0000 C   0  0  0  0  0  0  0  0  0  0  0  0
   13.3360  -14.6617    0.0000 C   0  0  0  0  0  0  0  0  0  0  0  0
   14.4067  -13.6111    0.0000 C   0  0  0  0  0  0  0  0  0  0  0  0
   15.3948  -12.4825    0.0000 C   0  0  0  0  0  0  0  0  0  0  0  0
   16.2947  -11.2825    0.0000 C   0  0  0  0  0  0  0  0  0  0  0  0
   17.1014  -10.0178    0.0000 C   0  0  0  0  0  0  0  0  0  0  0  0
   17.8100   -8.6958    0.0000 C   0  0  0  0  0  0  0  0  0  0  0  0
   18.4167   -7.3239    0.0000 C   0  0  0  0  0  0  0  0  0  0  0  0
   18.9178   -5.9101    0.0000 C   0  0  0  0  0  0  0  0  0  0  0  0
   19.3106   -4.4625    0.0000 C   0  0  0  0  0  0  0  0  0  0  0  0
   19.5928   -2.9893    0.0000 C   0  0  0  0  0  0  0  0  0  0  0  0
   19.7628   -1.4989    0.0000 C   0  0  0  0  0  0  0  0  0  0  0  0
  1  2  1  0
  2  3  1  0
  3  4  1  0
  4  5  1  0
  5  6  1  0
  6  7  1  0
  7  8  1  0
  8  9  1  0
  9 10  1  0
 10 11  1  0
 11 12  1  0
 12 13  1  0
 13 14  1  0
 14 15  1  0
 15 16  1  0
 16 17  1  0
 17 18  1  0
 18 19  1  0
 19 20  1  0
 20 21  1  0
 21 22  1  0
 22 23  1  0
 23 24  1  0
 24 25  1  0
 25 26  1  0
 26 27  1  0
 27 28  1  0
 28 29  1  0
 29 30  1  0
 30 31  1  0
 31 32  1  0
 32 33  1  0
 33 34  1  0
 34 35  1  0
 35 36  1  0
 36 37  1  0
 37 38  1  0
 38 39  1  0
 39 40  1  0
 40 41  1  0
 41 42  1  0
 42 43  1  0
 43 44  1  0
 44 45  1  0
 45 46  1  0
 46 47  1  0
 47 48  1  0
 48 49  1  0
 49 50  1  0
 50 51  1  0
 51 52  1  0
 52 53  1  0
 53 54  1  0
 54 55  1  0
 55 56  1  0
 56 57  1  0
 57 58  1  0
 58 59  1  0
 59 60  1  0
 60 61  1  0
 61 62  1  0
 62 63  1  0
 63 64  1  0
 64 65  1  0
 65 66  1  0
 66 67  1  0
 67 68  1  0
 68 69  1  0
 69 70  1  0
 70 71  1  0
 71 72  1  0
 72 73  1  0
 73 74  1  0
 74 75  1  0
 75 76  1  0
 76 77  1  0
 77 78  1  0
 78 79  1  0
 79 80  1  0
 80 81  1  0
 81 82  1  0
 82 83  1  0
 83 84  1  0
 84  2  1  0
M  END
>  <Title>  (457) 
idAAPQgen10

$$$$

     RDKit          2D

 55 55  0  0  0  0  0  0  0  0999 V2000
   15.4216    0.0000    0.0000 C   0  0  0  0  0  0  0  0  0  0  0  0
   13.9216    0.0000    0.0000 C   0  0  0  0  0  0  0  0  0  0  0  0
   12.4216    0.0000    0.0000 C   0  0  0  0  0  0  0  0  0  0  0  0
   12.3311   -1.4973    0.0000 C   0  0  0  0  0  0  0  0  0  0  0  0
   12.0607   -2.9727    0.0000 C   0  0  0  0  0  0  0  0  0  0  0  0
   11.6144   -4.4048    0.0000 C   0  0  0  0  0  0  0  0  0  0  0  0
   10.9988   -5.7726    0.0000 C   0  0  0  0  0  0  0  0  0  0  0  0
   10.2228   -7.0563    0.0000 C   0  0  0  0  0  0  0  0  0  0  0  0
    9.2977   -8.2371    0.0000 C   0  0  0  0  0  0  0  0  0  0  0  0
    8.2371   -9.2977    0.0000 C   0  0  0  0  0  0  0  0  0  0  0  0
    7.0563  -10.2228    0.0000 C   0  0  0  0  0  0  0  0  0  0  0  0
    5.7726  -10.9988    0.0000 C   0  0  0  0  0  0  0  0  0  0  0  0
    4.4048  -11.6144    0.0000 C   0  0  0  0  0  0  0  0  0  0  0  0
    2.9727  -12.0607    0.0000 C   0  0  0  0  0  0  0  0  0  0  0  0
    1.4973  -12.3311    0.0000 C   0  0  0  0  0  0  0  0  0  0  0  0
   -0.0000  -12.4216    0.0000 C   0  0  0  0  0  0  0  0  0  0  0  0
   -1.4973  -12.3311    0.0000 C   0  0  0  0  0  0  0  0  0  0  0  0
   -2.9727  -12.0607    0.0000 C   0  0  0  0  0  0  0  0  0  0  0  0
   -4.4048  -11.6144    0.0000 C   0  0  0  0  0  0  0  0  0  0  0  0
   -5.7726  -10.9988    0.0000 C   0  0  0  0  0  0  0  0  0  0  0  0
   -7.0563  -10.2228    0.0000 C   0  0  0  0  0  0  0  0  0  0  0  0
   -8.2371   -9.2977    0.0000 C   0  0  0  0  0  0  0  0  0  0  0  0
   -9.2977   -8.2371    0.0000 C   0  0  0  0  0  0  0  0  0  0  0  0
  -10.2228   -7.0563    0.0000 C   0  0  0  0  0  0  0  0  0  0  0  0
  -10.9988   -5.7726    0.0000 C   0  0  0  0  0  0  0  0  0  0  0  0
  -11.6144   -4.4048    0.0000 C   0  0  0  0  0  0  0  0  0  0  0  0
  -12.0607   -2.9727    0.0000 C   0  0  0  0  0  0  0  0  0  0  0  0
  -12.3311   -1.4973    0.0000 C   0  0  0  0  0  0  0  0  0  0  0  0
  -12.4216    0.0000    0.0000 C   0  0  0  0  0  0  0  0  0  0  0  0
  -12.3311    1.4973    0.0000 C   0  0  0  0  0  0  0  0  0  0  0  0
  -12.0607    2.9727    0.0000 C   0  0  0  0  0  0  0  0  0  0  0  0
  -11.6144    4.4048    0.0000 C   0  0  0  0  0  0  0  0  0  0  0  0
  -10.9988    5.7726    0.0000 C   0  0  0  0  0  0  0  0  0  0  0  0
  -10.2228    7.0563    0.0000 C   0  0  0  0  0  0  0  0  0  0  0  0
   -9.2977    8.2371    0.0000 C   0  0  0  0  0  0  0  0  0  0  0  0
   -8.2371    9.2977    0.0000 C   0  0  0  0  0  0  0  0  0  0  0  0
   -7.0563   10.2228    0.0000 C   0  0  0  0  0  0  0  0  0  0  0  0
   -5.7726   10.9988    0.0000 C   0  0  0  0  0  0  0  0  0  0  0  0
   -4.4048   11.6144    0.0000 C   0  0  0  0  0  0  0  0  0  0  0  0
   -2.9727   12.0607    0.0000 C   0  0  0  0  0  0  0  0  0  0  0  0
   -1.4973   12.3311    0.0000 C   0  0  0  0  0  0  0  0  0  0  0  0
    0.0000   12.4216    0.0000 C   0  0  0  0  0  0  0  0  0  0  0  0
    1.4973   12.3311    0.0000 C   0  0  0  0  0  0  0  0  0  0  0  0
    2.9727   12.0607    0.0000 C   0  0  0  0  0  0  0  0  0  0  0  0
    4.4048   11.6144    0.0000 C   0  0  0  0  0  0  0  0  0  0  0  0
    5.7726   10.9988    0.0000 C   0  0  0  0  0  0  0  0  0  0  0  0
    7.0563   10.2228    0.0000 C   0  0  0  0  0  0  0  0  0  0  0  0
    8.2371    9.2977    0.0000 C   0  0  0  0  0  0  0  0  0  0  0  0
    9.2977    8.2371    0.0000 C   0  0  0  0  0  0  0  0  0  0  0  0
   10.2228    7.0563    0.0000 C   0  0  0  0  0  0  0  0  0  0  0  0
   10.9988    5.7726    0.0000 C   0  0  0  0  0  0  0  0  0  0  0  0
   11.6144    4.4048    0.0000 C   0  0  0  0  0  0  0  0  0  0  0  0
   12.0607    2.9727    0.0000 C   0  0  0  0  0  0  0  0  0  0  0  0
   12.3311    1.4973    0.0000 C   0  0  0  0  0  0  0  0  0  0  0  0
   13.8201    1.6781    0.0000 C   0  0  0  0  0  0  0  0  0  0  0  0
  1  2  3  0
  2  3  1  0
  3  4  1  0
  4  5  1  0
  5  6  1  0
  6  7  1  0
  7  8  1  0
  8  9  1  0
  9 10  1  0
 10 11  1  0
 11 12  1  0
 12 13  1  0
 13 14  1  0
 14 15  1  0
 15 16  1  0
 16 17  1  0
 17 18  1  0
 18 19  1  0
 19 20  1  0
 20 21  1  0
 21 22  1  0
 22 23  1  0
 23 24  1  0
 24 25  1  0
 25 26  1  0
 26 27  1  0
 27 28  1  0
 28 29  1  0
 29 30  1  0
 30 31  1  0
 31 32  1  0
 32 33  1  0
 33 34  1  0
 34 35  1  0
 35 36  1  0
 36 37  1  0
 37 38  1  0
 38 39  1  0
 39 40  1  0
 40 41  1  0
 41 42  1  0
 42 43  1  0
 43 44  1  0
 44 45  1  0
 45 46  2  0
 46 47  1  0
 47 48  2  0
 48 49  1  0
 49 50  2  0
 50 51  1  0
 51 52  2  0
 52 53  1  0
 53 54  2  0
 54 55  1  0
 54  3  1  0
M  END
>  <Title>  (458) 
idAAPRgen10

$$$$

     RDKit          2D

 12 12  0  0  0  0  0  0  0  0999 V2000
    8.7760   -5.1962    0.0000 C   0  0  0  0  0  0  0  0  0  0  0  0
    8.0260   -3.8971    0.0000 C   0  0  0  0  0  0  0  0  0  0  0  0
    7.2760   -2.5981    0.0000 C   0  0  0  0  0  0  0  0  0  0  0  0
    6.5260   -1.2990    0.0000 C   0  0  0  0  0  0  0  0  0  0  0  0
    5.7760   -0.0000    0.0000 C   0  0  0  0  0  0  0  0  0  0  0  0
    4.2760   -0.0000    0.0000 C   0  0  0  0  0  0  0  0  0  0  0  0
    2.7760    0.0000    0.0000 C   0  0  0  0  0  0  0  0  0  0  0  0
    1.2760    0.0000    0.0000 C   0  0  0  0  0  0  0  0  0  0  0  0
    0.3943    1.2135    0.0000 C   0  0  0  0  0  0  0  0  0  0  0  0
   -1.0323    0.7500    0.0000 C   0  0  0  0  0  0  0  0  0  0  0  0
   -1.0323   -0.7500    0.0000 C   0  0  0  0  0  0  0  0  0  0  0  0
    0.3943   -1.2135    0.0000 C   0  0  0  0  0  0  0  0  0  0  0  0
  1  2  3  0
  2  3  1  0
  3  4  3  0
  4  5  1  0
  5  6  1  0
  6  7  3  0
  7  8  1  0
  8  9  2  0
  9 10  1  0
 10 11  1  0
 11 12  2  0
 12  8  1  0
M  END
>  <Title>  (459) 
idAAPSgen10

$$$$

     RDKit          2D

 10 10  0  0  0  0  0  0  0  0999 V2000
    7.0607    0.0000    0.0000 C   0  0  0  0  0  0  0  0  0  0  0  0
    5.5607    0.0000    0.0000 C   0  0  0  0  0  0  0  0  0  0  0  0
    4.0607    0.0000    0.0000 C   0  0  0  0  0  0  0  0  0  0  0  0
    2.5607    0.0000    0.0000 C   0  0  0  0  0  0  0  0  0  0  0  0
    1.0607    0.0000    0.0000 C   0  0  0  0  0  0  0  0  0  0  0  0
   -0.0000   -1.0607    0.0000 C   0  0  0  0  0  0  0  0  0  0  0  0
   -0.0000   -2.5607    0.0000 C   0  0  0  0  0  0  0  0  0  0  0  0
   -1.0607    0.0000    0.0000 C   0  0  0  0  0  0  0  0  0  0  0  0
   -2.5607    0.0000    0.0000 C   0  0  0  0  0  0  0  0  0  0  0  0
    0.0000    1.0607    0.0000 C   0  0  0  0  0  0  0  0  0  0  0  0
  1  2  3  0
  2  3  1  0
  3  4  3  0
  4  5  1  0
  5  6  2  0
  6  7  1  0
  6  8  1  0
  8  9  1  0
  8 10  1  0
 10  5  1  0
M  END
>  <Title>  (460) 
idAAPTgen10

$$$$

     RDKit          2D

117117  0  0  0  0  0  0  0  0999 V2000
   29.1963    0.0000    0.0000 C   0  0  0  0  0  0  0  0  0  0  0  0
   27.6963    0.0000    0.0000 C   0  0  0  0  0  0  0  0  0  0  0  0
   27.6557   -1.4994    0.0000 C   0  0  0  0  0  0  0  0  0  0  0  0
   27.5340   -2.9945    0.0000 C   0  0  0  0  0  0  0  0  0  0  0  0
   27.3315   -4.4808    0.0000 C   0  0  0  0  0  0  0  0  0  0  0  0
   27.0488   -5.9539    0.0000 C   0  0  0  0  0  0  0  0  0  0  0  0
   26.6868   -7.4096    0.0000 C   0  0  0  0  0  0  0  0  0  0  0  0
   26.2465   -8.8435    0.0000 C   0  0  0  0  0  0  0  0  0  0  0  0
   25.7293  -10.2515    0.0000 C   0  0  0  0  0  0  0  0  0  0  0  0
   25.1365  -11.6294    0.0000 C   0  0  0  0  0  0  0  0  0  0  0  0
   24.4701  -12.9732    0.0000 C   0  0  0  0  0  0  0  0  0  0  0  0
   23.7318  -14.2790    0.0000 C   0  0  0  0  0  0  0  0  0  0  0  0
   22.9240  -15.5428    0.0000 C   0  0  0  0  0  0  0  0  0  0  0  0
   22.0489  -16.7611    0.0000 C   0  0  0  0  0  0  0  0  0  0  0  0
   21.1091  -17.9302    0.0000 C   0  0  0  0  0  0  0  0  0  0  0  0
   20.1074  -19.0468    0.0000 C   0  0  0  0  0  0  0  0  0  0  0  0
   19.0468  -20.1074    0.0000 C   0  0  0  0  0  0  0  0  0  0  0  0
   17.9302  -21.1091    0.0000 C   0  0  0  0  0  0  0  0  0  0  0  0
   16.7611  -22.0489    0.0000 C   0  0  0  0  0  0  0  0  0  0  0  0
   15.5428  -22.9240    0.0000 C   0  0  0  0  0  0  0  0  0  0  0  0
   14.2790  -23.7318    0.0000 C   0  0  0  0  0  0  0  0  0  0  0  0
   12.9732  -24.4701    0.0000 C   0  0  0  0  0  0  0  0  0  0  0  0
   11.6294  -25.1365    0.0000 C   0  0  0  0  0  0  0  0  0  0  0  0
   10.2515  -25.7293    0.0000 C   0  0  0  0  0  0  0  0  0  0  0  0
    8.8435  -26.2465    0.0000 C   0  0  0  0  0  0  0  0  0  0  0  0
    7.4096  -26.6868    0.0000 C   0  0  0  0  0  0  0  0  0  0  0  0
    5.9539  -27.0488    0.0000 C   0  0  0  0  0  0  0  0  0  0  0  0
    4.4808  -27.3315    0.0000 C   0  0  0  0  0  0  0  0  0  0  0  0
    2.9945  -27.5340    0.0000 C   0  0  0  0  0  0  0  0  0  0  0  0
    1.4994  -27.6557    0.0000 C   0  0  0  0  0  0  0  0  0  0  0  0
   -0.0000  -27.6963    0.0000 C   0  0  0  0  0  0  0  0  0  0  0  0
   -1.4994  -27.6557    0.0000 C   0  0  0  0  0  0  0  0  0  0  0  0
   -2.9945  -27.5340    0.0000 C   0  0  0  0  0  0  0  0  0  0  0  0
   -4.4808  -27.3315    0.0000 C   0  0  0  0  0  0  0  0  0  0  0  0
   -5.9539  -27.0488    0.0000 C   0  0  0  0  0  0  0  0  0  0  0  0
   -7.4096  -26.6868    0.0000 C   0  0  0  0  0  0  0  0  0  0  0  0
   -8.8435  -26.2465    0.0000 C   0  0  0  0  0  0  0  0  0  0  0  0
  -10.2515  -25.7293    0.0000 C   0  0  0  0  0  0  0  0  0  0  0  0
  -11.6294  -25.1365    0.0000 C   0  0  0  0  0  0  0  0  0  0  0  0
  -12.9732  -24.4701    0.0000 C   0  0  0  0  0  0  0  0  0  0  0  0
  -14.2790  -23.7318    0.0000 C   0  0  0  0  0  0  0  0  0  0  0  0
  -15.5428  -22.9240    0.0000 C   0  0  0  0  0  0  0  0  0  0  0  0
  -16.7611  -22.0489    0.0000 C   0  0  0  0  0  0  0  0  0  0  0  0
  -17.9302  -21.1091    0.0000 C   0  0  0  0  0  0  0  0  0  0  0  0
  -19.0468  -20.1074    0.0000 C   0  0  0  0  0  0  0  0  0  0  0  0
  -20.1074  -19.0468    0.0000 C   0  0  0  0  0  0  0  0  0  0  0  0
  -21.1091  -17.9302    0.0000 C   0  0  0  0  0  0  0  0  0  0  0  0
  -22.0489  -16.7611    0.0000 C   0  0  0  0  0  0  0  0  0  0  0  0
  -22.9240  -15.5428    0.0000 C   0  0  0  0  0  0  0  0  0  0  0  0
  -23.7318  -14.2790    0.0000 C   0  0  0  0  0  0  0  0  0  0  0  0
  -24.4701  -12.9732    0.0000 C   0  0  0  0  0  0  0  0  0  0  0  0
  -25.1365  -11.6294    0.0000 C   0  0  0  0  0  0  0  0  0  0  0  0
  -25.7293  -10.2515    0.0000 C   0  0  0  0  0  0  0  0  0  0  0  0
  -26.2465   -8.8435    0.0000 C   0  0  0  0  0  0  0  0  0  0  0  0
  -26.6868   -7.4096    0.0000 C   0  0  0  0  0  0  0  0  0  0  0  0
  -27.0488   -5.9539    0.0000 C   0  0  0  0  0  0  0  0  0  0  0  0
  -27.3315   -4.4808    0.0000 C   0  0  0  0  0  0  0  0  0  0  0  0
  -27.5340   -2.9945    0.0000 C   0  0  0  0  0  0  0  0  0  0  0  0
  -27.6557   -1.4994    0.0000 C   0  0  0  0  0  0  0  0  0  0  0  0
  -27.6963    0.0000    0.0000 C   0  0  0  0  0  0  0  0  0  0  0  0
  -27.6557    1.4994    0.0000 C   0  0  0  0  0  0  0  0  0  0  0  0
  -27.5340    2.9945    0.0000 C   0  0  0  0  0  0  0  0  0  0  0  0
  -27.3315    4.4808    0.0000 C   0  0  0  0  0  0  0  0  0  0  0  0
  -27.0488    5.9539    0.0000 C   0  0  0  0  0  0  0  0  0  0  0  0
  -26.6868    7.4096    0.0000 C   0  0  0  0  0  0  0  0  0  0  0  0
  -26.2465    8.8435    0.0000 C   0  0  0  0  0  0  0  0  0  0  0  0
  -25.7293   10.2515    0.0000 C   0  0  0  0  0  0  0  0  0  0  0  0
  -25.1365   11.6294    0.0000 C   0  0  0  0  0  0  0  0  0  0  0  0
  -24.4701   12.9732    0.0000 C   0  0  0  0  0  0  0  0  0  0  0  0
  -23.7318   14.2790    0.0000 C   0  0  0  0  0  0  0  0  0  0  0  0
  -22.9240   15.5428    0.0000 C   0  0  0  0  0  0  0  0  0  0  0  0
  -22.0489   16.7611    0.0000 C   0  0  0  0  0  0  0  0  0  0  0  0
  -21.1091   17.9302    0.0000 C   0  0  0  0  0  0  0  0  0  0  0  0
  -20.1074   19.0468    0.0000 C   0  0  0  0  0  0  0  0  0  0  0  0
  -19.0468   20.1074    0.0000 C   0  0  0  0  0  0  0  0  0  0  0  0
  -17.9302   21.1091    0.0000 C   0  0  0  0  0  0  0  0  0  0  0  0
  -16.7611   22.0489    0.0000 C   0  0  0  0  0  0  0  0  0  0  0  0
  -15.5428   22.9240    0.0000 C   0  0  0  0  0  0  0  0  0  0  0  0
  -14.2790   23.7318    0.0000 C   0  0  0  0  0  0  0  0  0  0  0  0
  -12.9732   24.4701    0.0000 C   0  0  0  0  0  0  0  0  0  0  0  0
  -11.6294   25.1365    0.0000 C   0  0  0  0  0  0  0  0  0  0  0  0
  -10.2515   25.7293    0.0000 C   0  0  0  0  0  0  0  0  0  0  0  0
   -8.8435   26.2465    0.0000 C   0  0  0  0  0  0  0  0  0  0  0  0
   -7.4096   26.6868    0.0000 C   0  0  0  0  0  0  0  0  0  0  0  0
   -5.9539   27.0488    0.0000 C   0  0  0  0  0  0  0  0  0  0  0  0
   -4.4808   27.3315    0.0000 C   0  0  0  0  0  0  0  0  0  0  0  0
   -2.9945   27.5340    0.0000 C   0  0  0  0  0  0  0  0  0  0  0  0
   -1.4994   27.6557    0.0000 C   0  0  0  0  0  0  0  0  0  0  0  0
    0.0000   27.6963    0.0000 C   0  0  0  0  0  0  0  0  0  0  0  0
    1.4994   27.6557    0.0000 C   0  0  0  0  0  0  0  0  0  0  0  0
    2.9945   27.5340    0.0000 C   0  0  0  0  0  0  0  0  0  0  0  0
    4.4808   27.3315    0.0000 C   0  0  0  0  0  0  0  0  0  0  0  0
    5.9539   27.0488    0.0000 C   0  0  0  0  0  0  0  0  0  0  0  0
    7.4096   26.6868    0.0000 C   0  0  0  0  0  0  0  0  0  0  0  0
    8.8435   26.2465    0.0000 C   0  0  0  0  0  0  0  0  0  0  0  0
   10.2515   25.7293    0.0000 C   0  0  0  0  0  0  0  0  0  0  0  0
   11.6294   25.1365    0.0000 C   0  0  0  0  0  0  0  0  0  0  0  0
   12.9732   24.4701    0.0000 C   0  0  0  0  0  0  0  0  0  0  0  0
   14.2790   23.7318    0.0000 C   0  0  0  0  0  0  0  0  0  0  0  0
   15.5428   22.9240    0.0000 C   0  0  0  0  0  0  0  0  0  0  0  0
   16.7611   22.0489    0.0000 C   0  0  0  0  0  0  0  0  0  0  0  0
   17.9302   21.1091    0.0000 C   0  0  0  0  0  0  0  0  0  0  0  0
   19.0468   20.1074    0.0000 C   0  0  0  0  0  0  0  0  0  0  0  0
   20.1074   19.0468    0.0000 C   0  0  0  0  0  0  0  0  0  0  0  0
   21.1091   17.9302    0.0000 C   0  0  0  0  0  0  0  0  0  0  0  0
   22.0489   16.7611    0.0000 C   0  0  0  0  0  0  0  0  0  0  0  0
   22.9240   15.5428    0.0000 C   0  0  0  0  0  0  0  0  0  0  0  0
   23.7318   14.2790    0.0000 C   0  0  0  0  0  0  0  0  0  0  0  0
   24.4701   12.9732    0.0000 C   0  0  0  0  0  0  0  0  0  0  0  0
   25.1365   11.6294    0.0000 C   0  0  0  0  0  0  0  0  0  0  0  0
   25.7293   10.2515    0.0000 C   0  0  0  0  0  0  0  0  0  0  0  0
   26.2465    8.8435    0.0000 C   0  0  0  0  0  0  0  0  0  0  0  0
   26.6868    7.4096    0.0000 C   0  0  0  0  0  0  0  0  0  0  0  0
   27.0488    5.9539    0.0000 C   0  0  0  0  0  0  0  0  0  0  0  0
   27.3315    4.4808    0.0000 C   0  0  0  0  0  0  0  0  0  0  0  0
   27.5340    2.9945    0.0000 C   0  0  0  0  0  0  0  0  0  0  0  0
   27.6557    1.4994    0.0000 C   0  0  0  0  0  0  0  0  0  0  0  0
  1  2  1  0
  2  3  1  0
  3  4  2  0
  4  5  1  0
  5  6  2  0
  6  7  1  0
  7  8  2  0
  8  9  1  0
  9 10  2  0
 10 11  1  0
 11 12  1  0
 12 13  1  0
 13 14  1  0
 14 15  1  0
 15 16  1  0
 16 17  1  0
 17 18  1  0
 18 19  1  0
 19 20  1  0
 20 21  1  0
 21 22  1  0
 22 23  1  0
 23 24  1  0
 24 25  1  0
 25 26  1  0
 26 27  1  0
 27 28  1  0
 28 29  1  0
 29 30  1  0
 30 31  1  0
 31 32  1  0
 32 33  1  0
 33 34  1  0
 34 35  1  0
 35 36  1  0
 36 37  1  0
 37 38  1  0
 38 39  1  0
 39 40  1  0
 40 41  1  0
 41 42  1  0
 42 43  1  0
 43 44  1  0
 44 45  1  0
 45 46  1  0
 46 47  1  0
 47 48  1  0
 48 49  1  0
 49 50  1  0
 50 51  1  0
 51 52  1  0
 52 53  1  0
 53 54  1  0
 54 55  1  0
 55 56  1  0
 56 57  1  0
 57 58  1  0
 58 59  1  0
 59 60  1  0
 60 61  1  0
 61 62  1  0
 62 63  1  0
 63 64  1  0
 64 65  1  0
 65 66  1  0
 66 67  1  0
 67 68  1  0
 68 69  1  0
 69 70  1  0
 70 71  1  0
 71 72  1  0
 72 73  1  0
 73 74  1  0
 74 75  1  0
 75 76  1  0
 76 77  1  0
 77 78  1  0
 78 79  1  0
 79 80  1  0
 80 81  1  0
 81 82  1  0
 82 83  1  0
 83 84  1  0
 84 85  1  0
 85 86  1  0
 86 87  1  0
 87 88  1  0
 88 89  1  0
 89 90  1  0
 90 91  1  0
 91 92  1  0
 92 93  1  0
 93 94  1  0
 94 95  1  0
 95 96  1  0
 96 97  1  0
 97 98  1  0
 98 99  1  0
 99100  1  0
100101  1  0
101102  1  0
102103  1  0
103104  1  0
104105  1  0
105106  1  0
106107  1  0
107108  1  0
108109  1  0
109110  1  0
110111  1  0
111112  1  0
112113  1  0
113114  1  0
114115  1  0
115116  1  0
116117  1  0
117  2  1  0
M  END
>  <Title>  (461) 
idAAPUgen10

$$$$

     RDKit          2D

 18 20  0  0  0  0  0  0  0  0999 V2000
    3.5604    2.1172    0.0000 C   0  0  0  0  0  0  0  0  0  0  0  0
    2.0980    2.4510    0.0000 C   0  0  0  0  0  0  0  0  0  0  0  0
    1.6559    3.8844    0.0000 C   0  0  0  0  0  0  0  0  0  0  0  0
    0.1935    4.2182    0.0000 C   0  0  0  0  0  0  0  0  0  0  0  0
   -0.8268    3.1186    0.0000 C   0  0  0  0  0  0  0  0  0  0  0  0
   -0.3846    1.6852    0.0000 C   0  0  0  0  0  0  0  0  0  0  0  0
    1.0777    1.3515    0.0000 C   0  0  0  0  0  0  0  0  0  0  0  0
    1.7286    0.0000    0.0000 C   0  0  0  0  0  0  0  0  0  0  0  0
    1.0777   -1.3515    0.0000 C   0  0  0  0  0  0  0  0  0  0  0  0
   -0.3846   -1.6852    0.0000 C   0  0  0  0  0  0  0  0  0  0  0  0
   -1.5574   -0.7500    0.0000 C   0  0  0  0  0  0  0  0  0  0  0  0
   -1.5574    0.7500    0.0000 C   0  0  0  0  0  0  0  0  0  0  0  0
   -2.9088    1.4008    0.0000 C   0  0  0  0  0  0  0  0  0  0  0  0
   -3.0209    2.8966    0.0000 C   0  0  0  0  0  0  0  0  0  0  0  0
   -4.3724    3.5475    0.0000 C   0  0  0  0  0  0  0  0  0  0  0  0
   -5.6118    2.7025    0.0000 C   0  0  0  0  0  0  0  0  0  0  0  0
   -5.4997    1.2067    0.0000 C   0  0  0  0  0  0  0  0  0  0  0  0
   -4.1482    0.5558    0.0000 C   0  0  0  0  0  0  0  0  0  0  0  0
  1  2  1  0
  2  3  2  0
  3  4  1  0
  4  5  1  0
  5  6  2  0
  6  7  1  0
  7  8  2  0
  8  9  1  0
  9 10  2  0
 10 11  1  0
 11 12  2  0
 12 13  1  0
 13 14  2  0
 14 15  1  0
 15 16  2  0
 16 17  1  0
 17 18  2  0
  7  2  1  0
 18 13  1  0
 12  6  1  0
M  END
>  <Title>  (462) 
idAAPVgen10

$$$$

     RDKit          2D

 74 75  0  0  0  0  0  0  0  0999 V2000
   -3.7338   -2.7631    0.0000 C   0  0  0  0  0  0  0  0  0  0  0  0
   -3.8584   -1.2682    0.0000 C   0  0  0  0  0  0  0  0  0  0  0  0
   -3.9830    0.2266    0.0000 C   0  0  0  0  0  0  0  0  0  0  0  0
   -5.4820    0.1712    0.0000 C   0  0  0  0  0  0  0  0  0  0  0  0
   -6.9797    0.2543    0.0000 C   0  0  0  0  0  0  0  0  0  0  0  0
   -8.4633    0.4752    0.0000 C   0  0  0  0  0  0  0  0  0  0  0  0
   -9.9203    0.8321    0.0000 C   0  0  0  0  0  0  0  0  0  0  0  0
  -11.3380    1.3219    0.0000 C   0  0  0  0  0  0  0  0  0  0  0  0
  -12.7046    1.9405    0.0000 C   0  0  0  0  0  0  0  0  0  0  0  0
  -14.0082    2.6825    0.0000 C   0  0  0  0  0  0  0  0  0  0  0  0
  -15.2378    3.5416    0.0000 C   0  0  0  0  0  0  0  0  0  0  0  0
  -16.3829    4.5104    0.0000 C   0  0  0  0  0  0  0  0  0  0  0  0
  -17.4337    5.5809    0.0000 C   0  0  0  0  0  0  0  0  0  0  0  0
  -18.3813    6.7437    0.0000 C   0  0  0  0  0  0  0  0  0  0  0  0
  -19.2175    7.9889    0.0000 C   0  0  0  0  0  0  0  0  0  0  0  0
  -19.9353    9.3061    0.0000 C   0  0  0  0  0  0  0  0  0  0  0  0
  -20.5285   10.6838    0.0000 C   0  0  0  0  0  0  0  0  0  0  0  0
  -20.9920   12.1104    0.0000 C   0  0  0  0  0  0  0  0  0  0  0  0
  -21.3219   13.5737    0.0000 C   0  0  0  0  0  0  0  0  0  0  0  0
  -21.5154   15.0611    0.0000 C   0  0  0  0  0  0  0  0  0  0  0  0
  -21.5708   16.5601    0.0000 C   0  0  0  0  0  0  0  0  0  0  0  0
  -21.4877   18.0578    0.0000 C   0  0  0  0  0  0  0  0  0  0  0  0
  -21.2668   19.5414    0.0000 C   0  0  0  0  0  0  0  0  0  0  0  0
  -20.9099   20.9983    0.0000 C   0  0  0  0  0  0  0  0  0  0  0  0
  -20.4201   22.4161    0.0000 C   0  0  0  0  0  0  0  0  0  0  0  0
  -19.8015   23.7827    0.0000 C   0  0  0  0  0  0  0  0  0  0  0  0
  -19.0595   25.0863    0.0000 C   0  0  0  0  0  0  0  0  0  0  0  0
  -18.2004   26.3159    0.0000 C   0  0  0  0  0  0  0  0  0  0  0  0
  -17.2315   27.4610    0.0000 C   0  0  0  0  0  0  0  0  0  0  0  0
  -16.1611   28.5118    0.0000 C   0  0  0  0  0  0  0  0  0  0  0  0
  -14.9983   29.4594    0.0000 C   0  0  0  0  0  0  0  0  0  0  0  0
  -13.7530   30.2956    0.0000 C   0  0  0  0  0  0  0  0  0  0  0  0
  -12.4359   31.0134    0.0000 C   0  0  0  0  0  0  0  0  0  0  0  0
  -11.0582   31.6066    0.0000 C   0  0  0  0  0  0  0  0  0  0  0  0
   -9.6316   32.0701    0.0000 C   0  0  0  0  0  0  0  0  0  0  0  0
   -8.1683   32.4000    0.0000 C   0  0  0  0  0  0  0  0  0  0  0  0
   -6.6809   32.5935    0.0000 C   0  0  0  0  0  0  0  0  0  0  0  0
   -5.1819   32.6489    0.0000 C   0  0  0  0  0  0  0  0  0  0  0  0
   -3.6842   32.5658    0.0000 C   0  0  0  0  0  0  0  0  0  0  0  0
   -2.2006   32.3449    0.0000 C   0  0  0  0  0  0  0  0  0  0  0  0
   -0.7436   31.9880    0.0000 C   0  0  0  0  0  0  0  0  0  0  0  0
    0.6741   31.4981    0.0000 C   0  0  0  0  0  0  0  0  0  0  0  0
    2.0407   30.8796    0.0000 C   0  0  0  0  0  0  0  0  0  0  0  0
    3.3443   30.1376    0.0000 C   0  0  0  0  0  0  0  0  0  0  0  0
    4.5739   29.2785    0.0000 C   0  0  0  0  0  0  0  0  0  0  0  0
    5.7190   28.3096    0.0000 C   0  0  0  0  0  0  0  0  0  0  0  0
    6.7698   27.2392    0.0000 C   0  0  0  0  0  0  0  0  0  0  0  0
    7.7174   26.0764    0.0000 C   0  0  0  0  0  0  0  0  0  0  0  0
    8.5536   24.8311    0.0000 C   0  0  0  0  0  0  0  0  0  0  0  0
    9.2714   23.5140    0.0000 C   0  0  0  0  0  0  0  0  0  0  0  0
    9.8646   22.1363    0.0000 C   0  0  0  0  0  0  0  0  0  0  0  0
   10.3281   20.7097    0.0000 C   0  0  0  0  0  0  0  0  0  0  0  0
   10.6580   19.2464    0.0000 C   0  0  0  0  0  0  0  0  0  0  0  0
   10.8515   17.7590    0.0000 C   0  0  0  0  0  0  0  0  0  0  0  0
   10.9069   16.2600    0.0000 C   0  0  0  0  0  0  0  0  0  0  0  0
   10.8238   14.7623    0.0000 C   0  0  0  0  0  0  0  0  0  0  0  0
   10.6029   13.2787    0.0000 C   0  0  0  0  0  0  0  0  0  0  0  0
   10.2460   11.8217    0.0000 C   0  0  0  0  0  0  0  0  0  0  0  0
    9.7562   10.4040    0.0000 C   0  0  0  0  0  0  0  0  0  0  0  0
    9.1376    9.0374    0.0000 C   0  0  0  0  0  0  0  0  0  0  0  0
    8.3956    7.7338    0.0000 C   0  0  0  0  0  0  0  0  0  0  0  0
    7.5365    6.5042    0.0000 C   0  0  0  0  0  0  0  0  0  0  0  0
    6.5676    5.3591    0.0000 C   0  0  0  0  0  0  0  0  0  0  0  0
    5.4972    4.3083    0.0000 C   0  0  0  0  0  0  0  0  0  0  0  0
    4.3344    3.3607    0.0000 C   0  0  0  0  0  0  0  0  0  0  0  0
    3.0892    2.5245    0.0000 C   0  0  0  0  0  0  0  0  0  0  0  0
    1.7720    1.8067    0.0000 C   0  0  0  0  0  0  0  0  0  0  0  0
    0.3943    1.2135    0.0000 C   0  0  0  0  0  0  0  0  0  0  0  0
    1.2760    0.0000    0.0000 C   0  0  0  0  0  0  0  0  0  0  0  0
    0.3943   -1.2135    0.0000 C   0  0  0  0  0  0  0  0  0  0  0  0
   -1.0323   -0.7500    0.0000 C   0  0  0  0  0  0  0  0  0  0  0  0
   -1.0323    0.7500    0.0000 C   0  0  0  0  0  0  0  0  0  0  0  0
   -2.4956    0.4201    0.0000 C   0  0  0  0  0  0  0  0  0  0  0  0
   -2.2336   -1.0569    0.0000 O   0  0  0  0  0  0  0  0  0  0  0  0
  1  2  3  0
  2  3  1  0
  3  4  1  0
  4  5  1  0
  5  6  1  0
  6  7  1  0
  7  8  1  0
  8  9  1  0
  9 10  1  0
 10 11  1  0
 11 12  1  0
 12 13  1  0
 13 14  1  0
 14 15  1  0
 15 16  1  0
 16 17  1  0
 17 18  1  0
 18 19  1  0
 19 20  1  0
 20 21  1  0
 21 22  1  0
 22 23  1  0
 23 24  1  0
 24 25  1  0
 25 26  1  0
 26 27  1  0
 27 28  1  0
 28 29  1  0
 29 30  1  0
 30 31  1  0
 31 32  1  0
 32 33  1  0
 33 34  1  0
 34 35  1  0
 35 36  1  0
 36 37  1  0
 37 38  1  0
 38 39  1  0
 39 40  1  0
 40 41  1  0
 41 42  1  0
 42 43  1  0
 43 44  1  0
 44 45  1  0
 45 46  1  0
 46 47  1  0
 47 48  1  0
 48 49  1  0
 49 50  1  0
 50 51  1  0
 51 52  1  0
 52 53  1  0
 53 54  1  0
 54 55  1  0
 55 56  1  0
 56 57  1  0
 57 58  1  0
 58 59  1  0
 59 60  1  0
 60 61  1  0
 61 62  1  0
 62 63  1  0
 63 64  1  0
 64 65  1  0
 65 66  2  0
 66 67  1  0
 67 68  2  0
 68 69  1  0
 69 70  2  0
 70 71  1  0
 71 72  2  0
 72 73  1  0
 73 74  2  0
 73  3  1  0
 72 68  1  0
M  END
>  <Title>  (463) 
idAAPWgen10

$$$$

     RDKit          2D

 42 43  0  0  0  0  0  0  0  0999 V2000
   -2.4166   -0.9691    0.0000 C   0  0  0  0  0  0  0  0  0  0  0  0
   -2.5157    0.5276    0.0000 C   0  0  0  0  0  0  0  0  0  0  0  0
   -4.0155    0.5524    0.0000 C   0  0  0  0  0  0  0  0  0  0  0  0
   -5.4908    0.8237    0.0000 C   0  0  0  0  0  0  0  0  0  0  0  0
   -6.9012    1.3342    0.0000 C   0  0  0  0  0  0  0  0  0  0  0  0
   -8.2085    2.0698    0.0000 C   0  0  0  0  0  0  0  0  0  0  0  0
   -9.3768    3.0106    0.0000 C   0  0  0  0  0  0  0  0  0  0  0  0
  -10.3743    4.1308    0.0000 C   0  0  0  0  0  0  0  0  0  0  0  0
  -11.1739    5.3999    0.0000 C   0  0  0  0  0  0  0  0  0  0  0  0
  -11.7536    6.7834    0.0000 N   0  0  0  0  0  0  0  0  0  0  0  0
  -12.0978    8.2434    0.0000 C   0  0  0  0  0  0  0  0  0  0  0  0
  -12.1969    9.7401    0.0000 C   0  0  0  0  0  0  0  0  0  0  0  0
  -12.0483   11.2327    0.0000 C   0  0  0  0  0  0  0  0  0  0  0  0
  -11.6561   12.6805    0.0000 C   0  0  0  0  0  0  0  0  0  0  0  0
  -11.0309   14.0440    0.0000 C   0  0  0  0  0  0  0  0  0  0  0  0
  -10.1899   15.2860    0.0000 C   0  0  0  0  0  0  0  0  0  0  0  0
   -9.1558   16.3727    0.0000 C   0  0  0  0  0  0  0  0  0  0  0  0
   -7.9570   17.2743    0.0000 C   0  0  0  0  0  0  0  0  0  0  0  0
   -6.6262   17.9663    0.0000 C   0  0  0  0  0  0  0  0  0  0  0  0
   -5.1996   18.4298    0.0000 C   0  0  0  0  0  0  0  0  0  0  0  0
   -3.7162   18.6522    0.0000 C   0  0  0  0  0  0  0  0  0  0  0  0
   -2.2164   18.6274    0.0000 C   0  0  0  0  0  0  0  0  0  0  0  0
   -0.7411   18.3561    0.0000 C   0  0  0  0  0  0  0  0  0  0  0  0
    0.6693   17.8457    0.0000 C   0  0  0  0  0  0  0  0  0  0  0  0
    1.9766   17.1100    0.0000 C   0  0  0  0  0  0  0  0  0  0  0  0
    3.1449   16.1693    0.0000 C   0  0  0  0  0  0  0  0  0  0  0  0
    4.1424   15.0490    0.0000 C   0  0  0  0  0  0  0  0  0  0  0  0
    4.9420   13.7799    0.0000 C   0  0  0  0  0  0  0  0  0  0  0  0
    5.5217   12.3965    0.0000 C   0  0  0  0  0  0  0  0  0  0  0  0
    5.8658   10.9365    0.0000 C   0  0  0  0  0  0  0  0  0  0  0  0
    5.9650    9.4398    0.0000 C   0  0  0  0  0  0  0  0  0  0  0  0
    5.8164    7.9471    0.0000 C   0  0  0  0  0  0  0  0  0  0  0  0
    5.4242    6.4993    0.0000 C   0  0  0  0  0  0  0  0  0  0  0  0
    4.7990    5.1358    0.0000 C   0  0  0  0  0  0  0  0  0  0  0  0
    3.9579    3.8938    0.0000 C   0  0  0  0  0  0  0  0  0  0  0  0
    2.9239    2.8072    0.0000 C   0  0  0  0  0  0  0  0  0  0  0  0
    1.7251    1.9055    0.0000 C   0  0  0  0  0  0  0  0  0  0  0  0
    0.3943    1.2135    0.0000 C   0  0  0  0  0  0  0  0  0  0  0  0
    1.2760    0.0000    0.0000 C   0  0  0  0  0  0  0  0  0  0  0  0
    0.3943   -1.2135    0.0000 C   0  0  0  0  0  0  0  0  0  0  0  0
   -1.0323   -0.7500    0.0000 C   0  0  0  0  0  0  0  0  0  0  0  0
   -1.0323    0.7500    0.0000 C   0  0  0  0  0  0  0  0  0  0  0  0
  1  2  1  0
  2  3  1  0
  3  4  2  0
  4  5  1  0
  5  6  2  0
  6  7  1  0
  7  8  2  0
  8  9  1  0
  9 10  2  0
 10 11  1  0
 11 12  2  0
 12 13  1  0
 13 14  2  0
 14 15  1  0
 15 16  2  0
 16 17  1  0
 17 18  2  0
 18 19  1  0
 19 20  2  0
 20 21  1  0
 21 22  2  0
 22 23  1  0
 23 24  2  0
 24 25  1  0
 25 26  2  0
 26 27  1  0
 27 28  2  0
 28 29  1  0
 29 30  2  0
 30 31  1  0
 31 32  2  0
 32 33  1  0
 33 34  2  0
 34 35  1  0
 35 36  2  0
 36 37  1  0
 37 38  2  0
 38 39  1  0
 39 40  2  0
 40 41  1  0
 41 42  2  0
 42  2  1  0
 42 38  1  0
M  END
>  <Title>  (464) 
idAAPXgen10

$$$$

     RDKit          2D

 13 13  0  0  0  0  0  0  0  0999 V2000
   10.2760   -5.1962    0.0000 C   0  0  0  0  0  0  0  0  0  0  0  0
    9.5260   -3.8971    0.0000 C   0  0  0  0  0  0  0  0  0  0  0  0
    8.0260   -3.8971    0.0000 C   0  0  0  0  0  0  0  0  0  0  0  0
    7.2760   -2.5981    0.0000 C   0  0  0  0  0  0  0  0  0  0  0  0
    5.7760   -2.5981    0.0000 C   0  0  0  0  0  0  0  0  0  0  0  0
    5.0260   -1.2990    0.0000 C   0  0  0  0  0  0  0  0  0  0  0  0
    3.5260   -1.2990    0.0000 C   0  0  0  0  0  0  0  0  0  0  0  0
    2.7760    0.0000    0.0000 C   0  0  0  0  0  0  0  0  0  0  0  0
    1.2760    0.0000    0.0000 C   0  0  0  0  0  0  0  0  0  0  0  0
    0.3943    1.2135    0.0000 C   0  0  0  0  0  0  0  0  0  0  0  0
   -1.0323    0.7500    0.0000 C   0  0  0  0  0  0  0  0  0  0  0  0
   -1.0323   -0.7500    0.0000 C   0  0  0  0  0  0  0  0  0  0  0  0
    0.3943   -1.2135    0.0000 C   0  0  0  0  0  0  0  0  0  0  0  0
  1  2  2  0
  2  3  1  0
  3  4  1  0
  4  5  1  0
  5  6  1  0
  6  7  1  0
  7  8  1  0
  8  9  1  0
  9 10  2  0
 10 11  1  0
 11 12  2  0
 12 13  1  0
 13  9  1  0
M  END
>  <Title>  (465) 
idAAPYgen10

$$$$

     RDKit          2D

  8  8  0  0  0  0  0  0  0  0999 V2000
    2.7760    0.0000    0.0000 C   0  0  0  0  0  0  0  0  0  0  0  0
    1.2760    0.0000    0.0000 C   0  0  0  0  0  0  0  0  0  0  0  0
    0.3943    1.2135    0.0000 C   0  0  0  0  0  0  0  0  0  0  0  0
   -1.0323    0.7500    0.0000 C   0  0  0  0  0  0  0  0  0  0  0  0
   -1.0323   -0.7500    0.0000 C   0  0  0  0  0  0  0  0  0  0  0  0
   -2.2458   -1.6317    0.0000 C   0  0  0  0  0  0  0  0  0  0  0  0
   -3.4593   -2.5134    0.0000 N   0  0  0  0  0  0  0  0  0  0  0  0
    0.3943   -1.2135    0.0000 N   0  0  0  0  0  0  0  0  0  0  0  0
  1  2  1  0
  2  3  1  0
  3  4  2  0
  4  5  1  0
  5  6  1  0
  6  7  3  0
  5  8  1  0
  8  2  1  0
M  END
>  <Title>  (466) 
idAAPZgen10

$$$$

     RDKit          2D

 19 20  0  0  0  0  0  0  0  0999 V2000
    6.7500   -1.2990    0.0000 C   0  0  0  0  0  0  0  0  0  0  0  0
    6.0000    0.0000    0.0000 C   0  0  0  0  0  0  0  0  0  0  0  0
    4.5000    0.0000    0.0000 C   0  0  0  0  0  0  0  0  0  0  0  0
    3.0000    0.0000    0.0000 C   0  0  0  0  0  0  0  0  0  0  0  0
    1.5000    0.0000    0.0000 C   0  0  0  0  0  0  0  0  0  0  0  0
    0.7500   -1.2990    0.0000 C   0  0  0  0  0  0  0  0  0  0  0  0
   -0.7500   -1.2990    0.0000 C   0  0  0  0  0  0  0  0  0  0  0  0
   -1.5000    0.0000    0.0000 C   0  0  0  0  0  0  0  0  0  0  0  0
   -0.7500    1.2990    0.0000 C   0  0  0  0  0  0  0  0  0  0  0  0
    0.7500    1.2990    0.0000 C   0  0  0  0  0  0  0  0  0  0  0  0
    1.5000    2.5981    0.0000 C   0  0  0  0  0  0  0  0  0  0  0  0
    3.0000    2.5981    0.0000 O   0  0  0  0  0  0  0  0  0  0  0  0
    0.7500    3.8971    0.0000 N   0  0  0  0  0  0  0  0  0  0  0  0
    1.5000    5.1962    0.0000 C   0  0  0  0  0  0  0  0  0  0  0  0
    3.0000    5.1962    0.0000 N   0  0  0  0  0  0  0  0  0  0  0  0
    3.7500    6.4952    0.0000 N   0  0  0  0  0  0  0  0  0  0  0  0
    3.0000    7.7942    0.0000 N   0  0  0  0  0  0  0  0  0  0  0  0
    1.5000    7.7942    0.0000 N   0  0  0  0  0  0  0  0  0  0  0  0
    0.7500    6.4952    0.0000 N   0  0  0  0  0  0  0  0  0  0  0  0
  1  2  2  0
  2  3  1  0
  3  4  3  0
  4  5  1  0
  5  6  2  0
  6  7  1  0
  7  8  2  0
  8  9  1  0
  9 10  2  0
 10 11  1  0
 11 12  2  0
 11 13  1  0
 13 14  1  0
 14 15  2  0
 15 16  1  0
 16 17  2  0
 17 18  1  0
 18 19  2  0
 10  5  1  0
 19 14  1  0
M  END
>  <Title>  (467) 
idAAQAgen10

$$$$

     RDKit          2D

 13 13  0  0  0  0  0  0  0  0999 V2000
    3.0000   -5.1962    0.0000 C   0  0  0  0  0  0  0  0  0  0  0  0
    3.7500   -3.8971    0.0000 C   0  0  0  0  0  0  0  0  0  0  0  0
    3.0000   -2.5981    0.0000 C   0  0  0  0  0  0  0  0  0  0  0  0
    3.7500   -1.2990    0.0000 N   0  0  0  0  0  0  0  0  0  0  0  0
    5.2500   -1.2990    0.0000 C   0  0  0  0  0  0  0  0  0  0  0  0
    3.0000    0.0000    0.0000 C   0  0  0  0  0  0  0  0  0  0  0  0
    3.7500    1.2990    0.0000 O   0  0  0  0  0  0  0  0  0  0  0  0
    1.5000    0.0000    0.0000 C   0  0  0  0  0  0  0  0  0  0  0  0
    0.7500   -1.2990    0.0000 C   0  0  0  0  0  0  0  0  0  0  0  0
   -0.7500   -1.2990    0.0000 C   0  0  0  0  0  0  0  0  0  0  0  0
   -1.5000    0.0000    0.0000 C   0  0  0  0  0  0  0  0  0  0  0  0
   -0.7500    1.2990    0.0000 C   0  0  0  0  0  0  0  0  0  0  0  0
    0.7500    1.2990    0.0000 C   0  0  0  0  0  0  0  0  0  0  0  0
  1  2  2  0
  2  3  1  0
  3  4  1  0
  4  5  1  0
  4  6  1  0
  6  7  2  0
  6  8  1  0
  8  9  2  0
  9 10  1  0
 10 11  2  0
 11 12  1  0
 12 13  2  0
 13  8  1  0
M  END
>  <Title>  (468) 
idAAQBgen10

$$$$

     RDKit          2D

 10 11  0  0  0  0  0  0  0  0999 V2000
   -2.6401   -3.1891    0.0000 C   0  0  0  0  0  0  0  0  0  0  0  0
   -1.2135   -2.7256    0.0000 C   0  0  0  0  0  0  0  0  0  0  0  0
   -0.0000   -3.6073    0.0000 C   0  0  0  0  0  0  0  0  0  0  0  0
    1.2135   -2.7256    0.0000 C   0  0  0  0  0  0  0  0  0  0  0  0
    0.7500   -1.2990    0.0000 C   0  0  0  0  0  0  0  0  0  0  0  0
    1.5000    0.0000    0.0000 C   0  0  0  0  0  0  0  0  0  0  0  0
    0.7500    1.2990    0.0000 C   0  0  0  0  0  0  0  0  0  0  0  0
   -0.7500    1.2990    0.0000 C   0  0  0  0  0  0  0  0  0  0  0  0
   -1.5000    0.0000    0.0000 C   0  0  0  0  0  0  0  0  0  0  0  0
   -0.7500   -1.2990    0.0000 C   0  0  0  0  0  0  0  0  0  0  0  0
  1  2  1  0
  2  3  1  0
  3  4  1  0
  4  5  1  0
  5  6  2  0
  6  7  1  0
  7  8  2  0
  8  9  1  0
  9 10  2  0
 10  2  1  0
 10  5  1  0
M  END
>  <Title>  (469) 
idAAQCgen10

$$$$

     RDKit          2D

 11 10  0  0  0  0  0  0  0  0999 V2000
    0.0000    0.0000    0.0000 C   0  0  0  0  0  0  0  0  0  0  0  0
   -0.0000   -1.5000    0.0000 C   0  0  0  0  0  0  0  0  0  0  0  0
   -0.0000   -3.0000    0.0000 C   0  0  0  0  0  0  0  0  0  0  0  0
   -0.0000   -4.5000    0.0000 C   0  0  0  0  0  0  0  0  0  0  0  0
   -0.0000   -6.0000    0.0000 C   0  0  0  0  0  0  0  0  0  0  0  0
   -0.0000   -7.5000    0.0000 C   0  0  0  0  0  0  0  0  0  0  0  0
   -0.0000   -9.0000    0.0000 C   0  0  0  0  0  0  0  0  0  0  0  0
   -0.0000  -10.5000    0.0000 C   0  0  0  0  0  0  0  0  0  0  0  0
   -0.0000  -12.0000    0.0000 C   0  0  0  0  0  0  0  0  0  0  0  0
    1.2990  -12.7500    0.0000 C   0  0  0  0  0  0  0  0  0  0  0  0
    1.2990  -14.2500    0.0000 C   0  0  0  0  0  0  0  0  0  0  0  0
  1  2  3  0
  2  3  1  0
  3  4  3  0
  4  5  1  0
  5  6  3  0
  6  7  1  0
  7  8  3  0
  8  9  1  0
  9 10  2  3
 10 11  1  0
M  END
>  <Title>  (470) 
idAAQDgen10

$$$$

     RDKit          2D

 91 92  0  0  0  0  0  0  0  0999 V2000
   -2.4101    0.0825    0.0000 C   0  0  0  0  0  0  0  0  0  0  0  0
   -2.2460   -1.4085    0.0000 C   0  0  0  0  0  0  0  0  0  0  0  0
   -3.7300   -1.6269    0.0000 C   0  0  0  0  0  0  0  0  0  0  0  0
   -5.1941   -1.9531    0.0000 C   0  0  0  0  0  0  0  0  0  0  0  0
   -6.6305   -2.3852    0.0000 C   0  0  0  0  0  0  0  0  0  0  0  0
   -8.0316   -2.9211    0.0000 C   0  0  0  0  0  0  0  0  0  0  0  0
   -9.3897   -3.5578    0.0000 C   0  0  0  0  0  0  0  0  0  0  0  0
  -10.6978   -4.2919    0.0000 C   0  0  0  0  0  0  0  0  0  0  0  0
  -11.9488   -5.1195    0.0000 C   0  0  0  0  0  0  0  0  0  0  0  0
  -13.1360   -6.0363    0.0000 C   0  0  0  0  0  0  0  0  0  0  0  0
  -14.2532   -7.0373    0.0000 C   0  0  0  0  0  0  0  0  0  0  0  0
  -15.2943   -8.1171    0.0000 C   0  0  0  0  0  0  0  0  0  0  0  0
  -16.2538   -9.2701    0.0000 C   0  0  0  0  0  0  0  0  0  0  0  0
  -17.1266  -10.4900    0.0000 C   0  0  0  0  0  0  0  0  0  0  0  0
  -17.9080  -11.7704    0.0000 C   0  0  0  0  0  0  0  0  0  0  0  0
  -18.5939  -13.1044    0.0000 C   0  0  0  0  0  0  0  0  0  0  0  0
  -19.1805  -14.4850    0.0000 C   0  0  0  0  0  0  0  0  0  0  0  0
  -19.6649  -15.9046    0.0000 C   0  0  0  0  0  0  0  0  0  0  0  0
  -20.0443  -17.3558    0.0000 C   0  0  0  0  0  0  0  0  0  0  0  0
  -20.3167  -18.8309    0.0000 C   0  0  0  0  0  0  0  0  0  0  0  0
  -20.4808  -20.3219    0.0000 C   0  0  0  0  0  0  0  0  0  0  0  0
  -20.5356  -21.8209    0.0000 C   0  0  0  0  0  0  0  0  0  0  0  0
  -20.4808  -23.3199    0.0000 C   0  0  0  0  0  0  0  0  0  0  0  0
  -20.3167  -24.8109    0.0000 C   0  0  0  0  0  0  0  0  0  0  0  0
  -20.0443  -26.2859    0.0000 C   0  0  0  0  0  0  0  0  0  0  0  0
  -19.6649  -27.7372    0.0000 C   0  0  0  0  0  0  0  0  0  0  0  0
  -19.1805  -29.1568    0.0000 C   0  0  0  0  0  0  0  0  0  0  0  0
  -18.5939  -30.5373    0.0000 C   0  0  0  0  0  0  0  0  0  0  0  0
  -17.9080  -31.8714    0.0000 C   0  0  0  0  0  0  0  0  0  0  0  0
  -17.1266  -33.1517    0.0000 C   0  0  0  0  0  0  0  0  0  0  0  0
  -16.2538  -34.3717    0.0000 C   0  0  0  0  0  0  0  0  0  0  0  0
  -15.2943  -35.5247    0.0000 C   0  0  0  0  0  0  0  0  0  0  0  0
  -14.2532  -36.6045    0.0000 C   0  0  0  0  0  0  0  0  0  0  0  0
  -13.1360  -37.6055    0.0000 C   0  0  0  0  0  0  0  0  0  0  0  0
  -11.9488  -38.5222    0.0000 C   0  0  0  0  0  0  0  0  0  0  0  0
  -10.6978  -39.3499    0.0000 C   0  0  0  0  0  0  0  0  0  0  0  0
   -9.3897  -40.0840    0.0000 C   0  0  0  0  0  0  0  0  0  0  0  0
   -8.0316  -40.7207    0.0000 C   0  0  0  0  0  0  0  0  0  0  0  0
   -6.6305  -41.2566    0.0000 C   0  0  0  0  0  0  0  0  0  0  0  0
   -5.1941  -41.6887    0.0000 C   0  0  0  0  0  0  0  0  0  0  0  0
   -3.7300  -42.0149    0.0000 C   0  0  0  0  0  0  0  0  0  0  0  0
   -2.2460  -42.2333    0.0000 C   0  0  0  0  0  0  0  0  0  0  0  0
   -0.7500  -42.3427    0.0000 C   0  0  0  0  0  0  0  0  0  0  0  0
    0.7500  -42.3427    0.0000 C   0  0  0  0  0  0  0  0  0  0  0  0
    2.2460  -42.2333    0.0000 C   0  0  0  0  0  0  0  0  0  0  0  0
    3.7300  -42.0149    0.0000 C   0  0  0  0  0  0  0  0  0  0  0  0
    5.1941  -41.6887    0.0000 C   0  0  0  0  0  0  0  0  0  0  0  0
    6.6305  -41.2566    0.0000 C   0  0  0  0  0  0  0  0  0  0  0  0
    8.0316  -40.7207    0.0000 C   0  0  0  0  0  0  0  0  0  0  0  0
    9.3897  -40.0840    0.0000 C   0  0  0  0  0  0  0  0  0  0  0  0
   10.6978  -39.3499    0.0000 C   0  0  0  0  0  0  0  0  0  0  0  0
   11.9488  -38.5222    0.0000 C   0  0  0  0  0  0  0  0  0  0  0  0
   13.1360  -37.6055    0.0000 C   0  0  0  0  0  0  0  0  0  0  0  0
   14.2532  -36.6045    0.0000 C   0  0  0  0  0  0  0  0  0  0  0  0
   15.2943  -35.5247    0.0000 C   0  0  0  0  0  0  0  0  0  0  0  0
   16.2538  -34.3717    0.0000 C   0  0  0  0  0  0  0  0  0  0  0  0
   17.1266  -33.1517    0.0000 C   0  0  0  0  0  0  0  0  0  0  0  0
   17.9080  -31.8714    0.0000 C   0  0  0  0  0  0  0  0  0  0  0  0
   18.5939  -30.5373    0.0000 C   0  0  0  0  0  0  0  0  0  0  0  0
   19.1805  -29.1568    0.0000 C   0  0  0  0  0  0  0  0  0  0  0  0
   19.6649  -27.7372    0.0000 C   0  0  0  0  0  0  0  0  0  0  0  0
   20.0443  -26.2859    0.0000 C   0  0  0  0  0  0  0  0  0  0  0  0
   20.3167  -24.8109    0.0000 C   0  0  0  0  0  0  0  0  0  0  0  0
   20.4808  -23.3199    0.0000 C   0  0  0  0  0  0  0  0  0  0  0  0
   20.5356  -21.8209    0.0000 C   0  0  0  0  0  0  0  0  0  0  0  0
   20.4808  -20.3219    0.0000 C   0  0  0  0  0  0  0  0  0  0  0  0
   20.3167  -18.8309    0.0000 C   0  0  0  0  0  0  0  0  0  0  0  0
   20.0443  -17.3558    0.0000 C   0  0  0  0  0  0  0  0  0  0  0  0
   19.6649  -15.9046    0.0000 C   0  0  0  0  0  0  0  0  0  0  0  0
   19.1805  -14.4850    0.0000 C   0  0  0  0  0  0  0  0  0  0  0  0
   18.5939  -13.1044    0.0000 C   0  0  0  0  0  0  0  0  0  0  0  0
   17.9080  -11.7704    0.0000 C   0  0  0  0  0  0  0  0  0  0  0  0
   17.1266  -10.4900    0.0000 C   0  0  0  0  0  0  0  0  0  0  0  0
   16.2538   -9.2701    0.0000 C   0  0  0  0  0  0  0  0  0  0  0  0
   15.2943   -8.1171    0.0000 C   0  0  0  0  0  0  0  0  0  0  0  0
   14.2532   -7.0373    0.0000 C   0  0  0  0  0  0  0  0  0  0  0  0
   13.1360   -6.0363    0.0000 C   0  0  0  0  0  0  0  0  0  0  0  0
   11.9488   -5.1195    0.0000 C   0  0  0  0  0  0  0  0  0  0  0  0
   10.6978   -4.2919    0.0000 C   0  0  0  0  0  0  0  0  0  0  0  0
    9.3897   -3.5578    0.0000 C   0  0  0  0  0  0  0  0  0  0  0  0
    8.0316   -2.9211    0.0000 C   0  0  0  0  0  0  0  0  0  0  0  0
    6.6305   -2.3852    0.0000 C   0  0  0  0  0  0  0  0  0  0  0  0
    5.1941   -1.9531    0.0000 C   0  0  0  0  0  0  0  0  0  0  0  0
    3.7300   -1.6269    0.0000 C   0  0  0  0  0  0  0  0  0  0  0  0
    2.2460   -1.4085    0.0000 C   0  0  0  0  0  0  0  0  0  0  0  0
    0.7500   -1.2990    0.0000 C   0  0  0  0  0  0  0  0  0  0  0  0
    1.5000    0.0000    0.0000 C   0  0  0  0  0  0  0  0  0  0  0  0
    0.7500    1.2990    0.0000 C   0  0  0  0  0  0  0  0  0  0  0  0
   -0.7500    1.2990    0.0000 C   0  0  0  0  0  0  0  0  0  0  0  0
   -1.5000    0.0000    0.0000 C   0  0  0  0  0  0  0  0  0  0  0  0
   -0.7500   -1.2990    0.0000 C   0  0  0  0  0  0  0  0  0  0  0  0
  1  2  1  0
  2  3  1  0
  3  4  2  0
  4  5  1  0
  5  6  1  0
  6  7  1  0
  7  8  1  0
  8  9  1  0
  9 10  1  0
 10 11  1  0
 11 12  1  0
 12 13  1  0
 13 14  1  0
 14 15  1  0
 15 16  1  0
 16 17  1  0
 17 18  1  0
 18 19  1  0
 19 20  1  0
 20 21  1  0
 21 22  1  0
 22 23  1  0
 23 24  1  0
 24 25  1  0
 25 26  1  0
 26 27  1  0
 27 28  1  0
 28 29  1  0
 29 30  1  0
 30 31  1  0
 31 32  1  0
 32 33  1  0
 33 34  1  0
 34 35  1  0
 35 36  1  0
 36 37  1  0
 37 38  1  0
 38 39  1  0
 39 40  1  0
 40 41  1  0
 41 42  1  0
 42 43  1  0
 43 44  1  0
 44 45  1  0
 45 46  1  0
 46 47  1  0
 47 48  1  0
 48 49  1  0
 49 50  1  0
 50 51  1  0
 51 52  1  0
 52 53  1  0
 53 54  1  0
 54 55  1  0
 55 56  1  0
 56 57  1  0
 57 58  1  0
 58 59  1  0
 59 60  1  0
 60 61  1  0
 61 62  1  0
 62 63  1  0
 63 64  1  0
 64 65  1  0
 65 66  1  0
 66 67  1  0
 67 68  1  0
 68 69  1  0
 69 70  1  0
 70 71  1  0
 71 72  1  0
 72 73  1  0
 73 74  1  0
 74 75  1  0
 75 76  1  0
 76 77  1  0
 77 78  1  0
 78 79  1  0
 79 80  1  0
 80 81  1  0
 81 82  1  0
 82 83  1  0
 83 84  1  0
 84 85  1  0
 85 86  1  0
 86 87  2  0
 87 88  1  0
 88 89  2  0
 89 90  1  0
 90 91  2  0
 91  2  1  0
 91 86  1  0
M  END
>  <Title>  (471) 
idAAQEgen10

$$$$

     RDKit          2D

 51 51  0  0  0  0  0  0  0  0999 V2000
   13.4445   -0.0000    0.0000 C   0  0  0  0  0  0  0  0  0  0  0  0
   11.9445    0.0000    0.0000 C   0  0  0  0  0  0  0  0  0  0  0  0
   11.8503   -1.4970    0.0000 C   0  0  0  0  0  0  0  0  0  0  0  0
   11.5692   -2.9705    0.0000 C   0  0  0  0  0  0  0  0  0  0  0  0
   11.1057   -4.3971    0.0000 C   0  0  0  0  0  0  0  0  0  0  0  0
   10.4670   -5.7543    0.0000 C   0  0  0  0  0  0  0  0  0  0  0  0
    9.6633   -7.0208    0.0000 C   0  0  0  0  0  0  0  0  0  0  0  0
    8.7071   -8.1766    0.0000 C   0  0  0  0  0  0  0  0  0  0  0  0
    7.6137   -9.2034    0.0000 C   0  0  0  0  0  0  0  0  0  0  0  0
    6.4002  -10.0851    0.0000 C   0  0  0  0  0  0  0  0  0  0  0  0
    5.0857  -10.8077    0.0000 C   0  0  0  0  0  0  0  0  0  0  0  0
    3.6910  -11.3599    0.0000 C   0  0  0  0  0  0  0  0  0  0  0  0
    2.2382  -11.7329    0.0000 C   0  0  0  0  0  0  0  0  0  0  0  0
    0.7500  -11.9209    0.0000 C   0  0  0  0  0  0  0  0  0  0  0  0
   -0.7500  -11.9209    0.0000 C   0  0  0  0  0  0  0  0  0  0  0  0
   -2.2382  -11.7329    0.0000 C   0  0  0  0  0  0  0  0  0  0  0  0
   -3.6910  -11.3599    0.0000 C   0  0  0  0  0  0  0  0  0  0  0  0
   -5.0857  -10.8077    0.0000 C   0  0  0  0  0  0  0  0  0  0  0  0
   -6.4002  -10.0851    0.0000 C   0  0  0  0  0  0  0  0  0  0  0  0
   -7.6137   -9.2034    0.0000 C   0  0  0  0  0  0  0  0  0  0  0  0
   -8.7071   -8.1766    0.0000 C   0  0  0  0  0  0  0  0  0  0  0  0
   -9.6633   -7.0208    0.0000 C   0  0  0  0  0  0  0  0  0  0  0  0
  -10.4670   -5.7543    0.0000 C   0  0  0  0  0  0  0  0  0  0  0  0
  -11.1057   -4.3971    0.0000 C   0  0  0  0  0  0  0  0  0  0  0  0
  -11.5692   -2.9705    0.0000 C   0  0  0  0  0  0  0  0  0  0  0  0
  -11.8503   -1.4970    0.0000 C   0  0  0  0  0  0  0  0  0  0  0  0
  -11.9445   -0.0000    0.0000 C   0  0  0  0  0  0  0  0  0  0  0  0
  -11.8503    1.4970    0.0000 C   0  0  0  0  0  0  0  0  0  0  0  0
  -11.5692    2.9705    0.0000 C   0  0  0  0  0  0  0  0  0  0  0  0
  -11.1057    4.3971    0.0000 C   0  0  0  0  0  0  0  0  0  0  0  0
  -10.4670    5.7543    0.0000 C   0  0  0  0  0  0  0  0  0  0  0  0
   -9.6633    7.0208    0.0000 C   0  0  0  0  0  0  0  0  0  0  0  0
   -8.7071    8.1766    0.0000 C   0  0  0  0  0  0  0  0  0  0  0  0
   -7.6137    9.2034    0.0000 C   0  0  0  0  0  0  0  0  0  0  0  0
   -6.4002   10.0851    0.0000 C   0  0  0  0  0  0  0  0  0  0  0  0
   -5.0857   10.8077    0.0000 C   0  0  0  0  0  0  0  0  0  0  0  0
   -3.6910   11.3599    0.0000 C   0  0  0  0  0  0  0  0  0  0  0  0
   -2.2382   11.7329    0.0000 C   0  0  0  0  0  0  0  0  0  0  0  0
   -0.7500   11.9209    0.0000 C   0  0  0  0  0  0  0  0  0  0  0  0
    0.7500   11.9209    0.0000 C   0  0  0  0  0  0  0  0  0  0  0  0
    2.2382   11.7329    0.0000 C   0  0  0  0  0  0  0  0  0  0  0  0
    3.6910   11.3599    0.0000 C   0  0  0  0  0  0  0  0  0  0  0  0
    5.0857   10.8077    0.0000 C   0  0  0  0  0  0  0  0  0  0  0  0
    6.4002   10.0851    0.0000 C   0  0  0  0  0  0  0  0  0  0  0  0
    7.6137    9.2034    0.0000 C   0  0  0  0  0  0  0  0  0  0  0  0
    8.7071    8.1766    0.0000 C   0  0  0  0  0  0  0  0  0  0  0  0
    9.6633    7.0208    0.0000 C   0  0  0  0  0  0  0  0  0  0  0  0
   10.4670    5.7543    0.0000 C   0  0  0  0  0  0  0  0  0  0  0  0
   11.1057    4.3971    0.0000 C   0  0  0  0  0  0  0  0  0  0  0  0
   11.5692    2.9705    0.0000 C   0  0  0  0  0  0  0  0  0  0  0  0
   11.8503    1.4970    0.0000 C   0  0  0  0  0  0  0  0  0  0  0  0
  1  2  1  0
  2  3  1  0
  3  4  1  0
  4  5  1  0
  5  6  1  0
  6  7  1  0
  7  8  1  0
  8  9  1  0
  9 10  1  0
 10 11  1  0
 11 12  1  0
 12 13  1  0
 13 14  1  0
 14 15  1  0
 15 16  1  0
 16 17  1  0
 17 18  1  0
 18 19  1  0
 19 20  1  0
 20 21  1  0
 21 22  1  0
 22 23  1  0
 23 24  1  0
 24 25  1  0
 25 26  1  0
 26 27  1  0
 27 28  1  0
 28 29  1  0
 29 30  1  0
 30 31  1  0
 31 32  1  0
 32 33  1  0
 33 34  1  0
 34 35  1  0
 35 36  1  0
 36 37  1  0
 37 38  1  0
 38 39  1  0
 39 40  1  0
 40 41  1  0
 41 42  1  0
 42 43  1  0
 43 44  1  0
 44 45  1  0
 45 46  1  0
 46 47  1  0
 47 48  1  0
 48 49  1  0
 49 50  1  0
 50 51  1  0
 51  2  1  0
M  END
>  <Title>  (472) 
idAAQFgen10

$$$$

     RDKit          2D

 10 11  0  0  0  0  0  0  0  0999 V2000
   -0.0000   -5.1073    0.0000 C   0  0  0  0  0  0  0  0  0  0  0  0
   -0.0000   -3.6073    0.0000 C   0  0  0  0  0  0  0  0  0  0  0  0
    1.2135   -2.7256    0.0000 C   0  0  0  0  0  0  0  0  0  0  0  0
    0.7500   -1.2990    0.0000 C   0  0  0  0  0  0  0  0  0  0  0  0
    1.5000    0.0000    0.0000 C   0  0  0  0  0  0  0  0  0  0  0  0
    0.7500    1.2990    0.0000 C   0  0  0  0  0  0  0  0  0  0  0  0
   -0.7500    1.2990    0.0000 C   0  0  0  0  0  0  0  0  0  0  0  0
   -1.5000    0.0000    0.0000 C   0  0  0  0  0  0  0  0  0  0  0  0
   -0.7500   -1.2990    0.0000 C   0  0  0  0  0  0  0  0  0  0  0  0
   -1.2135   -2.7256    0.0000 C   0  0  0  0  0  0  0  0  0  0  0  0
  1  2  1  0
  2  3  1  0
  3  4  1  0
  4  5  2  0
  5  6  1  0
  6  7  2  0
  7  8  1  0
  8  9  2  0
  9 10  1  0
 10  2  1  0
  9  4  1  0
M  END
>  <Title>  (473) 
idAAQGgen10

$$$$

     RDKit          2D

 15 15  0  0  0  0  0  0  0  0999 V2000
    4.5000   -2.5981    0.0000 C   0  0  0  0  0  0  0  0  0  0  0  0
    3.7500   -1.2990    0.0000 C   0  0  0  0  0  0  0  0  0  0  0  0
    3.0000    0.0000    0.0000 C   0  0  0  0  0  0  0  0  0  0  0  0
    3.7500    1.2990    0.0000 O   0  0  0  0  0  0  0  0  0  0  0  0
    1.5000    0.0000    0.0000 N   0  0  0  0  0  0  0  0  0  0  0  0
    0.7500   -1.2990    0.0000 C   0  0  0  0  0  0  0  0  0  0  0  0
   -0.7500   -1.2990    0.0000 C   0  0  0  0  0  0  0  0  0  0  0  0
   -1.5000    0.0000    0.0000 C   0  0  0  0  0  0  0  0  0  0  0  0
   -0.7500    1.2990    0.0000 C   0  0  0  0  0  0  0  0  0  0  0  0
    0.7500    1.2990    0.0000 C   0  0  0  0  0  0  0  0  0  0  0  0
    1.5000    2.5981    0.0000 C   0  0  0  0  0  0  0  0  0  0  0  0
    0.7500    3.8971    0.0000 O   0  0  0  0  0  0  0  0  0  0  0  0
    3.0000    2.5981    0.0000 O   0  0  0  0  0  0  0  0  0  0  0  0
    3.7500    3.8971    0.0000 C   0  0  0  0  0  0  0  0  0  0  0  0
    5.2500    3.8971    0.0000 C   0  0  0  0  0  0  0  0  0  0  0  0
  1  2  3  0
  2  3  1  0
  3  4  2  0
  3  5  1  0
  5  6  1  0
  6  7  1  0
  7  8  2  0
  8  9  1  0
  9 10  2  0
 10 11  1  0
 11 12  2  0
 11 13  1  0
 13 14  1  0
 14 15  1  0
 10  5  1  0
M  END
>  <Title>  (474) 
idAAQHgen10

$$$$

     RDKit          2D

 13 13  0  0  0  0  0  0  0  0999 V2000
    9.0000   -5.1962    0.0000 C   0  0  0  0  0  0  0  0  0  0  0  0
    8.2500   -3.8971    0.0000 C   0  0  0  0  0  0  0  0  0  0  0  0
    7.5000   -2.5981    0.0000 C   0  0  0  0  0  0  0  0  0  0  0  0
    6.7500   -1.2990    0.0000 C   0  0  0  0  0  0  0  0  0  0  0  0
    6.0000    0.0000    0.0000 C   0  0  0  0  0  0  0  0  0  0  0  0
    4.5000    0.0000    0.0000 C   0  0  0  0  0  0  0  0  0  0  0  0
    3.0000    0.0000    0.0000 C   0  0  0  0  0  0  0  0  0  0  0  0
    1.5000    0.0000    0.0000 C   0  0  0  0  0  0  0  0  0  0  0  0
    0.7500   -1.2990    0.0000 C   0  0  0  0  0  0  0  0  0  0  0  0
   -0.7500   -1.2990    0.0000 C   0  0  0  0  0  0  0  0  0  0  0  0
   -1.5000    0.0000    0.0000 C   0  0  0  0  0  0  0  0  0  0  0  0
   -0.7500    1.2990    0.0000 C   0  0  0  0  0  0  0  0  0  0  0  0
    0.7500    1.2990    0.0000 C   0  0  0  0  0  0  0  0  0  0  0  0
  1  2  3  0
  2  3  1  0
  3  4  3  0
  4  5  1  0
  5  6  1  0
  6  7  3  0
  7  8  1  0
  8  9  2  0
  9 10  1  0
 10 11  2  0
 11 12  1  0
 12 13  2  0
 13  8  1  0
M  END
>  <Title>  (475) 
idAAQIgen10

$$$$

     RDKit          2D

 78 79  0  0  0  0  0  0  0  0999 V2000
    5.4862   -4.2956    0.0000 C   0  0  0  0  0  0  0  0  0  0  0  0
    6.2775   -4.3925    0.0000 C   0  0  0  0  0  0  0  0  0  0  0  0
    6.1910   -5.8900    0.0000 C   0  0  0  0  0  0  0  0  0  0  0  0
    6.2967   -7.3863    0.0000 C   0  0  0  0  0  0  0  0  0  0  0  0
    6.5928   -8.8568    0.0000 C   0  0  0  0  0  0  0  0  0  0  0  0
    7.0746  -10.2773    0.0000 C   0  0  0  0  0  0  0  0  0  0  0  0
    7.7341  -11.6245    0.0000 C   0  0  0  0  0  0  0  0  0  0  0  0
    8.5604  -12.8764    0.0000 C   0  0  0  0  0  0  0  0  0  0  0  0
    9.5401  -14.0123    0.0000 C   0  0  0  0  0  0  0  0  0  0  0  0
   10.6569  -15.0136    0.0000 C   0  0  0  0  0  0  0  0  0  0  0  0
   11.8927  -15.8639    0.0000 C   0  0  0  0  0  0  0  0  0  0  0  0
   13.2270  -16.5492    0.0000 C   0  0  0  0  0  0  0  0  0  0  0  0
   14.6380  -17.0582    0.0000 C   0  0  0  0  0  0  0  0  0  0  0  0
   16.1025  -17.3826    0.0000 C   0  0  0  0  0  0  0  0  0  0  0  0
   17.5965  -17.5170    0.0000 C   0  0  0  0  0  0  0  0  0  0  0  0
   19.0953  -17.4593    0.0000 C   0  0  0  0  0  0  0  0  0  0  0  0
   20.5746  -17.2104    0.0000 C   0  0  0  0  0  0  0  0  0  0  0  0
   22.0098  -16.7744    0.0000 C   0  0  0  0  0  0  0  0  0  0  0  0
   23.3775  -16.1585    0.0000 C   0  0  0  0  0  0  0  0  0  0  0  0
   24.6552  -15.3727    0.0000 C   0  0  0  0  0  0  0  0  0  0  0  0
   25.8219  -14.4300    0.0000 C   0  0  0  0  0  0  0  0  0  0  0  0
   26.8585  -13.3458    0.0000 C   0  0  0  0  0  0  0  0  0  0  0  0
   27.7480  -12.1379    0.0000 C   0  0  0  0  0  0  0  0  0  0  0  0
   28.4756  -10.8262    0.0000 C   0  0  0  0  0  0  0  0  0  0  0  0
   29.0296   -9.4323    0.0000 C   0  0  0  0  0  0  0  0  0  0  0  0
   29.4008   -7.9789    0.0000 C   0  0  0  0  0  0  0  0  0  0  0  0
   29.5831   -6.4901    0.0000 C   0  0  0  0  0  0  0  0  0  0  0  0
   29.5734   -4.9901    0.0000 C   0  0  0  0  0  0  0  0  0  0  0  0
   29.3721   -3.5037    0.0000 C   0  0  0  0  0  0  0  0  0  0  0  0
   28.9823   -2.0552    0.0000 C   0  0  0  0  0  0  0  0  0  0  0  0
   28.4105   -0.6685    0.0000 C   0  0  0  0  0  0  0  0  0  0  0  0
   27.6661    0.6338    0.0000 C   0  0  0  0  0  0  0  0  0  0  0  0
   26.7612    1.8301    0.0000 C   0  0  0  0  0  0  0  0  0  0  0  0
   25.7108    2.9009    0.0000 C   0  0  0  0  0  0  0  0  0  0  0  0
   24.5321    3.8286    0.0000 C   0  0  0  0  0  0  0  0  0  0  0  0
   23.2444    4.5980    0.0000 C   0  0  0  0  0  0  0  0  0  0  0  0
   21.8689    5.1964    0.0000 C   0  0  0  0  0  0  0  0  0  0  0  0
   20.4282    5.6139    0.0000 C   0  0  0  0  0  0  0  0  0  0  0  0
   18.9459    5.8438    0.0000 C   0  0  0  0  0  0  0  0  0  0  0  0
   17.4464    5.8823    0.0000 C   0  0  0  0  0  0  0  0  0  0  0  0
   15.9543    5.7287    0.0000 C   0  0  0  0  0  0  0  0  0  0  0  0
   14.4941    5.3855    0.0000 C   0  0  0  0  0  0  0  0  0  0  0  0
   13.0897    4.8585    0.0000 C   0  0  0  0  0  0  0  0  0  0  0  0
   11.7643    4.1561    0.0000 C   0  0  0  0  0  0  0  0  0  0  0  0
   10.5396    3.2901    0.0000 C   0  0  0  0  0  0  0  0  0  0  0  0
    9.4357    2.2745    0.0000 C   0  0  0  0  0  0  0  0  0  0  0  0
    8.4707    1.1262    0.0000 C   0  0  0  0  0  0  0  0  0  0  0  0
    7.6604   -0.1362    0.0000 C   0  0  0  0  0  0  0  0  0  0  0  0
    7.0183   -1.4918    0.0000 C   0  0  0  0  0  0  0  0  0  0  0  0
    6.4751   -0.0000    0.0000 C   0  0  0  0  0  0  0  0  0  0  0  0
    6.3336    1.3462    0.0000 C   0  0  0  0  0  0  0  0  0  0  0  0
    5.9153    2.6337    0.0000 C   0  0  0  0  0  0  0  0  0  0  0  0
    5.2384    3.8060    0.0000 C   0  0  0  0  0  0  0  0  0  0  0  0
    4.3327    4.8119    0.0000 C   0  0  0  0  0  0  0  0  0  0  0  0
    3.2375    5.6076    0.0000 C   0  0  0  0  0  0  0  0  0  0  0  0
    2.0009    6.1582    0.0000 C   0  0  0  0  0  0  0  0  0  0  0  0
    0.6768    6.4396    0.0000 C   0  0  0  0  0  0  0  0  0  0  0  0
   -0.6768    6.4396    0.0000 C   0  0  0  0  0  0  0  0  0  0  0  0
   -2.0009    6.1582    0.0000 C   0  0  0  0  0  0  0  0  0  0  0  0
   -3.2375    5.6076    0.0000 C   0  0  0  0  0  0  0  0  0  0  0  0
   -4.3327    4.8119    0.0000 C   0  0  0  0  0  0  0  0  0  0  0  0
   -5.2384    3.8060    0.0000 C   0  0  0  0  0  0  0  0  0  0  0  0
   -5.9153    2.6337    0.0000 C   0  0  0  0  0  0  0  0  0  0  0  0
   -6.3336    1.3462    0.0000 C   0  0  0  0  0  0  0  0  0  0  0  0
   -6.4751    0.0000    0.0000 C   0  0  0  0  0  0  0  0  0  0  0  0
   -6.3336   -1.3462    0.0000 C   0  0  0  0  0  0  0  0  0  0  0  0
   -5.9153   -2.6337    0.0000 C   0  0  0  0  0  0  0  0  0  0  0  0
   -5.2384   -3.8060    0.0000 C   0  0  0  0  0  0  0  0  0  0  0  0
   -4.3327   -4.8119    0.0000 C   0  0  0  0  0  0  0  0  0  0  0  0
   -3.2375   -5.6076    0.0000 C   0  0  0  0  0  0  0  0  0  0  0  0
   -2.0009   -6.1582    0.0000 C   0  0  0  0  0  0  0  0  0  0  0  0
   -0.6768   -6.4396    0.0000 C   0  0  0  0  0  0  0  0  0  0  0  0
    0.6768   -6.4396    0.0000 C   0  0  0  0  0  0  0  0  0  0  0  0
    2.0009   -6.1582    0.0000 C   0  0  0  0  0  0  0  0  0  0  0  0
    3.2375   -5.6076    0.0000 C   0  0  0  0  0  0  0  0  0  0  0  0
    4.3327   -4.8119    0.0000 C   0  0  0  0  0  0  0  0  0  0  0  0
    5.2384   -3.8060    0.0000 C   0  0  0  0  0  0  0  0  0  0  0  0
    6.5548   -2.9184    0.0000 C   0  0  0  0  0  0  0  0  0  0  0  0
  1  2  1  0
  2  3  1  0
  3  4  1  0
  4  5  1  0
  5  6  1  0
  6  7  1  0
  7  8  1  0
  8  9  1  0
  9 10  1  0
 10 11  1  0
 11 12  1  0
 12 13  1  0
 13 14  1  0
 14 15  1  0
 15 16  1  0
 16 17  1  0
 17 18  1  0
 18 19  1  0
 19 20  1  0
 20 21  1  0
 21 22  1  0
 22 23  1  0
 23 24  1  0
 24 25  1  0
 25 26  1  0
 26 27  1  0
 27 28  1  0
 28 29  1  0
 29 30  1  0
 30 31  1  0
 31 32  1  0
 32 33  1  0
 33 34  1  0
 34 35  1  0
 35 36  1  0
 36 37  1  0
 37 38  1  0
 38 39  1  0
 39 40  1  0
 40 41  1  0
 41 42  1  0
 42 43  1  0
 43 44  1  0
 44 45  1  0
 45 46  1  0
 46 47  1  0
 47 48  1  0
 48 49  1  0
 49 50  1  0
 50 51  1  0
 51 52  1  0
 52 53  1  0
 53 54  1  0
 54 55  1  0
 55 56  1  0
 56 57  1  0
 57 58  1  0
 58 59  1  0
 59 60  1  0
 60 61  1  0
 61 62  1  0
 62 63  1  0
 63 64  1  0
 64 65  1  0
 65 66  1  0
 66 67  1  0
 67 68  1  0
 68 69  1  0
 69 70  1  0
 70 71  1  0
 71 72  2  0
 72 73  1  0
 73 74  2  0
 74 75  1  0
 75 76  2  0
 76 77  1  0
 77 78  2  0
 78  2  1  0
 78 49  1  0
M  END
>  <Title>  (476) 
idAAQJgen10

$$$$

     RDKit          2D

  8  8  0  0  0  0  0  0  0  0999 V2000
    2.7760    0.0000    0.0000 C   0  0  0  0  0  0  0  0  0  0  0  0
    1.2760    0.0000    0.0000 C   0  0  0  0  0  0  0  0  0  0  0  0
    0.3943    1.2135    0.0000 C   0  0  0  0  0  0  0  0  0  0  0  0
   -1.0323    0.7500    0.0000 C   0  0  0  0  0  0  0  0  0  0  0  0
   -2.2458    1.6317    0.0000 C   0  0  0  0  0  0  0  0  0  0  0  0
   -1.0323   -0.7500    0.0000 C   0  0  0  0  0  0  0  0  0  0  0  0
   -2.2458   -1.6317    0.0000 C   0  0  0  0  0  0  0  0  0  0  0  0
    0.3943   -1.2135    0.0000 N   0  0  0  0  0  0  0  0  0  0  0  0
  1  2  1  0
  2  3  2  0
  3  4  1  0
  4  5  1  0
  4  6  1  0
  6  7  1  0
  6  8  1  0
  8  2  1  0
M  END
>  <Title>  (477) 
idAAQKgen10

$$$$

     RDKit          2D

 63 72  0  0  0  0  0  0  0  0999 V2000
    6.5139   -6.7631    0.0000 C   0  0  0  0  0  0  0  0  0  0  0  0
    5.0181   -6.6510    0.0000 C   0  0  0  0  0  0  0  0  0  0  0  0
    4.9060   -5.1552    0.0000 C   0  0  0  0  0  0  0  0  0  0  0  0
    4.3580   -3.7589    0.0000 C   0  0  0  0  0  0  0  0  0  0  0  0
    3.4227   -2.5862    0.0000 C   0  0  0  0  0  0  0  0  0  0  0  0
    2.1834   -1.7412    0.0000 C   0  0  0  0  0  0  0  0  0  0  0  0
    2.8342   -0.3897    0.0000 O   0  0  0  0  0  0  0  0  0  0  0  0
    4.3300   -0.2776    0.0000 C   0  0  0  0  0  0  0  0  0  0  0  0
    5.1750   -1.5170    0.0000 O   0  0  0  0  0  0  0  0  0  0  0  0
    4.9808    1.0738    0.0000 N   0  0  0  0  0  0  0  0  0  0  0  0
    6.4766    1.1859    0.0000 C   0  0  0  0  0  0  0  0  0  0  0  0
    7.1274    2.5374    0.0000 C   0  0  0  0  0  0  0  0  0  0  0  0
    6.2825    3.7767    0.0000 N   0  0  0  0  0  0  0  0  0  0  0  0
    4.7867    3.6646    0.0000 N   0  0  0  0  0  0  0  0  0  0  0  0
    4.1358    2.3132    0.0000 N   0  0  0  0  0  0  0  0  0  0  0  0
    0.7500   -1.2990    0.0000 C   0  0  0  0  0  0  0  0  0  0  0  0
    1.5000    0.0000    0.0000 C   0  0  0  0  0  0  0  0  0  0  0  0
    0.7500    1.2990    0.0000 C   0  0  0  0  0  0  0  0  0  0  0  0
   -0.7500    1.2990    0.0000 C   0  0  0  0  0  0  0  0  0  0  0  0
   -1.5000    0.0000    0.0000 C   0  0  0  0  0  0  0  0  0  0  0  0
   -0.7500   -1.2990    0.0000 C   0  0  0  0  0  0  0  0  0  0  0  0
   -2.1834   -1.7412    0.0000 C   0  0  0  0  0  0  0  0  0  0  0  0
   -2.2955   -0.2454    0.0000 C   0  0  0  0  0  0  0  0  0  0  0  0
   -3.6469    0.4055    0.0000 C   0  0  0  0  0  0  0  0  0  0  0  0
   -4.8863   -0.4395    0.0000 C   0  0  0  0  0  0  0  0  0  0  0  0
   -4.7742   -1.9353    0.0000 C   0  0  0  0  0  0  0  0  0  0  0  0
   -3.4227   -2.5862    0.0000 C   0  0  0  0  0  0  0  0  0  0  0  0
   -4.3580   -3.7589    0.0000 C   0  0  0  0  0  0  0  0  0  0  0  0
   -5.2932   -2.5862    0.0000 C   0  0  0  0  0  0  0  0  0  0  0  0
   -6.7764   -2.8097    0.0000 C   0  0  0  0  0  0  0  0  0  0  0  0
   -7.3244   -4.2060    0.0000 C   0  0  0  0  0  0  0  0  0  0  0  0
   -6.3892   -5.3788    0.0000 C   0  0  0  0  0  0  0  0  0  0  0  0
   -4.9060   -5.1552    0.0000 C   0  0  0  0  0  0  0  0  0  0  0  0
   -5.0181   -6.6510    0.0000 C   0  0  0  0  0  0  0  0  0  0  0  0
   -6.4514   -6.2089    0.0000 C   0  0  0  0  0  0  0  0  0  0  0  0
   -7.5510   -7.2291    0.0000 C   0  0  0  0  0  0  0  0  0  0  0  0
   -7.2172   -8.6915    0.0000 C   0  0  0  0  0  0  0  0  0  0  0  0
   -5.7839   -9.1337    0.0000 C   0  0  0  0  0  0  0  0  0  0  0  0
   -4.6843   -8.1134    0.0000 C   0  0  0  0  0  0  0  0  0  0  0  0
   -3.9343   -9.4124    0.0000 C   0  0  0  0  0  0  0  0  0  0  0  0
   -5.3676   -9.8546    0.0000 C   0  0  0  0  0  0  0  0  0  0  0  0
   -5.7014  -11.3170    0.0000 C   0  0  0  0  0  0  0  0  0  0  0  0
   -4.6018  -12.3372    0.0000 C   0  0  0  0  0  0  0  0  0  0  0  0
   -3.1685  -11.8951    0.0000 C   0  0  0  0  0  0  0  0  0  0  0  0
   -2.8347  -10.4327    0.0000 C   0  0  0  0  0  0  0  0  0  0  0  0
   -1.4832  -11.0835    0.0000 C   0  0  0  0  0  0  0  0  0  0  0  0
   -2.4185  -12.2563    0.0000 C   0  0  0  0  0  0  0  0  0  0  0  0
   -1.8705  -13.6526    0.0000 C   0  0  0  0  0  0  0  0  0  0  0  0
   -0.3872  -13.8762    0.0000 C   0  0  0  0  0  0  0  0  0  0  0  0
    0.5480  -12.7034    0.0000 C   0  0  0  0  0  0  0  0  0  0  0  0
   -0.0000  -11.3071    0.0000 C   0  0  0  0  0  0  0  0  0  0  0  0
    1.4832  -11.0835    0.0000 C   0  0  0  0  0  0  0  0  0  0  0  0
    1.3712  -12.5793    0.0000 C   0  0  0  0  0  0  0  0  0  0  0  0
    2.6105  -13.4243    0.0000 C   0  0  0  0  0  0  0  0  0  0  0  0
    3.9620  -12.7735    0.0000 C   0  0  0  0  0  0  0  0  0  0  0  0
    4.0741  -11.2777    0.0000 C   0  0  0  0  0  0  0  0  0  0  0  0
    2.8347  -10.4327    0.0000 C   0  0  0  0  0  0  0  0  0  0  0  0
    3.9343   -9.4124    0.0000 C   0  0  0  0  0  0  0  0  0  0  0  0
    4.6843  -10.7115    0.0000 C   0  0  0  0  0  0  0  0  0  0  0  0
    6.1843  -10.7115    0.0000 C   0  0  0  0  0  0  0  0  0  0  0  0
    6.9343   -9.4124    0.0000 C   0  0  0  0  0  0  0  0  0  0  0  0
    6.1843   -8.1134    0.0000 C   0  0  0  0  0  0  0  0  0  0  0  0
    4.6843   -8.1134    0.0000 C   0  0  0  0  0  0  0  0  0  0  0  0
  1  2  1  0
  2  3  1  0
  3  4  2  0
  4  5  1  0
  5  6  2  0
  6  7  1  0
  7  8  1  0
  8  9  2  0
  8 10  1  0
 10 11  1  0
 11 12  1  0
 12 13  1  0
 13 14  2  0
 14 15  1  0
  6 16  1  0
 16 17  2  0
 17 18  1  0
 18 19  2  0
 19 20  1  0
 20 21  2  0
 21 22  1  0
 22 23  2  0
 23 24  1  0
 24 25  2  0
 25 26  1  0
 26 27  2  0
 27 28  1  0
 28 29  2  0
 29 30  1  0
 30 31  2  0
 31 32  1  0
 32 33  2  0
 33 34  1  0
 34 35  2  0
 35 36  1  0
 36 37  2  0
 37 38  1  0
 38 39  2  0
 39 40  1  0
 40 41  2  0
 41 42  1  0
 42 43  2  0
 43 44  1  0
 44 45  2  0
 45 46  1  0
 46 47  2  0
 47 48  1  0
 48 49  2  0
 49 50  1  0
 50 51  2  0
 51 52  1  0
 52 53  2  0
 53 54  1  0
 54 55  2  0
 55 56  1  0
 56 57  2  0
 57 58  1  0
 58 59  2  0
 59 60  1  0
 60 61  2  0
 61 62  1  0
 62 63  2  0
 63  2  1  0
 15 10  1  0
 21 16  1  0
 27 22  1  0
 33 28  1  0
 39 34  1  0
 45 40  1  0
 51 46  1  0
 57 52  1  0
 63 58  1  0
M  END
>  <Title>  (478) 
idAAQLgen10

$$$$

     RDKit          2D

 21 22  0  0  0  0  0  0  0  0999 V2000
   -3.0367   -0.7771    0.0000 C   0  0  0  0  0  0  0  0  0  0  0  0
   -2.1015   -1.9499    0.0000 C   0  0  0  0  0  0  0  0  0  0  0  0
   -3.0367   -3.1226    0.0000 C   0  0  0  0  0  0  0  0  0  0  0  0
   -3.3705   -4.5850    0.0000 C   0  0  0  0  0  0  0  0  0  0  0  0
   -3.0367   -6.0474    0.0000 C   0  0  0  0  0  0  0  0  0  0  0  0
   -4.3881   -6.6982    0.0000 C   0  0  0  0  0  0  0  0  0  0  0  0
   -5.7396   -7.3490    0.0000 N   0  0  0  0  0  0  0  0  0  0  0  0
   -2.1015   -7.2201    0.0000 C   0  0  0  0  0  0  0  0  0  0  0  0
   -0.7500   -7.8710    0.0000 C   0  0  0  0  0  0  0  0  0  0  0  0
    0.7500   -7.8710    0.0000 C   0  0  0  0  0  0  0  0  0  0  0  0
    2.1015   -7.2201    0.0000 C   0  0  0  0  0  0  0  0  0  0  0  0
    3.0367   -6.0474    0.0000 C   0  0  0  0  0  0  0  0  0  0  0  0
    3.3705   -4.5850    0.0000 C   0  0  0  0  0  0  0  0  0  0  0  0
    3.0367   -3.1226    0.0000 C   0  0  0  0  0  0  0  0  0  0  0  0
    2.1015   -1.9499    0.0000 N   0  0  0  0  0  0  0  0  0  0  0  0
    0.7500   -1.2990    0.0000 C   0  0  0  0  0  0  0  0  0  0  0  0
    1.5000    0.0000    0.0000 C   0  0  0  0  0  0  0  0  0  0  0  0
    0.7500    1.2990    0.0000 C   0  0  0  0  0  0  0  0  0  0  0  0
   -0.7500    1.2990    0.0000 C   0  0  0  0  0  0  0  0  0  0  0  0
   -1.5000    0.0000    0.0000 C   0  0  0  0  0  0  0  0  0  0  0  0
   -0.7500   -1.2990    0.0000 C   0  0  0  0  0  0  0  0  0  0  0  0
  1  2  1  0
  2  3  1  0
  3  4  3  0
  4  5  1  0
  5  6  1  0
  6  7  3  0
  5  8  1  0
  8  9  2  0
  9 10  1  0
 10 11  2  0
 11 12  1  0
 12 13  2  0
 13 14  1  0
 14 15  2  0
 15 16  1  0
 16 17  2  0
 17 18  1  0
 18 19  2  0
 19 20  1  0
 20 21  2  0
 21  2  1  0
 21 16  1  0
M  END
>  <Title>  (479) 
idAAQMgen10

$$$$

     RDKit          2D

  9  9  0  0  0  0  0  0  0  0999 V2000
    4.2760   -0.0000    0.0000 C   0  0  0  0  0  0  0  0  0  0  0  0
    2.7760    0.0000    0.0000 C   0  0  0  0  0  0  0  0  0  0  0  0
    1.2760    0.0000    0.0000 C   0  0  0  0  0  0  0  0  0  0  0  0
    0.3943    1.2135    0.0000 C   0  0  0  0  0  0  0  0  0  0  0  0
   -1.0323    0.7500    0.0000 C   0  0  0  0  0  0  0  0  0  0  0  0
   -2.2458    1.6317    0.0000 C   0  0  0  0  0  0  0  0  0  0  0  0
   -1.0323   -0.7500    0.0000 C   0  0  0  0  0  0  0  0  0  0  0  0
   -2.2458   -1.6317    0.0000 C   0  0  0  0  0  0  0  0  0  0  0  0
    0.3943   -1.2135    0.0000 N   0  0  0  0  0  0  0  0  0  0  0  0
  1  2  3  0
  2  3  1  0
  3  4  2  0
  4  5  1  0
  5  6  1  0
  5  7  2  0
  7  8  1  0
  7  9  1  0
  9  3  1  0
M  END
>  <Title>  (480) 
idAAQNgen10

$$$$

     RDKit          2D

 68 78  0  0  0  0  0  0  0  0999 V2000
    6.4958   -4.6081    0.0000 C   0  0  0  0  0  0  0  0  0  0  0  0
    5.0565   -5.0307    0.0000 C   0  0  0  0  0  0  0  0  0  0  0  0
    4.4334   -3.6662    0.0000 C   0  0  0  0  0  0  0  0  0  0  0  0
    3.4511   -2.5326    0.0000 C   0  0  0  0  0  0  0  0  0  0  0  0
    2.1892   -1.7216    0.0000 C   0  0  0  0  0  0  0  0  0  0  0  0
    2.8124   -0.3572    0.0000 C   0  0  0  0  0  0  0  0  0  0  0  0
    1.9423    0.8647    0.0000 O   0  0  0  0  0  0  0  0  0  0  0  0
    4.3056   -0.2146    0.0000 O   0  0  0  0  0  0  0  0  0  0  0  0
    4.9287    1.1498    0.0000 C   0  0  0  0  0  0  0  0  0  0  0  0
    6.4219    1.2924    0.0000 N   0  0  0  0  0  0  0  0  0  0  0  0
    7.0450    2.6569    0.0000 N   0  0  0  0  0  0  0  0  0  0  0  0
    6.1749    3.8787    0.0000 N   0  0  0  0  0  0  0  0  0  0  0  0
    4.6817    3.7362    0.0000 N   0  0  0  0  0  0  0  0  0  0  0  0
    4.0586    2.3717    0.0000 N   0  0  0  0  0  0  0  0  0  0  0  0
    0.7500   -1.2990    0.0000 C   0  0  0  0  0  0  0  0  0  0  0  0
    1.5000    0.0000    0.0000 C   0  0  0  0  0  0  0  0  0  0  0  0
    0.7500    1.2990    0.0000 C   0  0  0  0  0  0  0  0  0  0  0  0
   -0.7500    1.2990    0.0000 C   0  0  0  0  0  0  0  0  0  0  0  0
   -1.5000    0.0000    0.0000 C   0  0  0  0  0  0  0  0  0  0  0  0
   -0.7500   -1.2990    0.0000 C   0  0  0  0  0  0  0  0  0  0  0  0
   -2.1892   -1.7216    0.0000 C   0  0  0  0  0  0  0  0  0  0  0  0
   -2.2606   -0.2233    0.0000 C   0  0  0  0  0  0  0  0  0  0  0  0
   -3.5939    0.4640    0.0000 C   0  0  0  0  0  0  0  0  0  0  0  0
   -4.8557   -0.3470    0.0000 C   0  0  0  0  0  0  0  0  0  0  0  0
   -4.7844   -1.8453    0.0000 C   0  0  0  0  0  0  0  0  0  0  0  0
   -3.4511   -2.5326    0.0000 C   0  0  0  0  0  0  0  0  0  0  0  0
   -4.4334   -3.6662    0.0000 C   0  0  0  0  0  0  0  0  0  0  0  0
   -5.3035   -2.4444    0.0000 C   0  0  0  0  0  0  0  0  0  0  0  0
   -6.7967   -2.5869    0.0000 C   0  0  0  0  0  0  0  0  0  0  0  0
   -7.4198   -3.9514    0.0000 C   0  0  0  0  0  0  0  0  0  0  0  0
   -6.5497   -5.1733    0.0000 C   0  0  0  0  0  0  0  0  0  0  0  0
   -5.0565   -5.0307    0.0000 C   0  0  0  0  0  0  0  0  0  0  0  0
   -5.2700   -6.5154    0.0000 C   0  0  0  0  0  0  0  0  0  0  0  0
   -6.6626   -5.9579    0.0000 C   0  0  0  0  0  0  0  0  0  0  0  0
   -7.8416   -6.8851    0.0000 C   0  0  0  0  0  0  0  0  0  0  0  0
   -7.6282   -8.3699    0.0000 C   0  0  0  0  0  0  0  0  0  0  0  0
   -6.2356   -8.9274    0.0000 C   0  0  0  0  0  0  0  0  0  0  0  0
   -5.0565   -8.0001    0.0000 C   0  0  0  0  0  0  0  0  0  0  0  0
   -4.4334   -9.3646    0.0000 C   0  0  0  0  0  0  0  0  0  0  0  0
   -5.9063   -9.6485    0.0000 C   0  0  0  0  0  0  0  0  0  0  0  0
   -6.3969  -11.0660    0.0000 C   0  0  0  0  0  0  0  0  0  0  0  0
   -5.4146  -12.1996    0.0000 C   0  0  0  0  0  0  0  0  0  0  0  0
   -3.9417  -11.9157    0.0000 C   0  0  0  0  0  0  0  0  0  0  0  0
   -3.4511  -10.4982    0.0000 C   0  0  0  0  0  0  0  0  0  0  0  0
   -2.1892  -11.3092    0.0000 C   0  0  0  0  0  0  0  0  0  0  0  0
   -3.2748  -12.3443    0.0000 C   0  0  0  0  0  0  0  0  0  0  0  0
   -2.9212  -13.8020    0.0000 C   0  0  0  0  0  0  0  0  0  0  0  0
   -1.4820  -14.2246    0.0000 C   0  0  0  0  0  0  0  0  0  0  0  0
   -0.3964  -13.1895    0.0000 C   0  0  0  0  0  0  0  0  0  0  0  0
   -0.7500  -11.7318    0.0000 C   0  0  0  0  0  0  0  0  0  0  0  0
    0.7500  -11.7318    0.0000 C   0  0  0  0  0  0  0  0  0  0  0  0
    0.3964  -13.1895    0.0000 C   0  0  0  0  0  0  0  0  0  0  0  0
    1.4820  -14.2246    0.0000 C   0  0  0  0  0  0  0  0  0  0  0  0
    2.9212  -13.8020    0.0000 C   0  0  0  0  0  0  0  0  0  0  0  0
    3.2748  -12.3443    0.0000 C   0  0  0  0  0  0  0  0  0  0  0  0
    2.1892  -11.3092    0.0000 C   0  0  0  0  0  0  0  0  0  0  0  0
    3.4511  -10.4982    0.0000 C   0  0  0  0  0  0  0  0  0  0  0  0
    3.9417  -11.9157    0.0000 C   0  0  0  0  0  0  0  0  0  0  0  0
    5.4146  -12.1996    0.0000 C   0  0  0  0  0  0  0  0  0  0  0  0
    6.3969  -11.0660    0.0000 C   0  0  0  0  0  0  0  0  0  0  0  0
    5.9063   -9.6485    0.0000 C   0  0  0  0  0  0  0  0  0  0  0  0
    4.4334   -9.3646    0.0000 C   0  0  0  0  0  0  0  0  0  0  0  0
    5.0565   -8.0001    0.0000 C   0  0  0  0  0  0  0  0  0  0  0  0
    6.2356   -8.9274    0.0000 C   0  0  0  0  0  0  0  0  0  0  0  0
    7.6282   -8.3699    0.0000 C   0  0  0  0  0  0  0  0  0  0  0  0
    7.8416   -6.8851    0.0000 C   0  0  0  0  0  0  0  0  0  0  0  0
    6.6626   -5.9579    0.0000 C   0  0  0  0  0  0  0  0  0  0  0  0
    5.2700   -6.5154    0.0000 C   0  0  0  0  0  0  0  0  0  0  0  0
  1  2  1  0
  2  3  1  0
  3  4  2  0
  4  5  1  0
  5  6  1  0
  6  7  2  0
  6  8  1  0
  8  9  1  0
  9 10  2  0
 10 11  1  0
 11 12  2  0
 12 13  1  0
 13 14  2  0
  5 15  1  0
 15 16  2  0
 16 17  1  0
 17 18  2  0
 18 19  1  0
 19 20  2  0
 20 21  1  0
 21 22  2  0
 22 23  1  0
 23 24  2  0
 24 25  1  0
 25 26  2  0
 26 27  1  0
 27 28  2  0
 28 29  1  0
 29 30  2  0
 30 31  1  0
 31 32  2  0
 32 33  1  0
 33 34  2  0
 34 35  1  0
 35 36  2  0
 36 37  1  0
 37 38  2  0
 38 39  1  0
 39 40  2  0
 40 41  1  0
 41 42  2  0
 42 43  1  0
 43 44  2  0
 44 45  1  0
 45 46  2  0
 46 47  1  0
 47 48  2  0
 48 49  1  0
 49 50  2  0
 50 51  1  0
 51 52  2  0
 52 53  1  0
 53 54  2  0
 54 55  1  0
 55 56  2  0
 56 57  1  0
 57 58  2  0
 58 59  1  0
 59 60  2  0
 60 61  1  0
 61 62  2  0
 62 63  1  0
 63 64  2  0
 64 65  1  0
 65 66  2  0
 66 67  1  0
 67 68  2  0
 68  2  1  0
 14  9  1  0
 20 15  1  0
 26 21  1  0
 32 27  1  0
 38 33  1  0
 44 39  1  0
 50 45  1  0
 56 51  1  0
 62 57  1  0
 68 63  1  0
M  END
>  <Title>  (481) 
idAAQOgen10

$$$$

     RDKit          2D

  9  8  0  0  0  0  0  0  0  0999 V2000
    0.0000    0.0000    0.0000 C   0  0  0  0  0  0  0  0  0  0  0  0
   -0.0000   -1.5000    0.0000 C   0  0  0  0  0  0  0  0  0  0  0  0
   -0.0000   -3.0000    0.0000 C   0  0  0  0  0  0  0  0  0  0  0  0
   -0.0000   -4.5000    0.0000 C   0  0  0  0  0  0  0  0  0  0  0  0
   -0.0000   -6.0000    0.0000 C   0  0  0  0  0  0  0  0  0  0  0  0
    1.2990   -6.7500    0.0000 C   0  0  0  0  0  0  0  0  0  0  0  0
    2.5981   -7.5000    0.0000 C   0  0  0  0  0  0  0  0  0  0  0  0
    3.8971   -8.2500    0.0000 C   0  0  0  0  0  0  0  0  0  0  0  0
    5.1962   -9.0000    0.0000 N   0  0  0  0  0  0  0  0  0  0  0  0
  1  2  3  0
  2  3  1  0
  3  4  3  0
  4  5  1  0
  5  6  1  0
  6  7  3  0
  7  8  1  0
  8  9  3  0
M  END
>  <Title>  (482) 
idAAQPgen10

$$$$

     RDKit          2D

 18 19  0  0  0  0  0  0  0  0999 V2000
    1.5000   -7.7942    0.0000 C   0  0  0  0  0  0  0  0  0  0  0  0
    0.7500   -6.4952    0.0000 C   0  0  0  0  0  0  0  0  0  0  0  0
    1.5000   -5.1962    0.0000 N   0  0  0  0  0  0  0  0  0  0  0  0
    0.7500   -3.8971    0.0000 C   0  0  0  0  0  0  0  0  0  0  0  0
   -0.7500   -3.8971    0.0000 O   0  0  0  0  0  0  0  0  0  0  0  0
    1.5000   -2.5981    0.0000 N   0  0  0  0  0  0  0  0  0  0  0  0
    0.7500   -1.2990    0.0000 C   0  0  0  0  0  0  0  0  0  0  0  0
    1.5000    0.0000    0.0000 N   0  0  0  0  0  0  0  0  0  0  0  0
    0.7500    1.2990    0.0000 C   0  0  0  0  0  0  0  0  0  0  0  0
   -0.7500    1.2990    0.0000 C   0  0  0  0  0  0  0  0  0  0  0  0
   -1.5000    0.0000    0.0000 N   0  0  0  0  0  0  0  0  0  0  0  0
   -0.7500   -1.2990    0.0000 N   0  0  0  0  0  0  0  0  0  0  0  0
   -0.7500   -6.4952    0.0000 C   0  0  0  0  0  0  0  0  0  0  0  0
   -1.5000   -5.1962    0.0000 C   0  0  0  0  0  0  0  0  0  0  0  0
   -3.0000   -5.1962    0.0000 C   0  0  0  0  0  0  0  0  0  0  0  0
   -3.7500   -6.4952    0.0000 C   0  0  0  0  0  0  0  0  0  0  0  0
   -3.0000   -7.7942    0.0000 C   0  0  0  0  0  0  0  0  0  0  0  0
   -1.5000   -7.7942    0.0000 C   0  0  0  0  0  0  0  0  0  0  0  0
  1  2  1  0
  2  3  1  0
  3  4  1  0
  4  5  2  0
  4  6  1  0
  6  7  1  0
  7  8  2  0
  8  9  1  0
  9 10  2  0
 10 11  1  0
 11 12  2  0
  2 13  1  0
 13 14  2  0
 14 15  1  0
 15 16  2  0
 16 17  1  0
 17 18  2  0
 12  7  1  0
 18 13  1  0
M  END
>  <Title>  (483) 
idAAQQgen10

$$$$

     RDKit          2D

  9  9  0  0  0  0  0  0  0  0999 V2000
    3.0000    0.0000    0.0000 C   0  0  0  0  0  0  0  0  0  0  0  0
    1.5000    0.0000    0.0000 C   0  0  0  0  0  0  0  0  0  0  0  0
    0.7500   -1.2990    0.0000 C   0  0  0  0  0  0  0  0  0  0  0  0
   -0.7500   -1.2990    0.0000 C   0  0  0  0  0  0  0  0  0  0  0  0
   -1.5000   -2.5981    0.0000 C   0  0  0  0  0  0  0  0  0  0  0  0
   -1.5000    0.0000    0.0000 N   0  0  0  0  0  0  0  0  0  0  0  0
   -3.0000    0.0000    0.0000 C   0  0  0  0  0  0  0  0  0  0  0  0
   -0.7500    1.2990    0.0000 C   0  0  0  0  0  0  0  0  0  0  0  0
    0.7500    1.2990    0.0000 C   0  0  0  0  0  0  0  0  0  0  0  0
  1  2  1  0
  2  3  2  0
  3  4  1  0
  4  5  1  0
  4  6  1  0
  6  7  1  0
  6  8  1  0
  8  9  1  0
  9  2  1  0
M  END
>  <Title>  (484) 
idAAQRgen10

$$$$

     RDKit          2D

 20 22  0  0  0  0  0  0  0  0999 V2000
   10.0355    0.6881    0.0000 C   0  0  0  0  0  0  0  0  0  0  0  0
    8.5683    0.3762    0.0000 C   0  0  0  0  0  0  0  0  0  0  0  0
    7.4536    1.3799    0.0000 C   0  0  0  0  0  0  0  0  0  0  0  0
    6.1545    0.6299    0.0000 C   0  0  0  0  0  0  0  0  0  0  0  0
    6.4664   -0.8373    0.0000 C   0  0  0  0  0  0  0  0  0  0  0  0
    5.4627   -1.9520    0.0000 C   0  0  0  0  0  0  0  0  0  0  0  0
    5.9262   -3.3786    0.0000 O   0  0  0  0  0  0  0  0  0  0  0  0
    3.9955   -1.6402    0.0000 N   0  0  0  0  0  0  0  0  0  0  0  0
    2.9918   -2.7549    0.0000 C   0  0  0  0  0  0  0  0  0  0  0  0
    3.3037   -4.2221    0.0000 N   0  0  0  0  0  0  0  0  0  0  0  0
    2.0046   -4.9721    0.0000 N   0  0  0  0  0  0  0  0  0  0  0  0
    0.8899   -3.9684    0.0000 N   0  0  0  0  0  0  0  0  0  0  0  0
    1.5000   -2.5981    0.0000 N   0  0  0  0  0  0  0  0  0  0  0  0
    0.7500   -1.2990    0.0000 C   0  0  0  0  0  0  0  0  0  0  0  0
    1.5000    0.0000    0.0000 C   0  0  0  0  0  0  0  0  0  0  0  0
    0.7500    1.2990    0.0000 C   0  0  0  0  0  0  0  0  0  0  0  0
   -0.7500    1.2990    0.0000 C   0  0  0  0  0  0  0  0  0  0  0  0
   -1.5000    0.0000    0.0000 C   0  0  0  0  0  0  0  0  0  0  0  0
   -0.7500   -1.2990    0.0000 C   0  0  0  0  0  0  0  0  0  0  0  0
    7.9582   -0.9941    0.0000 C   0  0  0  0  0  0  0  0  0  0  0  0
  1  2  1  0
  2  3  1  0
  3  4  2  0
  4  5  1  0
  5  6  1  0
  6  7  2  0
  6  8  1  0
  8  9  1  0
  9 10  2  0
 10 11  1  0
 11 12  2  0
 12 13  1  0
 13 14  1  0
 14 15  2  0
 15 16  1  0
 16 17  2  0
 17 18  1  0
 18 19  2  0
  5 20  2  0
 20  2  1  0
 13  9  1  0
 19 14  1  0
M  END
>  <Title>  (485) 
idAAQSgen10

$$$$

     RDKit          2D

  6  6  0  0  0  0  0  0  0  0999 V2000
    2.7760    0.0000    0.0000 O   0  0  0  0  0  0  0  0  0  0  0  0
    1.2760    0.0000    0.0000 C   0  0  0  0  0  0  0  0  0  0  0  0
    0.3943    1.2135    0.0000 C   0  0  0  0  0  0  0  0  0  0  0  0
   -1.0323    0.7500    0.0000 C   0  0  0  0  0  0  0  0  0  0  0  0
   -1.0323   -0.7500    0.0000 C   0  0  0  0  0  0  0  0  0  0  0  0
    0.3943   -1.2135    0.0000 C   0  0  0  0  0  0  0  0  0  0  0  0
  1  2  1  0
  2  3  2  0
  3  4  1  0
  4  5  2  0
  5  6  1  0
  6  2  1  0
M  END
>  <Title>  (486) 
idAAQTgen10

$$$$

     RDKit          2D

  9  9  0  0  0  0  0  0  0  0999 V2000
    3.0000    0.0000    0.0000 C   0  0  0  0  0  0  0  0  0  0  0  0
    1.5000    0.0000    0.0000 C   0  0  0  0  0  0  0  0  0  0  0  0
    0.7500   -1.2990    0.0000 C   0  0  0  0  0  0  0  0  0  0  0  0
   -0.7500   -1.2990    0.0000 C   0  0  0  0  0  0  0  0  0  0  0  0
   -1.5000   -2.5981    0.0000 C   0  0  0  0  0  0  0  0  0  0  0  0
   -2.2500   -3.8971    0.0000 N   0  0  0  0  0  0  0  0  0  0  0  0
   -1.5000    0.0000    0.0000 C   0  0  0  0  0  0  0  0  0  0  0  0
   -0.7500    1.2990    0.0000 C   0  0  0  0  0  0  0  0  0  0  0  0
    0.7500    1.2990    0.0000 C   0  0  0  0  0  0  0  0  0  0  0  0
  1  2  1  0
  2  3  2  0
  3  4  1  0
  4  5  1  0
  5  6  3  0
  4  7  1  0
  7  8  2  0
  8  9  1  0
  9  2  1  0
M  END
>  <Title>  (487) 
idAAQUgen10

$$$$

     RDKit          2D

 11 11  0  0  0  0  0  0  0  0999 V2000
    2.7760   -5.1962    0.0000 C   0  0  0  0  0  0  0  0  0  0  0  0
    3.5260   -3.8971    0.0000 C   0  0  0  0  0  0  0  0  0  0  0  0
    2.7760   -2.5981    0.0000 C   0  0  0  0  0  0  0  0  0  0  0  0
    3.5260   -1.2990    0.0000 N   0  0  0  0  0  0  0  0  0  0  0  0
    5.0260   -1.2990    0.0000 C   0  0  0  0  0  0  0  0  0  0  0  0
    2.7760    0.0000    0.0000 C   0  0  0  0  0  0  0  0  0  0  0  0
    1.2760    0.0000    0.0000 C   0  0  0  0  0  0  0  0  0  0  0  0
    0.3943    1.2135    0.0000 C   0  0  0  0  0  0  0  0  0  0  0  0
   -1.0323    0.7500    0.0000 C   0  0  0  0  0  0  0  0  0  0  0  0
   -1.0323   -0.7500    0.0000 C   0  0  0  0  0  0  0  0  0  0  0  0
    0.3943   -1.2135    0.0000 C   0  0  0  0  0  0  0  0  0  0  0  0
  1  2  2  0
  2  3  1  0
  3  4  1  0
  4  5  1  0
  4  6  1  0
  6  7  1  0
  7  8  2  0
  8  9  1  0
  9 10  2  0
 10 11  1  0
 11  7  1  0
M  END
>  <Title>  (488) 
idAAQVgen10

$$$$

     RDKit          2D

 13 13  0  0  0  0  0  0  0  0999 V2000
   10.2760   -0.0000    0.0000 C   0  0  0  0  0  0  0  0  0  0  0  0
    8.7760   -0.0000    0.0000 C   0  0  0  0  0  0  0  0  0  0  0  0
    7.2760   -0.0000    0.0000 C   0  0  0  0  0  0  0  0  0  0  0  0
    5.7760   -0.0000    0.0000 C   0  0  0  0  0  0  0  0  0  0  0  0
    4.2760   -0.0000    0.0000 C   0  0  0  0  0  0  0  0  0  0  0  0
    2.7760    0.0000    0.0000 C   0  0  0  0  0  0  0  0  0  0  0  0
    1.2760    0.0000    0.0000 C   0  0  0  0  0  0  0  0  0  0  0  0
    0.3943    1.2135    0.0000 C   0  0  0  0  0  0  0  0  0  0  0  0
   -1.0323    0.7500    0.0000 C   0  0  0  0  0  0  0  0  0  0  0  0
   -2.2458    1.6317    0.0000 C   0  0  0  0  0  0  0  0  0  0  0  0
   -1.0323   -0.7500    0.0000 C   0  0  0  0  0  0  0  0  0  0  0  0
   -2.2458   -1.6317    0.0000 C   0  0  0  0  0  0  0  0  0  0  0  0
    0.3943   -1.2135    0.0000 N   0  0  0  0  0  0  0  0  0  0  0  0
  1  2  3  0
  2  3  1  0
  3  4  3  0
  4  5  1  0
  5  6  3  0
  6  7  1  0
  7  8  2  0
  8  9  1  0
  9 10  1  0
  9 11  2  0
 11 12  1  0
 11 13  1  0
 13  7  1  0
M  END
>  <Title>  (489) 
idAAQWgen10

$$$$

     RDKit          2D

  8  8  0  0  0  0  0  0  0  0999 V2000
    3.0000    0.0000    0.0000 C   0  0  0  0  0  0  0  0  0  0  0  0
    1.5000    0.0000    0.0000 C   0  0  0  0  0  0  0  0  0  0  0  0
    0.7500   -1.2990    0.0000 C   0  0  0  0  0  0  0  0  0  0  0  0
   -0.7500   -1.2990    0.0000 C   0  0  0  0  0  0  0  0  0  0  0  0
   -1.5000    0.0000    0.0000 C   0  0  0  0  0  0  0  0  0  0  0  0
   -0.7500    1.2990    0.0000 C   0  0  0  0  0  0  0  0  0  0  0  0
   -1.5000    2.5981    0.0000 O   0  0  0  0  0  0  0  0  0  0  0  0
    0.7500    1.2990    0.0000 C   0  0  0  0  0  0  0  0  0  0  0  0
  1  2  1  0
  2  3  1  0
  3  4  2  0
  4  5  1  0
  5  6  1  0
  6  7  2  0
  6  8  1  0
  8  2  1  0
M  END
>  <Title>  (490) 
idAAQXgen10

$$$$

     RDKit          2D

 47 54  0  0  0  0  0  0  0  0999 V2000
   -0.7656   -9.3632    0.0000 C   0  0  0  0  0  0  0  0  0  0  0  0
   -2.0899   -8.6588    0.0000 C   0  0  0  0  0  0  0  0  0  0  0  0
   -2.9716   -9.8724    0.0000 C   0  0  0  0  0  0  0  0  0  0  0  0
   -4.3982   -9.4088    0.0000 C   0  0  0  0  0  0  0  0  0  0  0  0
   -4.3982   -7.9088    0.0000 C   0  0  0  0  0  0  0  0  0  0  0  0
   -5.6117   -7.0271    0.0000 N   0  0  0  0  0  0  0  0  0  0  0  0
   -5.4549   -5.5354    0.0000 N   0  0  0  0  0  0  0  0  0  0  0  0
   -6.6684   -4.6537    0.0000 N   0  0  0  0  0  0  0  0  0  0  0  0
   -8.0388   -5.2638    0.0000 N   0  0  0  0  0  0  0  0  0  0  0  0
   -8.1956   -6.7556    0.0000 C   0  0  0  0  0  0  0  0  0  0  0  0
   -9.5659   -7.3657    0.0000 C   0  0  0  0  0  0  0  0  0  0  0  0
  -10.7794   -6.4840    0.0000 C   0  0  0  0  0  0  0  0  0  0  0  0
   -9.7227   -8.8575    0.0000 N   0  0  0  0  0  0  0  0  0  0  0  0
   -8.5091   -9.7391    0.0000 N   0  0  0  0  0  0  0  0  0  0  0  0
   -7.1388   -9.1290    0.0000 N   0  0  0  0  0  0  0  0  0  0  0  0
   -6.9820   -7.6373    0.0000 N   0  0  0  0  0  0  0  0  0  0  0  0
   -2.9716   -7.4453    0.0000 N   0  0  0  0  0  0  0  0  0  0  0  0
   -2.5081   -6.0187    0.0000 C   0  0  0  0  0  0  0  0  0  0  0  0
   -3.5118   -4.9040    0.0000 C   0  0  0  0  0  0  0  0  0  0  0  0
   -3.0482   -3.4774    0.0000 C   0  0  0  0  0  0  0  0  0  0  0  0
   -1.5810   -3.1655    0.0000 C   0  0  0  0  0  0  0  0  0  0  0  0
   -0.5773   -4.2803    0.0000 C   0  0  0  0  0  0  0  0  0  0  0  0
   -1.0409   -5.7068    0.0000 C   0  0  0  0  0  0  0  0  0  0  0  0
   -0.0372   -6.8216    0.0000 C   0  0  0  0  0  0  0  0  0  0  0  0
   -0.5007   -8.2481    0.0000 C   0  0  0  0  0  0  0  0  0  0  0  0
    0.5030   -9.3629    0.0000 C   0  0  0  0  0  0  0  0  0  0  0  0
    1.9702   -9.0510    0.0000 C   0  0  0  0  0  0  0  0  0  0  0  0
    2.4338   -7.6244    0.0000 C   0  0  0  0  0  0  0  0  0  0  0  0
    1.4301   -6.5097    0.0000 C   0  0  0  0  0  0  0  0  0  0  0  0
    1.8936   -5.0831    0.0000 C   0  0  0  0  0  0  0  0  0  0  0  0
    3.3608   -4.7712    0.0000 C   0  0  0  0  0  0  0  0  0  0  0  0
    3.8243   -3.3447    0.0000 C   0  0  0  0  0  0  0  0  0  0  0  0
    2.8206   -2.2299    0.0000 C   0  0  0  0  0  0  0  0  0  0  0  0
    1.3534   -2.5418    0.0000 C   0  0  0  0  0  0  0  0  0  0  0  0
    0.8899   -3.9684    0.0000 C   0  0  0  0  0  0  0  0  0  0  0  0
   -0.5773   -4.2803    0.0000 C   0  0  0  0  0  0  0  0  0  0  0  0
   -1.5810   -3.1655    0.0000 C   0  0  0  0  0  0  0  0  0  0  0  0
   -3.0482   -3.4774    0.0000 C   0  0  0  0  0  0  0  0  0  0  0  0
   -3.5118   -4.9040    0.0000 C   0  0  0  0  0  0  0  0  0  0  0  0
   -2.5081   -6.0187    0.0000 C   0  0  0  0  0  0  0  0  0  0  0  0
   -1.0409   -5.7068    0.0000 C   0  0  0  0  0  0  0  0  0  0  0  0
   -0.0372   -6.8216    0.0000 C   0  0  0  0  0  0  0  0  0  0  0  0
   -0.5007   -8.2481    0.0000 C   0  0  0  0  0  0  0  0  0  0  0  0
    0.5030   -9.3629    0.0000 C   0  0  0  0  0  0  0  0  0  0  0  0
    1.9702   -9.0510    0.0000 C   0  0  0  0  0  0  0  0  0  0  0  0
    2.4338   -7.6244    0.0000 C   0  0  0  0  0  0  0  0  0  0  0  0
    1.4301   -6.5097    0.0000 C   0  0  0  0  0  0  0  0  0  0  0  0
  1  2  1  0
  2  3  2  0
  3  4  1  0
  4  5  2  0
  5  6  1  0
  6  7  1  0
  7  8  2  0
  8  9  1  0
  9 10  2  0
 10 11  1  0
 11 12  1  0
 11 13  2  0
 13 14  1  0
 14 15  2  0
 15 16  1  0
  5 17  1  0
 17 18  1  0
 18 19  2  0
 19 20  1  0
 20 21  2  0
 21 22  1  0
 22 23  2  0
 23 24  1  0
 24 25  2  0
 25 26  1  0
 26 27  2  0
 27 28  1  0
 28 29  2  0
 29 30  1  0
 30 31  2  0
 31 32  1  0
 32 33  2  0
 33 34  1  0
 34 35  2  0
 35 36  1  0
 36 37  2  0
 37 38  1  0
 38 39  2  0
 39 40  1  0
 40 41  2  0
 41 42  1  0
 42 43  2  0
 43 44  1  0
 44 45  2  0
 45 46  1  0
 46 47  2  0
 17  2  1  0
 23 18  1  0
 29 24  1  0
 35 30  1  0
 41 36  1  0
 47 42  1  0
 16  6  1  0
 16 10  1  0
M  END
>  <Title>  (491) 
idAAQYgen10

$$$$

     RDKit          2D

 85 85  0  0  0  0  0  0  0  0999 V2000
   21.5582    0.0000    0.0000 O   0  0  0  0  0  0  0  0  0  0  0  0
   20.0582    0.0000    0.0000 C   0  0  0  0  0  0  0  0  0  0  0  0
   20.0021   -1.4990    0.0000 C   0  0  0  0  0  0  0  0  0  0  0  0
   19.8342   -2.9895    0.0000 C   0  0  0  0  0  0  0  0  0  0  0  0
   19.5553   -4.4634    0.0000 C   0  0  0  0  0  0  0  0  0  0  0  0
   19.1671   -5.9123    0.0000 C   0  0  0  0  0  0  0  0  0  0  0  0
   18.6717   -7.3281    0.0000 C   0  0  0  0  0  0  0  0  0  0  0  0
   18.0718   -8.7029    0.0000 C   0  0  0  0  0  0  0  0  0  0  0  0
   17.3709  -10.0291    0.0000 C   0  0  0  0  0  0  0  0  0  0  0  0
   16.5729  -11.2992    0.0000 C   0  0  0  0  0  0  0  0  0  0  0  0
   15.6821  -12.5061    0.0000 C   0  0  0  0  0  0  0  0  0  0  0  0
   14.7037  -13.6430    0.0000 C   0  0  0  0  0  0  0  0  0  0  0  0
   13.6430  -14.7037    0.0000 C   0  0  0  0  0  0  0  0  0  0  0  0
   12.5061  -15.6821    0.0000 C   0  0  0  0  0  0  0  0  0  0  0  0
   11.2992  -16.5729    0.0000 C   0  0  0  0  0  0  0  0  0  0  0  0
   10.0291  -17.3709    0.0000 C   0  0  0  0  0  0  0  0  0  0  0  0
    8.7029  -18.0718    0.0000 C   0  0  0  0  0  0  0  0  0  0  0  0
    7.3281  -18.6717    0.0000 C   0  0  0  0  0  0  0  0  0  0  0  0
    5.9123  -19.1671    0.0000 C   0  0  0  0  0  0  0  0  0  0  0  0
    4.4634  -19.5553    0.0000 C   0  0  0  0  0  0  0  0  0  0  0  0
    2.9895  -19.8342    0.0000 C   0  0  0  0  0  0  0  0  0  0  0  0
    1.4990  -20.0021    0.0000 C   0  0  0  0  0  0  0  0  0  0  0  0
   -0.0000  -20.0582    0.0000 C   0  0  0  0  0  0  0  0  0  0  0  0
   -1.4990  -20.0021    0.0000 C   0  0  0  0  0  0  0  0  0  0  0  0
   -2.9895  -19.8342    0.0000 C   0  0  0  0  0  0  0  0  0  0  0  0
   -4.4634  -19.5553    0.0000 C   0  0  0  0  0  0  0  0  0  0  0  0
   -5.9123  -19.1671    0.0000 C   0  0  0  0  0  0  0  0  0  0  0  0
   -7.3281  -18.6717    0.0000 C   0  0  0  0  0  0  0  0  0  0  0  0
   -8.7029  -18.0718    0.0000 C   0  0  0  0  0  0  0  0  0  0  0  0
  -10.0291  -17.3709    0.0000 C   0  0  0  0  0  0  0  0  0  0  0  0
  -11.2992  -16.5729    0.0000 C   0  0  0  0  0  0  0  0  0  0  0  0
  -12.5061  -15.6821    0.0000 C   0  0  0  0  0  0  0  0  0  0  0  0
  -13.6430  -14.7037    0.0000 C   0  0  0  0  0  0  0  0  0  0  0  0
  -14.7037  -13.6430    0.0000 C   0  0  0  0  0  0  0  0  0  0  0  0
  -15.6821  -12.5061    0.0000 C   0  0  0  0  0  0  0  0  0  0  0  0
  -16.5729  -11.2992    0.0000 C   0  0  0  0  0  0  0  0  0  0  0  0
  -17.3709  -10.0291    0.0000 C   0  0  0  0  0  0  0  0  0  0  0  0
  -18.0718   -8.7029    0.0000 C   0  0  0  0  0  0  0  0  0  0  0  0
  -18.6717   -7.3281    0.0000 C   0  0  0  0  0  0  0  0  0  0  0  0
  -19.1671   -5.9123    0.0000 C   0  0  0  0  0  0  0  0  0  0  0  0
  -19.5553   -4.4634    0.0000 C   0  0  0  0  0  0  0  0  0  0  0  0
  -19.8342   -2.9895    0.0000 C   0  0  0  0  0  0  0  0  0  0  0  0
  -20.0021   -1.4990    0.0000 C   0  0  0  0  0  0  0  0  0  0  0  0
  -20.0582    0.0000    0.0000 C   0  0  0  0  0  0  0  0  0  0  0  0
  -20.0021    1.4990    0.0000 C   0  0  0  0  0  0  0  0  0  0  0  0
  -19.8342    2.9895    0.0000 C   0  0  0  0  0  0  0  0  0  0  0  0
  -19.5553    4.4634    0.0000 C   0  0  0  0  0  0  0  0  0  0  0  0
  -19.1671    5.9123    0.0000 C   0  0  0  0  0  0  0  0  0  0  0  0
  -18.6717    7.3281    0.0000 C   0  0  0  0  0  0  0  0  0  0  0  0
  -18.0718    8.7029    0.0000 C   0  0  0  0  0  0  0  0  0  0  0  0
  -17.3709   10.0291    0.0000 C   0  0  0  0  0  0  0  0  0  0  0  0
  -16.5729   11.2992    0.0000 C   0  0  0  0  0  0  0  0  0  0  0  0
  -15.6821   12.5061    0.0000 C   0  0  0  0  0  0  0  0  0  0  0  0
  -14.7037   13.6430    0.0000 C   0  0  0  0  0  0  0  0  0  0  0  0
  -13.6430   14.7037    0.0000 C   0  0  0  0  0  0  0  0  0  0  0  0
  -12.5061   15.6821    0.0000 C   0  0  0  0  0  0  0  0  0  0  0  0
  -11.2992   16.5729    0.0000 C   0  0  0  0  0  0  0  0  0  0  0  0
  -10.0291   17.3709    0.0000 C   0  0  0  0  0  0  0  0  0  0  0  0
   -8.7029   18.0718    0.0000 C   0  0  0  0  0  0  0  0  0  0  0  0
   -7.3281   18.6717    0.0000 C   0  0  0  0  0  0  0  0  0  0  0  0
   -5.9123   19.1671    0.0000 C   0  0  0  0  0  0  0  0  0  0  0  0
   -4.4634   19.5553    0.0000 C   0  0  0  0  0  0  0  0  0  0  0  0
   -2.9895   19.8342    0.0000 C   0  0  0  0  0  0  0  0  0  0  0  0
   -1.4990   20.0021    0.0000 C   0  0  0  0  0  0  0  0  0  0  0  0
    0.0000   20.0582    0.0000 C   0  0  0  0  0  0  0  0  0  0  0  0
    1.4990   20.0021    0.0000 C   0  0  0  0  0  0  0  0  0  0  0  0
    2.9895   19.8342    0.0000 C   0  0  0  0  0  0  0  0  0  0  0  0
    4.4634   19.5553    0.0000 C   0  0  0  0  0  0  0  0  0  0  0  0
    5.9123   19.1671    0.0000 C   0  0  0  0  0  0  0  0  0  0  0  0
    7.3281   18.6717    0.0000 C   0  0  0  0  0  0  0  0  0  0  0  0
    8.7029   18.0718    0.0000 C   0  0  0  0  0  0  0  0  0  0  0  0
   10.0291   17.3709    0.0000 C   0  0  0  0  0  0  0  0  0  0  0  0
   11.2992   16.5729    0.0000 C   0  0  0  0  0  0  0  0  0  0  0  0
   12.5061   15.6821    0.0000 C   0  0  0  0  0  0  0  0  0  0  0  0
   13.6430   14.7037    0.0000 C   0  0  0  0  0  0  0  0  0  0  0  0
   14.7037   13.6430    0.0000 C   0  0  0  0  0  0  0  0  0  0  0  0
   15.6821   12.5061    0.0000 C   0  0  0  0  0  0  0  0  0  0  0  0
   16.5729   11.2992    0.0000 C   0  0  0  0  0  0  0  0  0  0  0  0
   17.3709   10.0291    0.0000 C   0  0  0  0  0  0  0  0  0  0  0  0
   18.0718    8.7029    0.0000 C   0  0  0  0  0  0  0  0  0  0  0  0
   18.6717    7.3281    0.0000 C   0  0  0  0  0  0  0  0  0  0  0  0
   19.1671    5.9123    0.0000 C   0  0  0  0  0  0  0  0  0  0  0  0
   19.5553    4.4634    0.0000 C   0  0  0  0  0  0  0  0  0  0  0  0
   19.8342    2.9895    0.0000 C   0  0  0  0  0  0  0  0  0  0  0  0
   20.0021    1.4990    0.0000 C   0  0  0  0  0  0  0  0  0  0  0  0
  1  2  1  0
  2  3  2  0
  3  4  1  0
  4  5  2  0
  5  6  1  0
  6  7  2  0
  7  8  1  0
  8  9  2  0
  9 10  1  0
 10 11  2  0
 11 12  1  0
 12 13  2  0
 13 14  1  0
 14 15  2  0
 15 16  1  0
 16 17  2  0
 17 18  1  0
 18 19  2  0
 19 20  1  0
 20 21  2  0
 21 22  1  0
 22 23  1  0
 23 24  1  0
 24 25  1  0
 25 26  1  0
 26 27  1  0
 27 28  1  0
 28 29  1  0
 29 30  1  0
 30 31  1  0
 31 32  1  0
 32 33  1  0
 33 34  1  0
 34 35  1  0
 35 36  1  0
 36 37  1  0
 37 38  1  0
 38 39  1  0
 39 40  1  0
 40 41  1  0
 41 42  1  0
 42 43  1  0
 43 44  1  0
 44 45  1  0
 45 46  1  0
 46 47  1  0
 47 48  1  0
 48 49  1  0
 49 50  1  0
 50 51  1  0
 51 52  1  0
 52 53  1  0
 53 54  1  0
 54 55  1  0
 55 56  1  0
 56 57  1  0
 57 58  1  0
 58 59  1  0
 59 60  1  0
 60 61  1  0
 61 62  1  0
 62 63  1  0
 63 64  1  0
 64 65  1  0
 65 66  1  0
 66 67  1  0
 67 68  1  0
 68 69  1  0
 69 70  1  0
 70 71  1  0
 71 72  1  0
 72 73  1  0
 73 74  1  0
 74 75  1  0
 75 76  1  0
 76 77  1  0
 77 78  1  0
 78 79  1  0
 79 80  1  0
 80 81  1  0
 81 82  1  0
 82 83  1  0
 83 84  1  0
 84 85  1  0
 85  2  1  0
M  END
>  <Title>  (492) 
idAAQZgen10

$$$$

     RDKit          2D

 18 19  0  0  0  0  0  0  0  0999 V2000
   -2.2500   -6.4952    0.0000 C   0  0  0  0  0  0  0  0  0  0  0  0
   -1.5000   -5.1962    0.0000 C   0  0  0  0  0  0  0  0  0  0  0  0
   -0.7500   -3.8971    0.0000 C   0  0  0  0  0  0  0  0  0  0  0  0
   -1.5000   -2.5981    0.0000 O   0  0  0  0  0  0  0  0  0  0  0  0
    0.7500   -3.8971    0.0000 N   0  0  0  0  0  0  0  0  0  0  0  0
    1.5000   -2.5981    0.0000 C   0  0  0  0  0  0  0  0  0  0  0  0
    0.7500   -1.2990    0.0000 C   0  0  0  0  0  0  0  0  0  0  0  0
    1.5000    0.0000    0.0000 C   0  0  0  0  0  0  0  0  0  0  0  0
    0.7500    1.2990    0.0000 C   0  0  0  0  0  0  0  0  0  0  0  0
   -0.7500    1.2990    0.0000 C   0  0  0  0  0  0  0  0  0  0  0  0
   -1.5000    0.0000    0.0000 C   0  0  0  0  0  0  0  0  0  0  0  0
   -0.7500   -1.2990    0.0000 C   0  0  0  0  0  0  0  0  0  0  0  0
    1.5000   -5.1962    0.0000 C   0  0  0  0  0  0  0  0  0  0  0  0
    0.7500   -6.4952    0.0000 C   0  0  0  0  0  0  0  0  0  0  0  0
    1.5000   -7.7942    0.0000 C   0  0  0  0  0  0  0  0  0  0  0  0
    3.0000   -7.7942    0.0000 C   0  0  0  0  0  0  0  0  0  0  0  0
    3.7500   -6.4952    0.0000 C   0  0  0  0  0  0  0  0  0  0  0  0
    3.0000   -5.1962    0.0000 C   0  0  0  0  0  0  0  0  0  0  0  0
  1  2  3  0
  2  3  1  0
  3  4  2  0
  3  5  1  0
  5  6  1  0
  6  7  1  0
  7  8  2  0
  8  9  1  0
  9 10  2  0
 10 11  1  0
 11 12  2  0
  5 13  1  0
 13 14  2  0
 14 15  1  0
 15 16  2  0
 16 17  1  0
 17 18  2  0
 12  7  1  0
 18 13  1  0
M  END
>  <Title>  (493) 
idAARAgen10

$$$$

     RDKit          2D

  9  9  0  0  0  0  0  0  0  0999 V2000
    4.2760   -2.5981    0.0000 C   0  0  0  0  0  0  0  0  0  0  0  0
    3.5260   -1.2990    0.0000 C   0  0  0  0  0  0  0  0  0  0  0  0
    2.7760    0.0000    0.0000 C   0  0  0  0  0  0  0  0  0  0  0  0
    3.5260    1.2990    0.0000 O   0  0  0  0  0  0  0  0  0  0  0  0
    1.2760    0.0000    0.0000 C   0  0  0  0  0  0  0  0  0  0  0  0
    0.3943    1.2135    0.0000 C   0  0  0  0  0  0  0  0  0  0  0  0
   -1.0323    0.7500    0.0000 C   0  0  0  0  0  0  0  0  0  0  0  0
   -1.0323   -0.7500    0.0000 C   0  0  0  0  0  0  0  0  0  0  0  0
    0.3943   -1.2135    0.0000 C   0  0  0  0  0  0  0  0  0  0  0  0
  1  2  3  0
  2  3  1  0
  3  4  2  0
  3  5  1  0
  5  6  2  0
  6  7  1  0
  7  8  2  0
  8  9  1  0
  9  5  1  0
M  END
>  <Title>  (494) 
idAARBgen10

$$$$

     RDKit          2D

 10 10  0  0  0  0  0  0  0  0999 V2000
    3.0000    0.0000    0.0000 C   0  0  0  0  0  0  0  0  0  0  0  0
    1.5000    0.0000    0.0000 C   0  0  0  0  0  0  0  0  0  0  0  0
    0.7500   -1.2990    0.0000 C   0  0  0  0  0  0  0  0  0  0  0  0
   -0.7500   -1.2990    0.0000 C   0  0  0  0  0  0  0  0  0  0  0  0
   -1.5000   -2.5981    0.0000 C   0  0  0  0  0  0  0  0  0  0  0  0
   -1.5000    0.0000    0.0000 C   0  0  0  0  0  0  0  0  0  0  0  0
   -3.0000    0.0000    0.0000 C   0  0  0  0  0  0  0  0  0  0  0  0
   -0.7500    1.2990    0.0000 N   0  0  0  0  0  0  0  0  0  0  0  0
   -1.5000    2.5981    0.0000 C   0  0  0  0  0  0  0  0  0  0  0  0
    0.7500    1.2990    0.0000 C   0  0  0  0  0  0  0  0  0  0  0  0
  1  2  1  0
  2  3  2  0
  3  4  1  0
  4  5  1  0
  4  6  1  0
  6  7  1  0
  6  8  1  0
  8  9  1  0
  8 10  1  0
 10  2  1  0
M  END
>  <Title>  (495) 
idAARCgen10

$$$$

     RDKit          2D

 13 14  0  0  0  0  0  0  0  0999 V2000
    6.0443   -5.4423    0.0000 N   0  0  0  0  0  0  0  0  0  0  0  0
    4.6740   -4.8322    0.0000 C   0  0  0  0  0  0  0  0  0  0  0  0
    3.3037   -4.2221    0.0000 C   0  0  0  0  0  0  0  0  0  0  0  0
    2.9918   -2.7549    0.0000 C   0  0  0  0  0  0  0  0  0  0  0  0
    1.5000   -2.5981    0.0000 C   0  0  0  0  0  0  0  0  0  0  0  0
    0.7500   -1.2990    0.0000 C   0  0  0  0  0  0  0  0  0  0  0  0
    1.5000    0.0000    0.0000 C   0  0  0  0  0  0  0  0  0  0  0  0
    0.7500    1.2990    0.0000 C   0  0  0  0  0  0  0  0  0  0  0  0
   -0.7500    1.2990    0.0000 C   0  0  0  0  0  0  0  0  0  0  0  0
   -1.5000    0.0000    0.0000 N   0  0  0  0  0  0  0  0  0  0  0  0
   -0.7500   -1.2990    0.0000 N   0  0  0  0  0  0  0  0  0  0  0  0
    0.8899   -3.9684    0.0000 C   0  0  0  0  0  0  0  0  0  0  0  0
    2.0046   -4.9721    0.0000 C   0  0  0  0  0  0  0  0  0  0  0  0
  1  2  3  0
  2  3  1  0
  3  4  2  0
  4  5  1  0
  5  6  1  0
  6  7  2  0
  7  8  1  0
  8  9  2  0
  9 10  1  0
 10 11  2  0
  5 12  1  0
 12 13  1  0
 13  3  1  0
 11  6  1  0
M  END
>  <Title>  (496) 
idAARDgen10

$$$$

     RDKit          2D

  9  9  0  0  0  0  0  0  0  0999 V2000
    3.2286   -0.0000    0.0000 C   0  0  0  0  0  0  0  0  0  0  0  0
    1.7286    0.0000    0.0000 C   0  0  0  0  0  0  0  0  0  0  0  0
    1.0777    1.3515    0.0000 C   0  0  0  0  0  0  0  0  0  0  0  0
   -0.3846    1.6852    0.0000 C   0  0  0  0  0  0  0  0  0  0  0  0
   -0.7184    3.1476    0.0000 C   0  0  0  0  0  0  0  0  0  0  0  0
   -1.5574    0.7500    0.0000 N   0  0  0  0  0  0  0  0  0  0  0  0
   -1.5574   -0.7500    0.0000 C   0  0  0  0  0  0  0  0  0  0  0  0
   -0.3846   -1.6852    0.0000 C   0  0  0  0  0  0  0  0  0  0  0  0
    1.0777   -1.3515    0.0000 C   0  0  0  0  0  0  0  0  0  0  0  0
  1  2  1  0
  2  3  2  0
  3  4  1  0
  4  5  1  0
  4  6  1  0
  6  7  1  0
  7  8  1  0
  8  9  2  0
  9  2  1  0
M  END
>  <Title>  (497) 
idAAREgen10

$$$$

     RDKit          2D

  4  3  0  0  0  0  0  0  0  0999 V2000
    0.0000    0.0000    0.0000 C   0  0  0  0  0  0  0  0  0  0  0  0
    1.2990    0.7500    0.0000 C   0  0  0  0  0  0  0  0  0  0  0  0
    2.5981   -0.0000    0.0000 C   0  0  0  0  0  0  0  0  0  0  0  0
    3.8971    0.7500    0.0000 C   0  0  0  0  0  0  0  0  0  0  0  0
  1  2  1  0
  2  3  2  3
  3  4  1  0
M  END
>  <Title>  (498) 
idAARFgen10

$$$$

     RDKit          2D

  9  9  0  0  0  0  0  0  0  0999 V2000
    3.0000    0.0000    0.0000 C   0  0  0  0  0  0  0  0  0  0  0  0
    1.5000    0.0000    0.0000 C   0  0  0  0  0  0  0  0  0  0  0  0
    0.7500   -1.2990    0.0000 C   0  0  0  0  0  0  0  0  0  0  0  0
   -0.7500   -1.2990    0.0000 C   0  0  0  0  0  0  0  0  0  0  0  0
   -1.5000    0.0000    0.0000 C   0  0  0  0  0  0  0  0  0  0  0  0
   -3.0000    0.0000    0.0000 C   0  0  0  0  0  0  0  0  0  0  0  0
   -4.5000    0.0000    0.0000 N   0  0  0  0  0  0  0  0  0  0  0  0
   -0.7500    1.2990    0.0000 C   0  0  0  0  0  0  0  0  0  0  0  0
    0.7500    1.2990    0.0000 C   0  0  0  0  0  0  0  0  0  0  0  0
  1  2  1  0
  2  3  2  0
  3  4  1  0
  4  5  1  0
  5  6  1  0
  6  7  3  0
  5  8  1  0
  8  9  2  0
  9  2  1  0
M  END
>  <Title>  (499) 
idAARGgen10

$$$$

     RDKit          2D

100103  0  0  0  0  0  0  0  0999 V2000
   -8.6168   -1.5197    0.0000 C   0  0  0  0  0  0  0  0  0  0  0  0
   -8.0365   -2.9029    0.0000 C   0  0  0  0  0  0  0  0  0  0  0  0
   -9.3979   -3.5328    0.0000 C   0  0  0  0  0  0  0  0  0  0  0  0
  -10.7102   -4.2592    0.0000 C   0  0  0  0  0  0  0  0  0  0  0  0
  -11.9668   -5.0784    0.0000 C   0  0  0  0  0  0  0  0  0  0  0  0
  -13.1609   -5.9862    0.0000 C   0  0  0  0  0  0  0  0  0  0  0  0
  -14.2864   -6.9777    0.0000 C   0  0  0  0  0  0  0  0  0  0  0  0
  -15.3375   -8.0479    0.0000 C   0  0  0  0  0  0  0  0  0  0  0  0
  -16.3086   -9.1912    0.0000 C   0  0  0  0  0  0  0  0  0  0  0  0
  -17.1946  -10.4015    0.0000 C   0  0  0  0  0  0  0  0  0  0  0  0
  -17.9910  -11.6726    0.0000 C   0  0  0  0  0  0  0  0  0  0  0  0
  -18.6936  -12.9979    0.0000 C   0  0  0  0  0  0  0  0  0  0  0  0
  -19.2988  -14.3704    0.0000 C   0  0  0  0  0  0  0  0  0  0  0  0
  -19.8033  -15.7830    0.0000 C   0  0  0  0  0  0  0  0  0  0  0  0
  -20.2046  -17.2283    0.0000 C   0  0  0  0  0  0  0  0  0  0  0  0
  -20.5006  -18.6988    0.0000 C   0  0  0  0  0  0  0  0  0  0  0  0
  -20.6896  -20.1869    0.0000 C   0  0  0  0  0  0  0  0  0  0  0  0
  -20.7708  -21.6847    0.0000 C   0  0  0  0  0  0  0  0  0  0  0  0
  -20.7438  -23.1844    0.0000 C   0  0  0  0  0  0  0  0  0  0  0  0
  -20.6085  -24.6783    0.0000 C   0  0  0  0  0  0  0  0  0  0  0  0
  -20.3659  -26.1586    0.0000 C   0  0  0  0  0  0  0  0  0  0  0  0
  -20.0170  -27.6174    0.0000 C   0  0  0  0  0  0  0  0  0  0  0  0
  -19.5638  -29.0473    0.0000 C   0  0  0  0  0  0  0  0  0  0  0  0
  -19.0086  -30.4408    0.0000 C   0  0  0  0  0  0  0  0  0  0  0  0
  -18.3543  -31.7906    0.0000 C   0  0  0  0  0  0  0  0  0  0  0  0
  -17.6043  -33.0896    0.0000 C   0  0  0  0  0  0  0  0  0  0  0  0
  -16.7625  -34.3311    0.0000 C   0  0  0  0  0  0  0  0  0  0  0  0
  -15.8333  -35.5087    0.0000 C   0  0  0  0  0  0  0  0  0  0  0  0
  -14.8216  -36.6161    0.0000 C   0  0  0  0  0  0  0  0  0  0  0  0
  -13.7326  -37.6477    0.0000 C   0  0  0  0  0  0  0  0  0  0  0  0
  -12.5720  -38.5980    0.0000 C   0  0  0  0  0  0  0  0  0  0  0  0
  -11.3459  -39.4620    0.0000 C   0  0  0  0  0  0  0  0  0  0  0  0
  -10.0606  -40.2353    0.0000 C   0  0  0  0  0  0  0  0  0  0  0  0
   -8.7229  -40.9139    0.0000 C   0  0  0  0  0  0  0  0  0  0  0  0
   -7.3397  -41.4942    0.0000 C   0  0  0  0  0  0  0  0  0  0  0  0
   -5.9182  -41.9731    0.0000 C   0  0  0  0  0  0  0  0  0  0  0  0
   -4.4658  -42.3483    0.0000 C   0  0  0  0  0  0  0  0  0  0  0  0
   -2.9902  -42.6176    0.0000 C   0  0  0  0  0  0  0  0  0  0  0  0
   -1.4990  -42.7798    0.0000 C   0  0  0  0  0  0  0  0  0  0  0  0
   -0.0000  -42.8340    0.0000 C   0  0  0  0  0  0  0  0  0  0  0  0
    1.4990  -42.7798    0.0000 C   0  0  0  0  0  0  0  0  0  0  0  0
    2.9902  -42.6176    0.0000 C   0  0  0  0  0  0  0  0  0  0  0  0
    4.4658  -42.3483    0.0000 C   0  0  0  0  0  0  0  0  0  0  0  0
    5.9182  -41.9731    0.0000 C   0  0  0  0  0  0  0  0  0  0  0  0
    7.3397  -41.4942    0.0000 C   0  0  0  0  0  0  0  0  0  0  0  0
    8.7229  -40.9139    0.0000 C   0  0  0  0  0  0  0  0  0  0  0  0
   10.0606  -40.2353    0.0000 C   0  0  0  0  0  0  0  0  0  0  0  0
   11.3459  -39.4620    0.0000 C   0  0  0  0  0  0  0  0  0  0  0  0
   12.5720  -38.5980    0.0000 C   0  0  0  0  0  0  0  0  0  0  0  0
   13.7326  -37.6477    0.0000 C   0  0  0  0  0  0  0  0  0  0  0  0
   14.8216  -36.6161    0.0000 C   0  0  0  0  0  0  0  0  0  0  0  0
   15.8333  -35.5087    0.0000 C   0  0  0  0  0  0  0  0  0  0  0  0
   16.7625  -34.3311    0.0000 C   0  0  0  0  0  0  0  0  0  0  0  0
   17.6043  -33.0896    0.0000 C   0  0  0  0  0  0  0  0  0  0  0  0
   18.3543  -31.7906    0.0000 C   0  0  0  0  0  0  0  0  0  0  0  0
   19.0086  -30.4408    0.0000 C   0  0  0  0  0  0  0  0  0  0  0  0
   19.5638  -29.0473    0.0000 C   0  0  0  0  0  0  0  0  0  0  0  0
   20.0170  -27.6174    0.0000 C   0  0  0  0  0  0  0  0  0  0  0  0
   20.3659  -26.1586    0.0000 C   0  0  0  0  0  0  0  0  0  0  0  0
   20.6085  -24.6783    0.0000 C   0  0  0  0  0  0  0  0  0  0  0  0
   20.7438  -23.1844    0.0000 C   0  0  0  0  0  0  0  0  0  0  0  0
   20.7708  -21.6847    0.0000 C   0  0  0  0  0  0  0  0  0  0  0  0
   20.6896  -20.1869    0.0000 C   0  0  0  0  0  0  0  0  0  0  0  0
   20.5006  -18.6988    0.0000 C   0  0  0  0  0  0  0  0  0  0  0  0
   20.2046  -17.2283    0.0000 C   0  0  0  0  0  0  0  0  0  0  0  0
   19.8033  -15.7830    0.0000 C   0  0  0  0  0  0  0  0  0  0  0  0
   19.2988  -14.3704    0.0000 C   0  0  0  0  0  0  0  0  0  0  0  0
   18.6936  -12.9979    0.0000 C   0  0  0  0  0  0  0  0  0  0  0  0
   17.9910  -11.6726    0.0000 C   0  0  0  0  0  0  0  0  0  0  0  0
   17.1946  -10.4015    0.0000 C   0  0  0  0  0  0  0  0  0  0  0  0
   16.3086   -9.1912    0.0000 C   0  0  0  0  0  0  0  0  0  0  0  0
   15.3375   -8.0479    0.0000 C   0  0  0  0  0  0  0  0  0  0  0  0
   14.2864   -6.9777    0.0000 C   0  0  0  0  0  0  0  0  0  0  0  0
   13.1609   -5.9862    0.0000 C   0  0  0  0  0  0  0  0  0  0  0  0
   11.9668   -5.0784    0.0000 C   0  0  0  0  0  0  0  0  0  0  0  0
   10.7102   -4.2592    0.0000 C   0  0  0  0  0  0  0  0  0  0  0  0
    9.3979   -3.5328    0.0000 C   0  0  0  0  0  0  0  0  0  0  0  0
    8.0365   -2.9029    0.0000 C   0  0  0  0  0  0  0  0  0  0  0  0
    6.6332   -2.3730    0.0000 C   0  0  0  0  0  0  0  0  0  0  0  0
    5.1954   -1.9456    0.0000 C   0  0  0  0  0  0  0  0  0  0  0  0
    3.7305   -1.6232    0.0000 C   0  0  0  0  0  0  0  0  0  0  0  0
    2.2461   -1.4073    0.0000 C   0  0  0  0  0  0  0  0  0  0  0  0
    0.7500   -1.2990    0.0000 C   0  0  0  0  0  0  0  0  0  0  0  0
    1.5000    0.0000    0.0000 C   0  0  0  0  0  0  0  0  0  0  0  0
    0.7500    1.2990    0.0000 C   0  0  0  0  0  0  0  0  0  0  0  0
   -0.7500    1.2990    0.0000 C   0  0  0  0  0  0  0  0  0  0  0  0
   -1.5000    0.0000    0.0000 C   0  0  0  0  0  0  0  0  0  0  0  0
   -0.7500   -1.2990    0.0000 C   0  0  0  0  0  0  0  0  0  0  0  0
   -2.2461   -1.4073    0.0000 C   0  0  0  0  0  0  0  0  0  0  0  0
   -1.3169   -2.5848    0.0000 C   0  0  0  0  0  0  0  0  0  0  0  0
   -1.8721   -3.9783    0.0000 C   0  0  0  0  0  0  0  0  0  0  0  0
   -3.3565   -4.1942    0.0000 C   0  0  0  0  0  0  0  0  0  0  0  0
   -4.2857   -3.0166    0.0000 C   0  0  0  0  0  0  0  0  0  0  0  0
   -3.7305   -1.6232    0.0000 C   0  0  0  0  0  0  0  0  0  0  0  0
   -5.1954   -1.9456    0.0000 C   0  0  0  0  0  0  0  0  0  0  0  0
   -4.8465   -0.4868    0.0000 C   0  0  0  0  0  0  0  0  0  0  0  0
   -5.9355    0.5448    0.0000 C   0  0  0  0  0  0  0  0  0  0  0  0
   -7.3734    0.1175    0.0000 C   0  0  0  0  0  0  0  0  0  0  0  0
   -7.7222   -1.3414    0.0000 C   0  0  0  0  0  0  0  0  0  0  0  0
   -6.6332   -2.3730    0.0000 C   0  0  0  0  0  0  0  0  0  0  0  0
  1  2  1  0
  2  3  1  0
  3  4  1  0
  4  5  1  0
  5  6  1  0
  6  7  1  0
  7  8  1  0
  8  9  1  0
  9 10  1  0
 10 11  1  0
 11 12  1  0
 12 13  1  0
 13 14  1  0
 14 15  1  0
 15 16  1  0
 16 17  1  0
 17 18  1  0
 18 19  1  0
 19 20  1  0
 20 21  1  0
 21 22  1  0
 22 23  1  0
 23 24  1  0
 24 25  1  0
 25 26  1  0
 26 27  1  0
 27 28  1  0
 28 29  1  0
 29 30  1  0
 30 31  1  0
 31 32  1  0
 32 33  1  0
 33 34  1  0
 34 35  1  0
 35 36  1  0
 36 37  1  0
 37 38  1  0
 38 39  1  0
 39 40  1  0
 40 41  1  0
 41 42  1  0
 42 43  1  0
 43 44  1  0
 44 45  1  0
 45 46  1  0
 46 47  1  0
 47 48  1  0
 48 49  1  0
 49 50  1  0
 50 51  1  0
 51 52  1  0
 52 53  1  0
 53 54  1  0
 54 55  1  0
 55 56  1  0
 56 57  1  0
 57 58  1  0
 58 59  1  0
 59 60  1  0
 60 61  1  0
 61 62  1  0
 62 63  1  0
 63 64  1  0
 64 65  1  0
 65 66  1  0
 66 67  1  0
 67 68  1  0
 68 69  1  0
 69 70  1  0
 70 71  1  0
 71 72  1  0
 72 73  1  0
 73 74  1  0
 74 75  1  0
 75 76  1  0
 76 77  1  0
 77 78  1  0
 78 79  1  0
 79 80  1  0
 80 81  1  0
 81 82  1  0
 82 83  1  0
 83 84  2  0
 84 85  1  0
 85 86  2  0
 86 87  1  0
 87 88  2  0
 88 89  1  0
 89 90  2  0
 90 91  1  0
 91 92  2  0
 92 93  1  0
 93 94  2  0
 94 95  1  0
 95 96  2  0
 96 97  1  0
 97 98  2  0
 98 99  1  0
 99100  2  0
100  2  1  0
 88 83  1  0
 94 89  1  0
100 95  1  0
M  END
>  <Title>  (500) 
idAARHgen10

$$$$

     RDKit          2D

  5  4  0  0  0  0  0  0  0  0999 V2000
    0.0000    0.0000    0.0000 C   0  0  0  0  0  0  0  0  0  0  0  0
    1.2990    0.7500    0.0000 C   0  0  0  0  0  0  0  0  0  0  0  0
    2.5981   -0.0000    0.0000 C   0  0  0  0  0  0  0  0  0  0  0  0
    3.8971    0.7500    0.0000 C   0  0  0  0  0  0  0  0  0  0  0  0
    5.1962   -0.0000    0.0000 C   0  0  0  0  0  0  0  0  0  0  0  0
  1  2  1  0
  2  3  2  3
  3  4  1  0
  4  5  1  0
M  END
>  <Title>  (501) 
idAARIgen10

$$$$

     RDKit          2D

 11 11  0  0  0  0  0  0  0  0999 V2000
   10.2760   -0.0000    0.0000 C   0  0  0  0  0  0  0  0  0  0  0  0
    8.7760   -0.0000    0.0000 C   0  0  0  0  0  0  0  0  0  0  0  0
    7.2760   -0.0000    0.0000 C   0  0  0  0  0  0  0  0  0  0  0  0
    5.7760   -0.0000    0.0000 C   0  0  0  0  0  0  0  0  0  0  0  0
    4.2760   -0.0000    0.0000 C   0  0  0  0  0  0  0  0  0  0  0  0
    2.7760    0.0000    0.0000 C   0  0  0  0  0  0  0  0  0  0  0  0
    1.2760    0.0000    0.0000 C   0  0  0  0  0  0  0  0  0  0  0  0
    0.3943    1.2135    0.0000 C   0  0  0  0  0  0  0  0  0  0  0  0
   -1.0323    0.7500    0.0000 C   0  0  0  0  0  0  0  0  0  0  0  0
   -1.0323   -0.7500    0.0000 C   0  0  0  0  0  0  0  0  0  0  0  0
    0.3943   -1.2135    0.0000 C   0  0  0  0  0  0  0  0  0  0  0  0
  1  2  3  0
  2  3  1  0
  3  4  3  0
  4  5  1  0
  5  6  3  0
  6  7  1  0
  7  8  2  0
  8  9  1  0
  9 10  1  0
 10 11  2  0
 11  7  1  0
M  END
>  <Title>  (502) 
idAARJgen10

$$$$

     RDKit          2D

123124  0  0  0  0  0  0  0  0999 V2000
   -2.3676    0.1163    0.0000 C   0  0  0  0  0  0  0  0  0  0  0  0
   -2.2479   -1.3789    0.0000 C   0  0  0  0  0  0  0  0  0  0  0  0
   -3.7394   -1.5383    0.0000 C   0  0  0  0  0  0  0  0  0  0  0  0
   -5.2203   -1.7769    0.0000 C   0  0  0  0  0  0  0  0  0  0  0  0
   -6.6864   -2.0940    0.0000 C   0  0  0  0  0  0  0  0  0  0  0  0
   -8.1335   -2.4886    0.0000 C   0  0  0  0  0  0  0  0  0  0  0  0
   -9.5576   -2.9597    0.0000 C   0  0  0  0  0  0  0  0  0  0  0  0
  -10.9546   -3.5060    0.0000 C   0  0  0  0  0  0  0  0  0  0  0  0
  -12.3206   -4.1258    0.0000 C   0  0  0  0  0  0  0  0  0  0  0  0
  -13.6516   -4.8174    0.0000 C   0  0  0  0  0  0  0  0  0  0  0  0
  -14.9439   -5.5789    0.0000 C   0  0  0  0  0  0  0  0  0  0  0  0
  -16.1939   -6.4081    0.0000 C   0  0  0  0  0  0  0  0  0  0  0  0
  -17.3980   -7.3027    0.0000 C   0  0  0  0  0  0  0  0  0  0  0  0
  -18.5527   -8.2601    0.0000 C   0  0  0  0  0  0  0  0  0  0  0  0
  -19.6549   -9.2775    0.0000 C   0  0  0  0  0  0  0  0  0  0  0  0
  -20.7013  -10.3522    0.0000 C   0  0  0  0  0  0  0  0  0  0  0  0
  -21.6891  -11.4811    0.0000 C   0  0  0  0  0  0  0  0  0  0  0  0
  -22.6154  -12.6609    0.0000 C   0  0  0  0  0  0  0  0  0  0  0  0
  -23.4776  -13.8884    0.0000 C   0  0  0  0  0  0  0  0  0  0  0  0
  -24.2732  -15.1600    0.0000 C   0  0  0  0  0  0  0  0  0  0  0  0
  -25.0000  -16.4721    0.0000 C   0  0  0  0  0  0  0  0  0  0  0  0
  -25.6560  -17.8211    0.0000 C   0  0  0  0  0  0  0  0  0  0  0  0
  -26.2392  -19.2030    0.0000 C   0  0  0  0  0  0  0  0  0  0  0  0
  -26.7481  -20.6141    0.0000 C   0  0  0  0  0  0  0  0  0  0  0  0
  -27.1811  -22.0502    0.0000 C   0  0  0  0  0  0  0  0  0  0  0  0
  -27.5371  -23.5074    0.0000 C   0  0  0  0  0  0  0  0  0  0  0  0
  -27.8151  -24.9814    0.0000 C   0  0  0  0  0  0  0  0  0  0  0  0
  -28.0141  -26.4681    0.0000 C   0  0  0  0  0  0  0  0  0  0  0  0
  -28.1338  -27.9633    0.0000 C   0  0  0  0  0  0  0  0  0  0  0  0
  -28.1738  -29.4628    0.0000 C   0  0  0  0  0  0  0  0  0  0  0  0
  -28.1338  -30.9623    0.0000 C   0  0  0  0  0  0  0  0  0  0  0  0
  -28.0141  -32.4575    0.0000 C   0  0  0  0  0  0  0  0  0  0  0  0
  -27.8151  -33.9442    0.0000 C   0  0  0  0  0  0  0  0  0  0  0  0
  -27.5371  -35.4182    0.0000 C   0  0  0  0  0  0  0  0  0  0  0  0
  -27.1811  -36.8754    0.0000 C   0  0  0  0  0  0  0  0  0  0  0  0
  -26.7481  -38.3115    0.0000 C   0  0  0  0  0  0  0  0  0  0  0  0
  -26.2392  -39.7226    0.0000 C   0  0  0  0  0  0  0  0  0  0  0  0
  -25.6560  -41.1045    0.0000 C   0  0  0  0  0  0  0  0  0  0  0  0
  -25.0000  -42.4535    0.0000 C   0  0  0  0  0  0  0  0  0  0  0  0
  -24.2732  -43.7657    0.0000 C   0  0  0  0  0  0  0  0  0  0  0  0
  -23.4776  -45.0373    0.0000 C   0  0  0  0  0  0  0  0  0  0  0  0
  -22.6154  -46.2647    0.0000 C   0  0  0  0  0  0  0  0  0  0  0  0
  -21.6891  -47.4445    0.0000 C   0  0  0  0  0  0  0  0  0  0  0  0
  -20.7013  -48.5734    0.0000 C   0  0  0  0  0  0  0  0  0  0  0  0
  -19.6549  -49.6481    0.0000 C   0  0  0  0  0  0  0  0  0  0  0  0
  -18.5527  -50.6655    0.0000 C   0  0  0  0  0  0  0  0  0  0  0  0
  -17.3980  -51.6229    0.0000 C   0  0  0  0  0  0  0  0  0  0  0  0
  -16.1939  -52.5175    0.0000 C   0  0  0  0  0  0  0  0  0  0  0  0
  -14.9439  -53.3467    0.0000 C   0  0  0  0  0  0  0  0  0  0  0  0
  -13.6516  -54.1082    0.0000 C   0  0  0  0  0  0  0  0  0  0  0  0
  -12.3206  -54.7998    0.0000 C   0  0  0  0  0  0  0  0  0  0  0  0
  -10.9546  -55.4196    0.0000 C   0  0  0  0  0  0  0  0  0  0  0  0
   -9.5576  -55.9659    0.0000 C   0  0  0  0  0  0  0  0  0  0  0  0
   -8.1335  -56.4370    0.0000 C   0  0  0  0  0  0  0  0  0  0  0  0
   -6.6864  -56.8316    0.0000 C   0  0  0  0  0  0  0  0  0  0  0  0
   -5.2203  -57.1487    0.0000 C   0  0  0  0  0  0  0  0  0  0  0  0
   -3.7394  -57.3873    0.0000 C   0  0  0  0  0  0  0  0  0  0  0  0
   -2.2479  -57.5467    0.0000 C   0  0  0  0  0  0  0  0  0  0  0  0
   -0.7500  -57.6266    0.0000 C   0  0  0  0  0  0  0  0  0  0  0  0
    0.7500  -57.6266    0.0000 C   0  0  0  0  0  0  0  0  0  0  0  0
    2.2479  -57.5467    0.0000 C   0  0  0  0  0  0  0  0  0  0  0  0
    3.7394  -57.3873    0.0000 C   0  0  0  0  0  0  0  0  0  0  0  0
    5.2203  -57.1487    0.0000 C   0  0  0  0  0  0  0  0  0  0  0  0
    6.6864  -56.8316    0.0000 C   0  0  0  0  0  0  0  0  0  0  0  0
    8.1335  -56.4370    0.0000 C   0  0  0  0  0  0  0  0  0  0  0  0
    9.5576  -55.9659    0.0000 C   0  0  0  0  0  0  0  0  0  0  0  0
   10.9546  -55.4196    0.0000 C   0  0  0  0  0  0  0  0  0  0  0  0
   12.3206  -54.7998    0.0000 C   0  0  0  0  0  0  0  0  0  0  0  0
   13.6516  -54.1082    0.0000 C   0  0  0  0  0  0  0  0  0  0  0  0
   14.9439  -53.3467    0.0000 C   0  0  0  0  0  0  0  0  0  0  0  0
   16.1939  -52.5175    0.0000 C   0  0  0  0  0  0  0  0  0  0  0  0
   17.3980  -51.6229    0.0000 C   0  0  0  0  0  0  0  0  0  0  0  0
   18.5527  -50.6655    0.0000 C   0  0  0  0  0  0  0  0  0  0  0  0
   19.6549  -49.6481    0.0000 C   0  0  0  0  0  0  0  0  0  0  0  0
   20.7013  -48.5734    0.0000 C   0  0  0  0  0  0  0  0  0  0  0  0
   21.6891  -47.4445    0.0000 C   0  0  0  0  0  0  0  0  0  0  0  0
   22.6154  -46.2647    0.0000 C   0  0  0  0  0  0  0  0  0  0  0  0
   23.4776  -45.0373    0.0000 C   0  0  0  0  0  0  0  0  0  0  0  0
   24.2732  -43.7657    0.0000 C   0  0  0  0  0  0  0  0  0  0  0  0
   25.0000  -42.4535    0.0000 C   0  0  0  0  0  0  0  0  0  0  0  0
   25.6560  -41.1045    0.0000 C   0  0  0  0  0  0  0  0  0  0  0  0
   26.2392  -39.7226    0.0000 C   0  0  0  0  0  0  0  0  0  0  0  0
   26.7481  -38.3115    0.0000 C   0  0  0  0  0  0  0  0  0  0  0  0
   27.1811  -36.8754    0.0000 C   0  0  0  0  0  0  0  0  0  0  0  0
   27.5371  -35.4182    0.0000 C   0  0  0  0  0  0  0  0  0  0  0  0
   27.8151  -33.9442    0.0000 C   0  0  0  0  0  0  0  0  0  0  0  0
   28.0141  -32.4575    0.0000 C   0  0  0  0  0  0  0  0  0  0  0  0
   28.1338  -30.9623    0.0000 C   0  0  0  0  0  0  0  0  0  0  0  0
   28.1738  -29.4628    0.0000 C   0  0  0  0  0  0  0  0  0  0  0  0
   28.1338  -27.9633    0.0000 C   0  0  0  0  0  0  0  0  0  0  0  0
   28.0141  -26.4681    0.0000 C   0  0  0  0  0  0  0  0  0  0  0  0
   27.8151  -24.9814    0.0000 C   0  0  0  0  0  0  0  0  0  0  0  0
   27.5371  -23.5074    0.0000 C   0  0  0  0  0  0  0  0  0  0  0  0
   27.1811  -22.0502    0.0000 C   0  0  0  0  0  0  0  0  0  0  0  0
   26.7481  -20.6141    0.0000 C   0  0  0  0  0  0  0  0  0  0  0  0
   26.2392  -19.2030    0.0000 C   0  0  0  0  0  0  0  0  0  0  0  0
   25.6560  -17.8211    0.0000 C   0  0  0  0  0  0  0  0  0  0  0  0
   25.0000  -16.4721    0.0000 C   0  0  0  0  0  0  0  0  0  0  0  0
   24.2732  -15.1600    0.0000 C   0  0  0  0  0  0  0  0  0  0  0  0
   23.4776  -13.8884    0.0000 C   0  0  0  0  0  0  0  0  0  0  0  0
   22.6154  -12.6609    0.0000 C   0  0  0  0  0  0  0  0  0  0  0  0
   21.6891  -11.4811    0.0000 C   0  0  0  0  0  0  0  0  0  0  0  0
   20.7013  -10.3522    0.0000 C   0  0  0  0  0  0  0  0  0  0  0  0
   19.6549   -9.2775    0.0000 C   0  0  0  0  0  0  0  0  0  0  0  0
   18.5527   -8.2601    0.0000 C   0  0  0  0  0  0  0  0  0  0  0  0
   17.3980   -7.3027    0.0000 C   0  0  0  0  0  0  0  0  0  0  0  0
   16.1939   -6.4081    0.0000 C   0  0  0  0  0  0  0  0  0  0  0  0
   14.9439   -5.5789    0.0000 C   0  0  0  0  0  0  0  0  0  0  0  0
   13.6516   -4.8174    0.0000 C   0  0  0  0  0  0  0  0  0  0  0  0
   12.3206   -4.1258    0.0000 C   0  0  0  0  0  0  0  0  0  0  0  0
   10.9546   -3.5060    0.0000 C   0  0  0  0  0  0  0  0  0  0  0  0
    9.5576   -2.9597    0.0000 C   0  0  0  0  0  0  0  0  0  0  0  0
    8.1335   -2.4886    0.0000 C   0  0  0  0  0  0  0  0  0  0  0  0
    6.6864   -2.0940    0.0000 C   0  0  0  0  0  0  0  0  0  0  0  0
    5.2203   -1.7769    0.0000 C   0  0  0  0  0  0  0  0  0  0  0  0
    3.7394   -1.5383    0.0000 C   0  0  0  0  0  0  0  0  0  0  0  0
    2.2479   -1.3789    0.0000 C   0  0  0  0  0  0  0  0  0  0  0  0
    0.7500   -1.2990    0.0000 C   0  0  0  0  0  0  0  0  0  0  0  0
    1.5000    0.0000    0.0000 C   0  0  0  0  0  0  0  0  0  0  0  0
    0.7500    1.2990    0.0000 C   0  0  0  0  0  0  0  0  0  0  0  0
   -0.7500    1.2990    0.0000 C   0  0  0  0  0  0  0  0  0  0  0  0
   -1.5000    0.0000    0.0000 C   0  0  0  0  0  0  0  0  0  0  0  0
   -0.7500   -1.2990    0.0000 C   0  0  0  0  0  0  0  0  0  0  0  0
  1  2  1  0
  2  3  1  0
  3  4  1  0
  4  5  1  0
  5  6  1  0
  6  7  1  0
  7  8  1  0
  8  9  1  0
  9 10  1  0
 10 11  1  0
 11 12  1  0
 12 13  1  0
 13 14  1  0
 14 15  1  0
 15 16  1  0
 16 17  1  0
 17 18  1  0
 18 19  1  0
 19 20  1  0
 20 21  1  0
 21 22  1  0
 22 23  1  0
 23 24  1  0
 24 25  1  0
 25 26  1  0
 26 27  1  0
 27 28  1  0
 28 29  1  0
 29 30  1  0
 30 31  1  0
 31 32  1  0
 32 33  1  0
 33 34  1  0
 34 35  1  0
 35 36  1  0
 36 37  1  0
 37 38  1  0
 38 39  1  0
 39 40  1  0
 40 41  1  0
 41 42  1  0
 42 43  1  0
 43 44  1  0
 44 45  1  0
 45 46  1  0
 46 47  1  0
 47 48  1  0
 48 49  1  0
 49 50  1  0
 50 51  1  0
 51 52  1  0
 52 53  1  0
 53 54  1  0
 54 55  1  0
 55 56  1  0
 56 57  1  0
 57 58  1  0
 58 59  1  0
 59 60  1  0
 60 61  1  0
 61 62  1  0
 62 63  1  0
 63 64  1  0
 64 65  1  0
 65 66  1  0
 66 67  1  0
 67 68  1  0
 68 69  1  0
 69 70  1  0
 70 71  1  0
 71 72  1  0
 72 73  1  0
 73 74  1  0
 74 75  1  0
 75 76  1  0
 76 77  1  0
 77 78  1  0
 78 79  1  0
 79 80  1  0
 80 81  1  0
 81 82  1  0
 82 83  1  0
 83 84  1  0
 84 85  1  0
 85 86  1  0
 86 87  1  0
 87 88  1  0
 88 89  1  0
 89 90  1  0
 90 91  1  0
 91 92  1  0
 92 93  1  0
 93 94  1  0
 94 95  1  0
 95 96  1  0
 96 97  1  0
 97 98  1  0
 98 99  1  0
 99100  1  0
100101  1  0
101102  1  0
102103  1  0
103104  1  0
104105  1  0
105106  1  0
106107  1  0
107108  1  0
108109  1  0
109110  1  0
110111  1  0
111112  1  0
112113  1  0
113114  1  0
114115  1  0
115116  1  0
116117  1  0
117118  1  0
118119  1  0
119120  1  0
120121  1  0
121122  1  0
122123  2  0
123  2  1  0
123118  1  0
M  END
>  <Title>  (503) 
idAARKgen10

$$$$

     RDKit          2D

 99 99  0  0  0  0  0  0  0  0999 V2000
   23.6385    0.0000    0.0000 C   0  0  0  0  0  0  0  0  0  0  0  0
   23.5909    1.4992    0.0000 C   0  0  0  0  0  0  0  0  0  0  0  0
   23.4483    2.9925    0.0000 C   0  0  0  0  0  0  0  0  0  0  0  0
   23.2113    4.4736    0.0000 C   0  0  0  0  0  0  0  0  0  0  0  0
   22.8808    5.9368    0.0000 C   0  0  0  0  0  0  0  0  0  0  0  0
   22.4582    7.3760    0.0000 C   0  0  0  0  0  0  0  0  0  0  0  0
   21.9452    8.7855    0.0000 C   0  0  0  0  0  0  0  0  0  0  0  0
   21.3438   10.1597    0.0000 C   0  0  0  0  0  0  0  0  0  0  0  0
   20.6565   11.4929    0.0000 C   0  0  0  0  0  0  0  0  0  0  0  0
   19.8860   12.7799    0.0000 C   0  0  0  0  0  0  0  0  0  0  0  0
   19.0354   14.0154    0.0000 C   0  0  0  0  0  0  0  0  0  0  0  0
   18.1081   15.1945    0.0000 C   0  0  0  0  0  0  0  0  0  0  0  0
   17.1080   16.3124    0.0000 C   0  0  0  0  0  0  0  0  0  0  0  0
   16.0389   17.3646    0.0000 C   0  0  0  0  0  0  0  0  0  0  0  0
   14.9053   18.3469    0.0000 C   0  0  0  0  0  0  0  0  0  0  0  0
   13.7117   19.2553    0.0000 C   0  0  0  0  0  0  0  0  0  0  0  0
   12.4628   20.0862    0.0000 C   0  0  0  0  0  0  0  0  0  0  0  0
   11.1638   20.8362    0.0000 C   0  0  0  0  0  0  0  0  0  0  0  0
    9.8198   21.5023    0.0000 C   0  0  0  0  0  0  0  0  0  0  0  0
    8.4362   22.0818    0.0000 C   0  0  0  0  0  0  0  0  0  0  0  0
    7.0187   22.5724    0.0000 C   0  0  0  0  0  0  0  0  0  0  0  0
    5.5730   22.9721    0.0000 C   0  0  0  0  0  0  0  0  0  0  0  0
    4.1048   23.2794    0.0000 C   0  0  0  0  0  0  0  0  0  0  0  0
    2.6200   23.4928    0.0000 C   0  0  0  0  0  0  0  0  0  0  0  0
    1.1248   23.6117    0.0000 C   0  0  0  0  0  0  0  0  0  0  0  0
   -0.3750   23.6355    0.0000 C   0  0  0  0  0  0  0  0  0  0  0  0
   -1.8733   23.5641    0.0000 C   0  0  0  0  0  0  0  0  0  0  0  0
   -3.3641   23.3979    0.0000 C   0  0  0  0  0  0  0  0  0  0  0  0
   -4.8413   23.1374    0.0000 C   0  0  0  0  0  0  0  0  0  0  0  0
   -6.2990   22.7838    0.0000 C   0  0  0  0  0  0  0  0  0  0  0  0
   -7.7314   22.3384    0.0000 C   0  0  0  0  0  0  0  0  0  0  0  0
   -9.1326   21.8031    0.0000 C   0  0  0  0  0  0  0  0  0  0  0  0
  -10.4971   21.1799    0.0000 C   0  0  0  0  0  0  0  0  0  0  0  0
  -11.8192   20.4715    0.0000 C   0  0  0  0  0  0  0  0  0  0  0  0
  -13.0938   19.6807    0.0000 C   0  0  0  0  0  0  0  0  0  0  0  0
  -14.3157   18.8106    0.0000 C   0  0  0  0  0  0  0  0  0  0  0  0
  -15.4799   17.8648    0.0000 C   0  0  0  0  0  0  0  0  0  0  0  0
  -16.5818   16.8470    0.0000 C   0  0  0  0  0  0  0  0  0  0  0  0
  -17.6169   15.7614    0.0000 C   0  0  0  0  0  0  0  0  0  0  0  0
  -18.5811   14.6123    0.0000 C   0  0  0  0  0  0  0  0  0  0  0  0
  -19.4705   13.4044    0.0000 C   0  0  0  0  0  0  0  0  0  0  0  0
  -20.2814   12.1426    0.0000 C   0  0  0  0  0  0  0  0  0  0  0  0
  -21.0107   10.8318    0.0000 C   0  0  0  0  0  0  0  0  0  0  0  0
  -21.6554    9.4774    0.0000 C   0  0  0  0  0  0  0  0  0  0  0  0
  -22.2129    8.0848    0.0000 C   0  0  0  0  0  0  0  0  0  0  0  0
  -22.6810    6.6597    0.0000 C   0  0  0  0  0  0  0  0  0  0  0  0
  -23.0577    5.2078    0.0000 C   0  0  0  0  0  0  0  0  0  0  0  0
  -23.3416    3.7349    0.0000 C   0  0  0  0  0  0  0  0  0  0  0  0
  -23.5314    2.2470    0.0000 C   0  0  0  0  0  0  0  0  0  0  0  0
  -23.6266    0.7500    0.0000 C   0  0  0  0  0  0  0  0  0  0  0  0
  -23.6266   -0.7500    0.0000 C   0  0  0  0  0  0  0  0  0  0  0  0
  -23.5314   -2.2470    0.0000 C   0  0  0  0  0  0  0  0  0  0  0  0
  -23.3416   -3.7349    0.0000 C   0  0  0  0  0  0  0  0  0  0  0  0
  -23.0577   -5.2078    0.0000 C   0  0  0  0  0  0  0  0  0  0  0  0
  -22.6810   -6.6597    0.0000 C   0  0  0  0  0  0  0  0  0  0  0  0
  -22.2129   -8.0848    0.0000 C   0  0  0  0  0  0  0  0  0  0  0  0
  -21.6554   -9.4774    0.0000 C   0  0  0  0  0  0  0  0  0  0  0  0
  -21.0107  -10.8318    0.0000 C   0  0  0  0  0  0  0  0  0  0  0  0
  -20.2814  -12.1426    0.0000 C   0  0  0  0  0  0  0  0  0  0  0  0
  -19.4705  -13.4044    0.0000 C   0  0  0  0  0  0  0  0  0  0  0  0
  -18.5811  -14.6123    0.0000 C   0  0  0  0  0  0  0  0  0  0  0  0
  -17.6169  -15.7614    0.0000 C   0  0  0  0  0  0  0  0  0  0  0  0
  -16.5818  -16.8470    0.0000 C   0  0  0  0  0  0  0  0  0  0  0  0
  -15.4799  -17.8648    0.0000 C   0  0  0  0  0  0  0  0  0  0  0  0
  -14.3157  -18.8106    0.0000 C   0  0  0  0  0  0  0  0  0  0  0  0
  -13.0938  -19.6807    0.0000 C   0  0  0  0  0  0  0  0  0  0  0  0
  -11.8192  -20.4715    0.0000 C   0  0  0  0  0  0  0  0  0  0  0  0
  -10.4971  -21.1799    0.0000 C   0  0  0  0  0  0  0  0  0  0  0  0
   -9.1326  -21.8031    0.0000 C   0  0  0  0  0  0  0  0  0  0  0  0
   -7.7314  -22.3384    0.0000 C   0  0  0  0  0  0  0  0  0  0  0  0
   -6.2990  -22.7838    0.0000 C   0  0  0  0  0  0  0  0  0  0  0  0
   -4.8413  -23.1374    0.0000 C   0  0  0  0  0  0  0  0  0  0  0  0
   -3.3641  -23.3979    0.0000 C   0  0  0  0  0  0  0  0  0  0  0  0
   -1.8733  -23.5641    0.0000 C   0  0  0  0  0  0  0  0  0  0  0  0
   -0.3750  -23.6355    0.0000 C   0  0  0  0  0  0  0  0  0  0  0  0
    1.1248  -23.6117    0.0000 C   0  0  0  0  0  0  0  0  0  0  0  0
    2.6200  -23.4928    0.0000 C   0  0  0  0  0  0  0  0  0  0  0  0
    4.1048  -23.2794    0.0000 C   0  0  0  0  0  0  0  0  0  0  0  0
    5.5730  -22.9721    0.0000 C   0  0  0  0  0  0  0  0  0  0  0  0
    7.0187  -22.5724    0.0000 C   0  0  0  0  0  0  0  0  0  0  0  0
    8.4362  -22.0818    0.0000 C   0  0  0  0  0  0  0  0  0  0  0  0
    9.8198  -21.5023    0.0000 C   0  0  0  0  0  0  0  0  0  0  0  0
   11.1638  -20.8362    0.0000 C   0  0  0  0  0  0  0  0  0  0  0  0
   12.4628  -20.0862    0.0000 C   0  0  0  0  0  0  0  0  0  0  0  0
   13.7117  -19.2553    0.0000 C   0  0  0  0  0  0  0  0  0  0  0  0
   14.9053  -18.3469    0.0000 C   0  0  0  0  0  0  0  0  0  0  0  0
   16.0389  -17.3646    0.0000 C   0  0  0  0  0  0  0  0  0  0  0  0
   17.1080  -16.3124    0.0000 C   0  0  0  0  0  0  0  0  0  0  0  0
   18.1081  -15.1945    0.0000 C   0  0  0  0  0  0  0  0  0  0  0  0
   19.0354  -14.0154    0.0000 C   0  0  0  0  0  0  0  0  0  0  0  0
   19.8860  -12.7799    0.0000 C   0  0  0  0  0  0  0  0  0  0  0  0
   20.6565  -11.4929    0.0000 C   0  0  0  0  0  0  0  0  0  0  0  0
   21.3438  -10.1597    0.0000 C   0  0  0  0  0  0  0  0  0  0  0  0
   21.9452   -8.7855    0.0000 C   0  0  0  0  0  0  0  0  0  0  0  0
   22.4582   -7.3760    0.0000 C   0  0  0  0  0  0  0  0  0  0  0  0
   22.8808   -5.9368    0.0000 C   0  0  0  0  0  0  0  0  0  0  0  0
   23.2113   -4.4736    0.0000 C   0  0  0  0  0  0  0  0  0  0  0  0
   23.4483   -2.9925    0.0000 C   0  0  0  0  0  0  0  0  0  0  0  0
   23.5909   -1.4992    0.0000 C   0  0  0  0  0  0  0  0  0  0  0  0
  1  2  1  0
  2  3  1  0
  3  4  1  0
  4  5  1  0
  5  6  1  0
  6  7  1  0
  7  8  1  0
  8  9  1  0
  9 10  1  0
 10 11  1  0
 11 12  1  0
 12 13  1  0
 13 14  1  0
 14 15  1  0
 15 16  1  0
 16 17  1  0
 17 18  1  0
 18 19  1  0
 19 20  1  0
 20 21  1  0
 21 22  1  0
 22 23  1  0
 23 24  1  0
 24 25  1  0
 25 26  1  0
 26 27  1  0
 27 28  1  0
 28 29  1  0
 29 30  1  0
 30 31  1  0
 31 32  1  0
 32 33  1  0
 33 34  1  0
 34 35  1  0
 35 36  1  0
 36 37  1  0
 37 38  1  0
 38 39  1  0
 39 40  1  0
 40 41  1  0
 41 42  1  0
 42 43  1  0
 43 44  1  0
 44 45  1  0
 45 46  1  0
 46 47  1  0
 47 48  1  0
 48 49  1  0
 49 50  1  0
 50 51  1  0
 51 52  1  0
 52 53  1  0
 53 54  1  0
 54 55  1  0
 55 56  1  0
 56 57  1  0
 57 58  1  0
 58 59  1  0
 59 60  1  0
 60 61  1  0
 61 62  1  0
 62 63  1  0
 63 64  1  0
 64 65  1  0
 65 66  1  0
 66 67  1  0
 67 68  1  0
 68 69  1  0
 69 70  1  0
 70 71  1  0
 71 72  1  0
 72 73  1  0
 73 74  1  0
 74 75  1  0
 75 76  1  0
 76 77  1  0
 77 78  1  0
 78 79  1  0
 79 80  1  0
 80 81  1  0
 81 82  1  0
 82 83  1  0
 83 84  1  0
 84 85  1  0
 85 86  1  0
 86 87  1  0
 87 88  1  0
 88 89  1  0
 89 90  1  0
 90 91  1  0
 91 92  1  0
 92 93  1  0
 93 94  1  0
 94 95  1  0
 95 96  1  0
 96 97  1  0
 97 98  1  0
 98 99  1  0
 99  1  1  0
M  END
>  <Title>  (504) 
idAARLgen10

$$$$

     RDKit          2D

  9  8  0  0  0  0  0  0  0  0999 V2000
    0.0000    0.0000    0.0000 C   0  0  0  0  0  0  0  0  0  0  0  0
    1.2990    0.7500    0.0000 C   0  0  0  0  0  0  0  0  0  0  0  0
    2.5981   -0.0000    0.0000 C   0  0  0  0  0  0  0  0  0  0  0  0
    3.8971   -0.7500    0.0000 C   0  0  0  0  0  0  0  0  0  0  0  0
    5.1962   -1.5000    0.0000 C   0  0  0  0  0  0  0  0  0  0  0  0
    6.4952   -2.2500    0.0000 C   0  0  0  0  0  0  0  0  0  0  0  0
    7.7942   -3.0000    0.0000 C   0  0  0  0  0  0  0  0  0  0  0  0
    9.0933   -2.2500    0.0000 C   0  0  0  0  0  0  0  0  0  0  0  0
   10.3923   -1.5000    0.0000 N   0  0  0  0  0  0  0  0  0  0  0  0
  1  2  2  0
  2  3  1  0
  3  4  3  0
  4  5  1  0
  5  6  3  0
  6  7  1  0
  7  8  1  0
  8  9  3  0
M  END
>  <Title>  (505) 
idAARMgen10

$$$$

     RDKit          2D

 62 71  0  0  0  0  0  0  0  0999 V2000
    6.2168   -5.0497    0.0000 C   0  0  0  0  0  0  0  0  0  0  0  0
    4.7353   -5.2844    0.0000 C   0  0  0  0  0  0  0  0  0  0  0  0
    4.2718   -3.8578    0.0000 C   0  0  0  0  0  0  0  0  0  0  0  0
    3.3901   -2.6442    0.0000 C   0  0  0  0  0  0  0  0  0  0  0  0
    2.1766   -1.7626    0.0000 C   0  0  0  0  0  0  0  0  0  0  0  0
    2.8576   -0.4261    0.0000 C   0  0  0  0  0  0  0  0  0  0  0  0
    2.0406    0.8320    0.0000 O   0  0  0  0  0  0  0  0  0  0  0  0
    4.3555   -0.3475    0.0000 N   0  0  0  0  0  0  0  0  0  0  0  0
    5.0365    0.9890    0.0000 C   0  0  0  0  0  0  0  0  0  0  0  0
    6.5344    1.0675    0.0000 N   0  0  0  0  0  0  0  0  0  0  0  0
    7.2154    2.4040    0.0000 N   0  0  0  0  0  0  0  0  0  0  0  0
    6.3985    3.6620    0.0000 N   0  0  0  0  0  0  0  0  0  0  0  0
    4.9005    3.5835    0.0000 N   0  0  0  0  0  0  0  0  0  0  0  0
    4.2195    2.2470    0.0000 N   0  0  0  0  0  0  0  0  0  0  0  0
    0.7500   -1.2990    0.0000 C   0  0  0  0  0  0  0  0  0  0  0  0
    1.5000    0.0000    0.0000 C   0  0  0  0  0  0  0  0  0  0  0  0
    0.7500    1.2990    0.0000 C   0  0  0  0  0  0  0  0  0  0  0  0
   -0.7500    1.2990    0.0000 C   0  0  0  0  0  0  0  0  0  0  0  0
   -1.5000    0.0000    0.0000 C   0  0  0  0  0  0  0  0  0  0  0  0
   -0.7500   -1.2990    0.0000 C   0  0  0  0  0  0  0  0  0  0  0  0
   -2.1766   -1.7626    0.0000 C   0  0  0  0  0  0  0  0  0  0  0  0
   -2.3334   -0.2708    0.0000 C   0  0  0  0  0  0  0  0  0  0  0  0
   -3.7037    0.3393    0.0000 C   0  0  0  0  0  0  0  0  0  0  0  0
   -4.9172   -0.5424    0.0000 C   0  0  0  0  0  0  0  0  0  0  0  0
   -4.7604   -2.0341    0.0000 C   0  0  0  0  0  0  0  0  0  0  0  0
   -3.3901   -2.6442    0.0000 C   0  0  0  0  0  0  0  0  0  0  0  0
   -4.2718   -3.8578    0.0000 C   0  0  0  0  0  0  0  0  0  0  0  0
   -5.2755   -2.7430    0.0000 C   0  0  0  0  0  0  0  0  0  0  0  0
   -6.7427   -3.0549    0.0000 C   0  0  0  0  0  0  0  0  0  0  0  0
   -7.2062   -4.4815    0.0000 C   0  0  0  0  0  0  0  0  0  0  0  0
   -6.2025   -5.5962    0.0000 C   0  0  0  0  0  0  0  0  0  0  0  0
   -4.7353   -5.2844    0.0000 C   0  0  0  0  0  0  0  0  0  0  0  0
   -4.7353   -6.7844    0.0000 C   0  0  0  0  0  0  0  0  0  0  0  0
   -6.2025   -6.4725    0.0000 C   0  0  0  0  0  0  0  0  0  0  0  0
   -7.2062   -7.5872    0.0000 C   0  0  0  0  0  0  0  0  0  0  0  0
   -6.7427   -9.0138    0.0000 C   0  0  0  0  0  0  0  0  0  0  0  0
   -5.2755   -9.3257    0.0000 C   0  0  0  0  0  0  0  0  0  0  0  0
   -4.2718   -8.2109    0.0000 C   0  0  0  0  0  0  0  0  0  0  0  0
   -3.3901   -9.4245    0.0000 C   0  0  0  0  0  0  0  0  0  0  0  0
   -4.7604  -10.0346    0.0000 C   0  0  0  0  0  0  0  0  0  0  0  0
   -4.9172  -11.5263    0.0000 C   0  0  0  0  0  0  0  0  0  0  0  0
   -3.7037  -12.4080    0.0000 C   0  0  0  0  0  0  0  0  0  0  0  0
   -2.3334  -11.7979    0.0000 C   0  0  0  0  0  0  0  0  0  0  0  0
   -2.1766  -10.3061    0.0000 C   0  0  0  0  0  0  0  0  0  0  0  0
   -0.7500  -10.7697    0.0000 C   0  0  0  0  0  0  0  0  0  0  0  0
   -1.5000  -12.0687    0.0000 C   0  0  0  0  0  0  0  0  0  0  0  0
   -0.7500  -13.3677    0.0000 C   0  0  0  0  0  0  0  0  0  0  0  0
    0.7500  -13.3677    0.0000 C   0  0  0  0  0  0  0  0  0  0  0  0
    1.5000  -12.0687    0.0000 C   0  0  0  0  0  0  0  0  0  0  0  0
    0.7500  -10.7697    0.0000 C   0  0  0  0  0  0  0  0  0  0  0  0
    2.1766  -10.3061    0.0000 C   0  0  0  0  0  0  0  0  0  0  0  0
    2.3334  -11.7979    0.0000 C   0  0  0  0  0  0  0  0  0  0  0  0
    3.7037  -12.4080    0.0000 C   0  0  0  0  0  0  0  0  0  0  0  0
    4.9172  -11.5263    0.0000 C   0  0  0  0  0  0  0  0  0  0  0  0
    4.7604  -10.0346    0.0000 C   0  0  0  0  0  0  0  0  0  0  0  0
    3.3901   -9.4245    0.0000 C   0  0  0  0  0  0  0  0  0  0  0  0
    4.2718   -8.2109    0.0000 C   0  0  0  0  0  0  0  0  0  0  0  0
    5.2755   -9.3257    0.0000 C   0  0  0  0  0  0  0  0  0  0  0  0
    6.7427   -9.0138    0.0000 C   0  0  0  0  0  0  0  0  0  0  0  0
    7.2062   -7.5872    0.0000 C   0  0  0  0  0  0  0  0  0  0  0  0
    6.2025   -6.4725    0.0000 C   0  0  0  0  0  0  0  0  0  0  0  0
    4.7353   -6.7844    0.0000 C   0  0  0  0  0  0  0  0  0  0  0  0
  1  2  1  0
  2  3  1  0
  3  4  1  0
  4  5  1  0
  5  6  1  0
  6  7  2  0
  6  8  1  0
  8  9  1  0
  9 10  2  0
 10 11  1  0
 11 12  2  0
 12 13  1  0
 13 14  2  0
  5 15  1  0
 15 16  2  0
 16 17  1  0
 17 18  2  0
 18 19  1  0
 19 20  2  0
 20 21  1  0
 21 22  2  0
 22 23  1  0
 23 24  2  0
 24 25  1  0
 25 26  2  0
 26 27  1  0
 27 28  2  0
 28 29  1  0
 29 30  2  0
 30 31  1  0
 31 32  2  0
 32 33  1  0
 33 34  2  0
 34 35  1  0
 35 36  2  0
 36 37  1  0
 37 38  2  0
 38 39  1  0
 39 40  2  0
 40 41  1  0
 41 42  2  0
 42 43  1  0
 43 44  2  0
 44 45  1  0
 45 46  2  0
 46 47  1  0
 47 48  2  0
 48 49  1  0
 49 50  2  0
 50 51  1  0
 51 52  2  0
 52 53  1  0
 53 54  2  0
 54 55  1  0
 55 56  2  0
 56 57  1  0
 57 58  2  0
 58 59  1  0
 59 60  2  0
 60 61  1  0
 61 62  2  0
 62  2  1  0
 14  9  1  0
 20 15  1  0
 26 21  1  0
 32 27  1  0
 38 33  1  0
 44 39  1  0
 50 45  1  0
 56 51  1  0
 62 57  1  0
M  END
>  <Title>  (506) 
idAARNgen10

$$$$

     RDKit          2D

 14 14  0  0  0  0  0  0  0  0999 V2000
   10.2760   -7.7942    0.0000 C   0  0  0  0  0  0  0  0  0  0  0  0
    9.5260   -6.4952    0.0000 C   0  0  0  0  0  0  0  0  0  0  0  0
    8.7760   -5.1962    0.0000 C   0  0  0  0  0  0  0  0  0  0  0  0
    8.0260   -3.8971    0.0000 C   0  0  0  0  0  0  0  0  0  0  0  0
    7.2760   -2.5981    0.0000 C   0  0  0  0  0  0  0  0  0  0  0  0
    6.5260   -1.2990    0.0000 C   0  0  0  0  0  0  0  0  0  0  0  0
    5.7760   -0.0000    0.0000 C   0  0  0  0  0  0  0  0  0  0  0  0
    4.2760   -0.0000    0.0000 C   0  0  0  0  0  0  0  0  0  0  0  0
    2.7760    0.0000    0.0000 C   0  0  0  0  0  0  0  0  0  0  0  0
    1.2760    0.0000    0.0000 C   0  0  0  0  0  0  0  0  0  0  0  0
    0.3943    1.2135    0.0000 C   0  0  0  0  0  0  0  0  0  0  0  0
   -1.0323    0.7500    0.0000 C   0  0  0  0  0  0  0  0  0  0  0  0
   -1.0323   -0.7500    0.0000 C   0  0  0  0  0  0  0  0  0  0  0  0
    0.3943   -1.2135    0.0000 C   0  0  0  0  0  0  0  0  0  0  0  0
  1  2  3  0
  2  3  1  0
  3  4  3  0
  4  5  1  0
  5  6  3  0
  6  7  1  0
  7  8  1  0
  8  9  3  0
  9 10  1  0
 10 11  2  0
 11 12  1  0
 12 13  2  0
 13 14  1  0
 14 10  1  0
M  END
>  <Title>  (507) 
idAAROgen10

$$$$

     RDKit          2D

 11 11  0  0  0  0  0  0  0  0999 V2000
    7.2760   -0.0000    0.0000 C   0  0  0  0  0  0  0  0  0  0  0  0
    5.7760   -0.0000    0.0000 C   0  0  0  0  0  0  0  0  0  0  0  0
    4.2760   -0.0000    0.0000 C   0  0  0  0  0  0  0  0  0  0  0  0
    2.7760    0.0000    0.0000 C   0  0  0  0  0  0  0  0  0  0  0  0
    1.2760    0.0000    0.0000 C   0  0  0  0  0  0  0  0  0  0  0  0
    0.3943    1.2135    0.0000 C   0  0  0  0  0  0  0  0  0  0  0  0
    0.8578    2.6401    0.0000 C   0  0  0  0  0  0  0  0  0  0  0  0
   -1.0323    0.7500    0.0000 C   0  0  0  0  0  0  0  0  0  0  0  0
   -1.0323   -0.7500    0.0000 C   0  0  0  0  0  0  0  0  0  0  0  0
   -2.2458   -1.6317    0.0000 C   0  0  0  0  0  0  0  0  0  0  0  0
    0.3943   -1.2135    0.0000 C   0  0  0  0  0  0  0  0  0  0  0  0
  1  2  3  0
  2  3  1  0
  3  4  3  0
  4  5  1  0
  5  6  2  0
  6  7  1  0
  6  8  1  0
  8  9  2  0
  9 10  1  0
  9 11  1  0
 11  5  1  0
M  END
>  <Title>  (508) 
idAARPgen10

$$$$

     RDKit          2D

119119  0  0  0  0  0  0  0  0999 V2000
   91.7173  -45.4663    0.0000 C   0  0  0  0  0  0  0  0  0  0  0  0
   90.2173  -45.4663    0.0000 C   0  0  0  0  0  0  0  0  0  0  0  0
   89.4673  -44.1673    0.0000 C   0  0  0  0  0  0  0  0  0  0  0  0
   87.9673  -44.1673    0.0000 C   0  0  0  0  0  0  0  0  0  0  0  0
   87.2173  -42.8683    0.0000 C   0  0  0  0  0  0  0  0  0  0  0  0
   85.7173  -42.8683    0.0000 C   0  0  0  0  0  0  0  0  0  0  0  0
   84.9673  -41.5692    0.0000 C   0  0  0  0  0  0  0  0  0  0  0  0
   83.4673  -41.5692    0.0000 C   0  0  0  0  0  0  0  0  0  0  0  0
   82.7173  -40.2702    0.0000 C   0  0  0  0  0  0  0  0  0  0  0  0
   81.2173  -40.2702    0.0000 C   0  0  0  0  0  0  0  0  0  0  0  0
   80.4673  -38.9711    0.0000 C   0  0  0  0  0  0  0  0  0  0  0  0
   78.9673  -38.9711    0.0000 C   0  0  0  0  0  0  0  0  0  0  0  0
   78.2173  -37.6721    0.0000 C   0  0  0  0  0  0  0  0  0  0  0  0
   76.7173  -37.6721    0.0000 C   0  0  0  0  0  0  0  0  0  0  0  0
   75.9673  -36.3731    0.0000 C   0  0  0  0  0  0  0  0  0  0  0  0
   74.4673  -36.3731    0.0000 C   0  0  0  0  0  0  0  0  0  0  0  0
   73.7173  -35.0740    0.0000 C   0  0  0  0  0  0  0  0  0  0  0  0
   72.2173  -35.0740    0.0000 C   0  0  0  0  0  0  0  0  0  0  0  0
   71.4673  -33.7750    0.0000 C   0  0  0  0  0  0  0  0  0  0  0  0
   69.9673  -33.7750    0.0000 C   0  0  0  0  0  0  0  0  0  0  0  0
   69.2173  -32.4760    0.0000 C   0  0  0  0  0  0  0  0  0  0  0  0
   67.7173  -32.4760    0.0000 C   0  0  0  0  0  0  0  0  0  0  0  0
   66.9673  -31.1769    0.0000 C   0  0  0  0  0  0  0  0  0  0  0  0
   65.4673  -31.1769    0.0000 C   0  0  0  0  0  0  0  0  0  0  0  0
   64.7173  -29.8779    0.0000 C   0  0  0  0  0  0  0  0  0  0  0  0
   63.2173  -29.8779    0.0000 C   0  0  0  0  0  0  0  0  0  0  0  0
   62.4673  -28.5788    0.0000 C   0  0  0  0  0  0  0  0  0  0  0  0
   60.9673  -28.5788    0.0000 C   0  0  0  0  0  0  0  0  0  0  0  0
   60.2173  -27.2798    0.0000 C   0  0  0  0  0  0  0  0  0  0  0  0
   58.7173  -27.2798    0.0000 C   0  0  0  0  0  0  0  0  0  0  0  0
   57.9673  -25.9808    0.0000 C   0  0  0  0  0  0  0  0  0  0  0  0
   56.4673  -25.9808    0.0000 C   0  0  0  0  0  0  0  0  0  0  0  0
   55.7173  -24.6817    0.0000 C   0  0  0  0  0  0  0  0  0  0  0  0
   54.2173  -24.6817    0.0000 C   0  0  0  0  0  0  0  0  0  0  0  0
   53.4673  -23.3827    0.0000 C   0  0  0  0  0  0  0  0  0  0  0  0
   51.9673  -23.3827    0.0000 C   0  0  0  0  0  0  0  0  0  0  0  0
   51.2173  -22.0836    0.0000 C   0  0  0  0  0  0  0  0  0  0  0  0
   49.7173  -22.0836    0.0000 C   0  0  0  0  0  0  0  0  0  0  0  0
   48.9673  -20.7846    0.0000 C   0  0  0  0  0  0  0  0  0  0  0  0
   47.4673  -20.7846    0.0000 C   0  0  0  0  0  0  0  0  0  0  0  0
   46.7173  -19.4856    0.0000 C   0  0  0  0  0  0  0  0  0  0  0  0
   45.2173  -19.4856    0.0000 C   0  0  0  0  0  0  0  0  0  0  0  0
   44.4673  -18.1865    0.0000 C   0  0  0  0  0  0  0  0  0  0  0  0
   42.9673  -18.1865    0.0000 C   0  0  0  0  0  0  0  0  0  0  0  0
   42.2173  -16.8875    0.0000 C   0  0  0  0  0  0  0  0  0  0  0  0
   40.7173  -16.8875    0.0000 C   0  0  0  0  0  0  0  0  0  0  0  0
   39.9673  -15.5885    0.0000 C   0  0  0  0  0  0  0  0  0  0  0  0
   38.4673  -15.5885    0.0000 C   0  0  0  0  0  0  0  0  0  0  0  0
   37.7173  -14.2894    0.0000 C   0  0  0  0  0  0  0  0  0  0  0  0
   36.2173  -14.2894    0.0000 C   0  0  0  0  0  0  0  0  0  0  0  0
   35.4673  -12.9904    0.0000 C   0  0  0  0  0  0  0  0  0  0  0  0
   33.9673  -12.9904    0.0000 C   0  0  0  0  0  0  0  0  0  0  0  0
   33.2173  -11.6913    0.0000 C   0  0  0  0  0  0  0  0  0  0  0  0
   31.7173  -11.6913    0.0000 C   0  0  0  0  0  0  0  0  0  0  0  0
   30.9673  -10.3923    0.0000 C   0  0  0  0  0  0  0  0  0  0  0  0
   29.4673  -10.3923    0.0000 C   0  0  0  0  0  0  0  0  0  0  0  0
   28.7173   -9.0933    0.0000 C   0  0  0  0  0  0  0  0  0  0  0  0
   27.2173   -9.0933    0.0000 C   0  0  0  0  0  0  0  0  0  0  0  0
   26.4673   -7.7942    0.0000 C   0  0  0  0  0  0  0  0  0  0  0  0
   24.9673   -7.7942    0.0000 C   0  0  0  0  0  0  0  0  0  0  0  0
   24.2173   -6.4952    0.0000 C   0  0  0  0  0  0  0  0  0  0  0  0
   22.7173   -6.4952    0.0000 C   0  0  0  0  0  0  0  0  0  0  0  0
   21.9673   -5.1962    0.0000 C   0  0  0  0  0  0  0  0  0  0  0  0
   20.4673   -5.1962    0.0000 C   0  0  0  0  0  0  0  0  0  0  0  0
   19.7173   -3.8971    0.0000 C   0  0  0  0  0  0  0  0  0  0  0  0
   18.2173   -3.8971    0.0000 C   0  0  0  0  0  0  0  0  0  0  0  0
   17.4673   -2.5981    0.0000 C   0  0  0  0  0  0  0  0  0  0  0  0
   15.9673   -2.5981    0.0000 C   0  0  0  0  0  0  0  0  0  0  0  0
   15.2173   -1.2990    0.0000 C   0  0  0  0  0  0  0  0  0  0  0  0
   13.7173   -1.2990    0.0000 C   0  0  0  0  0  0  0  0  0  0  0  0
   12.9673    0.0000    0.0000 C   0  0  0  0  0  0  0  0  0  0  0  0
   11.4673    0.0000    0.0000 C   0  0  0  0  0  0  0  0  0  0  0  0
   11.3692   -1.4968    0.0000 C   0  0  0  0  0  0  0  0  0  0  0  0
   11.0766   -2.9680    0.0000 C   0  0  0  0  0  0  0  0  0  0  0  0
   10.5944   -4.3884    0.0000 C   0  0  0  0  0  0  0  0  0  0  0  0
    9.9310   -5.7337    0.0000 C   0  0  0  0  0  0  0  0  0  0  0  0
    9.0977   -6.9809    0.0000 C   0  0  0  0  0  0  0  0  0  0  0  0
    8.1086   -8.1086    0.0000 C   0  0  0  0  0  0  0  0  0  0  0  0
    6.9809   -9.0977    0.0000 C   0  0  0  0  0  0  0  0  0  0  0  0
    5.7337   -9.9310    0.0000 C   0  0  0  0  0  0  0  0  0  0  0  0
    4.3884  -10.5944    0.0000 C   0  0  0  0  0  0  0  0  0  0  0  0
    2.9680  -11.0766    0.0000 C   0  0  0  0  0  0  0  0  0  0  0  0
    1.4968  -11.3692    0.0000 C   0  0  0  0  0  0  0  0  0  0  0  0
   -0.0000  -11.4673    0.0000 C   0  0  0  0  0  0  0  0  0  0  0  0
   -1.4968  -11.3692    0.0000 C   0  0  0  0  0  0  0  0  0  0  0  0
   -2.9680  -11.0766    0.0000 C   0  0  0  0  0  0  0  0  0  0  0  0
   -4.3884  -10.5944    0.0000 C   0  0  0  0  0  0  0  0  0  0  0  0
   -5.7337   -9.9310    0.0000 C   0  0  0  0  0  0  0  0  0  0  0  0
   -6.9809   -9.0977    0.0000 C   0  0  0  0  0  0  0  0  0  0  0  0
   -8.1086   -8.1086    0.0000 C   0  0  0  0  0  0  0  0  0  0  0  0
   -9.0977   -6.9809    0.0000 C   0  0  0  0  0  0  0  0  0  0  0  0
   -9.9310   -5.7337    0.0000 C   0  0  0  0  0  0  0  0  0  0  0  0
  -10.5944   -4.3884    0.0000 C   0  0  0  0  0  0  0  0  0  0  0  0
  -11.0766   -2.9680    0.0000 C   0  0  0  0  0  0  0  0  0  0  0  0
  -11.3692   -1.4968    0.0000 C   0  0  0  0  0  0  0  0  0  0  0  0
  -11.4673    0.0000    0.0000 C   0  0  0  0  0  0  0  0  0  0  0  0
  -11.3692    1.4968    0.0000 C   0  0  0  0  0  0  0  0  0  0  0  0
  -11.0766    2.9680    0.0000 C   0  0  0  0  0  0  0  0  0  0  0  0
  -10.5944    4.3884    0.0000 C   0  0  0  0  0  0  0  0  0  0  0  0
   -9.9310    5.7337    0.0000 C   0  0  0  0  0  0  0  0  0  0  0  0
   -9.0977    6.9809    0.0000 C   0  0  0  0  0  0  0  0  0  0  0  0
   -8.1086    8.1086    0.0000 C   0  0  0  0  0  0  0  0  0  0  0  0
   -6.9809    9.0977    0.0000 C   0  0  0  0  0  0  0  0  0  0  0  0
   -5.7337    9.9310    0.0000 C   0  0  0  0  0  0  0  0  0  0  0  0
   -4.3884   10.5944    0.0000 C   0  0  0  0  0  0  0  0  0  0  0  0
   -2.9680   11.0766    0.0000 C   0  0  0  0  0  0  0  0  0  0  0  0
   -1.4968   11.3692    0.0000 C   0  0  0  0  0  0  0  0  0  0  0  0
    0.0000   11.4673    0.0000 C   0  0  0  0  0  0  0  0  0  0  0  0
    1.4968   11.3692    0.0000 C   0  0  0  0  0  0  0  0  0  0  0  0
    2.9680   11.0766    0.0000 C   0  0  0  0  0  0  0  0  0  0  0  0
    4.3884   10.5944    0.0000 C   0  0  0  0  0  0  0  0  0  0  0  0
    5.7337    9.9310    0.0000 C   0  0  0  0  0  0  0  0  0  0  0  0
    6.9809    9.0977    0.0000 C   0  0  0  0  0  0  0  0  0  0  0  0
    8.1086    8.1086    0.0000 C   0  0  0  0  0  0  0  0  0  0  0  0
    9.0977    6.9809    0.0000 C   0  0  0  0  0  0  0  0  0  0  0  0
    9.9310    5.7337    0.0000 C   0  0  0  0  0  0  0  0  0  0  0  0
   10.5944    4.3884    0.0000 C   0  0  0  0  0  0  0  0  0  0  0  0
   11.0766    2.9680    0.0000 C   0  0  0  0  0  0  0  0  0  0  0  0
   11.3692    1.4968    0.0000 C   0  0  0  0  0  0  0  0  0  0  0  0
  1  2  1  0
  2  3  1  0
  3  4  1  0
  4  5  1  0
  5  6  1  0
  6  7  1  0
  7  8  1  0
  8  9  1  0
  9 10  1  0
 10 11  1  0
 11 12  1  0
 12 13  1  0
 13 14  1  0
 14 15  1  0
 15 16  1  0
 16 17  1  0
 17 18  1  0
 18 19  1  0
 19 20  1  0
 20 21  1  0
 21 22  1  0
 22 23  1  0
 23 24  1  0
 24 25  1  0
 25 26  1  0
 26 27  1  0
 27 28  1  0
 28 29  1  0
 29 30  1  0
 30 31  1  0
 31 32  1  0
 32 33  1  0
 33 34  1  0
 34 35  1  0
 35 36  1  0
 36 37  1  0
 37 38  1  0
 38 39  1  0
 39 40  1  0
 40 41  1  0
 41 42  1  0
 42 43  1  0
 43 44  1  0
 44 45  1  0
 45 46  1  0
 46 47  1  0
 47 48  1  0
 48 49  1  0
 49 50  1  0
 50 51  1  0
 51 52  1  0
 52 53  1  0
 53 54  1  0
 54 55  1  0
 55 56  1  0
 56 57  1  0
 57 58  1  0
 58 59  1  0
 59 60  2  3
 60 61  1  0
 61 62  2  3
 62 63  1  0
 63 64  2  3
 64 65  1  0
 65 66  2  3
 66 67  1  0
 67 68  2  3
 68 69  1  0
 69 70  2  3
 70 71  1  0
 71 72  2  3
 72 73  1  0
 73 74  1  0
 74 75  1  0
 75 76  1  0
 76 77  1  0
 77 78  1  0
 78 79  1  0
 79 80  1  0
 80 81  1  0
 81 82  1  0
 82 83  1  0
 83 84  1  0
 84 85  1  0
 85 86  1  0
 86 87  1  0
 87 88  1  0
 88 89  1  0
 89 90  1  0
 90 91  1  0
 91 92  1  0
 92 93  1  0
 93 94  1  0
 94 95  1  0
 95 96  1  0
 96 97  1  0
 97 98  1  0
 98 99  1  0
 99100  1  0
100101  1  0
101102  1  0
102103  1  0
103104  1  0
104105  1  0
105106  1  0
106107  1  0
107108  1  0
108109  1  0
109110  1  0
110111  1  0
111112  1  0
112113  1  0
113114  1  0
114115  1  0
115116  1  0
116117  1  0
117118  1  0
118119  1  0
119 72  1  0
M  END
>  <Title>  (509) 
idAARQgen10

$$$$

     RDKit          2D

 92 92  0  0  0  0  0  0  0  0999 V2000
   23.2290   -0.0000    0.0000 C   0  0  0  0  0  0  0  0  0  0  0  0
   21.7290    0.0000    0.0000 C   0  0  0  0  0  0  0  0  0  0  0  0
   21.6772    1.4991    0.0000 C   0  0  0  0  0  0  0  0  0  0  0  0
   21.5221    2.9911    0.0000 C   0  0  0  0  0  0  0  0  0  0  0  0
   21.2645    4.4688    0.0000 C   0  0  0  0  0  0  0  0  0  0  0  0
   20.9055    5.9252    0.0000 C   0  0  0  0  0  0  0  0  0  0  0  0
   20.4469    7.3534    0.0000 C   0  0  0  0  0  0  0  0  0  0  0  0
   19.8909    8.7465    0.0000 C   0  0  0  0  0  0  0  0  0  0  0  0
   19.2400   10.0980    0.0000 C   0  0  0  0  0  0  0  0  0  0  0  0
   18.4975   11.4013    0.0000 C   0  0  0  0  0  0  0  0  0  0  0  0
   17.6669   12.6503    0.0000 C   0  0  0  0  0  0  0  0  0  0  0  0
   16.7520   13.8390    0.0000 C   0  0  0  0  0  0  0  0  0  0  0  0
   15.7573   14.9618    0.0000 C   0  0  0  0  0  0  0  0  0  0  0  0
   14.6876   16.0132    0.0000 C   0  0  0  0  0  0  0  0  0  0  0  0
   13.5478   16.9884    0.0000 C   0  0  0  0  0  0  0  0  0  0  0  0
   12.3435   17.8826    0.0000 C   0  0  0  0  0  0  0  0  0  0  0  0
   11.0803   18.6916    0.0000 C   0  0  0  0  0  0  0  0  0  0  0  0
    9.7644   19.4115    0.0000 C   0  0  0  0  0  0  0  0  0  0  0  0
    8.4019   20.0389    0.0000 C   0  0  0  0  0  0  0  0  0  0  0  0
    6.9993   20.5708    0.0000 C   0  0  0  0  0  0  0  0  0  0  0  0
    5.5635   21.0047    0.0000 C   0  0  0  0  0  0  0  0  0  0  0  0
    4.1011   21.3384    0.0000 C   0  0  0  0  0  0  0  0  0  0  0  0
    2.6191   21.5705    0.0000 C   0  0  0  0  0  0  0  0  0  0  0  0
    1.1247   21.6998    0.0000 C   0  0  0  0  0  0  0  0  0  0  0  0
   -0.3751   21.7257    0.0000 C   0  0  0  0  0  0  0  0  0  0  0  0
   -1.8730   21.6481    0.0000 C   0  0  0  0  0  0  0  0  0  0  0  0
   -3.3621   21.4673    0.0000 C   0  0  0  0  0  0  0  0  0  0  0  0
   -4.8351   21.1842    0.0000 C   0  0  0  0  0  0  0  0  0  0  0  0
   -6.2851   20.8001    0.0000 C   0  0  0  0  0  0  0  0  0  0  0  0
   -7.7052   20.3169    0.0000 C   0  0  0  0  0  0  0  0  0  0  0  0
   -9.0885   19.7369    0.0000 C   0  0  0  0  0  0  0  0  0  0  0  0
  -10.4285   19.0629    0.0000 C   0  0  0  0  0  0  0  0  0  0  0  0
  -11.7189   18.2980    0.0000 C   0  0  0  0  0  0  0  0  0  0  0  0
  -12.9533   17.4459    0.0000 C   0  0  0  0  0  0  0  0  0  0  0  0
  -14.1261   16.5106    0.0000 C   0  0  0  0  0  0  0  0  0  0  0  0
  -15.2315   15.4967    0.0000 C   0  0  0  0  0  0  0  0  0  0  0  0
  -16.2644   14.4090    0.0000 C   0  0  0  0  0  0  0  0  0  0  0  0
  -17.2197   13.2525    0.0000 C   0  0  0  0  0  0  0  0  0  0  0  0
  -18.0930   12.0330    0.0000 C   0  0  0  0  0  0  0  0  0  0  0  0
  -18.8800   10.7560    0.0000 C   0  0  0  0  0  0  0  0  0  0  0  0
  -19.5771    9.4278    0.0000 C   0  0  0  0  0  0  0  0  0  0  0  0
  -20.1809    8.0547    0.0000 C   0  0  0  0  0  0  0  0  0  0  0  0
  -20.6885    6.6432    0.0000 C   0  0  0  0  0  0  0  0  0  0  0  0
  -21.0976    5.2001    0.0000 C   0  0  0  0  0  0  0  0  0  0  0  0
  -21.4061    3.7321    0.0000 C   0  0  0  0  0  0  0  0  0  0  0  0
  -21.6125    2.2464    0.0000 C   0  0  0  0  0  0  0  0  0  0  0  0
  -21.7160    0.7500    0.0000 C   0  0  0  0  0  0  0  0  0  0  0  0
  -21.7160   -0.7500    0.0000 C   0  0  0  0  0  0  0  0  0  0  0  0
  -21.6125   -2.2464    0.0000 C   0  0  0  0  0  0  0  0  0  0  0  0
  -21.4061   -3.7321    0.0000 C   0  0  0  0  0  0  0  0  0  0  0  0
  -21.0976   -5.2001    0.0000 C   0  0  0  0  0  0  0  0  0  0  0  0
  -20.6885   -6.6432    0.0000 C   0  0  0  0  0  0  0  0  0  0  0  0
  -20.1809   -8.0547    0.0000 C   0  0  0  0  0  0  0  0  0  0  0  0
  -19.5771   -9.4278    0.0000 C   0  0  0  0  0  0  0  0  0  0  0  0
  -18.8800  -10.7560    0.0000 C   0  0  0  0  0  0  0  0  0  0  0  0
  -18.0930  -12.0330    0.0000 C   0  0  0  0  0  0  0  0  0  0  0  0
  -17.2197  -13.2525    0.0000 C   0  0  0  0  0  0  0  0  0  0  0  0
  -16.2644  -14.4090    0.0000 C   0  0  0  0  0  0  0  0  0  0  0  0
  -15.2315  -15.4967    0.0000 C   0  0  0  0  0  0  0  0  0  0  0  0
  -14.1261  -16.5106    0.0000 C   0  0  0  0  0  0  0  0  0  0  0  0
  -12.9533  -17.4459    0.0000 C   0  0  0  0  0  0  0  0  0  0  0  0
  -11.7189  -18.2980    0.0000 C   0  0  0  0  0  0  0  0  0  0  0  0
  -10.4285  -19.0629    0.0000 C   0  0  0  0  0  0  0  0  0  0  0  0
   -9.0885  -19.7369    0.0000 C   0  0  0  0  0  0  0  0  0  0  0  0
   -7.7052  -20.3169    0.0000 C   0  0  0  0  0  0  0  0  0  0  0  0
   -6.2851  -20.8001    0.0000 C   0  0  0  0  0  0  0  0  0  0  0  0
   -4.8351  -21.1842    0.0000 C   0  0  0  0  0  0  0  0  0  0  0  0
   -3.3621  -21.4673    0.0000 C   0  0  0  0  0  0  0  0  0  0  0  0
   -1.8730  -21.6481    0.0000 C   0  0  0  0  0  0  0  0  0  0  0  0
   -0.3751  -21.7257    0.0000 C   0  0  0  0  0  0  0  0  0  0  0  0
    1.1247  -21.6998    0.0000 C   0  0  0  0  0  0  0  0  0  0  0  0
    2.6191  -21.5705    0.0000 C   0  0  0  0  0  0  0  0  0  0  0  0
    4.1011  -21.3384    0.0000 C   0  0  0  0  0  0  0  0  0  0  0  0
    5.5635  -21.0047    0.0000 C   0  0  0  0  0  0  0  0  0  0  0  0
    6.9993  -20.5708    0.0000 C   0  0  0  0  0  0  0  0  0  0  0  0
    8.4019  -20.0389    0.0000 C   0  0  0  0  0  0  0  0  0  0  0  0
    9.7644  -19.4115    0.0000 C   0  0  0  0  0  0  0  0  0  0  0  0
   11.0803  -18.6916    0.0000 C   0  0  0  0  0  0  0  0  0  0  0  0
   12.3435  -17.8826    0.0000 C   0  0  0  0  0  0  0  0  0  0  0  0
   13.5478  -16.9884    0.0000 C   0  0  0  0  0  0  0  0  0  0  0  0
   14.6876  -16.0132    0.0000 C   0  0  0  0  0  0  0  0  0  0  0  0
   15.7573  -14.9618    0.0000 C   0  0  0  0  0  0  0  0  0  0  0  0
   16.7520  -13.8390    0.0000 C   0  0  0  0  0  0  0  0  0  0  0  0
   17.6669  -12.6503    0.0000 C   0  0  0  0  0  0  0  0  0  0  0  0
   18.4975  -11.4013    0.0000 C   0  0  0  0  0  0  0  0  0  0  0  0
   19.2400  -10.0980    0.0000 C   0  0  0  0  0  0  0  0  0  0  0  0
   19.8909   -8.7465    0.0000 C   0  0  0  0  0  0  0  0  0  0  0  0
   20.4469   -7.3534    0.0000 C   0  0  0  0  0  0  0  0  0  0  0  0
   20.9055   -5.9252    0.0000 C   0  0  0  0  0  0  0  0  0  0  0  0
   21.2645   -4.4688    0.0000 C   0  0  0  0  0  0  0  0  0  0  0  0
   21.5221   -2.9911    0.0000 C   0  0  0  0  0  0  0  0  0  0  0  0
   21.6772   -1.4991    0.0000 C   0  0  0  0  0  0  0  0  0  0  0  0
  1  2  1  0
  2  3  1  0
  3  4  1  0
  4  5  1  0
  5  6  1  0
  6  7  1  0
  7  8  1  0
  8  9  1  0
  9 10  1  0
 10 11  1  0
 11 12  1  0
 12 13  1  0
 13 14  1  0
 14 15  1  0
 15 16  1  0
 16 17  1  0
 17 18  1  0
 18 19  1  0
 19 20  1  0
 20 21  1  0
 21 22  1  0
 22 23  1  0
 23 24  1  0
 24 25  1  0
 25 26  1  0
 26 27  1  0
 27 28  1  0
 28 29  1  0
 29 30  1  0
 30 31  1  0
 31 32  1  0
 32 33  1  0
 33 34  1  0
 34 35  1  0
 35 36  1  0
 36 37  1  0
 37 38  1  0
 38 39  1  0
 39 40  1  0
 40 41  1  0
 41 42  1  0
 42 43  1  0
 43 44  1  0
 44 45  1  0
 45 46  1  0
 46 47  1  0
 47 48  1  0
 48 49  1  0
 49 50  1  0
 50 51  1  0
 51 52  1  0
 52 53  1  0
 53 54  1  0
 54 55  1  0
 55 56  1  0
 56 57  1  0
 57 58  1  0
 58 59  1  0
 59 60  1  0
 60 61  1  0
 61 62  1  0
 62 63  1  0
 63 64  1  0
 64 65  1  0
 65 66  1  0
 66 67  1  0
 67 68  1  0
 68 69  1  0
 69 70  1  0
 70 71  1  0
 71 72  1  0
 72 73  1  0
 73 74  1  0
 74 75  1  0
 75 76  1  0
 76 77  1  0
 77 78  1  0
 78 79  1  0
 79 80  1  0
 80 81  1  0
 81 82  1  0
 82 83  1  0
 83 84  1  0
 84 85  1  0
 85 86  1  0
 86 87  1  0
 87 88  1  0
 88 89  1  0
 89 90  1  0
 90 91  1  0
 91 92  1  0
 92  2  1  0
M  END
>  <Title>  (510) 
idAARRgen10

$$$$

     RDKit          2D

 15 15  0  0  0  0  0  0  0  0999 V2000
   15.5260   -1.2990    0.0000 C   0  0  0  0  0  0  0  0  0  0  0  0
   14.7760   -0.0000    0.0000 C   0  0  0  0  0  0  0  0  0  0  0  0
   13.2760   -0.0000    0.0000 C   0  0  0  0  0  0  0  0  0  0  0  0
   11.7760   -0.0000    0.0000 C   0  0  0  0  0  0  0  0  0  0  0  0
   10.2760   -0.0000    0.0000 C   0  0  0  0  0  0  0  0  0  0  0  0
    8.7760   -0.0000    0.0000 C   0  0  0  0  0  0  0  0  0  0  0  0
    7.2760   -0.0000    0.0000 C   0  0  0  0  0  0  0  0  0  0  0  0
    5.7760   -0.0000    0.0000 C   0  0  0  0  0  0  0  0  0  0  0  0
    4.2760   -0.0000    0.0000 C   0  0  0  0  0  0  0  0  0  0  0  0
    2.7760    0.0000    0.0000 C   0  0  0  0  0  0  0  0  0  0  0  0
    1.2760    0.0000    0.0000 C   0  0  0  0  0  0  0  0  0  0  0  0
    0.3943    1.2135    0.0000 C   0  0  0  0  0  0  0  0  0  0  0  0
   -1.0323    0.7500    0.0000 C   0  0  0  0  0  0  0  0  0  0  0  0
   -1.0323   -0.7500    0.0000 C   0  0  0  0  0  0  0  0  0  0  0  0
    0.3943   -1.2135    0.0000 C   0  0  0  0  0  0  0  0  0  0  0  0
  1  2  2  0
  2  3  1  0
  3  4  3  0
  4  5  1  0
  5  6  3  0
  6  7  1  0
  7  8  3  0
  8  9  1  0
  9 10  3  0
 10 11  1  0
 11 12  2  0
 12 13  1  0
 13 14  2  0
 14 15  1  0
 15 11  1  0
M  END
>  <Title>  (511) 
idAARSgen10

$$$$

     RDKit          2D

 10 10  0  0  0  0  0  0  0  0999 V2000
    7.5000    0.0000    0.0000 C   0  0  0  0  0  0  0  0  0  0  0  0
    6.0000    0.0000    0.0000 C   0  0  0  0  0  0  0  0  0  0  0  0
    4.5000    0.0000    0.0000 C   0  0  0  0  0  0  0  0  0  0  0  0
    3.0000    0.0000    0.0000 C   0  0  0  0  0  0  0  0  0  0  0  0
    1.5000    0.0000    0.0000 C   0  0  0  0  0  0  0  0  0  0  0  0
    0.7500   -1.2990    0.0000 C   0  0  0  0  0  0  0  0  0  0  0  0
   -0.7500   -1.2990    0.0000 C   0  0  0  0  0  0  0  0  0  0  0  0
   -1.5000    0.0000    0.0000 C   0  0  0  0  0  0  0  0  0  0  0  0
   -0.7500    1.2990    0.0000 C   0  0  0  0  0  0  0  0  0  0  0  0
    0.7500    1.2990    0.0000 N   0  0  0  0  0  0  0  0  0  0  0  0
  1  2  3  0
  2  3  1  0
  3  4  3  0
  4  5  1  0
  5  6  2  0
  6  7  1  0
  7  8  2  0
  8  9  1  0
  9 10  2  0
 10  5  1  0
M  END
>  <Title>  (512) 
idAARTgen10

$$$$

     RDKit          2D

  9  9  0  0  0  0  0  0  0  0999 V2000
    6.0000    0.0000    0.0000 C   0  0  0  0  0  0  0  0  0  0  0  0
    4.5000    0.0000    0.0000 C   0  0  0  0  0  0  0  0  0  0  0  0
    3.0000    0.0000    0.0000 C   0  0  0  0  0  0  0  0  0  0  0  0
    1.5000    0.0000    0.0000 C   0  0  0  0  0  0  0  0  0  0  0  0
    0.7500   -1.2990    0.0000 C   0  0  0  0  0  0  0  0  0  0  0  0
   -0.7500   -1.2990    0.0000 C   0  0  0  0  0  0  0  0  0  0  0  0
   -1.5000    0.0000    0.0000 C   0  0  0  0  0  0  0  0  0  0  0  0
   -0.7500    1.2990    0.0000 C   0  0  0  0  0  0  0  0  0  0  0  0
    0.7500    1.2990    0.0000 C   0  0  0  0  0  0  0  0  0  0  0  0
  1  2  1  0
  2  3  3  0
  3  4  1  0
  4  5  2  0
  5  6  1  0
  6  7  2  0
  7  8  1  0
  8  9  2  0
  9  4  1  0
M  END
>  <Title>  (513) 
idAARUgen10

$$$$

     RDKit          2D

 10  9  0  0  0  0  0  0  0  0999 V2000
    0.0000    0.0000    0.0000 C   0  0  0  0  0  0  0  0  0  0  0  0
    1.2990    0.7500    0.0000 C   0  0  0  0  0  0  0  0  0  0  0  0
    2.5981   -0.0000    0.0000 C   0  0  0  0  0  0  0  0  0  0  0  0
    3.8971    0.7500    0.0000 C   0  0  0  0  0  0  0  0  0  0  0  0
    5.1962   -0.0000    0.0000 C   0  0  0  0  0  0  0  0  0  0  0  0
    6.4952    0.7500    0.0000 C   0  0  0  0  0  0  0  0  0  0  0  0
    7.7942   -0.0000    0.0000 C   0  0  0  0  0  0  0  0  0  0  0  0
    9.0933    0.7500    0.0000 C   0  0  0  0  0  0  0  0  0  0  0  0
   10.3923   -0.0000    0.0000 C   0  0  0  0  0  0  0  0  0  0  0  0
   11.6913    0.7500    0.0000 C   0  0  0  0  0  0  0  0  0  0  0  0
  1  2  2  0
  2  3  1  0
  3  4  1  0
  4  5  1  0
  5  6  1  0
  6  7  1  0
  7  8  1  0
  8  9  2  3
  9 10  1  0
M  END
>  <Title>  (514) 
idAARVgen10

$$$$

     RDKit          2D

 84 90  0  0  0  0  0  0  0  0999 V2000
  -13.2766   -6.9880    0.0000 C   0  0  0  0  0  0  0  0  0  0  0  0
  -12.0186   -7.8049    0.0000 C   0  0  0  0  0  0  0  0  0  0  0  0
  -12.7686   -9.1040    0.0000 C   0  0  0  0  0  0  0  0  0  0  0  0
  -13.3787  -10.4743    0.0000 C   0  0  0  0  0  0  0  0  0  0  0  0
  -13.8422  -11.9009    0.0000 C   0  0  0  0  0  0  0  0  0  0  0  0
  -14.1541  -13.3681    0.0000 C   0  0  0  0  0  0  0  0  0  0  0  0
  -14.3109  -14.8599    0.0000 C   0  0  0  0  0  0  0  0  0  0  0  0
  -14.3109  -16.3599    0.0000 C   0  0  0  0  0  0  0  0  0  0  0  0
  -14.1541  -17.8517    0.0000 C   0  0  0  0  0  0  0  0  0  0  0  0
  -13.8422  -19.3189    0.0000 C   0  0  0  0  0  0  0  0  0  0  0  0
  -13.3787  -20.7455    0.0000 C   0  0  0  0  0  0  0  0  0  0  0  0
  -12.7686  -22.1158    0.0000 C   0  0  0  0  0  0  0  0  0  0  0  0
  -12.0186  -23.4148    0.0000 C   0  0  0  0  0  0  0  0  0  0  0  0
  -11.1369  -24.6284    0.0000 C   0  0  0  0  0  0  0  0  0  0  0  0
  -10.1332  -25.7431    0.0000 C   0  0  0  0  0  0  0  0  0  0  0  0
   -9.0185  -26.7468    0.0000 C   0  0  0  0  0  0  0  0  0  0  0  0
   -7.8049  -27.6285    0.0000 C   0  0  0  0  0  0  0  0  0  0  0  0
   -6.5059  -28.3785    0.0000 C   0  0  0  0  0  0  0  0  0  0  0  0
   -5.1356  -28.9886    0.0000 C   0  0  0  0  0  0  0  0  0  0  0  0
   -3.7090  -29.4521    0.0000 C   0  0  0  0  0  0  0  0  0  0  0  0
   -2.2418  -29.7640    0.0000 C   0  0  0  0  0  0  0  0  0  0  0  0
   -0.7500  -29.9207    0.0000 C   0  0  0  0  0  0  0  0  0  0  0  0
    0.7500  -29.9207    0.0000 C   0  0  0  0  0  0  0  0  0  0  0  0
    2.2418  -29.7640    0.0000 C   0  0  0  0  0  0  0  0  0  0  0  0
    3.7090  -29.4521    0.0000 C   0  0  0  0  0  0  0  0  0  0  0  0
    5.1356  -28.9886    0.0000 C   0  0  0  0  0  0  0  0  0  0  0  0
    6.5059  -28.3785    0.0000 C   0  0  0  0  0  0  0  0  0  0  0  0
    7.8049  -27.6285    0.0000 C   0  0  0  0  0  0  0  0  0  0  0  0
    9.0185  -26.7468    0.0000 C   0  0  0  0  0  0  0  0  0  0  0  0
   10.1332  -25.7431    0.0000 C   0  0  0  0  0  0  0  0  0  0  0  0
   11.1369  -24.6284    0.0000 C   0  0  0  0  0  0  0  0  0  0  0  0
   12.0186  -23.4148    0.0000 C   0  0  0  0  0  0  0  0  0  0  0  0
   12.7686  -22.1158    0.0000 C   0  0  0  0  0  0  0  0  0  0  0  0
   13.3787  -20.7455    0.0000 C   0  0  0  0  0  0  0  0  0  0  0  0
   13.8422  -19.3189    0.0000 C   0  0  0  0  0  0  0  0  0  0  0  0
   14.1541  -17.8517    0.0000 C   0  0  0  0  0  0  0  0  0  0  0  0
   14.3109  -16.3599    0.0000 C   0  0  0  0  0  0  0  0  0  0  0  0
   14.3109  -14.8599    0.0000 C   0  0  0  0  0  0  0  0  0  0  0  0
   14.1541  -13.3681    0.0000 C   0  0  0  0  0  0  0  0  0  0  0  0
   13.8422  -11.9009    0.0000 C   0  0  0  0  0  0  0  0  0  0  0  0
   13.3787  -10.4743    0.0000 C   0  0  0  0  0  0  0  0  0  0  0  0
   12.7686   -9.1040    0.0000 C   0  0  0  0  0  0  0  0  0  0  0  0
   12.0186   -7.8049    0.0000 C   0  0  0  0  0  0  0  0  0  0  0  0
   11.1369   -6.5914    0.0000 C   0  0  0  0  0  0  0  0  0  0  0  0
   10.1332   -5.4767    0.0000 C   0  0  0  0  0  0  0  0  0  0  0  0
    9.0185   -4.4730    0.0000 C   0  0  0  0  0  0  0  0  0  0  0  0
    7.8049   -3.5913    0.0000 C   0  0  0  0  0  0  0  0  0  0  0  0
    6.5059   -2.8413    0.0000 C   0  0  0  0  0  0  0  0  0  0  0  0
    5.1356   -2.2312    0.0000 C   0  0  0  0  0  0  0  0  0  0  0  0
    3.7090   -1.7677    0.0000 C   0  0  0  0  0  0  0  0  0  0  0  0
    3.8658   -3.2595    0.0000 C   0  0  0  0  0  0  0  0  0  0  0  0
    2.4955   -3.8696    0.0000 C   0  0  0  0  0  0  0  0  0  0  0  0
    1.4918   -2.7549    0.0000 C   0  0  0  0  0  0  0  0  0  0  0  0
    2.2418   -1.4558    0.0000 C   0  0  0  0  0  0  0  0  0  0  0  0
    0.7500   -1.2990    0.0000 C   0  0  0  0  0  0  0  0  0  0  0  0
    1.5000    0.0000    0.0000 C   0  0  0  0  0  0  0  0  0  0  0  0
    0.7500    1.2990    0.0000 C   0  0  0  0  0  0  0  0  0  0  0  0
   -0.7500    1.2990    0.0000 C   0  0  0  0  0  0  0  0  0  0  0  0
   -1.5000    0.0000    0.0000 C   0  0  0  0  0  0  0  0  0  0  0  0
   -0.7500   -1.2990    0.0000 C   0  0  0  0  0  0  0  0  0  0  0  0
   -2.2418   -1.4558    0.0000 C   0  0  0  0  0  0  0  0  0  0  0  0
   -1.2381   -2.5705    0.0000 C   0  0  0  0  0  0  0  0  0  0  0  0
   -1.7016   -3.9971    0.0000 C   0  0  0  0  0  0  0  0  0  0  0  0
   -3.1688   -4.3090    0.0000 C   0  0  0  0  0  0  0  0  0  0  0  0
   -4.1725   -3.1943    0.0000 C   0  0  0  0  0  0  0  0  0  0  0  0
   -3.7090   -1.7677    0.0000 C   0  0  0  0  0  0  0  0  0  0  0  0
   -5.1356   -2.2312    0.0000 C   0  0  0  0  0  0  0  0  0  0  0  0
   -4.9788   -0.7394    0.0000 C   0  0  0  0  0  0  0  0  0  0  0  0
   -6.1923    0.1422    0.0000 C   0  0  0  0  0  0  0  0  0  0  0  0
   -7.5626   -0.4679    0.0000 C   0  0  0  0  0  0  0  0  0  0  0  0
   -7.7194   -1.9597    0.0000 C   0  0  0  0  0  0  0  0  0  0  0  0
   -6.5059   -2.8413    0.0000 C   0  0  0  0  0  0  0  0  0  0  0  0
   -7.8049   -3.5913    0.0000 C   0  0  0  0  0  0  0  0  0  0  0  0
   -6.4346   -4.2014    0.0000 C   0  0  0  0  0  0  0  0  0  0  0  0
   -6.2778   -5.6932    0.0000 C   0  0  0  0  0  0  0  0  0  0  0  0
   -7.4914   -6.5749    0.0000 C   0  0  0  0  0  0  0  0  0  0  0  0
   -8.8617   -5.9648    0.0000 C   0  0  0  0  0  0  0  0  0  0  0  0
   -9.0185   -4.4730    0.0000 C   0  0  0  0  0  0  0  0  0  0  0  0
  -10.1332   -5.4767    0.0000 C   0  0  0  0  0  0  0  0  0  0  0  0
  -10.5967   -4.0501    0.0000 C   0  0  0  0  0  0  0  0  0  0  0  0
  -12.0639   -3.7383    0.0000 C   0  0  0  0  0  0  0  0  0  0  0  0
  -13.0676   -4.8530    0.0000 C   0  0  0  0  0  0  0  0  0  0  0  0
  -12.6041   -6.2796    0.0000 C   0  0  0  0  0  0  0  0  0  0  0  0
  -11.1369   -6.5914    0.0000 C   0  0  0  0  0  0  0  0  0  0  0  0
  1  2  1  0
  2  3  1  0
  3  4  1  0
  4  5  1  0
  5  6  1  0
  6  7  1  0
  7  8  1  0
  8  9  1  0
  9 10  1  0
 10 11  1  0
 11 12  1  0
 12 13  1  0
 13 14  1  0
 14 15  1  0
 15 16  1  0
 16 17  1  0
 17 18  1  0
 18 19  1  0
 19 20  1  0
 20 21  1  0
 21 22  1  0
 22 23  1  0
 23 24  1  0
 24 25  1  0
 25 26  1  0
 26 27  1  0
 27 28  1  0
 28 29  1  0
 29 30  2  0
 30 31  1  0
 31 32  2  0
 32 33  1  0
 33 34  2  0
 34 35  1  0
 35 36  2  0
 36 37  1  0
 37 38  2  0
 38 39  1  0
 39 40  2  0
 40 41  1  0
 41 42  2  0
 42 43  1  0
 43 44  2  0
 44 45  1  0
 45 46  2  0
 46 47  1  0
 47 48  2  0
 48 49  1  0
 49 50  2  0
 50 51  1  0
 51 52  2  0
 52 53  1  0
 53 54  2  0
 54 55  1  0
 55 56  2  0
 56 57  1  0
 57 58  2  0
 58 59  1  0
 59 60  2  0
 60 61  1  0
 61 62  2  0
 62 63  1  0
 63 64  2  0
 64 65  1  0
 65 66  2  0
 66 67  1  0
 67 68  2  0
 68 69  1  0
 69 70  2  0
 70 71  1  0
 71 72  2  0
 72 73  1  0
 73 74  2  0
 74 75  1  0
 75 76  2  0
 76 77  1  0
 77 78  2  0
 78 79  1  0
 79 80  2  0
 80 81  1  0
 81 82  2  0
 82 83  1  0
 83 84  2  0
 84  2  1  0
 54 50  1  0
 60 55  1  0
 66 61  1  0
 72 67  1  0
 78 73  1  0
 84 79  1  0
M  END
>  <Title>  (515) 
idAARWgen10

$$$$

     RDKit          2D

  9  9  0  0  0  0  0  0  0  0999 V2000
    4.0607   -2.5981    0.0000 C   0  0  0  0  0  0  0  0  0  0  0  0
    3.3107   -1.2990    0.0000 C   0  0  0  0  0  0  0  0  0  0  0  0
    2.5607    0.0000    0.0000 C   0  0  0  0  0  0  0  0  0  0  0  0
    3.3107    1.2990    0.0000 O   0  0  0  0  0  0  0  0  0  0  0  0
    1.0607    0.0000    0.0000 C   0  0  0  0  0  0  0  0  0  0  0  0
   -0.0000   -1.0607    0.0000 C   0  0  0  0  0  0  0  0  0  0  0  0
   -0.0000   -2.5607    0.0000 C   0  0  0  0  0  0  0  0  0  0  0  0
   -1.0607    0.0000    0.0000 C   0  0  0  0  0  0  0  0  0  0  0  0
    0.0000    1.0607    0.0000 C   0  0  0  0  0  0  0  0  0  0  0  0
  1  2  3  0
  2  3  1  0
  3  4  2  0
  3  5  1  0
  5  6  2  0
  6  7  1  0
  6  8  1  0
  8  9  2  0
  9  5  1  0
M  END
>  <Title>  (516) 
idAARXgen10

$$$$

     RDKit          2D

 11 11  0  0  0  0  0  0  0  0999 V2000
    3.2286   -0.0000    0.0000 C   0  0  0  0  0  0  0  0  0  0  0  0
    1.7286    0.0000    0.0000 C   0  0  0  0  0  0  0  0  0  0  0  0
    1.0777    1.3515    0.0000 C   0  0  0  0  0  0  0  0  0  0  0  0
   -0.3846    1.6852    0.0000 C   0  0  0  0  0  0  0  0  0  0  0  0
   -1.5574    0.7500    0.0000 C   0  0  0  0  0  0  0  0  0  0  0  0
   -1.5574   -0.7500    0.0000 C   0  0  0  0  0  0  0  0  0  0  0  0
   -2.9088   -1.4008    0.0000 C   0  0  0  0  0  0  0  0  0  0  0  0
   -0.3846   -1.6852    0.0000 N   0  0  0  0  0  0  0  0  0  0  0  0
   -0.7184   -3.1476    0.0000 C   0  0  0  0  0  0  0  0  0  0  0  0
    1.0777   -1.3515    0.0000 C   0  0  0  0  0  0  0  0  0  0  0  0
    2.0130   -2.5242    0.0000 O   0  0  0  0  0  0  0  0  0  0  0  0
  1  2  1  0
  2  3  1  0
  3  4  1  0
  4  5  1  0
  5  6  1  0
  6  7  1  0
  6  8  1  0
  8  9  1  0
  8 10  1  0
 10 11  2  0
 10  2  1  0
M  END
>  <Title>  (517) 
idAARYgen10

$$$$

     RDKit          2D

 17 17  0  0  0  0  0  0  0  0999 V2000
   16.2760   -0.0000    0.0000 C   0  0  0  0  0  0  0  0  0  0  0  0
   14.7760   -0.0000    0.0000 C   0  0  0  0  0  0  0  0  0  0  0  0
   13.2760   -0.0000    0.0000 C   0  0  0  0  0  0  0  0  0  0  0  0
   11.7760   -0.0000    0.0000 C   0  0  0  0  0  0  0  0  0  0  0  0
   10.2760   -0.0000    0.0000 C   0  0  0  0  0  0  0  0  0  0  0  0
    8.7760   -0.0000    0.0000 C   0  0  0  0  0  0  0  0  0  0  0  0
    7.2760   -0.0000    0.0000 C   0  0  0  0  0  0  0  0  0  0  0  0
    5.7760   -0.0000    0.0000 C   0  0  0  0  0  0  0  0  0  0  0  0
    4.2760   -0.0000    0.0000 C   0  0  0  0  0  0  0  0  0  0  0  0
    2.7760    0.0000    0.0000 C   0  0  0  0  0  0  0  0  0  0  0  0
    1.2760    0.0000    0.0000 C   0  0  0  0  0  0  0  0  0  0  0  0
    0.3943    1.2135    0.0000 C   0  0  0  0  0  0  0  0  0  0  0  0
    0.8578    2.6401    0.0000 O   0  0  0  0  0  0  0  0  0  0  0  0
   -1.0323    0.7500    0.0000 C   0  0  0  0  0  0  0  0  0  0  0  0
   -1.0323   -0.7500    0.0000 C   0  0  0  0  0  0  0  0  0  0  0  0
   -2.2458   -1.6317    0.0000 C   0  0  0  0  0  0  0  0  0  0  0  0
    0.3943   -1.2135    0.0000 C   0  0  0  0  0  0  0  0  0  0  0  0
  1  2  3  0
  2  3  1  0
  3  4  3  0
  4  5  1  0
  5  6  3  0
  6  7  1  0
  7  8  3  0
  8  9  1  0
  9 10  3  0
 10 11  1  0
 11 12  2  0
 12 13  1  0
 12 14  1  0
 14 15  2  0
 15 16  1  0
 15 17  1  0
 17 11  1  0
M  END
>  <Title>  (518) 
idAARZgen10

$$$$

     RDKit          2D

  8  8  0  0  0  0  0  0  0  0999 V2000
    6.8660    0.0000    0.0000 C   0  0  0  0  0  0  0  0  0  0  0  0
    5.3660    0.0000    0.0000 C   0  0  0  0  0  0  0  0  0  0  0  0
    3.8660    0.0000    0.0000 C   0  0  0  0  0  0  0  0  0  0  0  0
    2.3660    0.0000    0.0000 C   0  0  0  0  0  0  0  0  0  0  0  0
    0.8660    0.0000    0.0000 C   0  0  0  0  0  0  0  0  0  0  0  0
   -0.4330    0.7500    0.0000 C   0  0  0  0  0  0  0  0  0  0  0  0
   -1.1830    2.0490    0.0000 O   0  0  0  0  0  0  0  0  0  0  0  0
   -0.4330   -0.7500    0.0000 C   0  0  0  0  0  0  0  0  0  0  0  0
  1  2  3  0
  2  3  1  0
  3  4  3  0
  4  5  1  0
  5  6  2  0
  6  7  1  0
  6  8  1  0
  8  5  1  0
M  END
>  <Title>  (519) 
idAASAgen10

$$$$

     RDKit          2D

  9  9  0  0  0  0  0  0  0  0999 V2000
    4.2760   -2.5981    0.0000 C   0  0  0  0  0  0  0  0  0  0  0  0
    3.5260   -1.2990    0.0000 C   0  0  0  0  0  0  0  0  0  0  0  0
    2.7760    0.0000    0.0000 C   0  0  0  0  0  0  0  0  0  0  0  0
    1.2760    0.0000    0.0000 N   0  0  0  0  0  0  0  0  0  0  0  0
    0.3943    1.2135    0.0000 C   0  0  0  0  0  0  0  0  0  0  0  0
   -1.0323    0.7500    0.0000 C   0  0  0  0  0  0  0  0  0  0  0  0
   -1.0323   -0.7500    0.0000 C   0  0  0  0  0  0  0  0  0  0  0  0
   -2.2458   -1.6317    0.0000 C   0  0  0  0  0  0  0  0  0  0  0  0
    0.3943   -1.2135    0.0000 C   0  0  0  0  0  0  0  0  0  0  0  0
  1  2  3  0
  2  3  1  0
  3  4  1  0
  4  5  1  0
  5  6  1  0
  6  7  2  0
  7  8  1  0
  7  9  1  0
  9  4  1  0
M  END
>  <Title>  (520) 
idAASBgen10

$$$$

     RDKit          2D

  8  8  0  0  0  0  0  0  0  0999 V2000
    4.0607    0.0000    0.0000 C   0  0  0  0  0  0  0  0  0  0  0  0
    2.5607    0.0000    0.0000 C   0  0  0  0  0  0  0  0  0  0  0  0
    1.0607    0.0000    0.0000 C   0  0  0  0  0  0  0  0  0  0  0  0
   -0.0000   -1.0607    0.0000 C   0  0  0  0  0  0  0  0  0  0  0  0
   -0.0000   -2.5607    0.0000 C   0  0  0  0  0  0  0  0  0  0  0  0
   -0.0000   -4.0607    0.0000 N   0  0  0  0  0  0  0  0  0  0  0  0
   -1.0607    0.0000    0.0000 C   0  0  0  0  0  0  0  0  0  0  0  0
    0.0000    1.0607    0.0000 C   0  0  0  0  0  0  0  0  0  0  0  0
  1  2  3  0
  2  3  1  0
  3  4  2  0
  4  5  1  0
  5  6  3  0
  4  7  1  0
  7  8  2  0
  8  3  1  0
M  END
>  <Title>  (521) 
idAASCgen10

$$$$

     RDKit          2D

  8  8  0  0  0  0  0  0  0  0999 V2000
    2.7760    0.0000    0.0000 C   0  0  0  0  0  0  0  0  0  0  0  0
    1.2760    0.0000    0.0000 C   0  0  0  0  0  0  0  0  0  0  0  0
    0.3943    1.2135    0.0000 C   0  0  0  0  0  0  0  0  0  0  0  0
   -1.0323    0.7500    0.0000 C   0  0  0  0  0  0  0  0  0  0  0  0
   -2.2458    1.6317    0.0000 C   0  0  0  0  0  0  0  0  0  0  0  0
   -1.0323   -0.7500    0.0000 C   0  0  0  0  0  0  0  0  0  0  0  0
   -2.2458   -1.6317    0.0000 C   0  0  0  0  0  0  0  0  0  0  0  0
    0.3943   -1.2135    0.0000 N   0  0  0  0  0  0  0  0  0  0  0  0
  1  2  1  0
  2  3  1  0
  3  4  1  0
  4  5  1  0
  4  6  1  0
  6  7  1  0
  6  8  1  0
  8  2  1  0
M  END
>  <Title>  (522) 
idAASDgen10

$$$$

     RDKit          2D

 15 16  0  0  0  0  0  0  0  0999 V2000
    4.6740   -7.4303    0.0000 C   0  0  0  0  0  0  0  0  0  0  0  0
    3.3037   -6.8202    0.0000 C   0  0  0  0  0  0  0  0  0  0  0  0
    2.9918   -5.3529    0.0000 C   0  0  0  0  0  0  0  0  0  0  0  0
    1.5000   -5.1962    0.0000 C   0  0  0  0  0  0  0  0  0  0  0  0
    0.7500   -3.8971    0.0000 C   0  0  0  0  0  0  0  0  0  0  0  0
   -0.7500   -3.8971    0.0000 O   0  0  0  0  0  0  0  0  0  0  0  0
    1.5000   -2.5981    0.0000 N   0  0  0  0  0  0  0  0  0  0  0  0
    0.7500   -1.2990    0.0000 C   0  0  0  0  0  0  0  0  0  0  0  0
    1.5000    0.0000    0.0000 N   0  0  0  0  0  0  0  0  0  0  0  0
    0.7500    1.2990    0.0000 N   0  0  0  0  0  0  0  0  0  0  0  0
   -0.7500    1.2990    0.0000 N   0  0  0  0  0  0  0  0  0  0  0  0
   -1.5000    0.0000    0.0000 N   0  0  0  0  0  0  0  0  0  0  0  0
   -0.7500   -1.2990    0.0000 N   0  0  0  0  0  0  0  0  0  0  0  0
    0.8899   -6.5665    0.0000 C   0  0  0  0  0  0  0  0  0  0  0  0
    2.0046   -7.5702    0.0000 C   0  0  0  0  0  0  0  0  0  0  0  0
  1  2  1  0
  2  3  1  0
  3  4  2  0
  4  5  1  0
  5  6  2  0
  5  7  1  0
  7  8  1  0
  8  9  2  0
  9 10  1  0
 10 11  2  0
 11 12  1  0
 12 13  2  0
  4 14  1  0
 14 15  1  0
 15  2  1  0
 13  8  1  0
M  END
>  <Title>  (523) 
idAASEgen10

$$$$

     RDKit          2D

 10 10  0  0  0  0  0  0  0  0999 V2000
    5.7760   -2.5981    0.0000 C   0  0  0  0  0  0  0  0  0  0  0  0
    5.0260   -1.2990    0.0000 C   0  0  0  0  0  0  0  0  0  0  0  0
    3.5260   -1.2990    0.0000 C   0  0  0  0  0  0  0  0  0  0  0  0
    2.7760    0.0000    0.0000 C   0  0  0  0  0  0  0  0  0  0  0  0
    3.5260    1.2990    0.0000 O   0  0  0  0  0  0  0  0  0  0  0  0
    1.2760    0.0000    0.0000 C   0  0  0  0  0  0  0  0  0  0  0  0
    0.3943    1.2135    0.0000 C   0  0  0  0  0  0  0  0  0  0  0  0
   -1.0323    0.7500    0.0000 C   0  0  0  0  0  0  0  0  0  0  0  0
   -1.0323   -0.7500    0.0000 C   0  0  0  0  0  0  0  0  0  0  0  0
    0.3943   -1.2135    0.0000 C   0  0  0  0  0  0  0  0  0  0  0  0
  1  2  1  0
  2  3  1  0
  3  4  1  0
  4  5  2  0
  4  6  1  0
  6  7  2  0
  7  8  1  0
  8  9  2  0
  9 10  1  0
 10  6  1  0
M  END
>  <Title>  (524) 
idAASFgen10

$$$$

     RDKit          2D

 16 17  0  0  0  0  0  0  0  0999 V2000
    7.5000    0.0000    0.0000 C   0  0  0  0  0  0  0  0  0  0  0  0
    6.0000    0.0000    0.0000 C   0  0  0  0  0  0  0  0  0  0  0  0
    4.5000    0.0000    0.0000 C   0  0  0  0  0  0  0  0  0  0  0  0
    3.0000    0.0000    0.0000 C   0  0  0  0  0  0  0  0  0  0  0  0
    1.5000    0.0000    0.0000 C   0  0  0  0  0  0  0  0  0  0  0  0
    0.7500   -1.2990    0.0000 C   0  0  0  0  0  0  0  0  0  0  0  0
   -0.7500   -1.2990    0.0000 C   0  0  0  0  0  0  0  0  0  0  0  0
   -1.5000    0.0000    0.0000 C   0  0  0  0  0  0  0  0  0  0  0  0
   -0.7500    1.2990    0.0000 C   0  0  0  0  0  0  0  0  0  0  0  0
    0.7500    1.2990    0.0000 C   0  0  0  0  0  0  0  0  0  0  0  0
    1.5000    2.5981    0.0000 C   0  0  0  0  0  0  0  0  0  0  0  0
    3.0000    2.5981    0.0000 C   0  0  0  0  0  0  0  0  0  0  0  0
    3.7500    3.8971    0.0000 C   0  0  0  0  0  0  0  0  0  0  0  0
    3.0000    5.1962    0.0000 C   0  0  0  0  0  0  0  0  0  0  0  0
    1.5000    5.1962    0.0000 C   0  0  0  0  0  0  0  0  0  0  0  0
    0.7500    3.8971    0.0000 C   0  0  0  0  0  0  0  0  0  0  0  0
  1  2  3  0
  2  3  1  0
  3  4  3  0
  4  5  1  0
  5  6  2  0
  6  7  1  0
  7  8  2  0
  8  9  1  0
  9 10  2  0
 10 11  1  0
 11 12  2  0
 12 13  1  0
 13 14  2  0
 14 15  1  0
 15 16  2  0
 10  5  1  0
 16 11  1  0
M  END
>  <Title>  (525) 
idAASGgen10

$$$$

     RDKit          2D

118118  0  0  0  0  0  0  0  0999 V2000
   29.1963    0.0000    0.0000 C   0  0  0  0  0  0  0  0  0  0  0  0
   27.6963    0.0000    0.0000 C   0  0  0  0  0  0  0  0  0  0  0  0
   27.6557   -1.4994    0.0000 C   0  0  0  0  0  0  0  0  0  0  0  0
   27.5340   -2.9945    0.0000 C   0  0  0  0  0  0  0  0  0  0  0  0
   27.3315   -4.4808    0.0000 C   0  0  0  0  0  0  0  0  0  0  0  0
   27.0488   -5.9539    0.0000 C   0  0  0  0  0  0  0  0  0  0  0  0
   26.6868   -7.4096    0.0000 C   0  0  0  0  0  0  0  0  0  0  0  0
   26.2465   -8.8435    0.0000 C   0  0  0  0  0  0  0  0  0  0  0  0
   25.7293  -10.2515    0.0000 C   0  0  0  0  0  0  0  0  0  0  0  0
   25.1365  -11.6294    0.0000 C   0  0  0  0  0  0  0  0  0  0  0  0
   24.4701  -12.9732    0.0000 C   0  0  0  0  0  0  0  0  0  0  0  0
   23.7318  -14.2790    0.0000 C   0  0  0  0  0  0  0  0  0  0  0  0
   22.9240  -15.5428    0.0000 C   0  0  0  0  0  0  0  0  0  0  0  0
   22.0489  -16.7611    0.0000 C   0  0  0  0  0  0  0  0  0  0  0  0
   21.1091  -17.9302    0.0000 C   0  0  0  0  0  0  0  0  0  0  0  0
   20.1074  -19.0468    0.0000 C   0  0  0  0  0  0  0  0  0  0  0  0
   19.0468  -20.1074    0.0000 C   0  0  0  0  0  0  0  0  0  0  0  0
   17.9302  -21.1091    0.0000 C   0  0  0  0  0  0  0  0  0  0  0  0
   16.7611  -22.0489    0.0000 C   0  0  0  0  0  0  0  0  0  0  0  0
   15.5428  -22.9240    0.0000 C   0  0  0  0  0  0  0  0  0  0  0  0
   14.2790  -23.7318    0.0000 C   0  0  0  0  0  0  0  0  0  0  0  0
   12.9732  -24.4701    0.0000 C   0  0  0  0  0  0  0  0  0  0  0  0
   11.6294  -25.1365    0.0000 C   0  0  0  0  0  0  0  0  0  0  0  0
   10.2515  -25.7293    0.0000 C   0  0  0  0  0  0  0  0  0  0  0  0
    8.8435  -26.2465    0.0000 C   0  0  0  0  0  0  0  0  0  0  0  0
    7.4096  -26.6868    0.0000 C   0  0  0  0  0  0  0  0  0  0  0  0
    5.9539  -27.0488    0.0000 C   0  0  0  0  0  0  0  0  0  0  0  0
    4.4808  -27.3315    0.0000 C   0  0  0  0  0  0  0  0  0  0  0  0
    2.9945  -27.5340    0.0000 C   0  0  0  0  0  0  0  0  0  0  0  0
    1.4994  -27.6557    0.0000 C   0  0  0  0  0  0  0  0  0  0  0  0
   -0.0000  -27.6963    0.0000 C   0  0  0  0  0  0  0  0  0  0  0  0
   -1.4994  -27.6557    0.0000 C   0  0  0  0  0  0  0  0  0  0  0  0
   -2.9945  -27.5340    0.0000 C   0  0  0  0  0  0  0  0  0  0  0  0
   -4.4808  -27.3315    0.0000 C   0  0  0  0  0  0  0  0  0  0  0  0
   -5.9539  -27.0488    0.0000 C   0  0  0  0  0  0  0  0  0  0  0  0
   -7.4096  -26.6868    0.0000 C   0  0  0  0  0  0  0  0  0  0  0  0
   -8.8435  -26.2465    0.0000 C   0  0  0  0  0  0  0  0  0  0  0  0
  -10.2515  -25.7293    0.0000 C   0  0  0  0  0  0  0  0  0  0  0  0
  -11.6294  -25.1365    0.0000 C   0  0  0  0  0  0  0  0  0  0  0  0
  -12.9732  -24.4701    0.0000 C   0  0  0  0  0  0  0  0  0  0  0  0
  -14.2790  -23.7318    0.0000 C   0  0  0  0  0  0  0  0  0  0  0  0
  -15.5428  -22.9240    0.0000 C   0  0  0  0  0  0  0  0  0  0  0  0
  -16.7611  -22.0489    0.0000 C   0  0  0  0  0  0  0  0  0  0  0  0
  -17.9302  -21.1091    0.0000 C   0  0  0  0  0  0  0  0  0  0  0  0
  -19.0468  -20.1074    0.0000 C   0  0  0  0  0  0  0  0  0  0  0  0
  -20.1074  -19.0468    0.0000 C   0  0  0  0  0  0  0  0  0  0  0  0
  -21.1091  -17.9302    0.0000 C   0  0  0  0  0  0  0  0  0  0  0  0
  -22.0489  -16.7611    0.0000 C   0  0  0  0  0  0  0  0  0  0  0  0
  -22.9240  -15.5428    0.0000 C   0  0  0  0  0  0  0  0  0  0  0  0
  -23.7318  -14.2790    0.0000 C   0  0  0  0  0  0  0  0  0  0  0  0
  -24.4701  -12.9732    0.0000 C   0  0  0  0  0  0  0  0  0  0  0  0
  -25.1365  -11.6294    0.0000 C   0  0  0  0  0  0  0  0  0  0  0  0
  -25.7293  -10.2515    0.0000 C   0  0  0  0  0  0  0  0  0  0  0  0
  -26.2465   -8.8435    0.0000 C   0  0  0  0  0  0  0  0  0  0  0  0
  -26.6868   -7.4096    0.0000 C   0  0  0  0  0  0  0  0  0  0  0  0
  -27.0488   -5.9539    0.0000 C   0  0  0  0  0  0  0  0  0  0  0  0
  -27.3315   -4.4808    0.0000 C   0  0  0  0  0  0  0  0  0  0  0  0
  -27.5340   -2.9945    0.0000 C   0  0  0  0  0  0  0  0  0  0  0  0
  -27.6557   -1.4994    0.0000 C   0  0  0  0  0  0  0  0  0  0  0  0
  -27.6963    0.0000    0.0000 C   0  0  0  0  0  0  0  0  0  0  0  0
  -27.6557    1.4994    0.0000 C   0  0  0  0  0  0  0  0  0  0  0  0
  -27.5340    2.9945    0.0000 C   0  0  0  0  0  0  0  0  0  0  0  0
  -27.3315    4.4808    0.0000 C   0  0  0  0  0  0  0  0  0  0  0  0
  -27.0488    5.9539    0.0000 C   0  0  0  0  0  0  0  0  0  0  0  0
  -26.6868    7.4096    0.0000 C   0  0  0  0  0  0  0  0  0  0  0  0
  -26.2465    8.8435    0.0000 C   0  0  0  0  0  0  0  0  0  0  0  0
  -25.7293   10.2515    0.0000 C   0  0  0  0  0  0  0  0  0  0  0  0
  -25.1365   11.6294    0.0000 C   0  0  0  0  0  0  0  0  0  0  0  0
  -24.4701   12.9732    0.0000 C   0  0  0  0  0  0  0  0  0  0  0  0
  -23.7318   14.2790    0.0000 C   0  0  0  0  0  0  0  0  0  0  0  0
  -22.9240   15.5428    0.0000 C   0  0  0  0  0  0  0  0  0  0  0  0
  -22.0489   16.7611    0.0000 C   0  0  0  0  0  0  0  0  0  0  0  0
  -21.1091   17.9302    0.0000 C   0  0  0  0  0  0  0  0  0  0  0  0
  -20.1074   19.0468    0.0000 C   0  0  0  0  0  0  0  0  0  0  0  0
  -19.0468   20.1074    0.0000 C   0  0  0  0  0  0  0  0  0  0  0  0
  -17.9302   21.1091    0.0000 C   0  0  0  0  0  0  0  0  0  0  0  0
  -16.7611   22.0489    0.0000 C   0  0  0  0  0  0  0  0  0  0  0  0
  -15.5428   22.9240    0.0000 C   0  0  0  0  0  0  0  0  0  0  0  0
  -14.2790   23.7318    0.0000 C   0  0  0  0  0  0  0  0  0  0  0  0
  -12.9732   24.4701    0.0000 C   0  0  0  0  0  0  0  0  0  0  0  0
  -11.6294   25.1365    0.0000 C   0  0  0  0  0  0  0  0  0  0  0  0
  -10.2515   25.7293    0.0000 C   0  0  0  0  0  0  0  0  0  0  0  0
   -8.8435   26.2465    0.0000 C   0  0  0  0  0  0  0  0  0  0  0  0
   -7.4096   26.6868    0.0000 C   0  0  0  0  0  0  0  0  0  0  0  0
   -5.9539   27.0488    0.0000 C   0  0  0  0  0  0  0  0  0  0  0  0
   -4.4808   27.3315    0.0000 C   0  0  0  0  0  0  0  0  0  0  0  0
   -2.9945   27.5340    0.0000 C   0  0  0  0  0  0  0  0  0  0  0  0
   -1.4994   27.6557    0.0000 C   0  0  0  0  0  0  0  0  0  0  0  0
    0.0000   27.6963    0.0000 C   0  0  0  0  0  0  0  0  0  0  0  0
    1.4994   27.6557    0.0000 C   0  0  0  0  0  0  0  0  0  0  0  0
    2.9945   27.5340    0.0000 C   0  0  0  0  0  0  0  0  0  0  0  0
    4.4808   27.3315    0.0000 C   0  0  0  0  0  0  0  0  0  0  0  0
    5.9539   27.0488    0.0000 C   0  0  0  0  0  0  0  0  0  0  0  0
    7.4096   26.6868    0.0000 C   0  0  0  0  0  0  0  0  0  0  0  0
    8.8435   26.2465    0.0000 C   0  0  0  0  0  0  0  0  0  0  0  0
   10.2515   25.7293    0.0000 C   0  0  0  0  0  0  0  0  0  0  0  0
   11.6294   25.1365    0.0000 C   0  0  0  0  0  0  0  0  0  0  0  0
   12.9732   24.4701    0.0000 C   0  0  0  0  0  0  0  0  0  0  0  0
   14.2790   23.7318    0.0000 C   0  0  0  0  0  0  0  0  0  0  0  0
   15.5428   22.9240    0.0000 C   0  0  0  0  0  0  0  0  0  0  0  0
   16.7611   22.0489    0.0000 C   0  0  0  0  0  0  0  0  0  0  0  0
   17.9302   21.1091    0.0000 C   0  0  0  0  0  0  0  0  0  0  0  0
   19.0468   20.1074    0.0000 C   0  0  0  0  0  0  0  0  0  0  0  0
   20.1074   19.0468    0.0000 C   0  0  0  0  0  0  0  0  0  0  0  0
   21.1091   17.9302    0.0000 C   0  0  0  0  0  0  0  0  0  0  0  0
   22.0489   16.7611    0.0000 C   0  0  0  0  0  0  0  0  0  0  0  0
   22.9240   15.5428    0.0000 C   0  0  0  0  0  0  0  0  0  0  0  0
   23.7318   14.2790    0.0000 C   0  0  0  0  0  0  0  0  0  0  0  0
   24.4701   12.9732    0.0000 C   0  0  0  0  0  0  0  0  0  0  0  0
   25.1365   11.6294    0.0000 C   0  0  0  0  0  0  0  0  0  0  0  0
   25.7293   10.2515    0.0000 C   0  0  0  0  0  0  0  0  0  0  0  0
   26.2465    8.8435    0.0000 C   0  0  0  0  0  0  0  0  0  0  0  0
   26.6868    7.4096    0.0000 C   0  0  0  0  0  0  0  0  0  0  0  0
   27.0488    5.9539    0.0000 C   0  0  0  0  0  0  0  0  0  0  0  0
   27.3315    4.4808    0.0000 C   0  0  0  0  0  0  0  0  0  0  0  0
   27.5340    2.9945    0.0000 C   0  0  0  0  0  0  0  0  0  0  0  0
   29.0252    3.1567    0.0000 C   0  0  0  0  0  0  0  0  0  0  0  0
   27.6557    1.4994    0.0000 C   0  0  0  0  0  0  0  0  0  0  0  0
  1  2  1  0
  2  3  1  0
  3  4  1  0
  4  5  1  0
  5  6  1  0
  6  7  1  0
  7  8  1  0
  8  9  1  0
  9 10  1  0
 10 11  1  0
 11 12  1  0
 12 13  1  0
 13 14  1  0
 14 15  1  0
 15 16  1  0
 16 17  1  0
 17 18  1  0
 18 19  1  0
 19 20  1  0
 20 21  1  0
 21 22  1  0
 22 23  1  0
 23 24  1  0
 24 25  1  0
 25 26  1  0
 26 27  1  0
 27 28  1  0
 28 29  1  0
 29 30  1  0
 30 31  1  0
 31 32  1  0
 32 33  1  0
 33 34  1  0
 34 35  1  0
 35 36  1  0
 36 37  1  0
 37 38  1  0
 38 39  1  0
 39 40  1  0
 40 41  1  0
 41 42  1  0
 42 43  1  0
 43 44  1  0
 44 45  1  0
 45 46  1  0
 46 47  1  0
 47 48  1  0
 48 49  1  0
 49 50  1  0
 50 51  1  0
 51 52  1  0
 52 53  1  0
 53 54  1  0
 54 55  1  0
 55 56  1  0
 56 57  1  0
 57 58  1  0
 58 59  1  0
 59 60  1  0
 60 61  1  0
 61 62  1  0
 62 63  1  0
 63 64  1  0
 64 65  1  0
 65 66  1  0
 66 67  1  0
 67 68  1  0
 68 69  1  0
 69 70  1  0
 70 71  1  0
 71 72  1  0
 72 73  1  0
 73 74  1  0
 74 75  1  0
 75 76  1  0
 76 77  1  0
 77 78  1  0
 78 79  1  0
 79 80  1  0
 80 81  1  0
 81 82  1  0
 82 83  1  0
 83 84  1  0
 84 85  1  0
 85 86  1  0
 86 87  1  0
 87 88  1  0
 88 89  1  0
 89 90  1  0
 90 91  1  0
 91 92  1  0
 92 93  1  0
 93 94  1  0
 94 95  1  0
 95 96  1  0
 96 97  1  0
 97 98  1  0
 98 99  1  0
 99100  1  0
100101  1  0
101102  1  0
102103  1  0
103104  1  0
104105  1  0
105106  1  0
106107  1  0
107108  1  0
108109  1  0
109110  1  0
110111  1  0
111112  1  0
112113  1  0
113114  1  0
114115  1  0
115116  1  0
116117  1  0
116118  1  0
118  2  1  0
M  END
>  <Title>  (526) 
idAASHgen10

$$$$

     RDKit          2D

 59 67  0  0  0  0  0  0  0  0999 V2000
   11.7008   -8.1521    0.0000 C   0  0  0  0  0  0  0  0  0  0  0  0
   12.4508   -6.8531    0.0000 C   0  0  0  0  0  0  0  0  0  0  0  0
   13.8916   -7.2704    0.0000 C   0  0  0  0  0  0  0  0  0  0  0  0
   15.3612   -6.9704    0.0000 C   0  0  0  0  0  0  0  0  0  0  0  0
   16.5232   -6.0217    0.0000 C   0  0  0  0  0  0  0  0  0  0  0  0
   17.1111   -4.6418    0.0000 C   0  0  0  0  0  0  0  0  0  0  0  0
   16.9904   -3.1466    0.0000 C   0  0  0  0  0  0  0  0  0  0  0  0
   16.1887   -1.8788    0.0000 C   0  0  0  0  0  0  0  0  0  0  0  0
   14.8897   -1.1288    0.0000 C   0  0  0  0  0  0  0  0  0  0  0  0
   13.3909   -1.0684    0.0000 C   0  0  0  0  0  0  0  0  0  0  0  0
   12.0357   -1.7115    0.0000 C   0  0  0  0  0  0  0  0  0  0  0  0
   11.1346   -2.9106    0.0000 C   0  0  0  0  0  0  0  0  0  0  0  0
   10.8940   -4.3912    0.0000 C   0  0  0  0  0  0  0  0  0  0  0  0
   11.3690   -5.8140    0.0000 C   0  0  0  0  0  0  0  0  0  0  0  0
   10.1626   -6.7054    0.0000 C   0  0  0  0  0  0  0  0  0  0  0  0
    8.9420   -5.8336    0.0000 C   0  0  0  0  0  0  0  0  0  0  0  0
    9.3940   -4.4033    0.0000 C   0  0  0  0  0  0  0  0  0  0  0  0
    8.5026   -3.1969    0.0000 C   0  0  0  0  0  0  0  0  0  0  0  0
    9.1017   -1.8217    0.0000 C   0  0  0  0  0  0  0  0  0  0  0  0
    8.2102   -0.6153    0.0000 C   0  0  0  0  0  0  0  0  0  0  0  0
    6.7198   -0.7841    0.0000 C   0  0  0  0  0  0  0  0  0  0  0  0
    6.1207   -2.1593    0.0000 C   0  0  0  0  0  0  0  0  0  0  0  0
    7.0121   -3.3657    0.0000 C   0  0  0  0  0  0  0  0  0  0  0  0
    6.4131   -4.7409    0.0000 C   0  0  0  0  0  0  0  0  0  0  0  0
    7.3045   -5.9473    0.0000 C   0  0  0  0  0  0  0  0  0  0  0  0
    6.7055   -7.3225    0.0000 C   0  0  0  0  0  0  0  0  0  0  0  0
    5.2150   -7.4913    0.0000 C   0  0  0  0  0  0  0  0  0  0  0  0
    4.3236   -6.2849    0.0000 C   0  0  0  0  0  0  0  0  0  0  0  0
    4.9226   -4.9097    0.0000 C   0  0  0  0  0  0  0  0  0  0  0  0
    4.0312   -3.7033    0.0000 C   0  0  0  0  0  0  0  0  0  0  0  0
    4.6302   -2.3281    0.0000 C   0  0  0  0  0  0  0  0  0  0  0  0
    3.7388   -1.1218    0.0000 C   0  0  0  0  0  0  0  0  0  0  0  0
    2.2483   -1.2906    0.0000 C   0  0  0  0  0  0  0  0  0  0  0  0
    1.6493   -2.6657    0.0000 C   0  0  0  0  0  0  0  0  0  0  0  0
    2.5407   -3.8721    0.0000 C   0  0  0  0  0  0  0  0  0  0  0  0
    1.9417   -5.2473    0.0000 C   0  0  0  0  0  0  0  0  0  0  0  0
    2.8331   -6.4537    0.0000 C   0  0  0  0  0  0  0  0  0  0  0  0
    2.2340   -7.8289    0.0000 C   0  0  0  0  0  0  0  0  0  0  0  0
    0.7436   -7.9977    0.0000 C   0  0  0  0  0  0  0  0  0  0  0  0
   -0.1478   -6.7913    0.0000 C   0  0  0  0  0  0  0  0  0  0  0  0
    0.4512   -5.4161    0.0000 C   0  0  0  0  0  0  0  0  0  0  0  0
   -0.4402   -4.2097    0.0000 C   0  0  0  0  0  0  0  0  0  0  0  0
    0.1588   -2.8346    0.0000 C   0  0  0  0  0  0  0  0  0  0  0  0
   -0.7326   -1.6282    0.0000 C   0  0  0  0  0  0  0  0  0  0  0  0
   -2.2231   -1.7970    0.0000 C   0  0  0  0  0  0  0  0  0  0  0  0
   -2.8221   -3.1722    0.0000 C   0  0  0  0  0  0  0  0  0  0  0  0
   -1.9307   -4.3785    0.0000 C   0  0  0  0  0  0  0  0  0  0  0  0
   -2.5297   -5.7537    0.0000 C   0  0  0  0  0  0  0  0  0  0  0  0
   -1.6383   -6.9601    0.0000 C   0  0  0  0  0  0  0  0  0  0  0  0
   -2.2374   -8.3353    0.0000 C   0  0  0  0  0  0  0  0  0  0  0  0
   -3.7278   -8.5041    0.0000 C   0  0  0  0  0  0  0  0  0  0  0  0
   -4.6193   -7.2977    0.0000 C   0  0  0  0  0  0  0  0  0  0  0  0
   -4.0202   -5.9225    0.0000 C   0  0  0  0  0  0  0  0  0  0  0  0
   -4.9116   -4.7162    0.0000 C   0  0  0  0  0  0  0  0  0  0  0  0
   -6.4021   -4.8850    0.0000 C   0  0  0  0  0  0  0  0  0  0  0  0
   -7.2935   -3.6786    0.0000 C   0  0  0  0  0  0  0  0  0  0  0  0
   -6.6945   -2.3034    0.0000 C   0  0  0  0  0  0  0  0  0  0  0  0
   -5.2040   -2.1346    0.0000 C   0  0  0  0  0  0  0  0  0  0  0  0
   -4.3126   -3.3410    0.0000 C   0  0  0  0  0  0  0  0  0  0  0  0
  1  2  1  0
  2  3  2  0
  3  4  1  0
  4  5  1  0
  5  6  1  0
  6  7  2  0
  7  8  1  0
  8  9  2  0
  9 10  1  0
 10 11  2  0
 11 12  1  0
 12 13  2  0
 13 14  1  0
 14 15  2  0
 15 16  1  0
 16 17  2  0
 17 18  1  0
 18 19  2  0
 19 20  1  0
 20 21  2  0
 21 22  1  0
 22 23  2  0
 23 24  1  0
 24 25  2  0
 25 26  1  0
 26 27  2  0
 27 28  1  0
 28 29  2  0
 29 30  1  0
 30 31  2  0
 31 32  1  0
 32 33  2  0
 33 34  1  0
 34 35  2  0
 35 36  1  0
 36 37  2  0
 37 38  1  0
 38 39  2  0
 39 40  1  0
 40 41  2  0
 41 42  1  0
 42 43  2  0
 43 44  1  0
 44 45  2  0
 45 46  1  0
 46 47  2  0
 47 48  1  0
 48 49  2  0
 49 50  1  0
 50 51  2  0
 51 52  1  0
 52 53  2  0
 53 54  1  0
 54 55  2  0
 55 56  1  0
 56 57  2  0
 57 58  1  0
 58 59  2  0
 14  2  1  0
 23 18  1  0
 29 24  1  0
 35 30  1  0
 41 36  1  0
 47 42  1  0
 53 48  1  0
 59 54  1  0
 17 13  1  0
M  END
>  <Title>  (527) 
idAASIgen10

$$$$

     RDKit          2D

  8  8  0  0  0  0  0  0  0  0999 V2000
    3.2286   -0.0000    0.0000 C   0  0  0  0  0  0  0  0  0  0  0  0
    1.7286    0.0000    0.0000 C   0  0  0  0  0  0  0  0  0  0  0  0
    1.0777    1.3515    0.0000 C   0  0  0  0  0  0  0  0  0  0  0  0
   -0.3846    1.6852    0.0000 C   0  0  0  0  0  0  0  0  0  0  0  0
   -1.5574    0.7500    0.0000 C   0  0  0  0  0  0  0  0  0  0  0  0
   -1.5574   -0.7500    0.0000 C   0  0  0  0  0  0  0  0  0  0  0  0
   -0.3846   -1.6852    0.0000 C   0  0  0  0  0  0  0  0  0  0  0  0
    1.0777   -1.3515    0.0000 N   0  0  0  0  0  0  0  0  0  0  0  0
  1  2  1  0
  2  3  1  0
  3  4  2  0
  4  5  1  0
  5  6  2  0
  6  7  1  0
  7  8  2  0
  8  2  1  0
M  END
>  <Title>  (528) 
idAASJgen10

$$$$

     RDKit          2D

 12 12  0  0  0  0  0  0  0  0999 V2000
    7.5000    0.0000    0.0000 C   0  0  0  0  0  0  0  0  0  0  0  0
    6.0000    0.0000    0.0000 C   0  0  0  0  0  0  0  0  0  0  0  0
    4.5000    0.0000    0.0000 C   0  0  0  0  0  0  0  0  0  0  0  0
    3.0000    0.0000    0.0000 C   0  0  0  0  0  0  0  0  0  0  0  0
    1.5000    0.0000    0.0000 C   0  0  0  0  0  0  0  0  0  0  0  0
    0.7500   -1.2990    0.0000 C   0  0  0  0  0  0  0  0  0  0  0  0
   -0.7500   -1.2990    0.0000 C   0  0  0  0  0  0  0  0  0  0  0  0
   -1.5000    0.0000    0.0000 C   0  0  0  0  0  0  0  0  0  0  0  0
   -0.7500    1.2990    0.0000 C   0  0  0  0  0  0  0  0  0  0  0  0
   -1.5000    2.5981    0.0000 O   0  0  0  0  0  0  0  0  0  0  0  0
    0.7500    1.2990    0.0000 C   0  0  0  0  0  0  0  0  0  0  0  0
    1.5000    2.5981    0.0000 C   0  0  0  0  0  0  0  0  0  0  0  0
  1  2  3  0
  2  3  1  0
  3  4  3  0
  4  5  1  0
  5  6  2  0
  6  7  1  0
  7  8  2  0
  8  9  1  0
  9 10  1  0
  9 11  2  0
 11 12  1  0
 11  5  1  0
M  END
>  <Title>  (529) 
idAASKgen10

$$$$

     RDKit          2D

 14 14  0  0  0  0  0  0  0  0999 V2000
    7.2760   -7.7942    0.0000 C   0  0  0  0  0  0  0  0  0  0  0  0
    6.5260   -6.4952    0.0000 C   0  0  0  0  0  0  0  0  0  0  0  0
    5.7760   -5.1962    0.0000 C   0  0  0  0  0  0  0  0  0  0  0  0
    5.0260   -3.8971    0.0000 C   0  0  0  0  0  0  0  0  0  0  0  0
    4.2760   -2.5981    0.0000 C   0  0  0  0  0  0  0  0  0  0  0  0
    3.5260   -1.2990    0.0000 C   0  0  0  0  0  0  0  0  0  0  0  0
    2.7760    0.0000    0.0000 C   0  0  0  0  0  0  0  0  0  0  0  0
    3.5260    1.2990    0.0000 O   0  0  0  0  0  0  0  0  0  0  0  0
    1.2760    0.0000    0.0000 C   0  0  0  0  0  0  0  0  0  0  0  0
    0.3943    1.2135    0.0000 C   0  0  0  0  0  0  0  0  0  0  0  0
   -1.0323    0.7500    0.0000 C   0  0  0  0  0  0  0  0  0  0  0  0
   -1.0323   -0.7500    0.0000 C   0  0  0  0  0  0  0  0  0  0  0  0
   -2.2458   -1.6317    0.0000 O   0  0  0  0  0  0  0  0  0  0  0  0
    0.3943   -1.2135    0.0000 C   0  0  0  0  0  0  0  0  0  0  0  0
  1  2  3  0
  2  3  1  0
  3  4  3  0
  4  5  1  0
  5  6  3  0
  6  7  1  0
  7  8  2  0
  7  9  1  0
  9 10  2  0
 10 11  1  0
 11 12  2  0
 12 13  1  0
 12 14  1  0
 14  9  1  0
M  END
>  <Title>  (530) 
idAASLgen10

$$$$

     RDKit          2D

 12 13  0  0  0  0  0  0  0  0999 V2000
   -3.1476   -2.1380    0.0000 C   0  0  0  0  0  0  0  0  0  0  0  0
   -1.6852   -2.4718    0.0000 C   0  0  0  0  0  0  0  0  0  0  0  0
   -1.3515   -3.9342    0.0000 C   0  0  0  0  0  0  0  0  0  0  0  0
   -0.0000   -4.5850    0.0000 C   0  0  0  0  0  0  0  0  0  0  0  0
    1.3515   -3.9342    0.0000 C   0  0  0  0  0  0  0  0  0  0  0  0
    1.6852   -2.4718    0.0000 C   0  0  0  0  0  0  0  0  0  0  0  0
    0.7500   -1.2990    0.0000 C   0  0  0  0  0  0  0  0  0  0  0  0
    1.5000    0.0000    0.0000 C   0  0  0  0  0  0  0  0  0  0  0  0
    0.7500    1.2990    0.0000 C   0  0  0  0  0  0  0  0  0  0  0  0
   -0.7500    1.2990    0.0000 C   0  0  0  0  0  0  0  0  0  0  0  0
   -1.5000    0.0000    0.0000 C   0  0  0  0  0  0  0  0  0  0  0  0
   -0.7500   -1.2990    0.0000 C   0  0  0  0  0  0  0  0  0  0  0  0
  1  2  1  0
  2  3  1  0
  3  4  1  0
  4  5  1  0
  5  6  1  0
  6  7  1  0
  7  8  2  0
  8  9  1  0
  9 10  2  0
 10 11  1  0
 11 12  2  0
 12  2  1  0
 12  7  1  0
M  END
>  <Title>  (531) 
idAASMgen10

$$$$

     RDKit          2D

 84 86  0  0  0  0  0  0  0  0999 V2000
   -2.6207    1.5518    0.0000 C   0  0  0  0  0  0  0  0  0  0  0  0
   -2.4327    0.0636    0.0000 C   0  0  0  0  0  0  0  0  0  0  0  0
   -2.2447   -1.4246    0.0000 C   0  0  0  0  0  0  0  0  0  0  0  0
   -3.7237   -1.6747    0.0000 C   0  0  0  0  0  0  0  0  0  0  0  0
   -5.1766   -2.0477    0.0000 C   0  0  0  0  0  0  0  0  0  0  0  0
   -6.5932   -2.5410    0.0000 C   0  0  0  0  0  0  0  0  0  0  0  0
   -7.9635   -3.1511    0.0000 C   0  0  0  0  0  0  0  0  0  0  0  0
   -9.2780   -3.8738    0.0000 C   0  0  0  0  0  0  0  0  0  0  0  0
  -10.5273   -4.7039    0.0000 C   0  0  0  0  0  0  0  0  0  0  0  0
  -11.7029   -5.6356    0.0000 C   0  0  0  0  0  0  0  0  0  0  0  0
  -12.7963   -6.6624    0.0000 C   0  0  0  0  0  0  0  0  0  0  0  0
  -13.8000   -7.7771    0.0000 C   0  0  0  0  0  0  0  0  0  0  0  0
  -14.7069   -8.9719    0.0000 C   0  0  0  0  0  0  0  0  0  0  0  0
  -15.5107  -10.2384    0.0000 C   0  0  0  0  0  0  0  0  0  0  0  0
  -16.2056  -11.5677    0.0000 C   0  0  0  0  0  0  0  0  0  0  0  0
  -16.7869  -12.9505    0.0000 C   0  0  0  0  0  0  0  0  0  0  0  0
  -17.2504  -14.3771    0.0000 C   0  0  0  0  0  0  0  0  0  0  0  0
  -17.5929  -15.8375    0.0000 C   0  0  0  0  0  0  0  0  0  0  0  0
  -17.8121  -17.3214    0.0000 C   0  0  0  0  0  0  0  0  0  0  0  0
  -17.9062  -18.8184    0.0000 C   0  0  0  0  0  0  0  0  0  0  0  0
  -17.8748  -20.3181    0.0000 C   0  0  0  0  0  0  0  0  0  0  0  0
  -17.7180  -21.8099    0.0000 C   0  0  0  0  0  0  0  0  0  0  0  0
  -17.4370  -23.2833    0.0000 C   0  0  0  0  0  0  0  0  0  0  0  0
  -17.0336  -24.7280    0.0000 C   0  0  0  0  0  0  0  0  0  0  0  0
  -16.5107  -26.1340    0.0000 C   0  0  0  0  0  0  0  0  0  0  0  0
  -15.8721  -27.4912    0.0000 C   0  0  0  0  0  0  0  0  0  0  0  0
  -15.1221  -28.7902    0.0000 C   0  0  0  0  0  0  0  0  0  0  0  0
  -14.2660  -30.0220    0.0000 C   0  0  0  0  0  0  0  0  0  0  0  0
  -13.3098  -31.1777    0.0000 C   0  0  0  0  0  0  0  0  0  0  0  0
  -12.2604  -32.2494    0.0000 C   0  0  0  0  0  0  0  0  0  0  0  0
  -11.1249  -33.2296    0.0000 C   0  0  0  0  0  0  0  0  0  0  0  0
   -9.9113  -34.1113    0.0000 C   0  0  0  0  0  0  0  0  0  0  0  0
   -8.6283  -34.8883    0.0000 C   0  0  0  0  0  0  0  0  0  0  0  0
   -7.2847  -35.5552    0.0000 C   0  0  0  0  0  0  0  0  0  0  0  0
   -5.8901  -36.1074    0.0000 C   0  0  0  0  0  0  0  0  0  0  0  0
   -4.4541  -36.5410    0.0000 C   0  0  0  0  0  0  0  0  0  0  0  0
   -2.9869  -36.8529    0.0000 C   0  0  0  0  0  0  0  0  0  0  0  0
   -1.4987  -37.0409    0.0000 C   0  0  0  0  0  0  0  0  0  0  0  0
   -0.0000  -37.1037    0.0000 C   0  0  0  0  0  0  0  0  0  0  0  0
    1.4987  -37.0409    0.0000 C   0  0  0  0  0  0  0  0  0  0  0  0
    2.9869  -36.8529    0.0000 C   0  0  0  0  0  0  0  0  0  0  0  0
    4.4541  -36.5410    0.0000 C   0  0  0  0  0  0  0  0  0  0  0  0
    5.8901  -36.1074    0.0000 C   0  0  0  0  0  0  0  0  0  0  0  0
    7.2847  -35.5552    0.0000 C   0  0  0  0  0  0  0  0  0  0  0  0
    8.6283  -34.8883    0.0000 C   0  0  0  0  0  0  0  0  0  0  0  0
    9.9113  -34.1113    0.0000 C   0  0  0  0  0  0  0  0  0  0  0  0
   11.1249  -33.2296    0.0000 C   0  0  0  0  0  0  0  0  0  0  0  0
   12.2604  -32.2494    0.0000 C   0  0  0  0  0  0  0  0  0  0  0  0
   13.3098  -31.1777    0.0000 C   0  0  0  0  0  0  0  0  0  0  0  0
   14.2660  -30.0220    0.0000 C   0  0  0  0  0  0  0  0  0  0  0  0
   15.1221  -28.7902    0.0000 C   0  0  0  0  0  0  0  0  0  0  0  0
   15.8721  -27.4912    0.0000 C   0  0  0  0  0  0  0  0  0  0  0  0
   16.5107  -26.1340    0.0000 C   0  0  0  0  0  0  0  0  0  0  0  0
   17.0336  -24.7280    0.0000 C   0  0  0  0  0  0  0  0  0  0  0  0
   17.4370  -23.2833    0.0000 C   0  0  0  0  0  0  0  0  0  0  0  0
   17.7180  -21.8099    0.0000 C   0  0  0  0  0  0  0  0  0  0  0  0
   17.8748  -20.3181    0.0000 C   0  0  0  0  0  0  0  0  0  0  0  0
   17.9062  -18.8184    0.0000 C   0  0  0  0  0  0  0  0  0  0  0  0
   17.8121  -17.3214    0.0000 C   0  0  0  0  0  0  0  0  0  0  0  0
   17.5929  -15.8375    0.0000 C   0  0  0  0  0  0  0  0  0  0  0  0
   17.2504  -14.3771    0.0000 C   0  0  0  0  0  0  0  0  0  0  0  0
   16.7869  -12.9505    0.0000 C   0  0  0  0  0  0  0  0  0  0  0  0
   16.2056  -11.5677    0.0000 C   0  0  0  0  0  0  0  0  0  0  0  0
   15.5107  -10.2384    0.0000 C   0  0  0  0  0  0  0  0  0  0  0  0
   14.7069   -8.9719    0.0000 C   0  0  0  0  0  0  0  0  0  0  0  0
   13.8000   -7.7771    0.0000 C   0  0  0  0  0  0  0  0  0  0  0  0
   12.7963   -6.6624    0.0000 C   0  0  0  0  0  0  0  0  0  0  0  0
   11.7029   -5.6356    0.0000 C   0  0  0  0  0  0  0  0  0  0  0  0
   10.5273   -4.7039    0.0000 C   0  0  0  0  0  0  0  0  0  0  0  0
    9.2780   -3.8738    0.0000 C   0  0  0  0  0  0  0  0  0  0  0  0
    7.9635   -3.1511    0.0000 C   0  0  0  0  0  0  0  0  0  0  0  0
    6.5932   -2.5410    0.0000 C   0  0  0  0  0  0  0  0  0  0  0  0
    5.1766   -2.0477    0.0000 C   0  0  0  0  0  0  0  0  0  0  0  0
    3.7237   -1.6747    0.0000 C   0  0  0  0  0  0  0  0  0  0  0  0
    3.9429   -3.1586    0.0000 C   0  0  0  0  0  0  0  0  0  0  0  0
    2.5993   -3.8256    0.0000 C   0  0  0  0  0  0  0  0  0  0  0  0
    1.5498   -2.7539    0.0000 C   0  0  0  0  0  0  0  0  0  0  0  0
    2.2447   -1.4246    0.0000 C   0  0  0  0  0  0  0  0  0  0  0  0
    0.7500   -1.2990    0.0000 C   0  0  0  0  0  0  0  0  0  0  0  0
    1.5000    0.0000    0.0000 C   0  0  0  0  0  0  0  0  0  0  0  0
    0.7500    1.2990    0.0000 C   0  0  0  0  0  0  0  0  0  0  0  0
   -0.7500    1.2990    0.0000 C   0  0  0  0  0  0  0  0  0  0  0  0
   -1.5000    0.0000    0.0000 C   0  0  0  0  0  0  0  0  0  0  0  0
   -0.7500   -1.2990    0.0000 C   0  0  0  0  0  0  0  0  0  0  0  0
  1  2  3  0
  2  3  1  0
  3  4  1  0
  4  5  1  0
  5  6  1  0
  6  7  1  0
  7  8  1  0
  8  9  1  0
  9 10  1  0
 10 11  1  0
 11 12  1  0
 12 13  1  0
 13 14  1  0
 14 15  1  0
 15 16  1  0
 16 17  1  0
 17 18  1  0
 18 19  1  0
 19 20  1  0
 20 21  1  0
 21 22  1  0
 22 23  1  0
 23 24  1  0
 24 25  1  0
 25 26  1  0
 26 27  1  0
 27 28  1  0
 28 29  1  0
 29 30  1  0
 30 31  1  0
 31 32  1  0
 32 33  1  0
 33 34  1  0
 34 35  1  0
 35 36  1  0
 36 37  1  0
 37 38  1  0
 38 39  1  0
 39 40  1  0
 40 41  1  0
 41 42  1  0
 42 43  1  0
 43 44  1  0
 44 45  1  0
 45 46  1  0
 46 47  1  0
 47 48  1  0
 48 49  1  0
 49 50  1  0
 50 51  1  0
 51 52  1  0
 52 53  1  0
 53 54  1  0
 54 55  1  0
 55 56  1  0
 56 57  1  0
 57 58  1  0
 58 59  1  0
 59 60  1  0
 60 61  1  0
 61 62  2  0
 62 63  1  0
 63 64  2  0
 64 65  1  0
 65 66  2  0
 66 67  1  0
 67 68  2  0
 68 69  1  0
 69 70  2  0
 70 71  1  0
 71 72  2  0
 72 73  1  0
 73 74  2  0
 74 75  1  0
 75 76  2  0
 76 77  1  0
 77 78  2  0
 78 79  1  0
 79 80  2  0
 80 81  1  0
 81 82  2  0
 82 83  1  0
 83 84  2  0
 84  3  1  0
 78 74  1  0
 84 79  1  0
M  END
>  <Title>  (532) 
idAASNgen10

$$$$

     RDKit          2D

 71 72  0  0  0  0  0  0  0  0999 V2000
   -2.4567    0.0431    0.0000 C   0  0  0  0  0  0  0  0  0  0  0  0
   -2.2432   -1.4416    0.0000 C   0  0  0  0  0  0  0  0  0  0  0  0
   -3.7161   -1.7255    0.0000 C   0  0  0  0  0  0  0  0  0  0  0  0
   -5.1553   -2.1481    0.0000 N   0  0  0  0  0  0  0  0  0  0  0  0
   -6.5479   -2.7056    0.0000 C   0  0  0  0  0  0  0  0  0  0  0  0
   -7.8811   -3.3929    0.0000 C   0  0  0  0  0  0  0  0  0  0  0  0
   -9.1430   -4.2039    0.0000 C   0  0  0  0  0  0  0  0  0  0  0  0
  -10.3221   -5.1311    0.0000 C   0  0  0  0  0  0  0  0  0  0  0  0
  -11.4077   -6.1662    0.0000 C   0  0  0  0  0  0  0  0  0  0  0  0
  -12.3900   -7.2999    0.0000 C   0  0  0  0  0  0  0  0  0  0  0  0
  -13.2601   -8.5217    0.0000 C   0  0  0  0  0  0  0  0  0  0  0  0
  -14.0101   -9.8208    0.0000 C   0  0  0  0  0  0  0  0  0  0  0  0
  -14.6332  -11.1852    0.0000 C   0  0  0  0  0  0  0  0  0  0  0  0
  -15.1238  -12.6027    0.0000 C   0  0  0  0  0  0  0  0  0  0  0  0
  -15.4774  -14.0604    0.0000 C   0  0  0  0  0  0  0  0  0  0  0  0
  -15.6909  -15.5452    0.0000 C   0  0  0  0  0  0  0  0  0  0  0  0
  -15.7623  -17.0435    0.0000 C   0  0  0  0  0  0  0  0  0  0  0  0
  -15.6909  -18.5418    0.0000 C   0  0  0  0  0  0  0  0  0  0  0  0
  -15.4774  -20.0265    0.0000 C   0  0  0  0  0  0  0  0  0  0  0  0
  -15.1238  -21.4842    0.0000 C   0  0  0  0  0  0  0  0  0  0  0  0
  -14.6332  -22.9017    0.0000 C   0  0  0  0  0  0  0  0  0  0  0  0
  -14.0101  -24.2662    0.0000 C   0  0  0  0  0  0  0  0  0  0  0  0
  -13.2601  -25.5652    0.0000 C   0  0  0  0  0  0  0  0  0  0  0  0
  -12.3900  -26.7871    0.0000 C   0  0  0  0  0  0  0  0  0  0  0  0
  -11.4077  -27.9207    0.0000 C   0  0  0  0  0  0  0  0  0  0  0  0
  -10.3221  -28.9558    0.0000 C   0  0  0  0  0  0  0  0  0  0  0  0
   -9.1430  -29.8831    0.0000 C   0  0  0  0  0  0  0  0  0  0  0  0
   -7.8811  -30.6940    0.0000 C   0  0  0  0  0  0  0  0  0  0  0  0
   -6.5479  -31.3814    0.0000 C   0  0  0  0  0  0  0  0  0  0  0  0
   -5.1553  -31.9389    0.0000 C   0  0  0  0  0  0  0  0  0  0  0  0
   -3.7161  -32.3615    0.0000 C   0  0  0  0  0  0  0  0  0  0  0  0
   -2.2432  -32.6453    0.0000 C   0  0  0  0  0  0  0  0  0  0  0  0
   -0.7500  -32.7879    0.0000 C   0  0  0  0  0  0  0  0  0  0  0  0
    0.7500  -32.7879    0.0000 C   0  0  0  0  0  0  0  0  0  0  0  0
    2.2432  -32.6453    0.0000 C   0  0  0  0  0  0  0  0  0  0  0  0
    3.7161  -32.3615    0.0000 C   0  0  0  0  0  0  0  0  0  0  0  0
    5.1553  -31.9389    0.0000 C   0  0  0  0  0  0  0  0  0  0  0  0
    6.5479  -31.3814    0.0000 C   0  0  0  0  0  0  0  0  0  0  0  0
    7.8811  -30.6940    0.0000 C   0  0  0  0  0  0  0  0  0  0  0  0
    9.1430  -29.8831    0.0000 C   0  0  0  0  0  0  0  0  0  0  0  0
   10.3221  -28.9558    0.0000 C   0  0  0  0  0  0  0  0  0  0  0  0
   11.4077  -27.9207    0.0000 C   0  0  0  0  0  0  0  0  0  0  0  0
   12.3900  -26.7871    0.0000 C   0  0  0  0  0  0  0  0  0  0  0  0
   13.2601  -25.5652    0.0000 C   0  0  0  0  0  0  0  0  0  0  0  0
   14.0101  -24.2662    0.0000 C   0  0  0  0  0  0  0  0  0  0  0  0
   14.6332  -22.9017    0.0000 C   0  0  0  0  0  0  0  0  0  0  0  0
   15.1238  -21.4842    0.0000 C   0  0  0  0  0  0  0  0  0  0  0  0
   15.4774  -20.0265    0.0000 C   0  0  0  0  0  0  0  0  0  0  0  0
   15.6909  -18.5418    0.0000 C   0  0  0  0  0  0  0  0  0  0  0  0
   15.7623  -17.0435    0.0000 C   0  0  0  0  0  0  0  0  0  0  0  0
   15.6909  -15.5452    0.0000 C   0  0  0  0  0  0  0  0  0  0  0  0
   15.4774  -14.0604    0.0000 C   0  0  0  0  0  0  0  0  0  0  0  0
   15.1238  -12.6027    0.0000 C   0  0  0  0  0  0  0  0  0  0  0  0
   14.6332  -11.1852    0.0000 C   0  0  0  0  0  0  0  0  0  0  0  0
   14.0101   -9.8208    0.0000 C   0  0  0  0  0  0  0  0  0  0  0  0
   13.2601   -8.5217    0.0000 C   0  0  0  0  0  0  0  0  0  0  0  0
   12.3900   -7.2999    0.0000 C   0  0  0  0  0  0  0  0  0  0  0  0
   11.4077   -6.1662    0.0000 C   0  0  0  0  0  0  0  0  0  0  0  0
   10.3221   -5.1311    0.0000 C   0  0  0  0  0  0  0  0  0  0  0  0
    9.1430   -4.2039    0.0000 C   0  0  0  0  0  0  0  0  0  0  0  0
    7.8811   -3.3929    0.0000 C   0  0  0  0  0  0  0  0  0  0  0  0
    6.5479   -2.7056    0.0000 C   0  0  0  0  0  0  0  0  0  0  0  0
    5.1553   -2.1481    0.0000 C   0  0  0  0  0  0  0  0  0  0  0  0
    3.7161   -1.7255    0.0000 C   0  0  0  0  0  0  0  0  0  0  0  0
    2.2432   -1.4416    0.0000 C   0  0  0  0  0  0  0  0  0  0  0  0
    0.7500   -1.2990    0.0000 C   0  0  0  0  0  0  0  0  0  0  0  0
    1.5000    0.0000    0.0000 C   0  0  0  0  0  0  0  0  0  0  0  0
    0.7500    1.2990    0.0000 C   0  0  0  0  0  0  0  0  0  0  0  0
   -0.7500    1.2990    0.0000 C   0  0  0  0  0  0  0  0  0  0  0  0
   -1.5000    0.0000    0.0000 C   0  0  0  0  0  0  0  0  0  0  0  0
   -0.7500   -1.2990    0.0000 C   0  0  0  0  0  0  0  0  0  0  0  0
  1  2  1  0
  2  3  1  0
  3  4  1  0
  4  5  1  0
  5  6  2  0
  6  7  1  0
  7  8  2  0
  8  9  1  0
  9 10  2  0
 10 11  1  0
 11 12  2  0
 12 13  1  0
 13 14  2  0
 14 15  1  0
 15 16  2  0
 16 17  1  0
 17 18  2  0
 18 19  1  0
 19 20  2  0
 20 21  1  0
 21 22  2  0
 22 23  1  0
 23 24  2  0
 24 25  1  0
 25 26  2  0
 26 27  1  0
 27 28  2  0
 28 29  1  0
 29 30  2  0
 30 31  1  0
 31 32  2  0
 32 33  1  0
 33 34  2  0
 34 35  1  0
 35 36  2  0
 36 37  1  0
 37 38  2  0
 38 39  1  0
 39 40  2  0
 40 41  1  0
 41 42  2  0
 42 43  1  0
 43 44  2  0
 44 45  1  0
 45 46  2  0
 46 47  1  0
 47 48  2  0
 48 49  1  0
 49 50  2  0
 50 51  1  0
 51 52  2  0
 52 53  1  0
 53 54  2  0
 54 55  1  0
 55 56  2  0
 56 57  1  0
 57 58  2  0
 58 59  1  0
 59 60  2  0
 60 61  1  0
 61 62  2  0
 62 63  1  0
 63 64  2  0
 64 65  1  0
 65 66  2  0
 66 67  1  0
 67 68  1  0
 68 69  1  0
 69 70  1  0
 70 71  2  0
 71  2  1  0
 71 66  1  0
M  END
>  <Title>  (533) 
idAASOgen10

$$$$

     RDKit          2D

 25 27  0  0  0  0  0  0  0  0999 V2000
   -2.3679  -15.6153    0.0000 C   0  0  0  0  0  0  0  0  0  0  0  0
   -1.7938  -14.2295    0.0000 C   0  0  0  0  0  0  0  0  0  0  0  0
   -1.2198  -12.8437    0.0000 C   0  0  0  0  0  0  0  0  0  0  0  0
   -0.6458  -11.4579    0.0000 C   0  0  0  0  0  0  0  0  0  0  0  0
   -0.0718  -10.0721    0.0000 C   0  0  0  0  0  0  0  0  0  0  0  0
   -0.9849   -8.8820    0.0000 C   0  0  0  0  0  0  0  0  0  0  0  0
   -0.4109   -7.4962    0.0000 C   0  0  0  0  0  0  0  0  0  0  0  0
    1.0763   -7.3004    0.0000 O   0  0  0  0  0  0  0  0  0  0  0  0
   -1.3240   -6.3062    0.0000 N   0  0  0  0  0  0  0  0  0  0  0  0
   -0.7500   -4.9204    0.0000 C   0  0  0  0  0  0  0  0  0  0  0  0
    0.7500   -4.9204    0.0000 N   0  0  0  0  0  0  0  0  0  0  0  0
    1.8107   -3.8597    0.0000 N   0  0  0  0  0  0  0  0  0  0  0  0
    1.8107   -2.3597    0.0000 N   0  0  0  0  0  0  0  0  0  0  0  0
    0.7500   -1.2990    0.0000 N   0  0  0  0  0  0  0  0  0  0  0  0
    1.5000    0.0000    0.0000 C   0  0  0  0  0  0  0  0  0  0  0  0
    0.7500    1.2990    0.0000 C   0  0  0  0  0  0  0  0  0  0  0  0
   -0.7500    1.2990    0.0000 C   0  0  0  0  0  0  0  0  0  0  0  0
   -1.5000    0.0000    0.0000 C   0  0  0  0  0  0  0  0  0  0  0  0
   -0.7500   -1.2990    0.0000 C   0  0  0  0  0  0  0  0  0  0  0  0
   -1.8107   -2.3597    0.0000 C   0  0  0  0  0  0  0  0  0  0  0  0
   -3.1097   -1.6097    0.0000 C   0  0  0  0  0  0  0  0  0  0  0  0
   -4.4087   -2.3597    0.0000 C   0  0  0  0  0  0  0  0  0  0  0  0
   -4.4087   -3.8597    0.0000 C   0  0  0  0  0  0  0  0  0  0  0  0
   -3.1097   -4.6097    0.0000 C   0  0  0  0  0  0  0  0  0  0  0  0
   -1.8107   -3.8597    0.0000 C   0  0  0  0  0  0  0  0  0  0  0  0
  1  2  3  0
  2  3  1  0
  3  4  3  0
  4  5  1  0
  5  6  2  3
  6  7  1  0
  7  8  2  0
  7  9  1  0
  9 10  1  0
 10 11  2  0
 11 12  1  0
 12 13  2  0
 13 14  1  0
 14 15  1  0
 15 16  1  0
 16 17  2  0
 17 18  1  0
 18 19  2  0
 19 20  1  0
 20 21  2  0
 21 22  1  0
 22 23  2  0
 23 24  1  0
 24 25  2  0
 25 10  1  0
 19 14  1  0
 25 20  1  0
M  END
>  <Title>  (534) 
idAASPgen10

$$$$

     RDKit          2D

 12 12  0  0  0  0  0  0  0  0999 V2000
    8.2500   -3.8971    0.0000 C   0  0  0  0  0  0  0  0  0  0  0  0
    7.5000   -2.5981    0.0000 C   0  0  0  0  0  0  0  0  0  0  0  0
    6.0000   -2.5981    0.0000 O   0  0  0  0  0  0  0  0  0  0  0  0
    5.2500   -1.2990    0.0000 C   0  0  0  0  0  0  0  0  0  0  0  0
    3.7500   -1.2990    0.0000 C   0  0  0  0  0  0  0  0  0  0  0  0
    3.0000    0.0000    0.0000 C   0  0  0  0  0  0  0  0  0  0  0  0
    1.5000    0.0000    0.0000 C   0  0  0  0  0  0  0  0  0  0  0  0
    0.7500   -1.2990    0.0000 C   0  0  0  0  0  0  0  0  0  0  0  0
   -0.7500   -1.2990    0.0000 C   0  0  0  0  0  0  0  0  0  0  0  0
   -1.5000    0.0000    0.0000 C   0  0  0  0  0  0  0  0  0  0  0  0
   -0.7500    1.2990    0.0000 C   0  0  0  0  0  0  0  0  0  0  0  0
    0.7500    1.2990    0.0000 C   0  0  0  0  0  0  0  0  0  0  0  0
  1  2  1  0
  2  3  1  0
  3  4  1  0
  4  5  1  0
  5  6  1  0
  6  7  1  0
  7  8  2  0
  8  9  1  0
  9 10  2  0
 10 11  1  0
 11 12  2  0
 12  7  1  0
M  END
>  <Title>  (535) 
idAASQgen10

$$$$

     RDKit          2D

 61 65  0  0  0  0  0  0  0  0999 V2000
  -10.5437   -6.0281    0.0000 C   0  0  0  0  0  0  0  0  0  0  0  0
   -9.2272   -6.7470    0.0000 C   0  0  0  0  0  0  0  0  0  0  0  0
   -9.8503   -8.1114    0.0000 C   0  0  0  0  0  0  0  0  0  0  0  0
  -10.2729   -9.5507    0.0000 C   0  0  0  0  0  0  0  0  0  0  0  0
  -10.4864  -11.0354    0.0000 C   0  0  0  0  0  0  0  0  0  0  0  0
  -10.4864  -12.5354    0.0000 C   0  0  0  0  0  0  0  0  0  0  0  0
  -10.2729  -14.0201    0.0000 C   0  0  0  0  0  0  0  0  0  0  0  0
   -9.8503  -15.4594    0.0000 C   0  0  0  0  0  0  0  0  0  0  0  0
   -9.2272  -16.8238    0.0000 C   0  0  0  0  0  0  0  0  0  0  0  0
   -8.4162  -18.0857    0.0000 C   0  0  0  0  0  0  0  0  0  0  0  0
   -7.4339  -19.2193    0.0000 C   0  0  0  0  0  0  0  0  0  0  0  0
   -6.3003  -20.2016    0.0000 C   0  0  0  0  0  0  0  0  0  0  0  0
   -5.0384  -21.0126    0.0000 C   0  0  0  0  0  0  0  0  0  0  0  0
   -3.6740  -21.6357    0.0000 C   0  0  0  0  0  0  0  0  0  0  0  0
   -2.2347  -22.0583    0.0000 C   0  0  0  0  0  0  0  0  0  0  0  0
   -0.7500  -22.2718    0.0000 C   0  0  0  0  0  0  0  0  0  0  0  0
    0.7500  -22.2718    0.0000 C   0  0  0  0  0  0  0  0  0  0  0  0
    2.2347  -22.0583    0.0000 C   0  0  0  0  0  0  0  0  0  0  0  0
    3.6740  -21.6357    0.0000 C   0  0  0  0  0  0  0  0  0  0  0  0
    5.0384  -21.0126    0.0000 C   0  0  0  0  0  0  0  0  0  0  0  0
    6.3003  -20.2016    0.0000 C   0  0  0  0  0  0  0  0  0  0  0  0
    7.4339  -19.2193    0.0000 C   0  0  0  0  0  0  0  0  0  0  0  0
    8.4162  -18.0857    0.0000 C   0  0  0  0  0  0  0  0  0  0  0  0
    9.2272  -16.8238    0.0000 C   0  0  0  0  0  0  0  0  0  0  0  0
    9.8503  -15.4594    0.0000 C   0  0  0  0  0  0  0  0  0  0  0  0
   10.2729  -14.0201    0.0000 C   0  0  0  0  0  0  0  0  0  0  0  0
   10.4864  -12.5354    0.0000 C   0  0  0  0  0  0  0  0  0  0  0  0
   10.4864  -11.0354    0.0000 C   0  0  0  0  0  0  0  0  0  0  0  0
   10.2729   -9.5507    0.0000 C   0  0  0  0  0  0  0  0  0  0  0  0
    9.8503   -8.1114    0.0000 C   0  0  0  0  0  0  0  0  0  0  0  0
    9.2272   -6.7470    0.0000 C   0  0  0  0  0  0  0  0  0  0  0  0
    8.4162   -5.4851    0.0000 C   0  0  0  0  0  0  0  0  0  0  0  0
    7.4339   -4.3515    0.0000 C   0  0  0  0  0  0  0  0  0  0  0  0
    6.3003   -3.3692    0.0000 C   0  0  0  0  0  0  0  0  0  0  0  0
    5.0384   -2.5582    0.0000 C   0  0  0  0  0  0  0  0  0  0  0  0
    3.6740   -1.9351    0.0000 C   0  0  0  0  0  0  0  0  0  0  0  0
    2.2347   -1.5125    0.0000 C   0  0  0  0  0  0  0  0  0  0  0  0
    0.7500   -1.2990    0.0000 C   0  0  0  0  0  0  0  0  0  0  0  0
    1.5000    0.0000    0.0000 C   0  0  0  0  0  0  0  0  0  0  0  0
    0.7500    1.2990    0.0000 C   0  0  0  0  0  0  0  0  0  0  0  0
   -0.7500    1.2990    0.0000 C   0  0  0  0  0  0  0  0  0  0  0  0
   -1.5000    0.0000    0.0000 C   0  0  0  0  0  0  0  0  0  0  0  0
   -0.7500   -1.2990    0.0000 C   0  0  0  0  0  0  0  0  0  0  0  0
   -2.2347   -1.5125    0.0000 C   0  0  0  0  0  0  0  0  0  0  0  0
   -1.1491   -2.5476    0.0000 C   0  0  0  0  0  0  0  0  0  0  0  0
   -1.5028   -4.0053    0.0000 C   0  0  0  0  0  0  0  0  0  0  0  0
   -2.9420   -4.4279    0.0000 C   0  0  0  0  0  0  0  0  0  0  0  0
   -4.0276   -3.3928    0.0000 C   0  0  0  0  0  0  0  0  0  0  0  0
   -3.6740   -1.9351    0.0000 C   0  0  0  0  0  0  0  0  0  0  0  0
   -5.0384   -2.5582    0.0000 C   0  0  0  0  0  0  0  0  0  0  0  0
   -5.1098   -1.0599    0.0000 C   0  0  0  0  0  0  0  0  0  0  0  0
   -6.4430   -0.3726    0.0000 C   0  0  0  0  0  0  0  0  0  0  0  0
   -7.7049   -1.1836    0.0000 C   0  0  0  0  0  0  0  0  0  0  0  0
   -7.6336   -2.6819    0.0000 C   0  0  0  0  0  0  0  0  0  0  0  0
   -6.3003   -3.3692    0.0000 C   0  0  0  0  0  0  0  0  0  0  0  0
   -7.4339   -4.3515    0.0000 C   0  0  0  0  0  0  0  0  0  0  0  0
   -8.3829   -3.4630    0.0000 C   0  0  0  0  0  0  0  0  0  0  0  0
   -9.1685   -3.3116    0.0000 C   0  0  0  0  0  0  0  0  0  0  0  0
   -9.6924   -3.9162    0.0000 C   0  0  0  0  0  0  0  0  0  0  0  0
   -9.4307   -4.6722    0.0000 C   0  0  0  0  0  0  0  0  0  0  0  0
   -8.4162   -5.4851    0.0000 C   0  0  0  0  0  0  0  0  0  0  0  0
  1  2  1  0
  2  3  1  0
  3  4  2  0
  4  5  1  0
  5  6  2  0
  6  7  1  0
  7  8  2  0
  8  9  1  0
  9 10  2  0
 10 11  1  0
 11 12  2  0
 12 13  1  0
 13 14  2  0
 14 15  1  0
 15 16  2  0
 16 17  1  0
 17 18  2  0
 18 19  1  0
 19 20  2  0
 20 21  1  0
 21 22  2  0
 22 23  1  0
 23 24  2  0
 24 25  1  0
 25 26  2  0
 26 27  1  0
 27 28  2  0
 28 29  1  0
 29 30  2  0
 30 31  1  0
 31 32  2  0
 32 33  1  0
 33 34  2  0
 34 35  1  0
 35 36  2  0
 36 37  1  0
 37 38  2  0
 38 39  1  0
 39 40  1  0
 40 41  2  0
 41 42  1  0
 42 43  2  0
 43 44  1  0
 44 45  2  0
 45 46  1  0
 46 47  2  0
 47 48  1  0
 48 49  2  0
 49 50  1  0
 50 51  2  0
 51 52  1  0
 52 53  2  0
 53 54  1  0
 54 55  2  0
 55 56  1  0
 56 57  2  0
 57 58  1  0
 58 59  2  0
 59 60  1  0
 60 61  2  0
 61  2  1  0
 43 38  1  0
 49 44  1  0
 55 50  1  0
 61 56  1  0
M  END
>  <Title>  (536) 
idAASRgen10

$$$$

     RDKit          2D

 10 10  0  0  0  0  0  0  0  0999 V2000
    3.5260   -3.8971    0.0000 C   0  0  0  0  0  0  0  0  0  0  0  0
    2.7760   -2.5981    0.0000 C   0  0  0  0  0  0  0  0  0  0  0  0
    3.5260   -1.2990    0.0000 C   0  0  0  0  0  0  0  0  0  0  0  0
    5.0260   -1.2990    0.0000 C   0  0  0  0  0  0  0  0  0  0  0  0
    2.7760    0.0000    0.0000 N   0  0  0  0  0  0  0  0  0  0  0  0
    1.2760    0.0000    0.0000 C   0  0  0  0  0  0  0  0  0  0  0  0
    0.3943    1.2135    0.0000 C   0  0  0  0  0  0  0  0  0  0  0  0
   -1.0323    0.7500    0.0000 C   0  0  0  0  0  0  0  0  0  0  0  0
   -1.0323   -0.7500    0.0000 C   0  0  0  0  0  0  0  0  0  0  0  0
    0.3943   -1.2135    0.0000 C   0  0  0  0  0  0  0  0  0  0  0  0
  1  2  1  0
  2  3  1  0
  3  4  1  0
  3  5  1  0
  5  6  1  0
  6  7  2  0
  7  8  1  0
  8  9  1  0
  9 10  2  0
 10  6  1  0
M  END
>  <Title>  (537) 
idAASSgen10

$$$$

     RDKit          2D

 14 14  0  0  0  0  0  0  0  0999 V2000
    8.2500   -6.4952    0.0000 C   0  0  0  0  0  0  0  0  0  0  0  0
    7.5000   -5.1962    0.0000 C   0  0  0  0  0  0  0  0  0  0  0  0
    6.7500   -3.8971    0.0000 C   0  0  0  0  0  0  0  0  0  0  0  0
    6.0000   -2.5981    0.0000 C   0  0  0  0  0  0  0  0  0  0  0  0
    5.2500   -1.2990    0.0000 C   0  0  0  0  0  0  0  0  0  0  0  0
    3.7500   -1.2990    0.0000 C   0  0  0  0  0  0  0  0  0  0  0  0
    3.0000   -2.5981    0.0000 O   0  0  0  0  0  0  0  0  0  0  0  0
    3.0000    0.0000    0.0000 O   0  0  0  0  0  0  0  0  0  0  0  0
    1.5000    0.0000    0.0000 C   0  0  0  0  0  0  0  0  0  0  0  0
    0.7500   -1.2990    0.0000 C   0  0  0  0  0  0  0  0  0  0  0  0
   -0.7500   -1.2990    0.0000 C   0  0  0  0  0  0  0  0  0  0  0  0
   -1.5000    0.0000    0.0000 C   0  0  0  0  0  0  0  0  0  0  0  0
   -0.7500    1.2990    0.0000 C   0  0  0  0  0  0  0  0  0  0  0  0
    0.7500    1.2990    0.0000 C   0  0  0  0  0  0  0  0  0  0  0  0
  1  2  3  0
  2  3  1  0
  3  4  3  0
  4  5  1  0
  5  6  1  0
  6  7  2  0
  6  8  1  0
  8  9  1  0
  9 10  2  0
 10 11  1  0
 11 12  2  0
 12 13  1  0
 13 14  2  0
 14  9  1  0
M  END
>  <Title>  (538) 
idAASTgen10

$$$$

     RDKit          2D

 21 23  0  0  0  0  0  0  0  0999 V2000
   -3.0000   -2.5981    0.0000 C   0  0  0  0  0  0  0  0  0  0  0  0
   -1.5000   -2.5981    0.0000 C   0  0  0  0  0  0  0  0  0  0  0  0
   -0.7500   -3.8971    0.0000 C   0  0  0  0  0  0  0  0  0  0  0  0
    0.7500   -3.8971    0.0000 C   0  0  0  0  0  0  0  0  0  0  0  0
    1.5000   -5.1962    0.0000 C   0  0  0  0  0  0  0  0  0  0  0  0
    1.5000   -2.5981    0.0000 C   0  0  0  0  0  0  0  0  0  0  0  0
    3.0000   -2.5981    0.0000 C   0  0  0  0  0  0  0  0  0  0  0  0
    3.7500   -1.2990    0.0000 O   0  0  0  0  0  0  0  0  0  0  0  0
    3.7500   -3.8971    0.0000 N   0  0  0  0  0  0  0  0  0  0  0  0
    5.2500   -3.8971    0.0000 C   0  0  0  0  0  0  0  0  0  0  0  0
    6.0000   -5.1962    0.0000 N   0  0  0  0  0  0  0  0  0  0  0  0
    7.5000   -5.1962    0.0000 N   0  0  0  0  0  0  0  0  0  0  0  0
    8.2500   -3.8971    0.0000 N   0  0  0  0  0  0  0  0  0  0  0  0
    7.5000   -2.5981    0.0000 N   0  0  0  0  0  0  0  0  0  0  0  0
    6.0000   -2.5981    0.0000 N   0  0  0  0  0  0  0  0  0  0  0  0
    0.7500   -1.2990    0.0000 C   0  0  0  0  0  0  0  0  0  0  0  0
    1.5000    0.0000    0.0000 C   0  0  0  0  0  0  0  0  0  0  0  0
    0.7500    1.2990    0.0000 C   0  0  0  0  0  0  0  0  0  0  0  0
   -0.7500    1.2990    0.0000 C   0  0  0  0  0  0  0  0  0  0  0  0
   -1.5000    0.0000    0.0000 C   0  0  0  0  0  0  0  0  0  0  0  0
   -0.7500   -1.2990    0.0000 C   0  0  0  0  0  0  0  0  0  0  0  0
  1  2  1  0
  2  3  2  0
  3  4  1  0
  4  5  1  0
  4  6  1  0
  6  7  1  0
  7  8  2  0
  7  9  1  0
  9 10  1  0
 10 11  2  0
 11 12  1  0
 12 13  2  0
 13 14  1  0
 14 15  2  0
  6 16  1  0
 16 17  2  0
 17 18  1  0
 18 19  2  0
 19 20  1  0
 20 21  2  0
 21  2  1  0
 15 10  1  0
 21 16  1  0
M  END
>  <Title>  (539) 
idAASUgen10

$$$$

     RDKit          2D

 22 24  0  0  0  0  0  0  0  0999 V2000
   -2.5242   -4.8694    0.0000 C   0  0  0  0  0  0  0  0  0  0  0  0
   -1.3515   -3.9342    0.0000 C   0  0  0  0  0  0  0  0  0  0  0  0
   -0.0000   -4.5850    0.0000 C   0  0  0  0  0  0  0  0  0  0  0  0
    1.3515   -3.9342    0.0000 C   0  0  0  0  0  0  0  0  0  0  0  0
    1.6852   -2.4718    0.0000 C   0  0  0  0  0  0  0  0  0  0  0  0
    3.1476   -2.1380    0.0000 C   0  0  0  0  0  0  0  0  0  0  0  0
    3.5898   -0.7046    0.0000 O   0  0  0  0  0  0  0  0  0  0  0  0
    4.1679   -3.2376    0.0000 N   0  0  0  0  0  0  0  0  0  0  0  0
    5.6303   -2.9038    0.0000 C   0  0  0  0  0  0  0  0  0  0  0  0
    6.6505   -4.0034    0.0000 N   0  0  0  0  0  0  0  0  0  0  0  0
    8.1129   -3.6696    0.0000 N   0  0  0  0  0  0  0  0  0  0  0  0
    8.5551   -2.2362    0.0000 N   0  0  0  0  0  0  0  0  0  0  0  0
    7.5348   -1.1367    0.0000 N   0  0  0  0  0  0  0  0  0  0  0  0
    6.0724   -1.4704    0.0000 N   0  0  0  0  0  0  0  0  0  0  0  0
    0.7500   -1.2990    0.0000 C   0  0  0  0  0  0  0  0  0  0  0  0
    1.5000    0.0000    0.0000 C   0  0  0  0  0  0  0  0  0  0  0  0
    0.7500    1.2990    0.0000 C   0  0  0  0  0  0  0  0  0  0  0  0
   -0.7500    1.2990    0.0000 C   0  0  0  0  0  0  0  0  0  0  0  0
   -1.5000    0.0000    0.0000 C   0  0  0  0  0  0  0  0  0  0  0  0
   -0.7500   -1.2990    0.0000 C   0  0  0  0  0  0  0  0  0  0  0  0
   -1.6852   -2.4718    0.0000 C   0  0  0  0  0  0  0  0  0  0  0  0
   -3.1476   -2.1380    0.0000 O   0  0  0  0  0  0  0  0  0  0  0  0
  1  2  1  0
  2  3  1  0
  3  4  2  0
  4  5  1  0
  5  6  1  0
  6  7  2  0
  6  8  1  0
  8  9  1  0
  9 10  2  0
 10 11  1  0
 11 12  2  0
 12 13  1  0
 13 14  2  0
  5 15  1  0
 15 16  2  0
 16 17  1  0
 17 18  2  0
 18 19  1  0
 19 20  2  0
 20 21  1  0
 21 22  2  0
 21  2  1  0
 14  9  1  0
 20 15  1  0
M  END
>  <Title>  (540) 
idAASVgen10

$$$$

     RDKit          2D

 11 11  0  0  0  0  0  0  0  0999 V2000
   10.2760   -0.0000    0.0000 C   0  0  0  0  0  0  0  0  0  0  0  0
    8.7760   -0.0000    0.0000 C   0  0  0  0  0  0  0  0  0  0  0  0
    7.2760   -0.0000    0.0000 C   0  0  0  0  0  0  0  0  0  0  0  0
    5.7760   -0.0000    0.0000 C   0  0  0  0  0  0  0  0  0  0  0  0
    4.2760   -0.0000    0.0000 C   0  0  0  0  0  0  0  0  0  0  0  0
    2.7760    0.0000    0.0000 C   0  0  0  0  0  0  0  0  0  0  0  0
    1.2760    0.0000    0.0000 C   0  0  0  0  0  0  0  0  0  0  0  0
    0.3943    1.2135    0.0000 C   0  0  0  0  0  0  0  0  0  0  0  0
   -1.0323    0.7500    0.0000 C   0  0  0  0  0  0  0  0  0  0  0  0
   -1.0323   -0.7500    0.0000 C   0  0  0  0  0  0  0  0  0  0  0  0
    0.3943   -1.2135    0.0000 C   0  0  0  0  0  0  0  0  0  0  0  0
  1  2  3  0
  2  3  1  0
  3  4  3  0
  4  5  1  0
  5  6  3  0
  6  7  1  0
  7  8  2  0
  8  9  1  0
  9 10  2  0
 10 11  1  0
 11  7  1  0
M  END
>  <Title>  (541) 
idAASWgen10

$$$$

     RDKit          2D

102102  0  0  0  0  0  0  0  0999 V2000
   25.6159   -0.0000    0.0000 C   0  0  0  0  0  0  0  0  0  0  0  0
   24.1159    0.0000    0.0000 C   0  0  0  0  0  0  0  0  0  0  0  0
   24.0692    1.4993    0.0000 C   0  0  0  0  0  0  0  0  0  0  0  0
   23.9294    2.9927    0.0000 C   0  0  0  0  0  0  0  0  0  0  0  0
   23.6971    4.4746    0.0000 C   0  0  0  0  0  0  0  0  0  0  0  0
   23.3731    5.9392    0.0000 C   0  0  0  0  0  0  0  0  0  0  0  0
   22.9586    7.3808    0.0000 C   0  0  0  0  0  0  0  0  0  0  0  0
   22.4553    8.7939    0.0000 C   0  0  0  0  0  0  0  0  0  0  0  0
   21.8652   10.1729    0.0000 C   0  0  0  0  0  0  0  0  0  0  0  0
   21.1904   11.5126    0.0000 C   0  0  0  0  0  0  0  0  0  0  0  0
   20.4337   12.8077    0.0000 C   0  0  0  0  0  0  0  0  0  0  0  0
   19.5979   14.0533    0.0000 C   0  0  0  0  0  0  0  0  0  0  0  0
   18.6863   15.2445    0.0000 C   0  0  0  0  0  0  0  0  0  0  0  0
   17.7025   16.3767    0.0000 C   0  0  0  0  0  0  0  0  0  0  0  0
   16.6501   17.4456    0.0000 C   0  0  0  0  0  0  0  0  0  0  0  0
   15.5333   18.4470    0.0000 C   0  0  0  0  0  0  0  0  0  0  0  0
   14.3564   19.3770    0.0000 C   0  0  0  0  0  0  0  0  0  0  0  0
   13.1240   20.2321    0.0000 C   0  0  0  0  0  0  0  0  0  0  0  0
   11.8407   21.0088    0.0000 C   0  0  0  0  0  0  0  0  0  0  0  0
   10.5117   21.7043    0.0000 C   0  0  0  0  0  0  0  0  0  0  0  0
    9.1420   22.3159    0.0000 C   0  0  0  0  0  0  0  0  0  0  0  0
    7.7370   22.8411    0.0000 C   0  0  0  0  0  0  0  0  0  0  0  0
    6.3020   23.2779    0.0000 C   0  0  0  0  0  0  0  0  0  0  0  0
    4.8426   23.6246    0.0000 C   0  0  0  0  0  0  0  0  0  0  0  0
    3.3645   23.8800    0.0000 C   0  0  0  0  0  0  0  0  0  0  0  0
    1.8734   24.0430    0.0000 C   0  0  0  0  0  0  0  0  0  0  0  0
    0.3750   24.1129    0.0000 C   0  0  0  0  0  0  0  0  0  0  0  0
   -1.1248   24.0896    0.0000 C   0  0  0  0  0  0  0  0  0  0  0  0
   -2.6202   23.9731    0.0000 C   0  0  0  0  0  0  0  0  0  0  0  0
   -4.1056   23.7638    0.0000 C   0  0  0  0  0  0  0  0  0  0  0  0
   -5.5750   23.4626    0.0000 C   0  0  0  0  0  0  0  0  0  0  0  0
   -7.0229   23.0706    0.0000 C   0  0  0  0  0  0  0  0  0  0  0  0
   -8.4436   22.5894    0.0000 C   0  0  0  0  0  0  0  0  0  0  0  0
   -9.8316   22.0208    0.0000 C   0  0  0  0  0  0  0  0  0  0  0  0
  -11.1816   21.3669    0.0000 C   0  0  0  0  0  0  0  0  0  0  0  0
  -12.4884   20.6304    0.0000 C   0  0  0  0  0  0  0  0  0  0  0  0
  -13.7468   19.8141    0.0000 C   0  0  0  0  0  0  0  0  0  0  0  0
  -14.9521   18.9212    0.0000 C   0  0  0  0  0  0  0  0  0  0  0  0
  -16.0995   17.9550    0.0000 C   0  0  0  0  0  0  0  0  0  0  0  0
  -17.1846   16.9194    0.0000 C   0  0  0  0  0  0  0  0  0  0  0  0
  -18.2032   15.8183    0.0000 C   0  0  0  0  0  0  0  0  0  0  0  0
  -19.1514   14.6560    0.0000 C   0  0  0  0  0  0  0  0  0  0  0  0
  -20.0255   13.4370    0.0000 C   0  0  0  0  0  0  0  0  0  0  0  0
  -20.8222   12.1660    0.0000 C   0  0  0  0  0  0  0  0  0  0  0  0
  -21.5382   10.8480    0.0000 C   0  0  0  0  0  0  0  0  0  0  0  0
  -22.1710    9.4880    0.0000 C   0  0  0  0  0  0  0  0  0  0  0  0
  -22.7180    8.0913    0.0000 C   0  0  0  0  0  0  0  0  0  0  0  0
  -23.1771    6.6633    0.0000 C   0  0  0  0  0  0  0  0  0  0  0  0
  -23.5465    5.2095    0.0000 C   0  0  0  0  0  0  0  0  0  0  0  0
  -23.8248    3.7355    0.0000 C   0  0  0  0  0  0  0  0  0  0  0  0
  -24.0109    2.2471    0.0000 C   0  0  0  0  0  0  0  0  0  0  0  0
  -24.1042    0.7500    0.0000 C   0  0  0  0  0  0  0  0  0  0  0  0
  -24.1042   -0.7500    0.0000 C   0  0  0  0  0  0  0  0  0  0  0  0
  -24.0109   -2.2471    0.0000 C   0  0  0  0  0  0  0  0  0  0  0  0
  -23.8248   -3.7355    0.0000 C   0  0  0  0  0  0  0  0  0  0  0  0
  -23.5465   -5.2095    0.0000 C   0  0  0  0  0  0  0  0  0  0  0  0
  -23.1771   -6.6633    0.0000 C   0  0  0  0  0  0  0  0  0  0  0  0
  -22.7180   -8.0913    0.0000 C   0  0  0  0  0  0  0  0  0  0  0  0
  -22.1710   -9.4880    0.0000 C   0  0  0  0  0  0  0  0  0  0  0  0
  -21.5382  -10.8480    0.0000 C   0  0  0  0  0  0  0  0  0  0  0  0
  -20.8222  -12.1660    0.0000 C   0  0  0  0  0  0  0  0  0  0  0  0
  -20.0255  -13.4370    0.0000 C   0  0  0  0  0  0  0  0  0  0  0  0
  -19.1514  -14.6560    0.0000 C   0  0  0  0  0  0  0  0  0  0  0  0
  -18.2032  -15.8183    0.0000 C   0  0  0  0  0  0  0  0  0  0  0  0
  -17.1846  -16.9194    0.0000 C   0  0  0  0  0  0  0  0  0  0  0  0
  -16.0995  -17.9550    0.0000 C   0  0  0  0  0  0  0  0  0  0  0  0
  -14.9521  -18.9212    0.0000 C   0  0  0  0  0  0  0  0  0  0  0  0
  -13.7468  -19.8141    0.0000 C   0  0  0  0  0  0  0  0  0  0  0  0
  -12.4884  -20.6304    0.0000 C   0  0  0  0  0  0  0  0  0  0  0  0
  -11.1816  -21.3669    0.0000 C   0  0  0  0  0  0  0  0  0  0  0  0
   -9.8316  -22.0208    0.0000 C   0  0  0  0  0  0  0  0  0  0  0  0
   -8.4436  -22.5894    0.0000 C   0  0  0  0  0  0  0  0  0  0  0  0
   -7.0229  -23.0706    0.0000 C   0  0  0  0  0  0  0  0  0  0  0  0
   -5.5750  -23.4626    0.0000 C   0  0  0  0  0  0  0  0  0  0  0  0
   -4.1056  -23.7638    0.0000 C   0  0  0  0  0  0  0  0  0  0  0  0
   -2.6202  -23.9731    0.0000 C   0  0  0  0  0  0  0  0  0  0  0  0
   -1.1248  -24.0896    0.0000 C   0  0  0  0  0  0  0  0  0  0  0  0
    0.3750  -24.1129    0.0000 C   0  0  0  0  0  0  0  0  0  0  0  0
    1.8734  -24.0430    0.0000 C   0  0  0  0  0  0  0  0  0  0  0  0
    3.3645  -23.8800    0.0000 C   0  0  0  0  0  0  0  0  0  0  0  0
    4.8426  -23.6246    0.0000 C   0  0  0  0  0  0  0  0  0  0  0  0
    6.3020  -23.2779    0.0000 C   0  0  0  0  0  0  0  0  0  0  0  0
    7.7370  -22.8411    0.0000 C   0  0  0  0  0  0  0  0  0  0  0  0
    9.1420  -22.3159    0.0000 C   0  0  0  0  0  0  0  0  0  0  0  0
   10.5117  -21.7043    0.0000 C   0  0  0  0  0  0  0  0  0  0  0  0
   11.8407  -21.0088    0.0000 C   0  0  0  0  0  0  0  0  0  0  0  0
   13.1240  -20.2321    0.0000 C   0  0  0  0  0  0  0  0  0  0  0  0
   14.3564  -19.3770    0.0000 C   0  0  0  0  0  0  0  0  0  0  0  0
   15.5333  -18.4470    0.0000 C   0  0  0  0  0  0  0  0  0  0  0  0
   16.6501  -17.4456    0.0000 C   0  0  0  0  0  0  0  0  0  0  0  0
   17.7025  -16.3767    0.0000 C   0  0  0  0  0  0  0  0  0  0  0  0
   18.6863  -15.2445    0.0000 C   0  0  0  0  0  0  0  0  0  0  0  0
   19.5979  -14.0533    0.0000 C   0  0  0  0  0  0  0  0  0  0  0  0
   20.4337  -12.8077    0.0000 C   0  0  0  0  0  0  0  0  0  0  0  0
   21.1904  -11.5126    0.0000 C   0  0  0  0  0  0  0  0  0  0  0  0
   21.8652  -10.1729    0.0000 C   0  0  0  0  0  0  0  0  0  0  0  0
   22.4553   -8.7939    0.0000 C   0  0  0  0  0  0  0  0  0  0  0  0
   22.9586   -7.3808    0.0000 C   0  0  0  0  0  0  0  0  0  0  0  0
   23.3731   -5.9392    0.0000 C   0  0  0  0  0  0  0  0  0  0  0  0
   23.6971   -4.4746    0.0000 C   0  0  0  0  0  0  0  0  0  0  0  0
   23.9294   -2.9927    0.0000 C   0  0  0  0  0  0  0  0  0  0  0  0
   24.0692   -1.4993    0.0000 C   0  0  0  0  0  0  0  0  0  0  0  0
  1  2  1  0
  2  3  2  0
  3  4  1  0
  4  5  1  0
  5  6  1  0
  6  7  1  0
  7  8  1  0
  8  9  1  0
  9 10  1  0
 10 11  1  0
 11 12  1  0
 12 13  1  0
 13 14  1  0
 14 15  1  0
 15 16  1  0
 16 17  1  0
 17 18  1  0
 18 19  1  0
 19 20  1  0
 20 21  1  0
 21 22  1  0
 22 23  1  0
 23 24  1  0
 24 25  1  0
 25 26  1  0
 26 27  1  0
 27 28  1  0
 28 29  1  0
 29 30  1  0
 30 31  1  0
 31 32  1  0
 32 33  1  0
 33 34  1  0
 34 35  1  0
 35 36  1  0
 36 37  1  0
 37 38  1  0
 38 39  1  0
 39 40  1  0
 40 41  1  0
 41 42  1  0
 42 43  1  0
 43 44  1  0
 44 45  1  0
 45 46  1  0
 46 47  1  0
 47 48  1  0
 48 49  1  0
 49 50  1  0
 50 51  1  0
 51 52  1  0
 52 53  1  0
 53 54  1  0
 54 55  1  0
 55 56  1  0
 56 57  1  0
 57 58  1  0
 58 59  1  0
 59 60  1  0
 60 61  1  0
 61 62  1  0
 62 63  1  0
 63 64  1  0
 64 65  1  0
 65 66  1  0
 66 67  1  0
 67 68  1  0
 68 69  1  0
 69 70  1  0
 70 71  1  0
 71 72  1  0
 72 73  1  0
 73 74  1  0
 74 75  1  0
 75 76  1  0
 76 77  1  0
 77 78  1  0
 78 79  1  0
 79 80  1  0
 80 81  1  0
 81 82  1  0
 82 83  1  0
 83 84  1  0
 84 85  1  0
 85 86  1  0
 86 87  1  0
 87 88  1  0
 88 89  1  0
 89 90  1  0
 90 91  1  0
 91 92  1  0
 92 93  1  0
 93 94  1  0
 94 95  1  0
 95 96  1  0
 96 97  1  0
 97 98  1  0
 98 99  1  0
 99100  1  0
100101  1  0
101102  1  0
102  2  1  0
M  END
>  <Title>  (542) 
idAASXgen10

$$$$

     RDKit          2D

 73 76  0  0  0  0  0  0  0  0999 V2000
   -5.6684   -0.8127    0.0000 C   0  0  0  0  0  0  0  0  0  0  0  0
   -5.1393   -2.2163    0.0000 C   0  0  0  0  0  0  0  0  0  0  0  0
   -6.5138   -2.8170    0.0000 C   0  0  0  0  0  0  0  0  0  0  0  0
   -7.8192   -3.5558    0.0000 C   0  0  0  0  0  0  0  0  0  0  0  0
   -9.0417   -4.4249    0.0000 C   0  0  0  0  0  0  0  0  0  0  0  0
  -10.1684   -5.4151    0.0000 C   0  0  0  0  0  0  0  0  0  0  0  0
  -11.1873   -6.5160    0.0000 C   0  0  0  0  0  0  0  0  0  0  0  0
  -12.0877   -7.7157    0.0000 C   0  0  0  0  0  0  0  0  0  0  0  0
  -12.8599   -9.0017    0.0000 C   0  0  0  0  0  0  0  0  0  0  0  0
  -13.4957  -10.3602    0.0000 C   0  0  0  0  0  0  0  0  0  0  0  0
  -13.9885  -11.7770    0.0000 C   0  0  0  0  0  0  0  0  0  0  0  0
  -14.3331  -13.2369    0.0000 C   0  0  0  0  0  0  0  0  0  0  0  0
  -14.5257  -14.7245    0.0000 C   0  0  0  0  0  0  0  0  0  0  0  0
  -14.5643  -16.2240    0.0000 C   0  0  0  0  0  0  0  0  0  0  0  0
  -14.4485  -17.7195    0.0000 C   0  0  0  0  0  0  0  0  0  0  0  0
  -14.1796  -19.1952    0.0000 C   0  0  0  0  0  0  0  0  0  0  0  0
  -13.7604  -20.6354    0.0000 C   0  0  0  0  0  0  0  0  0  0  0  0
  -13.1953  -22.0249    0.0000 C   0  0  0  0  0  0  0  0  0  0  0  0
  -12.4903  -23.3489    0.0000 C   0  0  0  0  0  0  0  0  0  0  0  0
  -11.6530  -24.5934    0.0000 C   0  0  0  0  0  0  0  0  0  0  0  0
  -10.6921  -25.7453    0.0000 C   0  0  0  0  0  0  0  0  0  0  0  0
   -9.6178  -26.7922    0.0000 C   0  0  0  0  0  0  0  0  0  0  0  0
   -8.4417  -27.7231    0.0000 C   0  0  0  0  0  0  0  0  0  0  0  0
   -7.1760  -28.5281    0.0000 C   0  0  0  0  0  0  0  0  0  0  0  0
   -5.8343  -29.1988    0.0000 C   0  0  0  0  0  0  0  0  0  0  0  0
   -4.4307  -29.7279    0.0000 C   0  0  0  0  0  0  0  0  0  0  0  0
   -2.9801  -30.1099    0.0000 C   0  0  0  0  0  0  0  0  0  0  0  0
   -1.4980  -30.3407    0.0000 C   0  0  0  0  0  0  0  0  0  0  0  0
   -0.0000  -30.4180    0.0000 C   0  0  0  0  0  0  0  0  0  0  0  0
    1.4980  -30.3407    0.0000 C   0  0  0  0  0  0  0  0  0  0  0  0
    2.9801  -30.1099    0.0000 C   0  0  0  0  0  0  0  0  0  0  0  0
    4.4307  -29.7279    0.0000 C   0  0  0  0  0  0  0  0  0  0  0  0
    5.8343  -29.1988    0.0000 C   0  0  0  0  0  0  0  0  0  0  0  0
    7.1760  -28.5281    0.0000 C   0  0  0  0  0  0  0  0  0  0  0  0
    8.4417  -27.7231    0.0000 C   0  0  0  0  0  0  0  0  0  0  0  0
    9.6178  -26.7922    0.0000 C   0  0  0  0  0  0  0  0  0  0  0  0
   10.6921  -25.7453    0.0000 C   0  0  0  0  0  0  0  0  0  0  0  0
   11.6530  -24.5934    0.0000 C   0  0  0  0  0  0  0  0  0  0  0  0
   12.4903  -23.3489    0.0000 C   0  0  0  0  0  0  0  0  0  0  0  0
   13.1953  -22.0249    0.0000 C   0  0  0  0  0  0  0  0  0  0  0  0
   13.7604  -20.6354    0.0000 C   0  0  0  0  0  0  0  0  0  0  0  0
   14.1796  -19.1952    0.0000 C   0  0  0  0  0  0  0  0  0  0  0  0
   14.4485  -17.7195    0.0000 C   0  0  0  0  0  0  0  0  0  0  0  0
   14.5643  -16.2240    0.0000 C   0  0  0  0  0  0  0  0  0  0  0  0
   14.5257  -14.7245    0.0000 C   0  0  0  0  0  0  0  0  0  0  0  0
   14.3331  -13.2369    0.0000 C   0  0  0  0  0  0  0  0  0  0  0  0
   13.9885  -11.7770    0.0000 C   0  0  0  0  0  0  0  0  0  0  0  0
   13.4957  -10.3602    0.0000 C   0  0  0  0  0  0  0  0  0  0  0  0
   12.8599   -9.0017    0.0000 C   0  0  0  0  0  0  0  0  0  0  0  0
   12.0877   -7.7157    0.0000 C   0  0  0  0  0  0  0  0  0  0  0  0
   11.1873   -6.5160    0.0000 C   0  0  0  0  0  0  0  0  0  0  0  0
   10.1684   -5.4151    0.0000 C   0  0  0  0  0  0  0  0  0  0  0  0
    9.0417   -4.4249    0.0000 C   0  0  0  0  0  0  0  0  0  0  0  0
    7.8192   -3.5558    0.0000 C   0  0  0  0  0  0  0  0  0  0  0  0
    6.5138   -2.8170    0.0000 C   0  0  0  0  0  0  0  0  0  0  0  0
    5.1393   -2.2163    0.0000 C   0  0  0  0  0  0  0  0  0  0  0  0
    3.7103   -1.7601    0.0000 C   0  0  0  0  0  0  0  0  0  0  0  0
    3.8722   -3.2513    0.0000 C   0  0  0  0  0  0  0  0  0  0  0  0
    2.5040   -3.8661    0.0000 C   0  0  0  0  0  0  0  0  0  0  0  0
    1.4965   -2.7549    0.0000 C   0  0  0  0  0  0  0  0  0  0  0  0
    2.2420   -1.4533    0.0000 C   0  0  0  0  0  0  0  0  0  0  0  0
    0.7500   -1.2990    0.0000 C   0  0  0  0  0  0  0  0  0  0  0  0
    1.5000    0.0000    0.0000 C   0  0  0  0  0  0  0  0  0  0  0  0
    0.7500    1.2990    0.0000 C   0  0  0  0  0  0  0  0  0  0  0  0
   -0.7500    1.2990    0.0000 C   0  0  0  0  0  0  0  0  0  0  0  0
   -1.5000    0.0000    0.0000 C   0  0  0  0  0  0  0  0  0  0  0  0
   -0.7500   -1.2990    0.0000 C   0  0  0  0  0  0  0  0  0  0  0  0
   -2.2420   -1.4533    0.0000 C   0  0  0  0  0  0  0  0  0  0  0  0
   -1.2422   -2.5714    0.0000 C   0  0  0  0  0  0  0  0  0  0  0  0
   -1.7106   -3.9964    0.0000 C   0  0  0  0  0  0  0  0  0  0  0  0
   -3.1789   -4.3032    0.0000 C   0  0  0  0  0  0  0  0  0  0  0  0
   -4.1788   -3.1851    0.0000 C   0  0  0  0  0  0  0  0  0  0  0  0
   -3.7103   -1.7601    0.0000 C   0  0  0  0  0  0  0  0  0  0  0  0
  1  2  1  0
  2  3  1  0
  3  4  1  0
  4  5  1  0
  5  6  1  0
  6  7  1  0
  7  8  1  0
  8  9  1  0
  9 10  1  0
 10 11  1  0
 11 12  1  0
 12 13  1  0
 13 14  1  0
 14 15  1  0
 15 16  1  0
 16 17  1  0
 17 18  1  0
 18 19  1  0
 19 20  1  0
 20 21  1  0
 21 22  1  0
 22 23  1  0
 23 24  1  0
 24 25  1  0
 25 26  1  0
 26 27  1  0
 27 28  1  0
 28 29  1  0
 29 30  1  0
 30 31  1  0
 31 32  1  0
 32 33  1  0
 33 34  1  0
 34 35  1  0
 35 36  1  0
 36 37  1  0
 37 38  1  0
 38 39  1  0
 39 40  1  0
 40 41  1  0
 41 42  1  0
 42 43  1  0
 43 44  1  0
 44 45  1  0
 45 46  1  0
 46 47  1  0
 47 48  1  0
 48 49  2  0
 49 50  1  0
 50 51  2  0
 51 52  1  0
 52 53  2  0
 53 54  1  0
 54 55  2  0
 55 56  1  0
 56 57  2  0
 57 58  1  0
 58 59  2  0
 59 60  1  0
 60 61  2  0
 61 62  1  0
 62 63  2  0
 63 64  1  0
 64 65  2  0
 65 66  1  0
 66 67  2  0
 67 68  1  0
 68 69  2  0
 69 70  1  0
 70 71  2  0
 71 72  1  0
 72 73  2  0
 73  2  1  0
 61 57  1  0
 67 62  1  0
 73 68  1  0
M  END
>  <Title>  (543) 
idAASYgen10

$$$$

     RDKit          2D

121122  0  0  0  0  0  0  0  0999 V2000
   -2.3695    0.1148    0.0000 C   0  0  0  0  0  0  0  0  0  0  0  0
   -2.2478   -1.3802    0.0000 C   0  0  0  0  0  0  0  0  0  0  0  0
   -3.7390   -1.5424    0.0000 C   0  0  0  0  0  0  0  0  0  0  0  0
   -5.2192   -1.7851    0.0000 C   0  0  0  0  0  0  0  0  0  0  0  0
   -6.6842   -2.1076    0.0000 C   0  0  0  0  0  0  0  0  0  0  0  0
   -8.1295   -2.5088    0.0000 C   0  0  0  0  0  0  0  0  0  0  0  0
   -9.5510   -2.9878    0.0000 C   0  0  0  0  0  0  0  0  0  0  0  0
  -10.9444   -3.5430    0.0000 C   0  0  0  0  0  0  0  0  0  0  0  0
  -12.3058   -4.1728    0.0000 C   0  0  0  0  0  0  0  0  0  0  0  0
  -13.6311   -4.8755    0.0000 C   0  0  0  0  0  0  0  0  0  0  0  0
  -14.9164   -5.6488    0.0000 C   0  0  0  0  0  0  0  0  0  0  0  0
  -16.1579   -6.4906    0.0000 C   0  0  0  0  0  0  0  0  0  0  0  0
  -17.3520   -7.3983    0.0000 C   0  0  0  0  0  0  0  0  0  0  0  0
  -18.4953   -8.3694    0.0000 C   0  0  0  0  0  0  0  0  0  0  0  0
  -19.5843   -9.4010    0.0000 C   0  0  0  0  0  0  0  0  0  0  0  0
  -20.6158  -10.4899    0.0000 C   0  0  0  0  0  0  0  0  0  0  0  0
  -21.5869  -11.6332    0.0000 C   0  0  0  0  0  0  0  0  0  0  0  0
  -22.4947  -12.8273    0.0000 C   0  0  0  0  0  0  0  0  0  0  0  0
  -23.3364  -14.0689    0.0000 C   0  0  0  0  0  0  0  0  0  0  0  0
  -24.1098  -15.3541    0.0000 C   0  0  0  0  0  0  0  0  0  0  0  0
  -24.8124  -16.6794    0.0000 C   0  0  0  0  0  0  0  0  0  0  0  0
  -25.4422  -18.0408    0.0000 C   0  0  0  0  0  0  0  0  0  0  0  0
  -25.9974  -19.4342    0.0000 C   0  0  0  0  0  0  0  0  0  0  0  0
  -26.4764  -20.8557    0.0000 C   0  0  0  0  0  0  0  0  0  0  0  0
  -26.8777  -22.3010    0.0000 C   0  0  0  0  0  0  0  0  0  0  0  0
  -27.2001  -23.7660    0.0000 C   0  0  0  0  0  0  0  0  0  0  0  0
  -27.4428  -25.2462    0.0000 C   0  0  0  0  0  0  0  0  0  0  0  0
  -27.6050  -26.7374    0.0000 C   0  0  0  0  0  0  0  0  0  0  0  0
  -27.6862  -28.2352    0.0000 C   0  0  0  0  0  0  0  0  0  0  0  0
  -27.6862  -29.7352    0.0000 C   0  0  0  0  0  0  0  0  0  0  0  0
  -27.6050  -31.2330    0.0000 C   0  0  0  0  0  0  0  0  0  0  0  0
  -27.4428  -32.7242    0.0000 C   0  0  0  0  0  0  0  0  0  0  0  0
  -27.2001  -34.2045    0.0000 C   0  0  0  0  0  0  0  0  0  0  0  0
  -26.8777  -35.6694    0.0000 C   0  0  0  0  0  0  0  0  0  0  0  0
  -26.4764  -37.1147    0.0000 C   0  0  0  0  0  0  0  0  0  0  0  0
  -25.9974  -38.5362    0.0000 C   0  0  0  0  0  0  0  0  0  0  0  0
  -25.4422  -39.9297    0.0000 C   0  0  0  0  0  0  0  0  0  0  0  0
  -24.8124  -41.2910    0.0000 C   0  0  0  0  0  0  0  0  0  0  0  0
  -24.1098  -42.6163    0.0000 C   0  0  0  0  0  0  0  0  0  0  0  0
  -23.3364  -43.9016    0.0000 C   0  0  0  0  0  0  0  0  0  0  0  0
  -22.4947  -45.1431    0.0000 C   0  0  0  0  0  0  0  0  0  0  0  0
  -21.5869  -46.3373    0.0000 C   0  0  0  0  0  0  0  0  0  0  0  0
  -20.6158  -47.4805    0.0000 C   0  0  0  0  0  0  0  0  0  0  0  0
  -19.5843  -48.5695    0.0000 C   0  0  0  0  0  0  0  0  0  0  0  0
  -18.4953  -49.6011    0.0000 C   0  0  0  0  0  0  0  0  0  0  0  0
  -17.3520  -50.5721    0.0000 C   0  0  0  0  0  0  0  0  0  0  0  0
  -16.1579  -51.4799    0.0000 C   0  0  0  0  0  0  0  0  0  0  0  0
  -14.9164  -52.3217    0.0000 C   0  0  0  0  0  0  0  0  0  0  0  0
  -13.6311  -53.0950    0.0000 C   0  0  0  0  0  0  0  0  0  0  0  0
  -12.3058  -53.7976    0.0000 C   0  0  0  0  0  0  0  0  0  0  0  0
  -10.9444  -54.4274    0.0000 C   0  0  0  0  0  0  0  0  0  0  0  0
   -9.5510  -54.9827    0.0000 C   0  0  0  0  0  0  0  0  0  0  0  0
   -8.1295  -55.4616    0.0000 C   0  0  0  0  0  0  0  0  0  0  0  0
   -6.6842  -55.8629    0.0000 C   0  0  0  0  0  0  0  0  0  0  0  0
   -5.2192  -56.1854    0.0000 C   0  0  0  0  0  0  0  0  0  0  0  0
   -3.7390  -56.4280    0.0000 C   0  0  0  0  0  0  0  0  0  0  0  0
   -2.2478  -56.5902    0.0000 C   0  0  0  0  0  0  0  0  0  0  0  0
   -0.7500  -56.6714    0.0000 C   0  0  0  0  0  0  0  0  0  0  0  0
    0.7500  -56.6714    0.0000 C   0  0  0  0  0  0  0  0  0  0  0  0
    2.2478  -56.5902    0.0000 C   0  0  0  0  0  0  0  0  0  0  0  0
    3.7390  -56.4280    0.0000 C   0  0  0  0  0  0  0  0  0  0  0  0
    5.2192  -56.1854    0.0000 C   0  0  0  0  0  0  0  0  0  0  0  0
    6.6842  -55.8629    0.0000 C   0  0  0  0  0  0  0  0  0  0  0  0
    8.1295  -55.4616    0.0000 C   0  0  0  0  0  0  0  0  0  0  0  0
    9.5510  -54.9827    0.0000 C   0  0  0  0  0  0  0  0  0  0  0  0
   10.9444  -54.4274    0.0000 C   0  0  0  0  0  0  0  0  0  0  0  0
   12.3058  -53.7976    0.0000 C   0  0  0  0  0  0  0  0  0  0  0  0
   13.6311  -53.0950    0.0000 C   0  0  0  0  0  0  0  0  0  0  0  0
   14.9164  -52.3217    0.0000 C   0  0  0  0  0  0  0  0  0  0  0  0
   16.1579  -51.4799    0.0000 C   0  0  0  0  0  0  0  0  0  0  0  0
   17.3520  -50.5721    0.0000 C   0  0  0  0  0  0  0  0  0  0  0  0
   18.4953  -49.6011    0.0000 C   0  0  0  0  0  0  0  0  0  0  0  0
   19.5843  -48.5695    0.0000 C   0  0  0  0  0  0  0  0  0  0  0  0
   20.6158  -47.4805    0.0000 C   0  0  0  0  0  0  0  0  0  0  0  0
   21.5869  -46.3373    0.0000 C   0  0  0  0  0  0  0  0  0  0  0  0
   22.4947  -45.1431    0.0000 C   0  0  0  0  0  0  0  0  0  0  0  0
   23.3364  -43.9016    0.0000 C   0  0  0  0  0  0  0  0  0  0  0  0
   24.1098  -42.6163    0.0000 C   0  0  0  0  0  0  0  0  0  0  0  0
   24.8124  -41.2910    0.0000 C   0  0  0  0  0  0  0  0  0  0  0  0
   25.4422  -39.9297    0.0000 C   0  0  0  0  0  0  0  0  0  0  0  0
   25.9974  -38.5362    0.0000 C   0  0  0  0  0  0  0  0  0  0  0  0
   26.4764  -37.1147    0.0000 C   0  0  0  0  0  0  0  0  0  0  0  0
   26.8777  -35.6694    0.0000 C   0  0  0  0  0  0  0  0  0  0  0  0
   27.2001  -34.2045    0.0000 C   0  0  0  0  0  0  0  0  0  0  0  0
   27.4428  -32.7242    0.0000 C   0  0  0  0  0  0  0  0  0  0  0  0
   27.6050  -31.2330    0.0000 C   0  0  0  0  0  0  0  0  0  0  0  0
   27.6862  -29.7352    0.0000 C   0  0  0  0  0  0  0  0  0  0  0  0
   27.6862  -28.2352    0.0000 C   0  0  0  0  0  0  0  0  0  0  0  0
   27.6050  -26.7374    0.0000 C   0  0  0  0  0  0  0  0  0  0  0  0
   27.4428  -25.2462    0.0000 C   0  0  0  0  0  0  0  0  0  0  0  0
   27.2001  -23.7660    0.0000 C   0  0  0  0  0  0  0  0  0  0  0  0
   26.8777  -22.3010    0.0000 C   0  0  0  0  0  0  0  0  0  0  0  0
   26.4764  -20.8557    0.0000 C   0  0  0  0  0  0  0  0  0  0  0  0
   25.9974  -19.4342    0.0000 C   0  0  0  0  0  0  0  0  0  0  0  0
   25.4422  -18.0408    0.0000 C   0  0  0  0  0  0  0  0  0  0  0  0
   24.8124  -16.6794    0.0000 C   0  0  0  0  0  0  0  0  0  0  0  0
   24.1098  -15.3541    0.0000 C   0  0  0  0  0  0  0  0  0  0  0  0
   23.3364  -14.0689    0.0000 C   0  0  0  0  0  0  0  0  0  0  0  0
   22.4947  -12.8273    0.0000 C   0  0  0  0  0  0  0  0  0  0  0  0
   21.5869  -11.6332    0.0000 C   0  0  0  0  0  0  0  0  0  0  0  0
   20.6158  -10.4899    0.0000 C   0  0  0  0  0  0  0  0  0  0  0  0
   19.5843   -9.4010    0.0000 C   0  0  0  0  0  0  0  0  0  0  0  0
   18.4953   -8.3694    0.0000 C   0  0  0  0  0  0  0  0  0  0  0  0
   17.3520   -7.3983    0.0000 C   0  0  0  0  0  0  0  0  0  0  0  0
   16.1579   -6.4906    0.0000 C   0  0  0  0  0  0  0  0  0  0  0  0
   14.9164   -5.6488    0.0000 C   0  0  0  0  0  0  0  0  0  0  0  0
   13.6311   -4.8755    0.0000 C   0  0  0  0  0  0  0  0  0  0  0  0
   12.3058   -4.1728    0.0000 C   0  0  0  0  0  0  0  0  0  0  0  0
   10.9444   -3.5430    0.0000 C   0  0  0  0  0  0  0  0  0  0  0  0
    9.5510   -2.9878    0.0000 C   0  0  0  0  0  0  0  0  0  0  0  0
    8.1295   -2.5088    0.0000 C   0  0  0  0  0  0  0  0  0  0  0  0
    6.6842   -2.1076    0.0000 C   0  0  0  0  0  0  0  0  0  0  0  0
    5.2192   -1.7851    0.0000 C   0  0  0  0  0  0  0  0  0  0  0  0
    3.7390   -1.5424    0.0000 C   0  0  0  0  0  0  0  0  0  0  0  0
    2.2478   -1.3802    0.0000 C   0  0  0  0  0  0  0  0  0  0  0  0
    0.7500   -1.2990    0.0000 C   0  0  0  0  0  0  0  0  0  0  0  0
    1.5000    0.0000    0.0000 C   0  0  0  0  0  0  0  0  0  0  0  0
    0.7500    1.2990    0.0000 C   0  0  0  0  0  0  0  0  0  0  0  0
   -0.7500    1.2990    0.0000 C   0  0  0  0  0  0  0  0  0  0  0  0
   -1.5000    0.0000    0.0000 C   0  0  0  0  0  0  0  0  0  0  0  0
   -0.7500   -1.2990    0.0000 C   0  0  0  0  0  0  0  0  0  0  0  0
  1  2  1  0
  2  3  1  0
  3  4  1  0
  4  5  1  0
  5  6  1  0
  6  7  1  0
  7  8  1  0
  8  9  1  0
  9 10  1  0
 10 11  1  0
 11 12  1  0
 12 13  1  0
 13 14  1  0
 14 15  1  0
 15 16  1  0
 16 17  1  0
 17 18  1  0
 18 19  1  0
 19 20  1  0
 20 21  1  0
 21 22  1  0
 22 23  1  0
 23 24  1  0
 24 25  1  0
 25 26  1  0
 26 27  1  0
 27 28  1  0
 28 29  1  0
 29 30  1  0
 30 31  1  0
 31 32  1  0
 32 33  1  0
 33 34  1  0
 34 35  1  0
 35 36  1  0
 36 37  1  0
 37 38  1  0
 38 39  1  0
 39 40  1  0
 40 41  1  0
 41 42  1  0
 42 43  1  0
 43 44  1  0
 44 45  1  0
 45 46  1  0
 46 47  1  0
 47 48  1  0
 48 49  1  0
 49 50  1  0
 50 51  1  0
 51 52  1  0
 52 53  1  0
 53 54  1  0
 54 55  1  0
 55 56  1  0
 56 57  1  0
 57 58  1  0
 58 59  1  0
 59 60  1  0
 60 61  1  0
 61 62  1  0
 62 63  1  0
 63 64  1  0
 64 65  1  0
 65 66  1  0
 66 67  1  0
 67 68  1  0
 68 69  1  0
 69 70  1  0
 70 71  1  0
 71 72  1  0
 72 73  1  0
 73 74  1  0
 74 75  1  0
 75 76  1  0
 76 77  1  0
 77 78  1  0
 78 79  1  0
 79 80  1  0
 80 81  1  0
 81 82  1  0
 82 83  1  0
 83 84  1  0
 84 85  1  0
 85 86  1  0
 86 87  1  0
 87 88  1  0
 88 89  1  0
 89 90  1  0
 90 91  1  0
 91 92  1  0
 92 93  1  0
 93 94  1  0
 94 95  1  0
 95 96  1  0
 96 97  1  0
 97 98  1  0
 98 99  1  0
 99100  1  0
100101  1  0
101102  1  0
102103  1  0
103104  1  0
104105  1  0
105106  1  0
106107  1  0
107108  1  0
108109  1  0
109110  1  0
110111  1  0
111112  1  0
112113  1  0
113114  1  0
114115  1  0
115116  1  0
116117  1  0
117118  1  0
118119  1  0
119120  1  0
120121  2  0
121  2  1  0
121116  1  0
M  END
>  <Title>  (544) 
idAASZgen10

$$$$

     RDKit          2D

120121  0  0  0  0  0  0  0  0999 V2000
   -2.3706    0.1140    0.0000 C   0  0  0  0  0  0  0  0  0  0  0  0
   -2.2478   -1.3810    0.0000 C   0  0  0  0  0  0  0  0  0  0  0  0
   -3.7388   -1.5445    0.0000 C   0  0  0  0  0  0  0  0  0  0  0  0
   -5.2187   -1.7893    0.0000 C   0  0  0  0  0  0  0  0  0  0  0  0
   -6.6830   -2.1145    0.0000 C   0  0  0  0  0  0  0  0  0  0  0  0
   -8.1274   -2.5192    0.0000 C   0  0  0  0  0  0  0  0  0  0  0  0
   -9.5475   -3.0022    0.0000 C   0  0  0  0  0  0  0  0  0  0  0  0
  -10.9392   -3.5620    0.0000 C   0  0  0  0  0  0  0  0  0  0  0  0
  -12.2981   -4.1969    0.0000 C   0  0  0  0  0  0  0  0  0  0  0  0
  -13.6204   -4.9052    0.0000 C   0  0  0  0  0  0  0  0  0  0  0  0
  -14.9020   -5.6845    0.0000 C   0  0  0  0  0  0  0  0  0  0  0  0
  -16.1392   -6.5327    0.0000 C   0  0  0  0  0  0  0  0  0  0  0  0
  -17.3282   -7.4472    0.0000 C   0  0  0  0  0  0  0  0  0  0  0  0
  -18.4655   -8.4253    0.0000 C   0  0  0  0  0  0  0  0  0  0  0  0
  -19.5476   -9.4640    0.0000 C   0  0  0  0  0  0  0  0  0  0  0  0
  -20.5715  -10.5603    0.0000 C   0  0  0  0  0  0  0  0  0  0  0  0
  -21.5339  -11.7108    0.0000 C   0  0  0  0  0  0  0  0  0  0  0  0
  -22.4321  -12.9122    0.0000 C   0  0  0  0  0  0  0  0  0  0  0  0
  -23.2633  -14.1608    0.0000 C   0  0  0  0  0  0  0  0  0  0  0  0
  -24.0251  -15.4529    0.0000 C   0  0  0  0  0  0  0  0  0  0  0  0
  -24.7152  -16.7848    0.0000 C   0  0  0  0  0  0  0  0  0  0  0  0
  -25.3315  -18.1523    0.0000 C   0  0  0  0  0  0  0  0  0  0  0  0
  -25.8723  -19.5514    0.0000 C   0  0  0  0  0  0  0  0  0  0  0  0
  -26.3358  -20.9780    0.0000 C   0  0  0  0  0  0  0  0  0  0  0  0
  -26.7207  -22.4278    0.0000 C   0  0  0  0  0  0  0  0  0  0  0  0
  -27.0259  -23.8964    0.0000 C   0  0  0  0  0  0  0  0  0  0  0  0
  -27.2504  -25.3795    0.0000 C   0  0  0  0  0  0  0  0  0  0  0  0
  -27.3936  -26.8727    0.0000 C   0  0  0  0  0  0  0  0  0  0  0  0
  -27.4551  -28.3714    0.0000 C   0  0  0  0  0  0  0  0  0  0  0  0
  -27.4346  -29.8713    0.0000 C   0  0  0  0  0  0  0  0  0  0  0  0
  -27.3322  -31.3678    0.0000 C   0  0  0  0  0  0  0  0  0  0  0  0
  -27.1483  -32.8564    0.0000 C   0  0  0  0  0  0  0  0  0  0  0  0
  -26.8833  -34.3329    0.0000 C   0  0  0  0  0  0  0  0  0  0  0  0
  -26.5382  -35.7926    0.0000 C   0  0  0  0  0  0  0  0  0  0  0  0
  -26.1138  -37.2313    0.0000 C   0  0  0  0  0  0  0  0  0  0  0  0
  -25.6115  -38.6447    0.0000 C   0  0  0  0  0  0  0  0  0  0  0  0
  -25.0327  -40.0286    0.0000 C   0  0  0  0  0  0  0  0  0  0  0  0
  -24.3792  -41.3787    0.0000 C   0  0  0  0  0  0  0  0  0  0  0  0
  -23.6530  -42.6912    0.0000 C   0  0  0  0  0  0  0  0  0  0  0  0
  -22.8562  -43.9621    0.0000 C   0  0  0  0  0  0  0  0  0  0  0  0
  -21.9912  -45.1875    0.0000 C   0  0  0  0  0  0  0  0  0  0  0  0
  -21.0605  -46.3639    0.0000 C   0  0  0  0  0  0  0  0  0  0  0  0
  -20.0670  -47.4877    0.0000 C   0  0  0  0  0  0  0  0  0  0  0  0
  -19.0136  -48.5556    0.0000 C   0  0  0  0  0  0  0  0  0  0  0  0
  -17.9035  -49.5644    0.0000 C   0  0  0  0  0  0  0  0  0  0  0  0
  -16.7399  -50.5110    0.0000 C   0  0  0  0  0  0  0  0  0  0  0  0
  -15.5264  -51.3927    0.0000 C   0  0  0  0  0  0  0  0  0  0  0  0
  -14.2666  -52.2068    0.0000 C   0  0  0  0  0  0  0  0  0  0  0  0
  -12.9641  -52.9509    0.0000 C   0  0  0  0  0  0  0  0  0  0  0  0
  -11.6230  -53.6227    0.0000 C   0  0  0  0  0  0  0  0  0  0  0  0
  -10.2472  -54.2203    0.0000 C   0  0  0  0  0  0  0  0  0  0  0  0
   -8.8408  -54.7419    0.0000 C   0  0  0  0  0  0  0  0  0  0  0  0
   -7.4080  -55.1859    0.0000 C   0  0  0  0  0  0  0  0  0  0  0  0
   -5.9531  -55.5510    0.0000 C   0  0  0  0  0  0  0  0  0  0  0  0
   -4.4804  -55.8361    0.0000 C   0  0  0  0  0  0  0  0  0  0  0  0
   -2.9944  -56.0403    0.0000 C   0  0  0  0  0  0  0  0  0  0  0  0
   -1.4994  -56.1631    0.0000 C   0  0  0  0  0  0  0  0  0  0  0  0
    0.0000  -56.2041    0.0000 C   0  0  0  0  0  0  0  0  0  0  0  0
    1.4994  -56.1631    0.0000 C   0  0  0  0  0  0  0  0  0  0  0  0
    2.9944  -56.0403    0.0000 C   0  0  0  0  0  0  0  0  0  0  0  0
    4.4804  -55.8361    0.0000 C   0  0  0  0  0  0  0  0  0  0  0  0
    5.9531  -55.5510    0.0000 C   0  0  0  0  0  0  0  0  0  0  0  0
    7.4080  -55.1859    0.0000 C   0  0  0  0  0  0  0  0  0  0  0  0
    8.8408  -54.7419    0.0000 C   0  0  0  0  0  0  0  0  0  0  0  0
   10.2472  -54.2203    0.0000 C   0  0  0  0  0  0  0  0  0  0  0  0
   11.6230  -53.6227    0.0000 C   0  0  0  0  0  0  0  0  0  0  0  0
   12.9641  -52.9509    0.0000 C   0  0  0  0  0  0  0  0  0  0  0  0
   14.2666  -52.2068    0.0000 C   0  0  0  0  0  0  0  0  0  0  0  0
   15.5264  -51.3927    0.0000 C   0  0  0  0  0  0  0  0  0  0  0  0
   16.7399  -50.5110    0.0000 C   0  0  0  0  0  0  0  0  0  0  0  0
   17.9035  -49.5644    0.0000 C   0  0  0  0  0  0  0  0  0  0  0  0
   19.0136  -48.5556    0.0000 C   0  0  0  0  0  0  0  0  0  0  0  0
   20.0670  -47.4877    0.0000 C   0  0  0  0  0  0  0  0  0  0  0  0
   21.0605  -46.3639    0.0000 C   0  0  0  0  0  0  0  0  0  0  0  0
   21.9912  -45.1875    0.0000 C   0  0  0  0  0  0  0  0  0  0  0  0
   22.8562  -43.9621    0.0000 C   0  0  0  0  0  0  0  0  0  0  0  0
   23.6530  -42.6912    0.0000 C   0  0  0  0  0  0  0  0  0  0  0  0
   24.3792  -41.3787    0.0000 C   0  0  0  0  0  0  0  0  0  0  0  0
   25.0327  -40.0286    0.0000 C   0  0  0  0  0  0  0  0  0  0  0  0
   25.6115  -38.6447    0.0000 C   0  0  0  0  0  0  0  0  0  0  0  0
   26.1138  -37.2313    0.0000 C   0  0  0  0  0  0  0  0  0  0  0  0
   26.5382  -35.7926    0.0000 C   0  0  0  0  0  0  0  0  0  0  0  0
   26.8833  -34.3329    0.0000 C   0  0  0  0  0  0  0  0  0  0  0  0
   27.1483  -32.8564    0.0000 C   0  0  0  0  0  0  0  0  0  0  0  0
   27.3322  -31.3678    0.0000 C   0  0  0  0  0  0  0  0  0  0  0  0
   27.4346  -29.8713    0.0000 C   0  0  0  0  0  0  0  0  0  0  0  0
   27.4551  -28.3714    0.0000 C   0  0  0  0  0  0  0  0  0  0  0  0
   27.3936  -26.8727    0.0000 C   0  0  0  0  0  0  0  0  0  0  0  0
   27.2504  -25.3795    0.0000 C   0  0  0  0  0  0  0  0  0  0  0  0
   27.0259  -23.8964    0.0000 C   0  0  0  0  0  0  0  0  0  0  0  0
   26.7207  -22.4278    0.0000 C   0  0  0  0  0  0  0  0  0  0  0  0
   26.3358  -20.9780    0.0000 C   0  0  0  0  0  0  0  0  0  0  0  0
   25.8723  -19.5514    0.0000 C   0  0  0  0  0  0  0  0  0  0  0  0
   25.3315  -18.1523    0.0000 C   0  0  0  0  0  0  0  0  0  0  0  0
   24.7152  -16.7848    0.0000 C   0  0  0  0  0  0  0  0  0  0  0  0
   24.0251  -15.4529    0.0000 C   0  0  0  0  0  0  0  0  0  0  0  0
   23.2633  -14.1608    0.0000 C   0  0  0  0  0  0  0  0  0  0  0  0
   22.4321  -12.9122    0.0000 C   0  0  0  0  0  0  0  0  0  0  0  0
   21.5339  -11.7108    0.0000 C   0  0  0  0  0  0  0  0  0  0  0  0
   20.5715  -10.5603    0.0000 C   0  0  0  0  0  0  0  0  0  0  0  0
   19.5476   -9.4640    0.0000 C   0  0  0  0  0  0  0  0  0  0  0  0
   18.4655   -8.4253    0.0000 C   0  0  0  0  0  0  0  0  0  0  0  0
   17.3282   -7.4472    0.0000 C   0  0  0  0  0  0  0  0  0  0  0  0
   16.1392   -6.5327    0.0000 C   0  0  0  0  0  0  0  0  0  0  0  0
   14.9020   -5.6845    0.0000 C   0  0  0  0  0  0  0  0  0  0  0  0
   13.6204   -4.9052    0.0000 C   0  0  0  0  0  0  0  0  0  0  0  0
   12.2981   -4.1969    0.0000 C   0  0  0  0  0  0  0  0  0  0  0  0
   10.9392   -3.5620    0.0000 C   0  0  0  0  0  0  0  0  0  0  0  0
    9.5475   -3.0022    0.0000 C   0  0  0  0  0  0  0  0  0  0  0  0
    8.1274   -2.5192    0.0000 C   0  0  0  0  0  0  0  0  0  0  0  0
    6.6830   -2.1145    0.0000 C   0  0  0  0  0  0  0  0  0  0  0  0
    5.2187   -1.7893    0.0000 C   0  0  0  0  0  0  0  0  0  0  0  0
    3.7388   -1.5445    0.0000 C   0  0  0  0  0  0  0  0  0  0  0  0
    2.2478   -1.3810    0.0000 C   0  0  0  0  0  0  0  0  0  0  0  0
    0.7500   -1.2990    0.0000 C   0  0  0  0  0  0  0  0  0  0  0  0
    1.5000    0.0000    0.0000 C   0  0  0  0  0  0  0  0  0  0  0  0
    0.7500    1.2990    0.0000 C   0  0  0  0  0  0  0  0  0  0  0  0
   -0.7500    1.2990    0.0000 C   0  0  0  0  0  0  0  0  0  0  0  0
   -1.5000    0.0000    0.0000 C   0  0  0  0  0  0  0  0  0  0  0  0
   -0.7500   -1.2990    0.0000 C   0  0  0  0  0  0  0  0  0  0  0  0
  1  2  1  0
  2  3  1  0
  3  4  1  0
  4  5  1  0
  5  6  1  0
  6  7  1  0
  7  8  1  0
  8  9  1  0
  9 10  1  0
 10 11  1  0
 11 12  1  0
 12 13  1  0
 13 14  1  0
 14 15  1  0
 15 16  1  0
 16 17  1  0
 17 18  1  0
 18 19  1  0
 19 20  1  0
 20 21  1  0
 21 22  1  0
 22 23  1  0
 23 24  1  0
 24 25  1  0
 25 26  1  0
 26 27  1  0
 27 28  1  0
 28 29  1  0
 29 30  1  0
 30 31  1  0
 31 32  1  0
 32 33  1  0
 33 34  1  0
 34 35  1  0
 35 36  1  0
 36 37  1  0
 37 38  1  0
 38 39  1  0
 39 40  1  0
 40 41  1  0
 41 42  1  0
 42 43  1  0
 43 44  1  0
 44 45  1  0
 45 46  1  0
 46 47  1  0
 47 48  1  0
 48 49  1  0
 49 50  1  0
 50 51  1  0
 51 52  1  0
 52 53  1  0
 53 54  1  0
 54 55  1  0
 55 56  1  0
 56 57  1  0
 57 58  1  0
 58 59  1  0
 59 60  1  0
 60 61  1  0
 61 62  1  0
 62 63  1  0
 63 64  1  0
 64 65  1  0
 65 66  1  0
 66 67  1  0
 67 68  1  0
 68 69  1  0
 69 70  1  0
 70 71  1  0
 71 72  1  0
 72 73  1  0
 73 74  1  0
 74 75  1  0
 75 76  1  0
 76 77  1  0
 77 78  1  0
 78 79  1  0
 79 80  1  0
 80 81  1  0
 81 82  1  0
 82 83  1  0
 83 84  1  0
 84 85  1  0
 85 86  1  0
 86 87  1  0
 87 88  1  0
 88 89  1  0
 89 90  1  0
 90 91  1  0
 91 92  1  0
 92 93  1  0
 93 94  1  0
 94 95  1  0
 95 96  1  0
 96 97  1  0
 97 98  1  0
 98 99  1  0
 99100  1  0
100101  1  0
101102  1  0
102103  1  0
103104  1  0
104105  1  0
105106  1  0
106107  1  0
107108  1  0
108109  1  0
109110  1  0
110111  1  0
111112  1  0
112113  1  0
113114  1  0
114115  1  0
115116  1  0
116117  1  0
117118  1  0
118119  1  0
119120  1  0
120  2  1  0
120115  1  0
M  END
>  <Title>  (545) 
idAATAgen10

$$$$

     RDKit          2D

 10  9  0  0  0  0  0  0  0  0999 V2000
    0.0000    0.0000    0.0000 C   0  0  0  0  0  0  0  0  0  0  0  0
   -0.0000   -1.5000    0.0000 C   0  0  0  0  0  0  0  0  0  0  0  0
   -0.0000   -3.0000    0.0000 C   0  0  0  0  0  0  0  0  0  0  0  0
   -0.0000   -4.5000    0.0000 C   0  0  0  0  0  0  0  0  0  0  0  0
   -0.0000   -6.0000    0.0000 C   0  0  0  0  0  0  0  0  0  0  0  0
    1.2990   -6.7500    0.0000 C   0  0  0  0  0  0  0  0  0  0  0  0
    1.2990   -8.2500    0.0000 C   0  0  0  0  0  0  0  0  0  0  0  0
    2.5981   -9.0000    0.0000 C   0  0  0  0  0  0  0  0  0  0  0  0
    2.5981  -10.5000    0.0000 C   0  0  0  0  0  0  0  0  0  0  0  0
    3.8971  -11.2500    0.0000 C   0  0  0  0  0  0  0  0  0  0  0  0
  1  2  3  0
  2  3  1  0
  3  4  3  0
  4  5  1  0
  5  6  1  0
  6  7  2  3
  7  8  1  0
  8  9  2  3
  9 10  1  0
M  END
>  <Title>  (546) 
idAATBgen10

$$$$

     RDKit          2D

 64 73  0  0  0  0  0  0  0  0999 V2000
    6.4958   -8.4227    0.0000 C   0  0  0  0  0  0  0  0  0  0  0  0
    5.0565   -8.0001    0.0000 C   0  0  0  0  0  0  0  0  0  0  0  0
    5.2700   -6.5154    0.0000 C   0  0  0  0  0  0  0  0  0  0  0  0
    5.0565   -5.0307    0.0000 C   0  0  0  0  0  0  0  0  0  0  0  0
    4.4334   -3.6662    0.0000 C   0  0  0  0  0  0  0  0  0  0  0  0
    3.4511   -2.5326    0.0000 C   0  0  0  0  0  0  0  0  0  0  0  0
    2.1892   -1.7216    0.0000 C   0  0  0  0  0  0  0  0  0  0  0  0
    2.8124   -0.3572    0.0000 C   0  0  0  0  0  0  0  0  0  0  0  0
    1.9423    0.8647    0.0000 O   0  0  0  0  0  0  0  0  0  0  0  0
    4.3056   -0.2146    0.0000 N   0  0  0  0  0  0  0  0  0  0  0  0
    4.9287    1.1498    0.0000 C   0  0  0  0  0  0  0  0  0  0  0  0
    6.4219    1.2924    0.0000 N   0  0  0  0  0  0  0  0  0  0  0  0
    7.0450    2.6569    0.0000 N   0  0  0  0  0  0  0  0  0  0  0  0
    6.1749    3.8787    0.0000 N   0  0  0  0  0  0  0  0  0  0  0  0
    4.6817    3.7362    0.0000 N   0  0  0  0  0  0  0  0  0  0  0  0
    4.0586    2.3717    0.0000 N   0  0  0  0  0  0  0  0  0  0  0  0
    0.7500   -1.2990    0.0000 C   0  0  0  0  0  0  0  0  0  0  0  0
    1.5000    0.0000    0.0000 C   0  0  0  0  0  0  0  0  0  0  0  0
    0.7500    1.2990    0.0000 C   0  0  0  0  0  0  0  0  0  0  0  0
   -0.7500    1.2990    0.0000 C   0  0  0  0  0  0  0  0  0  0  0  0
   -1.5000    0.0000    0.0000 C   0  0  0  0  0  0  0  0  0  0  0  0
   -0.7500   -1.2990    0.0000 C   0  0  0  0  0  0  0  0  0  0  0  0
   -2.1892   -1.7216    0.0000 C   0  0  0  0  0  0  0  0  0  0  0  0
   -2.2606   -0.2233    0.0000 C   0  0  0  0  0  0  0  0  0  0  0  0
   -3.5939    0.4640    0.0000 C   0  0  0  0  0  0  0  0  0  0  0  0
   -4.8557   -0.3470    0.0000 C   0  0  0  0  0  0  0  0  0  0  0  0
   -4.7844   -1.8453    0.0000 C   0  0  0  0  0  0  0  0  0  0  0  0
   -3.4511   -2.5326    0.0000 C   0  0  0  0  0  0  0  0  0  0  0  0
   -4.4334   -3.6662    0.0000 C   0  0  0  0  0  0  0  0  0  0  0  0
   -5.3035   -2.4444    0.0000 C   0  0  0  0  0  0  0  0  0  0  0  0
   -6.7967   -2.5869    0.0000 C   0  0  0  0  0  0  0  0  0  0  0  0
   -7.4198   -3.9514    0.0000 C   0  0  0  0  0  0  0  0  0  0  0  0
   -6.5497   -5.1733    0.0000 C   0  0  0  0  0  0  0  0  0  0  0  0
   -5.0565   -5.0307    0.0000 C   0  0  0  0  0  0  0  0  0  0  0  0
   -5.2700   -6.5154    0.0000 C   0  0  0  0  0  0  0  0  0  0  0  0
   -6.6626   -5.9579    0.0000 C   0  0  0  0  0  0  0  0  0  0  0  0
   -7.8416   -6.8851    0.0000 C   0  0  0  0  0  0  0  0  0  0  0  0
   -7.6282   -8.3699    0.0000 C   0  0  0  0  0  0  0  0  0  0  0  0
   -6.2356   -8.9274    0.0000 C   0  0  0  0  0  0  0  0  0  0  0  0
   -5.0565   -8.0001    0.0000 C   0  0  0  0  0  0  0  0  0  0  0  0
   -4.4334   -9.3646    0.0000 C   0  0  0  0  0  0  0  0  0  0  0  0
   -5.9063   -9.6485    0.0000 C   0  0  0  0  0  0  0  0  0  0  0  0
   -6.3969  -11.0660    0.0000 C   0  0  0  0  0  0  0  0  0  0  0  0
   -5.4146  -12.1996    0.0000 C   0  0  0  0  0  0  0  0  0  0  0  0
   -3.9417  -11.9157    0.0000 C   0  0  0  0  0  0  0  0  0  0  0  0
   -3.4511  -10.4982    0.0000 C   0  0  0  0  0  0  0  0  0  0  0  0
   -2.1892  -11.3092    0.0000 C   0  0  0  0  0  0  0  0  0  0  0  0
   -3.2748  -12.3443    0.0000 C   0  0  0  0  0  0  0  0  0  0  0  0
   -2.9212  -13.8020    0.0000 C   0  0  0  0  0  0  0  0  0  0  0  0
   -1.4820  -14.2246    0.0000 C   0  0  0  0  0  0  0  0  0  0  0  0
   -0.3964  -13.1895    0.0000 C   0  0  0  0  0  0  0  0  0  0  0  0
   -0.7500  -11.7318    0.0000 C   0  0  0  0  0  0  0  0  0  0  0  0
    0.7500  -11.7318    0.0000 C   0  0  0  0  0  0  0  0  0  0  0  0
    0.3964  -13.1895    0.0000 C   0  0  0  0  0  0  0  0  0  0  0  0
    1.4820  -14.2246    0.0000 C   0  0  0  0  0  0  0  0  0  0  0  0
    2.9212  -13.8020    0.0000 C   0  0  0  0  0  0  0  0  0  0  0  0
    3.2748  -12.3443    0.0000 C   0  0  0  0  0  0  0  0  0  0  0  0
    2.1892  -11.3092    0.0000 C   0  0  0  0  0  0  0  0  0  0  0  0
    3.4511  -10.4982    0.0000 C   0  0  0  0  0  0  0  0  0  0  0  0
    3.9417  -11.9157    0.0000 C   0  0  0  0  0  0  0  0  0  0  0  0
    5.4146  -12.1996    0.0000 C   0  0  0  0  0  0  0  0  0  0  0  0
    6.3969  -11.0660    0.0000 C   0  0  0  0  0  0  0  0  0  0  0  0
    5.9063   -9.6485    0.0000 C   0  0  0  0  0  0  0  0  0  0  0  0
    4.4334   -9.3646    0.0000 C   0  0  0  0  0  0  0  0  0  0  0  0
  1  2  1  0
  2  3  1  0
  3  4  1  0
  4  5  1  0
  5  6  1  0
  6  7  1  0
  7  8  1  0
  8  9  2  0
  8 10  1  0
 10 11  1  0
 11 12  2  0
 12 13  1  0
 13 14  2  0
 14 15  1  0
 15 16  2  0
  7 17  1  0
 17 18  2  0
 18 19  1  0
 19 20  2  0
 20 21  1  0
 21 22  2  0
 22 23  1  0
 23 24  2  0
 24 25  1  0
 25 26  2  0
 26 27  1  0
 27 28  2  0
 28 29  1  0
 29 30  2  0
 30 31  1  0
 31 32  2  0
 32 33  1  0
 33 34  2  0
 34 35  1  0
 35 36  2  0
 36 37  1  0
 37 38  2  0
 38 39  1  0
 39 40  2  0
 40 41  1  0
 41 42  2  0
 42 43  1  0
 43 44  2  0
 44 45  1  0
 45 46  2  0
 46 47  1  0
 47 48  2  0
 48 49  1  0
 49 50  2  0
 50 51  1  0
 51 52  2  0
 52 53  1  0
 53 54  2  0
 54 55  1  0
 55 56  2  0
 56 57  1  0
 57 58  2  0
 58 59  1  0
 59 60  2  0
 60 61  1  0
 61 62  2  0
 62 63  1  0
 63 64  2  0
 64  2  1  0
 16 11  1  0
 22 17  1  0
 28 23  1  0
 34 29  1  0
 40 35  1  0
 46 41  1  0
 52 47  1  0
 58 53  1  0
 64 59  1  0
M  END
>  <Title>  (547) 
idAATCgen10

$$$$

     RDKit          2D

  9  9  0  0  0  0  0  0  0  0999 V2000
    3.0000    0.0000    0.0000 C   0  0  0  0  0  0  0  0  0  0  0  0
    1.5000    0.0000    0.0000 C   0  0  0  0  0  0  0  0  0  0  0  0
    0.7500   -1.2990    0.0000 C   0  0  0  0  0  0  0  0  0  0  0  0
   -0.7500   -1.2990    0.0000 C   0  0  0  0  0  0  0  0  0  0  0  0
   -1.5000    0.0000    0.0000 C   0  0  0  0  0  0  0  0  0  0  0  0
   -0.7500    1.2990    0.0000 C   0  0  0  0  0  0  0  0  0  0  0  0
   -1.5000    2.5981    0.0000 C   0  0  0  0  0  0  0  0  0  0  0  0
   -2.2500    3.8971    0.0000 N   0  0  0  0  0  0  0  0  0  0  0  0
    0.7500    1.2990    0.0000 C   0  0  0  0  0  0  0  0  0  0  0  0
  1  2  1  0
  2  3  2  0
  3  4  1  0
  4  5  1  0
  5  6  1  0
  6  7  1  0
  7  8  3  0
  6  9  1  0
  9  2  1  0
M  END
>  <Title>  (548) 
idAATDgen10

$$$$

     RDKit          2D

 67 68  0  0  0  0  0  0  0  0999 V2000
   -2.4694    0.0319    0.0000 C   0  0  0  0  0  0  0  0  0  0  0  0
   -2.2423   -1.4508    0.0000 C   0  0  0  0  0  0  0  0  0  0  0  0
   -3.7116   -1.7527    0.0000 C   0  0  0  0  0  0  0  0  0  0  0  0
   -5.1428   -2.2018    0.0000 C   0  0  0  0  0  0  0  0  0  0  0  0
   -6.5212   -2.7933    0.0000 C   0  0  0  0  0  0  0  0  0  0  0  0
   -7.8328   -3.5213    0.0000 C   0  0  0  0  0  0  0  0  0  0  0  0
   -9.0639   -4.3782    0.0000 C   0  0  0  0  0  0  0  0  0  0  0  0
  -10.2020   -5.3552    0.0000 C   0  0  0  0  0  0  0  0  0  0  0  0
  -11.2355   -6.4424    0.0000 C   0  0  0  0  0  0  0  0  0  0  0  0
  -12.1537   -7.6286    0.0000 C   0  0  0  0  0  0  0  0  0  0  0  0
  -12.9471   -8.9015    0.0000 C   0  0  0  0  0  0  0  0  0  0  0  0
  -13.6077  -10.2483    0.0000 C   0  0  0  0  0  0  0  0  0  0  0  0
  -14.1287  -11.6549    0.0000 C   0  0  0  0  0  0  0  0  0  0  0  0
  -14.5046  -13.1070    0.0000 C   0  0  0  0  0  0  0  0  0  0  0  0
  -14.7318  -14.5897    0.0000 C   0  0  0  0  0  0  0  0  0  0  0  0
  -14.8077  -16.0878    0.0000 C   0  0  0  0  0  0  0  0  0  0  0  0
  -14.7318  -17.5859    0.0000 C   0  0  0  0  0  0  0  0  0  0  0  0
  -14.5046  -19.0686    0.0000 C   0  0  0  0  0  0  0  0  0  0  0  0
  -14.1287  -20.5207    0.0000 C   0  0  0  0  0  0  0  0  0  0  0  0
  -13.6077  -21.9273    0.0000 C   0  0  0  0  0  0  0  0  0  0  0  0
  -12.9471  -23.2740    0.0000 C   0  0  0  0  0  0  0  0  0  0  0  0
  -12.1537  -24.5470    0.0000 C   0  0  0  0  0  0  0  0  0  0  0  0
  -11.2355  -25.7331    0.0000 C   0  0  0  0  0  0  0  0  0  0  0  0
  -10.2020  -26.8203    0.0000 C   0  0  0  0  0  0  0  0  0  0  0  0
   -9.0639  -27.7974    0.0000 C   0  0  0  0  0  0  0  0  0  0  0  0
   -7.8328  -28.6543    0.0000 C   0  0  0  0  0  0  0  0  0  0  0  0
   -6.5212  -29.3822    0.0000 C   0  0  0  0  0  0  0  0  0  0  0  0
   -5.1428  -29.9738    0.0000 C   0  0  0  0  0  0  0  0  0  0  0  0
   -3.7116  -30.4228    0.0000 C   0  0  0  0  0  0  0  0  0  0  0  0
   -2.2423  -30.7248    0.0000 C   0  0  0  0  0  0  0  0  0  0  0  0
   -0.7500  -30.8765    0.0000 C   0  0  0  0  0  0  0  0  0  0  0  0
    0.7500  -30.8765    0.0000 C   0  0  0  0  0  0  0  0  0  0  0  0
    2.2423  -30.7248    0.0000 C   0  0  0  0  0  0  0  0  0  0  0  0
    3.7116  -30.4228    0.0000 C   0  0  0  0  0  0  0  0  0  0  0  0
    5.1428  -29.9738    0.0000 C   0  0  0  0  0  0  0  0  0  0  0  0
    6.5212  -29.3822    0.0000 C   0  0  0  0  0  0  0  0  0  0  0  0
    7.8328  -28.6543    0.0000 C   0  0  0  0  0  0  0  0  0  0  0  0
    9.0639  -27.7974    0.0000 C   0  0  0  0  0  0  0  0  0  0  0  0
   10.2020  -26.8203    0.0000 C   0  0  0  0  0  0  0  0  0  0  0  0
   11.2355  -25.7331    0.0000 C   0  0  0  0  0  0  0  0  0  0  0  0
   12.1537  -24.5470    0.0000 C   0  0  0  0  0  0  0  0  0  0  0  0
   12.9471  -23.2740    0.0000 C   0  0  0  0  0  0  0  0  0  0  0  0
   13.6077  -21.9273    0.0000 C   0  0  0  0  0  0  0  0  0  0  0  0
   14.1287  -20.5207    0.0000 C   0  0  0  0  0  0  0  0  0  0  0  0
   14.5046  -19.0686    0.0000 C   0  0  0  0  0  0  0  0  0  0  0  0
   14.7318  -17.5859    0.0000 C   0  0  0  0  0  0  0  0  0  0  0  0
   14.8077  -16.0878    0.0000 C   0  0  0  0  0  0  0  0  0  0  0  0
   14.7318  -14.5897    0.0000 C   0  0  0  0  0  0  0  0  0  0  0  0
   14.5046  -13.1070    0.0000 C   0  0  0  0  0  0  0  0  0  0  0  0
   14.1287  -11.6549    0.0000 C   0  0  0  0  0  0  0  0  0  0  0  0
   13.6077  -10.2483    0.0000 C   0  0  0  0  0  0  0  0  0  0  0  0
   12.9471   -8.9015    0.0000 C   0  0  0  0  0  0  0  0  0  0  0  0
   12.1537   -7.6286    0.0000 C   0  0  0  0  0  0  0  0  0  0  0  0
   11.2355   -6.4424    0.0000 C   0  0  0  0  0  0  0  0  0  0  0  0
   10.2020   -5.3552    0.0000 C   0  0  0  0  0  0  0  0  0  0  0  0
    9.0639   -4.3782    0.0000 C   0  0  0  0  0  0  0  0  0  0  0  0
    7.8328   -3.5213    0.0000 C   0  0  0  0  0  0  0  0  0  0  0  0
    6.5212   -2.7933    0.0000 C   0  0  0  0  0  0  0  0  0  0  0  0
    5.1428   -2.2018    0.0000 C   0  0  0  0  0  0  0  0  0  0  0  0
    3.7116   -1.7527    0.0000 C   0  0  0  0  0  0  0  0  0  0  0  0
    2.2423   -1.4508    0.0000 C   0  0  0  0  0  0  0  0  0  0  0  0
    0.7500   -1.2990    0.0000 C   0  0  0  0  0  0  0  0  0  0  0  0
    1.5000    0.0000    0.0000 C   0  0  0  0  0  0  0  0  0  0  0  0
    0.7500    1.2990    0.0000 C   0  0  0  0  0  0  0  0  0  0  0  0
   -0.7500    1.2990    0.0000 C   0  0  0  0  0  0  0  0  0  0  0  0
   -1.5000    0.0000    0.0000 C   0  0  0  0  0  0  0  0  0  0  0  0
   -0.7500   -1.2990    0.0000 C   0  0  0  0  0  0  0  0  0  0  0  0
  1  2  1  0
  2  3  1  0
  3  4  2  0
  4  5  1  0
  5  6  2  0
  6  7  1  0
  7  8  2  0
  8  9  1  0
  9 10  2  0
 10 11  1  0
 11 12  2  0
 12 13  1  0
 13 14  2  0
 14 15  1  0
 15 16  2  0
 16 17  1  0
 17 18  2  0
 18 19  1  0
 19 20  2  0
 20 21  1  0
 21 22  2  0
 22 23  1  0
 23 24  2  0
 24 25  1  0
 25 26  2  0
 26 27  1  0
 27 28  2  0
 28 29  1  0
 29 30  2  0
 30 31  1  0
 31 32  2  0
 32 33  1  0
 33 34  2  0
 34 35  1  0
 35 36  2  0
 36 37  1  0
 37 38  2  0
 38 39  1  0
 39 40  2  0
 40 41  1  0
 41 42  2  0
 42 43  1  0
 43 44  2  0
 44 45  1  0
 45 46  2  0
 46 47  1  0
 47 48  2  0
 48 49  1  0
 49 50  2  0
 50 51  1  0
 51 52  2  0
 52 53  1  0
 53 54  2  0
 54 55  1  0
 55 56  2  0
 56 57  1  0
 57 58  2  0
 58 59  1  0
 59 60  2  0
 60 61  1  0
 61 62  2  0
 62 63  1  0
 63 64  1  0
 64 65  1  0
 65 66  1  0
 66 67  2  0
 67  2  1  0
 67 62  1  0
M  END
>  <Title>  (549) 
idAATEgen10

$$$$

     RDKit          2D

 13 14  0  0  0  0  0  0  0  0999 V2000
    3.0000    0.0000    0.0000 C   0  0  0  0  0  0  0  0  0  0  0  0
    1.5000    0.0000    0.0000 N   0  0  0  0  0  0  0  0  0  0  0  0
    0.7500   -1.2990    0.0000 C   0  0  0  0  0  0  0  0  0  0  0  0
   -0.7500   -1.2990    0.0000 C   0  0  0  0  0  0  0  0  0  0  0  0
   -1.5000    0.0000    0.0000 C   0  0  0  0  0  0  0  0  0  0  0  0
   -3.0000    0.0000    0.0000 C   0  0  0  0  0  0  0  0  0  0  0  0
   -3.7500    1.2990    0.0000 C   0  0  0  0  0  0  0  0  0  0  0  0
   -5.2500    1.2990    0.0000 C   0  0  0  0  0  0  0  0  0  0  0  0
   -6.0000    0.0000    0.0000 C   0  0  0  0  0  0  0  0  0  0  0  0
   -5.2500   -1.2990    0.0000 C   0  0  0  0  0  0  0  0  0  0  0  0
   -3.7500   -1.2990    0.0000 C   0  0  0  0  0  0  0  0  0  0  0  0
   -0.7500    1.2990    0.0000 C   0  0  0  0  0  0  0  0  0  0  0  0
    0.7500    1.2990    0.0000 C   0  0  0  0  0  0  0  0  0  0  0  0
  1  2  1  0
  2  3  1  0
  3  4  1  0
  4  5  1  0
  5  6  1  0
  6  7  2  0
  7  8  1  0
  8  9  2  0
  9 10  1  0
 10 11  2  0
  5 12  1  0
 12 13  1  0
 13  2  1  0
 11  6  1  0
M  END
>  <Title>  (550) 
idAATFgen10

$$$$

     RDKit          2D

 12 12  0  0  0  0  0  0  0  0999 V2000
    9.7500   -1.2990    0.0000 C   0  0  0  0  0  0  0  0  0  0  0  0
    8.2500   -1.2990    0.0000 C   0  0  0  0  0  0  0  0  0  0  0  0
    6.7500   -1.2990    0.0000 C   0  0  0  0  0  0  0  0  0  0  0  0
    5.2500   -1.2990    0.0000 C   0  0  0  0  0  0  0  0  0  0  0  0
    3.7500   -1.2990    0.0000 C   0  0  0  0  0  0  0  0  0  0  0  0
    3.0000    0.0000    0.0000 C   0  0  0  0  0  0  0  0  0  0  0  0
    1.5000    0.0000    0.0000 C   0  0  0  0  0  0  0  0  0  0  0  0
    0.7500   -1.2990    0.0000 C   0  0  0  0  0  0  0  0  0  0  0  0
   -0.7500   -1.2990    0.0000 C   0  0  0  0  0  0  0  0  0  0  0  0
   -1.5000    0.0000    0.0000 C   0  0  0  0  0  0  0  0  0  0  0  0
   -0.7500    1.2990    0.0000 C   0  0  0  0  0  0  0  0  0  0  0  0
    0.7500    1.2990    0.0000 C   0  0  0  0  0  0  0  0  0  0  0  0
  1  2  3  0
  2  3  1  0
  3  4  3  0
  4  5  1  0
  5  6  1  0
  6  7  1  0
  7  8  2  0
  8  9  1  0
  9 10  2  0
 10 11  1  0
 11 12  2  0
 12  7  1  0
M  END
>  <Title>  (551) 
idAATGgen10

$$$$

     RDKit          2D

 79 82  0  0  0  0  0  0  0  0999 V2000
   -8.6311   -2.0939    0.0000 C   0  0  0  0  0  0  0  0  0  0  0  0
   -7.8811   -3.3929    0.0000 C   0  0  0  0  0  0  0  0  0  0  0  0
   -9.1430   -4.2039    0.0000 C   0  0  0  0  0  0  0  0  0  0  0  0
  -10.3221   -5.1311    0.0000 C   0  0  0  0  0  0  0  0  0  0  0  0
  -11.4077   -6.1662    0.0000 C   0  0  0  0  0  0  0  0  0  0  0  0
  -12.3900   -7.2999    0.0000 C   0  0  0  0  0  0  0  0  0  0  0  0
  -13.2601   -8.5217    0.0000 C   0  0  0  0  0  0  0  0  0  0  0  0
  -14.0101   -9.8208    0.0000 C   0  0  0  0  0  0  0  0  0  0  0  0
  -14.6332  -11.1852    0.0000 C   0  0  0  0  0  0  0  0  0  0  0  0
  -15.1238  -12.6027    0.0000 C   0  0  0  0  0  0  0  0  0  0  0  0
  -15.4774  -14.0604    0.0000 C   0  0  0  0  0  0  0  0  0  0  0  0
  -15.6909  -15.5452    0.0000 C   0  0  0  0  0  0  0  0  0  0  0  0
  -15.7623  -17.0435    0.0000 C   0  0  0  0  0  0  0  0  0  0  0  0
  -15.6909  -18.5418    0.0000 C   0  0  0  0  0  0  0  0  0  0  0  0
  -15.4774  -20.0265    0.0000 C   0  0  0  0  0  0  0  0  0  0  0  0
  -15.1238  -21.4842    0.0000 C   0  0  0  0  0  0  0  0  0  0  0  0
  -14.6332  -22.9017    0.0000 C   0  0  0  0  0  0  0  0  0  0  0  0
  -14.0101  -24.2662    0.0000 C   0  0  0  0  0  0  0  0  0  0  0  0
  -13.2601  -25.5652    0.0000 C   0  0  0  0  0  0  0  0  0  0  0  0
  -12.3900  -26.7871    0.0000 C   0  0  0  0  0  0  0  0  0  0  0  0
  -11.4077  -27.9207    0.0000 C   0  0  0  0  0  0  0  0  0  0  0  0
  -10.3221  -28.9558    0.0000 C   0  0  0  0  0  0  0  0  0  0  0  0
   -9.1430  -29.8831    0.0000 C   0  0  0  0  0  0  0  0  0  0  0  0
   -7.8811  -30.6940    0.0000 C   0  0  0  0  0  0  0  0  0  0  0  0
   -6.5479  -31.3814    0.0000 C   0  0  0  0  0  0  0  0  0  0  0  0
   -5.1553  -31.9389    0.0000 C   0  0  0  0  0  0  0  0  0  0  0  0
   -3.7161  -32.3615    0.0000 C   0  0  0  0  0  0  0  0  0  0  0  0
   -2.2432  -32.6453    0.0000 C   0  0  0  0  0  0  0  0  0  0  0  0
   -0.7500  -32.7879    0.0000 C   0  0  0  0  0  0  0  0  0  0  0  0
    0.7500  -32.7879    0.0000 C   0  0  0  0  0  0  0  0  0  0  0  0
    2.2432  -32.6453    0.0000 C   0  0  0  0  0  0  0  0  0  0  0  0
    3.7161  -32.3615    0.0000 C   0  0  0  0  0  0  0  0  0  0  0  0
    5.1553  -31.9389    0.0000 C   0  0  0  0  0  0  0  0  0  0  0  0
    6.5479  -31.3814    0.0000 C   0  0  0  0  0  0  0  0  0  0  0  0
    7.8811  -30.6940    0.0000 C   0  0  0  0  0  0  0  0  0  0  0  0
    9.1430  -29.8831    0.0000 C   0  0  0  0  0  0  0  0  0  0  0  0
   10.3221  -28.9558    0.0000 C   0  0  0  0  0  0  0  0  0  0  0  0
   11.4077  -27.9207    0.0000 C   0  0  0  0  0  0  0  0  0  0  0  0
   12.3900  -26.7871    0.0000 C   0  0  0  0  0  0  0  0  0  0  0  0
   13.2601  -25.5652    0.0000 C   0  0  0  0  0  0  0  0  0  0  0  0
   14.0101  -24.2662    0.0000 C   0  0  0  0  0  0  0  0  0  0  0  0
   14.6332  -22.9017    0.0000 C   0  0  0  0  0  0  0  0  0  0  0  0
   15.1238  -21.4842    0.0000 C   0  0  0  0  0  0  0  0  0  0  0  0
   15.4774  -20.0265    0.0000 C   0  0  0  0  0  0  0  0  0  0  0  0
   15.6909  -18.5418    0.0000 C   0  0  0  0  0  0  0  0  0  0  0  0
   15.7623  -17.0435    0.0000 C   0  0  0  0  0  0  0  0  0  0  0  0
   15.6909  -15.5452    0.0000 C   0  0  0  0  0  0  0  0  0  0  0  0
   15.4774  -14.0604    0.0000 C   0  0  0  0  0  0  0  0  0  0  0  0
   15.1238  -12.6027    0.0000 C   0  0  0  0  0  0  0  0  0  0  0  0
   14.6332  -11.1852    0.0000 C   0  0  0  0  0  0  0  0  0  0  0  0
   14.0101   -9.8208    0.0000 C   0  0  0  0  0  0  0  0  0  0  0  0
   13.2601   -8.5217    0.0000 C   0  0  0  0  0  0  0  0  0  0  0  0
   12.3900   -7.2999    0.0000 C   0  0  0  0  0  0  0  0  0  0  0  0
   11.4077   -6.1662    0.0000 C   0  0  0  0  0  0  0  0  0  0  0  0
   10.3221   -5.1311    0.0000 C   0  0  0  0  0  0  0  0  0  0  0  0
    9.1430   -4.2039    0.0000 C   0  0  0  0  0  0  0  0  0  0  0  0
    7.8811   -3.3929    0.0000 C   0  0  0  0  0  0  0  0  0  0  0  0
    6.5479   -2.7056    0.0000 C   0  0  0  0  0  0  0  0  0  0  0  0
    5.1553   -2.1481    0.0000 C   0  0  0  0  0  0  0  0  0  0  0  0
    3.7161   -1.7255    0.0000 C   0  0  0  0  0  0  0  0  0  0  0  0
    2.2432   -1.4416    0.0000 C   0  0  0  0  0  0  0  0  0  0  0  0
    0.7500   -1.2990    0.0000 C   0  0  0  0  0  0  0  0  0  0  0  0
    1.5000    0.0000    0.0000 C   0  0  0  0  0  0  0  0  0  0  0  0
    0.7500    1.2990    0.0000 C   0  0  0  0  0  0  0  0  0  0  0  0
   -0.7500    1.2990    0.0000 C   0  0  0  0  0  0  0  0  0  0  0  0
   -1.5000    0.0000    0.0000 C   0  0  0  0  0  0  0  0  0  0  0  0
   -0.7500   -1.2990    0.0000 C   0  0  0  0  0  0  0  0  0  0  0  0
   -2.2432   -1.4416    0.0000 C   0  0  0  0  0  0  0  0  0  0  0  0
   -1.2609   -2.5752    0.0000 C   0  0  0  0  0  0  0  0  0  0  0  0
   -1.7515   -3.9927    0.0000 C   0  0  0  0  0  0  0  0  0  0  0  0
   -3.2244   -4.2766    0.0000 C   0  0  0  0  0  0  0  0  0  0  0  0
   -4.2067   -3.1430    0.0000 C   0  0  0  0  0  0  0  0  0  0  0  0
   -3.7161   -1.7255    0.0000 C   0  0  0  0  0  0  0  0  0  0  0  0
   -5.1553   -2.1481    0.0000 C   0  0  0  0  0  0  0  0  0  0  0  0
   -4.9419   -0.6634    0.0000 C   0  0  0  0  0  0  0  0  0  0  0  0
   -6.1209    0.2639    0.0000 C   0  0  0  0  0  0  0  0  0  0  0  0
   -7.5135   -0.2936    0.0000 C   0  0  0  0  0  0  0  0  0  0  0  0
   -7.7270   -1.7784    0.0000 C   0  0  0  0  0  0  0  0  0  0  0  0
   -6.5479   -2.7056    0.0000 C   0  0  0  0  0  0  0  0  0  0  0  0
  1  2  1  0
  2  3  1  0
  3  4  1  0
  4  5  1  0
  5  6  1  0
  6  7  1  0
  7  8  1  0
  8  9  1  0
  9 10  1  0
 10 11  1  0
 11 12  1  0
 12 13  1  0
 13 14  1  0
 14 15  1  0
 15 16  1  0
 16 17  1  0
 17 18  1  0
 18 19  1  0
 19 20  1  0
 20 21  1  0
 21 22  1  0
 22 23  1  0
 23 24  1  0
 24 25  1  0
 25 26  1  0
 26 27  1  0
 27 28  1  0
 28 29  1  0
 29 30  1  0
 30 31  1  0
 31 32  1  0
 32 33  1  0
 33 34  1  0
 34 35  1  0
 35 36  1  0
 36 37  1  0
 37 38  1  0
 38 39  1  0
 39 40  1  0
 40 41  1  0
 41 42  1  0
 42 43  1  0
 43 44  1  0
 44 45  1  0
 45 46  1  0
 46 47  1  0
 47 48  1  0
 48 49  1  0
 49 50  1  0
 50 51  1  0
 51 52  1  0
 52 53  1  0
 53 54  1  0
 54 55  1  0
 55 56  1  0
 56 57  1  0
 57 58  1  0
 58 59  1  0
 59 60  1  0
 60 61  1  0
 61 62  1  0
 62 63  1  0
 63 64  1  0
 64 65  1  0
 65 66  1  0
 66 67  1  0
 67 68  1  0
 68 69  2  0
 69 70  1  0
 70 71  2  0
 71 72  1  0
 72 73  2  0
 73 74  1  0
 74 75  2  0
 75 76  1  0
 76 77  2  0
 77 78  1  0
 78 79  2  0
 79  2  1  0
 67 62  1  0
 73 68  1  0
 79 74  1  0
M  END
>  <Title>  (552) 
idAATHgen10

$$$$

     RDKit          2D

 29 33  0  0  0  0  0  0  0  0999 V2000
    3.7363    0.1499    0.0000 C   0  0  0  0  0  0  0  0  0  0  0  0
    3.3481   -1.2990    0.0000 C   0  0  0  0  0  0  0  0  0  0  0  0
    2.0490   -2.0490    0.0000 C   0  0  0  0  0  0  0  0  0  0  0  0
    0.7500   -1.2990    0.0000 C   0  0  0  0  0  0  0  0  0  0  0  0
    1.5000    0.0000    0.0000 C   0  0  0  0  0  0  0  0  0  0  0  0
    0.7500    1.2990    0.0000 C   0  0  0  0  0  0  0  0  0  0  0  0
   -0.7500    1.2990    0.0000 C   0  0  0  0  0  0  0  0  0  0  0  0
   -1.5000    0.0000    0.0000 C   0  0  0  0  0  0  0  0  0  0  0  0
   -0.7500   -1.2990    0.0000 C   0  0  0  0  0  0  0  0  0  0  0  0
   -2.0490   -2.0490    0.0000 C   0  0  0  0  0  0  0  0  0  0  0  0
   -2.7990   -0.7500    0.0000 C   0  0  0  0  0  0  0  0  0  0  0  0
   -4.2990   -0.7500    0.0000 C   0  0  0  0  0  0  0  0  0  0  0  0
   -5.0490   -2.0490    0.0000 C   0  0  0  0  0  0  0  0  0  0  0  0
   -4.2990   -3.3481    0.0000 C   0  0  0  0  0  0  0  0  0  0  0  0
   -2.7990   -3.3481    0.0000 C   0  0  0  0  0  0  0  0  0  0  0  0
   -2.7990   -4.8481    0.0000 C   0  0  0  0  0  0  0  0  0  0  0  0
   -4.2990   -4.8481    0.0000 C   0  0  0  0  0  0  0  0  0  0  0  0
   -5.0490   -6.1471    0.0000 C   0  0  0  0  0  0  0  0  0  0  0  0
   -4.2990   -7.4462    0.0000 C   0  0  0  0  0  0  0  0  0  0  0  0
   -2.7990   -7.4462    0.0000 C   0  0  0  0  0  0  0  0  0  0  0  0
   -2.0490   -6.1471    0.0000 C   0  0  0  0  0  0  0  0  0  0  0  0
   -0.7500   -6.8971    0.0000 C   0  0  0  0  0  0  0  0  0  0  0  0
   -1.1382   -8.3460    0.0000 C   0  0  0  0  0  0  0  0  0  0  0  0
    0.7500   -6.8971    0.0000 N   0  0  0  0  0  0  0  0  0  0  0  0
    2.0490   -6.1471    0.0000 N   0  0  0  0  0  0  0  0  0  0  0  0
    2.7990   -4.8481    0.0000 N   0  0  0  0  0  0  0  0  0  0  0  0
    2.7990   -3.3481    0.0000 N   0  0  0  0  0  0  0  0  0  0  0  0
    4.0981   -2.5981    0.0000 C   0  0  0  0  0  0  0  0  0  0  0  0
    5.5470   -2.9863    0.0000 O   0  0  0  0  0  0  0  0  0  0  0  0
  1  2  1  0
  2  3  2  0
  3  4  1  0
  4  5  2  0
  5  6  1  0
  6  7  2  0
  7  8  1  0
  8  9  2  0
  9 10  1  0
 10 11  2  0
 11 12  1  0
 12 13  2  0
 13 14  1  0
 14 15  2  0
 15 16  1  0
 16 17  2  0
 17 18  1  0
 18 19  2  0
 19 20  1  0
 20 21  2  0
 21 22  1  0
 22 23  1  0
 22 24  2  0
 24 25  1  0
 25 26  2  0
 26 27  1  0
 27 28  1  0
 28 29  2  0
 28  2  1  0
 27  3  1  0
  9  4  1  0
 15 10  1  0
 21 16  1  0
M  END
>  <Title>  (553) 
idAATIgen10

$$$$

     RDKit          2D

 10 10  0  0  0  0  0  0  0  0999 V2000
    5.5607   -2.5981    0.0000 C   0  0  0  0  0  0  0  0  0  0  0  0
    4.8107   -1.2990    0.0000 C   0  0  0  0  0  0  0  0  0  0  0  0
    3.3107   -1.2990    0.0000 C   0  0  0  0  0  0  0  0  0  0  0  0
    2.5607    0.0000    0.0000 C   0  0  0  0  0  0  0  0  0  0  0  0
    1.0607    0.0000    0.0000 C   0  0  0  0  0  0  0  0  0  0  0  0
   -0.0000   -1.0607    0.0000 C   0  0  0  0  0  0  0  0  0  0  0  0
   -0.0000   -2.5607    0.0000 C   0  0  0  0  0  0  0  0  0  0  0  0
   -0.0000   -4.0607    0.0000 N   0  0  0  0  0  0  0  0  0  0  0  0
   -1.0607    0.0000    0.0000 C   0  0  0  0  0  0  0  0  0  0  0  0
    0.0000    1.0607    0.0000 C   0  0  0  0  0  0  0  0  0  0  0  0
  1  2  2  0
  2  3  1  0
  3  4  2  3
  4  5  1  0
  5  6  2  0
  6  7  1  0
  7  8  3  0
  6  9  1  0
  9 10  2  0
 10  5  1  0
M  END
>  <Title>  (554) 
idAATJgen10

$$$$

     RDKit          2D

 12 12  0  0  0  0  0  0  0  0999 V2000
    4.2760    2.5981    0.0000 C   0  0  0  0  0  0  0  0  0  0  0  0
    3.5260    1.2990    0.0000 C   0  0  0  0  0  0  0  0  0  0  0  0
    2.7760    0.0000    0.0000 C   0  0  0  0  0  0  0  0  0  0  0  0
    3.5260   -1.2990    0.0000 C   0  0  0  0  0  0  0  0  0  0  0  0
    1.2760    0.0000    0.0000 C   0  0  0  0  0  0  0  0  0  0  0  0
    0.3943    1.2135    0.0000 C   0  0  0  0  0  0  0  0  0  0  0  0
   -1.0323    0.7500    0.0000 C   0  0  0  0  0  0  0  0  0  0  0  0
   -1.0323   -0.7500    0.0000 C   0  0  0  0  0  0  0  0  0  0  0  0
   -2.2458   -1.6317    0.0000 C   0  0  0  0  0  0  0  0  0  0  0  0
   -3.6161   -1.0216    0.0000 C   0  0  0  0  0  0  0  0  0  0  0  0
   -2.0890   -3.1235    0.0000 C   0  0  0  0  0  0  0  0  0  0  0  0
    0.3943   -1.2135    0.0000 C   0  0  0  0  0  0  0  0  0  0  0  0
  1  2  3  0
  2  3  1  0
  3  4  1  0
  3  5  1  0
  5  6  2  0
  6  7  1  0
  7  8  2  0
  8  9  1  0
  9 10  1  0
  9 11  1  0
  8 12  1  0
 12  5  1  0
M  END
>  <Title>  (555) 
idAATKgen10

$$$$

     RDKit          2D

 11 11  0  0  0  0  0  0  0  0999 V2000
    7.2760   -0.0000    0.0000 C   0  0  0  0  0  0  0  0  0  0  0  0
    5.7760   -0.0000    0.0000 C   0  0  0  0  0  0  0  0  0  0  0  0
    4.2760   -0.0000    0.0000 C   0  0  0  0  0  0  0  0  0  0  0  0
    2.7760    0.0000    0.0000 C   0  0  0  0  0  0  0  0  0  0  0  0
    1.2760    0.0000    0.0000 C   0  0  0  0  0  0  0  0  0  0  0  0
    0.3943    1.2135    0.0000 C   0  0  0  0  0  0  0  0  0  0  0  0
    0.8578    2.6401    0.0000 C   0  0  0  0  0  0  0  0  0  0  0  0
    1.3213    4.0667    0.0000 N   0  0  0  0  0  0  0  0  0  0  0  0
   -1.0323    0.7500    0.0000 C   0  0  0  0  0  0  0  0  0  0  0  0
   -1.0323   -0.7500    0.0000 C   0  0  0  0  0  0  0  0  0  0  0  0
    0.3943   -1.2135    0.0000 C   0  0  0  0  0  0  0  0  0  0  0  0
  1  2  3  0
  2  3  1  0
  3  4  3  0
  4  5  1  0
  5  6  2  0
  6  7  1  0
  7  8  3  0
  6  9  1  0
  9 10  2  0
 10 11  1  0
 11  5  1  0
M  END
>  <Title>  (556) 
idAATLgen10

$$$$

     RDKit          2D

 24 27  0  0  0  0  0  0  0  0999 V2000
    7.3539   -6.1558    0.0000 C   0  0  0  0  0  0  0  0  0  0  0  0
    5.9681   -5.5818    0.0000 C   0  0  0  0  0  0  0  0  0  0  0  0
    4.5823   -5.0077    0.0000 C   0  0  0  0  0  0  0  0  0  0  0  0
    3.1965   -4.4337    0.0000 C   0  0  0  0  0  0  0  0  0  0  0  0
    1.8107   -3.8597    0.0000 C   0  0  0  0  0  0  0  0  0  0  0  0
    1.8107   -2.3597    0.0000 C   0  0  0  0  0  0  0  0  0  0  0  0
    0.7500   -1.2990    0.0000 C   0  0  0  0  0  0  0  0  0  0  0  0
    1.5000    0.0000    0.0000 C   0  0  0  0  0  0  0  0  0  0  0  0
    0.7500    1.2990    0.0000 C   0  0  0  0  0  0  0  0  0  0  0  0
   -0.7500    1.2990    0.0000 C   0  0  0  0  0  0  0  0  0  0  0  0
   -1.5000    0.0000    0.0000 C   0  0  0  0  0  0  0  0  0  0  0  0
   -0.7500   -1.2990    0.0000 C   0  0  0  0  0  0  0  0  0  0  0  0
   -1.8107   -2.3597    0.0000 C   0  0  0  0  0  0  0  0  0  0  0  0
   -3.1097   -1.6097    0.0000 C   0  0  0  0  0  0  0  0  0  0  0  0
   -4.4087   -2.3597    0.0000 C   0  0  0  0  0  0  0  0  0  0  0  0
   -4.4087   -3.8597    0.0000 C   0  0  0  0  0  0  0  0  0  0  0  0
   -3.1097   -4.6097    0.0000 C   0  0  0  0  0  0  0  0  0  0  0  0
   -1.8107   -3.8597    0.0000 C   0  0  0  0  0  0  0  0  0  0  0  0
   -0.7500   -4.9204    0.0000 C   0  0  0  0  0  0  0  0  0  0  0  0
   -1.5000   -6.2194    0.0000 C   0  0  0  0  0  0  0  0  0  0  0  0
   -0.7500   -7.5184    0.0000 C   0  0  0  0  0  0  0  0  0  0  0  0
    0.7500   -7.5184    0.0000 C   0  0  0  0  0  0  0  0  0  0  0  0
    1.5000   -6.2194    0.0000 C   0  0  0  0  0  0  0  0  0  0  0  0
    0.7500   -4.9204    0.0000 C   0  0  0  0  0  0  0  0  0  0  0  0
  1  2  3  0
  2  3  1  0
  3  4  3  0
  4  5  1  0
  5  6  2  0
  6  7  1  0
  7  8  2  0
  8  9  1  0
  9 10  2  0
 10 11  1  0
 11 12  2  0
 12 13  1  0
 13 14  2  0
 14 15  1  0
 15 16  2  0
 16 17  1  0
 17 18  2  0
 18 19  1  0
 19 20  2  0
 20 21  1  0
 21 22  2  0
 22 23  1  0
 23 24  2  0
 24  5  1  0
 12  7  1  0
 18 13  1  0
 24 19  1  0
M  END
>  <Title>  (557) 
idAATMgen10

$$$$

     RDKit          2D

 14 14  0  0  0  0  0  0  0  0999 V2000
    7.5000    0.0000    0.0000 C   0  0  0  0  0  0  0  0  0  0  0  0
    6.0000    0.0000    0.0000 C   0  0  0  0  0  0  0  0  0  0  0  0
    4.5000    0.0000    0.0000 C   0  0  0  0  0  0  0  0  0  0  0  0
    3.0000    0.0000    0.0000 C   0  0  0  0  0  0  0  0  0  0  0  0
    1.5000    0.0000    0.0000 C   0  0  0  0  0  0  0  0  0  0  0  0
    0.7500   -1.2990    0.0000 C   0  0  0  0  0  0  0  0  0  0  0  0
   -0.7500   -1.2990    0.0000 C   0  0  0  0  0  0  0  0  0  0  0  0
   -1.5000   -2.5981    0.0000 C   0  0  0  0  0  0  0  0  0  0  0  0
   -1.5000    0.0000    0.0000 C   0  0  0  0  0  0  0  0  0  0  0  0
   -0.7500    1.2990    0.0000 C   0  0  0  0  0  0  0  0  0  0  0  0
    0.7500    1.2990    0.0000 C   0  0  0  0  0  0  0  0  0  0  0  0
    1.5000    2.5981    0.0000 C   0  0  0  0  0  0  0  0  0  0  0  0
    0.7500    3.8971    0.0000 C   0  0  0  0  0  0  0  0  0  0  0  0
    3.0000    2.5981    0.0000 O   0  0  0  0  0  0  0  0  0  0  0  0
  1  2  3  0
  2  3  1  0
  3  4  3  0
  4  5  1  0
  5  6  2  0
  6  7  1  0
  7  8  1  0
  7  9  2  0
  9 10  1  0
 10 11  2  0
 11 12  1  0
 12 13  1  0
 12 14  2  0
 11  5  1  0
M  END
>  <Title>  (558) 
idAATNgen10

$$$$

     RDKit          2D

  6  5  0  0  0  0  0  0  0  0999 V2000
    0.0000    0.0000    0.0000 C   0  0  0  0  0  0  0  0  0  0  0  0
    1.2990    0.7500    0.0000 C   0  0  0  0  0  0  0  0  0  0  0  0
    2.5981   -0.0000    0.0000 C   0  0  0  0  0  0  0  0  0  0  0  0
    3.8971    0.7500    0.0000 C   0  0  0  0  0  0  0  0  0  0  0  0
    2.5981   -1.5000    0.0000 C   0  0  0  0  0  0  0  0  0  0  0  0
    3.8971   -2.2500    0.0000 C   0  0  0  0  0  0  0  0  0  0  0  0
  1  2  2  0
  2  3  1  0
  3  4  1  0
  3  5  2  3
  5  6  1  0
M  END
>  <Title>  (559) 
idAATOgen10

$$$$

     RDKit          2D

  9  9  0  0  0  0  0  0  0  0999 V2000
    4.2760    2.5981    0.0000 C   0  0  0  0  0  0  0  0  0  0  0  0
    3.5260    1.2990    0.0000 C   0  0  0  0  0  0  0  0  0  0  0  0
    2.7760    0.0000    0.0000 C   0  0  0  0  0  0  0  0  0  0  0  0
    3.5260   -1.2990    0.0000 C   0  0  0  0  0  0  0  0  0  0  0  0
    1.2760    0.0000    0.0000 C   0  0  0  0  0  0  0  0  0  0  0  0
    0.3943    1.2135    0.0000 C   0  0  0  0  0  0  0  0  0  0  0  0
   -1.0323    0.7500    0.0000 C   0  0  0  0  0  0  0  0  0  0  0  0
   -1.0323   -0.7500    0.0000 C   0  0  0  0  0  0  0  0  0  0  0  0
    0.3943   -1.2135    0.0000 C   0  0  0  0  0  0  0  0  0  0  0  0
  1  2  3  0
  2  3  1  0
  3  4  2  0
  3  5  1  0
  5  6  2  0
  6  7  1  0
  7  8  2  0
  8  9  1  0
  9  5  1  0
M  END
>  <Title>  (560) 
idAATPgen10

$$$$

     RDKit          2D

 10 10  0  0  0  0  0  0  0  0999 V2000
    7.2760   -0.0000    0.0000 C   0  0  0  0  0  0  0  0  0  0  0  0
    5.7760   -0.0000    0.0000 C   0  0  0  0  0  0  0  0  0  0  0  0
    4.2760   -0.0000    0.0000 C   0  0  0  0  0  0  0  0  0  0  0  0
    2.7760    0.0000    0.0000 C   0  0  0  0  0  0  0  0  0  0  0  0
    1.2760    0.0000    0.0000 C   0  0  0  0  0  0  0  0  0  0  0  0
    0.3943    1.2135    0.0000 C   0  0  0  0  0  0  0  0  0  0  0  0
   -1.0323    0.7500    0.0000 C   0  0  0  0  0  0  0  0  0  0  0  0
   -1.0323   -0.7500    0.0000 C   0  0  0  0  0  0  0  0  0  0  0  0
   -2.2458   -1.6317    0.0000 C   0  0  0  0  0  0  0  0  0  0  0  0
    0.3943   -1.2135    0.0000 N   0  0  0  0  0  0  0  0  0  0  0  0
  1  2  3  0
  2  3  1  0
  3  4  3  0
  4  5  1  0
  5  6  2  0
  6  7  1  0
  7  8  2  0
  8  9  1  0
  8 10  1  0
 10  5  1  0
M  END
>  <Title>  (561) 
idAATQgen10

$$$$

     RDKit          2D

 10 10  0  0  0  0  0  0  0  0999 V2000
    4.5000   -2.5981    0.0000 N   0  0  0  0  0  0  0  0  0  0  0  0
    3.7500   -1.2990    0.0000 C   0  0  0  0  0  0  0  0  0  0  0  0
    3.0000    0.0000    0.0000 C   0  0  0  0  0  0  0  0  0  0  0  0
    3.7500    1.2990    0.0000 O   0  0  0  0  0  0  0  0  0  0  0  0
    1.5000    0.0000    0.0000 C   0  0  0  0  0  0  0  0  0  0  0  0
    0.7500   -1.2990    0.0000 C   0  0  0  0  0  0  0  0  0  0  0  0
   -0.7500   -1.2990    0.0000 C   0  0  0  0  0  0  0  0  0  0  0  0
   -1.5000    0.0000    0.0000 C   0  0  0  0  0  0  0  0  0  0  0  0
   -0.7500    1.2990    0.0000 C   0  0  0  0  0  0  0  0  0  0  0  0
    0.7500    1.2990    0.0000 C   0  0  0  0  0  0  0  0  0  0  0  0
  1  2  3  0
  2  3  1  0
  3  4  2  0
  3  5  1  0
  5  6  2  0
  6  7  1  0
  7  8  2  0
  8  9  1  0
  9 10  2  0
 10  5  1  0
M  END
>  <Title>  (562) 
idAATRgen10

$$$$

     RDKit          2D

 10 10  0  0  0  0  0  0  0  0999 V2000
    6.0000   -2.5981    0.0000 C   0  0  0  0  0  0  0  0  0  0  0  0
    5.2500   -1.2990    0.0000 C   0  0  0  0  0  0  0  0  0  0  0  0
    3.7500   -1.2990    0.0000 C   0  0  0  0  0  0  0  0  0  0  0  0
    3.0000    0.0000    0.0000 O   0  0  0  0  0  0  0  0  0  0  0  0
    1.5000    0.0000    0.0000 C   0  0  0  0  0  0  0  0  0  0  0  0
    0.7500   -1.2990    0.0000 C   0  0  0  0  0  0  0  0  0  0  0  0
   -0.7500   -1.2990    0.0000 C   0  0  0  0  0  0  0  0  0  0  0  0
   -1.5000    0.0000    0.0000 C   0  0  0  0  0  0  0  0  0  0  0  0
   -0.7500    1.2990    0.0000 C   0  0  0  0  0  0  0  0  0  0  0  0
    0.7500    1.2990    0.0000 C   0  0  0  0  0  0  0  0  0  0  0  0
  1  2  2  0
  2  3  1  0
  3  4  1  0
  4  5  1  0
  5  6  2  0
  6  7  1  0
  7  8  2  0
  8  9  1  0
  9 10  2  0
 10  5  1  0
M  END
>  <Title>  (563) 
idAATSgen10

$$$$

     RDKit          2D

 11 11  0  0  0  0  0  0  0  0999 V2000
    7.2760   -0.0000    0.0000 C   0  0  0  0  0  0  0  0  0  0  0  0
    5.7760   -0.0000    0.0000 C   0  0  0  0  0  0  0  0  0  0  0  0
    4.2760   -0.0000    0.0000 C   0  0  0  0  0  0  0  0  0  0  0  0
    2.7760    0.0000    0.0000 C   0  0  0  0  0  0  0  0  0  0  0  0
    1.2760    0.0000    0.0000 C   0  0  0  0  0  0  0  0  0  0  0  0
    0.3943    1.2135    0.0000 C   0  0  0  0  0  0  0  0  0  0  0  0
   -1.0323    0.7500    0.0000 C   0  0  0  0  0  0  0  0  0  0  0  0
   -2.2458    1.6317    0.0000 C   0  0  0  0  0  0  0  0  0  0  0  0
   -1.0323   -0.7500    0.0000 C   0  0  0  0  0  0  0  0  0  0  0  0
   -2.2458   -1.6317    0.0000 C   0  0  0  0  0  0  0  0  0  0  0  0
    0.3943   -1.2135    0.0000 N   0  0  0  0  0  0  0  0  0  0  0  0
  1  2  3  0
  2  3  1  0
  3  4  3  0
  4  5  1  0
  5  6  2  0
  6  7  1  0
  7  8  1  0
  7  9  2  0
  9 10  1  0
  9 11  1  0
 11  5  1  0
M  END
>  <Title>  (564) 
idAATTgen10

$$$$

     RDKit          2D

 11 11  0  0  0  0  0  0  0  0999 V2000
    4.5000   -2.5981    0.0000 C   0  0  0  0  0  0  0  0  0  0  0  0
    3.7500   -1.2990    0.0000 C   0  0  0  0  0  0  0  0  0  0  0  0
    3.0000    0.0000    0.0000 C   0  0  0  0  0  0  0  0  0  0  0  0
    3.7500    1.2990    0.0000 O   0  0  0  0  0  0  0  0  0  0  0  0
    1.5000    0.0000    0.0000 C   0  0  0  0  0  0  0  0  0  0  0  0
    0.7500   -1.2990    0.0000 C   0  0  0  0  0  0  0  0  0  0  0  0
   -0.7500   -1.2990    0.0000 C   0  0  0  0  0  0  0  0  0  0  0  0
   -1.5000    0.0000    0.0000 C   0  0  0  0  0  0  0  0  0  0  0  0
   -0.7500    1.2990    0.0000 C   0  0  0  0  0  0  0  0  0  0  0  0
    0.7500    1.2990    0.0000 C   0  0  0  0  0  0  0  0  0  0  0  0
    1.5000    2.5981    0.0000 C   0  0  0  0  0  0  0  0  0  0  0  0
  1  2  3  0
  2  3  1  0
  3  4  2  0
  3  5  1  0
  5  6  2  0
  6  7  1  0
  7  8  2  0
  8  9  1  0
  9 10  2  0
 10 11  1  0
 10  5  1  0
M  END
>  <Title>  (565) 
idAATUgen10

$$$$

     RDKit          2D

 15 16  0  0  0  0  0  0  0  0999 V2000
   -6.7500   -3.8971    0.0000 C   0  0  0  0  0  0  0  0  0  0  0  0
   -5.2500   -3.8971    0.0000 C   0  0  0  0  0  0  0  0  0  0  0  0
   -3.7500   -3.8971    0.0000 C   0  0  0  0  0  0  0  0  0  0  0  0
   -3.0000   -5.1962    0.0000 O   0  0  0  0  0  0  0  0  0  0  0  0
   -3.0000   -2.5981    0.0000 N   0  0  0  0  0  0  0  0  0  0  0  0
   -1.5000   -2.5981    0.0000 C   0  0  0  0  0  0  0  0  0  0  0  0
   -0.7500   -3.8971    0.0000 N   0  0  0  0  0  0  0  0  0  0  0  0
    0.7500   -3.8971    0.0000 N   0  0  0  0  0  0  0  0  0  0  0  0
    1.5000   -2.5981    0.0000 N   0  0  0  0  0  0  0  0  0  0  0  0
    0.7500   -1.2990    0.0000 N   0  0  0  0  0  0  0  0  0  0  0  0
    1.5000    0.0000    0.0000 C   0  0  0  0  0  0  0  0  0  0  0  0
    0.7500    1.2990    0.0000 C   0  0  0  0  0  0  0  0  0  0  0  0
   -0.7500    1.2990    0.0000 C   0  0  0  0  0  0  0  0  0  0  0  0
   -1.5000    0.0000    0.0000 C   0  0  0  0  0  0  0  0  0  0  0  0
   -0.7500   -1.2990    0.0000 C   0  0  0  0  0  0  0  0  0  0  0  0
  1  2  3  0
  2  3  1  0
  3  4  2  0
  3  5  1  0
  5  6  1  0
  6  7  2  0
  7  8  1  0
  8  9  2  0
  9 10  1  0
 10 11  1  0
 11 12  1  0
 12 13  2  0
 13 14  1  0
 14 15  2  0
 15  6  1  0
 15 10  1  0
M  END
>  <Title>  (566) 
idAATVgen10

$$$$

     RDKit          2D

 44 44  0  0  0  0  0  0  0  0999 V2000
   13.0361    0.0000    0.0000 C   0  0  0  0  0  0  0  0  0  0  0  0
   11.5361    0.0000    0.0000 C   0  0  0  0  0  0  0  0  0  0  0  0
   10.0361    0.0000    0.0000 C   0  0  0  0  0  0  0  0  0  0  0  0
    9.9240   -1.4958    0.0000 C   0  0  0  0  0  0  0  0  0  0  0  0
    9.5902   -2.9582    0.0000 C   0  0  0  0  0  0  0  0  0  0  0  0
    9.0422   -4.3545    0.0000 C   0  0  0  0  0  0  0  0  0  0  0  0
    8.2922   -5.6535    0.0000 C   0  0  0  0  0  0  0  0  0  0  0  0
    7.3570   -6.8263    0.0000 C   0  0  0  0  0  0  0  0  0  0  0  0
    6.2574   -7.8466    0.0000 C   0  0  0  0  0  0  0  0  0  0  0  0
    5.0181   -8.6915    0.0000 C   0  0  0  0  0  0  0  0  0  0  0  0
    3.6666   -9.3424    0.0000 C   0  0  0  0  0  0  0  0  0  0  0  0
    2.2332   -9.7845    0.0000 C   0  0  0  0  0  0  0  0  0  0  0  0
    0.7500  -10.0081    0.0000 C   0  0  0  0  0  0  0  0  0  0  0  0
   -0.7500  -10.0081    0.0000 C   0  0  0  0  0  0  0  0  0  0  0  0
   -2.2332   -9.7845    0.0000 C   0  0  0  0  0  0  0  0  0  0  0  0
   -3.6666   -9.3424    0.0000 C   0  0  0  0  0  0  0  0  0  0  0  0
   -5.0181   -8.6915    0.0000 C   0  0  0  0  0  0  0  0  0  0  0  0
   -6.2574   -7.8466    0.0000 C   0  0  0  0  0  0  0  0  0  0  0  0
   -7.3570   -6.8263    0.0000 C   0  0  0  0  0  0  0  0  0  0  0  0
   -8.2922   -5.6535    0.0000 C   0  0  0  0  0  0  0  0  0  0  0  0
   -9.0422   -4.3545    0.0000 C   0  0  0  0  0  0  0  0  0  0  0  0
   -9.5902   -2.9582    0.0000 C   0  0  0  0  0  0  0  0  0  0  0  0
   -9.9240   -1.4958    0.0000 C   0  0  0  0  0  0  0  0  0  0  0  0
  -10.0361    0.0000    0.0000 C   0  0  0  0  0  0  0  0  0  0  0  0
   -9.9240    1.4958    0.0000 C   0  0  0  0  0  0  0  0  0  0  0  0
   -9.5902    2.9582    0.0000 C   0  0  0  0  0  0  0  0  0  0  0  0
   -9.0422    4.3545    0.0000 C   0  0  0  0  0  0  0  0  0  0  0  0
   -8.2922    5.6535    0.0000 C   0  0  0  0  0  0  0  0  0  0  0  0
   -7.3570    6.8263    0.0000 C   0  0  0  0  0  0  0  0  0  0  0  0
   -6.2574    7.8466    0.0000 C   0  0  0  0  0  0  0  0  0  0  0  0
   -5.0181    8.6915    0.0000 C   0  0  0  0  0  0  0  0  0  0  0  0
   -3.6666    9.3424    0.0000 C   0  0  0  0  0  0  0  0  0  0  0  0
   -2.2332    9.7845    0.0000 C   0  0  0  0  0  0  0  0  0  0  0  0
   -0.7500   10.0081    0.0000 C   0  0  0  0  0  0  0  0  0  0  0  0
    0.7500   10.0081    0.0000 C   0  0  0  0  0  0  0  0  0  0  0  0
    2.2332    9.7845    0.0000 C   0  0  0  0  0  0  0  0  0  0  0  0
    3.6666    9.3424    0.0000 C   0  0  0  0  0  0  0  0  0  0  0  0
    5.0181    8.6915    0.0000 C   0  0  0  0  0  0  0  0  0  0  0  0
    6.2574    7.8466    0.0000 C   0  0  0  0  0  0  0  0  0  0  0  0
    7.3570    6.8263    0.0000 C   0  0  0  0  0  0  0  0  0  0  0  0
    8.2922    5.6535    0.0000 C   0  0  0  0  0  0  0  0  0  0  0  0
    9.0422    4.3545    0.0000 C   0  0  0  0  0  0  0  0  0  0  0  0
    9.5902    2.9582    0.0000 C   0  0  0  0  0  0  0  0  0  0  0  0
    9.9240    1.4958    0.0000 C   0  0  0  0  0  0  0  0  0  0  0  0
  1  2  3  0
  2  3  1  0
  3  4  1  0
  4  5  1  0
  5  6  1  0
  6  7  1  0
  7  8  1  0
  8  9  1  0
  9 10  1  0
 10 11  1  0
 11 12  1  0
 12 13  1  0
 13 14  1  0
 14 15  1  0
 15 16  1  0
 16 17  1  0
 17 18  1  0
 18 19  1  0
 19 20  1  0
 20 21  1  0
 21 22  1  0
 22 23  1  0
 23 24  1  0
 24 25  1  0
 25 26  1  0
 26 27  1  0
 27 28  1  0
 28 29  1  0
 29 30  1  0
 30 31  1  0
 31 32  1  0
 32 33  1  0
 33 34  1  0
 34 35  1  0
 35 36  1  0
 36 37  1  0
 37 38  1  0
 38 39  1  0
 39 40  1  0
 40 41  1  0
 41 42  1  0
 42 43  1  0
 43 44  1  0
 44  3  1  0
M  END
>  <Title>  (567) 
idAATWgen10

$$$$

     RDKit          2D

 21 22  0  0  0  0  0  0  0  0999 V2000
    5.5816    0.0000    0.0000 C   0  0  0  0  0  0  0  0  0  0  0  0
    4.0816    0.0000    0.0000 C   0  0  0  0  0  0  0  0  0  0  0  0
    3.8060    1.4745    0.0000 C   0  0  0  0  0  0  0  0  0  0  0  0
    3.0164    2.7498    0.0000 C   0  0  0  0  0  0  0  0  0  0  0  0
    1.8193    3.6537    0.0000 C   0  0  0  0  0  0  0  0  0  0  0  0
    0.3766    4.0642    0.0000 C   0  0  0  0  0  0  0  0  0  0  0  0
   -1.1170    3.9258    0.0000 C   0  0  0  0  0  0  0  0  0  0  0  0
   -2.4597    3.2572    0.0000 C   0  0  0  0  0  0  0  0  0  0  0  0
   -3.4703    2.1487    0.0000 C   0  0  0  0  0  0  0  0  0  0  0  0
   -4.0121    0.7500    0.0000 C   0  0  0  0  0  0  0  0  0  0  0  0
   -4.0121   -0.7500    0.0000 C   0  0  0  0  0  0  0  0  0  0  0  0
   -3.4703   -2.1487    0.0000 C   0  0  0  0  0  0  0  0  0  0  0  0
   -4.5788   -3.1593    0.0000 C   0  0  0  0  0  0  0  0  0  0  0  0
   -6.0772   -3.0900    0.0000 O   0  0  0  0  0  0  0  0  0  0  0  0
   -3.5683   -4.2678    0.0000 N   0  0  0  0  0  0  0  0  0  0  0  0
   -2.4597   -3.2572    0.0000 C   0  0  0  0  0  0  0  0  0  0  0  0
   -1.1170   -3.9258    0.0000 N   0  0  0  0  0  0  0  0  0  0  0  0
    0.3766   -4.0642    0.0000 N   0  0  0  0  0  0  0  0  0  0  0  0
    1.8193   -3.6537    0.0000 N   0  0  0  0  0  0  0  0  0  0  0  0
    3.0164   -2.7498    0.0000 N   0  0  0  0  0  0  0  0  0  0  0  0
    3.8060   -1.4745    0.0000 N   0  0  0  0  0  0  0  0  0  0  0  0
  1  2  1  0
  2  3  1  0
  3  4  1  0
  4  5  1  0
  5  6  2  0
  6  7  1  0
  7  8  2  0
  8  9  1  0
  9 10  2  0
 10 11  1  0
 11 12  2  0
 12 13  1  0
 13 14  2  0
 13 15  1  0
 15 16  1  0
 16 17  2  0
 17 18  1  0
 18 19  2  0
 19 20  1  0
 20 21  2  0
 21  2  1  0
 16 12  1  0
M  END
>  <Title>  (568) 
idAATXgen10

$$$$

     RDKit          2D

 61 61  0  0  0  0  0  0  0  0999 V2000
   16.8533   -0.0000    0.0000 C   0  0  0  0  0  0  0  0  0  0  0  0
   15.3533    0.0000    0.0000 C   0  0  0  0  0  0  0  0  0  0  0  0
   13.8533    0.0000    0.0000 C   0  0  0  0  0  0  0  0  0  0  0  0
   13.7720   -1.4978    0.0000 C   0  0  0  0  0  0  0  0  0  0  0  0
   13.5294   -2.9780    0.0000 C   0  0  0  0  0  0  0  0  0  0  0  0
   13.1281   -4.4234    0.0000 C   0  0  0  0  0  0  0  0  0  0  0  0
   12.5729   -5.8168    0.0000 C   0  0  0  0  0  0  0  0  0  0  0  0
   11.8703   -7.1421    0.0000 C   0  0  0  0  0  0  0  0  0  0  0  0
   11.0285   -8.3836    0.0000 C   0  0  0  0  0  0  0  0  0  0  0  0
   10.0574   -9.5269    0.0000 C   0  0  0  0  0  0  0  0  0  0  0  0
    8.9684  -10.5584    0.0000 C   0  0  0  0  0  0  0  0  0  0  0  0
    7.7743  -11.4662    0.0000 C   0  0  0  0  0  0  0  0  0  0  0  0
    6.4890  -12.2395    0.0000 C   0  0  0  0  0  0  0  0  0  0  0  0
    5.1276  -12.8693    0.0000 C   0  0  0  0  0  0  0  0  0  0  0  0
    3.7061  -13.3483    0.0000 C   0  0  0  0  0  0  0  0  0  0  0  0
    2.2412  -13.6708    0.0000 C   0  0  0  0  0  0  0  0  0  0  0  0
    0.7500  -13.8329    0.0000 C   0  0  0  0  0  0  0  0  0  0  0  0
   -0.7500  -13.8329    0.0000 C   0  0  0  0  0  0  0  0  0  0  0  0
   -2.2412  -13.6708    0.0000 C   0  0  0  0  0  0  0  0  0  0  0  0
   -3.7061  -13.3483    0.0000 C   0  0  0  0  0  0  0  0  0  0  0  0
   -5.1276  -12.8693    0.0000 C   0  0  0  0  0  0  0  0  0  0  0  0
   -6.4890  -12.2395    0.0000 C   0  0  0  0  0  0  0  0  0  0  0  0
   -7.7743  -11.4662    0.0000 C   0  0  0  0  0  0  0  0  0  0  0  0
   -8.9684  -10.5584    0.0000 C   0  0  0  0  0  0  0  0  0  0  0  0
  -10.0574   -9.5269    0.0000 C   0  0  0  0  0  0  0  0  0  0  0  0
  -11.0285   -8.3836    0.0000 C   0  0  0  0  0  0  0  0  0  0  0  0
  -11.8703   -7.1421    0.0000 C   0  0  0  0  0  0  0  0  0  0  0  0
  -12.5729   -5.8168    0.0000 C   0  0  0  0  0  0  0  0  0  0  0  0
  -13.1281   -4.4234    0.0000 C   0  0  0  0  0  0  0  0  0  0  0  0
  -13.5294   -2.9780    0.0000 C   0  0  0  0  0  0  0  0  0  0  0  0
  -13.7720   -1.4978    0.0000 C   0  0  0  0  0  0  0  0  0  0  0  0
  -13.8533    0.0000    0.0000 C   0  0  0  0  0  0  0  0  0  0  0  0
  -13.7720    1.4978    0.0000 C   0  0  0  0  0  0  0  0  0  0  0  0
  -13.5294    2.9780    0.0000 C   0  0  0  0  0  0  0  0  0  0  0  0
  -13.1281    4.4234    0.0000 C   0  0  0  0  0  0  0  0  0  0  0  0
  -12.5729    5.8168    0.0000 C   0  0  0  0  0  0  0  0  0  0  0  0
  -11.8703    7.1421    0.0000 C   0  0  0  0  0  0  0  0  0  0  0  0
  -11.0285    8.3836    0.0000 C   0  0  0  0  0  0  0  0  0  0  0  0
  -10.0574    9.5269    0.0000 C   0  0  0  0  0  0  0  0  0  0  0  0
   -8.9684   10.5584    0.0000 C   0  0  0  0  0  0  0  0  0  0  0  0
   -7.7743   11.4662    0.0000 C   0  0  0  0  0  0  0  0  0  0  0  0
   -6.4890   12.2395    0.0000 C   0  0  0  0  0  0  0  0  0  0  0  0
   -5.1276   12.8693    0.0000 C   0  0  0  0  0  0  0  0  0  0  0  0
   -3.7061   13.3483    0.0000 C   0  0  0  0  0  0  0  0  0  0  0  0
   -2.2412   13.6708    0.0000 C   0  0  0  0  0  0  0  0  0  0  0  0
   -0.7500   13.8329    0.0000 C   0  0  0  0  0  0  0  0  0  0  0  0
    0.7500   13.8329    0.0000 C   0  0  0  0  0  0  0  0  0  0  0  0
    2.2412   13.6708    0.0000 C   0  0  0  0  0  0  0  0  0  0  0  0
    3.7061   13.3483    0.0000 C   0  0  0  0  0  0  0  0  0  0  0  0
    5.1276   12.8693    0.0000 C   0  0  0  0  0  0  0  0  0  0  0  0
    6.4890   12.2395    0.0000 C   0  0  0  0  0  0  0  0  0  0  0  0
    7.7743   11.4662    0.0000 C   0  0  0  0  0  0  0  0  0  0  0  0
    8.9684   10.5584    0.0000 C   0  0  0  0  0  0  0  0  0  0  0  0
   10.0574    9.5269    0.0000 C   0  0  0  0  0  0  0  0  0  0  0  0
   11.0285    8.3836    0.0000 C   0  0  0  0  0  0  0  0  0  0  0  0
   11.8703    7.1421    0.0000 C   0  0  0  0  0  0  0  0  0  0  0  0
   12.5729    5.8168    0.0000 C   0  0  0  0  0  0  0  0  0  0  0  0
   13.1281    4.4234    0.0000 C   0  0  0  0  0  0  0  0  0  0  0  0
   13.5294    2.9780    0.0000 C   0  0  0  0  0  0  0  0  0  0  0  0
   13.7720    1.4978    0.0000 C   0  0  0  0  0  0  0  0  0  0  0  0
   15.2633    1.6600    0.0000 C   0  0  0  0  0  0  0  0  0  0  0  0
  1  2  3  0
  2  3  1  0
  3  4  1  0
  4  5  1  0
  5  6  1  0
  6  7  1  0
  7  8  1  0
  8  9  1  0
  9 10  1  0
 10 11  1  0
 11 12  1  0
 12 13  1  0
 13 14  1  0
 14 15  1  0
 15 16  1  0
 16 17  1  0
 17 18  1  0
 18 19  1  0
 19 20  1  0
 20 21  1  0
 21 22  1  0
 22 23  1  0
 23 24  1  0
 24 25  1  0
 25 26  1  0
 26 27  1  0
 27 28  1  0
 28 29  1  0
 29 30  1  0
 30 31  1  0
 31 32  1  0
 32 33  1  0
 33 34  1  0
 34 35  1  0
 35 36  1  0
 36 37  1  0
 37 38  1  0
 38 39  1  0
 39 40  1  0
 40 41  1  0
 41 42  1  0
 42 43  1  0
 43 44  1  0
 44 45  1  0
 45 46  1  0
 46 47  1  0
 47 48  1  0
 48 49  1  0
 49 50  1  0
 50 51  1  0
 51 52  1  0
 52 53  1  0
 53 54  2  0
 54 55  1  0
 55 56  2  0
 56 57  1  0
 57 58  2  0
 58 59  1  0
 59 60  2  0
 60 61  1  0
 60  3  1  0
M  END
>  <Title>  (569) 
idAATYgen10

$$$$

     RDKit          2D

  9  9  0  0  0  0  0  0  0  0999 V2000
    4.2760   -0.0000    0.0000 C   0  0  0  0  0  0  0  0  0  0  0  0
    2.7760    0.0000    0.0000 C   0  0  0  0  0  0  0  0  0  0  0  0
    1.2760    0.0000    0.0000 C   0  0  0  0  0  0  0  0  0  0  0  0
    0.3943    1.2135    0.0000 C   0  0  0  0  0  0  0  0  0  0  0  0
   -1.0323    0.7500    0.0000 C   0  0  0  0  0  0  0  0  0  0  0  0
   -2.2458    1.6317    0.0000 C   0  0  0  0  0  0  0  0  0  0  0  0
   -1.0323   -0.7500    0.0000 C   0  0  0  0  0  0  0  0  0  0  0  0
   -2.2458   -1.6317    0.0000 C   0  0  0  0  0  0  0  0  0  0  0  0
    0.3943   -1.2135    0.0000 C   0  0  0  0  0  0  0  0  0  0  0  0
  1  2  3  0
  2  3  1  0
  3  4  2  0
  4  5  1  0
  5  6  1  0
  5  7  1  0
  7  8  1  0
  7  9  2  0
  9  3  1  0
M  END
>  <Title>  (570) 
idAATZgen10

$$$$

     RDKit          2D

 20 22  0  0  0  0  0  0  0  0999 V2000
   -3.0000   -2.5981    0.0000 C   0  0  0  0  0  0  0  0  0  0  0  0
   -1.5000   -2.5981    0.0000 C   0  0  0  0  0  0  0  0  0  0  0  0
   -0.7500   -3.8971    0.0000 C   0  0  0  0  0  0  0  0  0  0  0  0
    0.7500   -3.8971    0.0000 C   0  0  0  0  0  0  0  0  0  0  0  0
    1.5000   -2.5981    0.0000 C   0  0  0  0  0  0  0  0  0  0  0  0
    3.0000   -2.5981    0.0000 C   0  0  0  0  0  0  0  0  0  0  0  0
    3.7500   -1.2990    0.0000 O   0  0  0  0  0  0  0  0  0  0  0  0
    3.7500   -3.8971    0.0000 N   0  0  0  0  0  0  0  0  0  0  0  0
    5.2500   -3.8971    0.0000 C   0  0  0  0  0  0  0  0  0  0  0  0
    6.1317   -2.6836    0.0000 N   0  0  0  0  0  0  0  0  0  0  0  0
    7.5583   -3.1471    0.0000 N   0  0  0  0  0  0  0  0  0  0  0  0
    7.5583   -4.6471    0.0000 N   0  0  0  0  0  0  0  0  0  0  0  0
    6.1317   -5.1106    0.0000 N   0  0  0  0  0  0  0  0  0  0  0  0
    5.6682   -6.5372    0.0000 C   0  0  0  0  0  0  0  0  0  0  0  0
    0.7500   -1.2990    0.0000 C   0  0  0  0  0  0  0  0  0  0  0  0
    1.5000    0.0000    0.0000 C   0  0  0  0  0  0  0  0  0  0  0  0
    0.7500    1.2990    0.0000 C   0  0  0  0  0  0  0  0  0  0  0  0
   -0.7500    1.2990    0.0000 C   0  0  0  0  0  0  0  0  0  0  0  0
   -1.5000    0.0000    0.0000 C   0  0  0  0  0  0  0  0  0  0  0  0
   -0.7500   -1.2990    0.0000 C   0  0  0  0  0  0  0  0  0  0  0  0
  1  2  1  0
  2  3  1  0
  3  4  1  0
  4  5  1  0
  5  6  1  0
  6  7  2  0
  6  8  1  0
  8  9  1  0
  9 10  2  0
 10 11  1  0
 11 12  2  0
 12 13  1  0
 13 14  1  0
  5 15  1  0
 15 16  2  0
 16 17  1  0
 17 18  2  0
 18 19  1  0
 19 20  2  0
 20  2  1  0
 13  9  1  0
 20 15  1  0
M  END
>  <Title>  (571) 
idAAUAgen10

$$$$

     RDKit          2D

  5  4  0  0  0  0  0  0  0  0999 V2000
    0.0000    0.0000    0.0000 C   0  0  0  0  0  0  0  0  0  0  0  0
    1.2990    0.7500    0.0000 C   0  0  0  0  0  0  0  0  0  0  0  0
    2.5981    1.5000    0.0000 C   0  0  0  0  0  0  0  0  0  0  0  0
    3.8971    2.2500    0.0000 N   0  0  0  0  0  0  0  0  0  0  0  0
    5.1962    1.5000    0.0000 C   0  0  0  0  0  0  0  0  0  0  0  0
  1  2  1  0
  2  3  3  0
  3  4  1  0
  4  5  1  0
M  END
>  <Title>  (572) 
idAAUBgen10

$$$$

     RDKit          2D

 10 10  0  0  0  0  0  0  0  0999 V2000
    6.3107   -1.2990    0.0000 C   0  0  0  0  0  0  0  0  0  0  0  0
    4.8107   -1.2990    0.0000 C   0  0  0  0  0  0  0  0  0  0  0  0
    3.3107   -1.2990    0.0000 C   0  0  0  0  0  0  0  0  0  0  0  0
    2.5607   -2.5981    0.0000 O   0  0  0  0  0  0  0  0  0  0  0  0
    2.5607    0.0000    0.0000 O   0  0  0  0  0  0  0  0  0  0  0  0
    1.0607    0.0000    0.0000 C   0  0  0  0  0  0  0  0  0  0  0  0
   -0.0000   -1.0607    0.0000 C   0  0  0  0  0  0  0  0  0  0  0  0
   -1.0607    0.0000    0.0000 C   0  0  0  0  0  0  0  0  0  0  0  0
   -2.5607    0.0000    0.0000 C   0  0  0  0  0  0  0  0  0  0  0  0
    0.0000    1.0607    0.0000 C   0  0  0  0  0  0  0  0  0  0  0  0
  1  2  3  0
  2  3  1  0
  3  4  2  0
  3  5  1  0
  5  6  1  0
  6  7  2  0
  7  8  1  0
  8  9  1  0
  8 10  1  0
 10  6  1  0
M  END
>  <Title>  (573) 
idAAUCgen10

$$$$

     RDKit          2D

  8  8  0  0  0  0  0  0  0  0999 V2000
    3.2286   -0.0000    0.0000 C   0  0  0  0  0  0  0  0  0  0  0  0
    1.7286    0.0000    0.0000 C   0  0  0  0  0  0  0  0  0  0  0  0
    1.0777    1.3515    0.0000 C   0  0  0  0  0  0  0  0  0  0  0  0
   -0.3846    1.6852    0.0000 C   0  0  0  0  0  0  0  0  0  0  0  0
   -1.5574    0.7500    0.0000 C   0  0  0  0  0  0  0  0  0  0  0  0
   -1.5574   -0.7500    0.0000 C   0  0  0  0  0  0  0  0  0  0  0  0
   -0.3846   -1.6852    0.0000 C   0  0  0  0  0  0  0  0  0  0  0  0
    1.0777   -1.3515    0.0000 C   0  0  0  0  0  0  0  0  0  0  0  0
  1  2  1  0
  2  3  1  0
  3  4  2  0
  4  5  1  0
  5  6  2  0
  6  7  1  0
  7  8  1  0
  8  2  1  0
M  END
>  <Title>  (574) 
idAAUDgen10

$$$$

     RDKit          2D

 89 89  0  0  0  0  0  0  0  0999 V2000
   23.7742   -0.0000    0.0000 C   0  0  0  0  0  0  0  0  0  0  0  0
   22.2742   -0.0000    0.0000 C   0  0  0  0  0  0  0  0  0  0  0  0
   20.7742    0.0000    0.0000 C   0  0  0  0  0  0  0  0  0  0  0  0
   20.7201    1.4990    0.0000 C   0  0  0  0  0  0  0  0  0  0  0  0
   20.5579    2.9902    0.0000 C   0  0  0  0  0  0  0  0  0  0  0  0
   20.2885    4.4658    0.0000 C   0  0  0  0  0  0  0  0  0  0  0  0
   19.9134    5.9182    0.0000 C   0  0  0  0  0  0  0  0  0  0  0  0
   19.4345    7.3397    0.0000 C   0  0  0  0  0  0  0  0  0  0  0  0
   18.8542    8.7229    0.0000 C   0  0  0  0  0  0  0  0  0  0  0  0
   18.1756   10.0606    0.0000 C   0  0  0  0  0  0  0  0  0  0  0  0
   17.4023   11.3459    0.0000 C   0  0  0  0  0  0  0  0  0  0  0  0
   16.5382   12.5720    0.0000 C   0  0  0  0  0  0  0  0  0  0  0  0
   15.5879   13.7326    0.0000 C   0  0  0  0  0  0  0  0  0  0  0  0
   14.5564   14.8216    0.0000 C   0  0  0  0  0  0  0  0  0  0  0  0
   13.4490   15.8333    0.0000 C   0  0  0  0  0  0  0  0  0  0  0  0
   12.2714   16.7625    0.0000 C   0  0  0  0  0  0  0  0  0  0  0  0
   11.0299   17.6043    0.0000 C   0  0  0  0  0  0  0  0  0  0  0  0
    9.7308   18.3543    0.0000 C   0  0  0  0  0  0  0  0  0  0  0  0
    8.3811   19.0086    0.0000 C   0  0  0  0  0  0  0  0  0  0  0  0
    6.9876   19.5638    0.0000 C   0  0  0  0  0  0  0  0  0  0  0  0
    5.5577   20.0170    0.0000 C   0  0  0  0  0  0  0  0  0  0  0  0
    4.0988   20.3659    0.0000 C   0  0  0  0  0  0  0  0  0  0  0  0
    2.6186   20.6085    0.0000 C   0  0  0  0  0  0  0  0  0  0  0  0
    1.1247   20.7438    0.0000 C   0  0  0  0  0  0  0  0  0  0  0  0
   -0.3751   20.7708    0.0000 C   0  0  0  0  0  0  0  0  0  0  0  0
   -1.8729   20.6896    0.0000 C   0  0  0  0  0  0  0  0  0  0  0  0
   -3.3609   20.5006    0.0000 C   0  0  0  0  0  0  0  0  0  0  0  0
   -4.8314   20.2046    0.0000 C   0  0  0  0  0  0  0  0  0  0  0  0
   -6.2767   19.8033    0.0000 C   0  0  0  0  0  0  0  0  0  0  0  0
   -7.6893   19.2988    0.0000 C   0  0  0  0  0  0  0  0  0  0  0  0
   -9.0618   18.6936    0.0000 C   0  0  0  0  0  0  0  0  0  0  0  0
  -10.3871   17.9910    0.0000 C   0  0  0  0  0  0  0  0  0  0  0  0
  -11.6582   17.1946    0.0000 C   0  0  0  0  0  0  0  0  0  0  0  0
  -12.8686   16.3086    0.0000 C   0  0  0  0  0  0  0  0  0  0  0  0
  -14.0118   15.3375    0.0000 C   0  0  0  0  0  0  0  0  0  0  0  0
  -15.0820   14.2864    0.0000 C   0  0  0  0  0  0  0  0  0  0  0  0
  -16.0736   13.1609    0.0000 C   0  0  0  0  0  0  0  0  0  0  0  0
  -16.9813   11.9668    0.0000 C   0  0  0  0  0  0  0  0  0  0  0  0
  -17.8006   10.7102    0.0000 C   0  0  0  0  0  0  0  0  0  0  0  0
  -18.5270    9.3979    0.0000 C   0  0  0  0  0  0  0  0  0  0  0  0
  -19.1568    8.0365    0.0000 C   0  0  0  0  0  0  0  0  0  0  0  0
  -19.6868    6.6332    0.0000 C   0  0  0  0  0  0  0  0  0  0  0  0
  -20.1141    5.1954    0.0000 C   0  0  0  0  0  0  0  0  0  0  0  0
  -20.4365    3.7305    0.0000 C   0  0  0  0  0  0  0  0  0  0  0  0
  -20.6525    2.2461    0.0000 C   0  0  0  0  0  0  0  0  0  0  0  0
  -20.7607    0.7500    0.0000 C   0  0  0  0  0  0  0  0  0  0  0  0
  -20.7607   -0.7500    0.0000 C   0  0  0  0  0  0  0  0  0  0  0  0
  -20.6525   -2.2461    0.0000 C   0  0  0  0  0  0  0  0  0  0  0  0
  -20.4365   -3.7305    0.0000 C   0  0  0  0  0  0  0  0  0  0  0  0
  -20.1141   -5.1954    0.0000 C   0  0  0  0  0  0  0  0  0  0  0  0
  -19.6868   -6.6332    0.0000 C   0  0  0  0  0  0  0  0  0  0  0  0
  -19.1568   -8.0365    0.0000 C   0  0  0  0  0  0  0  0  0  0  0  0
  -18.5270   -9.3979    0.0000 C   0  0  0  0  0  0  0  0  0  0  0  0
  -17.8006  -10.7102    0.0000 C   0  0  0  0  0  0  0  0  0  0  0  0
  -16.9813  -11.9668    0.0000 C   0  0  0  0  0  0  0  0  0  0  0  0
  -16.0736  -13.1609    0.0000 C   0  0  0  0  0  0  0  0  0  0  0  0
  -15.0820  -14.2864    0.0000 C   0  0  0  0  0  0  0  0  0  0  0  0
  -14.0118  -15.3375    0.0000 C   0  0  0  0  0  0  0  0  0  0  0  0
  -12.8686  -16.3086    0.0000 C   0  0  0  0  0  0  0  0  0  0  0  0
  -11.6582  -17.1946    0.0000 C   0  0  0  0  0  0  0  0  0  0  0  0
  -10.3871  -17.9910    0.0000 C   0  0  0  0  0  0  0  0  0  0  0  0
   -9.0618  -18.6936    0.0000 C   0  0  0  0  0  0  0  0  0  0  0  0
   -7.6893  -19.2988    0.0000 C   0  0  0  0  0  0  0  0  0  0  0  0
   -6.2767  -19.8033    0.0000 C   0  0  0  0  0  0  0  0  0  0  0  0
   -4.8314  -20.2046    0.0000 C   0  0  0  0  0  0  0  0  0  0  0  0
   -3.3609  -20.5006    0.0000 C   0  0  0  0  0  0  0  0  0  0  0  0
   -1.8729  -20.6896    0.0000 C   0  0  0  0  0  0  0  0  0  0  0  0
   -0.3751  -20.7708    0.0000 C   0  0  0  0  0  0  0  0  0  0  0  0
    1.1247  -20.7438    0.0000 C   0  0  0  0  0  0  0  0  0  0  0  0
    2.6186  -20.6085    0.0000 C   0  0  0  0  0  0  0  0  0  0  0  0
    4.0988  -20.3659    0.0000 C   0  0  0  0  0  0  0  0  0  0  0  0
    5.5577  -20.0170    0.0000 C   0  0  0  0  0  0  0  0  0  0  0  0
    6.9876  -19.5638    0.0000 C   0  0  0  0  0  0  0  0  0  0  0  0
    8.3811  -19.0086    0.0000 C   0  0  0  0  0  0  0  0  0  0  0  0
    9.7308  -18.3543    0.0000 C   0  0  0  0  0  0  0  0  0  0  0  0
   11.0299  -17.6043    0.0000 C   0  0  0  0  0  0  0  0  0  0  0  0
   12.2714  -16.7625    0.0000 C   0  0  0  0  0  0  0  0  0  0  0  0
   13.4490  -15.8333    0.0000 C   0  0  0  0  0  0  0  0  0  0  0  0
   14.5564  -14.8216    0.0000 C   0  0  0  0  0  0  0  0  0  0  0  0
   15.5879  -13.7326    0.0000 C   0  0  0  0  0  0  0  0  0  0  0  0
   16.5382  -12.5720    0.0000 C   0  0  0  0  0  0  0  0  0  0  0  0
   17.4023  -11.3459    0.0000 C   0  0  0  0  0  0  0  0  0  0  0  0
   18.1756  -10.0606    0.0000 C   0  0  0  0  0  0  0  0  0  0  0  0
   18.8542   -8.7229    0.0000 C   0  0  0  0  0  0  0  0  0  0  0  0
   19.4345   -7.3397    0.0000 C   0  0  0  0  0  0  0  0  0  0  0  0
   19.9134   -5.9182    0.0000 C   0  0  0  0  0  0  0  0  0  0  0  0
   20.2885   -4.4658    0.0000 C   0  0  0  0  0  0  0  0  0  0  0  0
   20.5579   -2.9902    0.0000 C   0  0  0  0  0  0  0  0  0  0  0  0
   20.7201   -1.4990    0.0000 C   0  0  0  0  0  0  0  0  0  0  0  0
  1  2  3  0
  2  3  1  0
  3  4  1  0
  4  5  1  0
  5  6  1  0
  6  7  1  0
  7  8  1  0
  8  9  1  0
  9 10  1  0
 10 11  1  0
 11 12  1  0
 12 13  1  0
 13 14  1  0
 14 15  1  0
 15 16  1  0
 16 17  1  0
 17 18  1  0
 18 19  1  0
 19 20  1  0
 20 21  1  0
 21 22  1  0
 22 23  1  0
 23 24  1  0
 24 25  1  0
 25 26  1  0
 26 27  1  0
 27 28  1  0
 28 29  1  0
 29 30  1  0
 30 31  1  0
 31 32  1  0
 32 33  1  0
 33 34  1  0
 34 35  1  0
 35 36  1  0
 36 37  1  0
 37 38  1  0
 38 39  1  0
 39 40  1  0
 40 41  1  0
 41 42  1  0
 42 43  1  0
 43 44  1  0
 44 45  1  0
 45 46  1  0
 46 47  1  0
 47 48  1  0
 48 49  1  0
 49 50  1  0
 50 51  1  0
 51 52  1  0
 52 53  1  0
 53 54  1  0
 54 55  1  0
 55 56  1  0
 56 57  1  0
 57 58  1  0
 58 59  1  0
 59 60  1  0
 60 61  1  0
 61 62  1  0
 62 63  1  0
 63 64  1  0
 64 65  1  0
 65 66  1  0
 66 67  1  0
 67 68  1  0
 68 69  1  0
 69 70  1  0
 70 71  1  0
 71 72  1  0
 72 73  1  0
 73 74  1  0
 74 75  1  0
 75 76  1  0
 76 77  1  0
 77 78  1  0
 78 79  1  0
 79 80  1  0
 80 81  1  0
 81 82  1  0
 82 83  1  0
 83 84  1  0
 84 85  1  0
 85 86  1  0
 86 87  1  0
 87 88  1  0
 88 89  1  0
 89  3  1  0
M  END
>  <Title>  (575) 
idAAUEgen10

$$$$

     RDKit          2D

 13 13  0  0  0  0  0  0  0  0999 V2000
    4.5000   -2.5981    0.0000 C   0  0  0  0  0  0  0  0  0  0  0  0
    3.7500   -1.2990    0.0000 C   0  0  0  0  0  0  0  0  0  0  0  0
    3.0000    0.0000    0.0000 C   0  0  0  0  0  0  0  0  0  0  0  0
    1.5000    0.0000    0.0000 C   0  0  0  0  0  0  0  0  0  0  0  0
    0.7500   -1.2990    0.0000 C   0  0  0  0  0  0  0  0  0  0  0  0
   -0.7500   -1.2990    0.0000 C   0  0  0  0  0  0  0  0  0  0  0  0
   -1.5000   -2.5981    0.0000 C   0  0  0  0  0  0  0  0  0  0  0  0
   -1.5000    0.0000    0.0000 C   0  0  0  0  0  0  0  0  0  0  0  0
   -0.7500    1.2990    0.0000 C   0  0  0  0  0  0  0  0  0  0  0  0
    0.7500    1.2990    0.0000 C   0  0  0  0  0  0  0  0  0  0  0  0
    1.5000    2.5981    0.0000 C   0  0  0  0  0  0  0  0  0  0  0  0
    0.7500    3.8971    0.0000 C   0  0  0  0  0  0  0  0  0  0  0  0
    3.0000    2.5981    0.0000 O   0  0  0  0  0  0  0  0  0  0  0  0
  1  2  3  0
  2  3  1  0
  3  4  1  0
  4  5  2  0
  5  6  1  0
  6  7  1  0
  6  8  2  0
  8  9  1  0
  9 10  2  0
 10 11  1  0
 11 12  1  0
 11 13  2  0
 10  4  1  0
M  END
>  <Title>  (576) 
idAAUFgen10

$$$$

     RDKit          2D

115116  0  0  0  0  0  0  0  0999 V2000
   -2.3759    0.1098    0.0000 C   0  0  0  0  0  0  0  0  0  0  0  0
   -2.2476   -1.3847    0.0000 C   0  0  0  0  0  0  0  0  0  0  0  0
   -3.7378   -1.5557    0.0000 C   0  0  0  0  0  0  0  0  0  0  0  0
   -5.2158   -1.8114    0.0000 C   0  0  0  0  0  0  0  0  0  0  0  0
   -6.6768   -2.1512    0.0000 C   0  0  0  0  0  0  0  0  0  0  0  0
   -8.1161   -2.5738    0.0000 C   0  0  0  0  0  0  0  0  0  0  0  0
   -9.5288   -3.0779    0.0000 C   0  0  0  0  0  0  0  0  0  0  0  0
  -10.9105   -3.6618    0.0000 C   0  0  0  0  0  0  0  0  0  0  0  0
  -12.2566   -4.3236    0.0000 C   0  0  0  0  0  0  0  0  0  0  0  0
  -13.5627   -5.0612    0.0000 C   0  0  0  0  0  0  0  0  0  0  0  0
  -14.8246   -5.8722    0.0000 C   0  0  0  0  0  0  0  0  0  0  0  0
  -16.0381   -6.7538    0.0000 C   0  0  0  0  0  0  0  0  0  0  0  0
  -17.1994   -7.7034    0.0000 C   0  0  0  0  0  0  0  0  0  0  0  0
  -18.3045   -8.7176    0.0000 C   0  0  0  0  0  0  0  0  0  0  0  0
  -19.3499   -9.7933    0.0000 C   0  0  0  0  0  0  0  0  0  0  0  0
  -20.3322  -10.9269    0.0000 C   0  0  0  0  0  0  0  0  0  0  0  0
  -21.2481  -12.1148    0.0000 C   0  0  0  0  0  0  0  0  0  0  0  0
  -22.0948  -13.3530    0.0000 C   0  0  0  0  0  0  0  0  0  0  0  0
  -22.8694  -14.6375    0.0000 C   0  0  0  0  0  0  0  0  0  0  0  0
  -23.5694  -15.9642    0.0000 C   0  0  0  0  0  0  0  0  0  0  0  0
  -24.1925  -17.3286    0.0000 C   0  0  0  0  0  0  0  0  0  0  0  0
  -24.7367  -18.7264    0.0000 C   0  0  0  0  0  0  0  0  0  0  0  0
  -25.2003  -20.1530    0.0000 C   0  0  0  0  0  0  0  0  0  0  0  0
  -25.5816  -21.6037    0.0000 C   0  0  0  0  0  0  0  0  0  0  0  0
  -25.8795  -23.0738    0.0000 C   0  0  0  0  0  0  0  0  0  0  0  0
  -26.0929  -24.5586    0.0000 C   0  0  0  0  0  0  0  0  0  0  0  0
  -26.2213  -26.0531    0.0000 C   0  0  0  0  0  0  0  0  0  0  0  0
  -26.2641  -27.5525    0.0000 C   0  0  0  0  0  0  0  0  0  0  0  0
  -26.2213  -29.0519    0.0000 C   0  0  0  0  0  0  0  0  0  0  0  0
  -26.0929  -30.5463    0.0000 C   0  0  0  0  0  0  0  0  0  0  0  0
  -25.8795  -32.0311    0.0000 C   0  0  0  0  0  0  0  0  0  0  0  0
  -25.5816  -33.5012    0.0000 C   0  0  0  0  0  0  0  0  0  0  0  0
  -25.2003  -34.9519    0.0000 C   0  0  0  0  0  0  0  0  0  0  0  0
  -24.7367  -36.3785    0.0000 C   0  0  0  0  0  0  0  0  0  0  0  0
  -24.1925  -37.7763    0.0000 C   0  0  0  0  0  0  0  0  0  0  0  0
  -23.5694  -39.1408    0.0000 C   0  0  0  0  0  0  0  0  0  0  0  0
  -22.8694  -40.4674    0.0000 C   0  0  0  0  0  0  0  0  0  0  0  0
  -22.0948  -41.7519    0.0000 C   0  0  0  0  0  0  0  0  0  0  0  0
  -21.2481  -42.9901    0.0000 C   0  0  0  0  0  0  0  0  0  0  0  0
  -20.3322  -44.1780    0.0000 C   0  0  0  0  0  0  0  0  0  0  0  0
  -19.3499  -45.3116    0.0000 C   0  0  0  0  0  0  0  0  0  0  0  0
  -18.3045  -46.3873    0.0000 C   0  0  0  0  0  0  0  0  0  0  0  0
  -17.1994  -47.4016    0.0000 C   0  0  0  0  0  0  0  0  0  0  0  0
  -16.0381  -48.3511    0.0000 C   0  0  0  0  0  0  0  0  0  0  0  0
  -14.8246  -49.2328    0.0000 C   0  0  0  0  0  0  0  0  0  0  0  0
  -13.5627  -50.0437    0.0000 C   0  0  0  0  0  0  0  0  0  0  0  0
  -12.2566  -50.7813    0.0000 C   0  0  0  0  0  0  0  0  0  0  0  0
  -10.9105  -51.4432    0.0000 C   0  0  0  0  0  0  0  0  0  0  0  0
   -9.5288  -52.0271    0.0000 C   0  0  0  0  0  0  0  0  0  0  0  0
   -8.1161  -52.5311    0.0000 C   0  0  0  0  0  0  0  0  0  0  0  0
   -6.6768  -52.9537    0.0000 C   0  0  0  0  0  0  0  0  0  0  0  0
   -5.2158  -53.2935    0.0000 C   0  0  0  0  0  0  0  0  0  0  0  0
   -3.7378  -53.5493    0.0000 C   0  0  0  0  0  0  0  0  0  0  0  0
   -2.2476  -53.7203    0.0000 C   0  0  0  0  0  0  0  0  0  0  0  0
   -0.7500  -53.8059    0.0000 C   0  0  0  0  0  0  0  0  0  0  0  0
    0.7500  -53.8059    0.0000 C   0  0  0  0  0  0  0  0  0  0  0  0
    2.2476  -53.7203    0.0000 C   0  0  0  0  0  0  0  0  0  0  0  0
    3.7378  -53.5493    0.0000 C   0  0  0  0  0  0  0  0  0  0  0  0
    5.2158  -53.2935    0.0000 C   0  0  0  0  0  0  0  0  0  0  0  0
    6.6768  -52.9537    0.0000 C   0  0  0  0  0  0  0  0  0  0  0  0
    8.1161  -52.5311    0.0000 C   0  0  0  0  0  0  0  0  0  0  0  0
    9.5288  -52.0271    0.0000 C   0  0  0  0  0  0  0  0  0  0  0  0
   10.9105  -51.4432    0.0000 C   0  0  0  0  0  0  0  0  0  0  0  0
   12.2566  -50.7813    0.0000 C   0  0  0  0  0  0  0  0  0  0  0  0
   13.5627  -50.0437    0.0000 C   0  0  0  0  0  0  0  0  0  0  0  0
   14.8246  -49.2328    0.0000 C   0  0  0  0  0  0  0  0  0  0  0  0
   16.0381  -48.3511    0.0000 C   0  0  0  0  0  0  0  0  0  0  0  0
   17.1994  -47.4016    0.0000 C   0  0  0  0  0  0  0  0  0  0  0  0
   18.3045  -46.3873    0.0000 C   0  0  0  0  0  0  0  0  0  0  0  0
   19.3499  -45.3116    0.0000 C   0  0  0  0  0  0  0  0  0  0  0  0
   20.3322  -44.1780    0.0000 C   0  0  0  0  0  0  0  0  0  0  0  0
   21.2481  -42.9901    0.0000 C   0  0  0  0  0  0  0  0  0  0  0  0
   22.0948  -41.7519    0.0000 C   0  0  0  0  0  0  0  0  0  0  0  0
   22.8694  -40.4674    0.0000 C   0  0  0  0  0  0  0  0  0  0  0  0
   23.5694  -39.1408    0.0000 C   0  0  0  0  0  0  0  0  0  0  0  0
   24.1925  -37.7763    0.0000 C   0  0  0  0  0  0  0  0  0  0  0  0
   24.7367  -36.3785    0.0000 C   0  0  0  0  0  0  0  0  0  0  0  0
   25.2003  -34.9519    0.0000 C   0  0  0  0  0  0  0  0  0  0  0  0
   25.5816  -33.5012    0.0000 C   0  0  0  0  0  0  0  0  0  0  0  0
   25.8795  -32.0311    0.0000 C   0  0  0  0  0  0  0  0  0  0  0  0
   26.0929  -30.5463    0.0000 C   0  0  0  0  0  0  0  0  0  0  0  0
   26.2213  -29.0519    0.0000 C   0  0  0  0  0  0  0  0  0  0  0  0
   26.2641  -27.5525    0.0000 C   0  0  0  0  0  0  0  0  0  0  0  0
   26.2213  -26.0531    0.0000 C   0  0  0  0  0  0  0  0  0  0  0  0
   26.0929  -24.5586    0.0000 C   0  0  0  0  0  0  0  0  0  0  0  0
   25.8795  -23.0738    0.0000 C   0  0  0  0  0  0  0  0  0  0  0  0
   25.5816  -21.6037    0.0000 C   0  0  0  0  0  0  0  0  0  0  0  0
   25.2003  -20.1530    0.0000 C   0  0  0  0  0  0  0  0  0  0  0  0
   24.7367  -18.7264    0.0000 C   0  0  0  0  0  0  0  0  0  0  0  0
   24.1925  -17.3286    0.0000 C   0  0  0  0  0  0  0  0  0  0  0  0
   23.5694  -15.9642    0.0000 C   0  0  0  0  0  0  0  0  0  0  0  0
   22.8694  -14.6375    0.0000 C   0  0  0  0  0  0  0  0  0  0  0  0
   22.0948  -13.3530    0.0000 C   0  0  0  0  0  0  0  0  0  0  0  0
   21.2481  -12.1148    0.0000 C   0  0  0  0  0  0  0  0  0  0  0  0
   20.3322  -10.9269    0.0000 C   0  0  0  0  0  0  0  0  0  0  0  0
   19.3499   -9.7933    0.0000 C   0  0  0  0  0  0  0  0  0  0  0  0
   18.3045   -8.7176    0.0000 C   0  0  0  0  0  0  0  0  0  0  0  0
   17.1994   -7.7034    0.0000 C   0  0  0  0  0  0  0  0  0  0  0  0
   16.0381   -6.7538    0.0000 C   0  0  0  0  0  0  0  0  0  0  0  0
   14.8246   -5.8722    0.0000 C   0  0  0  0  0  0  0  0  0  0  0  0
   13.5627   -5.0612    0.0000 C   0  0  0  0  0  0  0  0  0  0  0  0
   12.2566   -4.3236    0.0000 C   0  0  0  0  0  0  0  0  0  0  0  0
   10.9105   -3.6618    0.0000 C   0  0  0  0  0  0  0  0  0  0  0  0
    9.5288   -3.0779    0.0000 C   0  0  0  0  0  0  0  0  0  0  0  0
    8.1161   -2.5738    0.0000 C   0  0  0  0  0  0  0  0  0  0  0  0
    6.6768   -2.1512    0.0000 C   0  0  0  0  0  0  0  0  0  0  0  0
    5.2158   -1.8114    0.0000 C   0  0  0  0  0  0  0  0  0  0  0  0
    3.7378   -1.5557    0.0000 C   0  0  0  0  0  0  0  0  0  0  0  0
    2.2476   -1.3847    0.0000 C   0  0  0  0  0  0  0  0  0  0  0  0
    0.7500   -1.2990    0.0000 C   0  0  0  0  0  0  0  0  0  0  0  0
    1.5000    0.0000    0.0000 C   0  0  0  0  0  0  0  0  0  0  0  0
    0.7500    1.2990    0.0000 C   0  0  0  0  0  0  0  0  0  0  0  0
   -0.7500    1.2990    0.0000 C   0  0  0  0  0  0  0  0  0  0  0  0
   -1.5000    0.0000    0.0000 C   0  0  0  0  0  0  0  0  0  0  0  0
   -0.7500   -1.2990    0.0000 C   0  0  0  0  0  0  0  0  0  0  0  0
  1  2  1  0
  2  3  1  0
  3  4  1  0
  4  5  1  0
  5  6  1  0
  6  7  1  0
  7  8  1  0
  8  9  1  0
  9 10  1  0
 10 11  1  0
 11 12  1  0
 12 13  1  0
 13 14  1  0
 14 15  1  0
 15 16  1  0
 16 17  1  0
 17 18  1  0
 18 19  1  0
 19 20  1  0
 20 21  1  0
 21 22  1  0
 22 23  1  0
 23 24  1  0
 24 25  1  0
 25 26  1  0
 26 27  1  0
 27 28  1  0
 28 29  1  0
 29 30  1  0
 30 31  1  0
 31 32  1  0
 32 33  1  0
 33 34  1  0
 34 35  1  0
 35 36  1  0
 36 37  1  0
 37 38  1  0
 38 39  1  0
 39 40  1  0
 40 41  1  0
 41 42  1  0
 42 43  1  0
 43 44  1  0
 44 45  1  0
 45 46  1  0
 46 47  1  0
 47 48  1  0
 48 49  1  0
 49 50  1  0
 50 51  1  0
 51 52  1  0
 52 53  1  0
 53 54  1  0
 54 55  1  0
 55 56  1  0
 56 57  1  0
 57 58  1  0
 58 59  1  0
 59 60  1  0
 60 61  1  0
 61 62  1  0
 62 63  1  0
 63 64  1  0
 64 65  1  0
 65 66  1  0
 66 67  1  0
 67 68  1  0
 68 69  1  0
 69 70  1  0
 70 71  1  0
 71 72  1  0
 72 73  1  0
 73 74  1  0
 74 75  1  0
 75 76  1  0
 76 77  1  0
 77 78  1  0
 78 79  1  0
 79 80  1  0
 80 81  1  0
 81 82  1  0
 82 83  1  0
 83 84  1  0
 84 85  1  0
 85 86  1  0
 86 87  1  0
 87 88  1  0
 88 89  1  0
 89 90  1  0
 90 91  1  0
 91 92  1  0
 92 93  1  0
 93 94  1  0
 94 95  1  0
 95 96  1  0
 96 97  1  0
 97 98  1  0
 98 99  1  0
 99100  1  0
100101  1  0
101102  1  0
102103  1  0
103104  1  0
104105  1  0
105106  1  0
106107  1  0
107108  1  0
108109  1  0
109110  1  0
110111  2  0
111112  1  0
112113  2  0
113114  1  0
114115  2  0
115  2  1  0
115110  1  0
M  END
>  <Title>  (577) 
idAAUGgen10

$$$$

     RDKit          2D

 10  9  0  0  0  0  0  0  0  0999 V2000
    0.0000    0.0000    0.0000 C   0  0  0  0  0  0  0  0  0  0  0  0
   -0.0000   -1.5000    0.0000 C   0  0  0  0  0  0  0  0  0  0  0  0
   -0.0000   -3.0000    0.0000 C   0  0  0  0  0  0  0  0  0  0  0  0
    1.2990   -3.7500    0.0000 C   0  0  0  0  0  0  0  0  0  0  0  0
    1.2990   -5.2500    0.0000 C   0  0  0  0  0  0  0  0  0  0  0  0
   -1.2990   -3.7500    0.0000 C   0  0  0  0  0  0  0  0  0  0  0  0
   -2.5981   -3.0000    0.0000 C   0  0  0  0  0  0  0  0  0  0  0  0
   -3.8971   -2.2500    0.0000 C   0  0  0  0  0  0  0  0  0  0  0  0
   -5.1962   -1.5000    0.0000 C   0  0  0  0  0  0  0  0  0  0  0  0
   -6.4952   -2.2500    0.0000 C   0  0  0  0  0  0  0  0  0  0  0  0
  1  2  3  0
  2  3  1  0
  3  4  1  0
  4  5  1  0
  3  6  1  0
  6  7  1  0
  7  8  3  0
  8  9  1  0
  9 10  1  0
M  END
>  <Title>  (578) 
idAAUHgen10

$$$$

     RDKit          2D

 89 90  0  0  0  0  0  0  0  0999 V2000
   -2.4138    0.0794    0.0000 C   0  0  0  0  0  0  0  0  0  0  0  0
   -2.2458   -1.4111    0.0000 C   0  0  0  0  0  0  0  0  0  0  0  0
   -3.7291   -1.6347    0.0000 C   0  0  0  0  0  0  0  0  0  0  0  0
   -5.1914   -1.9685    0.0000 N   0  0  0  0  0  0  0  0  0  0  0  0
   -6.6248   -2.4106    0.0000 C   0  0  0  0  0  0  0  0  0  0  0  0
   -8.0211   -2.9586    0.0000 C   0  0  0  0  0  0  0  0  0  0  0  0
   -9.3726   -3.6094    0.0000 C   0  0  0  0  0  0  0  0  0  0  0  0
  -10.6716   -4.3594    0.0000 C   0  0  0  0  0  0  0  0  0  0  0  0
  -11.9110   -5.2044    0.0000 C   0  0  0  0  0  0  0  0  0  0  0  0
  -13.0837   -6.1397    0.0000 C   0  0  0  0  0  0  0  0  0  0  0  0
  -14.1833   -7.1599    0.0000 C   0  0  0  0  0  0  0  0  0  0  0  0
  -15.2035   -8.2595    0.0000 C   0  0  0  0  0  0  0  0  0  0  0  0
  -16.1388   -9.4322    0.0000 C   0  0  0  0  0  0  0  0  0  0  0  0
  -16.9838  -10.6716    0.0000 C   0  0  0  0  0  0  0  0  0  0  0  0
  -17.7338  -11.9706    0.0000 C   0  0  0  0  0  0  0  0  0  0  0  0
  -18.3846  -13.3221    0.0000 C   0  0  0  0  0  0  0  0  0  0  0  0
  -18.9326  -14.7184    0.0000 C   0  0  0  0  0  0  0  0  0  0  0  0
  -19.3747  -16.1518    0.0000 C   0  0  0  0  0  0  0  0  0  0  0  0
  -19.7085  -17.6142    0.0000 C   0  0  0  0  0  0  0  0  0  0  0  0
  -19.9321  -19.0974    0.0000 C   0  0  0  0  0  0  0  0  0  0  0  0
  -20.0442  -20.5932    0.0000 C   0  0  0  0  0  0  0  0  0  0  0  0
  -20.0442  -22.0932    0.0000 C   0  0  0  0  0  0  0  0  0  0  0  0
  -19.9321  -23.5890    0.0000 C   0  0  0  0  0  0  0  0  0  0  0  0
  -19.7085  -25.0723    0.0000 C   0  0  0  0  0  0  0  0  0  0  0  0
  -19.3747  -26.5347    0.0000 C   0  0  0  0  0  0  0  0  0  0  0  0
  -18.9326  -27.9680    0.0000 C   0  0  0  0  0  0  0  0  0  0  0  0
  -18.3846  -29.3643    0.0000 C   0  0  0  0  0  0  0  0  0  0  0  0
  -17.7338  -30.7158    0.0000 C   0  0  0  0  0  0  0  0  0  0  0  0
  -16.9838  -32.0148    0.0000 C   0  0  0  0  0  0  0  0  0  0  0  0
  -16.1388  -33.2542    0.0000 C   0  0  0  0  0  0  0  0  0  0  0  0
  -15.2035  -34.4269    0.0000 C   0  0  0  0  0  0  0  0  0  0  0  0
  -14.1833  -35.5265    0.0000 C   0  0  0  0  0  0  0  0  0  0  0  0
  -13.0837  -36.5468    0.0000 C   0  0  0  0  0  0  0  0  0  0  0  0
  -11.9110  -37.4820    0.0000 C   0  0  0  0  0  0  0  0  0  0  0  0
  -10.6716  -38.3270    0.0000 C   0  0  0  0  0  0  0  0  0  0  0  0
   -9.3726  -39.0770    0.0000 C   0  0  0  0  0  0  0  0  0  0  0  0
   -8.0211  -39.7278    0.0000 C   0  0  0  0  0  0  0  0  0  0  0  0
   -6.6248  -40.2758    0.0000 C   0  0  0  0  0  0  0  0  0  0  0  0
   -5.1914  -40.7179    0.0000 C   0  0  0  0  0  0  0  0  0  0  0  0
   -3.7291  -41.0517    0.0000 C   0  0  0  0  0  0  0  0  0  0  0  0
   -2.2458  -41.2753    0.0000 C   0  0  0  0  0  0  0  0  0  0  0  0
   -0.7500  -41.3874    0.0000 C   0  0  0  0  0  0  0  0  0  0  0  0
    0.7500  -41.3874    0.0000 C   0  0  0  0  0  0  0  0  0  0  0  0
    2.2458  -41.2753    0.0000 C   0  0  0  0  0  0  0  0  0  0  0  0
    3.7291  -41.0517    0.0000 C   0  0  0  0  0  0  0  0  0  0  0  0
    5.1914  -40.7179    0.0000 C   0  0  0  0  0  0  0  0  0  0  0  0
    6.6248  -40.2758    0.0000 C   0  0  0  0  0  0  0  0  0  0  0  0
    8.0211  -39.7278    0.0000 C   0  0  0  0  0  0  0  0  0  0  0  0
    9.3726  -39.0770    0.0000 C   0  0  0  0  0  0  0  0  0  0  0  0
   10.6716  -38.3270    0.0000 C   0  0  0  0  0  0  0  0  0  0  0  0
   11.9110  -37.4820    0.0000 C   0  0  0  0  0  0  0  0  0  0  0  0
   13.0837  -36.5468    0.0000 C   0  0  0  0  0  0  0  0  0  0  0  0
   14.1833  -35.5265    0.0000 C   0  0  0  0  0  0  0  0  0  0  0  0
   15.2035  -34.4269    0.0000 C   0  0  0  0  0  0  0  0  0  0  0  0
   16.1388  -33.2542    0.0000 C   0  0  0  0  0  0  0  0  0  0  0  0
   16.9838  -32.0148    0.0000 C   0  0  0  0  0  0  0  0  0  0  0  0
   17.7338  -30.7158    0.0000 C   0  0  0  0  0  0  0  0  0  0  0  0
   18.3846  -29.3643    0.0000 C   0  0  0  0  0  0  0  0  0  0  0  0
   18.9326  -27.9680    0.0000 C   0  0  0  0  0  0  0  0  0  0  0  0
   19.3747  -26.5347    0.0000 C   0  0  0  0  0  0  0  0  0  0  0  0
   19.7085  -25.0723    0.0000 C   0  0  0  0  0  0  0  0  0  0  0  0
   19.9321  -23.5890    0.0000 C   0  0  0  0  0  0  0  0  0  0  0  0
   20.0442  -22.0932    0.0000 C   0  0  0  0  0  0  0  0  0  0  0  0
   20.0442  -20.5932    0.0000 C   0  0  0  0  0  0  0  0  0  0  0  0
   19.9321  -19.0974    0.0000 C   0  0  0  0  0  0  0  0  0  0  0  0
   19.7085  -17.6142    0.0000 C   0  0  0  0  0  0  0  0  0  0  0  0
   19.3747  -16.1518    0.0000 C   0  0  0  0  0  0  0  0  0  0  0  0
   18.9326  -14.7184    0.0000 C   0  0  0  0  0  0  0  0  0  0  0  0
   18.3846  -13.3221    0.0000 C   0  0  0  0  0  0  0  0  0  0  0  0
   17.7338  -11.9706    0.0000 C   0  0  0  0  0  0  0  0  0  0  0  0
   16.9838  -10.6716    0.0000 C   0  0  0  0  0  0  0  0  0  0  0  0
   16.1388   -9.4322    0.0000 C   0  0  0  0  0  0  0  0  0  0  0  0
   15.2035   -8.2595    0.0000 C   0  0  0  0  0  0  0  0  0  0  0  0
   14.1833   -7.1599    0.0000 C   0  0  0  0  0  0  0  0  0  0  0  0
   13.0837   -6.1397    0.0000 C   0  0  0  0  0  0  0  0  0  0  0  0
   11.9110   -5.2044    0.0000 C   0  0  0  0  0  0  0  0  0  0  0  0
   10.6716   -4.3594    0.0000 C   0  0  0  0  0  0  0  0  0  0  0  0
    9.3726   -3.6094    0.0000 C   0  0  0  0  0  0  0  0  0  0  0  0
    8.0211   -2.9586    0.0000 C   0  0  0  0  0  0  0  0  0  0  0  0
    6.6248   -2.4106    0.0000 C   0  0  0  0  0  0  0  0  0  0  0  0
    5.1914   -1.9685    0.0000 C   0  0  0  0  0  0  0  0  0  0  0  0
    3.7291   -1.6347    0.0000 C   0  0  0  0  0  0  0  0  0  0  0  0
    2.2458   -1.4111    0.0000 C   0  0  0  0  0  0  0  0  0  0  0  0
    0.7500   -1.2990    0.0000 C   0  0  0  0  0  0  0  0  0  0  0  0
    1.5000    0.0000    0.0000 C   0  0  0  0  0  0  0  0  0  0  0  0
    0.7500    1.2990    0.0000 C   0  0  0  0  0  0  0  0  0  0  0  0
   -0.7500    1.2990    0.0000 C   0  0  0  0  0  0  0  0  0  0  0  0
   -1.5000    0.0000    0.0000 C   0  0  0  0  0  0  0  0  0  0  0  0
   -0.7500   -1.2990    0.0000 C   0  0  0  0  0  0  0  0  0  0  0  0
  1  2  1  0
  2  3  1  0
  3  4  1  0
  4  5  1  0
  5  6  1  0
  6  7  1  0
  7  8  1  0
  8  9  1  0
  9 10  1  0
 10 11  1  0
 11 12  1  0
 12 13  1  0
 13 14  1  0
 14 15  1  0
 15 16  1  0
 16 17  1  0
 17 18  1  0
 18 19  1  0
 19 20  1  0
 20 21  1  0
 21 22  1  0
 22 23  1  0
 23 24  1  0
 24 25  1  0
 25 26  1  0
 26 27  1  0
 27 28  1  0
 28 29  1  0
 29 30  1  0
 30 31  1  0
 31 32  1  0
 32 33  1  0
 33 34  1  0
 34 35  1  0
 35 36  1  0
 36 37  1  0
 37 38  1  0
 38 39  1  0
 39 40  1  0
 40 41  1  0
 41 42  1  0
 42 43  1  0
 43 44  1  0
 44 45  1  0
 45 46  1  0
 46 47  1  0
 47 48  1  0
 48 49  1  0
 49 50  1  0
 50 51  1  0
 51 52  1  0
 52 53  1  0
 53 54  1  0
 54 55  1  0
 55 56  1  0
 56 57  1  0
 57 58  1  0
 58 59  1  0
 59 60  1  0
 60 61  1  0
 61 62  1  0
 62 63  1  0
 63 64  1  0
 64 65  1  0
 65 66  1  0
 66 67  1  0
 67 68  1  0
 68 69  1  0
 69 70  1  0
 70 71  1  0
 71 72  1  0
 72 73  1  0
 73 74  1  0
 74 75  1  0
 75 76  1  0
 76 77  1  0
 77 78  1  0
 78 79  1  0
 79 80  1  0
 80 81  1  0
 81 82  1  0
 82 83  1  0
 83 84  1  0
 84 85  2  0
 85 86  1  0
 86 87  2  0
 87 88  1  0
 88 89  2  0
 89  2  1  0
 89 84  1  0
M  END
>  <Title>  (579) 
idAAUIgen10

$$$$

     RDKit          2D

 11 11  0  0  0  0  0  0  0  0999 V2000
    7.5000   -2.5981    0.0000 C   0  0  0  0  0  0  0  0  0  0  0  0
    6.7500   -1.2990    0.0000 C   0  0  0  0  0  0  0  0  0  0  0  0
    6.0000    0.0000    0.0000 C   0  0  0  0  0  0  0  0  0  0  0  0
    4.5000    0.0000    0.0000 C   0  0  0  0  0  0  0  0  0  0  0  0
    3.0000    0.0000    0.0000 C   0  0  0  0  0  0  0  0  0  0  0  0
    1.5000    0.0000    0.0000 C   0  0  0  0  0  0  0  0  0  0  0  0
    0.7500   -1.2990    0.0000 C   0  0  0  0  0  0  0  0  0  0  0  0
   -0.7500   -1.2990    0.0000 C   0  0  0  0  0  0  0  0  0  0  0  0
   -1.5000    0.0000    0.0000 C   0  0  0  0  0  0  0  0  0  0  0  0
   -0.7500    1.2990    0.0000 C   0  0  0  0  0  0  0  0  0  0  0  0
    0.7500    1.2990    0.0000 C   0  0  0  0  0  0  0  0  0  0  0  0
  1  2  3  0
  2  3  1  0
  3  4  1  0
  4  5  3  0
  5  6  1  0
  6  7  2  0
  7  8  1  0
  8  9  2  0
  9 10  1  0
 10 11  2  0
 11  6  1  0
M  END
>  <Title>  (580) 
idAAUJgen10

$$$$

     RDKit          2D

  7  6  0  0  0  0  0  0  0  0999 V2000
    0.0000    0.0000    0.0000 C   0  0  0  0  0  0  0  0  0  0  0  0
    1.2990    0.7500    0.0000 C   0  0  0  0  0  0  0  0  0  0  0  0
    2.5981    1.5000    0.0000 C   0  0  0  0  0  0  0  0  0  0  0  0
    3.8971    2.2500    0.0000 C   0  0  0  0  0  0  0  0  0  0  0  0
    4.6471    0.9510    0.0000 C   0  0  0  0  0  0  0  0  0  0  0  0
    3.1471    3.5490    0.0000 C   0  0  0  0  0  0  0  0  0  0  0  0
    5.1962    3.0000    0.0000 C   0  0  0  0  0  0  0  0  0  0  0  0
  1  2  1  0
  2  3  3  0
  3  4  1  0
  4  5  1  0
  4  6  1  0
  4  7  1  0
M  END
>  <Title>  (581) 
idAAUKgen10

$$$$

     RDKit          2D

 18 19  0  0  0  0  0  0  0  0999 V2000
    0.7500   -9.0933    0.0000 C   0  0  0  0  0  0  0  0  0  0  0  0
    1.5000   -7.7942    0.0000 C   0  0  0  0  0  0  0  0  0  0  0  0
    0.7500   -6.4952    0.0000 C   0  0  0  0  0  0  0  0  0  0  0  0
    1.5000   -5.1962    0.0000 N   0  0  0  0  0  0  0  0  0  0  0  0
    0.7500   -3.8971    0.0000 C   0  0  0  0  0  0  0  0  0  0  0  0
    1.5000   -2.5981    0.0000 C   0  0  0  0  0  0  0  0  0  0  0  0
    0.7500   -1.2990    0.0000 C   0  0  0  0  0  0  0  0  0  0  0  0
    1.5000    0.0000    0.0000 C   0  0  0  0  0  0  0  0  0  0  0  0
    0.7500    1.2990    0.0000 C   0  0  0  0  0  0  0  0  0  0  0  0
   -0.7500    1.2990    0.0000 C   0  0  0  0  0  0  0  0  0  0  0  0
   -1.5000    0.0000    0.0000 C   0  0  0  0  0  0  0  0  0  0  0  0
   -0.7500   -1.2990    0.0000 C   0  0  0  0  0  0  0  0  0  0  0  0
    3.0000   -5.1962    0.0000 C   0  0  0  0  0  0  0  0  0  0  0  0
    3.7500   -6.4952    0.0000 C   0  0  0  0  0  0  0  0  0  0  0  0
    5.2500   -6.4952    0.0000 C   0  0  0  0  0  0  0  0  0  0  0  0
    6.0000   -5.1962    0.0000 C   0  0  0  0  0  0  0  0  0  0  0  0
    5.2500   -3.8971    0.0000 C   0  0  0  0  0  0  0  0  0  0  0  0
    3.7500   -3.8971    0.0000 C   0  0  0  0  0  0  0  0  0  0  0  0
  1  2  2  0
  2  3  1  0
  3  4  1  0
  4  5  1  0
  5  6  1  0
  6  7  1  0
  7  8  2  0
  8  9  1  0
  9 10  2  0
 10 11  1  0
 11 12  2  0
  4 13  1  0
 13 14  2  0
 14 15  1  0
 15 16  2  0
 16 17  1  0
 17 18  2  0
 12  7  1  0
 18 13  1  0
M  END
>  <Title>  (582) 
idAAULgen10

$$$$

     RDKit          2D

 69 70  0  0  0  0  0  0  0  0999 V2000
   17.2623    0.0000    0.0000 C   0  0  0  0  0  0  0  0  0  0  0  0
   15.7623    0.0000    0.0000 C   0  0  0  0  0  0  0  0  0  0  0  0
   15.6909   -1.4983    0.0000 C   0  0  0  0  0  0  0  0  0  0  0  0
   15.4774   -2.9830    0.0000 C   0  0  0  0  0  0  0  0  0  0  0  0
   15.1238   -4.4408    0.0000 C   0  0  0  0  0  0  0  0  0  0  0  0
   14.6332   -5.8583    0.0000 C   0  0  0  0  0  0  0  0  0  0  0  0
   14.0101   -7.2227    0.0000 C   0  0  0  0  0  0  0  0  0  0  0  0
   13.2601   -8.5217    0.0000 C   0  0  0  0  0  0  0  0  0  0  0  0
   12.3900   -9.7436    0.0000 C   0  0  0  0  0  0  0  0  0  0  0  0
   11.4077  -10.8772    0.0000 C   0  0  0  0  0  0  0  0  0  0  0  0
   10.3221  -11.9123    0.0000 C   0  0  0  0  0  0  0  0  0  0  0  0
    9.1430  -12.8396    0.0000 C   0  0  0  0  0  0  0  0  0  0  0  0
    7.8811  -13.6505    0.0000 C   0  0  0  0  0  0  0  0  0  0  0  0
    6.5479  -14.3379    0.0000 C   0  0  0  0  0  0  0  0  0  0  0  0
    5.1553  -14.8954    0.0000 C   0  0  0  0  0  0  0  0  0  0  0  0
    3.7161  -15.3180    0.0000 C   0  0  0  0  0  0  0  0  0  0  0  0
    2.2432  -15.6019    0.0000 C   0  0  0  0  0  0  0  0  0  0  0  0
    0.7500  -15.7444    0.0000 C   0  0  0  0  0  0  0  0  0  0  0  0
   -0.7500  -15.7444    0.0000 C   0  0  0  0  0  0  0  0  0  0  0  0
   -2.2432  -15.6019    0.0000 C   0  0  0  0  0  0  0  0  0  0  0  0
   -3.7161  -15.3180    0.0000 C   0  0  0  0  0  0  0  0  0  0  0  0
   -5.1553  -14.8954    0.0000 C   0  0  0  0  0  0  0  0  0  0  0  0
   -6.5479  -14.3379    0.0000 C   0  0  0  0  0  0  0  0  0  0  0  0
   -7.8811  -13.6505    0.0000 C   0  0  0  0  0  0  0  0  0  0  0  0
   -9.1430  -12.8396    0.0000 C   0  0  0  0  0  0  0  0  0  0  0  0
  -10.3221  -11.9123    0.0000 C   0  0  0  0  0  0  0  0  0  0  0  0
  -11.4077  -10.8772    0.0000 C   0  0  0  0  0  0  0  0  0  0  0  0
  -12.3900   -9.7436    0.0000 C   0  0  0  0  0  0  0  0  0  0  0  0
  -13.2601   -8.5217    0.0000 C   0  0  0  0  0  0  0  0  0  0  0  0
  -14.0101   -7.2227    0.0000 C   0  0  0  0  0  0  0  0  0  0  0  0
  -14.6332   -5.8583    0.0000 C   0  0  0  0  0  0  0  0  0  0  0  0
  -15.1238   -4.4408    0.0000 C   0  0  0  0  0  0  0  0  0  0  0  0
  -15.4774   -2.9830    0.0000 C   0  0  0  0  0  0  0  0  0  0  0  0
  -15.6909   -1.4983    0.0000 C   0  0  0  0  0  0  0  0  0  0  0  0
  -15.7623    0.0000    0.0000 C   0  0  0  0  0  0  0  0  0  0  0  0
  -15.6909    1.4983    0.0000 C   0  0  0  0  0  0  0  0  0  0  0  0
  -15.4774    2.9830    0.0000 C   0  0  0  0  0  0  0  0  0  0  0  0
  -15.1238    4.4408    0.0000 C   0  0  0  0  0  0  0  0  0  0  0  0
  -14.6332    5.8583    0.0000 C   0  0  0  0  0  0  0  0  0  0  0  0
  -14.0101    7.2227    0.0000 C   0  0  0  0  0  0  0  0  0  0  0  0
  -13.2601    8.5217    0.0000 C   0  0  0  0  0  0  0  0  0  0  0  0
  -12.3900    9.7436    0.0000 C   0  0  0  0  0  0  0  0  0  0  0  0
  -11.4077   10.8772    0.0000 C   0  0  0  0  0  0  0  0  0  0  0  0
  -10.3221   11.9123    0.0000 C   0  0  0  0  0  0  0  0  0  0  0  0
   -9.1430   12.8396    0.0000 C   0  0  0  0  0  0  0  0  0  0  0  0
   -7.8811   13.6505    0.0000 C   0  0  0  0  0  0  0  0  0  0  0  0
   -6.5479   14.3379    0.0000 C   0  0  0  0  0  0  0  0  0  0  0  0
   -5.1553   14.8954    0.0000 C   0  0  0  0  0  0  0  0  0  0  0  0
   -3.7161   15.3180    0.0000 C   0  0  0  0  0  0  0  0  0  0  0  0
   -2.2432   15.6019    0.0000 C   0  0  0  0  0  0  0  0  0  0  0  0
   -0.7500   15.7444    0.0000 C   0  0  0  0  0  0  0  0  0  0  0  0
    0.7500   15.7444    0.0000 C   0  0  0  0  0  0  0  0  0  0  0  0
    2.2432   15.6019    0.0000 C   0  0  0  0  0  0  0  0  0  0  0  0
    3.7161   15.3180    0.0000 C   0  0  0  0  0  0  0  0  0  0  0  0
    5.1553   14.8954    0.0000 C   0  0  0  0  0  0  0  0  0  0  0  0
    6.5479   14.3379    0.0000 C   0  0  0  0  0  0  0  0  0  0  0  0
    7.8811   13.6505    0.0000 C   0  0  0  0  0  0  0  0  0  0  0  0
    9.1430   12.8396    0.0000 C   0  0  0  0  0  0  0  0  0  0  0  0
   10.3221   11.9123    0.0000 C   0  0  0  0  0  0  0  0  0  0  0  0
   11.4077   10.8772    0.0000 C   0  0  0  0  0  0  0  0  0  0  0  0
   12.3900    9.7436    0.0000 C   0  0  0  0  0  0  0  0  0  0  0  0
   13.8832    9.8862    0.0000 C   0  0  0  0  0  0  0  0  0  0  0  0
   15.1051   10.7563    0.0000 O   0  0  0  0  0  0  0  0  0  0  0  0
   13.2601    8.5217    0.0000 C   0  0  0  0  0  0  0  0  0  0  0  0
   14.0101    7.2227    0.0000 C   0  0  0  0  0  0  0  0  0  0  0  0
   14.6332    5.8583    0.0000 C   0  0  0  0  0  0  0  0  0  0  0  0
   15.1238    4.4408    0.0000 C   0  0  0  0  0  0  0  0  0  0  0  0
   15.4774    2.9830    0.0000 C   0  0  0  0  0  0  0  0  0  0  0  0
   15.6909    1.4983    0.0000 C   0  0  0  0  0  0  0  0  0  0  0  0
  1  2  1  0
  2  3  2  0
  3  4  1  0
  4  5  2  0
  5  6  1  0
  6  7  2  0
  7  8  1  0
  8  9  2  0
  9 10  1  0
 10 11  2  0
 11 12  1  0
 12 13  2  0
 13 14  1  0
 14 15  2  0
 15 16  1  0
 16 17  2  0
 17 18  1  0
 18 19  2  0
 19 20  1  0
 20 21  2  0
 21 22  1  0
 22 23  2  0
 23 24  1  0
 24 25  2  0
 25 26  1  0
 26 27  2  0
 27 28  1  0
 28 29  2  0
 29 30  1  0
 30 31  2  0
 31 32  1  0
 32 33  2  0
 33 34  1  0
 34 35  2  0
 35 36  1  0
 36 37  2  0
 37 38  1  0
 38 39  2  0
 39 40  1  0
 40 41  2  0
 41 42  1  0
 42 43  2  0
 43 44  1  0
 44 45  2  0
 45 46  1  0
 46 47  2  0
 47 48  1  0
 48 49  2  0
 49 50  1  0
 50 51  2  0
 51 52  1  0
 52 53  2  0
 53 54  1  0
 54 55  2  0
 55 56  1  0
 56 57  2  0
 57 58  1  0
 58 59  2  0
 59 60  1  0
 60 61  2  0
 61 62  1  0
 62 63  2  0
 62 64  1  0
 64 65  2  0
 65 66  1  0
 66 67  2  0
 67 68  1  0
 68 69  2  0
 69  2  1  0
 64 61  1  0
M  END
>  <Title>  (583) 
idAAUMgen10

$$$$

     RDKit          2D

  9  9  0  0  0  0  0  0  0  0999 V2000
    3.7500    1.2990    0.0000 C   0  0  0  0  0  0  0  0  0  0  0  0
    3.0000    0.0000    0.0000 C   0  0  0  0  0  0  0  0  0  0  0  0
    3.7500   -1.2990    0.0000 C   0  0  0  0  0  0  0  0  0  0  0  0
    1.5000    0.0000    0.0000 C   0  0  0  0  0  0  0  0  0  0  0  0
    0.7500   -1.2990    0.0000 C   0  0  0  0  0  0  0  0  0  0  0  0
   -0.7500   -1.2990    0.0000 C   0  0  0  0  0  0  0  0  0  0  0  0
   -1.5000    0.0000    0.0000 C   0  0  0  0  0  0  0  0  0  0  0  0
   -0.7500    1.2990    0.0000 C   0  0  0  0  0  0  0  0  0  0  0  0
    0.7500    1.2990    0.0000 C   0  0  0  0  0  0  0  0  0  0  0  0
  1  2  2  0
  2  3  1  0
  2  4  1  0
  4  5  2  0
  5  6  1  0
  6  7  2  0
  7  8  1  0
  8  9  2  0
  9  4  1  0
M  END
>  <Title>  (584) 
idAAUNgen10

$$$$

     RDKit          2D

 28 32  0  0  0  0  0  0  0  0999 V2000
   -1.1382   -8.3460    0.0000 C   0  0  0  0  0  0  0  0  0  0  0  0
   -0.7500   -6.8971    0.0000 C   0  0  0  0  0  0  0  0  0  0  0  0
    0.7500   -6.8971    0.0000 C   0  0  0  0  0  0  0  0  0  0  0  0
    2.0490   -6.1471    0.0000 C   0  0  0  0  0  0  0  0  0  0  0  0
    2.7990   -4.8481    0.0000 C   0  0  0  0  0  0  0  0  0  0  0  0
    2.7990   -3.3481    0.0000 C   0  0  0  0  0  0  0  0  0  0  0  0
    4.2663   -3.0362    0.0000 C   0  0  0  0  0  0  0  0  0  0  0  0
    4.4231   -1.5444    0.0000 C   0  0  0  0  0  0  0  0  0  0  0  0
    3.0527   -0.9343    0.0000 C   0  0  0  0  0  0  0  0  0  0  0  0
    2.0490   -2.0490    0.0000 C   0  0  0  0  0  0  0  0  0  0  0  0
    0.7500   -1.2990    0.0000 C   0  0  0  0  0  0  0  0  0  0  0  0
    1.5000    0.0000    0.0000 C   0  0  0  0  0  0  0  0  0  0  0  0
    0.7500    1.2990    0.0000 C   0  0  0  0  0  0  0  0  0  0  0  0
   -0.7500    1.2990    0.0000 C   0  0  0  0  0  0  0  0  0  0  0  0
   -1.5000    0.0000    0.0000 C   0  0  0  0  0  0  0  0  0  0  0  0
   -0.7500   -1.2990    0.0000 C   0  0  0  0  0  0  0  0  0  0  0  0
   -2.0490   -2.0490    0.0000 C   0  0  0  0  0  0  0  0  0  0  0  0
   -2.7990   -0.7500    0.0000 C   0  0  0  0  0  0  0  0  0  0  0  0
   -4.2990   -0.7500    0.0000 C   0  0  0  0  0  0  0  0  0  0  0  0
   -5.0490   -2.0490    0.0000 C   0  0  0  0  0  0  0  0  0  0  0  0
   -4.2990   -3.3481    0.0000 C   0  0  0  0  0  0  0  0  0  0  0  0
   -2.7990   -3.3481    0.0000 C   0  0  0  0  0  0  0  0  0  0  0  0
   -2.7990   -4.8481    0.0000 C   0  0  0  0  0  0  0  0  0  0  0  0
   -4.2990   -4.8481    0.0000 C   0  0  0  0  0  0  0  0  0  0  0  0
   -5.0490   -6.1471    0.0000 C   0  0  0  0  0  0  0  0  0  0  0  0
   -4.2990   -7.4462    0.0000 C   0  0  0  0  0  0  0  0  0  0  0  0
   -2.7990   -7.4462    0.0000 C   0  0  0  0  0  0  0  0  0  0  0  0
   -2.0490   -6.1471    0.0000 C   0  0  0  0  0  0  0  0  0  0  0  0
  1  2  1  0
  2  3  2  0
  3  4  1  0
  4  5  1  0
  5  6  2  0
  6  7  1  0
  7  8  2  0
  8  9  1  0
  9 10  2  0
 10 11  1  0
 11 12  2  0
 12 13  1  0
 13 14  2  0
 14 15  1  0
 15 16  2  0
 16 17  1  0
 17 18  2  0
 18 19  1  0
 19 20  2  0
 20 21  1  0
 21 22  2  0
 22 23  1  0
 23 24  2  0
 24 25  1  0
 25 26  2  0
 26 27  1  0
 27 28  2  0
 28  2  1  0
 10  6  1  0
 16 11  1  0
 22 17  1  0
 28 23  1  0
M  END
>  <Title>  (585) 
idAAUOgen10

$$$$

     RDKit          2D

 12 12  0  0  0  0  0  0  0  0999 V2000
    2.2500   -3.8971    0.0000 C   0  0  0  0  0  0  0  0  0  0  0  0
    3.0000   -2.5981    0.0000 C   0  0  0  0  0  0  0  0  0  0  0  0
    3.7500   -1.2990    0.0000 C   0  0  0  0  0  0  0  0  0  0  0  0
    5.2500   -1.2990    0.0000 C   0  0  0  0  0  0  0  0  0  0  0  0
    3.0000    0.0000    0.0000 C   0  0  0  0  0  0  0  0  0  0  0  0
    1.5000    0.0000    0.0000 C   0  0  0  0  0  0  0  0  0  0  0  0
    0.7500   -1.2990    0.0000 C   0  0  0  0  0  0  0  0  0  0  0  0
   -0.7500   -1.2990    0.0000 C   0  0  0  0  0  0  0  0  0  0  0  0
   -1.5000    0.0000    0.0000 C   0  0  0  0  0  0  0  0  0  0  0  0
   -0.7500    1.2990    0.0000 C   0  0  0  0  0  0  0  0  0  0  0  0
    0.7500    1.2990    0.0000 C   0  0  0  0  0  0  0  0  0  0  0  0
    1.5000    2.5981    0.0000 C   0  0  0  0  0  0  0  0  0  0  0  0
  1  2  3  0
  2  3  1  0
  3  4  1  0
  3  5  2  3
  5  6  1  0
  6  7  2  0
  7  8  1  0
  8  9  2  0
  9 10  1  0
 10 11  2  0
 11 12  1  0
 11  6  1  0
M  END
>  <Title>  (586) 
idAAUPgen10

$$$$

     RDKit          2D

102103  0  0  0  0  0  0  0  0999 V2000
    7.3081    4.3381    0.0000 C   0  0  0  0  0  0  0  0  0  0  0  0
    8.1003    4.4272    0.0000 C   0  0  0  0  0  0  0  0  0  0  0  0
    8.0039    5.9240    0.0000 C   0  0  0  0  0  0  0  0  0  0  0  0
    8.0502    7.4233    0.0000 C   0  0  0  0  0  0  0  0  0  0  0  0
    8.2388    8.9114    0.0000 C   0  0  0  0  0  0  0  0  0  0  0  0
    8.5680   10.3749    0.0000 C   0  0  0  0  0  0  0  0  0  0  0  0
    9.0348   11.8004    0.0000 C   0  0  0  0  0  0  0  0  0  0  0  0
    9.6350   13.1750    0.0000 C   0  0  0  0  0  0  0  0  0  0  0  0
   10.3632   14.4864    0.0000 C   0  0  0  0  0  0  0  0  0  0  0  0
   11.2127   15.7227    0.0000 C   0  0  0  0  0  0  0  0  0  0  0  0
   12.1759   16.8726    0.0000 C   0  0  0  0  0  0  0  0  0  0  0  0
   13.2441   17.9257    0.0000 C   0  0  0  0  0  0  0  0  0  0  0  0
   14.4075   18.8725    0.0000 C   0  0  0  0  0  0  0  0  0  0  0  0
   15.6556   19.7045    0.0000 C   0  0  0  0  0  0  0  0  0  0  0  0
   16.9772   20.4140    0.0000 C   0  0  0  0  0  0  0  0  0  0  0  0
   18.3602   20.9947    0.0000 C   0  0  0  0  0  0  0  0  0  0  0  0
   19.7922   21.4413    0.0000 C   0  0  0  0  0  0  0  0  0  0  0  0
   21.2601   21.7498    0.0000 C   0  0  0  0  0  0  0  0  0  0  0  0
   22.7507   21.9173    0.0000 C   0  0  0  0  0  0  0  0  0  0  0  0
   24.2505   21.9424    0.0000 C   0  0  0  0  0  0  0  0  0  0  0  0
   25.7459   21.8248    0.0000 C   0  0  0  0  0  0  0  0  0  0  0  0
   27.2234   21.5656    0.0000 C   0  0  0  0  0  0  0  0  0  0  0  0
   28.6695   21.1672    0.0000 C   0  0  0  0  0  0  0  0  0  0  0  0
   30.0711   20.6330    0.0000 C   0  0  0  0  0  0  0  0  0  0  0  0
   31.4157   19.9681    0.0000 C   0  0  0  0  0  0  0  0  0  0  0  0
   32.6910   19.1783    0.0000 C   0  0  0  0  0  0  0  0  0  0  0  0
   33.8854   18.2709    0.0000 C   0  0  0  0  0  0  0  0  0  0  0  0
   34.9881   17.2541    0.0000 C   0  0  0  0  0  0  0  0  0  0  0  0
   35.9893   16.1371    0.0000 C   0  0  0  0  0  0  0  0  0  0  0  0
   36.8797   14.9299    0.0000 C   0  0  0  0  0  0  0  0  0  0  0  0
   37.6513   13.6436    0.0000 C   0  0  0  0  0  0  0  0  0  0  0  0
   38.2971   12.2898    0.0000 C   0  0  0  0  0  0  0  0  0  0  0  0
   38.8114   10.8807    0.0000 C   0  0  0  0  0  0  0  0  0  0  0  0
   39.1893    9.4291    0.0000 C   0  0  0  0  0  0  0  0  0  0  0  0
   39.4276    7.9481    0.0000 C   0  0  0  0  0  0  0  0  0  0  0  0
   39.5240    6.4512    0.0000 C   0  0  0  0  0  0  0  0  0  0  0  0
   39.4777    4.9520    0.0000 C   0  0  0  0  0  0  0  0  0  0  0  0
   39.2891    3.4639    0.0000 C   0  0  0  0  0  0  0  0  0  0  0  0
   38.9599    2.0004    0.0000 C   0  0  0  0  0  0  0  0  0  0  0  0
   38.4931    0.5749    0.0000 C   0  0  0  0  0  0  0  0  0  0  0  0
   37.8929   -0.7997    0.0000 C   0  0  0  0  0  0  0  0  0  0  0  0
   37.1647   -2.1111    0.0000 C   0  0  0  0  0  0  0  0  0  0  0  0
   36.3152   -3.3474    0.0000 C   0  0  0  0  0  0  0  0  0  0  0  0
   35.3520   -4.4973    0.0000 C   0  0  0  0  0  0  0  0  0  0  0  0
   34.2838   -5.5504    0.0000 C   0  0  0  0  0  0  0  0  0  0  0  0
   33.1204   -6.4972    0.0000 C   0  0  0  0  0  0  0  0  0  0  0  0
   31.8723   -7.3292    0.0000 C   0  0  0  0  0  0  0  0  0  0  0  0
   30.5507   -8.0387    0.0000 C   0  0  0  0  0  0  0  0  0  0  0  0
   29.1677   -8.6194    0.0000 C   0  0  0  0  0  0  0  0  0  0  0  0
   27.7357   -9.0660    0.0000 C   0  0  0  0  0  0  0  0  0  0  0  0
   26.2678   -9.3745    0.0000 C   0  0  0  0  0  0  0  0  0  0  0  0
   24.7771   -9.5420    0.0000 C   0  0  0  0  0  0  0  0  0  0  0  0
   23.2773   -9.5671    0.0000 C   0  0  0  0  0  0  0  0  0  0  0  0
   21.7820   -9.4495    0.0000 C   0  0  0  0  0  0  0  0  0  0  0  0
   20.3045   -9.1903    0.0000 C   0  0  0  0  0  0  0  0  0  0  0  0
   18.8584   -8.7919    0.0000 C   0  0  0  0  0  0  0  0  0  0  0  0
   17.4567   -8.2577    0.0000 C   0  0  0  0  0  0  0  0  0  0  0  0
   16.1122   -7.5928    0.0000 C   0  0  0  0  0  0  0  0  0  0  0  0
   14.8369   -6.8030    0.0000 C   0  0  0  0  0  0  0  0  0  0  0  0
   13.6425   -5.8957    0.0000 C   0  0  0  0  0  0  0  0  0  0  0  0
   12.5397   -4.8788    0.0000 C   0  0  0  0  0  0  0  0  0  0  0  0
   11.5386   -3.7618    0.0000 C   0  0  0  0  0  0  0  0  0  0  0  0
   10.6482   -2.5547    0.0000 C   0  0  0  0  0  0  0  0  0  0  0  0
    9.8766   -1.2683    0.0000 C   0  0  0  0  0  0  0  0  0  0  0  0
    9.2308    0.0855    0.0000 C   0  0  0  0  0  0  0  0  0  0  0  0
    8.7165    1.4946    0.0000 C   0  0  0  0  0  0  0  0  0  0  0  0
    8.1437   -0.0000    0.0000 C   0  0  0  0  0  0  0  0  0  0  0  0
    8.0266   -1.3763    0.0000 C   0  0  0  0  0  0  0  0  0  0  0  0
    7.6785   -2.7130    0.0000 C   0  0  0  0  0  0  0  0  0  0  0  0
    7.1096   -3.9717    0.0000 C   0  0  0  0  0  0  0  0  0  0  0  0
    6.3361   -5.1160    0.0000 C   0  0  0  0  0  0  0  0  0  0  0  0
    5.3804   -6.1133    0.0000 C   0  0  0  0  0  0  0  0  0  0  0  0
    4.2698   -6.9346    0.0000 C   0  0  0  0  0  0  0  0  0  0  0  0
    3.0364   -7.5565    0.0000 C   0  0  0  0  0  0  0  0  0  0  0  0
    1.7157   -7.9609    0.0000 C   0  0  0  0  0  0  0  0  0  0  0  0
    0.3456   -8.1364    0.0000 C   0  0  0  0  0  0  0  0  0  0  0  0
   -1.0344   -8.0778    0.0000 C   0  0  0  0  0  0  0  0  0  0  0  0
   -2.3847   -7.7868    0.0000 C   0  0  0  0  0  0  0  0  0  0  0  0
   -3.6663   -7.2717    0.0000 C   0  0  0  0  0  0  0  0  0  0  0  0
   -4.8425   -6.5475    0.0000 C   0  0  0  0  0  0  0  0  0  0  0  0
   -5.8794   -5.6350    0.0000 C   0  0  0  0  0  0  0  0  0  0  0  0
   -6.7472   -4.5603    0.0000 C   0  0  0  0  0  0  0  0  0  0  0  0
   -7.4208   -3.3544    0.0000 C   0  0  0  0  0  0  0  0  0  0  0  0
   -7.8809   -2.0520    0.0000 C   0  0  0  0  0  0  0  0  0  0  0  0
   -8.1144   -0.6906    0.0000 C   0  0  0  0  0  0  0  0  0  0  0  0
   -8.1144    0.6906    0.0000 C   0  0  0  0  0  0  0  0  0  0  0  0
   -7.8809    2.0520    0.0000 C   0  0  0  0  0  0  0  0  0  0  0  0
   -7.4208    3.3544    0.0000 C   0  0  0  0  0  0  0  0  0  0  0  0
   -6.7472    4.5603    0.0000 C   0  0  0  0  0  0  0  0  0  0  0  0
   -5.8794    5.6350    0.0000 C   0  0  0  0  0  0  0  0  0  0  0  0
   -4.8425    6.5475    0.0000 C   0  0  0  0  0  0  0  0  0  0  0  0
   -3.6663    7.2717    0.0000 C   0  0  0  0  0  0  0  0  0  0  0  0
   -2.3847    7.7868    0.0000 C   0  0  0  0  0  0  0  0  0  0  0  0
   -1.0344    8.0778    0.0000 C   0  0  0  0  0  0  0  0  0  0  0  0
    0.3456    8.1364    0.0000 C   0  0  0  0  0  0  0  0  0  0  0  0
    1.7157    7.9609    0.0000 C   0  0  0  0  0  0  0  0  0  0  0  0
    3.0364    7.5565    0.0000 C   0  0  0  0  0  0  0  0  0  0  0  0
    4.2698    6.9346    0.0000 C   0  0  0  0  0  0  0  0  0  0  0  0
    5.3804    6.1133    0.0000 C   0  0  0  0  0  0  0  0  0  0  0  0
    6.3361    5.1160    0.0000 C   0  0  0  0  0  0  0  0  0  0  0  0
    7.1096    3.9717    0.0000 C   0  0  0  0  0  0  0  0  0  0  0  0
    8.3385    2.9462    0.0000 C   0  0  0  0  0  0  0  0  0  0  0  0
  1  2  1  0
  2  3  1  0
  3  4  1  0
  4  5  1  0
  5  6  1  0
  6  7  1  0
  7  8  1  0
  8  9  1  0
  9 10  1  0
 10 11  1  0
 11 12  1  0
 12 13  1  0
 13 14  1  0
 14 15  1  0
 15 16  1  0
 16 17  1  0
 17 18  1  0
 18 19  1  0
 19 20  1  0
 20 21  1  0
 21 22  1  0
 22 23  1  0
 23 24  1  0
 24 25  1  0
 25 26  1  0
 26 27  1  0
 27 28  1  0
 28 29  1  0
 29 30  1  0
 30 31  1  0
 31 32  1  0
 32 33  1  0
 33 34  1  0
 34 35  1  0
 35 36  1  0
 36 37  1  0
 37 38  1  0
 38 39  1  0
 39 40  1  0
 40 41  1  0
 41 42  1  0
 42 43  1  0
 43 44  1  0
 44 45  1  0
 45 46  1  0
 46 47  1  0
 47 48  1  0
 48 49  1  0
 49 50  1  0
 50 51  1  0
 51 52  1  0
 52 53  1  0
 53 54  1  0
 54 55  1  0
 55 56  1  0
 56 57  1  0
 57 58  1  0
 58 59  1  0
 59 60  1  0
 60 61  1  0
 61 62  1  0
 62 63  1  0
 63 64  1  0
 64 65  1  0
 65 66  1  0
 66 67  1  0
 67 68  1  0
 68 69  1  0
 69 70  1  0
 70 71  1  0
 71 72  1  0
 72 73  1  0
 73 74  1  0
 74 75  1  0
 75 76  1  0
 76 77  1  0
 77 78  1  0
 78 79  1  0
 79 80  1  0
 80 81  1  0
 81 82  1  0
 82 83  1  0
 83 84  1  0
 84 85  1  0
 85 86  1  0
 86 87  1  0
 87 88  1  0
 88 89  1  0
 89 90  1  0
 90 91  1  0
 91 92  2  0
 92 93  1  0
 93 94  2  0
 94 95  1  0
 95 96  2  0
 96 97  1  0
 97 98  2  0
 98 99  1  0
 99100  2  0
100101  1  0
101102  2  0
102  2  1  0
102 66  1  0
M  END
>  <Title>  (587) 
idAAUQgen10

$$$$

     RDKit          2D

 65 75  0  0  0  0  0  0  0  0999 V2000
    6.6944   -4.2229    0.0000 C   0  0  0  0  0  0  0  0  0  0  0  0
    5.3086   -4.7970    0.0000 C   0  0  0  0  0  0  0  0  0  0  0  0
    4.5586   -3.4979    0.0000 N   0  0  0  0  0  0  0  0  0  0  0  0
    3.4979   -2.4373    0.0000 N   0  0  0  0  0  0  0  0  0  0  0  0
    2.1989   -1.6873    0.0000 N   0  0  0  0  0  0  0  0  0  0  0  0
    0.7500   -1.2990    0.0000 N   0  0  0  0  0  0  0  0  0  0  0  0
    1.5000    0.0000    0.0000 C   0  0  0  0  0  0  0  0  0  0  0  0
    0.7500    1.2990    0.0000 C   0  0  0  0  0  0  0  0  0  0  0  0
   -0.7500    1.2990    0.0000 C   0  0  0  0  0  0  0  0  0  0  0  0
   -1.5000    0.0000    0.0000 C   0  0  0  0  0  0  0  0  0  0  0  0
   -0.7500   -1.2990    0.0000 C   0  0  0  0  0  0  0  0  0  0  0  0
   -2.1989   -1.6873    0.0000 C   0  0  0  0  0  0  0  0  0  0  0  0
   -2.1989   -0.1873    0.0000 C   0  0  0  0  0  0  0  0  0  0  0  0
   -3.4979    0.5627    0.0000 C   0  0  0  0  0  0  0  0  0  0  0  0
   -4.7970   -0.1873    0.0000 C   0  0  0  0  0  0  0  0  0  0  0  0
   -4.7970   -1.6873    0.0000 C   0  0  0  0  0  0  0  0  0  0  0  0
   -3.4979   -2.4373    0.0000 C   0  0  0  0  0  0  0  0  0  0  0  0
   -4.5586   -3.4979    0.0000 C   0  0  0  0  0  0  0  0  0  0  0  0
   -5.3086   -2.1989    0.0000 C   0  0  0  0  0  0  0  0  0  0  0  0
   -6.8086   -2.1989    0.0000 C   0  0  0  0  0  0  0  0  0  0  0  0
   -7.5586   -3.4979    0.0000 C   0  0  0  0  0  0  0  0  0  0  0  0
   -6.8086   -4.7970    0.0000 C   0  0  0  0  0  0  0  0  0  0  0  0
   -5.3086   -4.7970    0.0000 C   0  0  0  0  0  0  0  0  0  0  0  0
   -5.6968   -6.2459    0.0000 C   0  0  0  0  0  0  0  0  0  0  0  0
   -6.9959   -5.4959    0.0000 C   0  0  0  0  0  0  0  0  0  0  0  0
   -8.2949   -6.2459    0.0000 C   0  0  0  0  0  0  0  0  0  0  0  0
   -8.2949   -7.7459    0.0000 C   0  0  0  0  0  0  0  0  0  0  0  0
   -6.9959   -8.4959    0.0000 C   0  0  0  0  0  0  0  0  0  0  0  0
   -5.6968   -7.7459    0.0000 C   0  0  0  0  0  0  0  0  0  0  0  0
   -5.3086   -9.1947    0.0000 C   0  0  0  0  0  0  0  0  0  0  0  0
   -6.8086   -9.1947    0.0000 C   0  0  0  0  0  0  0  0  0  0  0  0
   -7.5586  -10.4938    0.0000 C   0  0  0  0  0  0  0  0  0  0  0  0
   -6.8086  -11.7928    0.0000 C   0  0  0  0  0  0  0  0  0  0  0  0
   -5.3086  -11.7928    0.0000 C   0  0  0  0  0  0  0  0  0  0  0  0
   -4.5586  -10.4938    0.0000 C   0  0  0  0  0  0  0  0  0  0  0  0
   -3.4979  -11.5544    0.0000 C   0  0  0  0  0  0  0  0  0  0  0  0
   -4.7970  -12.3044    0.0000 C   0  0  0  0  0  0  0  0  0  0  0  0
   -4.7970  -13.8044    0.0000 C   0  0  0  0  0  0  0  0  0  0  0  0
   -3.4979  -14.5544    0.0000 C   0  0  0  0  0  0  0  0  0  0  0  0
   -2.1989  -13.8044    0.0000 C   0  0  0  0  0  0  0  0  0  0  0  0
   -2.1989  -12.3044    0.0000 C   0  0  0  0  0  0  0  0  0  0  0  0
   -0.7500  -12.6927    0.0000 C   0  0  0  0  0  0  0  0  0  0  0  0
   -1.5000  -13.9917    0.0000 C   0  0  0  0  0  0  0  0  0  0  0  0
   -0.7500  -15.2907    0.0000 C   0  0  0  0  0  0  0  0  0  0  0  0
    0.7500  -15.2907    0.0000 C   0  0  0  0  0  0  0  0  0  0  0  0
    1.5000  -13.9917    0.0000 C   0  0  0  0  0  0  0  0  0  0  0  0
    0.7500  -12.6927    0.0000 C   0  0  0  0  0  0  0  0  0  0  0  0
    2.1989  -12.3044    0.0000 C   0  0  0  0  0  0  0  0  0  0  0  0
    2.1989  -13.8044    0.0000 C   0  0  0  0  0  0  0  0  0  0  0  0
    3.4979  -14.5544    0.0000 C   0  0  0  0  0  0  0  0  0  0  0  0
    4.7970  -13.8044    0.0000 C   0  0  0  0  0  0  0  0  0  0  0  0
    4.7970  -12.3044    0.0000 C   0  0  0  0  0  0  0  0  0  0  0  0
    3.4979  -11.5544    0.0000 C   0  0  0  0  0  0  0  0  0  0  0  0
    4.5586  -10.4938    0.0000 C   0  0  0  0  0  0  0  0  0  0  0  0
    5.3086  -11.7928    0.0000 C   0  0  0  0  0  0  0  0  0  0  0  0
    6.8086  -11.7928    0.0000 C   0  0  0  0  0  0  0  0  0  0  0  0
    7.5586  -10.4938    0.0000 C   0  0  0  0  0  0  0  0  0  0  0  0
    6.8086   -9.1947    0.0000 C   0  0  0  0  0  0  0  0  0  0  0  0
    5.3086   -9.1947    0.0000 C   0  0  0  0  0  0  0  0  0  0  0  0
    5.6968   -7.7459    0.0000 C   0  0  0  0  0  0  0  0  0  0  0  0
    6.9959   -8.4959    0.0000 C   0  0  0  0  0  0  0  0  0  0  0  0
    8.2949   -7.7459    0.0000 C   0  0  0  0  0  0  0  0  0  0  0  0
    8.2949   -6.2459    0.0000 C   0  0  0  0  0  0  0  0  0  0  0  0
    6.9959   -5.4959    0.0000 C   0  0  0  0  0  0  0  0  0  0  0  0
    5.6968   -6.2459    0.0000 C   0  0  0  0  0  0  0  0  0  0  0  0
  1  2  1  0
  2  3  2  0
  3  4  1  0
  4  5  2  0
  5  6  1  0
  6  7  1  0
  7  8  1  0
  8  9  2  0
  9 10  1  0
 10 11  2  0
 11 12  1  0
 12 13  2  0
 13 14  1  0
 14 15  2  0
 15 16  1  0
 16 17  2  0
 17 18  1  0
 18 19  2  0
 19 20  1  0
 20 21  2  0
 21 22  1  0
 22 23  2  0
 23 24  1  0
 24 25  2  0
 25 26  1  0
 26 27  2  0
 27 28  1  0
 28 29  2  0
 29 30  1  0
 30 31  2  0
 31 32  1  0
 32 33  2  0
 33 34  1  0
 34 35  2  0
 35 36  1  0
 36 37  2  0
 37 38  1  0
 38 39  2  0
 39 40  1  0
 40 41  2  0
 41 42  1  0
 42 43  2  0
 43 44  1  0
 44 45  2  0
 45 46  1  0
 46 47  2  0
 47 48  1  0
 48 49  2  0
 49 50  1  0
 50 51  2  0
 51 52  1  0
 52 53  2  0
 53 54  1  0
 54 55  2  0
 55 56  1  0
 56 57  2  0
 57 58  1  0
 58 59  2  0
 59 60  1  0
 60 61  2  0
 61 62  1  0
 62 63  2  0
 63 64  1  0
 64 65  2  0
 65  2  1  0
 11  6  1  0
 17 12  1  0
 23 18  1  0
 29 24  1  0
 35 30  1  0
 41 36  1  0
 47 42  1  0
 53 48  1  0
 59 54  1  0
 65 60  1  0
M  END
>  <Title>  (588) 
idAAURgen10

$$$$

     RDKit          2D

 80 81  0  0  0  0  0  0  0  0999 V2000
   -2.2088   -1.0671    0.0000 C   0  0  0  0  0  0  0  0  0  0  0  0
   -2.4923    0.4059    0.0000 C   0  0  0  0  0  0  0  0  0  0  0  0
   -3.9757    0.1835    0.0000 C   0  0  0  0  0  0  0  0  0  0  0  0
   -5.4724    0.0843    0.0000 C   0  0  0  0  0  0  0  0  0  0  0  0
   -6.9722    0.1091    0.0000 C   0  0  0  0  0  0  0  0  0  0  0  0
   -8.4648    0.2577    0.0000 C   0  0  0  0  0  0  0  0  0  0  0  0
   -9.9401    0.5290    0.0000 C   0  0  0  0  0  0  0  0  0  0  0  0
  -11.3879    0.9212    0.0000 C   0  0  0  0  0  0  0  0  0  0  0  0
  -12.7984    1.4317    0.0000 C   0  0  0  0  0  0  0  0  0  0  0  0
  -14.1619    2.0569    0.0000 C   0  0  0  0  0  0  0  0  0  0  0  0
  -15.4691    2.7925    0.0000 C   0  0  0  0  0  0  0  0  0  0  0  0
  -16.7111    3.6336    0.0000 C   0  0  0  0  0  0  0  0  0  0  0  0
  -17.8795    4.5743    0.0000 C   0  0  0  0  0  0  0  0  0  0  0  0
  -18.9661    5.6084    0.0000 C   0  0  0  0  0  0  0  0  0  0  0  0
  -19.9636    6.7286    0.0000 C   0  0  0  0  0  0  0  0  0  0  0  0
  -20.8652    7.9274    0.0000 C   0  0  0  0  0  0  0  0  0  0  0  0
  -21.6648    9.1965    0.0000 C   0  0  0  0  0  0  0  0  0  0  0  0
  -22.3568   10.5273    0.0000 C   0  0  0  0  0  0  0  0  0  0  0  0
  -22.9366   11.9108    0.0000 C   0  0  0  0  0  0  0  0  0  0  0  0
  -23.4001   13.3374    0.0000 C   0  0  0  0  0  0  0  0  0  0  0  0
  -23.7442   14.7974    0.0000 C   0  0  0  0  0  0  0  0  0  0  0  0
  -23.9666   16.2808    0.0000 C   0  0  0  0  0  0  0  0  0  0  0  0
  -24.0658   17.7775    0.0000 C   0  0  0  0  0  0  0  0  0  0  0  0
  -24.0409   19.2773    0.0000 C   0  0  0  0  0  0  0  0  0  0  0  0
  -23.8924   20.7699    0.0000 C   0  0  0  0  0  0  0  0  0  0  0  0
  -23.6211   22.2452    0.0000 C   0  0  0  0  0  0  0  0  0  0  0  0
  -23.2288   23.6930    0.0000 C   0  0  0  0  0  0  0  0  0  0  0  0
  -22.7184   25.1035    0.0000 C   0  0  0  0  0  0  0  0  0  0  0  0
  -22.0932   26.4670    0.0000 C   0  0  0  0  0  0  0  0  0  0  0  0
  -21.3576   27.7742    0.0000 C   0  0  0  0  0  0  0  0  0  0  0  0
  -20.5165   29.0162    0.0000 C   0  0  0  0  0  0  0  0  0  0  0  0
  -19.5758   30.1845    0.0000 C   0  0  0  0  0  0  0  0  0  0  0  0
  -18.5417   31.2712    0.0000 C   0  0  0  0  0  0  0  0  0  0  0  0
  -17.4215   32.2687    0.0000 C   0  0  0  0  0  0  0  0  0  0  0  0
  -16.2227   33.1703    0.0000 C   0  0  0  0  0  0  0  0  0  0  0  0
  -14.9536   33.9699    0.0000 C   0  0  0  0  0  0  0  0  0  0  0  0
  -13.6227   34.6619    0.0000 C   0  0  0  0  0  0  0  0  0  0  0  0
  -12.2393   35.2416    0.0000 C   0  0  0  0  0  0  0  0  0  0  0  0
  -10.8127   35.7052    0.0000 C   0  0  0  0  0  0  0  0  0  0  0  0
   -9.3527   36.0493    0.0000 C   0  0  0  0  0  0  0  0  0  0  0  0
   -7.8693   36.2717    0.0000 C   0  0  0  0  0  0  0  0  0  0  0  0
   -6.3726   36.3708    0.0000 C   0  0  0  0  0  0  0  0  0  0  0  0
   -4.8728   36.3460    0.0000 C   0  0  0  0  0  0  0  0  0  0  0  0
   -3.3802   36.1975    0.0000 C   0  0  0  0  0  0  0  0  0  0  0  0
   -1.9049   35.9261    0.0000 C   0  0  0  0  0  0  0  0  0  0  0  0
   -0.4571   35.5339    0.0000 C   0  0  0  0  0  0  0  0  0  0  0  0
    0.9534   35.0235    0.0000 C   0  0  0  0  0  0  0  0  0  0  0  0
    2.3169   34.3983    0.0000 C   0  0  0  0  0  0  0  0  0  0  0  0
    3.6241   33.6627    0.0000 C   0  0  0  0  0  0  0  0  0  0  0  0
    4.8661   32.8216    0.0000 C   0  0  0  0  0  0  0  0  0  0  0  0
    6.0345   31.8808    0.0000 C   0  0  0  0  0  0  0  0  0  0  0  0
    7.1211   30.8468    0.0000 C   0  0  0  0  0  0  0  0  0  0  0  0
    8.1186   29.7266    0.0000 C   0  0  0  0  0  0  0  0  0  0  0  0
    9.0202   28.5278    0.0000 C   0  0  0  0  0  0  0  0  0  0  0  0
    9.8198   27.2587    0.0000 C   0  0  0  0  0  0  0  0  0  0  0  0
   10.5118   25.9278    0.0000 C   0  0  0  0  0  0  0  0  0  0  0  0
   11.0916   24.5444    0.0000 C   0  0  0  0  0  0  0  0  0  0  0  0
   11.5551   23.1178    0.0000 C   0  0  0  0  0  0  0  0  0  0  0  0
   11.8992   21.6578    0.0000 C   0  0  0  0  0  0  0  0  0  0  0  0
   12.1216   20.1744    0.0000 C   0  0  0  0  0  0  0  0  0  0  0  0
   12.2207   18.6777    0.0000 C   0  0  0  0  0  0  0  0  0  0  0  0
   12.1959   17.1779    0.0000 C   0  0  0  0  0  0  0  0  0  0  0  0
   12.0474   15.6852    0.0000 C   0  0  0  0  0  0  0  0  0  0  0  0
   11.7761   14.2100    0.0000 C   0  0  0  0  0  0  0  0  0  0  0  0
   11.3838   12.7622    0.0000 C   0  0  0  0  0  0  0  0  0  0  0  0
   10.8734   11.3517    0.0000 C   0  0  0  0  0  0  0  0  0  0  0  0
   10.2482    9.9882    0.0000 C   0  0  0  0  0  0  0  0  0  0  0  0
    9.5126    8.6810    0.0000 C   0  0  0  0  0  0  0  0  0  0  0  0
    8.6715    7.4389    0.0000 C   0  0  0  0  0  0  0  0  0  0  0  0
    7.7308    6.2706    0.0000 C   0  0  0  0  0  0  0  0  0  0  0  0
    6.6967    5.1840    0.0000 C   0  0  0  0  0  0  0  0  0  0  0  0
    5.5765    4.1865    0.0000 C   0  0  0  0  0  0  0  0  0  0  0  0
    4.3777    3.2848    0.0000 C   0  0  0  0  0  0  0  0  0  0  0  0
    3.1086    2.4853    0.0000 C   0  0  0  0  0  0  0  0  0  0  0  0
    1.7777    1.7933    0.0000 C   0  0  0  0  0  0  0  0  0  0  0  0
    0.3943    1.2135    0.0000 C   0  0  0  0  0  0  0  0  0  0  0  0
    1.2760    0.0000    0.0000 C   0  0  0  0  0  0  0  0  0  0  0  0
    0.3943   -1.2135    0.0000 C   0  0  0  0  0  0  0  0  0  0  0  0
   -1.0323   -0.7500    0.0000 C   0  0  0  0  0  0  0  0  0  0  0  0
   -1.0323    0.7500    0.0000 C   0  0  0  0  0  0  0  0  0  0  0  0
  1  2  1  0
  2  3  1  0
  3  4  2  0
  4  5  1  0
  5  6  2  0
  6  7  1  0
  7  8  2  0
  8  9  1  0
  9 10  2  0
 10 11  1  0
 11 12  2  0
 12 13  1  0
 13 14  2  0
 14 15  1  0
 15 16  2  0
 16 17  1  0
 17 18  2  0
 18 19  1  0
 19 20  2  0
 20 21  1  0
 21 22  2  0
 22 23  1  0
 23 24  2  0
 24 25  1  0
 25 26  2  0
 26 27  1  0
 27 28  2  0
 28 29  1  0
 29 30  2  0
 30 31  1  0
 31 32  2  0
 32 33  1  0
 33 34  2  0
 34 35  1  0
 35 36  2  0
 36 37  1  0
 37 38  2  0
 38 39  1  0
 39 40  2  0
 40 41  1  0
 41 42  2  0
 42 43  1  0
 43 44  2  0
 44 45  1  0
 45 46  2  0
 46 47  1  0
 47 48  2  0
 48 49  1  0
 49 50  2  0
 50 51  1  0
 51 52  2  0
 52 53  1  0
 53 54  2  0
 54 55  1  0
 55 56  2  0
 56 57  1  0
 57 58  2  0
 58 59  1  0
 59 60  2  0
 60 61  1  0
 61 62  2  0
 62 63  1  0
 63 64  2  0
 64 65  1  0
 65 66  2  0
 66 67  1  0
 67 68  2  0
 68 69  1  0
 69 70  2  0
 70 71  1  0
 71 72  2  0
 72 73  1  0
 73 74  2  0
 74 75  1  0
 75 76  2  0
 76 77  1  0
 77 78  2  0
 78 79  1  0
 79 80  2  0
 80  2  1  0
 80 76  1  0
M  END
>  <Title>  (589) 
idAAUSgen10

$$$$

     RDKit          2D

 94 97  0  0  0  0  0  0  0  0999 V2000
   -7.9790    3.8061    0.0000 C   0  0  0  0  0  0  0  0  0  0  0  0
   -7.0636    4.9945    0.0000 C   0  0  0  0  0  0  0  0  0  0  0  0
   -8.2151    5.9558    0.0000 C   0  0  0  0  0  0  0  0  0  0  0  0
   -9.2876    7.0045    0.0000 C   0  0  0  0  0  0  0  0  0  0  0  0
  -10.2745    8.1341    0.0000 C   0  0  0  0  0  0  0  0  0  0  0  0
  -11.1697    9.3376    0.0000 C   0  0  0  0  0  0  0  0  0  0  0  0
  -11.9677   10.6077    0.0000 C   0  0  0  0  0  0  0  0  0  0  0  0
  -12.6637   11.9365    0.0000 C   0  0  0  0  0  0  0  0  0  0  0  0
  -13.2532   13.3158    0.0000 C   0  0  0  0  0  0  0  0  0  0  0  0
  -13.7327   14.7371    0.0000 C   0  0  0  0  0  0  0  0  0  0  0  0
  -14.0992   16.1916    0.0000 C   0  0  0  0  0  0  0  0  0  0  0  0
  -14.3505   17.6704    0.0000 C   0  0  0  0  0  0  0  0  0  0  0  0
  -14.4850   19.1644    0.0000 C   0  0  0  0  0  0  0  0  0  0  0  0
  -14.5018   20.6643    0.0000 C   0  0  0  0  0  0  0  0  0  0  0  0
  -14.4009   22.1609    0.0000 C   0  0  0  0  0  0  0  0  0  0  0  0
  -14.1829   23.6450    0.0000 C   0  0  0  0  0  0  0  0  0  0  0  0
  -13.8491   25.1074    0.0000 C   0  0  0  0  0  0  0  0  0  0  0  0
  -13.4016   26.5391    0.0000 C   0  0  0  0  0  0  0  0  0  0  0  0
  -12.8432   27.9312    0.0000 C   0  0  0  0  0  0  0  0  0  0  0  0
  -12.1772   29.2753    0.0000 C   0  0  0  0  0  0  0  0  0  0  0  0
  -11.4079   30.5630    0.0000 C   0  0  0  0  0  0  0  0  0  0  0  0
  -10.5399   31.7863    0.0000 C   0  0  0  0  0  0  0  0  0  0  0  0
   -9.5785   32.9378    0.0000 C   0  0  0  0  0  0  0  0  0  0  0  0
   -8.5298   34.0103    0.0000 C   0  0  0  0  0  0  0  0  0  0  0  0
   -7.4002   34.9972    0.0000 C   0  0  0  0  0  0  0  0  0  0  0  0
   -6.1967   35.8924    0.0000 C   0  0  0  0  0  0  0  0  0  0  0  0
   -4.9266   36.6905    0.0000 C   0  0  0  0  0  0  0  0  0  0  0  0
   -3.5978   37.3864    0.0000 C   0  0  0  0  0  0  0  0  0  0  0  0
   -2.2185   37.9760    0.0000 C   0  0  0  0  0  0  0  0  0  0  0  0
   -0.7972   38.4555    0.0000 C   0  0  0  0  0  0  0  0  0  0  0  0
    0.6573   38.8220    0.0000 C   0  0  0  0  0  0  0  0  0  0  0  0
    2.1361   39.0732    0.0000 C   0  0  0  0  0  0  0  0  0  0  0  0
    3.6301   39.2077    0.0000 C   0  0  0  0  0  0  0  0  0  0  0  0
    5.1300   39.2245    0.0000 C   0  0  0  0  0  0  0  0  0  0  0  0
    6.6266   39.1236    0.0000 C   0  0  0  0  0  0  0  0  0  0  0  0
    8.1107   38.9056    0.0000 C   0  0  0  0  0  0  0  0  0  0  0  0
    9.5731   38.5718    0.0000 C   0  0  0  0  0  0  0  0  0  0  0  0
   11.0047   38.1243    0.0000 C   0  0  0  0  0  0  0  0  0  0  0  0
   12.3969   37.5659    0.0000 C   0  0  0  0  0  0  0  0  0  0  0  0
   13.7410   36.8999    0.0000 C   0  0  0  0  0  0  0  0  0  0  0  0
   15.0287   36.1306    0.0000 C   0  0  0  0  0  0  0  0  0  0  0  0
   16.2520   35.2626    0.0000 C   0  0  0  0  0  0  0  0  0  0  0  0
   17.4035   34.3013    0.0000 C   0  0  0  0  0  0  0  0  0  0  0  0
   18.4760   33.2526    0.0000 C   0  0  0  0  0  0  0  0  0  0  0  0
   19.4629   32.1230    0.0000 C   0  0  0  0  0  0  0  0  0  0  0  0
   20.3581   30.9194    0.0000 C   0  0  0  0  0  0  0  0  0  0  0  0
   21.1562   29.6493    0.0000 C   0  0  0  0  0  0  0  0  0  0  0  0
   21.8521   28.3205    0.0000 C   0  0  0  0  0  0  0  0  0  0  0  0
   22.4416   26.9412    0.0000 C   0  0  0  0  0  0  0  0  0  0  0  0
   22.9211   25.5199    0.0000 C   0  0  0  0  0  0  0  0  0  0  0  0
   23.2876   24.0654    0.0000 C   0  0  0  0  0  0  0  0  0  0  0  0
   23.5389   22.5866    0.0000 C   0  0  0  0  0  0  0  0  0  0  0  0
   23.6734   21.0926    0.0000 C   0  0  0  0  0  0  0  0  0  0  0  0
   23.6902   19.5927    0.0000 C   0  0  0  0  0  0  0  0  0  0  0  0
   23.5893   18.0961    0.0000 C   0  0  0  0  0  0  0  0  0  0  0  0
   23.3713   16.6121    0.0000 C   0  0  0  0  0  0  0  0  0  0  0  0
   23.0375   15.1497    0.0000 C   0  0  0  0  0  0  0  0  0  0  0  0
   22.5900   13.7180    0.0000 C   0  0  0  0  0  0  0  0  0  0  0  0
   22.0316   12.3258    0.0000 C   0  0  0  0  0  0  0  0  0  0  0  0
   21.3656   10.9817    0.0000 C   0  0  0  0  0  0  0  0  0  0  0  0
   20.5963    9.6941    0.0000 C   0  0  0  0  0  0  0  0  0  0  0  0
   19.7283    8.4707    0.0000 C   0  0  0  0  0  0  0  0  0  0  0  0
   18.7669    7.3193    0.0000 C   0  0  0  0  0  0  0  0  0  0  0  0
   17.7183    6.2468    0.0000 C   0  0  0  0  0  0  0  0  0  0  0  0
   16.5886    5.2599    0.0000 C   0  0  0  0  0  0  0  0  0  0  0  0
   15.3851    4.3646    0.0000 C   0  0  0  0  0  0  0  0  0  0  0  0
   14.1150    3.5666    0.0000 C   0  0  0  0  0  0  0  0  0  0  0  0
   12.7862    2.8706    0.0000 C   0  0  0  0  0  0  0  0  0  0  0  0
   11.4069    2.2811    0.0000 C   0  0  0  0  0  0  0  0  0  0  0  0
    9.9856    1.8016    0.0000 C   0  0  0  0  0  0  0  0  0  0  0  0
    8.5311    1.4351    0.0000 C   0  0  0  0  0  0  0  0  0  0  0  0
    7.0523    1.1838    0.0000 C   0  0  0  0  0  0  0  0  0  0  0  0
    5.5583    1.0494    0.0000 C   0  0  0  0  0  0  0  0  0  0  0  0
    4.0584    1.0325    0.0000 C   0  0  0  0  0  0  0  0  0  0  0  0
    2.5618    1.1334    0.0000 C   0  0  0  0  0  0  0  0  0  0  0  0
    1.0777    1.3515    0.0000 C   0  0  0  0  0  0  0  0  0  0  0  0
    1.7286    0.0000    0.0000 C   0  0  0  0  0  0  0  0  0  0  0  0
    1.0777   -1.3515    0.0000 C   0  0  0  0  0  0  0  0  0  0  0  0
   -0.3846   -1.6852    0.0000 C   0  0  0  0  0  0  0  0  0  0  0  0
   -1.5574   -0.7500    0.0000 C   0  0  0  0  0  0  0  0  0  0  0  0
   -1.5574    0.7500    0.0000 C   0  0  0  0  0  0  0  0  0  0  0  0
   -0.3846    1.6852    0.0000 C   0  0  0  0  0  0  0  0  0  0  0  0
   -1.8163    2.1327    0.0000 C   0  0  0  0  0  0  0  0  0  0  0  0
   -0.6366    3.0592    0.0000 C   0  0  0  0  0  0  0  0  0  0  0  0
   -0.8491    4.5440    0.0000 C   0  0  0  0  0  0  0  0  0  0  0  0
   -2.2413    5.1025    0.0000 C   0  0  0  0  0  0  0  0  0  0  0  0
   -3.4210    4.1760    0.0000 C   0  0  0  0  0  0  0  0  0  0  0  0
   -3.2085    2.6912    0.0000 C   0  0  0  0  0  0  0  0  0  0  0  0
   -4.5526    3.3571    0.0000 C   0  0  0  0  0  0  0  0  0  0  0  0
   -4.5750    1.8573    0.0000 C   0  0  0  0  0  0  0  0  0  0  0  0
   -5.8851    1.1268    0.0000 C   0  0  0  0  0  0  0  0  0  0  0  0
   -7.1728    1.8961    0.0000 C   0  0  0  0  0  0  0  0  0  0  0  0
   -7.1504    3.3960    0.0000 C   0  0  0  0  0  0  0  0  0  0  0  0
   -5.8403    4.1265    0.0000 C   0  0  0  0  0  0  0  0  0  0  0  0
  1  2  1  0
  2  3  1  0
  3  4  1  0
  4  5  1  0
  5  6  1  0
  6  7  1  0
  7  8  1  0
  8  9  1  0
  9 10  1  0
 10 11  1  0
 11 12  1  0
 12 13  1  0
 13 14  1  0
 14 15  1  0
 15 16  1  0
 16 17  1  0
 17 18  1  0
 18 19  1  0
 19 20  1  0
 20 21  1  0
 21 22  1  0
 22 23  1  0
 23 24  1  0
 24 25  1  0
 25 26  1  0
 26 27  1  0
 27 28  1  0
 28 29  1  0
 29 30  1  0
 30 31  1  0
 31 32  1  0
 32 33  1  0
 33 34  1  0
 34 35  1  0
 35 36  1  0
 36 37  1  0
 37 38  1  0
 38 39  1  0
 39 40  1  0
 40 41  1  0
 41 42  1  0
 42 43  1  0
 43 44  1  0
 44 45  1  0
 45 46  1  0
 46 47  1  0
 47 48  1  0
 48 49  1  0
 49 50  1  0
 50 51  1  0
 51 52  1  0
 52 53  1  0
 53 54  1  0
 54 55  1  0
 55 56  1  0
 56 57  1  0
 57 58  1  0
 58 59  1  0
 59 60  1  0
 60 61  1  0
 61 62  1  0
 62 63  1  0
 63 64  1  0
 64 65  1  0
 65 66  1  0
 66 67  1  0
 67 68  1  0
 68 69  1  0
 69 70  1  0
 70 71  1  0
 71 72  1  0
 72 73  1  0
 73 74  1  0
 74 75  1  0
 75 76  1  0
 76 77  1  0
 77 78  1  0
 78 79  1  0
 79 80  1  0
 80 81  1  0
 81 82  1  0
 82 83  1  0
 83 84  2  0
 84 85  1  0
 85 86  2  0
 86 87  1  0
 87 88  2  0
 88 89  1  0
 89 90  2  0
 90 91  1  0
 91 92  2  0
 92 93  1  0
 93 94  2  0
 94  2  1  0
 82 76  1  0
 88 83  1  0
 94 89  1  0
M  END
>  <Title>  (590) 
idAAUTgen10

$$$$

     RDKit          2D

 16 16  0  0  0  0  0  0  0  0999 V2000
   13.5000    0.0000    0.0000 C   0  0  0  0  0  0  0  0  0  0  0  0
   12.0000    0.0000    0.0000 C   0  0  0  0  0  0  0  0  0  0  0  0
   10.5000    0.0000    0.0000 C   0  0  0  0  0  0  0  0  0  0  0  0
    9.0000    0.0000    0.0000 C   0  0  0  0  0  0  0  0  0  0  0  0
    7.5000    0.0000    0.0000 C   0  0  0  0  0  0  0  0  0  0  0  0
    6.0000    0.0000    0.0000 C   0  0  0  0  0  0  0  0  0  0  0  0
    4.5000    0.0000    0.0000 C   0  0  0  0  0  0  0  0  0  0  0  0
    3.0000    0.0000    0.0000 C   0  0  0  0  0  0  0  0  0  0  0  0
    1.5000    0.0000    0.0000 C   0  0  0  0  0  0  0  0  0  0  0  0
    0.7500   -1.2990    0.0000 C   0  0  0  0  0  0  0  0  0  0  0  0
   -0.7500   -1.2990    0.0000 C   0  0  0  0  0  0  0  0  0  0  0  0
   -1.5000    0.0000    0.0000 C   0  0  0  0  0  0  0  0  0  0  0  0
   -3.0000    0.0000    0.0000 O   0  0  0  0  0  0  0  0  0  0  0  0
   -3.7500    1.2990    0.0000 C   0  0  0  0  0  0  0  0  0  0  0  0
   -0.7500    1.2990    0.0000 C   0  0  0  0  0  0  0  0  0  0  0  0
    0.7500    1.2990    0.0000 C   0  0  0  0  0  0  0  0  0  0  0  0
  1  2  3  0
  2  3  1  0
  3  4  3  0
  4  5  1  0
  5  6  3  0
  6  7  1  0
  7  8  3  0
  8  9  1  0
  9 10  2  0
 10 11  1  0
 11 12  2  0
 12 13  1  0
 13 14  1  0
 12 15  1  0
 15 16  2  0
 16  9  1  0
M  END
>  <Title>  (591) 
idAAUUgen10

$$$$

     RDKit          2D

 14 14  0  0  0  0  0  0  0  0999 V2000
   12.5260   -1.2990    0.0000 C   0  0  0  0  0  0  0  0  0  0  0  0
   11.7760   -0.0000    0.0000 C   0  0  0  0  0  0  0  0  0  0  0  0
   10.2760   -0.0000    0.0000 C   0  0  0  0  0  0  0  0  0  0  0  0
    8.7760   -0.0000    0.0000 C   0  0  0  0  0  0  0  0  0  0  0  0
    7.2760   -0.0000    0.0000 C   0  0  0  0  0  0  0  0  0  0  0  0
    5.7760   -0.0000    0.0000 C   0  0  0  0  0  0  0  0  0  0  0  0
    4.2760   -0.0000    0.0000 C   0  0  0  0  0  0  0  0  0  0  0  0
    2.7760    0.0000    0.0000 C   0  0  0  0  0  0  0  0  0  0  0  0
    1.2760    0.0000    0.0000 C   0  0  0  0  0  0  0  0  0  0  0  0
    0.3943    1.2135    0.0000 C   0  0  0  0  0  0  0  0  0  0  0  0
   -1.0323    0.7500    0.0000 C   0  0  0  0  0  0  0  0  0  0  0  0
   -1.0323   -0.7500    0.0000 C   0  0  0  0  0  0  0  0  0  0  0  0
   -2.2458   -1.6317    0.0000 C   0  0  0  0  0  0  0  0  0  0  0  0
    0.3943   -1.2135    0.0000 N   0  0  0  0  0  0  0  0  0  0  0  0
  1  2  2  0
  2  3  1  0
  3  4  3  0
  4  5  1  0
  5  6  3  0
  6  7  1  0
  7  8  3  0
  8  9  1  0
  9 10  2  0
 10 11  1  0
 11 12  2  0
 12 13  1  0
 12 14  1  0
 14  9  1  0
M  END
>  <Title>  (592) 
idAAUVgen10

$$$$

     RDKit          2D

  8  8  0  0  0  0  0  0  0  0999 V2000
    4.2760   -0.0000    0.0000 C   0  0  0  0  0  0  0  0  0  0  0  0
    2.7760    0.0000    0.0000 C   0  0  0  0  0  0  0  0  0  0  0  0
    1.2760    0.0000    0.0000 C   0  0  0  0  0  0  0  0  0  0  0  0
    0.3943    1.2135    0.0000 C   0  0  0  0  0  0  0  0  0  0  0  0
   -1.0323    0.7500    0.0000 C   0  0  0  0  0  0  0  0  0  0  0  0
   -2.2458    1.6317    0.0000 C   0  0  0  0  0  0  0  0  0  0  0  0
   -1.0323   -0.7500    0.0000 C   0  0  0  0  0  0  0  0  0  0  0  0
    0.3943   -1.2135    0.0000 C   0  0  0  0  0  0  0  0  0  0  0  0
  1  2  3  0
  2  3  1  0
  3  4  2  0
  4  5  1  0
  5  6  1  0
  5  7  2  0
  7  8  1  0
  8  3  1  0
M  END
>  <Title>  (593) 
idAAUWgen10

$$$$

     RDKit          2D

 38 43  0  0  0  0  0  0  0  0999 V2000
    3.1097   -7.2078    0.0000 C   0  0  0  0  0  0  0  0  0  0  0  0
    2.0490   -6.1471    0.0000 C   0  0  0  0  0  0  0  0  0  0  0  0
    2.7990   -4.8481    0.0000 C   0  0  0  0  0  0  0  0  0  0  0  0
    2.7990   -3.3481    0.0000 C   0  0  0  0  0  0  0  0  0  0  0  0
    2.0490   -2.0490    0.0000 C   0  0  0  0  0  0  0  0  0  0  0  0
    3.1097   -0.9884    0.0000 C   0  0  0  0  0  0  0  0  0  0  0  0
    2.7215    0.4605    0.0000 O   0  0  0  0  0  0  0  0  0  0  0  0
    4.5586   -1.3766    0.0000 N   0  0  0  0  0  0  0  0  0  0  0  0
    5.6192   -0.3159    0.0000 C   0  0  0  0  0  0  0  0  0  0  0  0
    7.0681   -0.7042    0.0000 N   0  0  0  0  0  0  0  0  0  0  0  0
    8.1288    0.3565    0.0000 N   0  0  0  0  0  0  0  0  0  0  0  0
    7.7406    1.8054    0.0000 N   0  0  0  0  0  0  0  0  0  0  0  0
    6.2917    2.1936    0.0000 N   0  0  0  0  0  0  0  0  0  0  0  0
    5.2310    1.1329    0.0000 N   0  0  0  0  0  0  0  0  0  0  0  0
    0.7500   -1.2990    0.0000 C   0  0  0  0  0  0  0  0  0  0  0  0
    1.5000    0.0000    0.0000 C   0  0  0  0  0  0  0  0  0  0  0  0
    0.7500    1.2990    0.0000 C   0  0  0  0  0  0  0  0  0  0  0  0
   -0.7500    1.2990    0.0000 C   0  0  0  0  0  0  0  0  0  0  0  0
   -1.5000    0.0000    0.0000 C   0  0  0  0  0  0  0  0  0  0  0  0
   -0.7500   -1.2990    0.0000 C   0  0  0  0  0  0  0  0  0  0  0  0
   -2.0490   -2.0490    0.0000 C   0  0  0  0  0  0  0  0  0  0  0  0
   -2.7990   -0.7500    0.0000 C   0  0  0  0  0  0  0  0  0  0  0  0
   -4.2990   -0.7500    0.0000 C   0  0  0  0  0  0  0  0  0  0  0  0
   -5.0490   -2.0490    0.0000 C   0  0  0  0  0  0  0  0  0  0  0  0
   -4.2990   -3.3481    0.0000 C   0  0  0  0  0  0  0  0  0  0  0  0
   -2.7990   -3.3481    0.0000 C   0  0  0  0  0  0  0  0  0  0  0  0
   -2.7990   -4.8481    0.0000 C   0  0  0  0  0  0  0  0  0  0  0  0
   -4.2990   -4.8481    0.0000 C   0  0  0  0  0  0  0  0  0  0  0  0
   -5.0490   -6.1471    0.0000 C   0  0  0  0  0  0  0  0  0  0  0  0
   -4.2990   -7.4462    0.0000 C   0  0  0  0  0  0  0  0  0  0  0  0
   -2.7990   -7.4462    0.0000 C   0  0  0  0  0  0  0  0  0  0  0  0
   -2.0490   -6.1471    0.0000 C   0  0  0  0  0  0  0  0  0  0  0  0
   -0.7500   -6.8971    0.0000 C   0  0  0  0  0  0  0  0  0  0  0  0
   -1.5000   -8.1962    0.0000 C   0  0  0  0  0  0  0  0  0  0  0  0
   -0.7500   -9.4952    0.0000 C   0  0  0  0  0  0  0  0  0  0  0  0
    0.7500   -9.4952    0.0000 C   0  0  0  0  0  0  0  0  0  0  0  0
    1.5000   -8.1962    0.0000 C   0  0  0  0  0  0  0  0  0  0  0  0
    0.7500   -6.8971    0.0000 C   0  0  0  0  0  0  0  0  0  0  0  0
  1  2  1  0
  2  3  1  0
  3  4  1  0
  4  5  1  0
  5  6  1  0
  6  7  2  0
  6  8  1  0
  8  9  1  0
  9 10  2  0
 10 11  1  0
 11 12  2  0
 12 13  1  0
 13 14  2  0
  5 15  1  0
 15 16  2  0
 16 17  1  0
 17 18  2  0
 18 19  1  0
 19 20  2  0
 20 21  1  0
 21 22  2  0
 22 23  1  0
 23 24  2  0
 24 25  1  0
 25 26  2  0
 26 27  1  0
 27 28  2  0
 28 29  1  0
 29 30  2  0
 30 31  1  0
 31 32  2  0
 32 33  1  0
 33 34  2  0
 34 35  1  0
 35 36  2  0
 36 37  1  0
 37 38  2  0
 38  2  1  0
 14  9  1  0
 20 15  1  0
 26 21  1  0
 32 27  1  0
 38 33  1  0
M  END
>  <Title>  (594) 
idAAUXgen10

$$$$

     RDKit          2D

 13 13  0  0  0  0  0  0  0  0999 V2000
   10.2760   -0.0000    0.0000 C   0  0  0  0  0  0  0  0  0  0  0  0
    8.7760   -0.0000    0.0000 C   0  0  0  0  0  0  0  0  0  0  0  0
    7.2760   -0.0000    0.0000 C   0  0  0  0  0  0  0  0  0  0  0  0
    5.7760   -0.0000    0.0000 C   0  0  0  0  0  0  0  0  0  0  0  0
    4.2760   -0.0000    0.0000 C   0  0  0  0  0  0  0  0  0  0  0  0
    2.7760    0.0000    0.0000 C   0  0  0  0  0  0  0  0  0  0  0  0
    1.2760    0.0000    0.0000 C   0  0  0  0  0  0  0  0  0  0  0  0
    0.3943    1.2135    0.0000 C   0  0  0  0  0  0  0  0  0  0  0  0
    0.8578    2.6401    0.0000 C   0  0  0  0  0  0  0  0  0  0  0  0
    1.3213    4.0667    0.0000 N   0  0  0  0  0  0  0  0  0  0  0  0
   -1.0323    0.7500    0.0000 C   0  0  0  0  0  0  0  0  0  0  0  0
   -1.0323   -0.7500    0.0000 C   0  0  0  0  0  0  0  0  0  0  0  0
    0.3943   -1.2135    0.0000 C   0  0  0  0  0  0  0  0  0  0  0  0
  1  2  3  0
  2  3  1  0
  3  4  3  0
  4  5  1  0
  5  6  3  0
  6  7  1  0
  7  8  2  0
  8  9  1  0
  9 10  3  0
  8 11  1  0
 11 12  2  0
 12 13  1  0
 13  7  1  0
M  END
>  <Title>  (595) 
idAAUYgen10

$$$$

     RDKit          2D

  8  8  0  0  0  0  0  0  0  0999 V2000
    5.7760   -0.0000    0.0000 C   0  0  0  0  0  0  0  0  0  0  0  0
    4.2760   -0.0000    0.0000 C   0  0  0  0  0  0  0  0  0  0  0  0
    2.7760    0.0000    0.0000 C   0  0  0  0  0  0  0  0  0  0  0  0
    1.2760    0.0000    0.0000 C   0  0  0  0  0  0  0  0  0  0  0  0
    0.3943    1.2135    0.0000 C   0  0  0  0  0  0  0  0  0  0  0  0
   -1.0323    0.7500    0.0000 C   0  0  0  0  0  0  0  0  0  0  0  0
   -1.0323   -0.7500    0.0000 C   0  0  0  0  0  0  0  0  0  0  0  0
    0.3943   -1.2135    0.0000 C   0  0  0  0  0  0  0  0  0  0  0  0
  1  2  1  0
  2  3  3  0
  3  4  1  0
  4  5  2  0
  5  6  1  0
  6  7  1  0
  7  8  2  0
  8  4  1  0
M  END
>  <Title>  (596) 
idAAUZgen10

$$$$

     RDKit          2D

 10 10  0  0  0  0  0  0  0  0999 V2000
    4.5000   -2.5981    0.0000 C   0  0  0  0  0  0  0  0  0  0  0  0
    3.7500   -1.2990    0.0000 C   0  0  0  0  0  0  0  0  0  0  0  0
    3.0000    0.0000    0.0000 C   0  0  0  0  0  0  0  0  0  0  0  0
    1.5000    0.0000    0.0000 C   0  0  0  0  0  0  0  0  0  0  0  0
    0.7500   -1.2990    0.0000 C   0  0  0  0  0  0  0  0  0  0  0  0
   -0.7500   -1.2990    0.0000 C   0  0  0  0  0  0  0  0  0  0  0  0
   -1.5000    0.0000    0.0000 C   0  0  0  0  0  0  0  0  0  0  0  0
   -0.7500    1.2990    0.0000 C   0  0  0  0  0  0  0  0  0  0  0  0
   -1.5000    2.5981    0.0000 C   0  0  0  0  0  0  0  0  0  0  0  0
    0.7500    1.2990    0.0000 C   0  0  0  0  0  0  0  0  0  0  0  0
  1  2  3  0
  2  3  1  0
  3  4  1  0
  4  5  2  0
  5  6  1  0
  6  7  2  0
  7  8  1  0
  8  9  1  0
  8 10  2  0
 10  4  1  0
M  END
>  <Title>  (597) 
idAAVAgen10

$$$$

     RDKit          2D

 53 53  0  0  0  0  0  0  0  0999 V2000
   12.6602    0.0000    0.0000 C   0  0  0  0  0  0  0  0  0  0  0  0
   12.5714    1.4974    0.0000 C   0  0  0  0  0  0  0  0  0  0  0  0
   12.3060    2.9737    0.0000 C   0  0  0  0  0  0  0  0  0  0  0  0
   11.8679    4.4083    0.0000 C   0  0  0  0  0  0  0  0  0  0  0  0
   11.2633    5.7810    0.0000 C   0  0  0  0  0  0  0  0  0  0  0  0
   10.5005    7.0726    0.0000 C   0  0  0  0  0  0  0  0  0  0  0  0
    9.5903    8.2649    0.0000 C   0  0  0  0  0  0  0  0  0  0  0  0
    8.5454    9.3411    0.0000 C   0  0  0  0  0  0  0  0  0  0  0  0
    7.3807   10.2863    0.0000 C   0  0  0  0  0  0  0  0  0  0  0  0
    6.1123   11.0870    0.0000 C   0  0  0  0  0  0  0  0  0  0  0  0
    4.7581   11.7321    0.0000 C   0  0  0  0  0  0  0  0  0  0  0  0
    3.3371   12.2125    0.0000 C   0  0  0  0  0  0  0  0  0  0  0  0
    1.8692   12.5215    0.0000 C   0  0  0  0  0  0  0  0  0  0  0  0
    0.3752   12.6547    0.0000 C   0  0  0  0  0  0  0  0  0  0  0  0
   -1.1242   12.6102    0.0000 C   0  0  0  0  0  0  0  0  0  0  0  0
   -2.6077   12.3888    0.0000 C   0  0  0  0  0  0  0  0  0  0  0  0
   -4.0547   11.9934    0.0000 C   0  0  0  0  0  0  0  0  0  0  0  0
   -5.4447   11.4296    0.0000 C   0  0  0  0  0  0  0  0  0  0  0  0
   -6.7583   10.7054    0.0000 C   0  0  0  0  0  0  0  0  0  0  0  0
   -7.9771    9.8310    0.0000 C   0  0  0  0  0  0  0  0  0  0  0  0
   -9.0838    8.8185    0.0000 C   0  0  0  0  0  0  0  0  0  0  0  0
  -10.0630    7.6822    0.0000 C   0  0  0  0  0  0  0  0  0  0  0  0
  -10.9010    6.4381    0.0000 C   0  0  0  0  0  0  0  0  0  0  0  0
  -11.5860    5.1036    0.0000 C   0  0  0  0  0  0  0  0  0  0  0  0
  -12.1083    3.6975    0.0000 C   0  0  0  0  0  0  0  0  0  0  0  0
  -12.4606    2.2395    0.0000 C   0  0  0  0  0  0  0  0  0  0  0  0
  -12.6380    0.7500    0.0000 C   0  0  0  0  0  0  0  0  0  0  0  0
  -12.6380   -0.7500    0.0000 C   0  0  0  0  0  0  0  0  0  0  0  0
  -12.4606   -2.2395    0.0000 C   0  0  0  0  0  0  0  0  0  0  0  0
  -12.1083   -3.6975    0.0000 C   0  0  0  0  0  0  0  0  0  0  0  0
  -11.5860   -5.1036    0.0000 C   0  0  0  0  0  0  0  0  0  0  0  0
  -10.9010   -6.4381    0.0000 C   0  0  0  0  0  0  0  0  0  0  0  0
  -10.0630   -7.6822    0.0000 C   0  0  0  0  0  0  0  0  0  0  0  0
   -9.0838   -8.8185    0.0000 C   0  0  0  0  0  0  0  0  0  0  0  0
   -7.9771   -9.8310    0.0000 C   0  0  0  0  0  0  0  0  0  0  0  0
   -6.7583  -10.7054    0.0000 C   0  0  0  0  0  0  0  0  0  0  0  0
   -5.4447  -11.4296    0.0000 C   0  0  0  0  0  0  0  0  0  0  0  0
   -4.0547  -11.9934    0.0000 C   0  0  0  0  0  0  0  0  0  0  0  0
   -2.6077  -12.3888    0.0000 C   0  0  0  0  0  0  0  0  0  0  0  0
   -1.1242  -12.6102    0.0000 C   0  0  0  0  0  0  0  0  0  0  0  0
    0.3752  -12.6547    0.0000 C   0  0  0  0  0  0  0  0  0  0  0  0
    1.8692  -12.5215    0.0000 C   0  0  0  0  0  0  0  0  0  0  0  0
    3.3371  -12.2125    0.0000 C   0  0  0  0  0  0  0  0  0  0  0  0
    4.7581  -11.7321    0.0000 C   0  0  0  0  0  0  0  0  0  0  0  0
    6.1123  -11.0870    0.0000 C   0  0  0  0  0  0  0  0  0  0  0  0
    7.3807  -10.2863    0.0000 C   0  0  0  0  0  0  0  0  0  0  0  0
    8.5454   -9.3411    0.0000 C   0  0  0  0  0  0  0  0  0  0  0  0
    9.5903   -8.2649    0.0000 C   0  0  0  0  0  0  0  0  0  0  0  0
   10.5005   -7.0726    0.0000 C   0  0  0  0  0  0  0  0  0  0  0  0
   11.2633   -5.7810    0.0000 C   0  0  0  0  0  0  0  0  0  0  0  0
   11.8679   -4.4083    0.0000 C   0  0  0  0  0  0  0  0  0  0  0  0
   12.3060   -2.9737    0.0000 C   0  0  0  0  0  0  0  0  0  0  0  0
   12.5714   -1.4974    0.0000 C   0  0  0  0  0  0  0  0  0  0  0  0
  1  2  1  0
  2  3  1  0
  3  4  1  0
  4  5  1  0
  5  6  1  0
  6  7  1  0
  7  8  1  0
  8  9  1  0
  9 10  1  0
 10 11  1  0
 11 12  1  0
 12 13  1  0
 13 14  1  0
 14 15  1  0
 15 16  1  0
 16 17  1  0
 17 18  1  0
 18 19  1  0
 19 20  1  0
 20 21  1  0
 21 22  1  0
 22 23  1  0
 23 24  1  0
 24 25  1  0
 25 26  1  0
 26 27  1  0
 27 28  1  0
 28 29  1  0
 29 30  1  0
 30 31  1  0
 31 32  1  0
 32 33  1  0
 33 34  1  0
 34 35  1  0
 35 36  1  0
 36 37  1  0
 37 38  1  0
 38 39  1  0
 39 40  1  0
 40 41  1  0
 41 42  1  0
 42 43  1  0
 43 44  1  0
 44 45  1  0
 45 46  1  0
 46 47  1  0
 47 48  1  0
 48 49  1  0
 49 50  1  0
 50 51  1  0
 51 52  1  0
 52 53  1  0
 53  1  1  0
M  END
>  <Title>  (598) 
idAAVBgen10

$$$$

     RDKit          2D

 11 11  0  0  0  0  0  0  0  0999 V2000
    7.2760   -0.0000    0.0000 C   0  0  0  0  0  0  0  0  0  0  0  0
    5.7760   -0.0000    0.0000 C   0  0  0  0  0  0  0  0  0  0  0  0
    4.2760   -0.0000    0.0000 C   0  0  0  0  0  0  0  0  0  0  0  0
    2.7760    0.0000    0.0000 C   0  0  0  0  0  0  0  0  0  0  0  0
    1.2760    0.0000    0.0000 C   0  0  0  0  0  0  0  0  0  0  0  0
    0.3943    1.2135    0.0000 C   0  0  0  0  0  0  0  0  0  0  0  0
   -1.0323    0.7500    0.0000 C   0  0  0  0  0  0  0  0  0  0  0  0
   -2.2458    1.6317    0.0000 C   0  0  0  0  0  0  0  0  0  0  0  0
   -1.0323   -0.7500    0.0000 C   0  0  0  0  0  0  0  0  0  0  0  0
   -2.2458   -1.6317    0.0000 O   0  0  0  0  0  0  0  0  0  0  0  0
    0.3943   -1.2135    0.0000 C   0  0  0  0  0  0  0  0  0  0  0  0
  1  2  3  0
  2  3  1  0
  3  4  3  0
  4  5  1  0
  5  6  2  0
  6  7  1  0
  7  8  1  0
  7  9  1  0
  9 10  1  0
  9 11  1  0
 11  5  1  0
M  END
>  <Title>  (599) 
idAAVCgen10

$$$$

     RDKit          2D

 14 14  0  0  0  0  0  0  0  0999 V2000
    9.7500   -1.2990    0.0000 C   0  0  0  0  0  0  0  0  0  0  0  0
    9.0000    0.0000    0.0000 C   0  0  0  0  0  0  0  0  0  0  0  0
    7.5000    0.0000    0.0000 C   0  0  0  0  0  0  0  0  0  0  0  0
    6.0000    0.0000    0.0000 C   0  0  0  0  0  0  0  0  0  0  0  0
    4.5000    0.0000    0.0000 C   0  0  0  0  0  0  0  0  0  0  0  0
    3.0000    0.0000    0.0000 C   0  0  0  0  0  0  0  0  0  0  0  0
    1.5000    0.0000    0.0000 C   0  0  0  0  0  0  0  0  0  0  0  0
    0.7500   -1.2990    0.0000 C   0  0  0  0  0  0  0  0  0  0  0  0
   -0.7500   -1.2990    0.0000 C   0  0  0  0  0  0  0  0  0  0  0  0
   -1.5000    0.0000    0.0000 C   0  0  0  0  0  0  0  0  0  0  0  0
   -0.7500    1.2990    0.0000 C   0  0  0  0  0  0  0  0  0  0  0  0
    0.7500    1.2990    0.0000 C   0  0  0  0  0  0  0  0  0  0  0  0
    9.7500    1.2990    0.0000 O   0  0  0  0  0  0  0  0  0  0  0  0
   11.2500    1.2990    0.0000 C   0  0  0  0  0  0  0  0  0  0  0  0
  1  2  2  0
  2  3  1  0
  3  4  3  0
  4  5  1  0
  5  6  3  0
  6  7  1  0
  7  8  2  0
  8  9  1  0
  9 10  2  0
 10 11  1  0
 11 12  2  0
  2 13  1  0
 13 14  1  0
 12  7  1  0
M  END
>  <Title>  (600) 
idAAVDgen10

$$$$

     RDKit          2D

  9  8  0  0  0  0  0  0  0  0999 V2000
    0.0000    0.0000    0.0000 C   0  0  0  0  0  0  0  0  0  0  0  0
   -0.0000   -1.5000    0.0000 C   0  0  0  0  0  0  0  0  0  0  0  0
   -0.0000   -3.0000    0.0000 C   0  0  0  0  0  0  0  0  0  0  0  0
   -0.0000   -4.5000    0.0000 C   0  0  0  0  0  0  0  0  0  0  0  0
   -0.0000   -6.0000    0.0000 C   0  0  0  0  0  0  0  0  0  0  0  0
    1.2990   -6.7500    0.0000 C   0  0  0  0  0  0  0  0  0  0  0  0
    1.2990   -8.2500    0.0000 C   0  0  0  0  0  0  0  0  0  0  0  0
    1.2990   -9.7500    0.0000 C   0  0  0  0  0  0  0  0  0  0  0  0
    1.2990  -11.2500    0.0000 C   0  0  0  0  0  0  0  0  0  0  0  0
  1  2  3  0
  2  3  1  0
  3  4  3  0
  4  5  1  0
  5  6  1  0
  6  7  1  0
  7  8  3  0
  8  9  1  0
M  END
>  <Title>  (601) 
idAAVEgen10

$$$$

     RDKit          2D

  4  3  0  0  0  0  0  0  0  0999 V2000
    0.0000    0.0000    0.0000 C   0  0  0  0  0  0  0  0  0  0  0  0
    1.2990    0.7500    0.0000 C   0  0  0  0  0  0  0  0  0  0  0  0
    2.5981   -0.0000    0.0000 C   0  0  0  0  0  0  0  0  0  0  0  0
    3.8971    0.7500    0.0000 O   0  0  0  0  0  0  0  0  0  0  0  0
  1  2  2  0
  2  3  1  0
  3  4  1  0
M  END
>  <Title>  (602) 
idAAVFgen10

$$$$

     RDKit          2D

 11 12  0  0  0  0  0  0  0  0999 V2000
   -3.0000   -2.5981    0.0000 C   0  0  0  0  0  0  0  0  0  0  0  0
   -1.5000   -2.5981    0.0000 C   0  0  0  0  0  0  0  0  0  0  0  0
   -0.7500   -3.8971    0.0000 C   0  0  0  0  0  0  0  0  0  0  0  0
    0.7500   -3.8971    0.0000 C   0  0  0  0  0  0  0  0  0  0  0  0
    1.5000   -2.5981    0.0000 C   0  0  0  0  0  0  0  0  0  0  0  0
    0.7500   -1.2990    0.0000 C   0  0  0  0  0  0  0  0  0  0  0  0
    1.5000    0.0000    0.0000 C   0  0  0  0  0  0  0  0  0  0  0  0
    0.7500    1.2990    0.0000 C   0  0  0  0  0  0  0  0  0  0  0  0
   -0.7500    1.2990    0.0000 N   0  0  0  0  0  0  0  0  0  0  0  0
   -1.5000    0.0000    0.0000 C   0  0  0  0  0  0  0  0  0  0  0  0
   -0.7500   -1.2990    0.0000 C   0  0  0  0  0  0  0  0  0  0  0  0
  1  2  1  0
  2  3  1  0
  3  4  1  0
  4  5  1  0
  5  6  1  0
  6  7  2  0
  7  8  1  0
  8  9  2  0
  9 10  1  0
 10 11  2  0
 11  2  1  0
 11  6  1  0
M  END
>  <Title>  (603) 
idAAVGgen10

$$$$

     RDKit          2D

107110  0  0  0  0  0  0  0  0999 V2000
   -8.6076   -1.4043    0.0000 C   0  0  0  0  0  0  0  0  0  0  0  0
   -8.0630   -2.8019    0.0000 C   0  0  0  0  0  0  0  0  0  0  0  0
   -9.4414   -3.3934    0.0000 C   0  0  0  0  0  0  0  0  0  0  0  0
  -10.7768   -4.0767    0.0000 C   0  0  0  0  0  0  0  0  0  0  0  0
  -12.0630   -4.8485    0.0000 C   0  0  0  0  0  0  0  0  0  0  0  0
  -13.2941   -5.7054    0.0000 C   0  0  0  0  0  0  0  0  0  0  0  0
  -14.4646   -6.6435    0.0000 C   0  0  0  0  0  0  0  0  0  0  0  0
  -15.5691   -7.6584    0.0000 C   0  0  0  0  0  0  0  0  0  0  0  0
  -16.6025   -8.7456    0.0000 C   0  0  0  0  0  0  0  0  0  0  0  0
  -17.5602   -9.9001    0.0000 C   0  0  0  0  0  0  0  0  0  0  0  0
  -18.4378  -11.1166    0.0000 C   0  0  0  0  0  0  0  0  0  0  0  0
  -19.2313  -12.3895    0.0000 C   0  0  0  0  0  0  0  0  0  0  0  0
  -19.9370  -13.7132    0.0000 C   0  0  0  0  0  0  0  0  0  0  0  0
  -20.5517  -15.0814    0.0000 C   0  0  0  0  0  0  0  0  0  0  0  0
  -21.0726  -16.4880    0.0000 C   0  0  0  0  0  0  0  0  0  0  0  0
  -21.4974  -17.9266    0.0000 C   0  0  0  0  0  0  0  0  0  0  0  0
  -21.8242  -19.3906    0.0000 C   0  0  0  0  0  0  0  0  0  0  0  0
  -22.0513  -20.8733    0.0000 C   0  0  0  0  0  0  0  0  0  0  0  0
  -22.1778  -22.3680    0.0000 C   0  0  0  0  0  0  0  0  0  0  0  0
  -22.2032  -23.8678    0.0000 C   0  0  0  0  0  0  0  0  0  0  0  0
  -22.1272  -25.3658    0.0000 C   0  0  0  0  0  0  0  0  0  0  0  0
  -21.9503  -26.8554    0.0000 C   0  0  0  0  0  0  0  0  0  0  0  0
  -21.6732  -28.3295    0.0000 C   0  0  0  0  0  0  0  0  0  0  0  0
  -21.2972  -29.7817    0.0000 C   0  0  0  0  0  0  0  0  0  0  0  0
  -20.8240  -31.2051    0.0000 C   0  0  0  0  0  0  0  0  0  0  0  0
  -20.2559  -32.5933    0.0000 C   0  0  0  0  0  0  0  0  0  0  0  0
  -19.5953  -33.9400    0.0000 C   0  0  0  0  0  0  0  0  0  0  0  0
  -18.8453  -35.2391    0.0000 C   0  0  0  0  0  0  0  0  0  0  0  0
  -18.0093  -36.4845    0.0000 C   0  0  0  0  0  0  0  0  0  0  0  0
  -17.0911  -37.6707    0.0000 C   0  0  0  0  0  0  0  0  0  0  0  0
  -16.0950  -38.7921    0.0000 C   0  0  0  0  0  0  0  0  0  0  0  0
  -15.0254  -39.8438    0.0000 C   0  0  0  0  0  0  0  0  0  0  0  0
  -13.8873  -40.8209    0.0000 C   0  0  0  0  0  0  0  0  0  0  0  0
  -12.6858  -41.7189    0.0000 C   0  0  0  0  0  0  0  0  0  0  0  0
  -11.4264  -42.5337    0.0000 C   0  0  0  0  0  0  0  0  0  0  0  0
  -10.1149  -43.2616    0.0000 C   0  0  0  0  0  0  0  0  0  0  0  0
   -8.7572  -43.8994    0.0000 C   0  0  0  0  0  0  0  0  0  0  0  0
   -7.3596  -44.4440    0.0000 C   0  0  0  0  0  0  0  0  0  0  0  0
   -5.9284  -44.8931    0.0000 C   0  0  0  0  0  0  0  0  0  0  0  0
   -4.4701  -45.2445    0.0000 C   0  0  0  0  0  0  0  0  0  0  0  0
   -2.9914  -45.4966    0.0000 C   0  0  0  0  0  0  0  0  0  0  0  0
   -1.4991  -45.6484    0.0000 C   0  0  0  0  0  0  0  0  0  0  0  0
   -0.0000  -45.6990    0.0000 C   0  0  0  0  0  0  0  0  0  0  0  0
    1.4991  -45.6484    0.0000 C   0  0  0  0  0  0  0  0  0  0  0  0
    2.9914  -45.4966    0.0000 C   0  0  0  0  0  0  0  0  0  0  0  0
    4.4701  -45.2445    0.0000 C   0  0  0  0  0  0  0  0  0  0  0  0
    5.9284  -44.8931    0.0000 C   0  0  0  0  0  0  0  0  0  0  0  0
    7.3596  -44.4440    0.0000 C   0  0  0  0  0  0  0  0  0  0  0  0
    8.7572  -43.8994    0.0000 C   0  0  0  0  0  0  0  0  0  0  0  0
   10.1149  -43.2616    0.0000 C   0  0  0  0  0  0  0  0  0  0  0  0
   11.4264  -42.5337    0.0000 C   0  0  0  0  0  0  0  0  0  0  0  0
   12.6858  -41.7189    0.0000 C   0  0  0  0  0  0  0  0  0  0  0  0
   13.8873  -40.8209    0.0000 C   0  0  0  0  0  0  0  0  0  0  0  0
   15.0254  -39.8438    0.0000 C   0  0  0  0  0  0  0  0  0  0  0  0
   16.0950  -38.7921    0.0000 C   0  0  0  0  0  0  0  0  0  0  0  0
   17.0911  -37.6707    0.0000 C   0  0  0  0  0  0  0  0  0  0  0  0
   18.0093  -36.4845    0.0000 C   0  0  0  0  0  0  0  0  0  0  0  0
   18.8453  -35.2391    0.0000 C   0  0  0  0  0  0  0  0  0  0  0  0
   19.5953  -33.9400    0.0000 C   0  0  0  0  0  0  0  0  0  0  0  0
   20.2559  -32.5933    0.0000 C   0  0  0  0  0  0  0  0  0  0  0  0
   20.8240  -31.2051    0.0000 C   0  0  0  0  0  0  0  0  0  0  0  0
   21.2972  -29.7817    0.0000 C   0  0  0  0  0  0  0  0  0  0  0  0
   21.6732  -28.3295    0.0000 C   0  0  0  0  0  0  0  0  0  0  0  0
   21.9503  -26.8554    0.0000 C   0  0  0  0  0  0  0  0  0  0  0  0
   22.1272  -25.3658    0.0000 C   0  0  0  0  0  0  0  0  0  0  0  0
   22.2032  -23.8678    0.0000 C   0  0  0  0  0  0  0  0  0  0  0  0
   22.1778  -22.3680    0.0000 C   0  0  0  0  0  0  0  0  0  0  0  0
   22.0513  -20.8733    0.0000 C   0  0  0  0  0  0  0  0  0  0  0  0
   21.8242  -19.3906    0.0000 C   0  0  0  0  0  0  0  0  0  0  0  0
   21.4974  -17.9266    0.0000 C   0  0  0  0  0  0  0  0  0  0  0  0
   21.0726  -16.4880    0.0000 C   0  0  0  0  0  0  0  0  0  0  0  0
   20.5517  -15.0814    0.0000 C   0  0  0  0  0  0  0  0  0  0  0  0
   19.9370  -13.7132    0.0000 C   0  0  0  0  0  0  0  0  0  0  0  0
   19.2313  -12.3895    0.0000 C   0  0  0  0  0  0  0  0  0  0  0  0
   18.4378  -11.1166    0.0000 C   0  0  0  0  0  0  0  0  0  0  0  0
   17.5602   -9.9001    0.0000 C   0  0  0  0  0  0  0  0  0  0  0  0
   16.6025   -8.7456    0.0000 C   0  0  0  0  0  0  0  0  0  0  0  0
   15.5691   -7.6584    0.0000 C   0  0  0  0  0  0  0  0  0  0  0  0
   14.4646   -6.6435    0.0000 C   0  0  0  0  0  0  0  0  0  0  0  0
   13.2941   -5.7054    0.0000 C   0  0  0  0  0  0  0  0  0  0  0  0
   12.0630   -4.8485    0.0000 C   0  0  0  0  0  0  0  0  0  0  0  0
   10.7768   -4.0767    0.0000 C   0  0  0  0  0  0  0  0  0  0  0  0
    9.4414   -3.3934    0.0000 C   0  0  0  0  0  0  0  0  0  0  0  0
    8.0630   -2.8019    0.0000 C   0  0  0  0  0  0  0  0  0  0  0  0
    6.6478   -2.3048    0.0000 C   0  0  0  0  0  0  0  0  0  0  0  0
    5.2022   -1.9043    0.0000 C   0  0  0  0  0  0  0  0  0  0  0  0
    3.7329   -1.6024    0.0000 C   0  0  0  0  0  0  0  0  0  0  0  0
    2.2466   -1.4003    0.0000 C   0  0  0  0  0  0  0  0  0  0  0  0
    2.3983    0.0920    0.0000 C   0  0  0  0  0  0  0  0  0  0  0  0
    0.7500   -1.2990    0.0000 C   0  0  0  0  0  0  0  0  0  0  0  0
    1.5000    0.0000    0.0000 C   0  0  0  0  0  0  0  0  0  0  0  0
    0.7500    1.2990    0.0000 C   0  0  0  0  0  0  0  0  0  0  0  0
   -0.7500    1.2990    0.0000 C   0  0  0  0  0  0  0  0  0  0  0  0
   -1.5000    0.0000    0.0000 C   0  0  0  0  0  0  0  0  0  0  0  0
   -0.7500   -1.2990    0.0000 C   0  0  0  0  0  0  0  0  0  0  0  0
   -2.2466   -1.4003    0.0000 C   0  0  0  0  0  0  0  0  0  0  0  0
   -1.3284   -2.5865    0.0000 C   0  0  0  0  0  0  0  0  0  0  0  0
   -1.8966   -3.9747    0.0000 C   0  0  0  0  0  0  0  0  0  0  0  0
   -3.3829   -4.1768    0.0000 C   0  0  0  0  0  0  0  0  0  0  0  0
   -4.3011   -2.9906    0.0000 C   0  0  0  0  0  0  0  0  0  0  0  0
   -3.7329   -1.6024    0.0000 C   0  0  0  0  0  0  0  0  0  0  0  0
   -5.2022   -1.9043    0.0000 C   0  0  0  0  0  0  0  0  0  0  0  0
   -4.8262   -0.4522    0.0000 C   0  0  0  0  0  0  0  0  0  0  0  0
   -5.8958    0.5995    0.0000 C   0  0  0  0  0  0  0  0  0  0  0  0
   -7.3414    0.1990    0.0000 C   0  0  0  0  0  0  0  0  0  0  0  0
   -7.7173   -1.2531    0.0000 C   0  0  0  0  0  0  0  0  0  0  0  0
   -6.6478   -2.3048    0.0000 C   0  0  0  0  0  0  0  0  0  0  0  0
  1  2  1  0
  2  3  1  0
  3  4  1  0
  4  5  1  0
  5  6  1  0
  6  7  1  0
  7  8  1  0
  8  9  1  0
  9 10  1  0
 10 11  1  0
 11 12  1  0
 12 13  1  0
 13 14  1  0
 14 15  1  0
 15 16  1  0
 16 17  1  0
 17 18  1  0
 18 19  1  0
 19 20  1  0
 20 21  1  0
 21 22  1  0
 22 23  1  0
 23 24  1  0
 24 25  1  0
 25 26  1  0
 26 27  1  0
 27 28  1  0
 28 29  1  0
 29 30  1  0
 30 31  1  0
 31 32  1  0
 32 33  1  0
 33 34  1  0
 34 35  1  0
 35 36  1  0
 36 37  1  0
 37 38  1  0
 38 39  1  0
 39 40  1  0
 40 41  1  0
 41 42  1  0
 42 43  1  0
 43 44  1  0
 44 45  1  0
 45 46  1  0
 46 47  1  0
 47 48  1  0
 48 49  1  0
 49 50  1  0
 50 51  1  0
 51 52  1  0
 52 53  1  0
 53 54  1  0
 54 55  1  0
 55 56  1  0
 56 57  1  0
 57 58  1  0
 58 59  1  0
 59 60  1  0
 60 61  1  0
 61 62  1  0
 62 63  1  0
 63 64  1  0
 64 65  1  0
 65 66  1  0
 66 67  1  0
 67 68  1  0
 68 69  1  0
 69 70  1  0
 70 71  1  0
 71 72  1  0
 72 73  1  0
 73 74  1  0
 74 75  1  0
 75 76  1  0
 76 77  1  0
 77 78  1  0
 78 79  1  0
 79 80  1  0
 80 81  1  0
 81 82  1  0
 82 83  1  0
 83 84  1  0
 84 85  1  0
 85 86  1  0
 86 87  1  0
 87 88  1  0
 88 89  1  0
 88 90  1  0
 90 91  2  0
 91 92  1  0
 92 93  2  0
 93 94  1  0
 94 95  2  0
 95 96  1  0
 96 97  2  0
 97 98  1  0
 98 99  2  0
 99100  1  0
100101  2  0
101102  1  0
102103  2  0
103104  1  0
104105  2  0
105106  1  0
106107  2  0
107  2  1  0
 95 90  1  0
101 96  1  0
107102  1  0
M  END
>  <Title>  (604) 
idAAVHgen10

$$$$

     RDKit          2D

 12 12  0  0  0  0  0  0  0  0999 V2000
    6.7500   -1.2990    0.0000 C   0  0  0  0  0  0  0  0  0  0  0  0
    5.2500   -1.2990    0.0000 C   0  0  0  0  0  0  0  0  0  0  0  0
    3.7500   -1.2990    0.0000 C   0  0  0  0  0  0  0  0  0  0  0  0
    3.0000   -2.5981    0.0000 O   0  0  0  0  0  0  0  0  0  0  0  0
    3.0000    0.0000    0.0000 N   0  0  0  0  0  0  0  0  0  0  0  0
    1.5000    0.0000    0.0000 C   0  0  0  0  0  0  0  0  0  0  0  0
    0.7500   -1.2990    0.0000 C   0  0  0  0  0  0  0  0  0  0  0  0
   -0.7500   -1.2990    0.0000 C   0  0  0  0  0  0  0  0  0  0  0  0
   -1.5000    0.0000    0.0000 C   0  0  0  0  0  0  0  0  0  0  0  0
   -0.7500    1.2990    0.0000 C   0  0  0  0  0  0  0  0  0  0  0  0
    0.7500    1.2990    0.0000 C   0  0  0  0  0  0  0  0  0  0  0  0
    1.5000    2.5981    0.0000 O   0  0  0  0  0  0  0  0  0  0  0  0
  1  2  3  0
  2  3  1  0
  3  4  2  0
  3  5  1  0
  5  6  1  0
  6  7  2  0
  7  8  1  0
  8  9  2  0
  9 10  1  0
 10 11  2  0
 11 12  1  0
 11  6  1  0
M  END
>  <Title>  (605) 
idAAVIgen10

$$$$

     RDKit          2D

105105  0  0  0  0  0  0  0  0999 V2000
   26.3319    0.0000    0.0000 C   0  0  0  0  0  0  0  0  0  0  0  0
   24.8319    0.0000    0.0000 C   0  0  0  0  0  0  0  0  0  0  0  0
   24.7866   -1.4993    0.0000 C   0  0  0  0  0  0  0  0  0  0  0  0
   24.6509   -2.9932    0.0000 C   0  0  0  0  0  0  0  0  0  0  0  0
   24.4252   -4.4761    0.0000 C   0  0  0  0  0  0  0  0  0  0  0  0
   24.1104   -5.9427    0.0000 C   0  0  0  0  0  0  0  0  0  0  0  0
   23.7076   -7.3876    0.0000 C   0  0  0  0  0  0  0  0  0  0  0  0
   23.2183   -8.8055    0.0000 C   0  0  0  0  0  0  0  0  0  0  0  0
   22.6442  -10.1913    0.0000 C   0  0  0  0  0  0  0  0  0  0  0  0
   21.9876  -11.5400    0.0000 C   0  0  0  0  0  0  0  0  0  0  0  0
   21.2507  -12.8465    0.0000 C   0  0  0  0  0  0  0  0  0  0  0  0
   20.4363  -14.1062    0.0000 C   0  0  0  0  0  0  0  0  0  0  0  0
   19.5473  -15.3143    0.0000 C   0  0  0  0  0  0  0  0  0  0  0  0
   18.5870  -16.4666    0.0000 C   0  0  0  0  0  0  0  0  0  0  0  0
   17.5588  -17.5588    0.0000 C   0  0  0  0  0  0  0  0  0  0  0  0
   16.4666  -18.5870    0.0000 C   0  0  0  0  0  0  0  0  0  0  0  0
   15.3143  -19.5473    0.0000 C   0  0  0  0  0  0  0  0  0  0  0  0
   14.1062  -20.4363    0.0000 C   0  0  0  0  0  0  0  0  0  0  0  0
   12.8465  -21.2507    0.0000 C   0  0  0  0  0  0  0  0  0  0  0  0
   11.5400  -21.9876    0.0000 C   0  0  0  0  0  0  0  0  0  0  0  0
   10.1913  -22.6442    0.0000 C   0  0  0  0  0  0  0  0  0  0  0  0
    8.8055  -23.2183    0.0000 C   0  0  0  0  0  0  0  0  0  0  0  0
    7.3876  -23.7076    0.0000 C   0  0  0  0  0  0  0  0  0  0  0  0
    5.9427  -24.1104    0.0000 C   0  0  0  0  0  0  0  0  0  0  0  0
    4.4761  -24.4252    0.0000 C   0  0  0  0  0  0  0  0  0  0  0  0
    2.9932  -24.6509    0.0000 C   0  0  0  0  0  0  0  0  0  0  0  0
    1.4993  -24.7866    0.0000 C   0  0  0  0  0  0  0  0  0  0  0  0
   -0.0000  -24.8319    0.0000 C   0  0  0  0  0  0  0  0  0  0  0  0
   -1.4993  -24.7866    0.0000 C   0  0  0  0  0  0  0  0  0  0  0  0
   -2.9932  -24.6509    0.0000 C   0  0  0  0  0  0  0  0  0  0  0  0
   -4.4761  -24.4252    0.0000 C   0  0  0  0  0  0  0  0  0  0  0  0
   -5.9427  -24.1104    0.0000 C   0  0  0  0  0  0  0  0  0  0  0  0
   -7.3876  -23.7076    0.0000 C   0  0  0  0  0  0  0  0  0  0  0  0
   -8.8055  -23.2183    0.0000 C   0  0  0  0  0  0  0  0  0  0  0  0
  -10.1913  -22.6442    0.0000 C   0  0  0  0  0  0  0  0  0  0  0  0
  -11.5400  -21.9876    0.0000 C   0  0  0  0  0  0  0  0  0  0  0  0
  -12.8465  -21.2507    0.0000 C   0  0  0  0  0  0  0  0  0  0  0  0
  -14.1062  -20.4363    0.0000 C   0  0  0  0  0  0  0  0  0  0  0  0
  -15.3143  -19.5473    0.0000 C   0  0  0  0  0  0  0  0  0  0  0  0
  -16.4666  -18.5870    0.0000 C   0  0  0  0  0  0  0  0  0  0  0  0
  -17.5588  -17.5588    0.0000 C   0  0  0  0  0  0  0  0  0  0  0  0
  -18.5870  -16.4666    0.0000 C   0  0  0  0  0  0  0  0  0  0  0  0
  -19.5473  -15.3143    0.0000 C   0  0  0  0  0  0  0  0  0  0  0  0
  -20.4363  -14.1062    0.0000 C   0  0  0  0  0  0  0  0  0  0  0  0
  -21.2507  -12.8465    0.0000 C   0  0  0  0  0  0  0  0  0  0  0  0
  -21.9876  -11.5400    0.0000 C   0  0  0  0  0  0  0  0  0  0  0  0
  -22.6442  -10.1913    0.0000 C   0  0  0  0  0  0  0  0  0  0  0  0
  -23.2183   -8.8055    0.0000 C   0  0  0  0  0  0  0  0  0  0  0  0
  -23.7076   -7.3876    0.0000 C   0  0  0  0  0  0  0  0  0  0  0  0
  -24.1104   -5.9427    0.0000 C   0  0  0  0  0  0  0  0  0  0  0  0
  -24.4252   -4.4761    0.0000 C   0  0  0  0  0  0  0  0  0  0  0  0
  -24.6509   -2.9932    0.0000 C   0  0  0  0  0  0  0  0  0  0  0  0
  -24.7866   -1.4993    0.0000 C   0  0  0  0  0  0  0  0  0  0  0  0
  -24.8319    0.0000    0.0000 C   0  0  0  0  0  0  0  0  0  0  0  0
  -24.7866    1.4993    0.0000 C   0  0  0  0  0  0  0  0  0  0  0  0
  -24.6509    2.9932    0.0000 C   0  0  0  0  0  0  0  0  0  0  0  0
  -24.4252    4.4761    0.0000 C   0  0  0  0  0  0  0  0  0  0  0  0
  -24.1104    5.9427    0.0000 C   0  0  0  0  0  0  0  0  0  0  0  0
  -23.7076    7.3876    0.0000 C   0  0  0  0  0  0  0  0  0  0  0  0
  -23.2183    8.8055    0.0000 C   0  0  0  0  0  0  0  0  0  0  0  0
  -22.6442   10.1913    0.0000 C   0  0  0  0  0  0  0  0  0  0  0  0
  -21.9876   11.5400    0.0000 C   0  0  0  0  0  0  0  0  0  0  0  0
  -21.2507   12.8465    0.0000 C   0  0  0  0  0  0  0  0  0  0  0  0
  -20.4363   14.1062    0.0000 C   0  0  0  0  0  0  0  0  0  0  0  0
  -19.5473   15.3143    0.0000 C   0  0  0  0  0  0  0  0  0  0  0  0
  -18.5870   16.4666    0.0000 C   0  0  0  0  0  0  0  0  0  0  0  0
  -17.5588   17.5588    0.0000 C   0  0  0  0  0  0  0  0  0  0  0  0
  -16.4666   18.5870    0.0000 C   0  0  0  0  0  0  0  0  0  0  0  0
  -15.3143   19.5473    0.0000 C   0  0  0  0  0  0  0  0  0  0  0  0
  -14.1062   20.4363    0.0000 C   0  0  0  0  0  0  0  0  0  0  0  0
  -12.8465   21.2507    0.0000 C   0  0  0  0  0  0  0  0  0  0  0  0
  -11.5400   21.9876    0.0000 C   0  0  0  0  0  0  0  0  0  0  0  0
  -10.1913   22.6442    0.0000 C   0  0  0  0  0  0  0  0  0  0  0  0
   -8.8055   23.2183    0.0000 C   0  0  0  0  0  0  0  0  0  0  0  0
   -7.3876   23.7076    0.0000 C   0  0  0  0  0  0  0  0  0  0  0  0
   -5.9427   24.1104    0.0000 C   0  0  0  0  0  0  0  0  0  0  0  0
   -4.4761   24.4252    0.0000 C   0  0  0  0  0  0  0  0  0  0  0  0
   -2.9932   24.6509    0.0000 C   0  0  0  0  0  0  0  0  0  0  0  0
   -1.4993   24.7866    0.0000 C   0  0  0  0  0  0  0  0  0  0  0  0
    0.0000   24.8319    0.0000 C   0  0  0  0  0  0  0  0  0  0  0  0
    1.4993   24.7866    0.0000 C   0  0  0  0  0  0  0  0  0  0  0  0
    2.9932   24.6509    0.0000 C   0  0  0  0  0  0  0  0  0  0  0  0
    4.4761   24.4252    0.0000 C   0  0  0  0  0  0  0  0  0  0  0  0
    5.9427   24.1104    0.0000 C   0  0  0  0  0  0  0  0  0  0  0  0
    7.3876   23.7076    0.0000 C   0  0  0  0  0  0  0  0  0  0  0  0
    8.8055   23.2183    0.0000 C   0  0  0  0  0  0  0  0  0  0  0  0
   10.1913   22.6442    0.0000 C   0  0  0  0  0  0  0  0  0  0  0  0
   11.5400   21.9876    0.0000 C   0  0  0  0  0  0  0  0  0  0  0  0
   12.8465   21.2507    0.0000 C   0  0  0  0  0  0  0  0  0  0  0  0
   14.1062   20.4363    0.0000 C   0  0  0  0  0  0  0  0  0  0  0  0
   15.3143   19.5473    0.0000 C   0  0  0  0  0  0  0  0  0  0  0  0
   16.4666   18.5870    0.0000 C   0  0  0  0  0  0  0  0  0  0  0  0
   17.5588   17.5588    0.0000 C   0  0  0  0  0  0  0  0  0  0  0  0
   18.5870   16.4666    0.0000 C   0  0  0  0  0  0  0  0  0  0  0  0
   19.5473   15.3143    0.0000 C   0  0  0  0  0  0  0  0  0  0  0  0
   20.4363   14.1062    0.0000 C   0  0  0  0  0  0  0  0  0  0  0  0
   21.2507   12.8465    0.0000 C   0  0  0  0  0  0  0  0  0  0  0  0
   21.9876   11.5400    0.0000 C   0  0  0  0  0  0  0  0  0  0  0  0
   22.6442   10.1913    0.0000 C   0  0  0  0  0  0  0  0  0  0  0  0
   23.2183    8.8055    0.0000 C   0  0  0  0  0  0  0  0  0  0  0  0
   23.7076    7.3876    0.0000 C   0  0  0  0  0  0  0  0  0  0  0  0
   24.1104    5.9427    0.0000 C   0  0  0  0  0  0  0  0  0  0  0  0
   24.4252    4.4761    0.0000 C   0  0  0  0  0  0  0  0  0  0  0  0
   24.6509    2.9932    0.0000 C   0  0  0  0  0  0  0  0  0  0  0  0
   24.7866    1.4993    0.0000 C   0  0  0  0  0  0  0  0  0  0  0  0
  1  2  1  0
  2  3  1  0
  3  4  1  0
  4  5  1  0
  5  6  1  0
  6  7  1  0
  7  8  1  0
  8  9  1  0
  9 10  1  0
 10 11  1  0
 11 12  1  0
 12 13  1  0
 13 14  1  0
 14 15  1  0
 15 16  1  0
 16 17  1  0
 17 18  1  0
 18 19  1  0
 19 20  1  0
 20 21  1  0
 21 22  1  0
 22 23  1  0
 23 24  1  0
 24 25  1  0
 25 26  1  0
 26 27  1  0
 27 28  1  0
 28 29  1  0
 29 30  1  0
 30 31  1  0
 31 32  1  0
 32 33  1  0
 33 34  1  0
 34 35  1  0
 35 36  1  0
 36 37  1  0
 37 38  1  0
 38 39  1  0
 39 40  1  0
 40 41  1  0
 41 42  1  0
 42 43  1  0
 43 44  1  0
 44 45  1  0
 45 46  1  0
 46 47  1  0
 47 48  1  0
 48 49  1  0
 49 50  1  0
 50 51  1  0
 51 52  1  0
 52 53  1  0
 53 54  1  0
 54 55  1  0
 55 56  1  0
 56 57  1  0
 57 58  1  0
 58 59  1  0
 59 60  1  0
 60 61  1  0
 61 62  1  0
 62 63  1  0
 63 64  1  0
 64 65  1  0
 65 66  1  0
 66 67  1  0
 67 68  1  0
 68 69  1  0
 69 70  1  0
 70 71  1  0
 71 72  1  0
 72 73  1  0
 73 74  1  0
 74 75  1  0
 75 76  1  0
 76 77  1  0
 77 78  1  0
 78 79  1  0
 79 80  1  0
 80 81  1  0
 81 82  1  0
 82 83  1  0
 83 84  1  0
 84 85  1  0
 85 86  1  0
 86 87  1  0
 87 88  1  0
 88 89  1  0
 89 90  1  0
 90 91  1  0
 91 92  1  0
 92 93  1  0
 93 94  1  0
 94 95  1  0
 95 96  1  0
 96 97  1  0
 97 98  1  0
 98 99  1  0
 99100  1  0
100101  1  0
101102  1  0
102103  1  0
103104  1  0
104105  1  0
105  2  1  0
M  END
>  <Title>  (606) 
idAAVJgen10

$$$$

     RDKit          2D

  7  7  0  0  0  0  0  0  0  0999 V2000
    3.0000    0.0000    0.0000 O   0  0  0  0  0  0  0  0  0  0  0  0
    1.5000    0.0000    0.0000 C   0  0  0  0  0  0  0  0  0  0  0  0
    0.7500   -1.2990    0.0000 C   0  0  0  0  0  0  0  0  0  0  0  0
   -0.7500   -1.2990    0.0000 C   0  0  0  0  0  0  0  0  0  0  0  0
   -1.5000    0.0000    0.0000 C   0  0  0  0  0  0  0  0  0  0  0  0
   -0.7500    1.2990    0.0000 C   0  0  0  0  0  0  0  0  0  0  0  0
    0.7500    1.2990    0.0000 N   0  0  0  0  0  0  0  0  0  0  0  0
  1  2  1  0
  2  3  2  0
  3  4  1  0
  4  5  2  0
  5  6  1  0
  6  7  2  0
  7  2  1  0
M  END
>  <Title>  (607) 
idAAVKgen10

$$$$

     RDKit          2D

 83 83  0  0  0  0  0  0  0  0999 V2000
   22.3422   -0.0000    0.0000 C   0  0  0  0  0  0  0  0  0  0  0  0
   20.8422    0.0000    0.0000 C   0  0  0  0  0  0  0  0  0  0  0  0
   19.3422    0.0000    0.0000 C   0  0  0  0  0  0  0  0  0  0  0  0
   19.2840    1.4989    0.0000 C   0  0  0  0  0  0  0  0  0  0  0  0
   19.1099    2.9887    0.0000 C   0  0  0  0  0  0  0  0  0  0  0  0
   18.8208    4.4606    0.0000 C   0  0  0  0  0  0  0  0  0  0  0  0
   18.4185    5.9057    0.0000 C   0  0  0  0  0  0  0  0  0  0  0  0
   17.9055    7.3152    0.0000 C   0  0  0  0  0  0  0  0  0  0  0  0
   17.2848    8.6808    0.0000 C   0  0  0  0  0  0  0  0  0  0  0  0
   16.5601    9.9941    0.0000 C   0  0  0  0  0  0  0  0  0  0  0  0
   15.7359   11.2473    0.0000 C   0  0  0  0  0  0  0  0  0  0  0  0
   14.8170   12.4329    0.0000 C   0  0  0  0  0  0  0  0  0  0  0  0
   13.8090   13.5437    0.0000 C   0  0  0  0  0  0  0  0  0  0  0  0
   12.7179   14.5731    0.0000 C   0  0  0  0  0  0  0  0  0  0  0  0
   11.5503   15.5148    0.0000 C   0  0  0  0  0  0  0  0  0  0  0  0
   10.3133   16.3632    0.0000 C   0  0  0  0  0  0  0  0  0  0  0  0
    9.0143   17.1132    0.0000 C   0  0  0  0  0  0  0  0  0  0  0  0
    7.6610   17.7603    0.0000 C   0  0  0  0  0  0  0  0  0  0  0  0
    6.2617   18.3006    0.0000 C   0  0  0  0  0  0  0  0  0  0  0  0
    4.8247   18.7308    0.0000 C   0  0  0  0  0  0  0  0  0  0  0  0
    3.3587   19.0483    0.0000 C   0  0  0  0  0  0  0  0  0  0  0  0
    1.8725   19.2513    0.0000 C   0  0  0  0  0  0  0  0  0  0  0  0
    0.3751   19.3385    0.0000 C   0  0  0  0  0  0  0  0  0  0  0  0
   -1.1246   19.3095    0.0000 C   0  0  0  0  0  0  0  0  0  0  0  0
   -2.6176   19.1642    0.0000 C   0  0  0  0  0  0  0  0  0  0  0  0
   -4.0948   18.9038    0.0000 C   0  0  0  0  0  0  0  0  0  0  0  0
   -5.5474   18.5296    0.0000 C   0  0  0  0  0  0  0  0  0  0  0  0
   -6.9666   18.0440    0.0000 C   0  0  0  0  0  0  0  0  0  0  0  0
   -8.3439   17.4499    0.0000 C   0  0  0  0  0  0  0  0  0  0  0  0
   -9.6711   16.7508    0.0000 C   0  0  0  0  0  0  0  0  0  0  0  0
  -10.9401   15.9510    0.0000 C   0  0  0  0  0  0  0  0  0  0  0  0
  -12.1433   15.0553    0.0000 C   0  0  0  0  0  0  0  0  0  0  0  0
  -13.2734   14.0690    0.0000 C   0  0  0  0  0  0  0  0  0  0  0  0
  -14.3237   12.9981    0.0000 C   0  0  0  0  0  0  0  0  0  0  0  0
  -15.2879   11.8490    0.0000 C   0  0  0  0  0  0  0  0  0  0  0  0
  -16.1602   10.6287    0.0000 C   0  0  0  0  0  0  0  0  0  0  0  0
  -16.9352    9.3444    0.0000 C   0  0  0  0  0  0  0  0  0  0  0  0
  -17.6084    8.0040    0.0000 C   0  0  0  0  0  0  0  0  0  0  0  0
  -18.1757    6.6154    0.0000 C   0  0  0  0  0  0  0  0  0  0  0  0
  -18.6337    5.1870    0.0000 C   0  0  0  0  0  0  0  0  0  0  0  0
  -18.9796    3.7275    0.0000 C   0  0  0  0  0  0  0  0  0  0  0  0
  -19.2114    2.2455    0.0000 C   0  0  0  0  0  0  0  0  0  0  0  0
  -19.3276    0.7500    0.0000 C   0  0  0  0  0  0  0  0  0  0  0  0
  -19.3276   -0.7500    0.0000 C   0  0  0  0  0  0  0  0  0  0  0  0
  -19.2114   -2.2455    0.0000 C   0  0  0  0  0  0  0  0  0  0  0  0
  -18.9796   -3.7275    0.0000 C   0  0  0  0  0  0  0  0  0  0  0  0
  -18.6337   -5.1870    0.0000 C   0  0  0  0  0  0  0  0  0  0  0  0
  -18.1757   -6.6154    0.0000 C   0  0  0  0  0  0  0  0  0  0  0  0
  -17.6084   -8.0040    0.0000 C   0  0  0  0  0  0  0  0  0  0  0  0
  -16.9352   -9.3444    0.0000 C   0  0  0  0  0  0  0  0  0  0  0  0
  -16.1602  -10.6287    0.0000 C   0  0  0  0  0  0  0  0  0  0  0  0
  -15.2879  -11.8490    0.0000 C   0  0  0  0  0  0  0  0  0  0  0  0
  -14.3237  -12.9981    0.0000 C   0  0  0  0  0  0  0  0  0  0  0  0
  -13.2734  -14.0690    0.0000 C   0  0  0  0  0  0  0  0  0  0  0  0
  -12.1433  -15.0553    0.0000 C   0  0  0  0  0  0  0  0  0  0  0  0
  -10.9401  -15.9510    0.0000 C   0  0  0  0  0  0  0  0  0  0  0  0
   -9.6711  -16.7508    0.0000 C   0  0  0  0  0  0  0  0  0  0  0  0
   -8.3439  -17.4499    0.0000 C   0  0  0  0  0  0  0  0  0  0  0  0
   -6.9666  -18.0440    0.0000 C   0  0  0  0  0  0  0  0  0  0  0  0
   -5.5474  -18.5296    0.0000 C   0  0  0  0  0  0  0  0  0  0  0  0
   -4.0948  -18.9038    0.0000 C   0  0  0  0  0  0  0  0  0  0  0  0
   -2.6176  -19.1642    0.0000 C   0  0  0  0  0  0  0  0  0  0  0  0
   -1.1246  -19.3095    0.0000 C   0  0  0  0  0  0  0  0  0  0  0  0
    0.3751  -19.3385    0.0000 C   0  0  0  0  0  0  0  0  0  0  0  0
    1.8725  -19.2513    0.0000 C   0  0  0  0  0  0  0  0  0  0  0  0
    3.3587  -19.0483    0.0000 C   0  0  0  0  0  0  0  0  0  0  0  0
    4.8247  -18.7308    0.0000 C   0  0  0  0  0  0  0  0  0  0  0  0
    6.2617  -18.3006    0.0000 C   0  0  0  0  0  0  0  0  0  0  0  0
    7.6610  -17.7603    0.0000 C   0  0  0  0  0  0  0  0  0  0  0  0
    9.0143  -17.1132    0.0000 C   0  0  0  0  0  0  0  0  0  0  0  0
   10.3133  -16.3632    0.0000 C   0  0  0  0  0  0  0  0  0  0  0  0
   11.5503  -15.5148    0.0000 C   0  0  0  0  0  0  0  0  0  0  0  0
   12.7179  -14.5731    0.0000 C   0  0  0  0  0  0  0  0  0  0  0  0
   13.8090  -13.5437    0.0000 C   0  0  0  0  0  0  0  0  0  0  0  0
   14.8170  -12.4329    0.0000 C   0  0  0  0  0  0  0  0  0  0  0  0
   15.7359  -11.2473    0.0000 C   0  0  0  0  0  0  0  0  0  0  0  0
   16.5601   -9.9941    0.0000 C   0  0  0  0  0  0  0  0  0  0  0  0
   17.2848   -8.6808    0.0000 C   0  0  0  0  0  0  0  0  0  0  0  0
   17.9055   -7.3152    0.0000 C   0  0  0  0  0  0  0  0  0  0  0  0
   18.4185   -5.9057    0.0000 C   0  0  0  0  0  0  0  0  0  0  0  0
   18.8208   -4.4606    0.0000 C   0  0  0  0  0  0  0  0  0  0  0  0
   19.1099   -2.9887    0.0000 C   0  0  0  0  0  0  0  0  0  0  0  0
   19.2840   -1.4989    0.0000 C   0  0  0  0  0  0  0  0  0  0  0  0
  1  2  3  0
  2  3  1  0
  3  4  1  0
  4  5  2  0
  5  6  1  0
  6  7  1  0
  7  8  1  0
  8  9  1  0
  9 10  1  0
 10 11  1  0
 11 12  1  0
 12 13  1  0
 13 14  1  0
 14 15  1  0
 15 16  1  0
 16 17  1  0
 17 18  1  0
 18 19  1  0
 19 20  1  0
 20 21  1  0
 21 22  1  0
 22 23  1  0
 23 24  1  0
 24 25  1  0
 25 26  1  0
 26 27  1  0
 27 28  1  0
 28 29  1  0
 29 30  1  0
 30 31  1  0
 31 32  1  0
 32 33  1  0
 33 34  1  0
 34 35  1  0
 35 36  1  0
 36 37  1  0
 37 38  1  0
 38 39  1  0
 39 40  1  0
 40 41  1  0
 41 42  1  0
 42 43  1  0
 43 44  1  0
 44 45  1  0
 45 46  1  0
 46 47  1  0
 47 48  1  0
 48 49  1  0
 49 50  1  0
 50 51  1  0
 51 52  1  0
 52 53  1  0
 53 54  1  0
 54 55  1  0
 55 56  1  0
 56 57  1  0
 57 58  1  0
 58 59  1  0
 59 60  1  0
 60 61  1  0
 61 62  1  0
 62 63  1  0
 63 64  1  0
 64 65  1  0
 65 66  1  0
 66 67  1  0
 67 68  1  0
 68 69  1  0
 69 70  1  0
 70 71  1  0
 71 72  1  0
 72 73  1  0
 73 74  1  0
 74 75  1  0
 75 76  1  0
 76 77  1  0
 77 78  1  0
 78 79  1  0
 79 80  1  0
 80 81  1  0
 81 82  1  0
 82 83  1  0
 83  3  1  0
M  END
>  <Title>  (608) 
idAAVLgen10

$$$$

     RDKit          2D

 79 80  0  0  0  0  0  0  0  0999 V2000
   -2.2116   -1.0660    0.0000 C   0  0  0  0  0  0  0  0  0  0  0  0
   -2.4927    0.4075    0.0000 C   0  0  0  0  0  0  0  0  0  0  0  0
   -3.9766    0.1883    0.0000 C   0  0  0  0  0  0  0  0  0  0  0  0
   -5.4736    0.0942    0.0000 C   0  0  0  0  0  0  0  0  0  0  0  0
   -6.9733    0.1256    0.0000 C   0  0  0  0  0  0  0  0  0  0  0  0
   -8.4651    0.2824    0.0000 C   0  0  0  0  0  0  0  0  0  0  0  0
   -9.9385    0.5634    0.0000 C   0  0  0  0  0  0  0  0  0  0  0  0
  -11.3832    0.9668    0.0000 C   0  0  0  0  0  0  0  0  0  0  0  0
  -12.7892    1.4897    0.0000 C   0  0  0  0  0  0  0  0  0  0  0  0
  -14.1464    2.1283    0.0000 C   0  0  0  0  0  0  0  0  0  0  0  0
  -15.4454    2.8783    0.0000 C   0  0  0  0  0  0  0  0  0  0  0  0
  -16.6772    3.7344    0.0000 C   0  0  0  0  0  0  0  0  0  0  0  0
  -17.8329    4.6906    0.0000 C   0  0  0  0  0  0  0  0  0  0  0  0
  -18.9046    5.7400    0.0000 C   0  0  0  0  0  0  0  0  0  0  0  0
  -19.8848    6.8755    0.0000 C   0  0  0  0  0  0  0  0  0  0  0  0
  -20.7664    8.0891    0.0000 C   0  0  0  0  0  0  0  0  0  0  0  0
  -21.5435    9.3721    0.0000 C   0  0  0  0  0  0  0  0  0  0  0  0
  -22.2104   10.7157    0.0000 C   0  0  0  0  0  0  0  0  0  0  0  0
  -22.7626   12.1103    0.0000 C   0  0  0  0  0  0  0  0  0  0  0  0
  -23.1962   13.5463    0.0000 C   0  0  0  0  0  0  0  0  0  0  0  0
  -23.5080   15.0135    0.0000 C   0  0  0  0  0  0  0  0  0  0  0  0
  -23.6960   16.5017    0.0000 C   0  0  0  0  0  0  0  0  0  0  0  0
  -23.7589   18.0004    0.0000 C   0  0  0  0  0  0  0  0  0  0  0  0
  -23.6960   19.4991    0.0000 C   0  0  0  0  0  0  0  0  0  0  0  0
  -23.5080   20.9873    0.0000 C   0  0  0  0  0  0  0  0  0  0  0  0
  -23.1962   22.4545    0.0000 C   0  0  0  0  0  0  0  0  0  0  0  0
  -22.7626   23.8905    0.0000 C   0  0  0  0  0  0  0  0  0  0  0  0
  -22.2104   25.2851    0.0000 C   0  0  0  0  0  0  0  0  0  0  0  0
  -21.5435   26.6287    0.0000 C   0  0  0  0  0  0  0  0  0  0  0  0
  -20.7664   27.9117    0.0000 C   0  0  0  0  0  0  0  0  0  0  0  0
  -19.8848   29.1253    0.0000 C   0  0  0  0  0  0  0  0  0  0  0  0
  -18.9046   30.2608    0.0000 C   0  0  0  0  0  0  0  0  0  0  0  0
  -17.8329   31.3103    0.0000 C   0  0  0  0  0  0  0  0  0  0  0  0
  -16.6772   32.2664    0.0000 C   0  0  0  0  0  0  0  0  0  0  0  0
  -15.4454   33.1225    0.0000 C   0  0  0  0  0  0  0  0  0  0  0  0
  -14.1464   33.8725    0.0000 C   0  0  0  0  0  0  0  0  0  0  0  0
  -12.7892   34.5111    0.0000 C   0  0  0  0  0  0  0  0  0  0  0  0
  -11.3832   35.0340    0.0000 C   0  0  0  0  0  0  0  0  0  0  0  0
   -9.9385   35.4374    0.0000 C   0  0  0  0  0  0  0  0  0  0  0  0
   -8.4651   35.7184    0.0000 C   0  0  0  0  0  0  0  0  0  0  0  0
   -6.9733   35.8752    0.0000 C   0  0  0  0  0  0  0  0  0  0  0  0
   -5.4736   35.9066    0.0000 C   0  0  0  0  0  0  0  0  0  0  0  0
   -3.9766   35.8125    0.0000 C   0  0  0  0  0  0  0  0  0  0  0  0
   -2.4927   35.5933    0.0000 C   0  0  0  0  0  0  0  0  0  0  0  0
   -1.0323   35.2508    0.0000 C   0  0  0  0  0  0  0  0  0  0  0  0
    0.3943   34.7873    0.0000 C   0  0  0  0  0  0  0  0  0  0  0  0
    1.7771   34.2060    0.0000 C   0  0  0  0  0  0  0  0  0  0  0  0
    3.1064   33.5111    0.0000 C   0  0  0  0  0  0  0  0  0  0  0  0
    4.3729   32.7073    0.0000 C   0  0  0  0  0  0  0  0  0  0  0  0
    5.5677   31.8004    0.0000 C   0  0  0  0  0  0  0  0  0  0  0  0
    6.6824   30.7967    0.0000 C   0  0  0  0  0  0  0  0  0  0  0  0
    7.7092   29.7033    0.0000 C   0  0  0  0  0  0  0  0  0  0  0  0
    8.6409   28.5277    0.0000 C   0  0  0  0  0  0  0  0  0  0  0  0
    9.4710   27.2784    0.0000 C   0  0  0  0  0  0  0  0  0  0  0  0
   10.1937   25.9639    0.0000 C   0  0  0  0  0  0  0  0  0  0  0  0
   10.8038   24.5936    0.0000 C   0  0  0  0  0  0  0  0  0  0  0  0
   11.2971   23.1770    0.0000 C   0  0  0  0  0  0  0  0  0  0  0  0
   11.6701   21.7241    0.0000 C   0  0  0  0  0  0  0  0  0  0  0  0
   11.9203   20.2451    0.0000 C   0  0  0  0  0  0  0  0  0  0  0  0
   12.0458   18.7504    0.0000 C   0  0  0  0  0  0  0  0  0  0  0  0
   12.0458   17.2504    0.0000 C   0  0  0  0  0  0  0  0  0  0  0  0
   11.9203   15.7557    0.0000 C   0  0  0  0  0  0  0  0  0  0  0  0
   11.6701   14.2767    0.0000 C   0  0  0  0  0  0  0  0  0  0  0  0
   11.2971   12.8238    0.0000 C   0  0  0  0  0  0  0  0  0  0  0  0
   10.8038   11.4072    0.0000 C   0  0  0  0  0  0  0  0  0  0  0  0
   10.1937   10.0369    0.0000 C   0  0  0  0  0  0  0  0  0  0  0  0
    9.4710    8.7225    0.0000 C   0  0  0  0  0  0  0  0  0  0  0  0
    8.6409    7.4731    0.0000 C   0  0  0  0  0  0  0  0  0  0  0  0
    7.7092    6.2975    0.0000 C   0  0  0  0  0  0  0  0  0  0  0  0
    6.6824    5.2041    0.0000 C   0  0  0  0  0  0  0  0  0  0  0  0
    5.5677    4.2004    0.0000 C   0  0  0  0  0  0  0  0  0  0  0  0
    4.3729    3.2935    0.0000 C   0  0  0  0  0  0  0  0  0  0  0  0
    3.1064    2.4897    0.0000 C   0  0  0  0  0  0  0  0  0  0  0  0
    1.7771    1.7948    0.0000 C   0  0  0  0  0  0  0  0  0  0  0  0
    0.3943    1.2135    0.0000 C   0  0  0  0  0  0  0  0  0  0  0  0
    1.2760    0.0000    0.0000 C   0  0  0  0  0  0  0  0  0  0  0  0
    0.3943   -1.2135    0.0000 C   0  0  0  0  0  0  0  0  0  0  0  0
   -1.0323   -0.7500    0.0000 C   0  0  0  0  0  0  0  0  0  0  0  0
   -1.0323    0.7500    0.0000 C   0  0  0  0  0  0  0  0  0  0  0  0
  1  2  1  0
  2  3  1  0
  3  4  1  0
  4  5  1  0
  5  6  1  0
  6  7  1  0
  7  8  1  0
  8  9  2  0
  9 10  1  0
 10 11  2  0
 11 12  1  0
 12 13  2  0
 13 14  1  0
 14 15  2  0
 15 16  1  0
 16 17  2  0
 17 18  1  0
 18 19  2  0
 19 20  1  0
 20 21  2  0
 21 22  1  0
 22 23  2  0
 23 24  1  0
 24 25  2  0
 25 26  1  0
 26 27  2  0
 27 28  1  0
 28 29  2  0
 29 30  1  0
 30 31  2  0
 31 32  1  0
 32 33  2  0
 33 34  1  0
 34 35  2  0
 35 36  1  0
 36 37  2  0
 37 38  1  0
 38 39  2  0
 39 40  1  0
 40 41  2  0
 41 42  1  0
 42 43  2  0
 43 44  1  0
 44 45  2  0
 45 46  1  0
 46 47  2  0
 47 48  1  0
 48 49  2  0
 49 50  1  0
 50 51  2  0
 51 52  1  0
 52 53  2  0
 53 54  1  0
 54 55  2  0
 55 56  1  0
 56 57  2  0
 57 58  1  0
 58 59  2  0
 59 60  1  0
 60 61  2  0
 61 62  1  0
 62 63  2  0
 63 64  1  0
 64 65  2  0
 65 66  1  0
 66 67  2  0
 67 68  1  0
 68 69  2  0
 69 70  1  0
 70 71  2  0
 71 72  1  0
 72 73  2  0
 73 74  1  0
 74 75  2  0
 75 76  1  0
 76 77  2  0
 77 78  1  0
 78 79  2  0
 79  2  1  0
 79 75  1  0
M  END
>  <Title>  (609) 
idAAVMgen10

$$$$

     RDKit          2D

 71 73  0  0  0  0  0  0  0  0999 V2000
   -5.1825   -3.9846    0.0000 C   0  0  0  0  0  0  0  0  0  0  0  0
   -3.8785   -3.2434    0.0000 C   0  0  0  0  0  0  0  0  0  0  0  0
   -2.5123   -3.8628    0.0000 C   0  0  0  0  0  0  0  0  0  0  0  0
   -1.5011   -2.7549    0.0000 C   0  0  0  0  0  0  0  0  0  0  0  0
   -2.2423   -1.4508    0.0000 C   0  0  0  0  0  0  0  0  0  0  0  0
   -3.7116   -1.7527    0.0000 C   0  0  0  0  0  0  0  0  0  0  0  0
   -5.1428   -2.2018    0.0000 C   0  0  0  0  0  0  0  0  0  0  0  0
   -6.5212   -2.7933    0.0000 C   0  0  0  0  0  0  0  0  0  0  0  0
   -7.8328   -3.5213    0.0000 C   0  0  0  0  0  0  0  0  0  0  0  0
   -9.0639   -4.3782    0.0000 C   0  0  0  0  0  0  0  0  0  0  0  0
  -10.2020   -5.3552    0.0000 C   0  0  0  0  0  0  0  0  0  0  0  0
  -11.2355   -6.4424    0.0000 C   0  0  0  0  0  0  0  0  0  0  0  0
  -12.1537   -7.6286    0.0000 C   0  0  0  0  0  0  0  0  0  0  0  0
  -12.9471   -8.9015    0.0000 C   0  0  0  0  0  0  0  0  0  0  0  0
  -13.6077  -10.2483    0.0000 C   0  0  0  0  0  0  0  0  0  0  0  0
  -14.1287  -11.6549    0.0000 C   0  0  0  0  0  0  0  0  0  0  0  0
  -14.5046  -13.1070    0.0000 C   0  0  0  0  0  0  0  0  0  0  0  0
  -14.7318  -14.5897    0.0000 C   0  0  0  0  0  0  0  0  0  0  0  0
  -14.8077  -16.0878    0.0000 C   0  0  0  0  0  0  0  0  0  0  0  0
  -14.7318  -17.5859    0.0000 C   0  0  0  0  0  0  0  0  0  0  0  0
  -14.5046  -19.0686    0.0000 C   0  0  0  0  0  0  0  0  0  0  0  0
  -14.1287  -20.5207    0.0000 C   0  0  0  0  0  0  0  0  0  0  0  0
  -13.6077  -21.9273    0.0000 C   0  0  0  0  0  0  0  0  0  0  0  0
  -12.9471  -23.2740    0.0000 C   0  0  0  0  0  0  0  0  0  0  0  0
  -12.1537  -24.5470    0.0000 C   0  0  0  0  0  0  0  0  0  0  0  0
  -11.2355  -25.7331    0.0000 C   0  0  0  0  0  0  0  0  0  0  0  0
  -10.2020  -26.8203    0.0000 C   0  0  0  0  0  0  0  0  0  0  0  0
   -9.0639  -27.7974    0.0000 C   0  0  0  0  0  0  0  0  0  0  0  0
   -7.8328  -28.6543    0.0000 C   0  0  0  0  0  0  0  0  0  0  0  0
   -6.5212  -29.3822    0.0000 C   0  0  0  0  0  0  0  0  0  0  0  0
   -5.1428  -29.9738    0.0000 C   0  0  0  0  0  0  0  0  0  0  0  0
   -3.7116  -30.4228    0.0000 C   0  0  0  0  0  0  0  0  0  0  0  0
   -2.2423  -30.7248    0.0000 C   0  0  0  0  0  0  0  0  0  0  0  0
   -0.7500  -30.8765    0.0000 C   0  0  0  0  0  0  0  0  0  0  0  0
    0.7500  -30.8765    0.0000 C   0  0  0  0  0  0  0  0  0  0  0  0
    2.2423  -30.7248    0.0000 C   0  0  0  0  0  0  0  0  0  0  0  0
    3.7116  -30.4228    0.0000 C   0  0  0  0  0  0  0  0  0  0  0  0
    5.1428  -29.9738    0.0000 C   0  0  0  0  0  0  0  0  0  0  0  0
    6.5212  -29.3822    0.0000 C   0  0  0  0  0  0  0  0  0  0  0  0
    7.8328  -28.6543    0.0000 C   0  0  0  0  0  0  0  0  0  0  0  0
    9.0639  -27.7974    0.0000 C   0  0  0  0  0  0  0  0  0  0  0  0
   10.2020  -26.8203    0.0000 C   0  0  0  0  0  0  0  0  0  0  0  0
   11.2355  -25.7331    0.0000 C   0  0  0  0  0  0  0  0  0  0  0  0
   12.1537  -24.5470    0.0000 C   0  0  0  0  0  0  0  0  0  0  0  0
   12.9471  -23.2740    0.0000 C   0  0  0  0  0  0  0  0  0  0  0  0
   13.6077  -21.9273    0.0000 C   0  0  0  0  0  0  0  0  0  0  0  0
   14.1287  -20.5207    0.0000 C   0  0  0  0  0  0  0  0  0  0  0  0
   14.5046  -19.0686    0.0000 C   0  0  0  0  0  0  0  0  0  0  0  0
   14.7318  -17.5859    0.0000 C   0  0  0  0  0  0  0  0  0  0  0  0
   14.8077  -16.0878    0.0000 C   0  0  0  0  0  0  0  0  0  0  0  0
   14.7318  -14.5897    0.0000 C   0  0  0  0  0  0  0  0  0  0  0  0
   14.5046  -13.1070    0.0000 C   0  0  0  0  0  0  0  0  0  0  0  0
   14.1287  -11.6549    0.0000 C   0  0  0  0  0  0  0  0  0  0  0  0
   13.6077  -10.2483    0.0000 C   0  0  0  0  0  0  0  0  0  0  0  0
   12.9471   -8.9015    0.0000 C   0  0  0  0  0  0  0  0  0  0  0  0
   12.1537   -7.6286    0.0000 C   0  0  0  0  0  0  0  0  0  0  0  0
   11.2355   -6.4424    0.0000 C   0  0  0  0  0  0  0  0  0  0  0  0
   10.2020   -5.3552    0.0000 C   0  0  0  0  0  0  0  0  0  0  0  0
    9.0639   -4.3782    0.0000 C   0  0  0  0  0  0  0  0  0  0  0  0
    7.8328   -3.5213    0.0000 C   0  0  0  0  0  0  0  0  0  0  0  0
    6.5212   -2.7933    0.0000 C   0  0  0  0  0  0  0  0  0  0  0  0
    5.1428   -2.2018    0.0000 C   0  0  0  0  0  0  0  0  0  0  0  0
    3.7116   -1.7527    0.0000 C   0  0  0  0  0  0  0  0  0  0  0  0
    2.2423   -1.4508    0.0000 C   0  0  0  0  0  0  0  0  0  0  0  0
    2.4694    0.0319    0.0000 C   0  0  0  0  0  0  0  0  0  0  0  0
    0.7500   -1.2990    0.0000 C   0  0  0  0  0  0  0  0  0  0  0  0
    1.5000    0.0000    0.0000 C   0  0  0  0  0  0  0  0  0  0  0  0
    0.7500    1.2990    0.0000 C   0  0  0  0  0  0  0  0  0  0  0  0
   -0.7500    1.2990    0.0000 C   0  0  0  0  0  0  0  0  0  0  0  0
   -1.5000    0.0000    0.0000 C   0  0  0  0  0  0  0  0  0  0  0  0
   -0.7500   -1.2990    0.0000 C   0  0  0  0  0  0  0  0  0  0  0  0
  1  2  1  0
  2  3  2  0
  3  4  1  0
  4  5  2  0
  5  6  1  0
  6  7  2  0
  7  8  1  0
  8  9  2  0
  9 10  1  0
 10 11  2  0
 11 12  1  0
 12 13  2  0
 13 14  1  0
 14 15  2  0
 15 16  1  0
 16 17  2  0
 17 18  1  0
 18 19  2  0
 19 20  1  0
 20 21  2  0
 21 22  1  0
 22 23  2  0
 23 24  1  0
 24 25  1  0
 25 26  1  0
 26 27  1  0
 27 28  1  0
 28 29  1  0
 29 30  1  0
 30 31  1  0
 31 32  1  0
 32 33  1  0
 33 34  1  0
 34 35  1  0
 35 36  1  0
 36 37  1  0
 37 38  1  0
 38 39  1  0
 39 40  1  0
 40 41  1  0
 41 42  1  0
 42 43  1  0
 43 44  1  0
 44 45  1  0
 45 46  1  0
 46 47  1  0
 47 48  1  0
 48 49  1  0
 49 50  1  0
 50 51  1  0
 51 52  1  0
 52 53  1  0
 53 54  1  0
 54 55  1  0
 55 56  1  0
 56 57  1  0
 57 58  1  0
 58 59  1  0
 59 60  1  0
 60 61  1  0
 61 62  1  0
 62 63  2  0
 63 64  1  0
 64 65  1  0
 64 66  1  0
 66 67  2  0
 67 68  1  0
 68 69  2  0
 69 70  1  0
 70 71  2  0
  6  2  1  0
 71 66  1  0
 71  5  1  0
M  END
>  <Title>  (610) 
idAAVNgen10

$$$$

     RDKit          2D

  7  6  0  0  0  0  0  0  0  0999 V2000
    0.0000    0.0000    0.0000 C   0  0  0  0  0  0  0  0  0  0  0  0
    1.2990    0.7500    0.0000 C   0  0  0  0  0  0  0  0  0  0  0  0
    2.5981   -0.0000    0.0000 C   0  0  0  0  0  0  0  0  0  0  0  0
    3.8971   -0.7500    0.0000 C   0  0  0  0  0  0  0  0  0  0  0  0
    5.1962   -1.5000    0.0000 C   0  0  0  0  0  0  0  0  0  0  0  0
    6.4952   -0.7500    0.0000 C   0  0  0  0  0  0  0  0  0  0  0  0
    7.7942   -0.0000    0.0000 N   0  0  0  0  0  0  0  0  0  0  0  0
  1  2  2  0
  2  3  1  0
  3  4  3  0
  4  5  1  0
  5  6  1  0
  6  7  3  0
M  END
>  <Title>  (611) 
idAAVOgen10

$$$$

     RDKit          2D

 11 11  0  0  0  0  0  0  0  0999 V2000
    2.7760   -5.1962    0.0000 C   0  0  0  0  0  0  0  0  0  0  0  0
    3.5260   -3.8971    0.0000 C   0  0  0  0  0  0  0  0  0  0  0  0
    2.7760   -2.5981    0.0000 C   0  0  0  0  0  0  0  0  0  0  0  0
    3.5260   -1.2990    0.0000 C   0  0  0  0  0  0  0  0  0  0  0  0
    5.0260   -1.2990    0.0000 C   0  0  0  0  0  0  0  0  0  0  0  0
    2.7760    0.0000    0.0000 N   0  0  0  0  0  0  0  0  0  0  0  0
    1.2760    0.0000    0.0000 C   0  0  0  0  0  0  0  0  0  0  0  0
    0.3943    1.2135    0.0000 C   0  0  0  0  0  0  0  0  0  0  0  0
   -1.0323    0.7500    0.0000 C   0  0  0  0  0  0  0  0  0  0  0  0
   -1.0323   -0.7500    0.0000 C   0  0  0  0  0  0  0  0  0  0  0  0
    0.3943   -1.2135    0.0000 C   0  0  0  0  0  0  0  0  0  0  0  0
  1  2  1  0
  2  3  1  0
  3  4  1  0
  4  5  1  0
  4  6  1  0
  6  7  1  0
  7  8  2  0
  8  9  1  0
  9 10  2  0
 10 11  1  0
 11  7  1  0
M  END
>  <Title>  (612) 
idAAVPgen10

$$$$

     RDKit          2D

 10 10  0  0  0  0  0  0  0  0999 V2000
    4.5000   -2.5981    0.0000 C   0  0  0  0  0  0  0  0  0  0  0  0
    3.7500   -1.2990    0.0000 C   0  0  0  0  0  0  0  0  0  0  0  0
    3.0000    0.0000    0.0000 C   0  0  0  0  0  0  0  0  0  0  0  0
    3.7500    1.2990    0.0000 O   0  0  0  0  0  0  0  0  0  0  0  0
    1.5000    0.0000    0.0000 C   0  0  0  0  0  0  0  0  0  0  0  0
    0.7500   -1.2990    0.0000 C   0  0  0  0  0  0  0  0  0  0  0  0
   -0.7500   -1.2990    0.0000 C   0  0  0  0  0  0  0  0  0  0  0  0
   -1.5000    0.0000    0.0000 C   0  0  0  0  0  0  0  0  0  0  0  0
   -0.7500    1.2990    0.0000 N   0  0  0  0  0  0  0  0  0  0  0  0
    0.7500    1.2990    0.0000 C   0  0  0  0  0  0  0  0  0  0  0  0
  1  2  3  0
  2  3  1  0
  3  4  2  0
  3  5  1  0
  5  6  2  0
  6  7  1  0
  7  8  2  0
  8  9  1  0
  9 10  2  0
 10  5  1  0
M  END
>  <Title>  (613) 
idAAVQgen10

$$$$

     RDKit          2D

 10 10  0  0  0  0  0  0  0  0999 V2000
    7.2760   -2.5981    0.0000 C   0  0  0  0  0  0  0  0  0  0  0  0
    6.5260   -1.2990    0.0000 C   0  0  0  0  0  0  0  0  0  0  0  0
    5.7760   -0.0000    0.0000 C   0  0  0  0  0  0  0  0  0  0  0  0
    4.2760   -0.0000    0.0000 C   0  0  0  0  0  0  0  0  0  0  0  0
    2.7760    0.0000    0.0000 C   0  0  0  0  0  0  0  0  0  0  0  0
    1.2760    0.0000    0.0000 C   0  0  0  0  0  0  0  0  0  0  0  0
    0.3943    1.2135    0.0000 C   0  0  0  0  0  0  0  0  0  0  0  0
   -1.0323    0.7500    0.0000 C   0  0  0  0  0  0  0  0  0  0  0  0
   -1.0323   -0.7500    0.0000 C   0  0  0  0  0  0  0  0  0  0  0  0
    0.3943   -1.2135    0.0000 C   0  0  0  0  0  0  0  0  0  0  0  0
  1  2  3  0
  2  3  1  0
  3  4  1  0
  4  5  3  0
  5  6  1  0
  6  7  2  0
  7  8  1  0
  8  9  1  0
  9 10  2  0
 10  6  1  0
M  END
>  <Title>  (614) 
idAAVRgen10

$$$$

     RDKit          2D

 16 16  0  0  0  0  0  0  0  0999 V2000
    2.2500   -3.8971    0.0000 C   0  0  0  0  0  0  0  0  0  0  0  0
    3.0000   -2.5981    0.0000 C   0  0  0  0  0  0  0  0  0  0  0  0
    3.7500   -1.2990    0.0000 C   0  0  0  0  0  0  0  0  0  0  0  0
    5.2500   -1.2990    0.0000 C   0  0  0  0  0  0  0  0  0  0  0  0
    6.0000   -2.5981    0.0000 C   0  0  0  0  0  0  0  0  0  0  0  0
    3.0000    0.0000    0.0000 C   0  0  0  0  0  0  0  0  0  0  0  0
    1.5000    0.0000    0.0000 C   0  0  0  0  0  0  0  0  0  0  0  0
    0.7500   -1.2990    0.0000 C   0  0  0  0  0  0  0  0  0  0  0  0
   -0.7500   -1.2990    0.0000 C   0  0  0  0  0  0  0  0  0  0  0  0
   -1.5000    0.0000    0.0000 C   0  0  0  0  0  0  0  0  0  0  0  0
   -0.7500    1.2990    0.0000 C   0  0  0  0  0  0  0  0  0  0  0  0
    0.7500    1.2990    0.0000 C   0  0  0  0  0  0  0  0  0  0  0  0
    1.5000    2.5981    0.0000 C   0  0  0  0  0  0  0  0  0  0  0  0
    3.0000    2.5981    0.0000 O   0  0  0  0  0  0  0  0  0  0  0  0
    0.7500    3.8971    0.0000 O   0  0  0  0  0  0  0  0  0  0  0  0
    1.5000    5.1962    0.0000 C   0  0  0  0  0  0  0  0  0  0  0  0
  1  2  3  0
  2  3  1  0
  3  4  1  0
  4  5  1  0
  3  6  1  0
  6  7  1  0
  7  8  2  0
  8  9  1  0
  9 10  2  0
 10 11  1  0
 11 12  2  0
 12 13  1  0
 13 14  2  0
 13 15  1  0
 15 16  1  0
 12  7  1  0
M  END
>  <Title>  (615) 
idAAVSgen10

$$$$

     RDKit          2D

  8  8  0  0  0  0  0  0  0  0999 V2000
    3.0000    0.0000    0.0000 C   0  0  0  0  0  0  0  0  0  0  0  0
    1.5000    0.0000    0.0000 C   0  0  0  0  0  0  0  0  0  0  0  0
    0.7500   -1.2990    0.0000 C   0  0  0  0  0  0  0  0  0  0  0  0
   -0.7500   -1.2990    0.0000 C   0  0  0  0  0  0  0  0  0  0  0  0
   -1.5000    0.0000    0.0000 C   0  0  0  0  0  0  0  0  0  0  0  0
   -0.7500    1.2990    0.0000 C   0  0  0  0  0  0  0  0  0  0  0  0
    0.7500    1.2990    0.0000 C   0  0  0  0  0  0  0  0  0  0  0  0
    1.5000    2.5981    0.0000 C   0  0  0  0  0  0  0  0  0  0  0  0
  1  2  1  0
  2  3  2  0
  3  4  1  0
  4  5  2  0
  5  6  1  0
  6  7  2  0
  7  8  1  0
  7  2  1  0
M  END
>  <Title>  (616) 
idAAVTgen10

$$$$

     RDKit          2D

 10 10  0  0  0  0  0  0  0  0999 V2000
    3.4598   -0.0000    0.0000 C   0  0  0  0  0  0  0  0  0  0  0  0
    1.9598    0.0000    0.0000 C   0  0  0  0  0  0  0  0  0  0  0  0
    1.3858   -1.3858    0.0000 C   0  0  0  0  0  0  0  0  0  0  0  0
   -0.0000   -1.9598    0.0000 C   0  0  0  0  0  0  0  0  0  0  0  0
   -1.3858   -1.3858    0.0000 C   0  0  0  0  0  0  0  0  0  0  0  0
   -1.9598    0.0000    0.0000 C   0  0  0  0  0  0  0  0  0  0  0  0
   -1.3858    1.3858    0.0000 C   0  0  0  0  0  0  0  0  0  0  0  0
    0.0000    1.9598    0.0000 C   0  0  0  0  0  0  0  0  0  0  0  0
    0.0000    3.4598    0.0000 C   0  0  0  0  0  0  0  0  0  0  0  0
    1.3858    1.3858    0.0000 N   0  0  0  0  0  0  0  0  0  0  0  0
  1  2  1  0
  2  3  1  0
  3  4  1  0
  4  5  1  0
  5  6  1  0
  6  7  1  0
  7  8  1  0
  8  9  1  0
  8 10  1  0
 10  2  1  0
M  END
>  <Title>  (617) 
idAAVUgen10

$$$$

     RDKit          2D

 13 13  0  0  0  0  0  0  0  0999 V2000
    4.2760    2.5981    0.0000 C   0  0  0  0  0  0  0  0  0  0  0  0
    3.5260    1.2990    0.0000 C   0  0  0  0  0  0  0  0  0  0  0  0
    2.7760    0.0000    0.0000 C   0  0  0  0  0  0  0  0  0  0  0  0
    3.5260   -1.2990    0.0000 O   0  0  0  0  0  0  0  0  0  0  0  0
    1.2760    0.0000    0.0000 N   0  0  0  0  0  0  0  0  0  0  0  0
    0.3943    1.2135    0.0000 C   0  0  0  0  0  0  0  0  0  0  0  0
   -1.0323    0.7500    0.0000 C   0  0  0  0  0  0  0  0  0  0  0  0
   -1.0323   -0.7500    0.0000 C   0  0  0  0  0  0  0  0  0  0  0  0
   -2.2458   -1.6317    0.0000 C   0  0  0  0  0  0  0  0  0  0  0  0
   -2.0890   -3.1235    0.0000 O   0  0  0  0  0  0  0  0  0  0  0  0
   -3.6161   -1.0216    0.0000 O   0  0  0  0  0  0  0  0  0  0  0  0
    0.3943   -1.2135    0.0000 C   0  0  0  0  0  0  0  0  0  0  0  0
    0.8578   -2.6401    0.0000 O   0  0  0  0  0  0  0  0  0  0  0  0
  1  2  3  0
  2  3  1  0
  3  4  2  0
  3  5  1  0
  5  6  1  0
  6  7  1  0
  7  8  1  0
  8  9  1  0
  9 10  2  0
  9 11  1  0
  8 12  1  0
 12 13  2  0
 12  5  1  0
M  END
>  <Title>  (618) 
idAAVVgen10

$$$$

     RDKit          2D

 11 11  0  0  0  0  0  0  0  0999 V2000
    6.7500   -3.8971    0.0000 C   0  0  0  0  0  0  0  0  0  0  0  0
    6.0000   -2.5981    0.0000 C   0  0  0  0  0  0  0  0  0  0  0  0
    5.2500   -1.2990    0.0000 C   0  0  0  0  0  0  0  0  0  0  0  0
    3.7500   -1.2990    0.0000 C   0  0  0  0  0  0  0  0  0  0  0  0
    3.0000    0.0000    0.0000 C   0  0  0  0  0  0  0  0  0  0  0  0
    1.5000    0.0000    0.0000 C   0  0  0  0  0  0  0  0  0  0  0  0
    0.7500   -1.2990    0.0000 C   0  0  0  0  0  0  0  0  0  0  0  0
   -0.7500   -1.2990    0.0000 C   0  0  0  0  0  0  0  0  0  0  0  0
   -1.5000    0.0000    0.0000 C   0  0  0  0  0  0  0  0  0  0  0  0
   -0.7500    1.2990    0.0000 C   0  0  0  0  0  0  0  0  0  0  0  0
    0.7500    1.2990    0.0000 C   0  0  0  0  0  0  0  0  0  0  0  0
  1  2  3  0
  2  3  1  0
  3  4  1  0
  4  5  1  0
  5  6  1  0
  6  7  2  0
  7  8  1  0
  8  9  2  0
  9 10  1  0
 10 11  2  0
 11  6  1  0
M  END
>  <Title>  (619) 
idAAVWgen10

$$$$

     RDKit          2D

 35 39  0  0  0  0  0  0  0  0999 V2000
    8.6263   -4.9336    0.0000 C   0  0  0  0  0  0  0  0  0  0  0  0
    7.6226   -6.0483    0.0000 C   0  0  0  0  0  0  0  0  0  0  0  0
    6.6189   -7.1630    0.0000 C   0  0  0  0  0  0  0  0  0  0  0  0
    5.6152   -8.2778    0.0000 C   0  0  0  0  0  0  0  0  0  0  0  0
    4.6115   -9.3925    0.0000 C   0  0  0  0  0  0  0  0  0  0  0  0
    5.0750  -10.8191    0.0000 C   0  0  0  0  0  0  0  0  0  0  0  0
    4.0713  -11.9338    0.0000 C   0  0  0  0  0  0  0  0  0  0  0  0
    2.6041  -11.6219    0.0000 C   0  0  0  0  0  0  0  0  0  0  0  0
    2.1406  -10.1953    0.0000 C   0  0  0  0  0  0  0  0  0  0  0  0
    3.1443   -9.0806    0.0000 C   0  0  0  0  0  0  0  0  0  0  0  0
    2.6807   -7.6540    0.0000 C   0  0  0  0  0  0  0  0  0  0  0  0
    3.6844   -6.5393    0.0000 O   0  0  0  0  0  0  0  0  0  0  0  0
    1.2135   -7.3421    0.0000 N   0  0  0  0  0  0  0  0  0  0  0  0
    0.7500   -5.9156    0.0000 C   0  0  0  0  0  0  0  0  0  0  0  0
    1.9635   -5.0339    0.0000 N   0  0  0  0  0  0  0  0  0  0  0  0
    2.4271   -3.6073    0.0000 N   0  0  0  0  0  0  0  0  0  0  0  0
    1.9635   -2.1807    0.0000 N   0  0  0  0  0  0  0  0  0  0  0  0
    0.7500   -1.2990    0.0000 N   0  0  0  0  0  0  0  0  0  0  0  0
    1.5000    0.0000    0.0000 C   0  0  0  0  0  0  0  0  0  0  0  0
    0.7500    1.2990    0.0000 C   0  0  0  0  0  0  0  0  0  0  0  0
   -0.7500    1.2990    0.0000 C   0  0  0  0  0  0  0  0  0  0  0  0
   -1.5000    0.0000    0.0000 C   0  0  0  0  0  0  0  0  0  0  0  0
   -0.7500   -1.2990    0.0000 C   0  0  0  0  0  0  0  0  0  0  0  0
   -1.9635   -2.1807    0.0000 C   0  0  0  0  0  0  0  0  0  0  0  0
   -2.9672   -1.0660    0.0000 C   0  0  0  0  0  0  0  0  0  0  0  0
   -4.4344   -1.3779    0.0000 C   0  0  0  0  0  0  0  0  0  0  0  0
   -4.8980   -2.8045    0.0000 C   0  0  0  0  0  0  0  0  0  0  0  0
   -3.8943   -3.9192    0.0000 C   0  0  0  0  0  0  0  0  0  0  0  0
   -2.4271   -3.6073    0.0000 C   0  0  0  0  0  0  0  0  0  0  0  0
   -1.9635   -5.0339    0.0000 C   0  0  0  0  0  0  0  0  0  0  0  0
   -3.3338   -5.6440    0.0000 C   0  0  0  0  0  0  0  0  0  0  0  0
   -3.4906   -7.1358    0.0000 C   0  0  0  0  0  0  0  0  0  0  0  0
   -2.2771   -8.0175    0.0000 C   0  0  0  0  0  0  0  0  0  0  0  0
   -0.9068   -7.4073    0.0000 C   0  0  0  0  0  0  0  0  0  0  0  0
   -0.7500   -5.9156    0.0000 C   0  0  0  0  0  0  0  0  0  0  0  0
  1  2  3  0
  2  3  1  0
  3  4  3  0
  4  5  1  0
  5  6  2  0
  6  7  1  0
  7  8  2  0
  8  9  1  0
  9 10  2  0
 10 11  1  0
 11 12  2  0
 11 13  1  0
 13 14  1  0
 14 15  2  0
 15 16  1  0
 16 17  2  0
 17 18  1  0
 18 19  1  0
 19 20  1  0
 20 21  2  0
 21 22  1  0
 22 23  2  0
 23 24  1  0
 24 25  2  0
 25 26  1  0
 26 27  2  0
 27 28  1  0
 28 29  2  0
 29 30  1  0
 30 31  2  0
 31 32  1  0
 32 33  2  0
 33 34  1  0
 34 35  2  0
 10  5  1  0
 35 14  1  0
 23 18  1  0
 29 24  1  0
 35 30  1  0
M  END
>  <Title>  (620) 
idAAVXgen10

$$$$

     RDKit          2D

  9 10  0  0  0  0  0  0  0  0999 V2000
    1.5000    0.0000    0.0000 C   0  0  0  0  0  0  0  0  0  0  0  0
    0.7500   -1.2990    0.0000 C   0  0  0  0  0  0  0  0  0  0  0  0
   -0.7500   -1.2990    0.0000 C   0  0  0  0  0  0  0  0  0  0  0  0
   -1.5000    0.0000    0.0000 C   0  0  0  0  0  0  0  0  0  0  0  0
   -0.7500    1.2990    0.0000 C   0  0  0  0  0  0  0  0  0  0  0  0
    0.7500    1.2990    0.0000 C   0  0  0  0  0  0  0  0  0  0  0  0
   -1.7537    2.4138    0.0000 C   0  0  0  0  0  0  0  0  0  0  0  0
   -3.1240    1.8037    0.0000 C   0  0  0  0  0  0  0  0  0  0  0  0
   -2.9672    0.3119    0.0000 C   0  0  0  0  0  0  0  0  0  0  0  0
  1  2  2  0
  2  3  1  0
  3  4  2  0
  4  5  1  0
  5  6  2  0
  5  7  1  0
  7  8  1  0
  8  9  1  0
  6  1  1  0
  9  4  1  0
M  END
>  <Title>  (621) 
idAAVYgen10

$$$$

     RDKit          2D

 79 81  0  0  0  0  0  0  0  0999 V2000
   -0.8707    6.3740    0.0000 C   0  0  0  0  0  0  0  0  0  0  0  0
    0.5759    6.7709    0.0000 C   0  0  0  0  0  0  0  0  0  0  0  0
    0.2539    8.2359    0.0000 C   0  0  0  0  0  0  0  0  0  0  0  0
    0.0843    9.7263    0.0000 C   0  0  0  0  0  0  0  0  0  0  0  0
    0.0689   11.2262    0.0000 C   0  0  0  0  0  0  0  0  0  0  0  0
    0.2077   12.7198    0.0000 C   0  0  0  0  0  0  0  0  0  0  0  0
    0.4994   14.1912    0.0000 C   0  0  0  0  0  0  0  0  0  0  0  0
    0.9408   15.6247    0.0000 C   0  0  0  0  0  0  0  0  0  0  0  0
    1.5273   17.0053    0.0000 C   0  0  0  0  0  0  0  0  0  0  0  0
    2.2527   18.3183    0.0000 C   0  0  0  0  0  0  0  0  0  0  0  0
    3.1092   19.5497    0.0000 C   0  0  0  0  0  0  0  0  0  0  0  0
    4.0877   20.6866    0.0000 C   0  0  0  0  0  0  0  0  0  0  0  0
    5.1780   21.7168    0.0000 C   0  0  0  0  0  0  0  0  0  0  0  0
    6.3684   22.6294    0.0000 C   0  0  0  0  0  0  0  0  0  0  0  0
    7.6464   23.4148    0.0000 C   0  0  0  0  0  0  0  0  0  0  0  0
    8.9983   24.0646    0.0000 C   0  0  0  0  0  0  0  0  0  0  0  0
   10.4099   24.5720    0.0000 C   0  0  0  0  0  0  0  0  0  0  0  0
   11.8662   24.9315    0.0000 C   0  0  0  0  0  0  0  0  0  0  0  0
   13.3517   25.1395    0.0000 C   0  0  0  0  0  0  0  0  0  0  0  0
   14.8507   25.1935    0.0000 C   0  0  0  0  0  0  0  0  0  0  0  0
   16.3474   25.0932    0.0000 C   0  0  0  0  0  0  0  0  0  0  0  0
   17.8257   24.8395    0.0000 C   0  0  0  0  0  0  0  0  0  0  0  0
   19.2702   24.4351    0.0000 C   0  0  0  0  0  0  0  0  0  0  0  0
   20.6654   23.8843    0.0000 C   0  0  0  0  0  0  0  0  0  0  0  0
   21.9967   23.1930    0.0000 C   0  0  0  0  0  0  0  0  0  0  0  0
   23.2497   22.3685    0.0000 C   0  0  0  0  0  0  0  0  0  0  0  0
   24.4114   21.4196    0.0000 C   0  0  0  0  0  0  0  0  0  0  0  0
   25.4693   20.3562    0.0000 C   0  0  0  0  0  0  0  0  0  0  0  0
   26.4123   19.1897    0.0000 C   0  0  0  0  0  0  0  0  0  0  0  0
   27.2303   17.9323    0.0000 C   0  0  0  0  0  0  0  0  0  0  0  0
   27.9148   16.5976    0.0000 C   0  0  0  0  0  0  0  0  0  0  0  0
   28.4583   15.1995    0.0000 C   0  0  0  0  0  0  0  0  0  0  0  0
   28.8552   13.7530    0.0000 C   0  0  0  0  0  0  0  0  0  0  0  0
   29.1013   12.2733    0.0000 C   0  0  0  0  0  0  0  0  0  0  0  0
   29.1940   10.7762    0.0000 C   0  0  0  0  0  0  0  0  0  0  0  0
   29.1322    9.2775    0.0000 C   0  0  0  0  0  0  0  0  0  0  0  0
   28.9166    7.7930    0.0000 C   0  0  0  0  0  0  0  0  0  0  0  0
   28.5496    6.3386    0.0000 C   0  0  0  0  0  0  0  0  0  0  0  0
   28.0349    4.9297    0.0000 C   0  0  0  0  0  0  0  0  0  0  0  0
   27.3782    3.5811    0.0000 C   0  0  0  0  0  0  0  0  0  0  0  0
   26.5862    2.3072    0.0000 C   0  0  0  0  0  0  0  0  0  0  0  0
   25.6674    1.1215    0.0000 C   0  0  0  0  0  0  0  0  0  0  0  0
   24.6316    0.0366    0.0000 C   0  0  0  0  0  0  0  0  0  0  0  0
   23.4898   -0.9361    0.0000 C   0  0  0  0  0  0  0  0  0  0  0  0
   22.2540   -1.7863    0.0000 C   0  0  0  0  0  0  0  0  0  0  0  0
   20.9373   -2.5048    0.0000 C   0  0  0  0  0  0  0  0  0  0  0  0
   19.5537   -3.0842    0.0000 C   0  0  0  0  0  0  0  0  0  0  0  0
   18.1179   -3.5182    0.0000 C   0  0  0  0  0  0  0  0  0  0  0  0
   16.6450   -3.8023    0.0000 C   0  0  0  0  0  0  0  0  0  0  0  0
   15.1507   -3.9335    0.0000 C   0  0  0  0  0  0  0  0  0  0  0  0
   13.6509   -3.9103    0.0000 C   0  0  0  0  0  0  0  0  0  0  0  0
   12.1614   -3.7331    0.0000 C   0  0  0  0  0  0  0  0  0  0  0  0
   10.6981   -3.4036    0.0000 C   0  0  0  0  0  0  0  0  0  0  0  0
    9.2763   -2.9254    0.0000 C   0  0  0  0  0  0  0  0  0  0  0  0
    7.9113   -2.3036    0.0000 C   0  0  0  0  0  0  0  0  0  0  0  0
    6.6174   -1.5447    0.0000 C   0  0  0  0  0  0  0  0  0  0  0  0
    5.4085   -0.6567    0.0000 C   0  0  0  0  0  0  0  0  0  0  0  0
    4.2972    0.3508    0.0000 C   0  0  0  0  0  0  0  0  0  0  0  0
    3.2954    1.4672    0.0000 C   0  0  0  0  0  0  0  0  0  0  0  0
    3.6073    0.0000    0.0000 C   0  0  0  0  0  0  0  0  0  0  0  0
    3.2954   -1.4672    0.0000 C   0  0  0  0  0  0  0  0  0  0  0  0
    2.4138   -2.6807    0.0000 C   0  0  0  0  0  0  0  0  0  0  0  0
    1.1147   -3.4307    0.0000 C   0  0  0  0  0  0  0  0  0  0  0  0
   -0.3771   -3.5875    0.0000 C   0  0  0  0  0  0  0  0  0  0  0  0
   -1.8037   -3.1240    0.0000 C   0  0  0  0  0  0  0  0  0  0  0  0
   -2.9184   -2.1203    0.0000 C   0  0  0  0  0  0  0  0  0  0  0  0
   -3.5285   -0.7500    0.0000 C   0  0  0  0  0  0  0  0  0  0  0  0
   -3.5285    0.7500    0.0000 C   0  0  0  0  0  0  0  0  0  0  0  0
   -2.9184    2.1203    0.0000 C   0  0  0  0  0  0  0  0  0  0  0  0
   -1.8037    3.1240    0.0000 C   0  0  0  0  0  0  0  0  0  0  0  0
   -0.3771    3.5875    0.0000 C   0  0  0  0  0  0  0  0  0  0  0  0
    1.1147    3.4307    0.0000 C   0  0  0  0  0  0  0  0  0  0  0  0
    2.4138    2.6807    0.0000 C   0  0  0  0  0  0  0  0  0  0  0  0
    1.6615    3.9785    0.0000 C   0  0  0  0  0  0  0  0  0  0  0  0
    3.1538    3.8268    0.0000 C   0  0  0  0  0  0  0  0  0  0  0  0
    4.0313    5.0434    0.0000 C   0  0  0  0  0  0  0  0  0  0  0  0
    3.4165    6.4116    0.0000 C   0  0  0  0  0  0  0  0  0  0  0  0
    1.9242    6.5633    0.0000 C   0  0  0  0  0  0  0  0  0  0  0  0
    1.0467    5.3467    0.0000 C   0  0  0  0  0  0  0  0  0  0  0  0
  1  2  1  0
  2  3  1  0
  3  4  1  0
  4  5  1  0
  5  6  1  0
  6  7  1  0
  7  8  1  0
  8  9  1  0
  9 10  1  0
 10 11  1  0
 11 12  1  0
 12 13  1  0
 13 14  1  0
 14 15  1  0
 15 16  1  0
 16 17  1  0
 17 18  1  0
 18 19  1  0
 19 20  1  0
 20 21  1  0
 21 22  1  0
 22 23  1  0
 23 24  1  0
 24 25  1  0
 25 26  1  0
 26 27  1  0
 27 28  1  0
 28 29  1  0
 29 30  1  0
 30 31  1  0
 31 32  1  0
 32 33  1  0
 33 34  1  0
 34 35  1  0
 35 36  1  0
 36 37  1  0
 37 38  1  0
 38 39  1  0
 39 40  1  0
 40 41  1  0
 41 42  1  0
 42 43  1  0
 43 44  1  0
 44 45  1  0
 45 46  1  0
 46 47  1  0
 47 48  1  0
 48 49  1  0
 49 50  1  0
 50 51  1  0
 51 52  1  0
 52 53  1  0
 53 54  1  0
 54 55  1  0
 55 56  1  0
 56 57  1  0
 57 58  1  0
 58 59  1  0
 59 60  1  0
 60 61  2  0
 61 62  1  0
 62 63  2  0
 63 64  1  0
 64 65  2  0
 65 66  1  0
 66 67  2  0
 67 68  1  0
 68 69  2  0
 69 70  1  0
 70 71  2  0
 71 72  1  0
 72 73  2  0
 73 74  1  0
 74 75  2  0
 75 76  1  0
 76 77  2  0
 77 78  1  0
 78 79  2  0
 79  2  1  0
 73 59  1  0
 79 74  1  0
M  END
>  <Title>  (622) 
idAAVZgen10

$$$$

     RDKit          2D

 11 11  0  0  0  0  0  0  0  0999 V2000
    5.2500   -1.2990    0.0000 C   0  0  0  0  0  0  0  0  0  0  0  0
    3.7500   -1.2990    0.0000 C   0  0  0  0  0  0  0  0  0  0  0  0
    3.0000   -2.5981    0.0000 O   0  0  0  0  0  0  0  0  0  0  0  0
    3.0000    0.0000    0.0000 N   0  0  0  0  0  0  0  0  0  0  0  0
    1.5000    0.0000    0.0000 C   0  0  0  0  0  0  0  0  0  0  0  0
    0.7500   -1.2990    0.0000 C   0  0  0  0  0  0  0  0  0  0  0  0
   -0.7500   -1.2990    0.0000 C   0  0  0  0  0  0  0  0  0  0  0  0
   -1.5000    0.0000    0.0000 C   0  0  0  0  0  0  0  0  0  0  0  0
   -0.7500    1.2990    0.0000 C   0  0  0  0  0  0  0  0  0  0  0  0
   -1.5000    2.5981    0.0000 C   0  0  0  0  0  0  0  0  0  0  0  0
    0.7500    1.2990    0.0000 N   0  0  0  0  0  0  0  0  0  0  0  0
  1  2  1  0
  2  3  2  0
  2  4  1  0
  4  5  1  0
  5  6  2  0
  6  7  1  0
  7  8  1  0
  8  9  2  0
  9 10  1  0
  9 11  1  0
 11  5  1  0
M  END
>  <Title>  (623) 
idAAWAgen10

$$$$

     RDKit          2D

  9  9  0  0  0  0  0  0  0  0999 V2000
    4.5000   -2.5981    0.0000 C   0  0  0  0  0  0  0  0  0  0  0  0
    3.7500   -1.2990    0.0000 C   0  0  0  0  0  0  0  0  0  0  0  0
    3.0000    0.0000    0.0000 C   0  0  0  0  0  0  0  0  0  0  0  0
    1.5000    0.0000    0.0000 N   0  0  0  0  0  0  0  0  0  0  0  0
    0.7500   -1.2990    0.0000 C   0  0  0  0  0  0  0  0  0  0  0  0
   -0.7500   -1.2990    0.0000 C   0  0  0  0  0  0  0  0  0  0  0  0
   -1.5000    0.0000    0.0000 C   0  0  0  0  0  0  0  0  0  0  0  0
   -0.7500    1.2990    0.0000 C   0  0  0  0  0  0  0  0  0  0  0  0
    0.7500    1.2990    0.0000 C   0  0  0  0  0  0  0  0  0  0  0  0
  1  2  3  0
  2  3  1  0
  3  4  1  0
  4  5  1  0
  5  6  2  0
  6  7  1  0
  7  8  2  0
  8  9  1  0
  9  4  1  0
M  END
>  <Title>  (624) 
idAAWBgen10

$$$$

     RDKit          2D

 68 75  0  0  0  0  0  0  0  0999 V2000
   -7.6489  -14.6002    0.0000 C   0  0  0  0  0  0  0  0  0  0  0  0
   -6.4271  -13.7301    0.0000 C   0  0  0  0  0  0  0  0  0  0  0  0
   -5.4448  -14.8637    0.0000 C   0  0  0  0  0  0  0  0  0  0  0  0
   -4.2657  -15.7910    0.0000 C   0  0  0  0  0  0  0  0  0  0  0  0
   -2.9324  -16.4783    0.0000 C   0  0  0  0  0  0  0  0  0  0  0  0
   -1.4932  -16.9009    0.0000 C   0  0  0  0  0  0  0  0  0  0  0  0
   -0.0000  -17.0435    0.0000 C   0  0  0  0  0  0  0  0  0  0  0  0
    1.4932  -16.9009    0.0000 C   0  0  0  0  0  0  0  0  0  0  0  0
    2.9324  -16.4783    0.0000 C   0  0  0  0  0  0  0  0  0  0  0  0
    4.2657  -15.7910    0.0000 C   0  0  0  0  0  0  0  0  0  0  0  0
    5.4448  -14.8637    0.0000 C   0  0  0  0  0  0  0  0  0  0  0  0
    6.4271  -13.7301    0.0000 C   0  0  0  0  0  0  0  0  0  0  0  0
    7.1771  -12.4311    0.0000 C   0  0  0  0  0  0  0  0  0  0  0  0
    7.6677  -11.0136    0.0000 C   0  0  0  0  0  0  0  0  0  0  0  0
    7.8811   -9.5288    0.0000 C   0  0  0  0  0  0  0  0  0  0  0  0
    7.8098   -8.0305    0.0000 C   0  0  0  0  0  0  0  0  0  0  0  0
    7.4561   -6.5728    0.0000 C   0  0  0  0  0  0  0  0  0  0  0  0
    6.8330   -5.2084    0.0000 C   0  0  0  0  0  0  0  0  0  0  0  0
    5.9629   -3.9865    0.0000 C   0  0  0  0  0  0  0  0  0  0  0  0
    4.8773   -2.9514    0.0000 C   0  0  0  0  0  0  0  0  0  0  0  0
    3.6154   -2.1404    0.0000 C   0  0  0  0  0  0  0  0  0  0  0  0
    2.2229   -1.5829    0.0000 C   0  0  0  0  0  0  0  0  0  0  0  0
    2.6455   -0.1437    0.0000 C   0  0  0  0  0  0  0  0  0  0  0  0
    4.1032    0.2100    0.0000 C   0  0  0  0  0  0  0  0  0  0  0  0
    4.5258    1.6492    0.0000 O   0  0  0  0  0  0  0  0  0  0  0  0
    1.6104    0.9419    0.0000 N   0  0  0  0  0  0  0  0  0  0  0  0
    2.0330    2.3812    0.0000 C   0  0  0  0  0  0  0  0  0  0  0  0
    3.4907    2.7348    0.0000 N   0  0  0  0  0  0  0  0  0  0  0  0
    3.9133    4.1740    0.0000 N   0  0  0  0  0  0  0  0  0  0  0  0
    2.8782    5.2596    0.0000 N   0  0  0  0  0  0  0  0  0  0  0  0
    1.4205    4.9060    0.0000 N   0  0  0  0  0  0  0  0  0  0  0  0
    0.9979    3.4668    0.0000 N   0  0  0  0  0  0  0  0  0  0  0  0
    0.7500   -1.2990    0.0000 C   0  0  0  0  0  0  0  0  0  0  0  0
    1.5000    0.0000    0.0000 C   0  0  0  0  0  0  0  0  0  0  0  0
    0.7500    1.2990    0.0000 C   0  0  0  0  0  0  0  0  0  0  0  0
   -0.7500    1.2990    0.0000 C   0  0  0  0  0  0  0  0  0  0  0  0
   -1.5000    0.0000    0.0000 C   0  0  0  0  0  0  0  0  0  0  0  0
   -0.7500   -1.2990    0.0000 C   0  0  0  0  0  0  0  0  0  0  0  0
   -2.2229   -1.5829    0.0000 C   0  0  0  0  0  0  0  0  0  0  0  0
   -2.6593   -0.3583    0.0000 C   0  0  0  0  0  0  0  0  0  0  0  0
   -3.2881    0.1362    0.0000 C   0  0  0  0  0  0  0  0  0  0  0  0
   -4.0308   -0.1611    0.0000 C   0  0  0  0  0  0  0  0  0  0  0  0
   -4.1447   -0.9530    0.0000 C   0  0  0  0  0  0  0  0  0  0  0  0
   -3.6154   -2.1404    0.0000 C   0  0  0  0  0  0  0  0  0  0  0  0
   -4.8773   -2.9514    0.0000 C   0  0  0  0  0  0  0  0  0  0  0  0
   -5.2310   -1.4937    0.0000 C   0  0  0  0  0  0  0  0  0  0  0  0
   -6.6702   -1.0711    0.0000 C   0  0  0  0  0  0  0  0  0  0  0  0
   -7.7558   -2.1062    0.0000 C   0  0  0  0  0  0  0  0  0  0  0  0
   -7.4022   -3.5639    0.0000 C   0  0  0  0  0  0  0  0  0  0  0  0
   -5.9629   -3.9865    0.0000 C   0  0  0  0  0  0  0  0  0  0  0  0
   -6.8330   -5.2084    0.0000 C   0  0  0  0  0  0  0  0  0  0  0  0
   -7.9939   -4.6232    0.0000 C   0  0  0  0  0  0  0  0  0  0  0  0
   -8.7903   -4.6993    0.0000 C   0  0  0  0  0  0  0  0  0  0  0  0
   -9.1226   -5.4270    0.0000 C   0  0  0  0  0  0  0  0  0  0  0  0
   -8.6586   -6.0786    0.0000 C   0  0  0  0  0  0  0  0  0  0  0  0
   -7.4561   -6.5728    0.0000 C   0  0  0  0  0  0  0  0  0  0  0  0
   -7.8098   -8.0305    0.0000 C   0  0  0  0  0  0  0  0  0  0  0  0
   -9.0717   -7.2196    0.0000 C   0  0  0  0  0  0  0  0  0  0  0  0
  -10.4049   -7.9069    0.0000 C   0  0  0  0  0  0  0  0  0  0  0  0
  -10.4763   -9.4052    0.0000 C   0  0  0  0  0  0  0  0  0  0  0  0
   -9.2144  -10.2162    0.0000 C   0  0  0  0  0  0  0  0  0  0  0  0
   -7.8811   -9.5288    0.0000 C   0  0  0  0  0  0  0  0  0  0  0  0
   -7.6677  -11.0136    0.0000 C   0  0  0  0  0  0  0  0  0  0  0  0
   -8.9116  -11.3912    0.0000 C   0  0  0  0  0  0  0  0  0  0  0  0
   -9.4355  -11.9958    0.0000 C   0  0  0  0  0  0  0  0  0  0  0  0
   -9.1739  -12.7518    0.0000 C   0  0  0  0  0  0  0  0  0  0  0  0
   -8.3883  -12.9032    0.0000 C   0  0  0  0  0  0  0  0  0  0  0  0
   -7.1771  -12.4311    0.0000 C   0  0  0  0  0  0  0  0  0  0  0  0
  1  2  1  0
  2  3  1  0
  3  4  2  0
  4  5  1  0
  5  6  2  0
  6  7  1  0
  7  8  2  0
  8  9  1  0
  9 10  2  0
 10 11  1  0
 11 12  2  0
 12 13  1  0
 13 14  2  0
 14 15  1  0
 15 16  2  0
 16 17  1  0
 17 18  2  0
 18 19  1  0
 19 20  2  0
 20 21  1  0
 21 22  2  0
 22 23  1  0
 23 24  1  0
 24 25  1  0
 23 26  1  0
 26 27  1  0
 27 28  2  0
 28 29  1  0
 29 30  2  0
 30 31  1  0
 31 32  2  0
 22 33  1  0
 33 34  2  0
 34 35  1  0
 35 36  2  0
 36 37  1  0
 37 38  2  0
 38 39  1  0
 39 40  2  0
 40 41  1  0
 41 42  2  0
 42 43  1  0
 43 44  2  0
 44 45  1  0
 45 46  2  0
 46 47  1  0
 47 48  2  0
 48 49  1  0
 49 50  2  0
 50 51  1  0
 51 52  2  0
 52 53  1  0
 53 54  2  0
 54 55  1  0
 55 56  2  0
 56 57  1  0
 57 58  2  0
 58 59  1  0
 59 60  2  0
 60 61  1  0
 61 62  2  0
 62 63  1  0
 63 64  2  0
 64 65  1  0
 65 66  2  0
 66 67  1  0
 67 68  2  0
 68  2  1  0
 32 27  1  0
 38 33  1  0
 44 39  1  0
 50 45  1  0
 56 51  1  0
 62 57  1  0
 68 63  1  0
M  END
>  <Title>  (625) 
idAAWCgen10

$$$$

     RDKit          2D

 87 87  0  0  0  0  0  0  0  0999 V2000
   23.2969   -0.0000    0.0000 C   0  0  0  0  0  0  0  0  0  0  0  0
   21.7969    0.0000    0.0000 C   0  0  0  0  0  0  0  0  0  0  0  0
   20.2969    0.0000    0.0000 C   0  0  0  0  0  0  0  0  0  0  0  0
   20.2414    1.4990    0.0000 C   0  0  0  0  0  0  0  0  0  0  0  0
   20.0755    2.9898    0.0000 C   0  0  0  0  0  0  0  0  0  0  0  0
   19.7998    4.4642    0.0000 C   0  0  0  0  0  0  0  0  0  0  0  0
   19.4161    5.9143    0.0000 C   0  0  0  0  0  0  0  0  0  0  0  0
   18.9263    7.3321    0.0000 C   0  0  0  0  0  0  0  0  0  0  0  0
   18.3331    8.7098    0.0000 C   0  0  0  0  0  0  0  0  0  0  0  0
   17.6398   10.0400    0.0000 C   0  0  0  0  0  0  0  0  0  0  0  0
   16.8501   11.3153    0.0000 C   0  0  0  0  0  0  0  0  0  0  0  0
   15.9685   12.5288    0.0000 C   0  0  0  0  0  0  0  0  0  0  0  0
   14.9996   13.6739    0.0000 C   0  0  0  0  0  0  0  0  0  0  0  0
   13.9488   14.7443    0.0000 C   0  0  0  0  0  0  0  0  0  0  0  0
   12.8218   15.7342    0.0000 C   0  0  0  0  0  0  0  0  0  0  0  0
   11.6247   16.6382    0.0000 C   0  0  0  0  0  0  0  0  0  0  0  0
   10.3642   17.4513    0.0000 C   0  0  0  0  0  0  0  0  0  0  0  0
    9.0471   18.1690    0.0000 C   0  0  0  0  0  0  0  0  0  0  0  0
    7.6806   18.7876    0.0000 C   0  0  0  0  0  0  0  0  0  0  0  0
    6.2721   19.3035    0.0000 C   0  0  0  0  0  0  0  0  0  0  0  0
    4.8293   19.7140    0.0000 C   0  0  0  0  0  0  0  0  0  0  0  0
    3.3602   20.0168    0.0000 C   0  0  0  0  0  0  0  0  0  0  0  0
    1.8728   20.2103    0.0000 C   0  0  0  0  0  0  0  0  0  0  0  0
    0.3751   20.2934    0.0000 C   0  0  0  0  0  0  0  0  0  0  0  0
   -1.1247   20.2657    0.0000 C   0  0  0  0  0  0  0  0  0  0  0  0
   -2.6183   20.1273    0.0000 C   0  0  0  0  0  0  0  0  0  0  0  0
   -4.0976   19.8790    0.0000 C   0  0  0  0  0  0  0  0  0  0  0  0
   -5.5545   19.5221    0.0000 C   0  0  0  0  0  0  0  0  0  0  0  0
   -6.9811   19.0585    0.0000 C   0  0  0  0  0  0  0  0  0  0  0  0
   -8.3695   18.4909    0.0000 C   0  0  0  0  0  0  0  0  0  0  0  0
   -9.7123   17.8223    0.0000 C   0  0  0  0  0  0  0  0  0  0  0  0
  -11.0020   17.0564    0.0000 C   0  0  0  0  0  0  0  0  0  0  0  0
  -12.2316   16.1973    0.0000 C   0  0  0  0  0  0  0  0  0  0  0  0
  -13.3944   15.2497    0.0000 C   0  0  0  0  0  0  0  0  0  0  0  0
  -14.4841   14.2188    0.0000 C   0  0  0  0  0  0  0  0  0  0  0  0
  -15.4946   13.1103    0.0000 C   0  0  0  0  0  0  0  0  0  0  0  0
  -16.4205   11.9302    0.0000 C   0  0  0  0  0  0  0  0  0  0  0  0
  -17.2568   10.6849    0.0000 C   0  0  0  0  0  0  0  0  0  0  0  0
  -17.9987    9.3813    0.0000 C   0  0  0  0  0  0  0  0  0  0  0  0
  -18.6424    8.0264    0.0000 C   0  0  0  0  0  0  0  0  0  0  0  0
  -19.1843    6.6277    0.0000 C   0  0  0  0  0  0  0  0  0  0  0  0
  -19.6214    5.1928    0.0000 C   0  0  0  0  0  0  0  0  0  0  0  0
  -19.9513    3.7295    0.0000 C   0  0  0  0  0  0  0  0  0  0  0  0
  -20.1722    2.2459    0.0000 C   0  0  0  0  0  0  0  0  0  0  0  0
  -20.2830    0.7500    0.0000 C   0  0  0  0  0  0  0  0  0  0  0  0
  -20.2830   -0.7500    0.0000 C   0  0  0  0  0  0  0  0  0  0  0  0
  -20.1722   -2.2459    0.0000 C   0  0  0  0  0  0  0  0  0  0  0  0
  -19.9513   -3.7295    0.0000 C   0  0  0  0  0  0  0  0  0  0  0  0
  -19.6214   -5.1928    0.0000 C   0  0  0  0  0  0  0  0  0  0  0  0
  -19.1843   -6.6277    0.0000 C   0  0  0  0  0  0  0  0  0  0  0  0
  -18.6424   -8.0264    0.0000 C   0  0  0  0  0  0  0  0  0  0  0  0
  -17.9987   -9.3813    0.0000 C   0  0  0  0  0  0  0  0  0  0  0  0
  -17.2568  -10.6849    0.0000 C   0  0  0  0  0  0  0  0  0  0  0  0
  -16.4205  -11.9302    0.0000 C   0  0  0  0  0  0  0  0  0  0  0  0
  -15.4946  -13.1103    0.0000 C   0  0  0  0  0  0  0  0  0  0  0  0
  -14.4841  -14.2188    0.0000 C   0  0  0  0  0  0  0  0  0  0  0  0
  -13.3944  -15.2497    0.0000 C   0  0  0  0  0  0  0  0  0  0  0  0
  -12.2316  -16.1973    0.0000 C   0  0  0  0  0  0  0  0  0  0  0  0
  -11.0020  -17.0564    0.0000 C   0  0  0  0  0  0  0  0  0  0  0  0
   -9.7123  -17.8223    0.0000 C   0  0  0  0  0  0  0  0  0  0  0  0
   -8.3695  -18.4909    0.0000 C   0  0  0  0  0  0  0  0  0  0  0  0
   -6.9811  -19.0585    0.0000 C   0  0  0  0  0  0  0  0  0  0  0  0
   -5.5545  -19.5221    0.0000 C   0  0  0  0  0  0  0  0  0  0  0  0
   -4.0976  -19.8790    0.0000 C   0  0  0  0  0  0  0  0  0  0  0  0
   -2.6183  -20.1273    0.0000 C   0  0  0  0  0  0  0  0  0  0  0  0
   -1.1247  -20.2657    0.0000 C   0  0  0  0  0  0  0  0  0  0  0  0
    0.3751  -20.2934    0.0000 C   0  0  0  0  0  0  0  0  0  0  0  0
    1.8728  -20.2103    0.0000 C   0  0  0  0  0  0  0  0  0  0  0  0
    3.3602  -20.0168    0.0000 C   0  0  0  0  0  0  0  0  0  0  0  0
    4.8293  -19.7140    0.0000 C   0  0  0  0  0  0  0  0  0  0  0  0
    6.2721  -19.3035    0.0000 C   0  0  0  0  0  0  0  0  0  0  0  0
    7.6806  -18.7876    0.0000 C   0  0  0  0  0  0  0  0  0  0  0  0
    9.0471  -18.1690    0.0000 C   0  0  0  0  0  0  0  0  0  0  0  0
   10.3642  -17.4513    0.0000 C   0  0  0  0  0  0  0  0  0  0  0  0
   11.6247  -16.6382    0.0000 C   0  0  0  0  0  0  0  0  0  0  0  0
   12.8218  -15.7342    0.0000 C   0  0  0  0  0  0  0  0  0  0  0  0
   13.9488  -14.7443    0.0000 C   0  0  0  0  0  0  0  0  0  0  0  0
   14.9996  -13.6739    0.0000 C   0  0  0  0  0  0  0  0  0  0  0  0
   15.9685  -12.5288    0.0000 C   0  0  0  0  0  0  0  0  0  0  0  0
   16.8501  -11.3153    0.0000 C   0  0  0  0  0  0  0  0  0  0  0  0
   17.6398  -10.0400    0.0000 C   0  0  0  0  0  0  0  0  0  0  0  0
   18.3331   -8.7098    0.0000 C   0  0  0  0  0  0  0  0  0  0  0  0
   18.9263   -7.3321    0.0000 C   0  0  0  0  0  0  0  0  0  0  0  0
   19.4161   -5.9143    0.0000 C   0  0  0  0  0  0  0  0  0  0  0  0
   19.7998   -4.4642    0.0000 C   0  0  0  0  0  0  0  0  0  0  0  0
   20.0755   -2.9898    0.0000 C   0  0  0  0  0  0  0  0  0  0  0  0
   20.2414   -1.4990    0.0000 C   0  0  0  0  0  0  0  0  0  0  0  0
  1  2  3  0
  2  3  1  0
  3  4  1  0
  4  5  1  0
  5  6  1  0
  6  7  1  0
  7  8  1  0
  8  9  1  0
  9 10  1  0
 10 11  1  0
 11 12  1  0
 12 13  1  0
 13 14  1  0
 14 15  1  0
 15 16  1  0
 16 17  1  0
 17 18  1  0
 18 19  1  0
 19 20  1  0
 20 21  1  0
 21 22  1  0
 22 23  1  0
 23 24  1  0
 24 25  1  0
 25 26  1  0
 26 27  1  0
 27 28  1  0
 28 29  1  0
 29 30  1  0
 30 31  1  0
 31 32  1  0
 32 33  1  0
 33 34  1  0
 34 35  1  0
 35 36  1  0
 36 37  1  0
 37 38  1  0
 38 39  1  0
 39 40  1  0
 40 41  1  0
 41 42  1  0
 42 43  1  0
 43 44  1  0
 44 45  1  0
 45 46  1  0
 46 47  1  0
 47 48  1  0
 48 49  1  0
 49 50  1  0
 50 51  1  0
 51 52  1  0
 52 53  1  0
 53 54  1  0
 54 55  1  0
 55 56  1  0
 56 57  1  0
 57 58  1  0
 58 59  1  0
 59 60  1  0
 60 61  1  0
 61 62  1  0
 62 63  1  0
 63 64  1  0
 64 65  1  0
 65 66  1  0
 66 67  1  0
 67 68  1  0
 68 69  1  0
 69 70  1  0
 70 71  1  0
 71 72  1  0
 72 73  1  0
 73 74  1  0
 74 75  1  0
 75 76  1  0
 76 77  1  0
 77 78  1  0
 78 79  1  0
 79 80  1  0
 80 81  1  0
 81 82  1  0
 82 83  1  0
 83 84  1  0
 84 85  1  0
 85 86  1  0
 86 87  1  0
 87  3  1  0
M  END
>  <Title>  (626) 
idAAWDgen10

$$$$

     RDKit          2D

 92 96  0  0  0  0  0  0  0  0999 V2000
   -4.2650  -11.7805    0.0000 C   0  0  0  0  0  0  0  0  0  0  0  0
   -2.7728  -11.9339    0.0000 C   0  0  0  0  0  0  0  0  0  0  0  0
   -2.8582  -13.4315    0.0000 C   0  0  0  0  0  0  0  0  0  0  0  0
   -2.8069  -14.9306    0.0000 C   0  0  0  0  0  0  0  0  0  0  0  0
   -2.6196  -16.4188    0.0000 C   0  0  0  0  0  0  0  0  0  0  0  0
   -2.2977  -17.8839    0.0000 C   0  0  0  0  0  0  0  0  0  0  0  0
   -1.8440  -19.3136    0.0000 C   0  0  0  0  0  0  0  0  0  0  0  0
   -1.2621  -20.6961    0.0000 C   0  0  0  0  0  0  0  0  0  0  0  0
   -0.5568  -22.0200    0.0000 C   0  0  0  0  0  0  0  0  0  0  0  0
    0.2658  -23.2743    0.0000 C   0  0  0  0  0  0  0  0  0  0  0  0
    1.1992  -24.4486    0.0000 C   0  0  0  0  0  0  0  0  0  0  0  0
    2.2354  -25.5331    0.0000 C   0  0  0  0  0  0  0  0  0  0  0  0
    3.3660  -26.5189    0.0000 C   0  0  0  0  0  0  0  0  0  0  0  0
    4.5815  -27.3978    0.0000 C   0  0  0  0  0  0  0  0  0  0  0  0
    5.8719  -28.1625    0.0000 C   0  0  0  0  0  0  0  0  0  0  0  0
    7.2265  -28.8068    0.0000 C   0  0  0  0  0  0  0  0  0  0  0  0
    8.6341  -29.3251    0.0000 C   0  0  0  0  0  0  0  0  0  0  0  0
   10.0830  -29.7134    0.0000 C   0  0  0  0  0  0  0  0  0  0  0  0
   11.5612  -29.9682    0.0000 C   0  0  0  0  0  0  0  0  0  0  0  0
   13.0564  -30.0876    0.0000 C   0  0  0  0  0  0  0  0  0  0  0  0
   14.5563  -30.0706    0.0000 C   0  0  0  0  0  0  0  0  0  0  0  0
   16.0485  -29.9172    0.0000 C   0  0  0  0  0  0  0  0  0  0  0  0
   17.5205  -29.6287    0.0000 C   0  0  0  0  0  0  0  0  0  0  0  0
   18.9601  -29.2076    0.0000 C   0  0  0  0  0  0  0  0  0  0  0  0
   20.3556  -28.6573    0.0000 C   0  0  0  0  0  0  0  0  0  0  0  0
   21.6952  -27.9824    0.0000 C   0  0  0  0  0  0  0  0  0  0  0  0
   22.9678  -27.1885    0.0000 C   0  0  0  0  0  0  0  0  0  0  0  0
   24.1630  -26.2822    0.0000 C   0  0  0  0  0  0  0  0  0  0  0  0
   25.2709  -25.2709    0.0000 C   0  0  0  0  0  0  0  0  0  0  0  0
   26.2822  -24.1630    0.0000 C   0  0  0  0  0  0  0  0  0  0  0  0
   27.1885  -22.9678    0.0000 C   0  0  0  0  0  0  0  0  0  0  0  0
   27.9824  -21.6952    0.0000 C   0  0  0  0  0  0  0  0  0  0  0  0
   28.6573  -20.3556    0.0000 C   0  0  0  0  0  0  0  0  0  0  0  0
   29.2076  -18.9601    0.0000 C   0  0  0  0  0  0  0  0  0  0  0  0
   29.6287  -17.5205    0.0000 C   0  0  0  0  0  0  0  0  0  0  0  0
   29.9172  -16.0485    0.0000 C   0  0  0  0  0  0  0  0  0  0  0  0
   30.0706  -14.5563    0.0000 C   0  0  0  0  0  0  0  0  0  0  0  0
   30.0876  -13.0564    0.0000 C   0  0  0  0  0  0  0  0  0  0  0  0
   29.9682  -11.5612    0.0000 C   0  0  0  0  0  0  0  0  0  0  0  0
   29.7134  -10.0830    0.0000 C   0  0  0  0  0  0  0  0  0  0  0  0
   29.3251   -8.6341    0.0000 C   0  0  0  0  0  0  0  0  0  0  0  0
   28.8068   -7.2265    0.0000 C   0  0  0  0  0  0  0  0  0  0  0  0
   28.1625   -5.8719    0.0000 C   0  0  0  0  0  0  0  0  0  0  0  0
   27.3978   -4.5815    0.0000 C   0  0  0  0  0  0  0  0  0  0  0  0
   26.5189   -3.3660    0.0000 C   0  0  0  0  0  0  0  0  0  0  0  0
   25.5331   -2.2354    0.0000 C   0  0  0  0  0  0  0  0  0  0  0  0
   24.4486   -1.1992    0.0000 C   0  0  0  0  0  0  0  0  0  0  0  0
   23.2743   -0.2658    0.0000 C   0  0  0  0  0  0  0  0  0  0  0  0
   22.0200    0.5568    0.0000 C   0  0  0  0  0  0  0  0  0  0  0  0
   20.6961    1.2621    0.0000 C   0  0  0  0  0  0  0  0  0  0  0  0
   19.3136    1.8440    0.0000 C   0  0  0  0  0  0  0  0  0  0  0  0
   17.8839    2.2977    0.0000 C   0  0  0  0  0  0  0  0  0  0  0  0
   16.4188    2.6196    0.0000 C   0  0  0  0  0  0  0  0  0  0  0  0
   14.9306    2.8069    0.0000 C   0  0  0  0  0  0  0  0  0  0  0  0
   13.4315    2.8582    0.0000 C   0  0  0  0  0  0  0  0  0  0  0  0
   11.9339    2.7728    0.0000 C   0  0  0  0  0  0  0  0  0  0  0  0
   10.4503    2.5517    0.0000 C   0  0  0  0  0  0  0  0  0  0  0  0
    8.9929    2.1965    0.0000 C   0  0  0  0  0  0  0  0  0  0  0  0
    7.5739    1.7103    0.0000 C   0  0  0  0  0  0  0  0  0  0  0  0
    6.2050    1.0971    0.0000 C   0  0  0  0  0  0  0  0  0  0  0  0
    4.8975    0.3619    0.0000 C   0  0  0  0  0  0  0  0  0  0  0  0
    3.6623   -0.4891    0.0000 C   0  0  0  0  0  0  0  0  0  0  0  0
    2.5095   -1.4489    0.0000 C   0  0  0  0  0  0  0  0  0  0  0  0
    2.8978    0.0000    0.0000 C   0  0  0  0  0  0  0  0  0  0  0  0
    2.5095    1.4489    0.0000 C   0  0  0  0  0  0  0  0  0  0  0  0
    1.4489    2.5095    0.0000 C   0  0  0  0  0  0  0  0  0  0  0  0
    0.0000    2.8978    0.0000 C   0  0  0  0  0  0  0  0  0  0  0  0
   -1.4489    2.5095    0.0000 C   0  0  0  0  0  0  0  0  0  0  0  0
   -2.5095    1.4489    0.0000 C   0  0  0  0  0  0  0  0  0  0  0  0
   -2.8978    0.0000    0.0000 C   0  0  0  0  0  0  0  0  0  0  0  0
   -2.5095   -1.4489    0.0000 C   0  0  0  0  0  0  0  0  0  0  0  0
   -1.4489   -2.5095    0.0000 C   0  0  0  0  0  0  0  0  0  0  0  0
   -0.0000   -2.8978    0.0000 C   0  0  0  0  0  0  0  0  0  0  0  0
    1.4489   -2.5095    0.0000 C   0  0  0  0  0  0  0  0  0  0  0  0
    0.4891   -3.6623    0.0000 C   0  0  0  0  0  0  0  0  0  0  0  0
    1.9843   -3.7817    0.0000 C   0  0  0  0  0  0  0  0  0  0  0  0
    2.6285   -5.1363    0.0000 C   0  0  0  0  0  0  0  0  0  0  0  0
    1.7775   -6.3715    0.0000 C   0  0  0  0  0  0  0  0  0  0  0  0
    0.2823   -6.2521    0.0000 C   0  0  0  0  0  0  0  0  0  0  0  0
   -0.3619   -4.8975    0.0000 C   0  0  0  0  0  0  0  0  0  0  0  0
   -1.0971   -6.2050    0.0000 C   0  0  0  0  0  0  0  0  0  0  0  0
   -1.9760   -4.9894    0.0000 C   0  0  0  0  0  0  0  0  0  0  0  0
   -3.4682   -5.1428    0.0000 C   0  0  0  0  0  0  0  0  0  0  0  0
   -4.0814   -6.5118    0.0000 C   0  0  0  0  0  0  0  0  0  0  0  0
   -3.2025   -7.7273    0.0000 C   0  0  0  0  0  0  0  0  0  0  0  0
   -1.7103   -7.5739    0.0000 C   0  0  0  0  0  0  0  0  0  0  0  0
   -2.1965   -8.9929    0.0000 C   0  0  0  0  0  0  0  0  0  0  0  0
   -0.7569   -8.5718    0.0000 C   0  0  0  0  0  0  0  0  0  0  0  0
    0.3277   -9.6081    0.0000 C   0  0  0  0  0  0  0  0  0  0  0  0
   -0.0275  -11.0654    0.0000 C   0  0  0  0  0  0  0  0  0  0  0  0
   -1.4671  -11.4865    0.0000 C   0  0  0  0  0  0  0  0  0  0  0  0
   -2.5517  -10.4503    0.0000 C   0  0  0  0  0  0  0  0  0  0  0  0
  1  2  1  0
  2  3  1  0
  3  4  1  0
  4  5  1  0
  5  6  1  0
  6  7  1  0
  7  8  1  0
  8  9  1  0
  9 10  1  0
 10 11  1  0
 11 12  1  0
 12 13  1  0
 13 14  1  0
 14 15  1  0
 15 16  1  0
 16 17  1  0
 17 18  1  0
 18 19  1  0
 19 20  1  0
 20 21  1  0
 21 22  1  0
 22 23  1  0
 23 24  1  0
 24 25  1  0
 25 26  1  0
 26 27  1  0
 27 28  1  0
 28 29  1  0
 29 30  1  0
 30 31  1  0
 31 32  1  0
 32 33  1  0
 33 34  1  0
 34 35  1  0
 35 36  1  0
 36 37  1  0
 37 38  1  0
 38 39  1  0
 39 40  1  0
 40 41  1  0
 41 42  1  0
 42 43  1  0
 43 44  1  0
 44 45  1  0
 45 46  1  0
 46 47  1  0
 47 48  1  0
 48 49  1  0
 49 50  1  0
 50 51  1  0
 51 52  1  0
 52 53  1  0
 53 54  1  0
 54 55  1  0
 55 56  1  0
 56 57  1  0
 57 58  1  0
 58 59  1  0
 59 60  1  0
 60 61  1  0
 61 62  1  0
 62 63  1  0
 63 64  1  0
 64 65  1  0
 65 66  1  0
 66 67  1  0
 67 68  1  0
 68 69  1  0
 69 70  2  0
 70 71  1  0
 71 72  2  0
 72 73  1  0
 73 74  2  0
 74 75  1  0
 75 76  2  0
 76 77  1  0
 77 78  2  0
 78 79  1  0
 79 80  2  0
 80 81  1  0
 81 82  2  0
 82 83  1  0
 83 84  2  0
 84 85  1  0
 85 86  2  0
 86 87  1  0
 87 88  2  0
 88 89  1  0
 89 90  2  0
 90 91  1  0
 91 92  2  0
 92  2  1  0
 74 63  1  0
 80 75  1  0
 86 81  1  0
 92 87  1  0
M  END
>  <Title>  (627) 
idAAWEgen10

$$$$

     RDKit          2D

105106  0  0  0  0  0  0  0  0999 V2000
   -2.1563   -1.0875    0.0000 C   0  0  0  0  0  0  0  0  0  0  0  0
   -2.4849    0.3761    0.0000 C   0  0  0  0  0  0  0  0  0  0  0  0
   -3.9580    0.0932    0.0000 C   0  0  0  0  0  0  0  0  0  0  0  0
   -5.4458   -0.0976    0.0000 C   0  0  0  0  0  0  0  0  0  0  0  0
   -6.9426   -0.1955    0.0000 C   0  0  0  0  0  0  0  0  0  0  0  0
   -8.4426   -0.2002    0.0000 C   0  0  0  0  0  0  0  0  0  0  0  0
   -9.9400   -0.1116    0.0000 C   0  0  0  0  0  0  0  0  0  0  0  0
  -11.4290    0.0699    0.0000 C   0  0  0  0  0  0  0  0  0  0  0  0
  -12.9038    0.3437    0.0000 C   0  0  0  0  0  0  0  0  0  0  0  0
  -14.3587    0.7085    0.0000 C   0  0  0  0  0  0  0  0  0  0  0  0
  -15.7882    1.1632    0.0000 C   0  0  0  0  0  0  0  0  0  0  0  0
  -17.1866    1.7058    0.0000 C   0  0  0  0  0  0  0  0  0  0  0  0
  -18.5486    2.3343    0.0000 C   0  0  0  0  0  0  0  0  0  0  0  0
  -19.8688    3.0463    0.0000 C   0  0  0  0  0  0  0  0  0  0  0  0
  -21.1423    3.8390    0.0000 C   0  0  0  0  0  0  0  0  0  0  0  0
  -22.3640    4.7093    0.0000 C   0  0  0  0  0  0  0  0  0  0  0  0
  -23.5292    5.6539    0.0000 C   0  0  0  0  0  0  0  0  0  0  0  0
  -24.6334    6.6691    0.0000 C   0  0  0  0  0  0  0  0  0  0  0  0
  -25.6724    7.7510    0.0000 C   0  0  0  0  0  0  0  0  0  0  0  0
  -26.6422    8.8954    0.0000 C   0  0  0  0  0  0  0  0  0  0  0  0
  -27.5389   10.0978    0.0000 C   0  0  0  0  0  0  0  0  0  0  0  0
  -28.3591   11.3537    0.0000 C   0  0  0  0  0  0  0  0  0  0  0  0
  -29.0996   12.6582    0.0000 C   0  0  0  0  0  0  0  0  0  0  0  0
  -29.7577   14.0061    0.0000 C   0  0  0  0  0  0  0  0  0  0  0  0
  -30.3306   15.3924    0.0000 C   0  0  0  0  0  0  0  0  0  0  0  0
  -30.8163   16.8116    0.0000 C   0  0  0  0  0  0  0  0  0  0  0  0
  -31.2128   18.2582    0.0000 C   0  0  0  0  0  0  0  0  0  0  0  0
  -31.5185   19.7267    0.0000 C   0  0  0  0  0  0  0  0  0  0  0  0
  -31.7324   21.2114    0.0000 C   0  0  0  0  0  0  0  0  0  0  0  0
  -31.8536   22.7065    0.0000 C   0  0  0  0  0  0  0  0  0  0  0  0
  -31.8816   24.2063    0.0000 C   0  0  0  0  0  0  0  0  0  0  0  0
  -31.8163   25.7048    0.0000 C   0  0  0  0  0  0  0  0  0  0  0  0
  -31.6580   27.1965    0.0000 C   0  0  0  0  0  0  0  0  0  0  0  0
  -31.4072   28.6753    0.0000 C   0  0  0  0  0  0  0  0  0  0  0  0
  -31.0650   30.1358    0.0000 C   0  0  0  0  0  0  0  0  0  0  0  0
  -30.6326   31.5721    0.0000 C   0  0  0  0  0  0  0  0  0  0  0  0
  -30.1118   32.9788    0.0000 C   0  0  0  0  0  0  0  0  0  0  0  0
  -29.5045   34.3504    0.0000 C   0  0  0  0  0  0  0  0  0  0  0  0
  -28.8132   35.6816    0.0000 C   0  0  0  0  0  0  0  0  0  0  0  0
  -28.0404   36.9672    0.0000 C   0  0  0  0  0  0  0  0  0  0  0  0
  -27.1892   38.2023    0.0000 C   0  0  0  0  0  0  0  0  0  0  0  0
  -26.2628   39.3820    0.0000 C   0  0  0  0  0  0  0  0  0  0  0  0
  -25.2649   40.5019    0.0000 C   0  0  0  0  0  0  0  0  0  0  0  0
  -24.1993   41.5576    0.0000 C   0  0  0  0  0  0  0  0  0  0  0  0
  -23.0702   42.5451    0.0000 C   0  0  0  0  0  0  0  0  0  0  0  0
  -21.8818   43.4604    0.0000 C   0  0  0  0  0  0  0  0  0  0  0  0
  -20.6388   44.3000    0.0000 C   0  0  0  0  0  0  0  0  0  0  0  0
  -19.3460   45.0608    0.0000 C   0  0  0  0  0  0  0  0  0  0  0  0
  -18.0085   45.7397    0.0000 C   0  0  0  0  0  0  0  0  0  0  0  0
  -16.6313   46.3341    0.0000 C   0  0  0  0  0  0  0  0  0  0  0  0
  -15.2198   46.8418    0.0000 C   0  0  0  0  0  0  0  0  0  0  0  0
  -13.7795   47.2607    0.0000 C   0  0  0  0  0  0  0  0  0  0  0  0
  -12.3159   47.5893    0.0000 C   0  0  0  0  0  0  0  0  0  0  0  0
  -10.8348   47.8262    0.0000 C   0  0  0  0  0  0  0  0  0  0  0  0
   -9.3417   47.9706    0.0000 C   0  0  0  0  0  0  0  0  0  0  0  0
   -7.8426   48.0220    0.0000 C   0  0  0  0  0  0  0  0  0  0  0  0
   -6.3432   47.9800    0.0000 C   0  0  0  0  0  0  0  0  0  0  0  0
   -4.8493   47.8449    0.0000 C   0  0  0  0  0  0  0  0  0  0  0  0
   -3.3667   47.6171    0.0000 C   0  0  0  0  0  0  0  0  0  0  0  0
   -1.9011   47.2976    0.0000 C   0  0  0  0  0  0  0  0  0  0  0  0
   -0.4582   46.8877    0.0000 C   0  0  0  0  0  0  0  0  0  0  0  0
    0.9564   46.3888    0.0000 C   0  0  0  0  0  0  0  0  0  0  0  0
    2.3373   45.8029    0.0000 C   0  0  0  0  0  0  0  0  0  0  0  0
    3.6790   45.1324    0.0000 C   0  0  0  0  0  0  0  0  0  0  0  0
    4.9765   44.3797    0.0000 C   0  0  0  0  0  0  0  0  0  0  0  0
    6.2247   43.5478    0.0000 C   0  0  0  0  0  0  0  0  0  0  0  0
    7.4187   42.6399    0.0000 C   0  0  0  0  0  0  0  0  0  0  0  0
    8.5540   41.6595    0.0000 C   0  0  0  0  0  0  0  0  0  0  0  0
    9.6262   40.6105    0.0000 C   0  0  0  0  0  0  0  0  0  0  0  0
   10.6310   39.4968    0.0000 C   0  0  0  0  0  0  0  0  0  0  0  0
   11.5647   38.3228    0.0000 C   0  0  0  0  0  0  0  0  0  0  0  0
   12.4236   37.0930    0.0000 C   0  0  0  0  0  0  0  0  0  0  0  0
   13.2043   35.8123    0.0000 C   0  0  0  0  0  0  0  0  0  0  0  0
   13.9039   34.4854    0.0000 C   0  0  0  0  0  0  0  0  0  0  0  0
   14.5197   33.1176    0.0000 C   0  0  0  0  0  0  0  0  0  0  0  0
   15.0493   31.7142    0.0000 C   0  0  0  0  0  0  0  0  0  0  0  0
   15.4906   30.2806    0.0000 C   0  0  0  0  0  0  0  0  0  0  0  0
   15.8419   28.8223    0.0000 C   0  0  0  0  0  0  0  0  0  0  0  0
   16.1018   27.3450    0.0000 C   0  0  0  0  0  0  0  0  0  0  0  0
   16.2694   25.8544    0.0000 C   0  0  0  0  0  0  0  0  0  0  0  0
   16.3441   24.3563    0.0000 C   0  0  0  0  0  0  0  0  0  0  0  0
   16.3254   22.8564    0.0000 C   0  0  0  0  0  0  0  0  0  0  0  0
   16.2135   21.3606    0.0000 C   0  0  0  0  0  0  0  0  0  0  0  0
   16.0089   19.8746    0.0000 C   0  0  0  0  0  0  0  0  0  0  0  0
   15.7122   18.4042    0.0000 C   0  0  0  0  0  0  0  0  0  0  0  0
   15.3248   16.9551    0.0000 C   0  0  0  0  0  0  0  0  0  0  0  0
   14.8479   15.5329    0.0000 C   0  0  0  0  0  0  0  0  0  0  0  0
   14.2836   14.1431    0.0000 C   0  0  0  0  0  0  0  0  0  0  0  0
   13.6340   12.7911    0.0000 C   0  0  0  0  0  0  0  0  0  0  0  0
   12.9016   11.4821    0.0000 C   0  0  0  0  0  0  0  0  0  0  0  0
   12.0892   10.2211    0.0000 C   0  0  0  0  0  0  0  0  0  0  0  0
   11.2000    9.0131    0.0000 C   0  0  0  0  0  0  0  0  0  0  0  0
   10.2374    7.8627    0.0000 C   0  0  0  0  0  0  0  0  0  0  0  0
    9.2051    6.7744    0.0000 C   0  0  0  0  0  0  0  0  0  0  0  0
    8.1072    5.7523    0.0000 C   0  0  0  0  0  0  0  0  0  0  0  0
    6.9479    4.8005    0.0000 C   0  0  0  0  0  0  0  0  0  0  0  0
    5.7316    3.9226    0.0000 C   0  0  0  0  0  0  0  0  0  0  0  0
    4.4631    3.1220    0.0000 C   0  0  0  0  0  0  0  0  0  0  0  0
    3.1473    2.4018    0.0000 C   0  0  0  0  0  0  0  0  0  0  0  0
    1.7893    1.7648    0.0000 C   0  0  0  0  0  0  0  0  0  0  0  0
    0.3943    1.2135    0.0000 C   0  0  0  0  0  0  0  0  0  0  0  0
    1.2760    0.0000    0.0000 C   0  0  0  0  0  0  0  0  0  0  0  0
    0.3943   -1.2135    0.0000 C   0  0  0  0  0  0  0  0  0  0  0  0
   -1.0323   -0.7500    0.0000 C   0  0  0  0  0  0  0  0  0  0  0  0
   -1.0323    0.7500    0.0000 C   0  0  0  0  0  0  0  0  0  0  0  0
  1  2  1  0
  2  3  1  0
  3  4  1  0
  4  5  1  0
  5  6  1  0
  6  7  1  0
  7  8  1  0
  8  9  1  0
  9 10  1  0
 10 11  1  0
 11 12  1  0
 12 13  1  0
 13 14  1  0
 14 15  1  0
 15 16  1  0
 16 17  1  0
 17 18  1  0
 18 19  1  0
 19 20  1  0
 20 21  1  0
 21 22  1  0
 22 23  1  0
 23 24  1  0
 24 25  1  0
 25 26  1  0
 26 27  1  0
 27 28  1  0
 28 29  1  0
 29 30  1  0
 30 31  1  0
 31 32  1  0
 32 33  1  0
 33 34  1  0
 34 35  1  0
 35 36  1  0
 36 37  1  0
 37 38  1  0
 38 39  1  0
 39 40  1  0
 40 41  1  0
 41 42  1  0
 42 43  1  0
 43 44  1  0
 44 45  1  0
 45 46  1  0
 46 47  1  0
 47 48  1  0
 48 49  1  0
 49 50  1  0
 50 51  1  0
 51 52  1  0
 52 53  1  0
 53 54  1  0
 54 55  1  0
 55 56  1  0
 56 57  1  0
 57 58  1  0
 58 59  1  0
 59 60  1  0
 60 61  1  0
 61 62  1  0
 62 63  1  0
 63 64  1  0
 64 65  1  0
 65 66  1  0
 66 67  1  0
 67 68  1  0
 68 69  1  0
 69 70  1  0
 70 71  1  0
 71 72  1  0
 72 73  1  0
 73 74  1  0
 74 75  1  0
 75 76  1  0
 76 77  1  0
 77 78  1  0
 78 79  1  0
 79 80  1  0
 80 81  1  0
 81 82  1  0
 82 83  1  0
 83 84  1  0
 84 85  1  0
 85 86  1  0
 86 87  1  0
 87 88  1  0
 88 89  1  0
 89 90  1  0
 90 91  1  0
 91 92  1  0
 92 93  1  0
 93 94  1  0
 94 95  1  0
 95 96  1  0
 96 97  1  0
 97 98  1  0
 98 99  1  0
 99100  1  0
100101  1  0
101102  1  0
102103  2  0
103104  1  0
104105  2  0
105  2  1  0
105101  1  0
M  END
>  <Title>  (628) 
idAAWFgen10

$$$$

     RDKit          2D

 11 11  0  0  0  0  0  0  0  0999 V2000
    9.5260   -1.2990    0.0000 C   0  0  0  0  0  0  0  0  0  0  0  0
    8.7760   -0.0000    0.0000 C   0  0  0  0  0  0  0  0  0  0  0  0
    7.2760   -0.0000    0.0000 C   0  0  0  0  0  0  0  0  0  0  0  0
    5.7760   -0.0000    0.0000 C   0  0  0  0  0  0  0  0  0  0  0  0
    4.2760   -0.0000    0.0000 C   0  0  0  0  0  0  0  0  0  0  0  0
    2.7760    0.0000    0.0000 C   0  0  0  0  0  0  0  0  0  0  0  0
    1.2760    0.0000    0.0000 C   0  0  0  0  0  0  0  0  0  0  0  0
    0.3943    1.2135    0.0000 C   0  0  0  0  0  0  0  0  0  0  0  0
   -1.0323    0.7500    0.0000 C   0  0  0  0  0  0  0  0  0  0  0  0
   -1.0323   -0.7500    0.0000 C   0  0  0  0  0  0  0  0  0  0  0  0
    0.3943   -1.2135    0.0000 C   0  0  0  0  0  0  0  0  0  0  0  0
  1  2  2  0
  2  3  1  0
  3  4  3  0
  4  5  1  0
  5  6  3  0
  6  7  1  0
  7  8  2  0
  8  9  1  0
  9 10  2  0
 10 11  1  0
 11  7  1  0
M  END
>  <Title>  (629) 
idAAWGgen10

$$$$

     RDKit          2D

 11 11  0  0  0  0  0  0  0  0999 V2000
    6.7500   -1.2990    0.0000 C   0  0  0  0  0  0  0  0  0  0  0  0
    5.2500   -1.2990    0.0000 C   0  0  0  0  0  0  0  0  0  0  0  0
    3.7500   -1.2990    0.0000 C   0  0  0  0  0  0  0  0  0  0  0  0
    3.0000    0.0000    0.0000 C   0  0  0  0  0  0  0  0  0  0  0  0
    3.7500    1.2990    0.0000 O   0  0  0  0  0  0  0  0  0  0  0  0
    1.5000    0.0000    0.0000 C   0  0  0  0  0  0  0  0  0  0  0  0
    0.7500   -1.2990    0.0000 C   0  0  0  0  0  0  0  0  0  0  0  0
   -0.7500   -1.2990    0.0000 C   0  0  0  0  0  0  0  0  0  0  0  0
   -1.5000    0.0000    0.0000 C   0  0  0  0  0  0  0  0  0  0  0  0
   -0.7500    1.2990    0.0000 C   0  0  0  0  0  0  0  0  0  0  0  0
    0.7500    1.2990    0.0000 C   0  0  0  0  0  0  0  0  0  0  0  0
  1  2  3  0
  2  3  1  0
  3  4  1  0
  4  5  2  0
  4  6  1  0
  6  7  2  0
  7  8  1  0
  8  9  2  0
  9 10  1  0
 10 11  2  0
 11  6  1  0
M  END
>  <Title>  (630) 
idAAWHgen10

$$$$

     RDKit          2D

 11 10  0  0  0  0  0  0  0  0999 V2000
    0.0000    0.0000    0.0000 C   0  0  0  0  0  0  0  0  0  0  0  0
   -0.0000   -1.5000    0.0000 C   0  0  0  0  0  0  0  0  0  0  0  0
   -0.0000   -3.0000    0.0000 C   0  0  0  0  0  0  0  0  0  0  0  0
   -0.0000   -4.5000    0.0000 C   0  0  0  0  0  0  0  0  0  0  0  0
   -0.0000   -6.0000    0.0000 C   0  0  0  0  0  0  0  0  0  0  0  0
    1.2990   -6.7500    0.0000 C   0  0  0  0  0  0  0  0  0  0  0  0
    1.2990   -8.2500    0.0000 C   0  0  0  0  0  0  0  0  0  0  0  0
    2.5981   -9.0000    0.0000 C   0  0  0  0  0  0  0  0  0  0  0  0
    2.5981  -10.5000    0.0000 C   0  0  0  0  0  0  0  0  0  0  0  0
    3.8971  -11.2500    0.0000 C   0  0  0  0  0  0  0  0  0  0  0  0
    3.8971  -12.7500    0.0000 C   0  0  0  0  0  0  0  0  0  0  0  0
  1  2  3  0
  2  3  1  0
  3  4  3  0
  4  5  1  0
  5  6  1  0
  6  7  2  3
  7  8  1  0
  8  9  1  0
  9 10  2  3
 10 11  1  0
M  END
>  <Title>  (631) 
idAAWIgen10

$$$$

     RDKit          2D

 12 13  0  0  0  0  0  0  0  0999 V2000
   -1.4863   -5.5470    0.0000 C   0  0  0  0  0  0  0  0  0  0  0  0
   -0.1873   -4.7970    0.0000 C   0  0  0  0  0  0  0  0  0  0  0  0
    1.1118   -4.0470    0.0000 C   0  0  0  0  0  0  0  0  0  0  0  0
    1.5000   -2.5981    0.0000 C   0  0  0  0  0  0  0  0  0  0  0  0
    0.7500   -1.2990    0.0000 C   0  0  0  0  0  0  0  0  0  0  0  0
    1.5000    0.0000    0.0000 C   0  0  0  0  0  0  0  0  0  0  0  0
    0.7500    1.2990    0.0000 C   0  0  0  0  0  0  0  0  0  0  0  0
   -0.7500    1.2990    0.0000 C   0  0  0  0  0  0  0  0  0  0  0  0
   -1.5000    0.0000    0.0000 C   0  0  0  0  0  0  0  0  0  0  0  0
   -0.7500   -1.2990    0.0000 C   0  0  0  0  0  0  0  0  0  0  0  0
    2.9489   -2.9863    0.0000 C   0  0  0  0  0  0  0  0  0  0  0  0
    2.5607   -4.4352    0.0000 C   0  0  0  0  0  0  0  0  0  0  0  0
  1  2  3  0
  2  3  1  0
  3  4  2  0
  4  5  1  0
  5  6  2  0
  6  7  1  0
  7  8  2  0
  8  9  1  0
  9 10  2  0
  4 11  1  0
 11 12  1  0
 12  3  1  0
 10  5  1  0
M  END
>  <Title>  (632) 
idAAWJgen10

$$$$

     RDKit          2D

 10 10  0  0  0  0  0  0  0  0999 V2000
    7.0607    0.0000    0.0000 C   0  0  0  0  0  0  0  0  0  0  0  0
    5.5607    0.0000    0.0000 C   0  0  0  0  0  0  0  0  0  0  0  0
    4.0607    0.0000    0.0000 C   0  0  0  0  0  0  0  0  0  0  0  0
    2.5607    0.0000    0.0000 C   0  0  0  0  0  0  0  0  0  0  0  0
    1.0607    0.0000    0.0000 C   0  0  0  0  0  0  0  0  0  0  0  0
   -0.0000   -1.0607    0.0000 C   0  0  0  0  0  0  0  0  0  0  0  0
   -0.0000   -2.5607    0.0000 C   0  0  0  0  0  0  0  0  0  0  0  0
   -0.0000   -4.0607    0.0000 C   0  0  0  0  0  0  0  0  0  0  0  0
   -1.0607    0.0000    0.0000 C   0  0  0  0  0  0  0  0  0  0  0  0
    0.0000    1.0607    0.0000 C   0  0  0  0  0  0  0  0  0  0  0  0
  1  2  3  0
  2  3  1  0
  3  4  3  0
  4  5  1  0
  5  6  2  0
  6  7  1  0
  7  8  3  0
  6  9  1  0
  9 10  2  0
 10  5  1  0
M  END
>  <Title>  (633) 
idAAWKgen10

$$$$

     RDKit          2D

 86 88  0  0  0  0  0  0  0  0999 V2000
   -2.4259    0.0693    0.0000 C   0  0  0  0  0  0  0  0  0  0  0  0
   -2.2451   -1.4197    0.0000 C   0  0  0  0  0  0  0  0  0  0  0  0
   -3.7257   -1.6604    0.0000 C   0  0  0  0  0  0  0  0  0  0  0  0
   -5.1821   -2.0193    0.0000 C   0  0  0  0  0  0  0  0  0  0  0  0
   -6.6049   -2.4943    0.0000 C   0  0  0  0  0  0  0  0  0  0  0  0
   -7.9849   -3.0823    0.0000 C   0  0  0  0  0  0  0  0  0  0  0  0
   -9.3131   -3.7794    0.0000 C   0  0  0  0  0  0  0  0  0  0  0  0
  -10.5809   -4.5811    0.0000 C   0  0  0  0  0  0  0  0  0  0  0  0
  -11.7800   -5.4822    0.0000 C   0  0  0  0  0  0  0  0  0  0  0  0
  -12.9028   -6.4769    0.0000 C   0  0  0  0  0  0  0  0  0  0  0  0
  -13.9419   -7.5587    0.0000 C   0  0  0  0  0  0  0  0  0  0  0  0
  -14.8906   -8.7206    0.0000 C   0  0  0  0  0  0  0  0  0  0  0  0
  -15.7426   -9.9550    0.0000 C   0  0  0  0  0  0  0  0  0  0  0  0
  -16.4926  -11.2541    0.0000 C   0  0  0  0  0  0  0  0  0  0  0  0
  -17.1357  -12.6093    0.0000 C   0  0  0  0  0  0  0  0  0  0  0  0
  -17.6676  -14.0118    0.0000 C   0  0  0  0  0  0  0  0  0  0  0  0
  -18.0849  -15.4526    0.0000 C   0  0  0  0  0  0  0  0  0  0  0  0
  -18.3850  -16.9222    0.0000 C   0  0  0  0  0  0  0  0  0  0  0  0
  -18.5658  -18.4113    0.0000 C   0  0  0  0  0  0  0  0  0  0  0  0
  -18.6262  -19.9101    0.0000 C   0  0  0  0  0  0  0  0  0  0  0  0
  -18.5658  -21.4089    0.0000 C   0  0  0  0  0  0  0  0  0  0  0  0
  -18.3850  -22.8979    0.0000 C   0  0  0  0  0  0  0  0  0  0  0  0
  -18.0849  -24.3676    0.0000 C   0  0  0  0  0  0  0  0  0  0  0  0
  -17.6676  -25.8084    0.0000 C   0  0  0  0  0  0  0  0  0  0  0  0
  -17.1357  -27.2109    0.0000 C   0  0  0  0  0  0  0  0  0  0  0  0
  -16.4926  -28.5661    0.0000 C   0  0  0  0  0  0  0  0  0  0  0  0
  -15.7426  -29.8651    0.0000 C   0  0  0  0  0  0  0  0  0  0  0  0
  -14.8906  -31.0996    0.0000 C   0  0  0  0  0  0  0  0  0  0  0  0
  -13.9419  -32.2615    0.0000 C   0  0  0  0  0  0  0  0  0  0  0  0
  -12.9028  -33.3433    0.0000 C   0  0  0  0  0  0  0  0  0  0  0  0
  -11.7800  -34.3380    0.0000 C   0  0  0  0  0  0  0  0  0  0  0  0
  -10.5809  -35.2391    0.0000 C   0  0  0  0  0  0  0  0  0  0  0  0
   -9.3131  -36.0408    0.0000 C   0  0  0  0  0  0  0  0  0  0  0  0
   -7.9849  -36.7379    0.0000 C   0  0  0  0  0  0  0  0  0  0  0  0
   -6.6049  -37.3259    0.0000 C   0  0  0  0  0  0  0  0  0  0  0  0
   -5.1821  -37.8009    0.0000 C   0  0  0  0  0  0  0  0  0  0  0  0
   -3.7257  -38.1598    0.0000 C   0  0  0  0  0  0  0  0  0  0  0  0
   -2.2451  -38.4005    0.0000 C   0  0  0  0  0  0  0  0  0  0  0  0
   -0.7500  -38.5212    0.0000 C   0  0  0  0  0  0  0  0  0  0  0  0
    0.7500  -38.5212    0.0000 C   0  0  0  0  0  0  0  0  0  0  0  0
    2.2451  -38.4005    0.0000 C   0  0  0  0  0  0  0  0  0  0  0  0
    3.7257  -38.1598    0.0000 C   0  0  0  0  0  0  0  0  0  0  0  0
    5.1821  -37.8009    0.0000 C   0  0  0  0  0  0  0  0  0  0  0  0
    6.6049  -37.3259    0.0000 C   0  0  0  0  0  0  0  0  0  0  0  0
    7.9849  -36.7379    0.0000 C   0  0  0  0  0  0  0  0  0  0  0  0
    9.3131  -36.0408    0.0000 C   0  0  0  0  0  0  0  0  0  0  0  0
   10.5809  -35.2391    0.0000 C   0  0  0  0  0  0  0  0  0  0  0  0
   11.7800  -34.3380    0.0000 C   0  0  0  0  0  0  0  0  0  0  0  0
   12.9028  -33.3433    0.0000 C   0  0  0  0  0  0  0  0  0  0  0  0
   13.9419  -32.2615    0.0000 C   0  0  0  0  0  0  0  0  0  0  0  0
   14.8906  -31.0996    0.0000 C   0  0  0  0  0  0  0  0  0  0  0  0
   15.7426  -29.8651    0.0000 C   0  0  0  0  0  0  0  0  0  0  0  0
   16.4926  -28.5661    0.0000 C   0  0  0  0  0  0  0  0  0  0  0  0
   17.1357  -27.2109    0.0000 C   0  0  0  0  0  0  0  0  0  0  0  0
   17.6676  -25.8084    0.0000 C   0  0  0  0  0  0  0  0  0  0  0  0
   18.0849  -24.3676    0.0000 C   0  0  0  0  0  0  0  0  0  0  0  0
   18.3850  -22.8979    0.0000 C   0  0  0  0  0  0  0  0  0  0  0  0
   18.5658  -21.4089    0.0000 C   0  0  0  0  0  0  0  0  0  0  0  0
   18.6262  -19.9101    0.0000 C   0  0  0  0  0  0  0  0  0  0  0  0
   18.5658  -18.4113    0.0000 C   0  0  0  0  0  0  0  0  0  0  0  0
   18.3850  -16.9222    0.0000 C   0  0  0  0  0  0  0  0  0  0  0  0
   18.0849  -15.4526    0.0000 C   0  0  0  0  0  0  0  0  0  0  0  0
   17.6676  -14.0118    0.0000 C   0  0  0  0  0  0  0  0  0  0  0  0
   17.1357  -12.6093    0.0000 C   0  0  0  0  0  0  0  0  0  0  0  0
   16.4926  -11.2541    0.0000 C   0  0  0  0  0  0  0  0  0  0  0  0
   15.7426   -9.9550    0.0000 C   0  0  0  0  0  0  0  0  0  0  0  0
   14.8906   -8.7206    0.0000 C   0  0  0  0  0  0  0  0  0  0  0  0
   13.9419   -7.5587    0.0000 C   0  0  0  0  0  0  0  0  0  0  0  0
   12.9028   -6.4769    0.0000 C   0  0  0  0  0  0  0  0  0  0  0  0
   11.7800   -5.4822    0.0000 C   0  0  0  0  0  0  0  0  0  0  0  0
   10.5809   -4.5811    0.0000 C   0  0  0  0  0  0  0  0  0  0  0  0
    9.3131   -3.7794    0.0000 C   0  0  0  0  0  0  0  0  0  0  0  0
    7.9849   -3.0823    0.0000 C   0  0  0  0  0  0  0  0  0  0  0  0
    6.6049   -2.4943    0.0000 C   0  0  0  0  0  0  0  0  0  0  0  0
    5.1821   -2.0193    0.0000 C   0  0  0  0  0  0  0  0  0  0  0  0
    3.7257   -1.6604    0.0000 C   0  0  0  0  0  0  0  0  0  0  0  0
    3.9544   -3.1428    0.0000 C   0  0  0  0  0  0  0  0  0  0  0  0
    2.6152   -3.8184    0.0000 C   0  0  0  0  0  0  0  0  0  0  0  0
    1.5588   -2.7535    0.0000 C   0  0  0  0  0  0  0  0  0  0  0  0
    2.2451   -1.4197    0.0000 C   0  0  0  0  0  0  0  0  0  0  0  0
    0.7500   -1.2990    0.0000 C   0  0  0  0  0  0  0  0  0  0  0  0
    1.5000    0.0000    0.0000 C   0  0  0  0  0  0  0  0  0  0  0  0
    0.7500    1.2990    0.0000 C   0  0  0  0  0  0  0  0  0  0  0  0
   -0.7500    1.2990    0.0000 C   0  0  0  0  0  0  0  0  0  0  0  0
   -1.5000    0.0000    0.0000 C   0  0  0  0  0  0  0  0  0  0  0  0
   -0.7500   -1.2990    0.0000 C   0  0  0  0  0  0  0  0  0  0  0  0
  1  2  1  0
  2  3  1  0
  3  4  2  0
  4  5  1  0
  5  6  1  0
  6  7  1  0
  7  8  1  0
  8  9  1  0
  9 10  1  0
 10 11  1  0
 11 12  1  0
 12 13  1  0
 13 14  1  0
 14 15  1  0
 15 16  1  0
 16 17  1  0
 17 18  1  0
 18 19  1  0
 19 20  1  0
 20 21  1  0
 21 22  1  0
 22 23  1  0
 23 24  1  0
 24 25  1  0
 25 26  1  0
 26 27  1  0
 27 28  1  0
 28 29  1  0
 29 30  1  0
 30 31  1  0
 31 32  1  0
 32 33  1  0
 33 34  1  0
 34 35  1  0
 35 36  1  0
 36 37  1  0
 37 38  1  0
 38 39  1  0
 39 40  1  0
 40 41  1  0
 41 42  1  0
 42 43  1  0
 43 44  1  0
 44 45  1  0
 45 46  1  0
 46 47  1  0
 47 48  1  0
 48 49  1  0
 49 50  1  0
 50 51  1  0
 51 52  1  0
 52 53  1  0
 53 54  1  0
 54 55  1  0
 55 56  1  0
 56 57  1  0
 57 58  1  0
 58 59  1  0
 59 60  1  0
 60 61  1  0
 61 62  1  0
 62 63  1  0
 63 64  2  0
 64 65  1  0
 65 66  2  0
 66 67  1  0
 67 68  2  0
 68 69  1  0
 69 70  2  0
 70 71  1  0
 71 72  2  0
 72 73  1  0
 73 74  2  0
 74 75  1  0
 75 76  2  0
 76 77  1  0
 77 78  2  0
 78 79  1  0
 79 80  2  0
 80 81  1  0
 81 82  2  0
 82 83  1  0
 83 84  2  0
 84 85  1  0
 85 86  2  0
 86  2  1  0
 80 76  1  0
 86 81  1  0
M  END
>  <Title>  (634) 
idAAWLgen10

$$$$

     RDKit          2D

 51 58  0  0  0  0  0  0  0  0999 V2000
    4.9965   -7.7991    0.0000 C   0  0  0  0  0  0  0  0  0  0  0  0
    3.6537   -7.1305    0.0000 C   0  0  0  0  0  0  0  0  0  0  0  0
    4.0642   -5.6878    0.0000 C   0  0  0  0  0  0  0  0  0  0  0  0
    3.9258   -4.1942    0.0000 C   0  0  0  0  0  0  0  0  0  0  0  0
    3.2572   -2.8514    0.0000 C   0  0  0  0  0  0  0  0  0  0  0  0
    2.1487   -1.8409    0.0000 C   0  0  0  0  0  0  0  0  0  0  0  0
    2.9384   -0.5656    0.0000 C   0  0  0  0  0  0  0  0  0  0  0  0
    2.2287    0.7559    0.0000 O   0  0  0  0  0  0  0  0  0  0  0  0
    4.4376   -0.6118    0.0000 N   0  0  0  0  0  0  0  0  0  0  0  0
    5.2273    0.6636    0.0000 C   0  0  0  0  0  0  0  0  0  0  0  0
    6.7266    0.6174    0.0000 N   0  0  0  0  0  0  0  0  0  0  0  0
    7.5162    1.8927    0.0000 N   0  0  0  0  0  0  0  0  0  0  0  0
    6.8066    3.2142    0.0000 N   0  0  0  0  0  0  0  0  0  0  0  0
    5.3073    3.2604    0.0000 N   0  0  0  0  0  0  0  0  0  0  0  0
    4.5177    1.9851    0.0000 N   0  0  0  0  0  0  0  0  0  0  0  0
    0.7500   -1.2990    0.0000 C   0  0  0  0  0  0  0  0  0  0  0  0
    1.5000    0.0000    0.0000 C   0  0  0  0  0  0  0  0  0  0  0  0
    0.7500    1.2990    0.0000 C   0  0  0  0  0  0  0  0  0  0  0  0
   -0.7500    1.2990    0.0000 C   0  0  0  0  0  0  0  0  0  0  0  0
   -1.5000    0.0000    0.0000 C   0  0  0  0  0  0  0  0  0  0  0  0
   -0.7500   -1.2990    0.0000 C   0  0  0  0  0  0  0  0  0  0  0  0
   -2.1487   -1.8409    0.0000 C   0  0  0  0  0  0  0  0  0  0  0  0
   -2.4696   -0.3756    0.0000 C   0  0  0  0  0  0  0  0  0  0  0  0
   -3.8990    0.0791    0.0000 C   0  0  0  0  0  0  0  0  0  0  0  0
   -5.0075   -0.9314    0.0000 C   0  0  0  0  0  0  0  0  0  0  0  0
   -4.6866   -2.3967    0.0000 C   0  0  0  0  0  0  0  0  0  0  0  0
   -3.2572   -2.8514    0.0000 C   0  0  0  0  0  0  0  0  0  0  0  0
   -3.9258   -4.1942    0.0000 C   0  0  0  0  0  0  0  0  0  0  0  0
   -5.1501   -3.3275    0.0000 C   0  0  0  0  0  0  0  0  0  0  0  0
   -6.5128   -3.9545    0.0000 C   0  0  0  0  0  0  0  0  0  0  0  0
   -6.6512   -5.4481    0.0000 C   0  0  0  0  0  0  0  0  0  0  0  0
   -5.4269   -6.3147    0.0000 C   0  0  0  0  0  0  0  0  0  0  0  0
   -4.0642   -5.6878    0.0000 C   0  0  0  0  0  0  0  0  0  0  0  0
   -3.6537   -7.1305    0.0000 C   0  0  0  0  0  0  0  0  0  0  0  0
   -5.1424   -7.3149    0.0000 C   0  0  0  0  0  0  0  0  0  0  0  0
   -5.7270   -8.6962    0.0000 C   0  0  0  0  0  0  0  0  0  0  0  0
   -4.8231   -9.8932    0.0000 C   0  0  0  0  0  0  0  0  0  0  0  0
   -3.3345   -9.7089    0.0000 C   0  0  0  0  0  0  0  0  0  0  0  0
   -2.7498   -8.3276    0.0000 C   0  0  0  0  0  0  0  0  0  0  0  0
   -1.4745   -9.1172    0.0000 C   0  0  0  0  0  0  0  0  0  0  0  0
   -2.4504  -10.2563    0.0000 C   0  0  0  0  0  0  0  0  0  0  0  0
   -1.9519  -11.6710    0.0000 C   0  0  0  0  0  0  0  0  0  0  0  0
   -0.4774  -11.9467    0.0000 C   0  0  0  0  0  0  0  0  0  0  0  0
    0.4985  -10.8076    0.0000 C   0  0  0  0  0  0  0  0  0  0  0  0
   -0.0000   -9.3928    0.0000 C   0  0  0  0  0  0  0  0  0  0  0  0
    1.4745   -9.1172    0.0000 C   0  0  0  0  0  0  0  0  0  0  0  0
    1.5207  -10.6165    0.0000 C   0  0  0  0  0  0  0  0  0  0  0  0
    2.8422  -11.3261    0.0000 C   0  0  0  0  0  0  0  0  0  0  0  0
    4.1175  -10.5365    0.0000 C   0  0  0  0  0  0  0  0  0  0  0  0
    4.0713   -9.0372    0.0000 C   0  0  0  0  0  0  0  0  0  0  0  0
    2.7498   -8.3276    0.0000 C   0  0  0  0  0  0  0  0  0  0  0  0
  1  2  1  0
  2  3  2  0
  3  4  1  0
  4  5  1  0
  5  6  1  0
  6  7  1  0
  7  8  2  0
  7  9  1  0
  9 10  1  0
 10 11  2  0
 11 12  1  0
 12 13  2  0
 13 14  1  0
 14 15  2  0
  6 16  1  0
 16 17  2  0
 17 18  1  0
 18 19  2  0
 19 20  1  0
 20 21  2  0
 21 22  1  0
 22 23  2  0
 23 24  1  0
 24 25  2  0
 25 26  1  0
 26 27  2  0
 27 28  1  0
 28 29  2  0
 29 30  1  0
 30 31  2  0
 31 32  1  0
 32 33  2  0
 33 34  1  0
 34 35  2  0
 35 36  1  0
 36 37  2  0
 37 38  1  0
 38 39  2  0
 39 40  1  0
 40 41  2  0
 41 42  1  0
 42 43  2  0
 43 44  1  0
 44 45  2  0
 45 46  1  0
 46 47  2  0
 47 48  1  0
 48 49  2  0
 49 50  1  0
 50 51  2  0
 51  2  1  0
 15 10  1  0
 21 16  1  0
 27 22  1  0
 33 28  1  0
 39 34  1  0
 45 40  1  0
 51 46  1  0
M  END
>  <Title>  (635) 
idAAWMgen10

$$$$

     RDKit          2D

 20 22  0  0  0  0  0  0  0  0999 V2000
   -3.0000   -2.5981    0.0000 C   0  0  0  0  0  0  0  0  0  0  0  0
   -1.5000   -2.5981    0.0000 C   0  0  0  0  0  0  0  0  0  0  0  0
   -0.7500   -3.8971    0.0000 C   0  0  0  0  0  0  0  0  0  0  0  0
    0.7500   -3.8971    0.0000 C   0  0  0  0  0  0  0  0  0  0  0  0
    1.5000   -2.5981    0.0000 C   0  0  0  0  0  0  0  0  0  0  0  0
    3.0000   -2.5981    0.0000 C   0  0  0  0  0  0  0  0  0  0  0  0
    3.7500   -1.2990    0.0000 O   0  0  0  0  0  0  0  0  0  0  0  0
    3.7500   -3.8971    0.0000 N   0  0  0  0  0  0  0  0  0  0  0  0
    5.2500   -3.8971    0.0000 C   0  0  0  0  0  0  0  0  0  0  0  0
    6.0000   -5.1962    0.0000 N   0  0  0  0  0  0  0  0  0  0  0  0
    7.5000   -5.1962    0.0000 N   0  0  0  0  0  0  0  0  0  0  0  0
    8.2500   -3.8971    0.0000 N   0  0  0  0  0  0  0  0  0  0  0  0
    7.5000   -2.5981    0.0000 N   0  0  0  0  0  0  0  0  0  0  0  0
    6.0000   -2.5981    0.0000 N   0  0  0  0  0  0  0  0  0  0  0  0
    0.7500   -1.2990    0.0000 C   0  0  0  0  0  0  0  0  0  0  0  0
    1.5000    0.0000    0.0000 C   0  0  0  0  0  0  0  0  0  0  0  0
    0.7500    1.2990    0.0000 C   0  0  0  0  0  0  0  0  0  0  0  0
   -0.7500    1.2990    0.0000 C   0  0  0  0  0  0  0  0  0  0  0  0
   -1.5000    0.0000    0.0000 C   0  0  0  0  0  0  0  0  0  0  0  0
   -0.7500   -1.2990    0.0000 C   0  0  0  0  0  0  0  0  0  0  0  0
  1  2  1  0
  2  3  1  0
  3  4  2  0
  4  5  1  0
  5  6  1  0
  6  7  2  0
  6  8  1  0
  8  9  1  0
  9 10  2  0
 10 11  1  0
 11 12  2  0
 12 13  1  0
 13 14  2  0
  5 15  1  0
 15 16  2  0
 16 17  1  0
 17 18  2  0
 18 19  1  0
 19 20  2  0
 20  2  1  0
 14  9  1  0
 20 15  1  0
M  END
>  <Title>  (636) 
idAAWNgen10

$$$$

     RDKit          2D

 16 16  0  0  0  0  0  0  0  0999 V2000
   14.7760   -5.1962    0.0000 C   0  0  0  0  0  0  0  0  0  0  0  0
   14.0260   -3.8971    0.0000 C   0  0  0  0  0  0  0  0  0  0  0  0
   13.2760   -2.5981    0.0000 C   0  0  0  0  0  0  0  0  0  0  0  0
   12.5260   -1.2990    0.0000 C   0  0  0  0  0  0  0  0  0  0  0  0
   11.7760   -0.0000    0.0000 C   0  0  0  0  0  0  0  0  0  0  0  0
   10.2760   -0.0000    0.0000 C   0  0  0  0  0  0  0  0  0  0  0  0
    8.7760   -0.0000    0.0000 C   0  0  0  0  0  0  0  0  0  0  0  0
    7.2760   -0.0000    0.0000 C   0  0  0  0  0  0  0  0  0  0  0  0
    5.7760   -0.0000    0.0000 C   0  0  0  0  0  0  0  0  0  0  0  0
    4.2760   -0.0000    0.0000 C   0  0  0  0  0  0  0  0  0  0  0  0
    2.7760    0.0000    0.0000 C   0  0  0  0  0  0  0  0  0  0  0  0
    1.2760    0.0000    0.0000 C   0  0  0  0  0  0  0  0  0  0  0  0
    0.3943    1.2135    0.0000 C   0  0  0  0  0  0  0  0  0  0  0  0
   -1.0323    0.7500    0.0000 C   0  0  0  0  0  0  0  0  0  0  0  0
   -1.0323   -0.7500    0.0000 C   0  0  0  0  0  0  0  0  0  0  0  0
    0.3943   -1.2135    0.0000 C   0  0  0  0  0  0  0  0  0  0  0  0
  1  2  3  0
  2  3  1  0
  3  4  3  0
  4  5  1  0
  5  6  1  0
  6  7  3  0
  7  8  1  0
  8  9  3  0
  9 10  1  0
 10 11  3  0
 11 12  1  0
 12 13  2  0
 13 14  1  0
 14 15  2  0
 15 16  1  0
 16 12  1  0
M  END
>  <Title>  (637) 
idAAWOgen10

$$$$

     RDKit          2D

 92 93  0  0  0  0  0  0  0  0999 V2000
   -2.1799   -1.0785    0.0000 C   0  0  0  0  0  0  0  0  0  0  0  0
   -2.4883    0.3894    0.0000 C   0  0  0  0  0  0  0  0  0  0  0  0
   -3.9663    0.1336    0.0000 C   0  0  0  0  0  0  0  0  0  0  0  0
   -5.4588   -0.0160    0.0000 C   0  0  0  0  0  0  0  0  0  0  0  0
   -6.9582   -0.0589    0.0000 C   0  0  0  0  0  0  0  0  0  0  0  0
   -8.4569    0.0054    0.0000 C   0  0  0  0  0  0  0  0  0  0  0  0
   -9.9471    0.1763    0.0000 C   0  0  0  0  0  0  0  0  0  0  0  0
  -11.4213    0.4532    0.0000 C   0  0  0  0  0  0  0  0  0  0  0  0
  -12.8720    0.8345    0.0000 C   0  0  0  0  0  0  0  0  0  0  0  0
  -14.2918    1.3184    0.0000 C   0  0  0  0  0  0  0  0  0  0  0  0
  -15.6735    1.9023    0.0000 C   0  0  0  0  0  0  0  0  0  0  0  0
  -17.0100    2.5833    0.0000 C   0  0  0  0  0  0  0  0  0  0  0  0
  -18.2946    3.3579    0.0000 C   0  0  0  0  0  0  0  0  0  0  0  0
  -19.5206    4.2221    0.0000 C   0  0  0  0  0  0  0  0  0  0  0  0
  -20.6818    5.1717    0.0000 C   0  0  0  0  0  0  0  0  0  0  0  0
  -21.7723    6.2016    0.0000 C   0  0  0  0  0  0  0  0  0  0  0  0
  -22.7866    7.3067    0.0000 C   0  0  0  0  0  0  0  0  0  0  0  0
  -23.7194    8.4814    0.0000 C   0  0  0  0  0  0  0  0  0  0  0  0
  -24.5661    9.7196    0.0000 C   0  0  0  0  0  0  0  0  0  0  0  0
  -25.3222   11.0150    0.0000 C   0  0  0  0  0  0  0  0  0  0  0  0
  -25.9841   12.3611    0.0000 C   0  0  0  0  0  0  0  0  0  0  0  0
  -26.5482   13.7510    0.0000 C   0  0  0  0  0  0  0  0  0  0  0  0
  -27.0117   15.1776    0.0000 C   0  0  0  0  0  0  0  0  0  0  0  0
  -27.3723   16.6336    0.0000 C   0  0  0  0  0  0  0  0  0  0  0  0
  -27.6281   18.1116    0.0000 C   0  0  0  0  0  0  0  0  0  0  0  0
  -27.7778   19.6041    0.0000 C   0  0  0  0  0  0  0  0  0  0  0  0
  -27.8206   21.1035    0.0000 C   0  0  0  0  0  0  0  0  0  0  0  0
  -27.7563   22.6022    0.0000 C   0  0  0  0  0  0  0  0  0  0  0  0
  -27.5854   24.0924    0.0000 C   0  0  0  0  0  0  0  0  0  0  0  0
  -27.3085   25.5666    0.0000 C   0  0  0  0  0  0  0  0  0  0  0  0
  -26.9272   27.0173    0.0000 C   0  0  0  0  0  0  0  0  0  0  0  0
  -26.4433   28.4371    0.0000 C   0  0  0  0  0  0  0  0  0  0  0  0
  -25.8594   29.8188    0.0000 C   0  0  0  0  0  0  0  0  0  0  0  0
  -25.1784   31.1553    0.0000 C   0  0  0  0  0  0  0  0  0  0  0  0
  -24.4038   32.4399    0.0000 C   0  0  0  0  0  0  0  0  0  0  0  0
  -23.5396   33.6659    0.0000 C   0  0  0  0  0  0  0  0  0  0  0  0
  -22.5901   34.8271    0.0000 C   0  0  0  0  0  0  0  0  0  0  0  0
  -21.5601   35.9176    0.0000 C   0  0  0  0  0  0  0  0  0  0  0  0
  -20.4550   36.9318    0.0000 C   0  0  0  0  0  0  0  0  0  0  0  0
  -19.2803   37.8647    0.0000 C   0  0  0  0  0  0  0  0  0  0  0  0
  -18.0421   38.7114    0.0000 C   0  0  0  0  0  0  0  0  0  0  0  0
  -16.7467   39.4675    0.0000 C   0  0  0  0  0  0  0  0  0  0  0  0
  -15.4006   40.1294    0.0000 C   0  0  0  0  0  0  0  0  0  0  0  0
  -14.0107   40.6935    0.0000 C   0  0  0  0  0  0  0  0  0  0  0  0
  -12.5841   41.1570    0.0000 C   0  0  0  0  0  0  0  0  0  0  0  0
  -11.1281   41.5176    0.0000 C   0  0  0  0  0  0  0  0  0  0  0  0
   -9.6501   41.7734    0.0000 C   0  0  0  0  0  0  0  0  0  0  0  0
   -8.1576   41.9230    0.0000 C   0  0  0  0  0  0  0  0  0  0  0  0
   -6.6582   41.9659    0.0000 C   0  0  0  0  0  0  0  0  0  0  0  0
   -5.1596   41.9016    0.0000 C   0  0  0  0  0  0  0  0  0  0  0  0
   -3.6693   41.7307    0.0000 C   0  0  0  0  0  0  0  0  0  0  0  0
   -2.1951   41.4538    0.0000 C   0  0  0  0  0  0  0  0  0  0  0  0
   -0.7444   41.0725    0.0000 C   0  0  0  0  0  0  0  0  0  0  0  0
    0.6754   40.5886    0.0000 C   0  0  0  0  0  0  0  0  0  0  0  0
    2.0571   40.0047    0.0000 C   0  0  0  0  0  0  0  0  0  0  0  0
    3.3936   39.3237    0.0000 C   0  0  0  0  0  0  0  0  0  0  0  0
    4.6782   38.5491    0.0000 C   0  0  0  0  0  0  0  0  0  0  0  0
    5.9042   37.6849    0.0000 C   0  0  0  0  0  0  0  0  0  0  0  0
    7.0654   36.7353    0.0000 C   0  0  0  0  0  0  0  0  0  0  0  0
    8.1559   35.7054    0.0000 C   0  0  0  0  0  0  0  0  0  0  0  0
    9.1701   34.6003    0.0000 C   0  0  0  0  0  0  0  0  0  0  0  0
   10.1030   33.4256    0.0000 C   0  0  0  0  0  0  0  0  0  0  0  0
   10.9496   32.1874    0.0000 C   0  0  0  0  0  0  0  0  0  0  0  0
   11.7058   30.8920    0.0000 C   0  0  0  0  0  0  0  0  0  0  0  0
   12.3677   29.5459    0.0000 C   0  0  0  0  0  0  0  0  0  0  0  0
   12.9318   28.1560    0.0000 C   0  0  0  0  0  0  0  0  0  0  0  0
   13.3953   26.7294    0.0000 C   0  0  0  0  0  0  0  0  0  0  0  0
   13.7559   25.2734    0.0000 C   0  0  0  0  0  0  0  0  0  0  0  0
   14.0117   23.7954    0.0000 C   0  0  0  0  0  0  0  0  0  0  0  0
   14.1613   22.3029    0.0000 C   0  0  0  0  0  0  0  0  0  0  0  0
   14.2042   20.8035    0.0000 C   0  0  0  0  0  0  0  0  0  0  0  0
   14.1399   19.3048    0.0000 C   0  0  0  0  0  0  0  0  0  0  0  0
   13.9689   17.8146    0.0000 C   0  0  0  0  0  0  0  0  0  0  0  0
   13.6921   16.3404    0.0000 C   0  0  0  0  0  0  0  0  0  0  0  0
   13.3108   14.8897    0.0000 C   0  0  0  0  0  0  0  0  0  0  0  0
   12.8269   13.4699    0.0000 C   0  0  0  0  0  0  0  0  0  0  0  0
   12.2430   12.0882    0.0000 C   0  0  0  0  0  0  0  0  0  0  0  0
   11.5620   10.7517    0.0000 C   0  0  0  0  0  0  0  0  0  0  0  0
   10.7874    9.4671    0.0000 C   0  0  0  0  0  0  0  0  0  0  0  0
    9.9232    8.2411    0.0000 C   0  0  0  0  0  0  0  0  0  0  0  0
    8.9736    7.0799    0.0000 C   0  0  0  0  0  0  0  0  0  0  0  0
    7.9437    5.9894    0.0000 C   0  0  0  0  0  0  0  0  0  0  0  0
    6.8386    4.9752    0.0000 C   0  0  0  0  0  0  0  0  0  0  0  0
    5.6639    4.0423    0.0000 C   0  0  0  0  0  0  0  0  0  0  0  0
    4.4257    3.1956    0.0000 C   0  0  0  0  0  0  0  0  0  0  0  0
    3.1303    2.4395    0.0000 C   0  0  0  0  0  0  0  0  0  0  0  0
    1.7842    1.7776    0.0000 C   0  0  0  0  0  0  0  0  0  0  0  0
    0.3943    1.2135    0.0000 C   0  0  0  0  0  0  0  0  0  0  0  0
    1.2760    0.0000    0.0000 C   0  0  0  0  0  0  0  0  0  0  0  0
    0.3943   -1.2135    0.0000 C   0  0  0  0  0  0  0  0  0  0  0  0
   -1.0323   -0.7500    0.0000 C   0  0  0  0  0  0  0  0  0  0  0  0
   -1.0323    0.7500    0.0000 C   0  0  0  0  0  0  0  0  0  0  0  0
  1  2  1  0
  2  3  1  0
  3  4  1  0
  4  5  1  0
  5  6  1  0
  6  7  1  0
  7  8  1  0
  8  9  1  0
  9 10  1  0
 10 11  1  0
 11 12  1  0
 12 13  1  0
 13 14  1  0
 14 15  1  0
 15 16  1  0
 16 17  1  0
 17 18  1  0
 18 19  1  0
 19 20  1  0
 20 21  1  0
 21 22  1  0
 22 23  1  0
 23 24  1  0
 24 25  1  0
 25 26  1  0
 26 27  1  0
 27 28  1  0
 28 29  1  0
 29 30  1  0
 30 31  1  0
 31 32  1  0
 32 33  1  0
 33 34  1  0
 34 35  1  0
 35 36  1  0
 36 37  1  0
 37 38  1  0
 38 39  1  0
 39 40  1  0
 40 41  1  0
 41 42  1  0
 42 43  1  0
 43 44  1  0
 44 45  1  0
 45 46  1  0
 46 47  1  0
 47 48  1  0
 48 49  1  0
 49 50  1  0
 50 51  1  0
 51 52  1  0
 52 53  1  0
 53 54  1  0
 54 55  1  0
 55 56  1  0
 56 57  1  0
 57 58  1  0
 58 59  1  0
 59 60  1  0
 60 61  1  0
 61 62  1  0
 62 63  1  0
 63 64  1  0
 64 65  1  0
 65 66  1  0
 66 67  1  0
 67 68  1  0
 68 69  1  0
 69 70  1  0
 70 71  1  0
 71 72  1  0
 72 73  1  0
 73 74  1  0
 74 75  1  0
 75 76  1  0
 76 77  1  0
 77 78  1  0
 78 79  1  0
 79 80  1  0
 80 81  1  0
 81 82  1  0
 82 83  1  0
 83 84  2  0
 84 85  1  0
 85 86  2  0
 86 87  1  0
 87 88  2  0
 88 89  1  0
 89 90  2  0
 90 91  1  0
 91 92  2  0
 92  2  1  0
 92 88  1  0
M  END
>  <Title>  (638) 
idAAWPgen10

$$$$

     RDKit          2D

  9  8  0  0  0  0  0  0  0  0999 V2000
    0.0000    0.0000    0.0000 C   0  0  0  0  0  0  0  0  0  0  0  0
    1.2990    0.7500    0.0000 C   0  0  0  0  0  0  0  0  0  0  0  0
    2.5981   -0.0000    0.0000 C   0  0  0  0  0  0  0  0  0  0  0  0
    1.2990    2.2500    0.0000 C   0  0  0  0  0  0  0  0  0  0  0  0
    1.2990    3.7500    0.0000 C   0  0  0  0  0  0  0  0  0  0  0  0
    1.2990    5.2500    0.0000 C   0  0  0  0  0  0  0  0  0  0  0  0
    1.2990    6.7500    0.0000 C   0  0  0  0  0  0  0  0  0  0  0  0
    1.2990    8.2500    0.0000 C   0  0  0  0  0  0  0  0  0  0  0  0
    1.2990    9.7500    0.0000 N   0  0  0  0  0  0  0  0  0  0  0  0
  1  2  1  0
  2  3  1  0
  2  4  1  0
  4  5  3  0
  5  6  1  0
  6  7  3  0
  7  8  1  0
  8  9  3  0
M  END
>  <Title>  (639) 
idAAWQgen10

$$$$

     RDKit          2D

  7  7  0  0  0  0  0  0  0  0999 V2000
    4.2760   -0.0000    0.0000 C   0  0  0  0  0  0  0  0  0  0  0  0
    2.7760    0.0000    0.0000 C   0  0  0  0  0  0  0  0  0  0  0  0
    1.2760    0.0000    0.0000 C   0  0  0  0  0  0  0  0  0  0  0  0
    0.3943    1.2135    0.0000 C   0  0  0  0  0  0  0  0  0  0  0  0
   -1.0323    0.7500    0.0000 C   0  0  0  0  0  0  0  0  0  0  0  0
   -1.0323   -0.7500    0.0000 C   0  0  0  0  0  0  0  0  0  0  0  0
    0.3943   -1.2135    0.0000 C   0  0  0  0  0  0  0  0  0  0  0  0
  1  2  3  0
  2  3  1  0
  3  4  2  0
  4  5  1  0
  5  6  2  0
  6  7  1  0
  7  3  1  0
M  END
>  <Title>  (640) 
idAAWRgen10

$$$$

     RDKit          2D

  9  9  0  0  0  0  0  0  0  0999 V2000
    5.7760   -0.0000    0.0000 C   0  0  0  0  0  0  0  0  0  0  0  0
    4.2760   -0.0000    0.0000 C   0  0  0  0  0  0  0  0  0  0  0  0
    2.7760    0.0000    0.0000 C   0  0  0  0  0  0  0  0  0  0  0  0
    1.2760    0.0000    0.0000 C   0  0  0  0  0  0  0  0  0  0  0  0
    0.3943    1.2135    0.0000 C   0  0  0  0  0  0  0  0  0  0  0  0
   -1.0323    0.7500    0.0000 C   0  0  0  0  0  0  0  0  0  0  0  0
   -2.2458    1.6317    0.0000 C   0  0  0  0  0  0  0  0  0  0  0  0
   -1.0323   -0.7500    0.0000 C   0  0  0  0  0  0  0  0  0  0  0  0
    0.3943   -1.2135    0.0000 C   0  0  0  0  0  0  0  0  0  0  0  0
  1  2  1  0
  2  3  3  0
  3  4  1  0
  4  5  2  0
  5  6  1  0
  6  7  1  0
  6  8  1  0
  8  9  1  0
  9  4  1  0
M  END
>  <Title>  (641) 
idAAWSgen10

$$$$

     RDKit          2D

  9  9  0  0  0  0  0  0  0  0999 V2000
    3.0000    0.0000    0.0000 C   0  0  0  0  0  0  0  0  0  0  0  0
    1.5000    0.0000    0.0000 C   0  0  0  0  0  0  0  0  0  0  0  0
    0.7500   -1.2990    0.0000 C   0  0  0  0  0  0  0  0  0  0  0  0
   -0.7500   -1.2990    0.0000 C   0  0  0  0  0  0  0  0  0  0  0  0
   -1.5000    0.0000    0.0000 C   0  0  0  0  0  0  0  0  0  0  0  0
   -0.7500    1.2990    0.0000 C   0  0  0  0  0  0  0  0  0  0  0  0
   -1.5000    2.5981    0.0000 C   0  0  0  0  0  0  0  0  0  0  0  0
   -2.2500    3.8971    0.0000 N   0  0  0  0  0  0  0  0  0  0  0  0
    0.7500    1.2990    0.0000 C   0  0  0  0  0  0  0  0  0  0  0  0
  1  2  1  0
  2  3  2  0
  3  4  1  0
  4  5  2  0
  5  6  1  0
  6  7  1  0
  7  8  3  0
  6  9  2  0
  9  2  1  0
M  END
>  <Title>  (642) 
idAAWTgen10

$$$$

     RDKit          2D

  8  8  0  0  0  0  0  0  0  0999 V2000
    4.2760   -2.5981    0.0000 C   0  0  0  0  0  0  0  0  0  0  0  0
    3.5260   -1.2990    0.0000 C   0  0  0  0  0  0  0  0  0  0  0  0
    2.7760    0.0000    0.0000 C   0  0  0  0  0  0  0  0  0  0  0  0
    1.2760    0.0000    0.0000 C   0  0  0  0  0  0  0  0  0  0  0  0
    0.3943    1.2135    0.0000 C   0  0  0  0  0  0  0  0  0  0  0  0
   -1.0323    0.7500    0.0000 C   0  0  0  0  0  0  0  0  0  0  0  0
   -1.0323   -0.7500    0.0000 C   0  0  0  0  0  0  0  0  0  0  0  0
    0.3943   -1.2135    0.0000 C   0  0  0  0  0  0  0  0  0  0  0  0
  1  2  3  0
  2  3  1  0
  3  4  1  0
  4  5  2  0
  5  6  1  0
  6  7  2  0
  7  8  1  0
  8  4  1  0
M  END
>  <Title>  (643) 
idAAWUgen10

$$$$

     RDKit          2D

  7  7  0  0  0  0  0  0  0  0999 V2000
    3.5260   -1.2990    0.0000 C   0  0  0  0  0  0  0  0  0  0  0  0
    2.7760    0.0000    0.0000 C   0  0  0  0  0  0  0  0  0  0  0  0
    1.2760    0.0000    0.0000 C   0  0  0  0  0  0  0  0  0  0  0  0
    0.3943    1.2135    0.0000 C   0  0  0  0  0  0  0  0  0  0  0  0
   -1.0323    0.7500    0.0000 C   0  0  0  0  0  0  0  0  0  0  0  0
   -1.0323   -0.7500    0.0000 C   0  0  0  0  0  0  0  0  0  0  0  0
    0.3943   -1.2135    0.0000 C   0  0  0  0  0  0  0  0  0  0  0  0
  1  2  2  0
  2  3  1  0
  3  4  1  0
  4  5  1  0
  5  6  2  0
  6  7  1  0
  7  3  1  0
M  END
>  <Title>  (644) 
idAAWVgen10

$$$$

     RDKit          2D

 65 75  0  0  0  0  0  0  0  0999 V2000
    7.1178   -9.5486    0.0000 O   0  0  0  0  0  0  0  0  0  0  0  0
    5.6912   -9.0851    0.0000 C   0  0  0  0  0  0  0  0  0  0  0  0
    5.9722   -7.6116    0.0000 C   0  0  0  0  0  0  0  0  0  0  0  0
    5.8781   -6.1146    0.0000 C   0  0  0  0  0  0  0  0  0  0  0  0
    5.4145   -4.6880    0.0000 C   0  0  0  0  0  0  0  0  0  0  0  0
    4.6108   -3.4215    0.0000 C   0  0  0  0  0  0  0  0  0  0  0  0
    3.5173   -2.3947    0.0000 C   0  0  0  0  0  0  0  0  0  0  0  0
    4.6108   -1.3679    0.0000 C   0  0  0  0  0  0  0  0  0  0  0  0
    3.9721   -0.0106    0.0000 C   0  0  0  0  0  0  0  0  0  0  0  0
    2.4839   -0.1986    0.0000 C   0  0  0  0  0  0  0  0  0  0  0  0
    2.2029   -1.6721    0.0000 C   0  0  0  0  0  0  0  0  0  0  0  0
    0.7500   -1.2990    0.0000 C   0  0  0  0  0  0  0  0  0  0  0  0
    1.5000    0.0000    0.0000 C   0  0  0  0  0  0  0  0  0  0  0  0
    0.7500    1.2990    0.0000 C   0  0  0  0  0  0  0  0  0  0  0  0
   -0.7500    1.2990    0.0000 C   0  0  0  0  0  0  0  0  0  0  0  0
   -1.5000    0.0000    0.0000 C   0  0  0  0  0  0  0  0  0  0  0  0
   -0.7500   -1.2990    0.0000 C   0  0  0  0  0  0  0  0  0  0  0  0
   -2.2029   -1.6721    0.0000 C   0  0  0  0  0  0  0  0  0  0  0  0
   -2.7849   -0.5096    0.0000 C   0  0  0  0  0  0  0  0  0  0  0  0
   -3.4692   -0.0952    0.0000 C   0  0  0  0  0  0  0  0  0  0  0  0
   -4.1702   -0.4806    0.0000 C   0  0  0  0  0  0  0  0  0  0  0  0
   -4.1870   -1.2804    0.0000 C   0  0  0  0  0  0  0  0  0  0  0  0
   -3.5173   -2.3947    0.0000 C   0  0  0  0  0  0  0  0  0  0  0  0
   -4.6108   -3.4215    0.0000 C   0  0  0  0  0  0  0  0  0  0  0  0
   -5.3057   -2.0922    0.0000 C   0  0  0  0  0  0  0  0  0  0  0  0
   -6.8044   -2.0294    0.0000 C   0  0  0  0  0  0  0  0  0  0  0  0
   -7.6082   -3.2959    0.0000 C   0  0  0  0  0  0  0  0  0  0  0  0
   -6.9132   -4.6252    0.0000 C   0  0  0  0  0  0  0  0  0  0  0  0
   -5.4145   -4.6880    0.0000 C   0  0  0  0  0  0  0  0  0  0  0  0
   -5.8781   -6.1146    0.0000 C   0  0  0  0  0  0  0  0  0  0  0  0
   -7.1714   -5.9831    0.0000 C   0  0  0  0  0  0  0  0  0  0  0  0
   -7.8880   -6.3388    0.0000 C   0  0  0  0  0  0  0  0  0  0  0  0
   -7.9382   -7.1373    0.0000 C   0  0  0  0  0  0  0  0  0  0  0  0
   -7.2719   -7.5800    0.0000 C   0  0  0  0  0  0  0  0  0  0  0  0
   -5.9722   -7.6116    0.0000 C   0  0  0  0  0  0  0  0  0  0  0  0
   -5.6912   -9.0851    0.0000 C   0  0  0  0  0  0  0  0  0  0  0  0
   -7.1859   -8.9596    0.0000 C   0  0  0  0  0  0  0  0  0  0  0  0
   -8.0420  -10.1913    0.0000 C   0  0  0  0  0  0  0  0  0  0  0  0
   -7.4033  -11.5485    0.0000 C   0  0  0  0  0  0  0  0  0  0  0  0
   -5.9086  -11.6740    0.0000 C   0  0  0  0  0  0  0  0  0  0  0  0
   -5.0525  -10.4423    0.0000 C   0  0  0  0  0  0  0  0  0  0  0  0
   -4.0964  -11.5981    0.0000 C   0  0  0  0  0  0  0  0  0  0  0  0
   -4.9004  -12.6196    0.0000 C   0  0  0  0  0  0  0  0  0  0  0  0
   -4.9840  -13.4153    0.0000 C   0  0  0  0  0  0  0  0  0  0  0  0
   -4.3368  -13.8855    0.0000 C   0  0  0  0  0  0  0  0  0  0  0  0
   -3.6059  -13.5601    0.0000 C   0  0  0  0  0  0  0  0  0  0  0  0
   -2.8828  -12.4798    0.0000 C   0  0  0  0  0  0  0  0  0  0  0  0
   -1.4882  -13.0319    0.0000 C   0  0  0  0  0  0  0  0  0  0  0  0
   -2.3951  -14.2267    0.0000 C   0  0  0  0  0  0  0  0  0  0  0  0
   -1.8138  -15.6095    0.0000 C   0  0  0  0  0  0  0  0  0  0  0  0
   -0.3256  -15.7975    0.0000 C   0  0  0  0  0  0  0  0  0  0  0  0
    0.5813  -14.6027    0.0000 C   0  0  0  0  0  0  0  0  0  0  0  0
   -0.0000  -13.2199    0.0000 C   0  0  0  0  0  0  0  0  0  0  0  0
    1.4882  -13.0319    0.0000 C   0  0  0  0  0  0  0  0  0  0  0  0
    1.9199  -14.2582    0.0000 C   0  0  0  0  0  0  0  0  0  0  0  0
    2.5468  -14.7551    0.0000 C   0  0  0  0  0  0  0  0  0  0  0  0
    3.2907  -14.4606    0.0000 C   0  0  0  0  0  0  0  0  0  0  0  0
    3.4075  -13.6692    0.0000 C   0  0  0  0  0  0  0  0  0  0  0  0
    2.8828  -12.4798    0.0000 C   0  0  0  0  0  0  0  0  0  0  0  0
    4.0964  -11.5981    0.0000 C   0  0  0  0  0  0  0  0  0  0  0  0
    4.6192  -13.0040    0.0000 C   0  0  0  0  0  0  0  0  0  0  0  0
    6.0982  -13.2542    0.0000 C   0  0  0  0  0  0  0  0  0  0  0  0
    7.0544  -12.0984    0.0000 C   0  0  0  0  0  0  0  0  0  0  0  0
    6.5315  -10.6925    0.0000 C   0  0  0  0  0  0  0  0  0  0  0  0
    5.0525  -10.4423    0.0000 C   0  0  0  0  0  0  0  0  0  0  0  0
  1  2  1  0
  2  3  2  0
  3  4  1  0
  4  5  2  0
  5  6  1  0
  6  7  2  0
  7  8  1  0
  8  9  2  0
  9 10  1  0
 10 11  2  0
 11 12  1  0
 12 13  2  0
 13 14  1  0
 14 15  2  0
 15 16  1  0
 16 17  2  0
 17 18  1  0
 18 19  2  0
 19 20  1  0
 20 21  2  0
 21 22  1  0
 22 23  2  0
 23 24  1  0
 24 25  2  0
 25 26  1  0
 26 27  2  0
 27 28  1  0
 28 29  2  0
 29 30  1  0
 30 31  2  0
 31 32  1  0
 32 33  2  0
 33 34  1  0
 34 35  2  0
 35 36  1  0
 36 37  2  0
 37 38  1  0
 38 39  2  0
 39 40  1  0
 40 41  2  0
 41 42  1  0
 42 43  2  0
 43 44  1  0
 44 45  2  0
 45 46  1  0
 46 47  2  0
 47 48  1  0
 48 49  2  0
 49 50  1  0
 50 51  2  0
 51 52  1  0
 52 53  2  0
 53 54  1  0
 54 55  2  0
 55 56  1  0
 56 57  2  0
 57 58  1  0
 58 59  2  0
 59 60  1  0
 60 61  2  0
 61 62  1  0
 62 63  2  0
 63 64  1  0
 64 65  2  0
 65  2  1  0
 11  7  1  0
 17 12  1  0
 23 18  1  0
 29 24  1  0
 35 30  1  0
 41 36  1  0
 47 42  1  0
 53 48  1  0
 59 54  1  0
 65 60  1  0
M  END
>  <Title>  (645) 
idAAWWgen10

$$$$

     RDKit          2D

  9  9  0  0  0  0  0  0  0  0999 V2000
    5.2500   -1.2990    0.0000 C   0  0  0  0  0  0  0  0  0  0  0  0
    3.7500   -1.2990    0.0000 C   0  0  0  0  0  0  0  0  0  0  0  0
    3.0000    0.0000    0.0000 C   0  0  0  0  0  0  0  0  0  0  0  0
    1.5000    0.0000    0.0000 N   0  0  0  0  0  0  0  0  0  0  0  0
    0.7500   -1.2990    0.0000 C   0  0  0  0  0  0  0  0  0  0  0  0
   -0.7500   -1.2990    0.0000 C   0  0  0  0  0  0  0  0  0  0  0  0
   -1.5000    0.0000    0.0000 C   0  0  0  0  0  0  0  0  0  0  0  0
   -0.7500    1.2990    0.0000 C   0  0  0  0  0  0  0  0  0  0  0  0
    0.7500    1.2990    0.0000 C   0  0  0  0  0  0  0  0  0  0  0  0
  1  2  2  0
  2  3  1  0
  3  4  1  0
  4  5  1  0
  5  6  2  0
  6  7  1  0
  7  8  2  0
  8  9  1  0
  9  4  1  0
M  END
>  <Title>  (646) 
idAAWXgen10

$$$$

     RDKit          2D

 11 11  0  0  0  0  0  0  0  0999 V2000
    7.7286   -0.0000    0.0000 C   0  0  0  0  0  0  0  0  0  0  0  0
    6.2286   -0.0000    0.0000 C   0  0  0  0  0  0  0  0  0  0  0  0
    4.7286   -0.0000    0.0000 C   0  0  0  0  0  0  0  0  0  0  0  0
    3.2286   -0.0000    0.0000 C   0  0  0  0  0  0  0  0  0  0  0  0
    1.7286    0.0000    0.0000 C   0  0  0  0  0  0  0  0  0  0  0  0
    1.0777    1.3515    0.0000 C   0  0  0  0  0  0  0  0  0  0  0  0
   -0.3846    1.6852    0.0000 C   0  0  0  0  0  0  0  0  0  0  0  0
   -1.5574    0.7500    0.0000 C   0  0  0  0  0  0  0  0  0  0  0  0
   -1.5574   -0.7500    0.0000 C   0  0  0  0  0  0  0  0  0  0  0  0
   -0.3846   -1.6852    0.0000 C   0  0  0  0  0  0  0  0  0  0  0  0
    1.0777   -1.3515    0.0000 C   0  0  0  0  0  0  0  0  0  0  0  0
  1  2  3  0
  2  3  1  0
  3  4  3  0
  4  5  1  0
  5  6  2  0
  6  7  1  0
  7  8  1  0
  8  9  1  0
  9 10  1  0
 10 11  2  0
 11  5  1  0
M  END
>  <Title>  (647) 
idAAWYgen10

$$$$

     RDKit          2D

 10 10  0  0  0  0  0  0  0  0999 V2000
    5.0260   -1.2990    0.0000 C   0  0  0  0  0  0  0  0  0  0  0  0
    3.5260   -1.2990    0.0000 C   0  0  0  0  0  0  0  0  0  0  0  0
    2.7760    0.0000    0.0000 C   0  0  0  0  0  0  0  0  0  0  0  0
    1.2760    0.0000    0.0000 C   0  0  0  0  0  0  0  0  0  0  0  0
    0.3943    1.2135    0.0000 C   0  0  0  0  0  0  0  0  0  0  0  0
   -1.0323    0.7500    0.0000 C   0  0  0  0  0  0  0  0  0  0  0  0
   -2.2458    1.6317    0.0000 C   0  0  0  0  0  0  0  0  0  0  0  0
   -1.0323   -0.7500    0.0000 C   0  0  0  0  0  0  0  0  0  0  0  0
   -2.2458   -1.6317    0.0000 C   0  0  0  0  0  0  0  0  0  0  0  0
    0.3943   -1.2135    0.0000 C   0  0  0  0  0  0  0  0  0  0  0  0
  1  2  2  0
  2  3  1  0
  3  4  1  0
  4  5  2  0
  5  6  1  0
  6  7  1  0
  6  8  1  0
  8  9  1  0
  8 10  1  0
 10  4  1  0
M  END
>  <Title>  (648) 
idAAWZgen10

$$$$

     RDKit          2D

 13 13  0  0  0  0  0  0  0  0999 V2000
    5.2500   -1.2990    0.0000 C   0  0  0  0  0  0  0  0  0  0  0  0
    3.7500   -1.2990    0.0000 C   0  0  0  0  0  0  0  0  0  0  0  0
    3.0000    0.0000    0.0000 C   0  0  0  0  0  0  0  0  0  0  0  0
    3.7500    1.2990    0.0000 O   0  0  0  0  0  0  0  0  0  0  0  0
    1.5000    0.0000    0.0000 C   0  0  0  0  0  0  0  0  0  0  0  0
    0.7500   -1.2990    0.0000 C   0  0  0  0  0  0  0  0  0  0  0  0
   -0.7500   -1.2990    0.0000 C   0  0  0  0  0  0  0  0  0  0  0  0
   -1.5000    0.0000    0.0000 C   0  0  0  0  0  0  0  0  0  0  0  0
   -0.7500    1.2990    0.0000 C   0  0  0  0  0  0  0  0  0  0  0  0
    0.7500    1.2990    0.0000 C   0  0  0  0  0  0  0  0  0  0  0  0
    1.5000    2.5981    0.0000 C   0  0  0  0  0  0  0  0  0  0  0  0
    3.0000    2.5981    0.0000 C   0  0  0  0  0  0  0  0  0  0  0  0
    0.7500    3.8971    0.0000 O   0  0  0  0  0  0  0  0  0  0  0  0
  1  2  2  0
  2  3  1  0
  3  4  2  0
  3  5  1  0
  5  6  2  0
  6  7  1  0
  7  8  2  0
  8  9  1  0
  9 10  2  0
 10 11  1  0
 11 12  1  0
 11 13  2  0
 10  5  1  0
M  END
>  <Title>  (649) 
idAAXAgen10

$$$$

     RDKit          2D

 56 64  0  0  0  0  0  0  0  0999 V2000
    5.8191   -5.5525    0.0000 C   0  0  0  0  0  0  0  0  0  0  0  0
    4.3191   -5.5525    0.0000 C   0  0  0  0  0  0  0  0  0  0  0  0
    4.0586   -4.0753    0.0000 C   0  0  0  0  0  0  0  0  0  0  0  0
    3.3086   -2.7762    0.0000 C   0  0  0  0  0  0  0  0  0  0  0  0
    2.1595   -1.8121    0.0000 C   0  0  0  0  0  0  0  0  0  0  0  0
    2.9095   -0.5130    0.0000 C   0  0  0  0  0  0  0  0  0  0  0  0
    2.1595    0.7860    0.0000 O   0  0  0  0  0  0  0  0  0  0  0  0
    4.4095   -0.5130    0.0000 N   0  0  0  0  0  0  0  0  0  0  0  0
    5.1595    0.7860    0.0000 C   0  0  0  0  0  0  0  0  0  0  0  0
    6.6595    0.7860    0.0000 N   0  0  0  0  0  0  0  0  0  0  0  0
    7.4095    2.0850    0.0000 N   0  0  0  0  0  0  0  0  0  0  0  0
    6.6595    3.3841    0.0000 N   0  0  0  0  0  0  0  0  0  0  0  0
    5.1595    3.3841    0.0000 N   0  0  0  0  0  0  0  0  0  0  0  0
    4.4095    2.0850    0.0000 N   0  0  0  0  0  0  0  0  0  0  0  0
    0.7500   -1.2990    0.0000 C   0  0  0  0  0  0  0  0  0  0  0  0
    1.5000    0.0000    0.0000 C   0  0  0  0  0  0  0  0  0  0  0  0
    0.7500    1.2990    0.0000 C   0  0  0  0  0  0  0  0  0  0  0  0
   -0.7500    1.2990    0.0000 C   0  0  0  0  0  0  0  0  0  0  0  0
   -1.5000    0.0000    0.0000 C   0  0  0  0  0  0  0  0  0  0  0  0
   -0.7500   -1.2990    0.0000 C   0  0  0  0  0  0  0  0  0  0  0  0
   -2.1595   -1.8121    0.0000 C   0  0  0  0  0  0  0  0  0  0  0  0
   -2.4200   -0.3349    0.0000 C   0  0  0  0  0  0  0  0  0  0  0  0
   -3.8296    0.1782    0.0000 C   0  0  0  0  0  0  0  0  0  0  0  0
   -4.9786   -0.7860    0.0000 C   0  0  0  0  0  0  0  0  0  0  0  0
   -4.7181   -2.2632    0.0000 C   0  0  0  0  0  0  0  0  0  0  0  0
   -3.3086   -2.7762    0.0000 C   0  0  0  0  0  0  0  0  0  0  0  0
   -4.0586   -4.0753    0.0000 C   0  0  0  0  0  0  0  0  0  0  0  0
   -5.2077   -3.1111    0.0000 C   0  0  0  0  0  0  0  0  0  0  0  0
   -6.6172   -3.6241    0.0000 C   0  0  0  0  0  0  0  0  0  0  0  0
   -6.8777   -5.1013    0.0000 C   0  0  0  0  0  0  0  0  0  0  0  0
   -5.7286   -6.0655    0.0000 C   0  0  0  0  0  0  0  0  0  0  0  0
   -4.3191   -5.5525    0.0000 C   0  0  0  0  0  0  0  0  0  0  0  0
   -4.0586   -7.0297    0.0000 C   0  0  0  0  0  0  0  0  0  0  0  0
   -5.5586   -7.0297    0.0000 C   0  0  0  0  0  0  0  0  0  0  0  0
   -6.3086   -8.3287    0.0000 C   0  0  0  0  0  0  0  0  0  0  0  0
   -5.5586   -9.6278    0.0000 C   0  0  0  0  0  0  0  0  0  0  0  0
   -4.0586   -9.6278    0.0000 C   0  0  0  0  0  0  0  0  0  0  0  0
   -3.3086   -8.3287    0.0000 C   0  0  0  0  0  0  0  0  0  0  0  0
   -2.1595   -9.2929    0.0000 C   0  0  0  0  0  0  0  0  0  0  0  0
   -3.3086  -10.2571    0.0000 C   0  0  0  0  0  0  0  0  0  0  0  0
   -3.0481  -11.7343    0.0000 C   0  0  0  0  0  0  0  0  0  0  0  0
   -1.6386  -12.2474    0.0000 C   0  0  0  0  0  0  0  0  0  0  0  0
   -0.4895  -11.2832    0.0000 C   0  0  0  0  0  0  0  0  0  0  0  0
   -0.7500   -9.8060    0.0000 C   0  0  0  0  0  0  0  0  0  0  0  0
    0.7500   -9.8060    0.0000 C   0  0  0  0  0  0  0  0  0  0  0  0
    0.4895  -11.2832    0.0000 C   0  0  0  0  0  0  0  0  0  0  0  0
    1.6386  -12.2474    0.0000 C   0  0  0  0  0  0  0  0  0  0  0  0
    3.0481  -11.7343    0.0000 C   0  0  0  0  0  0  0  0  0  0  0  0
    3.3086  -10.2571    0.0000 C   0  0  0  0  0  0  0  0  0  0  0  0
    2.1595   -9.2929    0.0000 C   0  0  0  0  0  0  0  0  0  0  0  0
    3.3086   -8.3287    0.0000 C   0  0  0  0  0  0  0  0  0  0  0  0
    4.0586   -9.6278    0.0000 C   0  0  0  0  0  0  0  0  0  0  0  0
    5.5586   -9.6278    0.0000 C   0  0  0  0  0  0  0  0  0  0  0  0
    6.3086   -8.3287    0.0000 C   0  0  0  0  0  0  0  0  0  0  0  0
    5.5586   -7.0297    0.0000 C   0  0  0  0  0  0  0  0  0  0  0  0
    4.0586   -7.0297    0.0000 C   0  0  0  0  0  0  0  0  0  0  0  0
  1  2  1  0
  2  3  1  0
  3  4  2  0
  4  5  1  0
  5  6  1  0
  6  7  2  0
  6  8  1  0
  8  9  1  0
  9 10  2  0
 10 11  1  0
 11 12  2  0
 12 13  1  0
 13 14  2  0
  5 15  1  0
 15 16  2  0
 16 17  1  0
 17 18  2  0
 18 19  1  0
 19 20  2  0
 20 21  1  0
 21 22  2  0
 22 23  1  0
 23 24  2  0
 24 25  1  0
 25 26  2  0
 26 27  1  0
 27 28  2  0
 28 29  1  0
 29 30  2  0
 30 31  1  0
 31 32  2  0
 32 33  1  0
 33 34  2  0
 34 35  1  0
 35 36  2  0
 36 37  1  0
 37 38  2  0
 38 39  1  0
 39 40  2  0
 40 41  1  0
 41 42  2  0
 42 43  1  0
 43 44  2  0
 44 45  1  0
 45 46  2  0
 46 47  1  0
 47 48  2  0
 48 49  1  0
 49 50  2  0
 50 51  1  0
 51 52  2  0
 52 53  1  0
 53 54  2  0
 54 55  1  0
 55 56  2  0
 56  2  1  0
 14  9  1  0
 20 15  1  0
 26 21  1  0
 32 27  1  0
 38 33  1  0
 44 39  1  0
 50 45  1  0
 56 51  1  0
M  END
>  <Title>  (650) 
idAAXBgen10

$$$$

     RDKit          2D

 23 25  0  0  0  0  0  0  0  0999 V2000
    4.5000   -2.5981    0.0000 C   0  0  0  0  0  0  0  0  0  0  0  0
    3.7500   -1.2990    0.0000 C   0  0  0  0  0  0  0  0  0  0  0  0
    3.0000    0.0000    0.0000 C   0  0  0  0  0  0  0  0  0  0  0  0
    3.7500    1.2990    0.0000 O   0  0  0  0  0  0  0  0  0  0  0  0
    1.5000    0.0000    0.0000 C   0  0  0  0  0  0  0  0  0  0  0  0
    0.7500   -1.2990    0.0000 C   0  0  0  0  0  0  0  0  0  0  0  0
   -0.7500   -1.2990    0.0000 C   0  0  0  0  0  0  0  0  0  0  0  0
   -1.5000    0.0000    0.0000 C   0  0  0  0  0  0  0  0  0  0  0  0
   -0.7500    1.2990    0.0000 C   0  0  0  0  0  0  0  0  0  0  0  0
    0.7500    1.2990    0.0000 C   0  0  0  0  0  0  0  0  0  0  0  0
    1.5000    2.5981    0.0000 C   0  0  0  0  0  0  0  0  0  0  0  0
    3.0000    2.5981    0.0000 C   0  0  0  0  0  0  0  0  0  0  0  0
    3.7500    3.8971    0.0000 C   0  0  0  0  0  0  0  0  0  0  0  0
    3.0000    5.1962    0.0000 C   0  0  0  0  0  0  0  0  0  0  0  0
    1.5000    5.1962    0.0000 C   0  0  0  0  0  0  0  0  0  0  0  0
    0.7500    3.8971    0.0000 C   0  0  0  0  0  0  0  0  0  0  0  0
   -0.7500    3.8971    0.0000 C   0  0  0  0  0  0  0  0  0  0  0  0
   -1.5000    2.5981    0.0000 C   0  0  0  0  0  0  0  0  0  0  0  0
   -3.0000    2.5981    0.0000 C   0  0  0  0  0  0  0  0  0  0  0  0
   -3.7500    3.8971    0.0000 C   0  0  0  0  0  0  0  0  0  0  0  0
   -3.0000    5.1962    0.0000 C   0  0  0  0  0  0  0  0  0  0  0  0
   -1.5000    5.1962    0.0000 C   0  0  0  0  0  0  0  0  0  0  0  0
   -0.7500    6.4952    0.0000 O   0  0  0  0  0  0  0  0  0  0  0  0
  1  2  3  0
  2  3  1  0
  3  4  2  0
  3  5  1  0
  5  6  2  0
  6  7  1  0
  7  8  2  0
  8  9  1  0
  9 10  2  0
 10 11  1  0
 11 12  2  0
 12 13  1  0
 13 14  2  0
 14 15  1  0
 15 16  2  0
 16 17  1  0
 17 18  2  0
 18 19  1  0
 19 20  2  0
 20 21  1  0
 21 22  2  0
 22 23  1  0
 10  5  1  0
 16 11  1  0
 22 17  1  0
M  END
>  <Title>  (651) 
idAAXCgen10

$$$$

     RDKit          2D

 33 36  0  0  0  0  0  0  0  0999 V2000
   -5.7786    1.9846    0.0000 C   0  0  0  0  0  0  0  0  0  0  0  0
   -7.0914    1.2590    0.0000 C   0  0  0  0  0  0  0  0  0  0  0  0
   -8.3762    2.0332    0.0000 O   0  0  0  0  0  0  0  0  0  0  0  0
   -7.1194   -0.2407    0.0000 N   0  0  0  0  0  0  0  0  0  0  0  0
   -8.4323   -0.9663    0.0000 C   0  0  0  0  0  0  0  0  0  0  0  0
   -9.6556   -0.0983    0.0000 N   0  0  0  0  0  0  0  0  0  0  0  0
  -11.0970   -0.5135    0.0000 N   0  0  0  0  0  0  0  0  0  0  0  0
  -11.6710   -1.8993    0.0000 C   0  0  0  0  0  0  0  0  0  0  0  0
  -10.9454   -3.2122    0.0000 N   0  0  0  0  0  0  0  0  0  0  0  0
  -11.8135   -4.4355    0.0000 C   0  0  0  0  0  0  0  0  0  0  0  0
   -9.4666   -3.4634    0.0000 C   0  0  0  0  0  0  0  0  0  0  0  0
   -9.0514   -4.9048    0.0000 O   0  0  0  0  0  0  0  0  0  0  0  0
   -8.3482   -2.4639    0.0000 C   0  0  0  0  0  0  0  0  0  0  0  0
   -6.9624   -3.0379    0.0000 C   0  0  0  0  0  0  0  0  0  0  0  0
   -5.7723   -2.1248    0.0000 C   0  0  0  0  0  0  0  0  0  0  0  0
   -4.3865   -2.6988    0.0000 C   0  0  0  0  0  0  0  0  0  0  0  0
   -3.1965   -1.7857    0.0000 C   0  0  0  0  0  0  0  0  0  0  0  0
   -1.8107   -2.3597    0.0000 C   0  0  0  0  0  0  0  0  0  0  0  0
   -1.8107   -3.8597    0.0000 C   0  0  0  0  0  0  0  0  0  0  0  0
   -0.7500   -4.9204    0.0000 C   0  0  0  0  0  0  0  0  0  0  0  0
    0.7500   -4.9204    0.0000 C   0  0  0  0  0  0  0  0  0  0  0  0
    1.8107   -3.8597    0.0000 C   0  0  0  0  0  0  0  0  0  0  0  0
    3.2372   -4.3232    0.0000 C   0  0  0  0  0  0  0  0  0  0  0  0
    3.7008   -5.7498    0.0000 C   0  0  0  0  0  0  0  0  0  0  0  0
    4.1189   -3.1097    0.0000 C   0  0  0  0  0  0  0  0  0  0  0  0
    3.2372   -1.8962    0.0000 C   0  0  0  0  0  0  0  0  0  0  0  0
    1.8107   -2.3597    0.0000 C   0  0  0  0  0  0  0  0  0  0  0  0
    0.7500   -1.2990    0.0000 C   0  0  0  0  0  0  0  0  0  0  0  0
    1.5000    0.0000    0.0000 C   0  0  0  0  0  0  0  0  0  0  0  0
    0.7500    1.2990    0.0000 C   0  0  0  0  0  0  0  0  0  0  0  0
   -0.7500    1.2990    0.0000 C   0  0  0  0  0  0  0  0  0  0  0  0
   -1.5000    0.0000    0.0000 C   0  0  0  0  0  0  0  0  0  0  0  0
   -0.7500   -1.2990    0.0000 C   0  0  0  0  0  0  0  0  0  0  0  0
  1  2  1  0
  2  3  2  0
  2  4  1  0
  4  5  1  0
  5  6  2  0
  6  7  1  0
  7  8  2  0
  8  9  1  0
  9 10  1  0
  9 11  1  0
 11 12  2  0
 11 13  1  0
 13 14  2  3
 14 15  1  0
 15 16  2  3
 16 17  1  0
 17 18  2  3
 18 19  1  0
 19 20  2  0
 20 21  1  0
 21 22  2  0
 22 23  1  0
 23 24  1  0
 23 25  2  0
 25 26  1  0
 26 27  2  0
 27 28  1  0
 28 29  2  0
 29 30  1  0
 30 31  2  0
 31 32  1  0
 32 33  2  0
 13  5  1  0
 33 18  1  0
 27 22  1  0
 33 28  1  0
M  END
>  <Title>  (652) 
idAAXDgen10

$$$$

     RDKit          2D

 12 11  0  0  0  0  0  0  0  0999 V2000
    0.0000    0.0000    0.0000 C   0  0  0  0  0  0  0  0  0  0  0  0
   -0.0000   -1.5000    0.0000 C   0  0  0  0  0  0  0  0  0  0  0  0
   -0.0000   -3.0000    0.0000 C   0  0  0  0  0  0  0  0  0  0  0  0
   -0.0000   -4.5000    0.0000 C   0  0  0  0  0  0  0  0  0  0  0  0
   -0.0000   -6.0000    0.0000 C   0  0  0  0  0  0  0  0  0  0  0  0
   -0.0000   -7.5000    0.0000 C   0  0  0  0  0  0  0  0  0  0  0  0
   -0.0000   -9.0000    0.0000 C   0  0  0  0  0  0  0  0  0  0  0  0
   -0.0000  -10.5000    0.0000 C   0  0  0  0  0  0  0  0  0  0  0  0
   -0.0000  -12.0000    0.0000 C   0  0  0  0  0  0  0  0  0  0  0  0
    1.2990  -12.7500    0.0000 C   0  0  0  0  0  0  0  0  0  0  0  0
    1.2990  -14.2500    0.0000 C   0  0  0  0  0  0  0  0  0  0  0  0
    2.5981  -15.0000    0.0000 C   0  0  0  0  0  0  0  0  0  0  0  0
  1  2  3  0
  2  3  1  0
  3  4  3  0
  4  5  1  0
  5  6  3  0
  6  7  1  0
  7  8  3  0
  8  9  1  0
  9 10  1  0
 10 11  2  3
 11 12  1  0
M  END
>  <Title>  (653) 
idAAXEgen10

$$$$

     RDKit          2D

 13 13  0  0  0  0  0  0  0  0999 V2000
    8.2500   -6.4952    0.0000 C   0  0  0  0  0  0  0  0  0  0  0  0
    7.5000   -5.1962    0.0000 C   0  0  0  0  0  0  0  0  0  0  0  0
    6.7500   -3.8971    0.0000 C   0  0  0  0  0  0  0  0  0  0  0  0
    6.0000   -2.5981    0.0000 C   0  0  0  0  0  0  0  0  0  0  0  0
    5.2500   -1.2990    0.0000 C   0  0  0  0  0  0  0  0  0  0  0  0
    3.7500   -1.2990    0.0000 C   0  0  0  0  0  0  0  0  0  0  0  0
    3.0000    0.0000    0.0000 C   0  0  0  0  0  0  0  0  0  0  0  0
    1.5000    0.0000    0.0000 C   0  0  0  0  0  0  0  0  0  0  0  0
    0.7500   -1.2990    0.0000 C   0  0  0  0  0  0  0  0  0  0  0  0
   -0.7500   -1.2990    0.0000 C   0  0  0  0  0  0  0  0  0  0  0  0
   -1.5000    0.0000    0.0000 C   0  0  0  0  0  0  0  0  0  0  0  0
   -0.7500    1.2990    0.0000 C   0  0  0  0  0  0  0  0  0  0  0  0
    0.7500    1.2990    0.0000 C   0  0  0  0  0  0  0  0  0  0  0  0
  1  2  3  0
  2  3  1  0
  3  4  3  0
  4  5  1  0
  5  6  1  0
  6  7  1  0
  7  8  1  0
  8  9  2  0
  9 10  1  0
 10 11  2  0
 11 12  1  0
 12 13  2  0
 13  8  1  0
M  END
>  <Title>  (654) 
idAAXFgen10

$$$$

     RDKit          2D

 11 12  0  0  0  0  0  0  0  0999 V2000
   -4.7084   -3.0832    0.0000 C   0  0  0  0  0  0  0  0  0  0  0  0
   -3.2595   -3.4715    0.0000 C   0  0  0  0  0  0  0  0  0  0  0  0
   -1.8107   -3.8597    0.0000 C   0  0  0  0  0  0  0  0  0  0  0  0
   -0.7500   -2.7990    0.0000 C   0  0  0  0  0  0  0  0  0  0  0  0
    0.7500   -2.7990    0.0000 C   0  0  0  0  0  0  0  0  0  0  0  0
    0.7500   -1.2990    0.0000 C   0  0  0  0  0  0  0  0  0  0  0  0
    1.5000    0.0000    0.0000 C   0  0  0  0  0  0  0  0  0  0  0  0
    0.7500    1.2990    0.0000 C   0  0  0  0  0  0  0  0  0  0  0  0
   -0.7500    1.2990    0.0000 C   0  0  0  0  0  0  0  0  0  0  0  0
   -1.5000    0.0000    0.0000 C   0  0  0  0  0  0  0  0  0  0  0  0
   -0.7500   -1.2990    0.0000 C   0  0  0  0  0  0  0  0  0  0  0  0
  1  2  3  0
  2  3  1  0
  3  4  1  0
  4  5  1  0
  5  6  1  0
  6  7  2  0
  7  8  1  0
  8  9  2  0
  9 10  1  0
 10 11  2  0
 11  4  1  0
 11  6  1  0
M  END
>  <Title>  (655) 
idAAXGgen10

$$$$

     RDKit          2D

 95 96  0  0  0  0  0  0  0  0999 V2000
   -2.1739   -1.0809    0.0000 C   0  0  0  0  0  0  0  0  0  0  0  0
   -2.4875    0.3860    0.0000 C   0  0  0  0  0  0  0  0  0  0  0  0
   -3.9643    0.1233    0.0000 C   0  0  0  0  0  0  0  0  0  0  0  0
   -5.4557   -0.0370    0.0000 C   0  0  0  0  0  0  0  0  0  0  0  0
   -6.9546   -0.0939    0.0000 C   0  0  0  0  0  0  0  0  0  0  0  0
   -8.4539   -0.0473    0.0000 C   0  0  0  0  0  0  0  0  0  0  0  0
   -9.9464    0.1026    0.0000 C   0  0  0  0  0  0  0  0  0  0  0  0
  -11.4250    0.3551    0.0000 C   0  0  0  0  0  0  0  0  0  0  0  0
  -12.8826    0.7091    0.0000 C   0  0  0  0  0  0  0  0  0  0  0  0
  -14.3123    1.1628    0.0000 C   0  0  0  0  0  0  0  0  0  0  0  0
  -15.7074    1.7140    0.0000 C   0  0  0  0  0  0  0  0  0  0  0  0
  -17.0611    2.3601    0.0000 C   0  0  0  0  0  0  0  0  0  0  0  0
  -18.3670    3.0981    0.0000 C   0  0  0  0  0  0  0  0  0  0  0  0
  -19.6188    3.9245    0.0000 C   0  0  0  0  0  0  0  0  0  0  0  0
  -20.8107    4.8352    0.0000 C   0  0  0  0  0  0  0  0  0  0  0  0
  -21.9369    5.8260    0.0000 C   0  0  0  0  0  0  0  0  0  0  0  0
  -22.9920    6.8922    0.0000 C   0  0  0  0  0  0  0  0  0  0  0  0
  -23.9711    8.0286    0.0000 C   0  0  0  0  0  0  0  0  0  0  0  0
  -24.8695    9.2298    0.0000 C   0  0  0  0  0  0  0  0  0  0  0  0
  -25.6828   10.4902    0.0000 C   0  0  0  0  0  0  0  0  0  0  0  0
  -26.4073   11.8036    0.0000 C   0  0  0  0  0  0  0  0  0  0  0  0
  -27.0394   13.1639    0.0000 C   0  0  0  0  0  0  0  0  0  0  0  0
  -27.5761   14.5646    0.0000 C   0  0  0  0  0  0  0  0  0  0  0  0
  -28.0149   15.9990    0.0000 C   0  0  0  0  0  0  0  0  0  0  0  0
  -28.3538   17.4602    0.0000 C   0  0  0  0  0  0  0  0  0  0  0  0
  -28.5910   18.9413    0.0000 C   0  0  0  0  0  0  0  0  0  0  0  0
  -28.7254   20.4353    0.0000 C   0  0  0  0  0  0  0  0  0  0  0  0
  -28.7565   21.9350    0.0000 C   0  0  0  0  0  0  0  0  0  0  0  0
  -28.6840   23.4332    0.0000 C   0  0  0  0  0  0  0  0  0  0  0  0
  -28.5084   24.9229    0.0000 C   0  0  0  0  0  0  0  0  0  0  0  0
  -28.2304   26.3969    0.0000 C   0  0  0  0  0  0  0  0  0  0  0  0
  -27.8513   27.8482    0.0000 C   0  0  0  0  0  0  0  0  0  0  0  0
  -27.3730   29.2699    0.0000 C   0  0  0  0  0  0  0  0  0  0  0  0
  -26.7978   30.6553    0.0000 C   0  0  0  0  0  0  0  0  0  0  0  0
  -26.1284   31.9976    0.0000 C   0  0  0  0  0  0  0  0  0  0  0  0
  -25.3679   33.2906    0.0000 C   0  0  0  0  0  0  0  0  0  0  0  0
  -24.5201   34.5280    0.0000 C   0  0  0  0  0  0  0  0  0  0  0  0
  -23.5889   35.7039    0.0000 C   0  0  0  0  0  0  0  0  0  0  0  0
  -22.5788   36.8129    0.0000 C   0  0  0  0  0  0  0  0  0  0  0  0
  -21.4946   37.8494    0.0000 C   0  0  0  0  0  0  0  0  0  0  0  0
  -20.3415   38.8088    0.0000 C   0  0  0  0  0  0  0  0  0  0  0  0
  -19.1250   39.6863    0.0000 C   0  0  0  0  0  0  0  0  0  0  0  0
  -17.8508   40.4777    0.0000 C   0  0  0  0  0  0  0  0  0  0  0  0
  -16.5250   41.1794    0.0000 C   0  0  0  0  0  0  0  0  0  0  0  0
  -15.1540   41.7879    0.0000 C   0  0  0  0  0  0  0  0  0  0  0  0
  -13.7442   42.3004    0.0000 C   0  0  0  0  0  0  0  0  0  0  0  0
  -12.3025   42.7144    0.0000 C   0  0  0  0  0  0  0  0  0  0  0  0
  -10.8356   43.0280    0.0000 C   0  0  0  0  0  0  0  0  0  0  0  0
   -9.3506   43.2396    0.0000 C   0  0  0  0  0  0  0  0  0  0  0  0
   -7.8546   43.3482    0.0000 C   0  0  0  0  0  0  0  0  0  0  0  0
   -6.3546   43.3534    0.0000 C   0  0  0  0  0  0  0  0  0  0  0  0
   -4.8578   43.2551    0.0000 C   0  0  0  0  0  0  0  0  0  0  0  0
   -3.3714   43.0537    0.0000 C   0  0  0  0  0  0  0  0  0  0  0  0
   -1.9024   42.7503    0.0000 C   0  0  0  0  0  0  0  0  0  0  0  0
   -0.4578   42.3463    0.0000 C   0  0  0  0  0  0  0  0  0  0  0  0
    0.9554   41.8435    0.0000 C   0  0  0  0  0  0  0  0  0  0  0  0
    2.3306   41.2445    0.0000 C   0  0  0  0  0  0  0  0  0  0  0  0
    3.6612   40.5520    0.0000 C   0  0  0  0  0  0  0  0  0  0  0  0
    4.9408   39.7693    0.0000 C   0  0  0  0  0  0  0  0  0  0  0  0
    6.1634   38.9003    0.0000 C   0  0  0  0  0  0  0  0  0  0  0  0
    7.3231   37.9489    0.0000 C   0  0  0  0  0  0  0  0  0  0  0  0
    8.4144   36.9199    0.0000 C   0  0  0  0  0  0  0  0  0  0  0  0
    9.4322   35.8179    0.0000 C   0  0  0  0  0  0  0  0  0  0  0  0
   10.3714   34.6484    0.0000 C   0  0  0  0  0  0  0  0  0  0  0  0
   11.2278   33.4169    0.0000 C   0  0  0  0  0  0  0  0  0  0  0  0
   11.9972   32.1292    0.0000 C   0  0  0  0  0  0  0  0  0  0  0  0
   12.6758   30.7915    0.0000 C   0  0  0  0  0  0  0  0  0  0  0  0
   13.2606   29.4102    0.0000 C   0  0  0  0  0  0  0  0  0  0  0  0
   13.7487   27.9918    0.0000 C   0  0  0  0  0  0  0  0  0  0  0  0
   14.1377   26.5432    0.0000 C   0  0  0  0  0  0  0  0  0  0  0  0
   14.4259   25.0711    0.0000 C   0  0  0  0  0  0  0  0  0  0  0  0
   14.6119   23.5827    0.0000 C   0  0  0  0  0  0  0  0  0  0  0  0
   14.6947   22.0850    0.0000 C   0  0  0  0  0  0  0  0  0  0  0  0
   14.6740   20.5851    0.0000 C   0  0  0  0  0  0  0  0  0  0  0  0
   14.5498   19.0903    0.0000 C   0  0  0  0  0  0  0  0  0  0  0  0
   14.3229   17.6075    0.0000 C   0  0  0  0  0  0  0  0  0  0  0  0
   13.9941   16.1440    0.0000 C   0  0  0  0  0  0  0  0  0  0  0  0
   13.5652   14.7066    0.0000 C   0  0  0  0  0  0  0  0  0  0  0  0
   13.0381   13.3023    0.0000 C   0  0  0  0  0  0  0  0  0  0  0  0
   12.4155   11.9376    0.0000 C   0  0  0  0  0  0  0  0  0  0  0  0
   11.7001   10.6192    0.0000 C   0  0  0  0  0  0  0  0  0  0  0  0
   10.8955    9.3533    0.0000 C   0  0  0  0  0  0  0  0  0  0  0  0
   10.0054    8.1459    0.0000 C   0  0  0  0  0  0  0  0  0  0  0  0
    9.0342    7.0027    0.0000 C   0  0  0  0  0  0  0  0  0  0  0  0
    7.9865    5.9293    0.0000 C   0  0  0  0  0  0  0  0  0  0  0  0
    6.8671    4.9308    0.0000 C   0  0  0  0  0  0  0  0  0  0  0  0
    5.6816    4.0118    0.0000 C   0  0  0  0  0  0  0  0  0  0  0  0
    4.4355    3.1769    0.0000 C   0  0  0  0  0  0  0  0  0  0  0  0
    3.1347    2.4299    0.0000 C   0  0  0  0  0  0  0  0  0  0  0  0
    1.7855    1.7744    0.0000 C   0  0  0  0  0  0  0  0  0  0  0  0
    0.3943    1.2135    0.0000 C   0  0  0  0  0  0  0  0  0  0  0  0
    1.2760    0.0000    0.0000 C   0  0  0  0  0  0  0  0  0  0  0  0
    0.3943   -1.2135    0.0000 C   0  0  0  0  0  0  0  0  0  0  0  0
   -1.0323   -0.7500    0.0000 C   0  0  0  0  0  0  0  0  0  0  0  0
   -1.0323    0.7500    0.0000 C   0  0  0  0  0  0  0  0  0  0  0  0
  1  2  1  0
  2  3  1  0
  3  4  1  0
  4  5  1  0
  5  6  1  0
  6  7  1  0
  7  8  1  0
  8  9  1  0
  9 10  1  0
 10 11  1  0
 11 12  1  0
 12 13  1  0
 13 14  1  0
 14 15  1  0
 15 16  1  0
 16 17  1  0
 17 18  1  0
 18 19  1  0
 19 20  1  0
 20 21  1  0
 21 22  1  0
 22 23  1  0
 23 24  1  0
 24 25  1  0
 25 26  1  0
 26 27  1  0
 27 28  1  0
 28 29  1  0
 29 30  1  0
 30 31  1  0
 31 32  1  0
 32 33  1  0
 33 34  1  0
 34 35  1  0
 35 36  1  0
 36 37  1  0
 37 38  1  0
 38 39  1  0
 39 40  1  0
 40 41  1  0
 41 42  1  0
 42 43  1  0
 43 44  1  0
 44 45  1  0
 45 46  1  0
 46 47  1  0
 47 48  1  0
 48 49  1  0
 49 50  1  0
 50 51  1  0
 51 52  1  0
 52 53  1  0
 53 54  1  0
 54 55  1  0
 55 56  1  0
 56 57  1  0
 57 58  1  0
 58 59  1  0
 59 60  1  0
 60 61  1  0
 61 62  1  0
 62 63  1  0
 63 64  1  0
 64 65  1  0
 65 66  1  0
 66 67  1  0
 67 68  1  0
 68 69  1  0
 69 70  1  0
 70 71  1  0
 71 72  1  0
 72 73  1  0
 73 74  1  0
 74 75  1  0
 75 76  1  0
 76 77  1  0
 77 78  1  0
 78 79  1  0
 79 80  1  0
 80 81  1  0
 81 82  1  0
 82 83  2  0
 83 84  1  0
 84 85  2  0
 85 86  1  0
 86 87  2  0
 87 88  1  0
 88 89  2  0
 89 90  1  0
 90 91  2  0
 91 92  1  0
 92 93  2  0
 93 94  1  0
 94 95  2  0
 95  2  1  0
 95 91  1  0
M  END
>  <Title>  (656) 
idAAXHgen10

$$$$

     RDKit          2D

 10 10  0  0  0  0  0  0  0  0999 V2000
    4.5000    2.5981    0.0000 C   0  0  0  0  0  0  0  0  0  0  0  0
    3.7500    1.2990    0.0000 C   0  0  0  0  0  0  0  0  0  0  0  0
    3.0000    0.0000    0.0000 C   0  0  0  0  0  0  0  0  0  0  0  0
    3.7500   -1.2990    0.0000 C   0  0  0  0  0  0  0  0  0  0  0  0
    1.5000    0.0000    0.0000 C   0  0  0  0  0  0  0  0  0  0  0  0
    0.7500   -1.2990    0.0000 C   0  0  0  0  0  0  0  0  0  0  0  0
   -0.7500   -1.2990    0.0000 C   0  0  0  0  0  0  0  0  0  0  0  0
   -1.5000    0.0000    0.0000 C   0  0  0  0  0  0  0  0  0  0  0  0
   -0.7500    1.2990    0.0000 C   0  0  0  0  0  0  0  0  0  0  0  0
    0.7500    1.2990    0.0000 C   0  0  0  0  0  0  0  0  0  0  0  0
  1  2  3  0
  2  3  1  0
  3  4  2  0
  3  5  1  0
  5  6  2  0
  6  7  1  0
  7  8  2  0
  8  9  1  0
  9 10  2  0
 10  5  1  0
M  END
>  <Title>  (657) 
idAAXIgen10

$$$$

     RDKit          2D

 11 11  0  0  0  0  0  0  0  0999 V2000
    7.2760   -0.0000    0.0000 C   0  0  0  0  0  0  0  0  0  0  0  0
    5.7760   -0.0000    0.0000 C   0  0  0  0  0  0  0  0  0  0  0  0
    4.2760   -0.0000    0.0000 C   0  0  0  0  0  0  0  0  0  0  0  0
    2.7760    0.0000    0.0000 C   0  0  0  0  0  0  0  0  0  0  0  0
    1.2760    0.0000    0.0000 C   0  0  0  0  0  0  0  0  0  0  0  0
    0.3943    1.2135    0.0000 C   0  0  0  0  0  0  0  0  0  0  0  0
   -1.0323    0.7500    0.0000 C   0  0  0  0  0  0  0  0  0  0  0  0
   -2.2458    1.6317    0.0000 C   0  0  0  0  0  0  0  0  0  0  0  0
   -1.0323   -0.7500    0.0000 C   0  0  0  0  0  0  0  0  0  0  0  0
   -2.2458   -1.6317    0.0000 O   0  0  0  0  0  0  0  0  0  0  0  0
    0.3943   -1.2135    0.0000 C   0  0  0  0  0  0  0  0  0  0  0  0
  1  2  3  0
  2  3  1  0
  3  4  3  0
  4  5  1  0
  5  6  2  0
  6  7  1  0
  7  8  1  0
  7  9  1  0
  9 10  2  0
  9 11  1  0
 11  5  1  0
M  END
>  <Title>  (658) 
idAAXJgen10

$$$$

     RDKit          2D

  9  9  0  0  0  0  0  0  0  0999 V2000
    7.2760   -0.0000    0.0000 C   0  0  0  0  0  0  0  0  0  0  0  0
    5.7760   -0.0000    0.0000 C   0  0  0  0  0  0  0  0  0  0  0  0
    4.2760   -0.0000    0.0000 C   0  0  0  0  0  0  0  0  0  0  0  0
    2.7760    0.0000    0.0000 C   0  0  0  0  0  0  0  0  0  0  0  0
    1.2760    0.0000    0.0000 C   0  0  0  0  0  0  0  0  0  0  0  0
    0.3943    1.2135    0.0000 C   0  0  0  0  0  0  0  0  0  0  0  0
   -1.0323    0.7500    0.0000 C   0  0  0  0  0  0  0  0  0  0  0  0
   -1.0323   -0.7500    0.0000 C   0  0  0  0  0  0  0  0  0  0  0  0
    0.3943   -1.2135    0.0000 C   0  0  0  0  0  0  0  0  0  0  0  0
  1  2  3  0
  2  3  1  0
  3  4  3  0
  4  5  1  0
  5  6  2  0
  6  7  1  0
  7  8  1  0
  8  9  2  0
  9  5  1  0
M  END
>  <Title>  (659) 
idAAXKgen10

$$$$

     RDKit          2D

  9  9  0  0  0  0  0  0  0  0999 V2000
    3.2286   -0.0000    0.0000 C   0  0  0  0  0  0  0  0  0  0  0  0
    1.7286    0.0000    0.0000 C   0  0  0  0  0  0  0  0  0  0  0  0
    1.0777    1.3515    0.0000 C   0  0  0  0  0  0  0  0  0  0  0  0
   -0.3846    1.6852    0.0000 C   0  0  0  0  0  0  0  0  0  0  0  0
   -1.5574    0.7500    0.0000 C   0  0  0  0  0  0  0  0  0  0  0  0
   -1.5574   -0.7500    0.0000 C   0  0  0  0  0  0  0  0  0  0  0  0
   -0.3846   -1.6852    0.0000 C   0  0  0  0  0  0  0  0  0  0  0  0
   -0.7184   -3.1476    0.0000 C   0  0  0  0  0  0  0  0  0  0  0  0
    1.0777   -1.3515    0.0000 N   0  0  0  0  0  0  0  0  0  0  0  0
  1  2  1  0
  2  3  1  0
  3  4  1  0
  4  5  1  0
  5  6  1  0
  6  7  1  0
  7  8  1  0
  7  9  1  0
  9  2  1  0
M  END
>  <Title>  (660) 
idAAXLgen10

$$$$

     RDKit          2D

 81 82  0  0  0  0  0  0  0  0999 V2000
   -2.2060   -1.0682    0.0000 C   0  0  0  0  0  0  0  0  0  0  0  0
   -2.4919    0.4043    0.0000 C   0  0  0  0  0  0  0  0  0  0  0  0
   -3.9748    0.1787    0.0000 C   0  0  0  0  0  0  0  0  0  0  0  0
   -5.4712    0.0748    0.0000 C   0  0  0  0  0  0  0  0  0  0  0  0
   -6.9711    0.0931    0.0000 C   0  0  0  0  0  0  0  0  0  0  0  0
   -8.4645    0.2337    0.0000 C   0  0  0  0  0  0  0  0  0  0  0  0
   -9.9415    0.4955    0.0000 C   0  0  0  0  0  0  0  0  0  0  0  0
  -11.3922    0.8768    0.0000 C   0  0  0  0  0  0  0  0  0  0  0  0
  -12.8070    1.3751    0.0000 C   0  0  0  0  0  0  0  0  0  0  0  0
  -14.1765    1.9871    0.0000 C   0  0  0  0  0  0  0  0  0  0  0  0
  -15.4916    2.7086    0.0000 C   0  0  0  0  0  0  0  0  0  0  0  0
  -16.7434    3.5350    0.0000 C   0  0  0  0  0  0  0  0  0  0  0  0
  -17.9238    4.4606    0.0000 C   0  0  0  0  0  0  0  0  0  0  0  0
  -19.0247    5.4794    0.0000 C   0  0  0  0  0  0  0  0  0  0  0  0
  -20.0390    6.5845    0.0000 C   0  0  0  0  0  0  0  0  0  0  0  0
  -20.9598    7.7686    0.0000 C   0  0  0  0  0  0  0  0  0  0  0  0
  -21.7810    9.0238    0.0000 C   0  0  0  0  0  0  0  0  0  0  0  0
  -22.4972   10.3418    0.0000 C   0  0  0  0  0  0  0  0  0  0  0  0
  -23.1036   11.7138    0.0000 C   0  0  0  0  0  0  0  0  0  0  0  0
  -23.5961   13.1306    0.0000 C   0  0  0  0  0  0  0  0  0  0  0  0
  -23.9715   14.5829    0.0000 C   0  0  0  0  0  0  0  0  0  0  0  0
  -24.2273   16.0609    0.0000 C   0  0  0  0  0  0  0  0  0  0  0  0
  -24.3618   17.5549    0.0000 C   0  0  0  0  0  0  0  0  0  0  0  0
  -24.3740   19.0548    0.0000 C   0  0  0  0  0  0  0  0  0  0  0  0
  -24.2640   20.5508    0.0000 C   0  0  0  0  0  0  0  0  0  0  0  0
  -24.0323   22.0328    0.0000 C   0  0  0  0  0  0  0  0  0  0  0  0
  -23.6807   23.4910    0.0000 C   0  0  0  0  0  0  0  0  0  0  0  0
  -23.2113   24.9157    0.0000 C   0  0  0  0  0  0  0  0  0  0  0  0
  -22.6274   26.2973    0.0000 C   0  0  0  0  0  0  0  0  0  0  0  0
  -21.9328   27.6268    0.0000 C   0  0  0  0  0  0  0  0  0  0  0  0
  -21.1322   28.8953    0.0000 C   0  0  0  0  0  0  0  0  0  0  0  0
  -20.2308   30.0943    0.0000 C   0  0  0  0  0  0  0  0  0  0  0  0
  -19.2347   31.2158    0.0000 C   0  0  0  0  0  0  0  0  0  0  0  0
  -18.1506   32.2524    0.0000 C   0  0  0  0  0  0  0  0  0  0  0  0
  -16.9855   33.1972    0.0000 C   0  0  0  0  0  0  0  0  0  0  0  0
  -15.7473   34.0438    0.0000 C   0  0  0  0  0  0  0  0  0  0  0  0
  -14.4442   34.7867    0.0000 C   0  0  0  0  0  0  0  0  0  0  0  0
  -13.0849   35.4210    0.0000 C   0  0  0  0  0  0  0  0  0  0  0  0
  -11.6784   35.9423    0.0000 C   0  0  0  0  0  0  0  0  0  0  0  0
  -10.2341   36.3473    0.0000 C   0  0  0  0  0  0  0  0  0  0  0  0
   -8.7616   36.6331    0.0000 C   0  0  0  0  0  0  0  0  0  0  0  0
   -7.2706   36.7980    0.0000 C   0  0  0  0  0  0  0  0  0  0  0  0
   -5.7713   36.8409    0.0000 C   0  0  0  0  0  0  0  0  0  0  0  0
   -4.2734   36.7614    0.0000 C   0  0  0  0  0  0  0  0  0  0  0  0
   -2.7869   36.5600    0.0000 C   0  0  0  0  0  0  0  0  0  0  0  0
   -1.3219   36.2382    0.0000 C   0  0  0  0  0  0  0  0  0  0  0  0
    0.1121   35.7980    0.0000 C   0  0  0  0  0  0  0  0  0  0  0  0
    1.5054   35.2424    0.0000 C   0  0  0  0  0  0  0  0  0  0  0  0
    2.8488   34.5751    0.0000 C   0  0  0  0  0  0  0  0  0  0  0  0
    4.1333   33.8005    0.0000 C   0  0  0  0  0  0  0  0  0  0  0  0
    5.3504   32.9238    0.0000 C   0  0  0  0  0  0  0  0  0  0  0  0
    6.4920   31.9507    0.0000 C   0  0  0  0  0  0  0  0  0  0  0  0
    7.5505   30.8879    0.0000 C   0  0  0  0  0  0  0  0  0  0  0  0
    8.5189   29.7424    0.0000 C   0  0  0  0  0  0  0  0  0  0  0  0
    9.3906   28.5217    0.0000 C   0  0  0  0  0  0  0  0  0  0  0  0
   10.1599   27.2340    0.0000 C   0  0  0  0  0  0  0  0  0  0  0  0
   10.8218   25.8879    0.0000 C   0  0  0  0  0  0  0  0  0  0  0  0
   11.3717   24.4923    0.0000 C   0  0  0  0  0  0  0  0  0  0  0  0
   11.8060   23.0566    0.0000 C   0  0  0  0  0  0  0  0  0  0  0  0
   12.1219   21.5902    0.0000 C   0  0  0  0  0  0  0  0  0  0  0  0
   12.3172   20.1030    0.0000 C   0  0  0  0  0  0  0  0  0  0  0  0
   12.3906   18.6048    0.0000 C   0  0  0  0  0  0  0  0  0  0  0  0
   12.3416   17.1056    0.0000 C   0  0  0  0  0  0  0  0  0  0  0  0
   12.1706   15.6154    0.0000 C   0  0  0  0  0  0  0  0  0  0  0  0
   11.8787   14.1440    0.0000 C   0  0  0  0  0  0  0  0  0  0  0  0
   11.4679   12.7014    0.0000 C   0  0  0  0  0  0  0  0  0  0  0  0
   10.9408   11.2971    0.0000 C   0  0  0  0  0  0  0  0  0  0  0  0
   10.3011    9.9403    0.0000 C   0  0  0  0  0  0  0  0  0  0  0  0
    9.5528    8.6403    0.0000 C   0  0  0  0  0  0  0  0  0  0  0  0
    8.7011    7.4055    0.0000 C   0  0  0  0  0  0  0  0  0  0  0  0
    7.7516    6.2443    0.0000 C   0  0  0  0  0  0  0  0  0  0  0  0
    6.7106    5.1644    0.0000 C   0  0  0  0  0  0  0  0  0  0  0  0
    5.5850    4.1729    0.0000 C   0  0  0  0  0  0  0  0  0  0  0  0
    4.3824    3.2764    0.0000 C   0  0  0  0  0  0  0  0  0  0  0  0
    3.1107    2.4809    0.0000 C   0  0  0  0  0  0  0  0  0  0  0  0
    1.7784    1.7918    0.0000 C   0  0  0  0  0  0  0  0  0  0  0  0
    0.3943    1.2135    0.0000 C   0  0  0  0  0  0  0  0  0  0  0  0
    1.2760    0.0000    0.0000 C   0  0  0  0  0  0  0  0  0  0  0  0
    0.3943   -1.2135    0.0000 C   0  0  0  0  0  0  0  0  0  0  0  0
   -1.0323   -0.7500    0.0000 C   0  0  0  0  0  0  0  0  0  0  0  0
   -1.0323    0.7500    0.0000 C   0  0  0  0  0  0  0  0  0  0  0  0
  1  2  1  0
  2  3  1  0
  3  4  1  0
  4  5  1  0
  5  6  1  0
  6  7  1  0
  7  8  1  0
  8  9  1  0
  9 10  1  0
 10 11  1  0
 11 12  1  0
 12 13  1  0
 13 14  1  0
 14 15  1  0
 15 16  1  0
 16 17  1  0
 17 18  1  0
 18 19  1  0
 19 20  1  0
 20 21  1  0
 21 22  1  0
 22 23  1  0
 23 24  1  0
 24 25  1  0
 25 26  1  0
 26 27  1  0
 27 28  1  0
 28 29  1  0
 29 30  1  0
 30 31  1  0
 31 32  1  0
 32 33  1  0
 33 34  1  0
 34 35  1  0
 35 36  1  0
 36 37  1  0
 37 38  1  0
 38 39  1  0
 39 40  1  0
 40 41  1  0
 41 42  1  0
 42 43  1  0
 43 44  1  0
 44 45  1  0
 45 46  1  0
 46 47  1  0
 47 48  1  0
 48 49  1  0
 49 50  1  0
 50 51  1  0
 51 52  1  0
 52 53  1  0
 53 54  1  0
 54 55  1  0
 55 56  1  0
 56 57  1  0
 57 58  1  0
 58 59  1  0
 59 60  1  0
 60 61  1  0
 61 62  1  0
 62 63  2  0
 63 64  1  0
 64 65  2  0
 65 66  1  0
 66 67  2  0
 67 68  1  0
 68 69  2  0
 69 70  1  0
 70 71  2  0
 71 72  1  0
 72 73  2  0
 73 74  1  0
 74 75  2  0
 75 76  1  0
 76 77  2  0
 77 78  1  0
 78 79  2  0
 79 80  1  0
 80 81  2  0
 81  2  1  0
 81 77  1  0
M  END
>  <Title>  (661) 
idAAXMgen10

$$$$

     RDKit          2D

 11 11  0  0  0  0  0  0  0  0999 V2000
    4.0607   -2.5981    0.0000 C   0  0  0  0  0  0  0  0  0  0  0  0
    3.3107   -1.2990    0.0000 C   0  0  0  0  0  0  0  0  0  0  0  0
    2.5607    0.0000    0.0000 C   0  0  0  0  0  0  0  0  0  0  0  0
    3.3107    1.2990    0.0000 O   0  0  0  0  0  0  0  0  0  0  0  0
    1.0607    0.0000    0.0000 C   0  0  0  0  0  0  0  0  0  0  0  0
   -0.0000   -1.0607    0.0000 C   0  0  0  0  0  0  0  0  0  0  0  0
   -0.0000   -2.5607    0.0000 C   0  0  0  0  0  0  0  0  0  0  0  0
   -1.0607    0.0000    0.0000 C   0  0  0  0  0  0  0  0  0  0  0  0
   -2.5607    0.0000    0.0000 O   0  0  0  0  0  0  0  0  0  0  0  0
    0.0000    1.0607    0.0000 C   0  0  0  0  0  0  0  0  0  0  0  0
    0.0000    2.5607    0.0000 O   0  0  0  0  0  0  0  0  0  0  0  0
  1  2  3  0
  2  3  1  0
  3  4  2  0
  3  5  1  0
  5  6  2  0
  6  7  1  0
  6  8  1  0
  8  9  1  0
  8 10  1  0
 10 11  1  0
 10  5  1  0
M  END
>  <Title>  (662) 
idAAXNgen10

$$$$

     RDKit          2D

110113  0  0  0  0  0  0  0  0999 V2000
   -8.0287    3.4844    0.0000 C   0  0  0  0  0  0  0  0  0  0  0  0
   -7.2012    4.7355    0.0000 C   0  0  0  0  0  0  0  0  0  0  0  0
   -8.4246    5.6035    0.0000 C   0  0  0  0  0  0  0  0  0  0  0  0
   -9.5885    6.5496    0.0000 C   0  0  0  0  0  0  0  0  0  0  0  0
  -10.6881    7.5699    0.0000 C   0  0  0  0  0  0  0  0  0  0  0  0
  -11.7186    8.6599    0.0000 C   0  0  0  0  0  0  0  0  0  0  0  0
  -12.6756    9.8149    0.0000 C   0  0  0  0  0  0  0  0  0  0  0  0
  -13.5550   11.0301    0.0000 C   0  0  0  0  0  0  0  0  0  0  0  0
  -14.3530   12.3002    0.0000 C   0  0  0  0  0  0  0  0  0  0  0  0
  -15.0663   13.6198    0.0000 C   0  0  0  0  0  0  0  0  0  0  0  0
  -15.6918   14.9831    0.0000 C   0  0  0  0  0  0  0  0  0  0  0  0
  -16.2267   16.3845    0.0000 C   0  0  0  0  0  0  0  0  0  0  0  0
  -16.6688   17.8179    0.0000 C   0  0  0  0  0  0  0  0  0  0  0  0
  -17.0163   19.2771    0.0000 C   0  0  0  0  0  0  0  0  0  0  0  0
  -17.2675   20.7559    0.0000 C   0  0  0  0  0  0  0  0  0  0  0  0
  -17.4215   22.2480    0.0000 C   0  0  0  0  0  0  0  0  0  0  0  0
  -17.4776   23.7469    0.0000 C   0  0  0  0  0  0  0  0  0  0  0  0
  -17.4355   25.2463    0.0000 C   0  0  0  0  0  0  0  0  0  0  0  0
  -17.2955   26.7398    0.0000 C   0  0  0  0  0  0  0  0  0  0  0  0
  -17.0581   28.2209    0.0000 C   0  0  0  0  0  0  0  0  0  0  0  0
  -16.7243   29.6832    0.0000 C   0  0  0  0  0  0  0  0  0  0  0  0
  -16.2956   31.1207    0.0000 C   0  0  0  0  0  0  0  0  0  0  0  0
  -15.7738   32.5270    0.0000 C   0  0  0  0  0  0  0  0  0  0  0  0
  -15.1611   33.8962    0.0000 C   0  0  0  0  0  0  0  0  0  0  0  0
  -14.4602   35.2223    0.0000 C   0  0  0  0  0  0  0  0  0  0  0  0
  -13.6741   36.4998    0.0000 C   0  0  0  0  0  0  0  0  0  0  0  0
  -12.8061   37.7232    0.0000 C   0  0  0  0  0  0  0  0  0  0  0  0
  -11.8599   38.8871    0.0000 C   0  0  0  0  0  0  0  0  0  0  0  0
  -10.8396   39.9867    0.0000 C   0  0  0  0  0  0  0  0  0  0  0  0
   -9.7497   41.0172    0.0000 C   0  0  0  0  0  0  0  0  0  0  0  0
   -8.5946   41.9742    0.0000 C   0  0  0  0  0  0  0  0  0  0  0  0
   -7.3794   42.8536    0.0000 C   0  0  0  0  0  0  0  0  0  0  0  0
   -6.1093   43.6517    0.0000 C   0  0  0  0  0  0  0  0  0  0  0  0
   -4.7898   44.3649    0.0000 C   0  0  0  0  0  0  0  0  0  0  0  0
   -3.4264   44.9904    0.0000 C   0  0  0  0  0  0  0  0  0  0  0  0
   -2.0250   45.5253    0.0000 C   0  0  0  0  0  0  0  0  0  0  0  0
   -0.5917   45.9674    0.0000 C   0  0  0  0  0  0  0  0  0  0  0  0
    0.8675   46.3149    0.0000 C   0  0  0  0  0  0  0  0  0  0  0  0
    2.3463   46.5661    0.0000 C   0  0  0  0  0  0  0  0  0  0  0  0
    3.8384   46.7201    0.0000 C   0  0  0  0  0  0  0  0  0  0  0  0
    5.3374   46.7762    0.0000 C   0  0  0  0  0  0  0  0  0  0  0  0
    6.8368   46.7342    0.0000 C   0  0  0  0  0  0  0  0  0  0  0  0
    8.3302   46.5941    0.0000 C   0  0  0  0  0  0  0  0  0  0  0  0
    9.8113   46.3567    0.0000 C   0  0  0  0  0  0  0  0  0  0  0  0
   11.2737   46.0229    0.0000 C   0  0  0  0  0  0  0  0  0  0  0  0
   12.7111   45.5942    0.0000 C   0  0  0  0  0  0  0  0  0  0  0  0
   14.1175   45.0724    0.0000 C   0  0  0  0  0  0  0  0  0  0  0  0
   15.4866   44.4597    0.0000 C   0  0  0  0  0  0  0  0  0  0  0  0
   16.8128   43.7588    0.0000 C   0  0  0  0  0  0  0  0  0  0  0  0
   18.0903   42.9727    0.0000 C   0  0  0  0  0  0  0  0  0  0  0  0
   19.3136   42.1047    0.0000 C   0  0  0  0  0  0  0  0  0  0  0  0
   20.4776   41.1585    0.0000 C   0  0  0  0  0  0  0  0  0  0  0  0
   21.5772   40.1383    0.0000 C   0  0  0  0  0  0  0  0  0  0  0  0
   22.6077   39.0483    0.0000 C   0  0  0  0  0  0  0  0  0  0  0  0
   23.5647   37.8932    0.0000 C   0  0  0  0  0  0  0  0  0  0  0  0
   24.4441   36.6780    0.0000 C   0  0  0  0  0  0  0  0  0  0  0  0
   25.2421   35.4080    0.0000 C   0  0  0  0  0  0  0  0  0  0  0  0
   25.9554   34.0884    0.0000 C   0  0  0  0  0  0  0  0  0  0  0  0
   26.5808   32.7250    0.0000 C   0  0  0  0  0  0  0  0  0  0  0  0
   27.1158   31.3236    0.0000 C   0  0  0  0  0  0  0  0  0  0  0  0
   27.5579   29.8903    0.0000 C   0  0  0  0  0  0  0  0  0  0  0  0
   27.9053   28.4311    0.0000 C   0  0  0  0  0  0  0  0  0  0  0  0
   28.1566   26.9523    0.0000 C   0  0  0  0  0  0  0  0  0  0  0  0
   28.3106   25.4602    0.0000 C   0  0  0  0  0  0  0  0  0  0  0  0
   28.3667   23.9612    0.0000 C   0  0  0  0  0  0  0  0  0  0  0  0
   28.3246   22.4618    0.0000 C   0  0  0  0  0  0  0  0  0  0  0  0
   28.1846   20.9684    0.0000 C   0  0  0  0  0  0  0  0  0  0  0  0
   27.9472   19.4873    0.0000 C   0  0  0  0  0  0  0  0  0  0  0  0
   27.6134   18.0249    0.0000 C   0  0  0  0  0  0  0  0  0  0  0  0
   27.1847   16.5875    0.0000 C   0  0  0  0  0  0  0  0  0  0  0  0
   26.6629   15.1811    0.0000 C   0  0  0  0  0  0  0  0  0  0  0  0
   26.0502   13.8120    0.0000 C   0  0  0  0  0  0  0  0  0  0  0  0
   25.3493   12.4858    0.0000 C   0  0  0  0  0  0  0  0  0  0  0  0
   24.5631   11.2083    0.0000 C   0  0  0  0  0  0  0  0  0  0  0  0
   23.6951    9.9850    0.0000 C   0  0  0  0  0  0  0  0  0  0  0  0
   22.7490    8.8210    0.0000 C   0  0  0  0  0  0  0  0  0  0  0  0
   21.7287    7.7214    0.0000 C   0  0  0  0  0  0  0  0  0  0  0  0
   20.6387    6.6909    0.0000 C   0  0  0  0  0  0  0  0  0  0  0  0
   19.4837    5.7339    0.0000 C   0  0  0  0  0  0  0  0  0  0  0  0
   18.2685    4.8545    0.0000 C   0  0  0  0  0  0  0  0  0  0  0  0
   16.9984    4.0565    0.0000 C   0  0  0  0  0  0  0  0  0  0  0  0
   15.6789    3.3432    0.0000 C   0  0  0  0  0  0  0  0  0  0  0  0
   14.3155    2.7178    0.0000 C   0  0  0  0  0  0  0  0  0  0  0  0
   12.9141    2.1828    0.0000 C   0  0  0  0  0  0  0  0  0  0  0  0
   11.4807    1.7407    0.0000 C   0  0  0  0  0  0  0  0  0  0  0  0
   10.0215    1.3933    0.0000 C   0  0  0  0  0  0  0  0  0  0  0  0
    8.5427    1.1420    0.0000 C   0  0  0  0  0  0  0  0  0  0  0  0
    7.0506    0.9880    0.0000 C   0  0  0  0  0  0  0  0  0  0  0  0
    5.5517    0.9319    0.0000 C   0  0  0  0  0  0  0  0  0  0  0  0
    4.0523    0.9740    0.0000 C   0  0  0  0  0  0  0  0  0  0  0  0
    2.5588    1.1140    0.0000 C   0  0  0  0  0  0  0  0  0  0  0  0
    1.0777    1.3515    0.0000 C   0  0  0  0  0  0  0  0  0  0  0  0
    1.7286    0.0000    0.0000 C   0  0  0  0  0  0  0  0  0  0  0  0
    1.0777   -1.3515    0.0000 C   0  0  0  0  0  0  0  0  0  0  0  0
   -0.3846   -1.6852    0.0000 C   0  0  0  0  0  0  0  0  0  0  0  0
   -1.5574   -0.7500    0.0000 C   0  0  0  0  0  0  0  0  0  0  0  0
   -1.5574    0.7500    0.0000 C   0  0  0  0  0  0  0  0  0  0  0  0
   -0.3846    1.6852    0.0000 C   0  0  0  0  0  0  0  0  0  0  0  0
   -1.8221    2.1139    0.0000 C   0  0  0  0  0  0  0  0  0  0  0  0
   -0.6670    3.0709    0.0000 C   0  0  0  0  0  0  0  0  0  0  0  0
   -0.9183    4.5498    0.0000 C   0  0  0  0  0  0  0  0  0  0  0  0
   -2.3246    5.0716    0.0000 C   0  0  0  0  0  0  0  0  0  0  0  0
   -3.4796    4.1146    0.0000 C   0  0  0  0  0  0  0  0  0  0  0  0
   -3.2284    2.6358    0.0000 C   0  0  0  0  0  0  0  0  0  0  0  0
   -4.5976    3.2484    0.0000 C   0  0  0  0  0  0  0  0  0  0  0  0
   -4.5415    1.7495    0.0000 C   0  0  0  0  0  0  0  0  0  0  0  0
   -5.8116    0.9514    0.0000 C   0  0  0  0  0  0  0  0  0  0  0  0
   -7.1377    1.6523    0.0000 C   0  0  0  0  0  0  0  0  0  0  0  0
   -7.1938    3.1513    0.0000 C   0  0  0  0  0  0  0  0  0  0  0  0
   -5.9237    3.9493    0.0000 C   0  0  0  0  0  0  0  0  0  0  0  0
  1  2  1  0
  2  3  1  0
  3  4  1  0
  4  5  1  0
  5  6  1  0
  6  7  1  0
  7  8  1  0
  8  9  1  0
  9 10  1  0
 10 11  1  0
 11 12  1  0
 12 13  1  0
 13 14  1  0
 14 15  1  0
 15 16  1  0
 16 17  1  0
 17 18  1  0
 18 19  1  0
 19 20  1  0
 20 21  1  0
 21 22  1  0
 22 23  1  0
 23 24  1  0
 24 25  1  0
 25 26  1  0
 26 27  1  0
 27 28  1  0
 28 29  1  0
 29 30  1  0
 30 31  1  0
 31 32  1  0
 32 33  1  0
 33 34  1  0
 34 35  1  0
 35 36  1  0
 36 37  1  0
 37 38  1  0
 38 39  1  0
 39 40  1  0
 40 41  1  0
 41 42  1  0
 42 43  1  0
 43 44  1  0
 44 45  1  0
 45 46  1  0
 46 47  1  0
 47 48  1  0
 48 49  1  0
 49 50  1  0
 50 51  1  0
 51 52  1  0
 52 53  1  0
 53 54  1  0
 54 55  1  0
 55 56  1  0
 56 57  1  0
 57 58  1  0
 58 59  1  0
 59 60  1  0
 60 61  1  0
 61 62  1  0
 62 63  1  0
 63 64  1  0
 64 65  1  0
 65 66  1  0
 66 67  1  0
 67 68  1  0
 68 69  1  0
 69 70  1  0
 70 71  1  0
 71 72  1  0
 72 73  1  0
 73 74  1  0
 74 75  1  0
 75 76  1  0
 76 77  1  0
 77 78  1  0
 78 79  1  0
 79 80  1  0
 80 81  1  0
 81 82  1  0
 82 83  1  0
 83 84  1  0
 84 85  1  0
 85 86  1  0
 86 87  1  0
 87 88  1  0
 88 89  1  0
 89 90  1  0
 90 91  1  0
 91 92  1  0
 92 93  1  0
 93 94  2  0
 94 95  1  0
 95 96  2  0
 96 97  1  0
 97 98  2  0
 98 99  1  0
 99100  2  0
100101  1  0
101102  2  0
102103  1  0
103104  2  0
104105  1  0
105106  2  0
106107  1  0
107108  2  0
108109  1  0
109110  2  0
110  2  1  0
 98 92  1  0
104 99  1  0
110105  1  0
M  END
>  <Title>  (663) 
idAAXOgen10

$$$$

     RDKit          2D

 47 54  0  0  0  0  0  0  0  0999 V2000
    5.8191   -5.5525    0.0000 C   0  0  0  0  0  0  0  0  0  0  0  0
    4.3191   -5.5525    0.0000 C   0  0  0  0  0  0  0  0  0  0  0  0
    4.0586   -4.0753    0.0000 N   0  0  0  0  0  0  0  0  0  0  0  0
    3.3086   -2.7762    0.0000 N   0  0  0  0  0  0  0  0  0  0  0  0
    2.1595   -1.8121    0.0000 N   0  0  0  0  0  0  0  0  0  0  0  0
    0.7500   -1.2990    0.0000 N   0  0  0  0  0  0  0  0  0  0  0  0
    1.5000    0.0000    0.0000 C   0  0  0  0  0  0  0  0  0  0  0  0
    0.7500    1.2990    0.0000 C   0  0  0  0  0  0  0  0  0  0  0  0
   -0.7500    1.2990    0.0000 C   0  0  0  0  0  0  0  0  0  0  0  0
   -1.5000    0.0000    0.0000 C   0  0  0  0  0  0  0  0  0  0  0  0
   -0.7500   -1.2990    0.0000 C   0  0  0  0  0  0  0  0  0  0  0  0
   -2.1595   -1.8121    0.0000 C   0  0  0  0  0  0  0  0  0  0  0  0
   -2.4200   -0.3349    0.0000 C   0  0  0  0  0  0  0  0  0  0  0  0
   -3.8296    0.1782    0.0000 C   0  0  0  0  0  0  0  0  0  0  0  0
   -4.9786   -0.7860    0.0000 C   0  0  0  0  0  0  0  0  0  0  0  0
   -4.7181   -2.2632    0.0000 C   0  0  0  0  0  0  0  0  0  0  0  0
   -3.3086   -2.7762    0.0000 C   0  0  0  0  0  0  0  0  0  0  0  0
   -4.0586   -4.0753    0.0000 C   0  0  0  0  0  0  0  0  0  0  0  0
   -5.2077   -3.1111    0.0000 C   0  0  0  0  0  0  0  0  0  0  0  0
   -6.6172   -3.6241    0.0000 C   0  0  0  0  0  0  0  0  0  0  0  0
   -6.8777   -5.1013    0.0000 C   0  0  0  0  0  0  0  0  0  0  0  0
   -5.7286   -6.0655    0.0000 C   0  0  0  0  0  0  0  0  0  0  0  0
   -4.3191   -5.5525    0.0000 C   0  0  0  0  0  0  0  0  0  0  0  0
   -4.0586   -7.0297    0.0000 C   0  0  0  0  0  0  0  0  0  0  0  0
   -5.5586   -7.0297    0.0000 C   0  0  0  0  0  0  0  0  0  0  0  0
   -6.3086   -8.3287    0.0000 C   0  0  0  0  0  0  0  0  0  0  0  0
   -5.5586   -9.6278    0.0000 C   0  0  0  0  0  0  0  0  0  0  0  0
   -4.0586   -9.6278    0.0000 C   0  0  0  0  0  0  0  0  0  0  0  0
   -3.3086   -8.3287    0.0000 C   0  0  0  0  0  0  0  0  0  0  0  0
   -2.1595   -9.2929    0.0000 C   0  0  0  0  0  0  0  0  0  0  0  0
   -3.3086  -10.2571    0.0000 C   0  0  0  0  0  0  0  0  0  0  0  0
   -3.0481  -11.7343    0.0000 C   0  0  0  0  0  0  0  0  0  0  0  0
   -1.6386  -12.2474    0.0000 C   0  0  0  0  0  0  0  0  0  0  0  0
   -0.4895  -11.2832    0.0000 C   0  0  0  0  0  0  0  0  0  0  0  0
   -0.7500   -9.8060    0.0000 C   0  0  0  0  0  0  0  0  0  0  0  0
    0.7500   -9.8060    0.0000 C   0  0  0  0  0  0  0  0  0  0  0  0
    0.4895  -11.2832    0.0000 C   0  0  0  0  0  0  0  0  0  0  0  0
    1.6386  -12.2474    0.0000 C   0  0  0  0  0  0  0  0  0  0  0  0
    3.0481  -11.7343    0.0000 C   0  0  0  0  0  0  0  0  0  0  0  0
    3.3086  -10.2571    0.0000 C   0  0  0  0  0  0  0  0  0  0  0  0
    2.1595   -9.2929    0.0000 C   0  0  0  0  0  0  0  0  0  0  0  0
    3.3086   -8.3287    0.0000 C   0  0  0  0  0  0  0  0  0  0  0  0
    4.0586   -9.6278    0.0000 C   0  0  0  0  0  0  0  0  0  0  0  0
    5.5586   -9.6278    0.0000 C   0  0  0  0  0  0  0  0  0  0  0  0
    6.3086   -8.3287    0.0000 C   0  0  0  0  0  0  0  0  0  0  0  0
    5.5586   -7.0297    0.0000 C   0  0  0  0  0  0  0  0  0  0  0  0
    4.0586   -7.0297    0.0000 C   0  0  0  0  0  0  0  0  0  0  0  0
  1  2  1  0
  2  3  2  0
  3  4  1  0
  4  5  2  0
  5  6  1  0
  6  7  1  0
  7  8  1  0
  8  9  2  0
  9 10  1  0
 10 11  2  0
 11 12  1  0
 12 13  2  0
 13 14  1  0
 14 15  2  0
 15 16  1  0
 16 17  2  0
 17 18  1  0
 18 19  2  0
 19 20  1  0
 20 21  2  0
 21 22  1  0
 22 23  2  0
 23 24  1  0
 24 25  2  0
 25 26  1  0
 26 27  2  0
 27 28  1  0
 28 29  2  0
 29 30  1  0
 30 31  2  0
 31 32  1  0
 32 33  2  0
 33 34  1  0
 34 35  2  0
 35 36  1  0
 36 37  2  0
 37 38  1  0
 38 39  2  0
 39 40  1  0
 40 41  2  0
 41 42  1  0
 42 43  2  0
 43 44  1  0
 44 45  2  0
 45 46  1  0
 46 47  2  0
 47  2  1  0
 11  6  1  0
 17 12  1  0
 23 18  1  0
 29 24  1  0
 35 30  1  0
 41 36  1  0
 47 42  1  0
M  END
>  <Title>  (664) 
idAAXPgen10

$$$$

     RDKit          2D

 10 11  0  0  0  0  0  0  0  0999 V2000
   -3.5736    1.2902    0.0000 C   0  0  0  0  0  0  0  0  0  0  0  0
   -2.1470    1.7537    0.0000 C   0  0  0  0  0  0  0  0  0  0  0  0
   -1.8351    3.2209    0.0000 C   0  0  0  0  0  0  0  0  0  0  0  0
   -0.4086    3.6844    0.0000 C   0  0  0  0  0  0  0  0  0  0  0  0
    0.7062    2.6807    0.0000 C   0  0  0  0  0  0  0  0  0  0  0  0
    0.3943    1.2135    0.0000 C   0  0  0  0  0  0  0  0  0  0  0  0
    1.2760    0.0000    0.0000 C   0  0  0  0  0  0  0  0  0  0  0  0
    0.3943   -1.2135    0.0000 C   0  0  0  0  0  0  0  0  0  0  0  0
   -1.0323   -0.7500    0.0000 N   0  0  0  0  0  0  0  0  0  0  0  0
   -1.0323    0.7500    0.0000 C   0  0  0  0  0  0  0  0  0  0  0  0
  1  2  1  0
  2  3  2  0
  3  4  1  0
  4  5  1  0
  5  6  2  0
  6  7  1  0
  7  8  1  0
  8  9  1  0
  9 10  2  0
 10  2  1  0
 10  6  1  0
M  END
>  <Title>  (665) 
idAAXQgen10

$$$$

     RDKit          2D

  8  8  0  0  0  0  0  0  0  0999 V2000
    2.7760    0.0000    0.0000 C   0  0  0  0  0  0  0  0  0  0  0  0
    1.2760    0.0000    0.0000 C   0  0  0  0  0  0  0  0  0  0  0  0
    0.3943    1.2135    0.0000 C   0  0  0  0  0  0  0  0  0  0  0  0
   -1.0323    0.7500    0.0000 C   0  0  0  0  0  0  0  0  0  0  0  0
   -2.2458    1.6317    0.0000 C   0  0  0  0  0  0  0  0  0  0  0  0
   -1.0323   -0.7500    0.0000 N   0  0  0  0  0  0  0  0  0  0  0  0
   -2.2458   -1.6317    0.0000 C   0  0  0  0  0  0  0  0  0  0  0  0
    0.3943   -1.2135    0.0000 N   0  0  0  0  0  0  0  0  0  0  0  0
  1  2  1  0
  2  3  2  0
  3  4  1  0
  4  5  1  0
  4  6  1  0
  6  7  1  0
  6  8  1  0
  8  2  1  0
M  END
>  <Title>  (666) 
idAAXRgen10

$$$$

     RDKit          2D

  5  5  0  0  0  0  0  0  0  0999 V2000
    2.5607    0.0000    0.0000 O   0  0  0  0  0  0  0  0  0  0  0  0
    1.0607    0.0000    0.0000 C   0  0  0  0  0  0  0  0  0  0  0  0
   -0.0000   -1.0607    0.0000 C   0  0  0  0  0  0  0  0  0  0  0  0
   -1.0607    0.0000    0.0000 C   0  0  0  0  0  0  0  0  0  0  0  0
    0.0000    1.0607    0.0000 C   0  0  0  0  0  0  0  0  0  0  0  0
  1  2  1  0
  2  3  2  0
  3  4  1  0
  4  5  2  0
  5  2  1  0
M  END
>  <Title>  (667) 
idAAXSgen10

$$$$

     RDKit          2D

  8  8  0  0  0  0  0  0  0  0999 V2000
    5.0260   -1.2990    0.0000 C   0  0  0  0  0  0  0  0  0  0  0  0
    3.5260   -1.2990    0.0000 C   0  0  0  0  0  0  0  0  0  0  0  0
    2.7760    0.0000    0.0000 C   0  0  0  0  0  0  0  0  0  0  0  0
    1.2760    0.0000    0.0000 C   0  0  0  0  0  0  0  0  0  0  0  0
    0.3943    1.2135    0.0000 C   0  0  0  0  0  0  0  0  0  0  0  0
   -1.0323    0.7500    0.0000 C   0  0  0  0  0  0  0  0  0  0  0  0
   -1.0323   -0.7500    0.0000 C   0  0  0  0  0  0  0  0  0  0  0  0
    0.3943   -1.2135    0.0000 C   0  0  0  0  0  0  0  0  0  0  0  0
  1  2  1  0
  2  3  1  0
  3  4  1  0
  4  5  2  0
  5  6  1  0
  6  7  1  0
  7  8  2  0
  8  4  1  0
M  END
>  <Title>  (668) 
idAAXTgen10

$$$$

     RDKit          2D

 38 38  0  0  0  0  0  0  0  0999 V2000
   10.3437    0.0000    0.0000 C   0  0  0  0  0  0  0  0  0  0  0  0
    8.8437    0.0000    0.0000 C   0  0  0  0  0  0  0  0  0  0  0  0
    8.7165    1.4946    0.0000 C   0  0  0  0  0  0  0  0  0  0  0  0
    8.3385    2.9462    0.0000 C   0  0  0  0  0  0  0  0  0  0  0  0
    7.7207    4.3130    0.0000 C   0  0  0  0  0  0  0  0  0  0  0  0
    6.8807    5.5558    0.0000 C   0  0  0  0  0  0  0  0  0  0  0  0
    5.8428    6.6387    0.0000 C   0  0  0  0  0  0  0  0  0  0  0  0
    4.6368    7.5307    0.0000 C   0  0  0  0  0  0  0  0  0  0  0  0
    3.2974    8.2060    0.0000 C   0  0  0  0  0  0  0  0  0  0  0  0
    1.8632    8.6452    0.0000 C   0  0  0  0  0  0  0  0  0  0  0  0
    0.3753    8.8358    0.0000 C   0  0  0  0  0  0  0  0  0  0  0  0
   -1.1233    8.7721    0.0000 C   0  0  0  0  0  0  0  0  0  0  0  0
   -2.5896    8.4561    0.0000 C   0  0  0  0  0  0  0  0  0  0  0  0
   -3.9815    7.8968    0.0000 C   0  0  0  0  0  0  0  0  0  0  0  0
   -5.2588    7.1103    0.0000 C   0  0  0  0  0  0  0  0  0  0  0  0
   -6.3848    6.1193    0.0000 C   0  0  0  0  0  0  0  0  0  0  0  0
   -7.3271    4.9523    0.0000 C   0  0  0  0  0  0  0  0  0  0  0  0
   -8.0587    3.6427    0.0000 C   0  0  0  0  0  0  0  0  0  0  0  0
   -8.5584    2.2284    0.0000 C   0  0  0  0  0  0  0  0  0  0  0  0
   -8.8119    0.7500    0.0000 C   0  0  0  0  0  0  0  0  0  0  0  0
   -8.8119   -0.7500    0.0000 C   0  0  0  0  0  0  0  0  0  0  0  0
   -8.5584   -2.2284    0.0000 C   0  0  0  0  0  0  0  0  0  0  0  0
   -8.0587   -3.6427    0.0000 C   0  0  0  0  0  0  0  0  0  0  0  0
   -7.3271   -4.9523    0.0000 C   0  0  0  0  0  0  0  0  0  0  0  0
   -6.3848   -6.1193    0.0000 C   0  0  0  0  0  0  0  0  0  0  0  0
   -5.2588   -7.1103    0.0000 C   0  0  0  0  0  0  0  0  0  0  0  0
   -3.9815   -7.8968    0.0000 C   0  0  0  0  0  0  0  0  0  0  0  0
   -2.5896   -8.4561    0.0000 C   0  0  0  0  0  0  0  0  0  0  0  0
   -1.1233   -8.7721    0.0000 C   0  0  0  0  0  0  0  0  0  0  0  0
    0.3753   -8.8358    0.0000 C   0  0  0  0  0  0  0  0  0  0  0  0
    1.8632   -8.6452    0.0000 C   0  0  0  0  0  0  0  0  0  0  0  0
    3.2974   -8.2060    0.0000 C   0  0  0  0  0  0  0  0  0  0  0  0
    4.6368   -7.5307    0.0000 C   0  0  0  0  0  0  0  0  0  0  0  0
    5.8428   -6.6387    0.0000 C   0  0  0  0  0  0  0  0  0  0  0  0
    6.8807   -5.5558    0.0000 C   0  0  0  0  0  0  0  0  0  0  0  0
    7.7207   -4.3130    0.0000 C   0  0  0  0  0  0  0  0  0  0  0  0
    8.3385   -2.9462    0.0000 C   0  0  0  0  0  0  0  0  0  0  0  0
    8.7165   -1.4946    0.0000 C   0  0  0  0  0  0  0  0  0  0  0  0
  1  2  1  0
  2  3  1  0
  3  4  2  0
  4  5  1  0
  5  6  2  0
  6  7  1  0
  7  8  2  0
  8  9  1  0
  9 10  2  0
 10 11  1  0
 11 12  2  0
 12 13  1  0
 13 14  2  0
 14 15  1  0
 15 16  2  0
 16 17  1  0
 17 18  2  0
 18 19  1  0
 19 20  2  0
 20 21  1  0
 21 22  2  0
 22 23  1  0
 23 24  2  0
 24 25  1  0
 25 26  2  0
 26 27  1  0
 27 28  2  0
 28 29  1  0
 29 30  2  0
 30 31  1  0
 31 32  2  0
 32 33  1  0
 33 34  2  0
 34 35  1  0
 35 36  1  0
 36 37  1  0
 37 38  1  0
 38  2  1  0
M  END
>  <Title>  (669) 
idAAXUgen10

$$$$

     RDKit          2D

 56 64  0  0  0  0  0  0  0  0999 V2000
    6.3684   -4.8214    0.0000 C   0  0  0  0  0  0  0  0  0  0  0  0
    4.9060   -5.1552    0.0000 C   0  0  0  0  0  0  0  0  0  0  0  0
    4.3580   -3.7589    0.0000 N   0  0  0  0  0  0  0  0  0  0  0  0
    3.4227   -2.5862    0.0000 N   0  0  0  0  0  0  0  0  0  0  0  0
    2.1834   -1.7412    0.0000 C   0  0  0  0  0  0  0  0  0  0  0  0
    2.8342   -0.3897    0.0000 C   0  0  0  0  0  0  0  0  0  0  0  0
    0.7500   -1.2990    0.0000 C   0  0  0  0  0  0  0  0  0  0  0  0
    1.5000    0.0000    0.0000 C   0  0  0  0  0  0  0  0  0  0  0  0
    0.7500    1.2990    0.0000 C   0  0  0  0  0  0  0  0  0  0  0  0
   -0.7500    1.2990    0.0000 C   0  0  0  0  0  0  0  0  0  0  0  0
   -1.5000    0.0000    0.0000 C   0  0  0  0  0  0  0  0  0  0  0  0
   -0.7500   -1.2990    0.0000 C   0  0  0  0  0  0  0  0  0  0  0  0
   -2.1834   -1.7412    0.0000 C   0  0  0  0  0  0  0  0  0  0  0  0
   -2.2955   -0.2454    0.0000 C   0  0  0  0  0  0  0  0  0  0  0  0
   -3.6469    0.4055    0.0000 C   0  0  0  0  0  0  0  0  0  0  0  0
   -4.8863   -0.4395    0.0000 C   0  0  0  0  0  0  0  0  0  0  0  0
   -4.7742   -1.9353    0.0000 C   0  0  0  0  0  0  0  0  0  0  0  0
   -3.4227   -2.5862    0.0000 C   0  0  0  0  0  0  0  0  0  0  0  0
   -4.3580   -3.7589    0.0000 C   0  0  0  0  0  0  0  0  0  0  0  0
   -5.2932   -2.5862    0.0000 C   0  0  0  0  0  0  0  0  0  0  0  0
   -6.7764   -2.8097    0.0000 C   0  0  0  0  0  0  0  0  0  0  0  0
   -7.3244   -4.2060    0.0000 C   0  0  0  0  0  0  0  0  0  0  0  0
   -6.3892   -5.3788    0.0000 C   0  0  0  0  0  0  0  0  0  0  0  0
   -4.9060   -5.1552    0.0000 C   0  0  0  0  0  0  0  0  0  0  0  0
   -5.0181   -6.6510    0.0000 C   0  0  0  0  0  0  0  0  0  0  0  0
   -6.4514   -6.2089    0.0000 C   0  0  0  0  0  0  0  0  0  0  0  0
   -7.5510   -7.2291    0.0000 C   0  0  0  0  0  0  0  0  0  0  0  0
   -7.2172   -8.6915    0.0000 C   0  0  0  0  0  0  0  0  0  0  0  0
   -5.7839   -9.1337    0.0000 C   0  0  0  0  0  0  0  0  0  0  0  0
   -4.6843   -8.1134    0.0000 C   0  0  0  0  0  0  0  0  0  0  0  0
   -3.9343   -9.4124    0.0000 C   0  0  0  0  0  0  0  0  0  0  0  0
   -5.3676   -9.8546    0.0000 C   0  0  0  0  0  0  0  0  0  0  0  0
   -5.7014  -11.3170    0.0000 C   0  0  0  0  0  0  0  0  0  0  0  0
   -4.6018  -12.3372    0.0000 C   0  0  0  0  0  0  0  0  0  0  0  0
   -3.1685  -11.8951    0.0000 C   0  0  0  0  0  0  0  0  0  0  0  0
   -2.8347  -10.4327    0.0000 C   0  0  0  0  0  0  0  0  0  0  0  0
   -1.4832  -11.0835    0.0000 C   0  0  0  0  0  0  0  0  0  0  0  0
   -2.4185  -12.2563    0.0000 C   0  0  0  0  0  0  0  0  0  0  0  0
   -1.8705  -13.6526    0.0000 C   0  0  0  0  0  0  0  0  0  0  0  0
   -0.3872  -13.8762    0.0000 C   0  0  0  0  0  0  0  0  0  0  0  0
    0.5480  -12.7034    0.0000 C   0  0  0  0  0  0  0  0  0  0  0  0
   -0.0000  -11.3071    0.0000 C   0  0  0  0  0  0  0  0  0  0  0  0
    1.4832  -11.0835    0.0000 C   0  0  0  0  0  0  0  0  0  0  0  0
    1.3712  -12.5793    0.0000 C   0  0  0  0  0  0  0  0  0  0  0  0
    2.6105  -13.4243    0.0000 C   0  0  0  0  0  0  0  0  0  0  0  0
    3.9620  -12.7735    0.0000 C   0  0  0  0  0  0  0  0  0  0  0  0
    4.0741  -11.2777    0.0000 C   0  0  0  0  0  0  0  0  0  0  0  0
    2.8347  -10.4327    0.0000 C   0  0  0  0  0  0  0  0  0  0  0  0
    3.9343   -9.4124    0.0000 C   0  0  0  0  0  0  0  0  0  0  0  0
    4.6843  -10.7115    0.0000 C   0  0  0  0  0  0  0  0  0  0  0  0
    6.1843  -10.7115    0.0000 C   0  0  0  0  0  0  0  0  0  0  0  0
    6.9343   -9.4124    0.0000 C   0  0  0  0  0  0  0  0  0  0  0  0
    6.1843   -8.1134    0.0000 C   0  0  0  0  0  0  0  0  0  0  0  0
    4.6843   -8.1134    0.0000 C   0  0  0  0  0  0  0  0  0  0  0  0
    5.0181   -6.6510    0.0000 C   0  0  0  0  0  0  0  0  0  0  0  0
    6.5139   -6.7631    0.0000 O   0  0  0  0  0  0  0  0  0  0  0  0
  1  2  1  0
  2  3  2  0
  3  4  1  0
  4  5  2  0
  5  6  1  0
  5  7  1  0
  7  8  2  0
  8  9  1  0
  9 10  2  0
 10 11  1  0
 11 12  2  0
 12 13  1  0
 13 14  2  0
 14 15  1  0
 15 16  2  0
 16 17  1  0
 17 18  2  0
 18 19  1  0
 19 20  2  0
 20 21  1  0
 21 22  2  0
 22 23  1  0
 23 24  2  0
 24 25  1  0
 25 26  2  0
 26 27  1  0
 27 28  2  0
 28 29  1  0
 29 30  2  0
 30 31  1  0
 31 32  2  0
 32 33  1  0
 33 34  2  0
 34 35  1  0
 35 36  2  0
 36 37  1  0
 37 38  2  0
 38 39  1  0
 39 40  2  0
 40 41  1  0
 41 42  2  0
 42 43  1  0
 43 44  2  0
 44 45  1  0
 45 46  2  0
 46 47  1  0
 47 48  2  0
 48 49  1  0
 49 50  2  0
 50 51  1  0
 51 52  2  0
 52 53  1  0
 53 54  2  0
 54 55  1  0
 55 56  2  0
 55  2  1  0
 12  7  1  0
 18 13  1  0
 24 19  1  0
 30 25  1  0
 36 31  1  0
 42 37  1  0
 48 43  1  0
 54 49  1  0
M  END
>  <Title>  (670) 
idAAXVgen10

$$$$

     RDKit          2D

 10 10  0  0  0  0  0  0  0  0999 V2000
    5.2500    1.2990    0.0000 C   0  0  0  0  0  0  0  0  0  0  0  0
    3.7500    1.2990    0.0000 C   0  0  0  0  0  0  0  0  0  0  0  0
    3.0000    0.0000    0.0000 N   0  0  0  0  0  0  0  0  0  0  0  0
    3.7500   -1.2990    0.0000 C   0  0  0  0  0  0  0  0  0  0  0  0
    1.5000    0.0000    0.0000 C   0  0  0  0  0  0  0  0  0  0  0  0
    0.7500   -1.2990    0.0000 C   0  0  0  0  0  0  0  0  0  0  0  0
   -0.7500   -1.2990    0.0000 C   0  0  0  0  0  0  0  0  0  0  0  0
   -1.5000    0.0000    0.0000 C   0  0  0  0  0  0  0  0  0  0  0  0
   -0.7500    1.2990    0.0000 C   0  0  0  0  0  0  0  0  0  0  0  0
    0.7500    1.2990    0.0000 C   0  0  0  0  0  0  0  0  0  0  0  0
  1  2  1  0
  2  3  1  0
  3  4  1  0
  3  5  1  0
  5  6  2  0
  6  7  1  0
  7  8  2  0
  8  9  1  0
  9 10  2  0
 10  5  1  0
M  END
>  <Title>  (671) 
idAAXWgen10

$$$$

     RDKit          2D

 45 45  0  0  0  0  0  0  0  0999 V2000
   12.0132    0.0000    0.0000 C   0  0  0  0  0  0  0  0  0  0  0  0
   10.5132    0.0000    0.0000 C   0  0  0  0  0  0  0  0  0  0  0  0
   10.4061   -1.4962    0.0000 C   0  0  0  0  0  0  0  0  0  0  0  0
   10.0873   -2.9619    0.0000 C   0  0  0  0  0  0  0  0  0  0  0  0
    9.5631   -4.3673    0.0000 C   0  0  0  0  0  0  0  0  0  0  0  0
    8.8442   -5.6838    0.0000 C   0  0  0  0  0  0  0  0  0  0  0  0
    7.9453   -6.8847    0.0000 C   0  0  0  0  0  0  0  0  0  0  0  0
    6.8847   -7.9453    0.0000 C   0  0  0  0  0  0  0  0  0  0  0  0
    5.6838   -8.8442    0.0000 C   0  0  0  0  0  0  0  0  0  0  0  0
    4.3673   -9.5631    0.0000 C   0  0  0  0  0  0  0  0  0  0  0  0
    2.9619  -10.0873    0.0000 C   0  0  0  0  0  0  0  0  0  0  0  0
    1.4962  -10.4061    0.0000 C   0  0  0  0  0  0  0  0  0  0  0  0
   -0.0000  -10.5132    0.0000 C   0  0  0  0  0  0  0  0  0  0  0  0
   -1.4962  -10.4061    0.0000 C   0  0  0  0  0  0  0  0  0  0  0  0
   -2.9619  -10.0873    0.0000 C   0  0  0  0  0  0  0  0  0  0  0  0
   -4.3673   -9.5631    0.0000 C   0  0  0  0  0  0  0  0  0  0  0  0
   -5.6838   -8.8442    0.0000 C   0  0  0  0  0  0  0  0  0  0  0  0
   -6.8847   -7.9453    0.0000 C   0  0  0  0  0  0  0  0  0  0  0  0
   -7.9453   -6.8847    0.0000 C   0  0  0  0  0  0  0  0  0  0  0  0
   -8.8442   -5.6838    0.0000 C   0  0  0  0  0  0  0  0  0  0  0  0
   -9.5631   -4.3673    0.0000 C   0  0  0  0  0  0  0  0  0  0  0  0
  -10.0873   -2.9619    0.0000 C   0  0  0  0  0  0  0  0  0  0  0  0
  -10.4061   -1.4962    0.0000 C   0  0  0  0  0  0  0  0  0  0  0  0
  -10.5132    0.0000    0.0000 C   0  0  0  0  0  0  0  0  0  0  0  0
  -10.4061    1.4962    0.0000 C   0  0  0  0  0  0  0  0  0  0  0  0
  -10.0873    2.9619    0.0000 C   0  0  0  0  0  0  0  0  0  0  0  0
   -9.5631    4.3673    0.0000 C   0  0  0  0  0  0  0  0  0  0  0  0
   -8.8442    5.6838    0.0000 C   0  0  0  0  0  0  0  0  0  0  0  0
   -7.9453    6.8847    0.0000 C   0  0  0  0  0  0  0  0  0  0  0  0
   -6.8847    7.9453    0.0000 C   0  0  0  0  0  0  0  0  0  0  0  0
   -5.6838    8.8442    0.0000 C   0  0  0  0  0  0  0  0  0  0  0  0
   -4.3673    9.5631    0.0000 C   0  0  0  0  0  0  0  0  0  0  0  0
   -2.9619   10.0873    0.0000 C   0  0  0  0  0  0  0  0  0  0  0  0
   -1.4962   10.4061    0.0000 C   0  0  0  0  0  0  0  0  0  0  0  0
    0.0000   10.5132    0.0000 C   0  0  0  0  0  0  0  0  0  0  0  0
    1.4962   10.4061    0.0000 C   0  0  0  0  0  0  0  0  0  0  0  0
    2.9619   10.0873    0.0000 C   0  0  0  0  0  0  0  0  0  0  0  0
    4.3673    9.5631    0.0000 C   0  0  0  0  0  0  0  0  0  0  0  0
    5.6838    8.8442    0.0000 C   0  0  0  0  0  0  0  0  0  0  0  0
    6.8847    7.9453    0.0000 C   0  0  0  0  0  0  0  0  0  0  0  0
    7.9453    6.8847    0.0000 C   0  0  0  0  0  0  0  0  0  0  0  0
    8.8442    5.6838    0.0000 C   0  0  0  0  0  0  0  0  0  0  0  0
    9.5631    4.3673    0.0000 C   0  0  0  0  0  0  0  0  0  0  0  0
   10.0873    2.9619    0.0000 C   0  0  0  0  0  0  0  0  0  0  0  0
   10.4061    1.4962    0.0000 C   0  0  0  0  0  0  0  0  0  0  0  0
  1  2  1  0
  2  3  1  0
  3  4  1  0
  4  5  1  0
  5  6  1  0
  6  7  1  0
  7  8  1  0
  8  9  1  0
  9 10  1  0
 10 11  1  0
 11 12  1  0
 12 13  1  0
 13 14  1  0
 14 15  1  0
 15 16  1  0
 16 17  1  0
 17 18  1  0
 18 19  1  0
 19 20  1  0
 20 21  1  0
 21 22  1  0
 22 23  1  0
 23 24  1  0
 24 25  1  0
 25 26  1  0
 26 27  1  0
 27 28  1  0
 28 29  1  0
 29 30  1  0
 30 31  1  0
 31 32  1  0
 32 33  1  0
 33 34  1  0
 34 35  1  0
 35 36  1  0
 36 37  1  0
 37 38  1  0
 38 39  1  0
 39 40  1  0
 40 41  1  0
 41 42  1  0
 42 43  1  0
 43 44  1  0
 44 45  1  0
 45  2  1  0
M  END
>  <Title>  (672) 
idAAXXgen10

$$$$

     RDKit          2D

121122  0  0  0  0  0  0  0  0999 V2000
    4.5820    4.1426    0.0000 C   0  0  0  0  0  0  0  0  0  0  0  0
    5.3544    4.3398    0.0000 C   0  0  0  0  0  0  0  0  0  0  0  0
    5.0318    5.8047    0.0000 C   0  0  0  0  0  0  0  0  0  0  0  0
    4.8067    7.2877    0.0000 C   0  0  0  0  0  0  0  0  0  0  0  0
    4.6800    8.7823    0.0000 C   0  0  0  0  0  0  0  0  0  0  0  0
    4.6525   10.2821    0.0000 C   0  0  0  0  0  0  0  0  0  0  0  0
    4.7241   11.7803    0.0000 C   0  0  0  0  0  0  0  0  0  0  0  0
    4.8946   13.2706    0.0000 C   0  0  0  0  0  0  0  0  0  0  0  0
    5.1632   14.7464    0.0000 C   0  0  0  0  0  0  0  0  0  0  0  0
    5.5288   16.2012    0.0000 C   0  0  0  0  0  0  0  0  0  0  0  0
    5.9897   17.6286    0.0000 C   0  0  0  0  0  0  0  0  0  0  0  0
    6.5439   19.0224    0.0000 C   0  0  0  0  0  0  0  0  0  0  0  0
    7.1891   20.3766    0.0000 C   0  0  0  0  0  0  0  0  0  0  0  0
    7.9223   21.6852    0.0000 C   0  0  0  0  0  0  0  0  0  0  0  0
    8.7404   22.9424    0.0000 C   0  0  0  0  0  0  0  0  0  0  0  0
    9.6398   24.1429    0.0000 C   0  0  0  0  0  0  0  0  0  0  0  0
   10.6166   25.2812    0.0000 C   0  0  0  0  0  0  0  0  0  0  0  0
   11.6665   26.3526    0.0000 C   0  0  0  0  0  0  0  0  0  0  0  0
   12.7849   27.3522    0.0000 C   0  0  0  0  0  0  0  0  0  0  0  0
   13.9669   28.2757    0.0000 C   0  0  0  0  0  0  0  0  0  0  0  0
   15.2074   29.1190    0.0000 C   0  0  0  0  0  0  0  0  0  0  0  0
   16.5009   29.8785    0.0000 C   0  0  0  0  0  0  0  0  0  0  0  0
   17.8417   30.5509    0.0000 C   0  0  0  0  0  0  0  0  0  0  0  0
   19.2241   31.1332    0.0000 C   0  0  0  0  0  0  0  0  0  0  0  0
   20.6419   31.6229    0.0000 C   0  0  0  0  0  0  0  0  0  0  0  0
   22.0890   32.0177    0.0000 C   0  0  0  0  0  0  0  0  0  0  0  0
   23.5590   32.3161    0.0000 C   0  0  0  0  0  0  0  0  0  0  0  0
   25.0456   32.5167    0.0000 C   0  0  0  0  0  0  0  0  0  0  0  0
   26.5421   32.6186    0.0000 C   0  0  0  0  0  0  0  0  0  0  0  0
   28.0421   32.6213    0.0000 C   0  0  0  0  0  0  0  0  0  0  0  0
   29.5390   32.5249    0.0000 C   0  0  0  0  0  0  0  0  0  0  0  0
   31.0263   32.3298    0.0000 C   0  0  0  0  0  0  0  0  0  0  0  0
   32.4974   32.0369    0.0000 C   0  0  0  0  0  0  0  0  0  0  0  0
   33.9459   31.6473    0.0000 C   0  0  0  0  0  0  0  0  0  0  0  0
   35.3655   31.1629    0.0000 C   0  0  0  0  0  0  0  0  0  0  0  0
   36.7500   30.5857    0.0000 C   0  0  0  0  0  0  0  0  0  0  0  0
   38.0933   29.9182    0.0000 C   0  0  0  0  0  0  0  0  0  0  0  0
   39.3896   29.1634    0.0000 C   0  0  0  0  0  0  0  0  0  0  0  0
   40.6332   28.3246    0.0000 C   0  0  0  0  0  0  0  0  0  0  0  0
   41.8186   27.4055    0.0000 C   0  0  0  0  0  0  0  0  0  0  0  0
   42.9406   26.4100    0.0000 C   0  0  0  0  0  0  0  0  0  0  0  0
   43.9944   25.3426    0.0000 C   0  0  0  0  0  0  0  0  0  0  0  0
   44.9754   24.2078    0.0000 C   0  0  0  0  0  0  0  0  0  0  0  0
   45.8792   23.0107    0.0000 C   0  0  0  0  0  0  0  0  0  0  0  0
   46.7020   21.7564    0.0000 C   0  0  0  0  0  0  0  0  0  0  0  0
   47.4400   20.4506    0.0000 C   0  0  0  0  0  0  0  0  0  0  0  0
   48.0901   19.0988    0.0000 C   0  0  0  0  0  0  0  0  0  0  0  0
   48.6495   17.7070    0.0000 C   0  0  0  0  0  0  0  0  0  0  0  0
   49.1156   16.2812    0.0000 C   0  0  0  0  0  0  0  0  0  0  0  0
   49.4865   14.8278    0.0000 C   0  0  0  0  0  0  0  0  0  0  0  0
   49.7605   13.3531    0.0000 C   0  0  0  0  0  0  0  0  0  0  0  0
   49.9365   11.8634    0.0000 C   0  0  0  0  0  0  0  0  0  0  0  0
   50.0136   10.3654    0.0000 C   0  0  0  0  0  0  0  0  0  0  0  0
   49.9916    8.8656    0.0000 C   0  0  0  0  0  0  0  0  0  0  0  0
   49.8705    7.3705    0.0000 C   0  0  0  0  0  0  0  0  0  0  0  0
   49.6508    5.8866    0.0000 C   0  0  0  0  0  0  0  0  0  0  0  0
   49.3335    4.4206    0.0000 C   0  0  0  0  0  0  0  0  0  0  0  0
   48.9201    2.9787    0.0000 C   0  0  0  0  0  0  0  0  0  0  0  0
   48.4122    1.5673    0.0000 C   0  0  0  0  0  0  0  0  0  0  0  0
   47.8122    0.1925    0.0000 C   0  0  0  0  0  0  0  0  0  0  0  0
   47.1227   -1.1396    0.0000 C   0  0  0  0  0  0  0  0  0  0  0  0
   46.3466   -2.4232    0.0000 C   0  0  0  0  0  0  0  0  0  0  0  0
   45.4873   -3.6528    0.0000 C   0  0  0  0  0  0  0  0  0  0  0  0
   44.5487   -4.8228    0.0000 C   0  0  0  0  0  0  0  0  0  0  0  0
   43.5348   -5.9282    0.0000 C   0  0  0  0  0  0  0  0  0  0  0  0
   42.4501   -6.9643    0.0000 C   0  0  0  0  0  0  0  0  0  0  0  0
   41.2992   -7.9263    0.0000 C   0  0  0  0  0  0  0  0  0  0  0  0
   40.0873   -8.8102    0.0000 C   0  0  0  0  0  0  0  0  0  0  0  0
   38.8197   -9.6121    0.0000 C   0  0  0  0  0  0  0  0  0  0  0  0
   37.5018  -10.3285    0.0000 C   0  0  0  0  0  0  0  0  0  0  0  0
   36.1394  -10.9561    0.0000 C   0  0  0  0  0  0  0  0  0  0  0  0
   34.7385  -11.4924    0.0000 C   0  0  0  0  0  0  0  0  0  0  0  0
   33.3053  -11.9349    0.0000 C   0  0  0  0  0  0  0  0  0  0  0  0
   31.8459  -12.2817    0.0000 C   0  0  0  0  0  0  0  0  0  0  0  0
   30.3669  -12.5313    0.0000 C   0  0  0  0  0  0  0  0  0  0  0  0
   28.8745  -12.6827    0.0000 C   0  0  0  0  0  0  0  0  0  0  0  0
   27.3754  -12.7350    0.0000 C   0  0  0  0  0  0  0  0  0  0  0  0
   25.8762  -12.6882    0.0000 C   0  0  0  0  0  0  0  0  0  0  0  0
   24.3833  -12.5423    0.0000 C   0  0  0  0  0  0  0  0  0  0  0  0
   22.9033  -12.2982    0.0000 C   0  0  0  0  0  0  0  0  0  0  0  0
   21.4427  -11.9567    0.0000 C   0  0  0  0  0  0  0  0  0  0  0  0
   20.0078  -11.5195    0.0000 C   0  0  0  0  0  0  0  0  0  0  0  0
   18.6050  -10.9884    0.0000 C   0  0  0  0  0  0  0  0  0  0  0  0
   17.2403  -10.3657    0.0000 C   0  0  0  0  0  0  0  0  0  0  0  0
   15.9198   -9.6542    0.0000 C   0  0  0  0  0  0  0  0  0  0  0  0
   14.6492   -8.8570    0.0000 C   0  0  0  0  0  0  0  0  0  0  0  0
   13.4340   -7.9775    0.0000 C   0  0  0  0  0  0  0  0  0  0  0  0
   12.2797   -7.0197    0.0000 C   0  0  0  0  0  0  0  0  0  0  0  0
   11.1911   -5.9877    0.0000 C   0  0  0  0  0  0  0  0  0  0  0  0
   10.1732   -4.8859    0.0000 C   0  0  0  0  0  0  0  0  0  0  0  0
    9.2303   -3.7194    0.0000 C   0  0  0  0  0  0  0  0  0  0  0  0
    8.3665   -2.4930    0.0000 C   0  0  0  0  0  0  0  0  0  0  0  0
    7.5857   -1.2123    0.0000 C   0  0  0  0  0  0  0  0  0  0  0  0
    6.8913    0.1173    0.0000 C   0  0  0  0  0  0  0  0  0  0  0  0
    6.2862    1.4899    0.0000 C   0  0  0  0  0  0  0  0  0  0  0  0
    5.7603   -0.0000    0.0000 C   0  0  0  0  0  0  0  0  0  0  0  0
    5.6051   -1.3284    0.0000 C   0  0  0  0  0  0  0  0  0  0  0  0
    5.1476   -2.5852    0.0000 C   0  0  0  0  0  0  0  0  0  0  0  0
    4.4127   -3.7027    0.0000 C   0  0  0  0  0  0  0  0  0  0  0  0
    3.4398   -4.6205    0.0000 C   0  0  0  0  0  0  0  0  0  0  0  0
    2.2816   -5.2892    0.0000 C   0  0  0  0  0  0  0  0  0  0  0  0
    1.0003   -5.6728    0.0000 C   0  0  0  0  0  0  0  0  0  0  0  0
   -0.3349   -5.7506    0.0000 C   0  0  0  0  0  0  0  0  0  0  0  0
   -1.6521   -5.5183    0.0000 C   0  0  0  0  0  0  0  0  0  0  0  0
   -2.8802   -4.9886    0.0000 C   0  0  0  0  0  0  0  0  0  0  0  0
   -3.9530   -4.1899    0.0000 C   0  0  0  0  0  0  0  0  0  0  0  0
   -4.8127   -3.1654    0.0000 C   0  0  0  0  0  0  0  0  0  0  0  0
   -5.4130   -1.9702    0.0000 C   0  0  0  0  0  0  0  0  0  0  0  0
   -5.7214   -0.6687    0.0000 C   0  0  0  0  0  0  0  0  0  0  0  0
   -5.7214    0.6687    0.0000 C   0  0  0  0  0  0  0  0  0  0  0  0
   -5.4130    1.9702    0.0000 C   0  0  0  0  0  0  0  0  0  0  0  0
   -4.8127    3.1654    0.0000 C   0  0  0  0  0  0  0  0  0  0  0  0
   -3.9530    4.1899    0.0000 C   0  0  0  0  0  0  0  0  0  0  0  0
   -2.8802    4.9886    0.0000 C   0  0  0  0  0  0  0  0  0  0  0  0
   -1.6521    5.5183    0.0000 C   0  0  0  0  0  0  0  0  0  0  0  0
   -0.3349    5.7506    0.0000 C   0  0  0  0  0  0  0  0  0  0  0  0
    1.0003    5.6728    0.0000 C   0  0  0  0  0  0  0  0  0  0  0  0
    2.2816    5.2892    0.0000 C   0  0  0  0  0  0  0  0  0  0  0  0
    3.4398    4.6205    0.0000 C   0  0  0  0  0  0  0  0  0  0  0  0
    4.4127    3.7027    0.0000 C   0  0  0  0  0  0  0  0  0  0  0  0
    5.7732    2.8994    0.0000 C   0  0  0  0  0  0  0  0  0  0  0  0
  1  2  1  0
  2  3  1  0
  3  4  1  0
  4  5  1  0
  5  6  1  0
  6  7  1  0
  7  8  1  0
  8  9  1  0
  9 10  1  0
 10 11  1  0
 11 12  1  0
 12 13  1  0
 13 14  1  0
 14 15  1  0
 15 16  1  0
 16 17  1  0
 17 18  1  0
 18 19  1  0
 19 20  1  0
 20 21  1  0
 21 22  1  0
 22 23  1  0
 23 24  1  0
 24 25  1  0
 25 26  1  0
 26 27  1  0
 27 28  1  0
 28 29  1  0
 29 30  1  0
 30 31  1  0
 31 32  1  0
 32 33  1  0
 33 34  1  0
 34 35  1  0
 35 36  1  0
 36 37  1  0
 37 38  1  0
 38 39  1  0
 39 40  1  0
 40 41  1  0
 41 42  1  0
 42 43  1  0
 43 44  1  0
 44 45  1  0
 45 46  1  0
 46 47  1  0
 47 48  1  0
 48 49  1  0
 49 50  1  0
 50 51  1  0
 51 52  1  0
 52 53  1  0
 53 54  1  0
 54 55  1  0
 55 56  1  0
 56 57  1  0
 57 58  1  0
 58 59  1  0
 59 60  1  0
 60 61  1  0
 61 62  1  0
 62 63  1  0
 63 64  1  0
 64 65  1  0
 65 66  1  0
 66 67  1  0
 67 68  1  0
 68 69  1  0
 69 70  1  0
 70 71  1  0
 71 72  1  0
 72 73  1  0
 73 74  1  0
 74 75  1  0
 75 76  1  0
 76 77  1  0
 77 78  1  0
 78 79  1  0
 79 80  1  0
 80 81  1  0
 81 82  1  0
 82 83  1  0
 83 84  1  0
 84 85  1  0
 85 86  1  0
 86 87  1  0
 87 88  1  0
 88 89  1  0
 89 90  1  0
 90 91  1  0
 91 92  1  0
 92 93  1  0
 93 94  1  0
 94 95  1  0
 95 96  1  0
 96 97  1  0
 97 98  1  0
 98 99  1  0
 99100  1  0
100101  1  0
101102  1  0
102103  1  0
103104  1  0
104105  1  0
105106  1  0
106107  1  0
107108  1  0
108109  1  0
109110  1  0
110111  1  0
111112  1  0
112113  1  0
113114  1  0
114115  1  0
115116  1  0
116117  1  0
117118  1  0
118119  1  0
119120  1  0
120121  1  0
121  2  1  0
121 95  1  0
M  END
>  <Title>  (673) 
idAAXYgen10

$$$$

     RDKit          2D

  5  5  0  0  0  0  0  0  0  0999 V2000
    1.2760    0.0000    0.0000 C   0  0  0  0  0  0  0  0  0  0  0  0
    0.3943    1.2135    0.0000 C   0  0  0  0  0  0  0  0  0  0  0  0
   -1.0323    0.7500    0.0000 C   0  0  0  0  0  0  0  0  0  0  0  0
   -1.0323   -0.7500    0.0000 C   0  0  0  0  0  0  0  0  0  0  0  0
    0.3943   -1.2135    0.0000 C   0  0  0  0  0  0  0  0  0  0  0  0
  1  2  2  0
  2  3  1  0
  3  4  1  0
  4  5  1  0
  5  1  1  0
M  END
>  <Title>  (674) 
idAAXZgen10

$$$$

     RDKit          2D

 15 16  0  0  0  0  0  0  0  0999 V2000
    6.9299   -2.2639    0.0000 C   0  0  0  0  0  0  0  0  0  0  0  0
    5.4627   -1.9520    0.0000 C   0  0  0  0  0  0  0  0  0  0  0  0
    3.9955   -1.6402    0.0000 C   0  0  0  0  0  0  0  0  0  0  0  0
    3.5320   -0.2136    0.0000 O   0  0  0  0  0  0  0  0  0  0  0  0
    2.9918   -2.7549    0.0000 C   0  0  0  0  0  0  0  0  0  0  0  0
    1.5000   -2.5981    0.0000 C   0  0  0  0  0  0  0  0  0  0  0  0
    0.7500   -1.2990    0.0000 C   0  0  0  0  0  0  0  0  0  0  0  0
    1.5000    0.0000    0.0000 C   0  0  0  0  0  0  0  0  0  0  0  0
    0.7500    1.2990    0.0000 C   0  0  0  0  0  0  0  0  0  0  0  0
   -0.7500    1.2990    0.0000 C   0  0  0  0  0  0  0  0  0  0  0  0
   -1.5000    0.0000    0.0000 C   0  0  0  0  0  0  0  0  0  0  0  0
   -0.7500   -1.2990    0.0000 C   0  0  0  0  0  0  0  0  0  0  0  0
    0.8899   -3.9684    0.0000 C   0  0  0  0  0  0  0  0  0  0  0  0
    2.0046   -4.9721    0.0000 C   0  0  0  0  0  0  0  0  0  0  0  0
    3.3037   -4.2221    0.0000 C   0  0  0  0  0  0  0  0  0  0  0  0
  1  2  3  0
  2  3  1  0
  3  4  2  0
  3  5  1  0
  5  6  2  0
  6  7  1  0
  7  8  2  0
  8  9  1  0
  9 10  2  0
 10 11  1  0
 11 12  2  0
  6 13  1  0
 13 14  1  0
 14 15  2  0
 15  5  1  0
 12  7  1  0
M  END
>  <Title>  (675) 
idAAYAgen10

$$$$

     RDKit          2D

 31 31  0  0  0  0  0  0  0  0999 V2000
    7.4134    0.0000    0.0000 C   0  0  0  0  0  0  0  0  0  0  0  0
    7.2616    1.4923    0.0000 C   0  0  0  0  0  0  0  0  0  0  0  0
    6.8126    2.9235    0.0000 C   0  0  0  0  0  0  0  0  0  0  0  0
    6.0846    4.2350    0.0000 C   0  0  0  0  0  0  0  0  0  0  0  0
    5.1076    5.3732    0.0000 C   0  0  0  0  0  0  0  0  0  0  0  0
    3.9214    6.2913    0.0000 C   0  0  0  0  0  0  0  0  0  0  0  0
    2.5747    6.9519    0.0000 C   0  0  0  0  0  0  0  0  0  0  0  0
    1.1226    7.3279    0.0000 C   0  0  0  0  0  0  0  0  0  0  0  0
   -0.3755    7.4039    0.0000 C   0  0  0  0  0  0  0  0  0  0  0  0
   -1.8582    7.1767    0.0000 C   0  0  0  0  0  0  0  0  0  0  0  0
   -3.2648    6.6558    0.0000 C   0  0  0  0  0  0  0  0  0  0  0  0
   -4.5378    5.8623    0.0000 C   0  0  0  0  0  0  0  0  0  0  0  0
   -5.6250    4.8289    0.0000 C   0  0  0  0  0  0  0  0  0  0  0  0
   -6.4819    3.5977    0.0000 C   0  0  0  0  0  0  0  0  0  0  0  0
   -7.0734    2.2193    0.0000 C   0  0  0  0  0  0  0  0  0  0  0  0
   -7.3754    0.7500    0.0000 C   0  0  0  0  0  0  0  0  0  0  0  0
   -7.3754   -0.7500    0.0000 C   0  0  0  0  0  0  0  0  0  0  0  0
   -7.0734   -2.2193    0.0000 C   0  0  0  0  0  0  0  0  0  0  0  0
   -6.4819   -3.5977    0.0000 C   0  0  0  0  0  0  0  0  0  0  0  0
   -5.6250   -4.8289    0.0000 C   0  0  0  0  0  0  0  0  0  0  0  0
   -4.5378   -5.8623    0.0000 C   0  0  0  0  0  0  0  0  0  0  0  0
   -3.2648   -6.6558    0.0000 C   0  0  0  0  0  0  0  0  0  0  0  0
   -1.8582   -7.1767    0.0000 C   0  0  0  0  0  0  0  0  0  0  0  0
   -0.3755   -7.4039    0.0000 C   0  0  0  0  0  0  0  0  0  0  0  0
    1.1226   -7.3279    0.0000 C   0  0  0  0  0  0  0  0  0  0  0  0
    2.5747   -6.9519    0.0000 C   0  0  0  0  0  0  0  0  0  0  0  0
    3.9214   -6.2913    0.0000 C   0  0  0  0  0  0  0  0  0  0  0  0
    5.1076   -5.3732    0.0000 C   0  0  0  0  0  0  0  0  0  0  0  0
    6.0846   -4.2350    0.0000 C   0  0  0  0  0  0  0  0  0  0  0  0
    6.8126   -2.9235    0.0000 C   0  0  0  0  0  0  0  0  0  0  0  0
    7.2616   -1.4923    0.0000 C   0  0  0  0  0  0  0  0  0  0  0  0
  1  2  1  0
  2  3  1  0
  3  4  1  0
  4  5  1  0
  5  6  1  0
  6  7  1  0
  7  8  1  0
  8  9  1  0
  9 10  1  0
 10 11  1  0
 11 12  1  0
 12 13  1  0
 13 14  1  0
 14 15  1  0
 15 16  1  0
 16 17  1  0
 17 18  1  0
 18 19  1  0
 19 20  1  0
 20 21  1  0
 21 22  1  0
 22 23  1  0
 23 24  1  0
 24 25  1  0
 25 26  1  0
 26 27  1  0
 27 28  1  0
 28 29  1  0
 29 30  1  0
 30 31  1  0
 31  1  1  0
M  END
>  <Title>  (676) 
idAAYBgen10

$$$$

     RDKit          2D

  8  8  0  0  0  0  0  0  0  0999 V2000
    3.0000    0.0000    0.0000 C   0  0  0  0  0  0  0  0  0  0  0  0
    1.5000    0.0000    0.0000 C   0  0  0  0  0  0  0  0  0  0  0  0
    0.7500   -1.2990    0.0000 C   0  0  0  0  0  0  0  0  0  0  0  0
   -0.7500   -1.2990    0.0000 C   0  0  0  0  0  0  0  0  0  0  0  0
   -1.5000   -2.5981    0.0000 C   0  0  0  0  0  0  0  0  0  0  0  0
   -1.5000    0.0000    0.0000 C   0  0  0  0  0  0  0  0  0  0  0  0
   -0.7500    1.2990    0.0000 C   0  0  0  0  0  0  0  0  0  0  0  0
    0.7500    1.2990    0.0000 N   0  0  0  0  0  0  0  0  0  0  0  0
  1  2  1  0
  2  3  2  0
  3  4  1  0
  4  5  1  0
  4  6  1  0
  6  7  1  0
  7  8  2  0
  8  2  1  0
M  END
>  <Title>  (677) 
idAAYCgen10

$$$$

     RDKit          2D

 14 14  0  0  0  0  0  0  0  0999 V2000
   10.5000    0.0000    0.0000 C   0  0  0  0  0  0  0  0  0  0  0  0
    9.0000    0.0000    0.0000 C   0  0  0  0  0  0  0  0  0  0  0  0
    7.5000    0.0000    0.0000 C   0  0  0  0  0  0  0  0  0  0  0  0
    6.0000    0.0000    0.0000 C   0  0  0  0  0  0  0  0  0  0  0  0
    4.5000    0.0000    0.0000 C   0  0  0  0  0  0  0  0  0  0  0  0
    3.0000    0.0000    0.0000 C   0  0  0  0  0  0  0  0  0  0  0  0
    1.5000    0.0000    0.0000 C   0  0  0  0  0  0  0  0  0  0  0  0
    0.7500   -1.2990    0.0000 C   0  0  0  0  0  0  0  0  0  0  0  0
   -0.7500   -1.2990    0.0000 C   0  0  0  0  0  0  0  0  0  0  0  0
   -1.5000   -2.5981    0.0000 C   0  0  0  0  0  0  0  0  0  0  0  0
   -1.5000    0.0000    0.0000 C   0  0  0  0  0  0  0  0  0  0  0  0
   -0.7500    1.2990    0.0000 C   0  0  0  0  0  0  0  0  0  0  0  0
    0.7500    1.2990    0.0000 C   0  0  0  0  0  0  0  0  0  0  0  0
    1.5000    2.5981    0.0000 C   0  0  0  0  0  0  0  0  0  0  0  0
  1  2  3  0
  2  3  1  0
  3  4  3  0
  4  5  1  0
  5  6  3  0
  6  7  1  0
  7  8  2  0
  8  9  1  0
  9 10  1  0
  9 11  2  0
 11 12  1  0
 12 13  2  0
 13 14  1  0
 13  7  1  0
M  END
>  <Title>  (678) 
idAAYDgen10

$$$$

     RDKit          2D

 81 84  0  0  0  0  0  0  0  0999 V2000
   -5.6334   -0.6874    0.0000 C   0  0  0  0  0  0  0  0  0  0  0  0
   -5.1634   -2.1118    0.0000 C   0  0  0  0  0  0  0  0  0  0  0  0
   -6.5649   -2.6462    0.0000 C   0  0  0  0  0  0  0  0  0  0  0  0
   -7.9121   -3.3058    0.0000 C   0  0  0  0  0  0  0  0  0  0  0  0
   -9.1938   -4.0852    0.0000 C   0  0  0  0  0  0  0  0  0  0  0  0
  -10.3992   -4.9778    0.0000 C   0  0  0  0  0  0  0  0  0  0  0  0
  -11.5185   -5.9765    0.0000 C   0  0  0  0  0  0  0  0  0  0  0  0
  -12.5423   -7.0727    0.0000 C   0  0  0  0  0  0  0  0  0  0  0  0
  -13.4622   -8.2575    0.0000 C   0  0  0  0  0  0  0  0  0  0  0  0
  -14.2706   -9.5211    0.0000 C   0  0  0  0  0  0  0  0  0  0  0  0
  -14.9607  -10.8529    0.0000 C   0  0  0  0  0  0  0  0  0  0  0  0
  -15.5268  -12.2420    0.0000 C   0  0  0  0  0  0  0  0  0  0  0  0
  -15.9643  -13.6768    0.0000 C   0  0  0  0  0  0  0  0  0  0  0  0
  -16.2694  -15.1454    0.0000 C   0  0  0  0  0  0  0  0  0  0  0  0
  -16.4398  -16.6357    0.0000 C   0  0  0  0  0  0  0  0  0  0  0  0
  -16.4740  -18.1353    0.0000 C   0  0  0  0  0  0  0  0  0  0  0  0
  -16.3716  -19.6318    0.0000 C   0  0  0  0  0  0  0  0  0  0  0  0
  -16.1336  -21.1128    0.0000 C   0  0  0  0  0  0  0  0  0  0  0  0
  -15.7619  -22.5660    0.0000 C   0  0  0  0  0  0  0  0  0  0  0  0
  -15.2595  -23.9794    0.0000 C   0  0  0  0  0  0  0  0  0  0  0  0
  -14.6308  -25.3412    0.0000 C   0  0  0  0  0  0  0  0  0  0  0  0
  -13.8808  -26.6403    0.0000 C   0  0  0  0  0  0  0  0  0  0  0  0
  -13.0158  -27.8657    0.0000 C   0  0  0  0  0  0  0  0  0  0  0  0
  -12.0429  -29.0075    0.0000 C   0  0  0  0  0  0  0  0  0  0  0  0
  -10.9702  -30.0560    0.0000 C   0  0  0  0  0  0  0  0  0  0  0  0
   -9.8067  -31.0026    0.0000 C   0  0  0  0  0  0  0  0  0  0  0  0
   -8.5618  -31.8395    0.0000 C   0  0  0  0  0  0  0  0  0  0  0  0
   -7.2460  -32.5597    0.0000 C   0  0  0  0  0  0  0  0  0  0  0  0
   -5.8702  -33.1573    0.0000 C   0  0  0  0  0  0  0  0  0  0  0  0
   -4.4458  -33.6274    0.0000 C   0  0  0  0  0  0  0  0  0  0  0  0
   -2.9845  -33.9659    0.0000 C   0  0  0  0  0  0  0  0  0  0  0  0
   -1.4984  -34.1701    0.0000 C   0  0  0  0  0  0  0  0  0  0  0  0
   -0.0000  -34.2384    0.0000 C   0  0  0  0  0  0  0  0  0  0  0  0
    1.4984  -34.1701    0.0000 C   0  0  0  0  0  0  0  0  0  0  0  0
    2.9845  -33.9659    0.0000 C   0  0  0  0  0  0  0  0  0  0  0  0
    4.4458  -33.6274    0.0000 C   0  0  0  0  0  0  0  0  0  0  0  0
    5.8702  -33.1573    0.0000 C   0  0  0  0  0  0  0  0  0  0  0  0
    7.2460  -32.5597    0.0000 C   0  0  0  0  0  0  0  0  0  0  0  0
    8.5618  -31.8395    0.0000 C   0  0  0  0  0  0  0  0  0  0  0  0
    9.8067  -31.0026    0.0000 C   0  0  0  0  0  0  0  0  0  0  0  0
   10.9702  -30.0560    0.0000 C   0  0  0  0  0  0  0  0  0  0  0  0
   12.0429  -29.0075    0.0000 C   0  0  0  0  0  0  0  0  0  0  0  0
   13.0158  -27.8657    0.0000 C   0  0  0  0  0  0  0  0  0  0  0  0
   13.8808  -26.6403    0.0000 C   0  0  0  0  0  0  0  0  0  0  0  0
   14.6308  -25.3412    0.0000 C   0  0  0  0  0  0  0  0  0  0  0  0
   15.2595  -23.9794    0.0000 C   0  0  0  0  0  0  0  0  0  0  0  0
   15.7619  -22.5660    0.0000 C   0  0  0  0  0  0  0  0  0  0  0  0
   16.1336  -21.1128    0.0000 C   0  0  0  0  0  0  0  0  0  0  0  0
   16.3716  -19.6318    0.0000 C   0  0  0  0  0  0  0  0  0  0  0  0
   16.4740  -18.1353    0.0000 C   0  0  0  0  0  0  0  0  0  0  0  0
   16.4398  -16.6357    0.0000 C   0  0  0  0  0  0  0  0  0  0  0  0
   16.2694  -15.1454    0.0000 C   0  0  0  0  0  0  0  0  0  0  0  0
   15.9643  -13.6768    0.0000 C   0  0  0  0  0  0  0  0  0  0  0  0
   15.5268  -12.2420    0.0000 C   0  0  0  0  0  0  0  0  0  0  0  0
   14.9607  -10.8529    0.0000 C   0  0  0  0  0  0  0  0  0  0  0  0
   14.2706   -9.5211    0.0000 C   0  0  0  0  0  0  0  0  0  0  0  0
   13.4622   -8.2575    0.0000 C   0  0  0  0  0  0  0  0  0  0  0  0
   12.5423   -7.0727    0.0000 C   0  0  0  0  0  0  0  0  0  0  0  0
   11.5185   -5.9765    0.0000 C   0  0  0  0  0  0  0  0  0  0  0  0
   10.3992   -4.9778    0.0000 C   0  0  0  0  0  0  0  0  0  0  0  0
    9.1938   -4.0852    0.0000 C   0  0  0  0  0  0  0  0  0  0  0  0
    7.9121   -3.3058    0.0000 C   0  0  0  0  0  0  0  0  0  0  0  0
    6.5649   -2.6462    0.0000 C   0  0  0  0  0  0  0  0  0  0  0  0
    5.1634   -2.1118    0.0000 C   0  0  0  0  0  0  0  0  0  0  0  0
    3.7190   -1.7071    0.0000 C   0  0  0  0  0  0  0  0  0  0  0  0
    3.9165   -3.1941    0.0000 C   0  0  0  0  0  0  0  0  0  0  0  0
    2.5633   -3.8414    0.0000 C   0  0  0  0  0  0  0  0  0  0  0  0
    1.5295   -2.7545    0.0000 C   0  0  0  0  0  0  0  0  0  0  0  0
    2.2438   -1.4354    0.0000 C   0  0  0  0  0  0  0  0  0  0  0  0
    0.7500   -1.2990    0.0000 C   0  0  0  0  0  0  0  0  0  0  0  0
    1.5000    0.0000    0.0000 C   0  0  0  0  0  0  0  0  0  0  0  0
    0.7500    1.2990    0.0000 C   0  0  0  0  0  0  0  0  0  0  0  0
   -0.7500    1.2990    0.0000 C   0  0  0  0  0  0  0  0  0  0  0  0
   -1.5000    0.0000    0.0000 C   0  0  0  0  0  0  0  0  0  0  0  0
   -0.7500   -1.2990    0.0000 C   0  0  0  0  0  0  0  0  0  0  0  0
   -2.2438   -1.4354    0.0000 C   0  0  0  0  0  0  0  0  0  0  0  0
   -1.2709   -2.5772    0.0000 C   0  0  0  0  0  0  0  0  0  0  0  0
   -1.7732   -3.9905    0.0000 C   0  0  0  0  0  0  0  0  0  0  0  0
   -3.2484   -4.2622    0.0000 C   0  0  0  0  0  0  0  0  0  0  0  0
   -4.2213   -3.1205    0.0000 C   0  0  0  0  0  0  0  0  0  0  0  0
   -3.7190   -1.7071    0.0000 C   0  0  0  0  0  0  0  0  0  0  0  0
  1  2  1  0
  2  3  1  0
  3  4  1  0
  4  5  1  0
  5  6  1  0
  6  7  2  0
  7  8  1  0
  8  9  2  0
  9 10  1  0
 10 11  2  0
 11 12  1  0
 12 13  2  0
 13 14  1  0
 14 15  2  0
 15 16  1  0
 16 17  2  0
 17 18  1  0
 18 19  2  0
 19 20  1  0
 20 21  2  0
 21 22  1  0
 22 23  2  0
 23 24  1  0
 24 25  2  0
 25 26  1  0
 26 27  2  0
 27 28  1  0
 28 29  2  0
 29 30  1  0
 30 31  2  0
 31 32  1  0
 32 33  2  0
 33 34  1  0
 34 35  2  0
 35 36  1  0
 36 37  2  0
 37 38  1  0
 38 39  2  0
 39 40  1  0
 40 41  2  0
 41 42  1  0
 42 43  2  0
 43 44  1  0
 44 45  2  0
 45 46  1  0
 46 47  2  0
 47 48  1  0
 48 49  2  0
 49 50  1  0
 50 51  2  0
 51 52  1  0
 52 53  2  0
 53 54  1  0
 54 55  2  0
 55 56  1  0
 56 57  2  0
 57 58  1  0
 58 59  2  0
 59 60  1  0
 60 61  2  0
 61 62  1  0
 62 63  2  0
 63 64  1  0
 64 65  2  0
 65 66  1  0
 66 67  2  0
 67 68  1  0
 68 69  2  0
 69 70  1  0
 70 71  2  0
 71 72  1  0
 72 73  2  0
 73 74  1  0
 74 75  2  0
 75 76  1  0
 76 77  2  0
 77 78  1  0
 78 79  2  0
 79 80  1  0
 80 81  2  0
 81  2  1  0
 69 65  1  0
 75 70  1  0
 81 76  1  0
M  END
>  <Title>  (679) 
idAAYEgen10

$$$$

     RDKit          2D

 99100  0  0  0  0  0  0  0  0999 V2000
   -2.3968    0.0932    0.0000 C   0  0  0  0  0  0  0  0  0  0  0  0
   -2.2467   -1.3992    0.0000 C   0  0  0  0  0  0  0  0  0  0  0  0
   -3.7333   -1.5992    0.0000 C   0  0  0  0  0  0  0  0  0  0  0  0
   -5.2032   -1.8979    0.0000 C   0  0  0  0  0  0  0  0  0  0  0  0
   -6.6499   -2.2942    0.0000 C   0  0  0  0  0  0  0  0  0  0  0  0
   -8.0669   -2.7863    0.0000 C   0  0  0  0  0  0  0  0  0  0  0  0
   -9.4479   -3.3719    0.0000 C   0  0  0  0  0  0  0  0  0  0  0  0
  -10.7867   -4.0484    0.0000 C   0  0  0  0  0  0  0  0  0  0  0  0
  -12.0773   -4.8128    0.0000 C   0  0  0  0  0  0  0  0  0  0  0  0
  -13.3139   -5.6617    0.0000 C   0  0  0  0  0  0  0  0  0  0  0  0
  -14.4911   -6.5913    0.0000 C   0  0  0  0  0  0  0  0  0  0  0  0
  -15.6036   -7.5975    0.0000 C   0  0  0  0  0  0  0  0  0  0  0  0
  -16.6464   -8.6757    0.0000 C   0  0  0  0  0  0  0  0  0  0  0  0
  -17.6148   -9.8212    0.0000 C   0  0  0  0  0  0  0  0  0  0  0  0
  -18.5046  -11.0288    0.0000 C   0  0  0  0  0  0  0  0  0  0  0  0
  -19.3117  -12.2932    0.0000 C   0  0  0  0  0  0  0  0  0  0  0  0
  -20.0326  -13.6086    0.0000 C   0  0  0  0  0  0  0  0  0  0  0  0
  -20.6640  -14.9692    0.0000 C   0  0  0  0  0  0  0  0  0  0  0  0
  -21.2031  -16.3690    0.0000 C   0  0  0  0  0  0  0  0  0  0  0  0
  -21.6475  -17.8017    0.0000 C   0  0  0  0  0  0  0  0  0  0  0  0
  -21.9953  -19.2608    0.0000 C   0  0  0  0  0  0  0  0  0  0  0  0
  -22.2448  -20.7399    0.0000 C   0  0  0  0  0  0  0  0  0  0  0  0
  -22.3949  -22.2324    0.0000 C   0  0  0  0  0  0  0  0  0  0  0  0
  -22.4450  -23.7315    0.0000 C   0  0  0  0  0  0  0  0  0  0  0  0
  -22.3949  -25.2307    0.0000 C   0  0  0  0  0  0  0  0  0  0  0  0
  -22.2448  -26.7232    0.0000 C   0  0  0  0  0  0  0  0  0  0  0  0
  -21.9953  -28.2023    0.0000 C   0  0  0  0  0  0  0  0  0  0  0  0
  -21.6475  -29.6614    0.0000 C   0  0  0  0  0  0  0  0  0  0  0  0
  -21.2031  -31.0941    0.0000 C   0  0  0  0  0  0  0  0  0  0  0  0
  -20.6640  -32.4938    0.0000 C   0  0  0  0  0  0  0  0  0  0  0  0
  -20.0326  -33.8545    0.0000 C   0  0  0  0  0  0  0  0  0  0  0  0
  -19.3117  -35.1699    0.0000 C   0  0  0  0  0  0  0  0  0  0  0  0
  -18.5046  -36.4342    0.0000 C   0  0  0  0  0  0  0  0  0  0  0  0
  -17.6148  -37.6418    0.0000 C   0  0  0  0  0  0  0  0  0  0  0  0
  -16.6464  -38.7873    0.0000 C   0  0  0  0  0  0  0  0  0  0  0  0
  -15.6036  -39.8655    0.0000 C   0  0  0  0  0  0  0  0  0  0  0  0
  -14.4911  -40.8717    0.0000 C   0  0  0  0  0  0  0  0  0  0  0  0
  -13.3139  -41.8013    0.0000 C   0  0  0  0  0  0  0  0  0  0  0  0
  -12.0773  -42.6503    0.0000 C   0  0  0  0  0  0  0  0  0  0  0  0
  -10.7867  -43.4147    0.0000 C   0  0  0  0  0  0  0  0  0  0  0  0
   -9.4479  -44.0912    0.0000 C   0  0  0  0  0  0  0  0  0  0  0  0
   -8.0669  -44.6768    0.0000 C   0  0  0  0  0  0  0  0  0  0  0  0
   -6.6499  -45.1688    0.0000 C   0  0  0  0  0  0  0  0  0  0  0  0
   -5.2032  -45.5651    0.0000 C   0  0  0  0  0  0  0  0  0  0  0  0
   -3.7333  -45.8639    0.0000 C   0  0  0  0  0  0  0  0  0  0  0  0
   -2.2467  -46.0638    0.0000 C   0  0  0  0  0  0  0  0  0  0  0  0
   -0.7500  -46.1640    0.0000 C   0  0  0  0  0  0  0  0  0  0  0  0
    0.7500  -46.1640    0.0000 C   0  0  0  0  0  0  0  0  0  0  0  0
    2.2467  -46.0638    0.0000 C   0  0  0  0  0  0  0  0  0  0  0  0
    3.7333  -45.8639    0.0000 C   0  0  0  0  0  0  0  0  0  0  0  0
    5.2032  -45.5651    0.0000 C   0  0  0  0  0  0  0  0  0  0  0  0
    6.6499  -45.1688    0.0000 C   0  0  0  0  0  0  0  0  0  0  0  0
    8.0669  -44.6768    0.0000 C   0  0  0  0  0  0  0  0  0  0  0  0
    9.4479  -44.0912    0.0000 C   0  0  0  0  0  0  0  0  0  0  0  0
   10.7867  -43.4147    0.0000 C   0  0  0  0  0  0  0  0  0  0  0  0
   12.0773  -42.6503    0.0000 C   0  0  0  0  0  0  0  0  0  0  0  0
   13.3139  -41.8013    0.0000 C   0  0  0  0  0  0  0  0  0  0  0  0
   14.4911  -40.8717    0.0000 C   0  0  0  0  0  0  0  0  0  0  0  0
   15.6036  -39.8655    0.0000 C   0  0  0  0  0  0  0  0  0  0  0  0
   16.6464  -38.7873    0.0000 C   0  0  0  0  0  0  0  0  0  0  0  0
   17.6148  -37.6418    0.0000 C   0  0  0  0  0  0  0  0  0  0  0  0
   18.5046  -36.4342    0.0000 C   0  0  0  0  0  0  0  0  0  0  0  0
   19.3117  -35.1699    0.0000 C   0  0  0  0  0  0  0  0  0  0  0  0
   20.0326  -33.8545    0.0000 C   0  0  0  0  0  0  0  0  0  0  0  0
   20.6640  -32.4938    0.0000 C   0  0  0  0  0  0  0  0  0  0  0  0
   21.2031  -31.0941    0.0000 C   0  0  0  0  0  0  0  0  0  0  0  0
   21.6475  -29.6614    0.0000 C   0  0  0  0  0  0  0  0  0  0  0  0
   21.9953  -28.2023    0.0000 C   0  0  0  0  0  0  0  0  0  0  0  0
   22.2448  -26.7232    0.0000 C   0  0  0  0  0  0  0  0  0  0  0  0
   22.3949  -25.2307    0.0000 C   0  0  0  0  0  0  0  0  0  0  0  0
   22.4450  -23.7315    0.0000 C   0  0  0  0  0  0  0  0  0  0  0  0
   22.3949  -22.2324    0.0000 C   0  0  0  0  0  0  0  0  0  0  0  0
   22.2448  -20.7399    0.0000 C   0  0  0  0  0  0  0  0  0  0  0  0
   21.9953  -19.2608    0.0000 C   0  0  0  0  0  0  0  0  0  0  0  0
   21.6475  -17.8017    0.0000 C   0  0  0  0  0  0  0  0  0  0  0  0
   21.2031  -16.3690    0.0000 C   0  0  0  0  0  0  0  0  0  0  0  0
   20.6640  -14.9692    0.0000 C   0  0  0  0  0  0  0  0  0  0  0  0
   20.0326  -13.6086    0.0000 C   0  0  0  0  0  0  0  0  0  0  0  0
   19.3117  -12.2932    0.0000 C   0  0  0  0  0  0  0  0  0  0  0  0
   18.5046  -11.0288    0.0000 C   0  0  0  0  0  0  0  0  0  0  0  0
   17.6148   -9.8212    0.0000 C   0  0  0  0  0  0  0  0  0  0  0  0
   16.6464   -8.6757    0.0000 C   0  0  0  0  0  0  0  0  0  0  0  0
   15.6036   -7.5975    0.0000 C   0  0  0  0  0  0  0  0  0  0  0  0
   14.4911   -6.5913    0.0000 C   0  0  0  0  0  0  0  0  0  0  0  0
   13.3139   -5.6617    0.0000 C   0  0  0  0  0  0  0  0  0  0  0  0
   12.0773   -4.8128    0.0000 C   0  0  0  0  0  0  0  0  0  0  0  0
   10.7867   -4.0484    0.0000 C   0  0  0  0  0  0  0  0  0  0  0  0
    9.4479   -3.3719    0.0000 C   0  0  0  0  0  0  0  0  0  0  0  0
    8.0669   -2.7863    0.0000 C   0  0  0  0  0  0  0  0  0  0  0  0
    6.6499   -2.2942    0.0000 C   0  0  0  0  0  0  0  0  0  0  0  0
    5.2032   -1.8979    0.0000 C   0  0  0  0  0  0  0  0  0  0  0  0
    3.7333   -1.5992    0.0000 C   0  0  0  0  0  0  0  0  0  0  0  0
    2.2467   -1.3992    0.0000 C   0  0  0  0  0  0  0  0  0  0  0  0
    0.7500   -1.2990    0.0000 C   0  0  0  0  0  0  0  0  0  0  0  0
    1.5000    0.0000    0.0000 C   0  0  0  0  0  0  0  0  0  0  0  0
    0.7500    1.2990    0.0000 C   0  0  0  0  0  0  0  0  0  0  0  0
   -0.7500    1.2990    0.0000 C   0  0  0  0  0  0  0  0  0  0  0  0
   -1.5000    0.0000    0.0000 C   0  0  0  0  0  0  0  0  0  0  0  0
   -0.7500   -1.2990    0.0000 C   0  0  0  0  0  0  0  0  0  0  0  0
  1  2  1  0
  2  3  1  0
  3  4  1  0
  4  5  1  0
  5  6  1  0
  6  7  1  0
  7  8  1  0
  8  9  1  0
  9 10  1  0
 10 11  1  0
 11 12  1  0
 12 13  1  0
 13 14  1  0
 14 15  1  0
 15 16  1  0
 16 17  1  0
 17 18  1  0
 18 19  1  0
 19 20  1  0
 20 21  1  0
 21 22  1  0
 22 23  1  0
 23 24  1  0
 24 25  1  0
 25 26  1  0
 26 27  1  0
 27 28  1  0
 28 29  1  0
 29 30  1  0
 30 31  1  0
 31 32  1  0
 32 33  1  0
 33 34  1  0
 34 35  1  0
 35 36  1  0
 36 37  1  0
 37 38  1  0
 38 39  1  0
 39 40  1  0
 40 41  1  0
 41 42  1  0
 42 43  1  0
 43 44  1  0
 44 45  1  0
 45 46  1  0
 46 47  1  0
 47 48  1  0
 48 49  1  0
 49 50  1  0
 50 51  1  0
 51 52  1  0
 52 53  1  0
 53 54  1  0
 54 55  1  0
 55 56  1  0
 56 57  1  0
 57 58  1  0
 58 59  1  0
 59 60  1  0
 60 61  1  0
 61 62  1  0
 62 63  1  0
 63 64  1  0
 64 65  1  0
 65 66  1  0
 66 67  1  0
 67 68  1  0
 68 69  1  0
 69 70  1  0
 70 71  1  0
 71 72  1  0
 72 73  1  0
 73 74  1  0
 74 75  1  0
 75 76  1  0
 76 77  1  0
 77 78  1  0
 78 79  1  0
 79 80  1  0
 80 81  1  0
 81 82  1  0
 82 83  1  0
 83 84  1  0
 84 85  1  0
 85 86  1  0
 86 87  1  0
 87 88  1  0
 88 89  1  0
 89 90  1  0
 90 91  1  0
 91 92  1  0
 92 93  1  0
 93 94  1  0
 94 95  2  0
 95 96  1  0
 96 97  2  0
 97 98  1  0
 98 99  2  0
 99  2  1  0
 99 94  1  0
M  END
>  <Title>  (680) 
idAAYFgen10

$$$$

     RDKit          2D

  7  7  0  0  0  0  0  0  0  0999 V2000
    3.5260   -1.2990    0.0000 C   0  0  0  0  0  0  0  0  0  0  0  0
    2.7760    0.0000    0.0000 O   0  0  0  0  0  0  0  0  0  0  0  0
    1.2760    0.0000    0.0000 C   0  0  0  0  0  0  0  0  0  0  0  0
    0.3943    1.2135    0.0000 C   0  0  0  0  0  0  0  0  0  0  0  0
   -1.0323    0.7500    0.0000 C   0  0  0  0  0  0  0  0  0  0  0  0
   -1.0323   -0.7500    0.0000 C   0  0  0  0  0  0  0  0  0  0  0  0
    0.3943   -1.2135    0.0000 C   0  0  0  0  0  0  0  0  0  0  0  0
  1  2  1  0
  2  3  1  0
  3  4  2  0
  4  5  1  0
  5  6  2  0
  6  7  1  0
  7  3  1  0
M  END
>  <Title>  (681) 
idAAYGgen10

$$$$

     RDKit          2D

 70 70  0  0  0  0  0  0  0  0999 V2000
   17.9782    0.0000    0.0000 C   0  0  0  0  0  0  0  0  0  0  0  0
   16.4782    0.0000    0.0000 C   0  0  0  0  0  0  0  0  0  0  0  0
   16.4100    1.4984    0.0000 C   0  0  0  0  0  0  0  0  0  0  0  0
   16.2057    2.9845    0.0000 C   0  0  0  0  0  0  0  0  0  0  0  0
   15.8672    4.4458    0.0000 C   0  0  0  0  0  0  0  0  0  0  0  0
   15.3972    5.8702    0.0000 C   0  0  0  0  0  0  0  0  0  0  0  0
   14.7996    7.2460    0.0000 C   0  0  0  0  0  0  0  0  0  0  0  0
   14.0793    8.5618    0.0000 C   0  0  0  0  0  0  0  0  0  0  0  0
   13.2424    9.8067    0.0000 C   0  0  0  0  0  0  0  0  0  0  0  0
   12.2958   10.9702    0.0000 C   0  0  0  0  0  0  0  0  0  0  0  0
   11.2473   12.0429    0.0000 C   0  0  0  0  0  0  0  0  0  0  0  0
   10.1056   13.0158    0.0000 C   0  0  0  0  0  0  0  0  0  0  0  0
    8.8801   13.8808    0.0000 C   0  0  0  0  0  0  0  0  0  0  0  0
    7.5811   14.6308    0.0000 C   0  0  0  0  0  0  0  0  0  0  0  0
    6.2192   15.2595    0.0000 C   0  0  0  0  0  0  0  0  0  0  0  0
    4.8058   15.7619    0.0000 C   0  0  0  0  0  0  0  0  0  0  0  0
    3.3526   16.1336    0.0000 C   0  0  0  0  0  0  0  0  0  0  0  0
    1.8716   16.3716    0.0000 C   0  0  0  0  0  0  0  0  0  0  0  0
    0.3751   16.4740    0.0000 C   0  0  0  0  0  0  0  0  0  0  0  0
   -1.1245   16.4398    0.0000 C   0  0  0  0  0  0  0  0  0  0  0  0
   -2.6148   16.2694    0.0000 C   0  0  0  0  0  0  0  0  0  0  0  0
   -4.0834   15.9643    0.0000 C   0  0  0  0  0  0  0  0  0  0  0  0
   -5.5182   15.5268    0.0000 C   0  0  0  0  0  0  0  0  0  0  0  0
   -6.9073   14.9607    0.0000 C   0  0  0  0  0  0  0  0  0  0  0  0
   -8.2391   14.2706    0.0000 C   0  0  0  0  0  0  0  0  0  0  0  0
   -9.5027   13.4622    0.0000 C   0  0  0  0  0  0  0  0  0  0  0  0
  -10.6875   12.5423    0.0000 C   0  0  0  0  0  0  0  0  0  0  0  0
  -11.7837   11.5185    0.0000 C   0  0  0  0  0  0  0  0  0  0  0  0
  -12.7823   10.3992    0.0000 C   0  0  0  0  0  0  0  0  0  0  0  0
  -13.6750    9.1938    0.0000 C   0  0  0  0  0  0  0  0  0  0  0  0
  -14.4544    7.9121    0.0000 C   0  0  0  0  0  0  0  0  0  0  0  0
  -15.1140    6.5649    0.0000 C   0  0  0  0  0  0  0  0  0  0  0  0
  -15.6484    5.1634    0.0000 C   0  0  0  0  0  0  0  0  0  0  0  0
  -16.0531    3.7190    0.0000 C   0  0  0  0  0  0  0  0  0  0  0  0
  -16.3248    2.2438    0.0000 C   0  0  0  0  0  0  0  0  0  0  0  0
  -16.4612    0.7500    0.0000 C   0  0  0  0  0  0  0  0  0  0  0  0
  -16.4612   -0.7500    0.0000 C   0  0  0  0  0  0  0  0  0  0  0  0
  -16.3248   -2.2438    0.0000 C   0  0  0  0  0  0  0  0  0  0  0  0
  -16.0531   -3.7190    0.0000 C   0  0  0  0  0  0  0  0  0  0  0  0
  -15.6484   -5.1634    0.0000 C   0  0  0  0  0  0  0  0  0  0  0  0
  -15.1140   -6.5649    0.0000 C   0  0  0  0  0  0  0  0  0  0  0  0
  -14.4544   -7.9121    0.0000 C   0  0  0  0  0  0  0  0  0  0  0  0
  -13.6750   -9.1938    0.0000 C   0  0  0  0  0  0  0  0  0  0  0  0
  -12.7823  -10.3992    0.0000 C   0  0  0  0  0  0  0  0  0  0  0  0
  -11.7837  -11.5185    0.0000 C   0  0  0  0  0  0  0  0  0  0  0  0
  -10.6875  -12.5423    0.0000 C   0  0  0  0  0  0  0  0  0  0  0  0
   -9.5027  -13.4622    0.0000 C   0  0  0  0  0  0  0  0  0  0  0  0
   -8.2391  -14.2706    0.0000 C   0  0  0  0  0  0  0  0  0  0  0  0
   -6.9073  -14.9607    0.0000 C   0  0  0  0  0  0  0  0  0  0  0  0
   -5.5182  -15.5268    0.0000 C   0  0  0  0  0  0  0  0  0  0  0  0
   -4.0834  -15.9643    0.0000 C   0  0  0  0  0  0  0  0  0  0  0  0
   -2.6148  -16.2694    0.0000 C   0  0  0  0  0  0  0  0  0  0  0  0
   -1.1245  -16.4398    0.0000 C   0  0  0  0  0  0  0  0  0  0  0  0
    0.3751  -16.4740    0.0000 C   0  0  0  0  0  0  0  0  0  0  0  0
    1.8716  -16.3716    0.0000 C   0  0  0  0  0  0  0  0  0  0  0  0
    3.3526  -16.1336    0.0000 C   0  0  0  0  0  0  0  0  0  0  0  0
    4.8058  -15.7619    0.0000 C   0  0  0  0  0  0  0  0  0  0  0  0
    6.2192  -15.2595    0.0000 C   0  0  0  0  0  0  0  0  0  0  0  0
    7.5811  -14.6308    0.0000 C   0  0  0  0  0  0  0  0  0  0  0  0
    8.8801  -13.8808    0.0000 C   0  0  0  0  0  0  0  0  0  0  0  0
   10.1056  -13.0158    0.0000 C   0  0  0  0  0  0  0  0  0  0  0  0
   11.2473  -12.0429    0.0000 C   0  0  0  0  0  0  0  0  0  0  0  0
   12.2958  -10.9702    0.0000 C   0  0  0  0  0  0  0  0  0  0  0  0
   13.2424   -9.8067    0.0000 C   0  0  0  0  0  0  0  0  0  0  0  0
   14.0793   -8.5618    0.0000 C   0  0  0  0  0  0  0  0  0  0  0  0
   14.7996   -7.2460    0.0000 C   0  0  0  0  0  0  0  0  0  0  0  0
   15.3972   -5.8702    0.0000 C   0  0  0  0  0  0  0  0  0  0  0  0
   15.8672   -4.4458    0.0000 C   0  0  0  0  0  0  0  0  0  0  0  0
   16.2057   -2.9845    0.0000 C   0  0  0  0  0  0  0  0  0  0  0  0
   16.4100   -1.4984    0.0000 C   0  0  0  0  0  0  0  0  0  0  0  0
  1  2  1  0
  2  3  1  0
  3  4  2  0
  4  5  1  0
  5  6  2  0
  6  7  1  0
  7  8  2  0
  8  9  1  0
  9 10  2  0
 10 11  1  0
 11 12  2  0
 12 13  1  0
 13 14  2  0
 14 15  1  0
 15 16  2  0
 16 17  1  0
 17 18  2  0
 18 19  1  0
 19 20  2  0
 20 21  1  0
 21 22  2  0
 22 23  1  0
 23 24  2  0
 24 25  1  0
 25 26  2  0
 26 27  1  0
 27 28  2  0
 28 29  1  0
 29 30  2  0
 30 31  1  0
 31 32  2  0
 32 33  1  0
 33 34  2  0
 34 35  1  0
 35 36  2  0
 36 37  1  0
 37 38  2  0
 38 39  1  0
 39 40  2  0
 40 41  1  0
 41 42  2  0
 42 43  1  0
 43 44  2  0
 44 45  1  0
 45 46  2  0
 46 47  1  0
 47 48  2  0
 48 49  1  0
 49 50  2  0
 50 51  1  0
 51 52  2  0
 52 53  1  0
 53 54  2  0
 54 55  1  0
 55 56  2  0
 56 57  1  0
 57 58  2  0
 58 59  1  0
 59 60  2  0
 60 61  1  0
 61 62  2  0
 62 63  1  0
 63 64  2  0
 64 65  1  0
 65 66  2  0
 66 67  1  0
 67 68  1  0
 68 69  1  0
 69 70  1  0
 70  2  1  0
M  END
>  <Title>  (682) 
idAAYHgen10

$$$$

     RDKit          2D

 99 99  0  0  0  0  0  0  0  0999 V2000
   24.8998    0.0000    0.0000 C   0  0  0  0  0  0  0  0  0  0  0  0
   23.3998    0.0000    0.0000 C   0  0  0  0  0  0  0  0  0  0  0  0
   23.3517   -1.4992    0.0000 C   0  0  0  0  0  0  0  0  0  0  0  0
   23.2077   -2.9923    0.0000 C   0  0  0  0  0  0  0  0  0  0  0  0
   22.9683   -4.4731    0.0000 C   0  0  0  0  0  0  0  0  0  0  0  0
   22.6345   -5.9355    0.0000 C   0  0  0  0  0  0  0  0  0  0  0  0
   22.2077   -7.3735    0.0000 C   0  0  0  0  0  0  0  0  0  0  0  0
   21.6897   -8.7812    0.0000 C   0  0  0  0  0  0  0  0  0  0  0  0
   21.0825  -10.1528    0.0000 C   0  0  0  0  0  0  0  0  0  0  0  0
   20.3887  -11.4827    0.0000 C   0  0  0  0  0  0  0  0  0  0  0  0
   19.6111  -12.7654    0.0000 C   0  0  0  0  0  0  0  0  0  0  0  0
   18.7529  -13.9957    0.0000 C   0  0  0  0  0  0  0  0  0  0  0  0
   17.8177  -15.1684    0.0000 C   0  0  0  0  0  0  0  0  0  0  0  0
   16.8092  -16.2788    0.0000 C   0  0  0  0  0  0  0  0  0  0  0  0
   15.7317  -17.3223    0.0000 C   0  0  0  0  0  0  0  0  0  0  0  0
   14.5895  -18.2947    0.0000 C   0  0  0  0  0  0  0  0  0  0  0  0
   13.3874  -19.1919    0.0000 C   0  0  0  0  0  0  0  0  0  0  0  0
   12.1303  -20.0102    0.0000 C   0  0  0  0  0  0  0  0  0  0  0  0
   10.8233  -20.7462    0.0000 C   0  0  0  0  0  0  0  0  0  0  0  0
    9.4718  -21.3971    0.0000 C   0  0  0  0  0  0  0  0  0  0  0  0
    8.0815  -21.9600    0.0000 C   0  0  0  0  0  0  0  0  0  0  0  0
    6.6579  -22.4326    0.0000 C   0  0  0  0  0  0  0  0  0  0  0  0
    5.2069  -22.8131    0.0000 C   0  0  0  0  0  0  0  0  0  0  0  0
    3.7346  -23.0998    0.0000 C   0  0  0  0  0  0  0  0  0  0  0  0
    2.2469  -23.2917    0.0000 C   0  0  0  0  0  0  0  0  0  0  0  0
    0.7500  -23.3878    0.0000 C   0  0  0  0  0  0  0  0  0  0  0  0
   -0.7500  -23.3878    0.0000 C   0  0  0  0  0  0  0  0  0  0  0  0
   -2.2469  -23.2917    0.0000 C   0  0  0  0  0  0  0  0  0  0  0  0
   -3.7346  -23.0998    0.0000 C   0  0  0  0  0  0  0  0  0  0  0  0
   -5.2069  -22.8131    0.0000 C   0  0  0  0  0  0  0  0  0  0  0  0
   -6.6579  -22.4326    0.0000 C   0  0  0  0  0  0  0  0  0  0  0  0
   -8.0815  -21.9600    0.0000 C   0  0  0  0  0  0  0  0  0  0  0  0
   -9.4718  -21.3971    0.0000 C   0  0  0  0  0  0  0  0  0  0  0  0
  -10.8233  -20.7462    0.0000 C   0  0  0  0  0  0  0  0  0  0  0  0
  -12.1303  -20.0102    0.0000 C   0  0  0  0  0  0  0  0  0  0  0  0
  -13.3874  -19.1919    0.0000 C   0  0  0  0  0  0  0  0  0  0  0  0
  -14.5895  -18.2947    0.0000 C   0  0  0  0  0  0  0  0  0  0  0  0
  -15.7317  -17.3223    0.0000 C   0  0  0  0  0  0  0  0  0  0  0  0
  -16.8092  -16.2788    0.0000 C   0  0  0  0  0  0  0  0  0  0  0  0
  -17.8177  -15.1684    0.0000 C   0  0  0  0  0  0  0  0  0  0  0  0
  -18.7529  -13.9957    0.0000 C   0  0  0  0  0  0  0  0  0  0  0  0
  -19.6111  -12.7654    0.0000 C   0  0  0  0  0  0  0  0  0  0  0  0
  -20.3887  -11.4827    0.0000 C   0  0  0  0  0  0  0  0  0  0  0  0
  -21.0825  -10.1528    0.0000 C   0  0  0  0  0  0  0  0  0  0  0  0
  -21.6897   -8.7812    0.0000 C   0  0  0  0  0  0  0  0  0  0  0  0
  -22.2077   -7.3735    0.0000 C   0  0  0  0  0  0  0  0  0  0  0  0
  -22.6345   -5.9355    0.0000 C   0  0  0  0  0  0  0  0  0  0  0  0
  -22.9683   -4.4731    0.0000 C   0  0  0  0  0  0  0  0  0  0  0  0
  -23.2077   -2.9923    0.0000 C   0  0  0  0  0  0  0  0  0  0  0  0
  -23.3517   -1.4992    0.0000 C   0  0  0  0  0  0  0  0  0  0  0  0
  -23.3998    0.0000    0.0000 C   0  0  0  0  0  0  0  0  0  0  0  0
  -23.3517    1.4992    0.0000 C   0  0  0  0  0  0  0  0  0  0  0  0
  -23.2077    2.9923    0.0000 C   0  0  0  0  0  0  0  0  0  0  0  0
  -22.9683    4.4731    0.0000 C   0  0  0  0  0  0  0  0  0  0  0  0
  -22.6345    5.9355    0.0000 C   0  0  0  0  0  0  0  0  0  0  0  0
  -22.2077    7.3735    0.0000 C   0  0  0  0  0  0  0  0  0  0  0  0
  -21.6897    8.7812    0.0000 C   0  0  0  0  0  0  0  0  0  0  0  0
  -21.0825   10.1528    0.0000 C   0  0  0  0  0  0  0  0  0  0  0  0
  -20.3887   11.4827    0.0000 C   0  0  0  0  0  0  0  0  0  0  0  0
  -19.6111   12.7654    0.0000 C   0  0  0  0  0  0  0  0  0  0  0  0
  -18.7529   13.9957    0.0000 C   0  0  0  0  0  0  0  0  0  0  0  0
  -17.8177   15.1684    0.0000 C   0  0  0  0  0  0  0  0  0  0  0  0
  -16.8092   16.2788    0.0000 C   0  0  0  0  0  0  0  0  0  0  0  0
  -15.7317   17.3223    0.0000 C   0  0  0  0  0  0  0  0  0  0  0  0
  -14.5895   18.2947    0.0000 C   0  0  0  0  0  0  0  0  0  0  0  0
  -13.3874   19.1919    0.0000 C   0  0  0  0  0  0  0  0  0  0  0  0
  -12.1303   20.0102    0.0000 C   0  0  0  0  0  0  0  0  0  0  0  0
  -10.8233   20.7462    0.0000 C   0  0  0  0  0  0  0  0  0  0  0  0
   -9.4718   21.3971    0.0000 C   0  0  0  0  0  0  0  0  0  0  0  0
   -8.0815   21.9600    0.0000 C   0  0  0  0  0  0  0  0  0  0  0  0
   -6.6579   22.4326    0.0000 C   0  0  0  0  0  0  0  0  0  0  0  0
   -5.2069   22.8131    0.0000 C   0  0  0  0  0  0  0  0  0  0  0  0
   -3.7346   23.0998    0.0000 C   0  0  0  0  0  0  0  0  0  0  0  0
   -2.2469   23.2917    0.0000 C   0  0  0  0  0  0  0  0  0  0  0  0
   -0.7500   23.3878    0.0000 C   0  0  0  0  0  0  0  0  0  0  0  0
    0.7500   23.3878    0.0000 C   0  0  0  0  0  0  0  0  0  0  0  0
    2.2469   23.2917    0.0000 C   0  0  0  0  0  0  0  0  0  0  0  0
    3.7346   23.0998    0.0000 C   0  0  0  0  0  0  0  0  0  0  0  0
    5.2069   22.8131    0.0000 C   0  0  0  0  0  0  0  0  0  0  0  0
    6.6579   22.4326    0.0000 C   0  0  0  0  0  0  0  0  0  0  0  0
    8.0815   21.9600    0.0000 C   0  0  0  0  0  0  0  0  0  0  0  0
    9.4718   21.3971    0.0000 C   0  0  0  0  0  0  0  0  0  0  0  0
   10.8233   20.7462    0.0000 C   0  0  0  0  0  0  0  0  0  0  0  0
   12.1303   20.0102    0.0000 C   0  0  0  0  0  0  0  0  0  0  0  0
   13.3874   19.1919    0.0000 C   0  0  0  0  0  0  0  0  0  0  0  0
   14.5895   18.2947    0.0000 C   0  0  0  0  0  0  0  0  0  0  0  0
   15.7317   17.3223    0.0000 C   0  0  0  0  0  0  0  0  0  0  0  0
   16.8092   16.2788    0.0000 C   0  0  0  0  0  0  0  0  0  0  0  0
   17.8177   15.1684    0.0000 C   0  0  0  0  0  0  0  0  0  0  0  0
   18.7529   13.9957    0.0000 C   0  0  0  0  0  0  0  0  0  0  0  0
   19.6111   12.7654    0.0000 C   0  0  0  0  0  0  0  0  0  0  0  0
   20.3887   11.4827    0.0000 C   0  0  0  0  0  0  0  0  0  0  0  0
   21.0825   10.1528    0.0000 C   0  0  0  0  0  0  0  0  0  0  0  0
   21.6897    8.7812    0.0000 C   0  0  0  0  0  0  0  0  0  0  0  0
   22.2077    7.3735    0.0000 C   0  0  0  0  0  0  0  0  0  0  0  0
   22.6345    5.9355    0.0000 C   0  0  0  0  0  0  0  0  0  0  0  0
   22.9683    4.4731    0.0000 C   0  0  0  0  0  0  0  0  0  0  0  0
   23.2077    2.9923    0.0000 N   0  0  0  0  0  0  0  0  0  0  0  0
   23.3517    1.4992    0.0000 C   0  0  0  0  0  0  0  0  0  0  0  0
  1  2  1  0
  2  3  1  0
  3  4  1  0
  4  5  1  0
  5  6  1  0
  6  7  1  0
  7  8  1  0
  8  9  1  0
  9 10  1  0
 10 11  1  0
 11 12  1  0
 12 13  1  0
 13 14  1  0
 14 15  1  0
 15 16  1  0
 16 17  1  0
 17 18  1  0
 18 19  1  0
 19 20  1  0
 20 21  1  0
 21 22  1  0
 22 23  1  0
 23 24  1  0
 24 25  1  0
 25 26  1  0
 26 27  1  0
 27 28  1  0
 28 29  1  0
 29 30  1  0
 30 31  1  0
 31 32  1  0
 32 33  1  0
 33 34  1  0
 34 35  1  0
 35 36  1  0
 36 37  1  0
 37 38  1  0
 38 39  1  0
 39 40  1  0
 40 41  1  0
 41 42  1  0
 42 43  1  0
 43 44  1  0
 44 45  1  0
 45 46  1  0
 46 47  1  0
 47 48  1  0
 48 49  1  0
 49 50  1  0
 50 51  1  0
 51 52  1  0
 52 53  1  0
 53 54  1  0
 54 55  1  0
 55 56  1  0
 56 57  1  0
 57 58  1  0
 58 59  1  0
 59 60  1  0
 60 61  1  0
 61 62  1  0
 62 63  1  0
 63 64  1  0
 64 65  1  0
 65 66  1  0
 66 67  1  0
 67 68  1  0
 68 69  1  0
 69 70  1  0
 70 71  1  0
 71 72  1  0
 72 73  1  0
 73 74  1  0
 74 75  1  0
 75 76  1  0
 76 77  1  0
 77 78  1  0
 78 79  1  0
 79 80  1  0
 80 81  1  0
 81 82  1  0
 82 83  1  0
 83 84  1  0
 84 85  1  0
 85 86  1  0
 86 87  1  0
 87 88  1  0
 88 89  1  0
 89 90  1  0
 90 91  1  0
 91 92  1  0
 92 93  1  0
 93 94  1  0
 94 95  1  0
 95 96  1  0
 96 97  1  0
 97 98  1  0
 98 99  1  0
 99  2  1  0
M  END
>  <Title>  (683) 
idAAYIgen10

$$$$

     RDKit          2D

  6  5  0  0  0  0  0  0  0  0999 V2000
    0.0000    0.0000    0.0000 C   0  0  0  0  0  0  0  0  0  0  0  0
    1.2990    0.7500    0.0000 C   0  0  0  0  0  0  0  0  0  0  0  0
    2.5981   -0.0000    0.0000 C   0  0  0  0  0  0  0  0  0  0  0  0
    3.8971    0.7500    0.0000 C   0  0  0  0  0  0  0  0  0  0  0  0
    5.1962   -0.0000    0.0000 C   0  0  0  0  0  0  0  0  0  0  0  0
    3.8971    2.2500    0.0000 C   0  0  0  0  0  0  0  0  0  0  0  0
  1  2  1  0
  2  3  2  3
  3  4  1  0
  4  5  1  0
  4  6  1  0
M  END
>  <Title>  (684) 
idAAYJgen10

$$$$

     RDKit          2D

  9  9  0  0  0  0  0  0  0  0999 V2000
    5.0260    1.2990    0.0000 C   0  0  0  0  0  0  0  0  0  0  0  0
    3.5260    1.2990    0.0000 C   0  0  0  0  0  0  0  0  0  0  0  0
    2.7760    0.0000    0.0000 C   0  0  0  0  0  0  0  0  0  0  0  0
    3.5260   -1.2990    0.0000 C   0  0  0  0  0  0  0  0  0  0  0  0
    1.2760    0.0000    0.0000 C   0  0  0  0  0  0  0  0  0  0  0  0
    0.3943    1.2135    0.0000 C   0  0  0  0  0  0  0  0  0  0  0  0
   -1.0323    0.7500    0.0000 C   0  0  0  0  0  0  0  0  0  0  0  0
   -1.0323   -0.7500    0.0000 C   0  0  0  0  0  0  0  0  0  0  0  0
    0.3943   -1.2135    0.0000 C   0  0  0  0  0  0  0  0  0  0  0  0
  1  2  2  0
  2  3  1  0
  3  4  1  0
  3  5  1  0
  5  6  2  0
  6  7  1  0
  7  8  2  0
  8  9  1  0
  9  5  1  0
M  END
>  <Title>  (685) 
idAAYKgen10

$$$$

     RDKit          2D

  8  8  0  0  0  0  0  0  0  0999 V2000
    5.7760   -0.0000    0.0000 C   0  0  0  0  0  0  0  0  0  0  0  0
    4.2760   -0.0000    0.0000 C   0  0  0  0  0  0  0  0  0  0  0  0
    2.7760    0.0000    0.0000 C   0  0  0  0  0  0  0  0  0  0  0  0
    1.2760    0.0000    0.0000 C   0  0  0  0  0  0  0  0  0  0  0  0
    0.3943    1.2135    0.0000 C   0  0  0  0  0  0  0  0  0  0  0  0
   -1.0323    0.7500    0.0000 C   0  0  0  0  0  0  0  0  0  0  0  0
   -1.0323   -0.7500    0.0000 C   0  0  0  0  0  0  0  0  0  0  0  0
    0.3943   -1.2135    0.0000 C   0  0  0  0  0  0  0  0  0  0  0  0
  1  2  1  0
  2  3  3  0
  3  4  1  0
  4  5  2  0
  5  6  1  0
  6  7  2  0
  7  8  1  0
  8  4  1  0
M  END
>  <Title>  (686) 
idAAYLgen10

$$$$

     RDKit          2D

 11 11  0  0  0  0  0  0  0  0999 V2000
    7.2760   -0.0000    0.0000 C   0  0  0  0  0  0  0  0  0  0  0  0
    5.7760   -0.0000    0.0000 C   0  0  0  0  0  0  0  0  0  0  0  0
    4.2760   -0.0000    0.0000 C   0  0  0  0  0  0  0  0  0  0  0  0
    2.7760    0.0000    0.0000 C   0  0  0  0  0  0  0  0  0  0  0  0
    1.2760    0.0000    0.0000 C   0  0  0  0  0  0  0  0  0  0  0  0
    0.3943    1.2135    0.0000 C   0  0  0  0  0  0  0  0  0  0  0  0
   -1.0323    0.7500    0.0000 C   0  0  0  0  0  0  0  0  0  0  0  0
   -1.0323   -0.7500    0.0000 C   0  0  0  0  0  0  0  0  0  0  0  0
   -2.2458   -1.6317    0.0000 C   0  0  0  0  0  0  0  0  0  0  0  0
    0.3943   -1.2135    0.0000 C   0  0  0  0  0  0  0  0  0  0  0  0
    0.8578   -2.6401    0.0000 O   0  0  0  0  0  0  0  0  0  0  0  0
  1  2  3  0
  2  3  1  0
  3  4  3  0
  4  5  1  0
  5  6  2  0
  6  7  1  0
  7  8  2  0
  8  9  1  0
  8 10  1  0
 10 11  2  0
 10  5  1  0
M  END
>  <Title>  (687) 
idAAYMgen10

$$$$

     RDKit          2D

 92 93  0  0  0  0  0  0  0  0999 V2000
   -2.1799   -1.0785    0.0000 C   0  0  0  0  0  0  0  0  0  0  0  0
   -2.4883    0.3894    0.0000 C   0  0  0  0  0  0  0  0  0  0  0  0
   -3.9663    0.1336    0.0000 C   0  0  0  0  0  0  0  0  0  0  0  0
   -5.4588   -0.0160    0.0000 C   0  0  0  0  0  0  0  0  0  0  0  0
   -6.9582   -0.0589    0.0000 C   0  0  0  0  0  0  0  0  0  0  0  0
   -8.4569    0.0054    0.0000 C   0  0  0  0  0  0  0  0  0  0  0  0
   -9.9471    0.1763    0.0000 C   0  0  0  0  0  0  0  0  0  0  0  0
  -11.4213    0.4532    0.0000 C   0  0  0  0  0  0  0  0  0  0  0  0
  -12.8720    0.8345    0.0000 C   0  0  0  0  0  0  0  0  0  0  0  0
  -14.2918    1.3184    0.0000 C   0  0  0  0  0  0  0  0  0  0  0  0
  -15.6735    1.9023    0.0000 C   0  0  0  0  0  0  0  0  0  0  0  0
  -17.0100    2.5833    0.0000 C   0  0  0  0  0  0  0  0  0  0  0  0
  -18.2946    3.3579    0.0000 C   0  0  0  0  0  0  0  0  0  0  0  0
  -19.5206    4.2221    0.0000 C   0  0  0  0  0  0  0  0  0  0  0  0
  -20.6818    5.1717    0.0000 C   0  0  0  0  0  0  0  0  0  0  0  0
  -21.7723    6.2016    0.0000 C   0  0  0  0  0  0  0  0  0  0  0  0
  -22.7866    7.3067    0.0000 C   0  0  0  0  0  0  0  0  0  0  0  0
  -23.7194    8.4814    0.0000 C   0  0  0  0  0  0  0  0  0  0  0  0
  -24.5661    9.7196    0.0000 C   0  0  0  0  0  0  0  0  0  0  0  0
  -25.3222   11.0150    0.0000 C   0  0  0  0  0  0  0  0  0  0  0  0
  -25.9841   12.3611    0.0000 C   0  0  0  0  0  0  0  0  0  0  0  0
  -26.5482   13.7510    0.0000 C   0  0  0  0  0  0  0  0  0  0  0  0
  -27.0117   15.1776    0.0000 C   0  0  0  0  0  0  0  0  0  0  0  0
  -27.3723   16.6336    0.0000 C   0  0  0  0  0  0  0  0  0  0  0  0
  -27.6281   18.1116    0.0000 C   0  0  0  0  0  0  0  0  0  0  0  0
  -27.7778   19.6041    0.0000 C   0  0  0  0  0  0  0  0  0  0  0  0
  -27.8206   21.1035    0.0000 C   0  0  0  0  0  0  0  0  0  0  0  0
  -27.7563   22.6022    0.0000 C   0  0  0  0  0  0  0  0  0  0  0  0
  -27.5854   24.0924    0.0000 C   0  0  0  0  0  0  0  0  0  0  0  0
  -27.3085   25.5666    0.0000 C   0  0  0  0  0  0  0  0  0  0  0  0
  -26.9272   27.0173    0.0000 C   0  0  0  0  0  0  0  0  0  0  0  0
  -26.4433   28.4371    0.0000 C   0  0  0  0  0  0  0  0  0  0  0  0
  -25.8594   29.8188    0.0000 C   0  0  0  0  0  0  0  0  0  0  0  0
  -25.1784   31.1553    0.0000 C   0  0  0  0  0  0  0  0  0  0  0  0
  -24.4038   32.4399    0.0000 C   0  0  0  0  0  0  0  0  0  0  0  0
  -23.5396   33.6659    0.0000 C   0  0  0  0  0  0  0  0  0  0  0  0
  -22.5901   34.8271    0.0000 C   0  0  0  0  0  0  0  0  0  0  0  0
  -21.5601   35.9176    0.0000 C   0  0  0  0  0  0  0  0  0  0  0  0
  -20.4550   36.9318    0.0000 C   0  0  0  0  0  0  0  0  0  0  0  0
  -19.2803   37.8647    0.0000 C   0  0  0  0  0  0  0  0  0  0  0  0
  -18.0421   38.7114    0.0000 C   0  0  0  0  0  0  0  0  0  0  0  0
  -16.7467   39.4675    0.0000 C   0  0  0  0  0  0  0  0  0  0  0  0
  -15.4006   40.1294    0.0000 C   0  0  0  0  0  0  0  0  0  0  0  0
  -14.0107   40.6935    0.0000 C   0  0  0  0  0  0  0  0  0  0  0  0
  -12.5841   41.1570    0.0000 C   0  0  0  0  0  0  0  0  0  0  0  0
  -11.1281   41.5176    0.0000 C   0  0  0  0  0  0  0  0  0  0  0  0
   -9.6501   41.7734    0.0000 C   0  0  0  0  0  0  0  0  0  0  0  0
   -8.1576   41.9230    0.0000 C   0  0  0  0  0  0  0  0  0  0  0  0
   -6.6582   41.9659    0.0000 C   0  0  0  0  0  0  0  0  0  0  0  0
   -5.1596   41.9016    0.0000 C   0  0  0  0  0  0  0  0  0  0  0  0
   -3.6693   41.7307    0.0000 C   0  0  0  0  0  0  0  0  0  0  0  0
   -2.1951   41.4538    0.0000 C   0  0  0  0  0  0  0  0  0  0  0  0
   -0.7444   41.0725    0.0000 C   0  0  0  0  0  0  0  0  0  0  0  0
    0.6754   40.5886    0.0000 C   0  0  0  0  0  0  0  0  0  0  0  0
    2.0571   40.0047    0.0000 C   0  0  0  0  0  0  0  0  0  0  0  0
    3.3936   39.3237    0.0000 C   0  0  0  0  0  0  0  0  0  0  0  0
    4.6782   38.5491    0.0000 C   0  0  0  0  0  0  0  0  0  0  0  0
    5.9042   37.6849    0.0000 C   0  0  0  0  0  0  0  0  0  0  0  0
    7.0654   36.7353    0.0000 C   0  0  0  0  0  0  0  0  0  0  0  0
    8.1559   35.7054    0.0000 C   0  0  0  0  0  0  0  0  0  0  0  0
    9.1701   34.6003    0.0000 C   0  0  0  0  0  0  0  0  0  0  0  0
   10.1030   33.4256    0.0000 C   0  0  0  0  0  0  0  0  0  0  0  0
   10.9496   32.1874    0.0000 C   0  0  0  0  0  0  0  0  0  0  0  0
   11.7058   30.8920    0.0000 C   0  0  0  0  0  0  0  0  0  0  0  0
   12.3677   29.5459    0.0000 C   0  0  0  0  0  0  0  0  0  0  0  0
   12.9318   28.1560    0.0000 C   0  0  0  0  0  0  0  0  0  0  0  0
   13.3953   26.7294    0.0000 C   0  0  0  0  0  0  0  0  0  0  0  0
   13.7559   25.2734    0.0000 C   0  0  0  0  0  0  0  0  0  0  0  0
   14.0117   23.7954    0.0000 C   0  0  0  0  0  0  0  0  0  0  0  0
   14.1613   22.3029    0.0000 C   0  0  0  0  0  0  0  0  0  0  0  0
   14.2042   20.8035    0.0000 C   0  0  0  0  0  0  0  0  0  0  0  0
   14.1399   19.3048    0.0000 C   0  0  0  0  0  0  0  0  0  0  0  0
   13.9689   17.8146    0.0000 C   0  0  0  0  0  0  0  0  0  0  0  0
   13.6921   16.3404    0.0000 C   0  0  0  0  0  0  0  0  0  0  0  0
   13.3108   14.8897    0.0000 C   0  0  0  0  0  0  0  0  0  0  0  0
   12.8269   13.4699    0.0000 C   0  0  0  0  0  0  0  0  0  0  0  0
   12.2430   12.0882    0.0000 C   0  0  0  0  0  0  0  0  0  0  0  0
   11.5620   10.7517    0.0000 C   0  0  0  0  0  0  0  0  0  0  0  0
   10.7874    9.4671    0.0000 C   0  0  0  0  0  0  0  0  0  0  0  0
    9.9232    8.2411    0.0000 C   0  0  0  0  0  0  0  0  0  0  0  0
    8.9736    7.0799    0.0000 C   0  0  0  0  0  0  0  0  0  0  0  0
    7.9437    5.9894    0.0000 C   0  0  0  0  0  0  0  0  0  0  0  0
    6.8386    4.9752    0.0000 C   0  0  0  0  0  0  0  0  0  0  0  0
    5.6639    4.0423    0.0000 C   0  0  0  0  0  0  0  0  0  0  0  0
    4.4257    3.1956    0.0000 C   0  0  0  0  0  0  0  0  0  0  0  0
    3.1303    2.4395    0.0000 C   0  0  0  0  0  0  0  0  0  0  0  0
    1.7842    1.7776    0.0000 C   0  0  0  0  0  0  0  0  0  0  0  0
    0.3943    1.2135    0.0000 C   0  0  0  0  0  0  0  0  0  0  0  0
    1.2760    0.0000    0.0000 C   0  0  0  0  0  0  0  0  0  0  0  0
    0.3943   -1.2135    0.0000 C   0  0  0  0  0  0  0  0  0  0  0  0
   -1.0323   -0.7500    0.0000 C   0  0  0  0  0  0  0  0  0  0  0  0
   -1.0323    0.7500    0.0000 C   0  0  0  0  0  0  0  0  0  0  0  0
  1  2  1  0
  2  3  1  0
  3  4  1  0
  4  5  1  0
  5  6  1  0
  6  7  1  0
  7  8  1  0
  8  9  1  0
  9 10  1  0
 10 11  1  0
 11 12  1  0
 12 13  1  0
 13 14  1  0
 14 15  1  0
 15 16  1  0
 16 17  1  0
 17 18  1  0
 18 19  1  0
 19 20  1  0
 20 21  1  0
 21 22  1  0
 22 23  1  0
 23 24  1  0
 24 25  1  0
 25 26  1  0
 26 27  1  0
 27 28  1  0
 28 29  1  0
 29 30  1  0
 30 31  1  0
 31 32  1  0
 32 33  1  0
 33 34  1  0
 34 35  1  0
 35 36  1  0
 36 37  1  0
 37 38  1  0
 38 39  1  0
 39 40  1  0
 40 41  1  0
 41 42  1  0
 42 43  1  0
 43 44  1  0
 44 45  1  0
 45 46  1  0
 46 47  1  0
 47 48  1  0
 48 49  1  0
 49 50  1  0
 50 51  1  0
 51 52  1  0
 52 53  1  0
 53 54  1  0
 54 55  1  0
 55 56  1  0
 56 57  1  0
 57 58  1  0
 58 59  1  0
 59 60  1  0
 60 61  1  0
 61 62  1  0
 62 63  1  0
 63 64  1  0
 64 65  1  0
 65 66  1  0
 66 67  1  0
 67 68  1  0
 68 69  1  0
 69 70  1  0
 70 71  1  0
 71 72  1  0
 72 73  1  0
 73 74  1  0
 74 75  1  0
 75 76  1  0
 76 77  1  0
 77 78  1  0
 78 79  1  0
 79 80  1  0
 80 81  1  0
 81 82  1  0
 82 83  1  0
 83 84  1  0
 84 85  1  0
 85 86  2  0
 86 87  1  0
 87 88  2  0
 88 89  1  0
 89 90  1  0
 90 91  1  0
 91 92  1  0
 92  2  1  0
 92 88  1  0
M  END
>  <Title>  (688) 
idAAYNgen10

$$$$

     RDKit          2D

  8  8  0  0  0  0  0  0  0  0999 V2000
    4.2760   -0.0000    0.0000 C   0  0  0  0  0  0  0  0  0  0  0  0
    2.7760    0.0000    0.0000 C   0  0  0  0  0  0  0  0  0  0  0  0
    1.2760    0.0000    0.0000 C   0  0  0  0  0  0  0  0  0  0  0  0
    0.3943    1.2135    0.0000 C   0  0  0  0  0  0  0  0  0  0  0  0
   -1.0323    0.7500    0.0000 C   0  0  0  0  0  0  0  0  0  0  0  0
   -1.0323   -0.7500    0.0000 C   0  0  0  0  0  0  0  0  0  0  0  0
   -2.2458   -1.6317    0.0000 C   0  0  0  0  0  0  0  0  0  0  0  0
    0.3943   -1.2135    0.0000 C   0  0  0  0  0  0  0  0  0  0  0  0
  1  2  3  0
  2  3  1  0
  3  4  2  0
  4  5  1  0
  5  6  1  0
  6  7  1  0
  6  8  1  0
  8  3  1  0
M  END
>  <Title>  (689) 
idAAYOgen10

$$$$

     RDKit          2D

 45 51  0  0  0  0  0  0  0  0999 V2000
   -1.9254  -12.5169    0.0000 C   0  0  0  0  0  0  0  0  0  0  0  0
   -1.4832  -11.0835    0.0000 C   0  0  0  0  0  0  0  0  0  0  0  0
   -0.0000  -11.3071    0.0000 C   0  0  0  0  0  0  0  0  0  0  0  0
    1.4832  -11.0835    0.0000 C   0  0  0  0  0  0  0  0  0  0  0  0
    2.8347  -10.4327    0.0000 C   0  0  0  0  0  0  0  0  0  0  0  0
    3.9343   -9.4124    0.0000 C   0  0  0  0  0  0  0  0  0  0  0  0
    4.6843   -8.1134    0.0000 C   0  0  0  0  0  0  0  0  0  0  0  0
    5.0181   -6.6510    0.0000 C   0  0  0  0  0  0  0  0  0  0  0  0
    6.5139   -6.5389    0.0000 C   0  0  0  0  0  0  0  0  0  0  0  0
    7.6508   -7.5174    0.0000 O   0  0  0  0  0  0  0  0  0  0  0  0
    6.4018   -5.0431    0.0000 N   0  0  0  0  0  0  0  0  0  0  0  0
    4.9060   -5.1552    0.0000 C   0  0  0  0  0  0  0  0  0  0  0  0
    4.3580   -3.7589    0.0000 N   0  0  0  0  0  0  0  0  0  0  0  0
    3.4227   -2.5862    0.0000 N   0  0  0  0  0  0  0  0  0  0  0  0
    2.1834   -1.7412    0.0000 N   0  0  0  0  0  0  0  0  0  0  0  0
    0.7500   -1.2990    0.0000 N   0  0  0  0  0  0  0  0  0  0  0  0
    1.5000    0.0000    0.0000 C   0  0  0  0  0  0  0  0  0  0  0  0
    0.7500    1.2990    0.0000 C   0  0  0  0  0  0  0  0  0  0  0  0
   -0.7500    1.2990    0.0000 C   0  0  0  0  0  0  0  0  0  0  0  0
   -1.5000    0.0000    0.0000 C   0  0  0  0  0  0  0  0  0  0  0  0
   -0.7500   -1.2990    0.0000 C   0  0  0  0  0  0  0  0  0  0  0  0
   -2.1834   -1.7412    0.0000 C   0  0  0  0  0  0  0  0  0  0  0  0
   -2.2955   -0.2454    0.0000 C   0  0  0  0  0  0  0  0  0  0  0  0
   -3.6469    0.4055    0.0000 C   0  0  0  0  0  0  0  0  0  0  0  0
   -4.8863   -0.4395    0.0000 C   0  0  0  0  0  0  0  0  0  0  0  0
   -4.7742   -1.9353    0.0000 C   0  0  0  0  0  0  0  0  0  0  0  0
   -3.4227   -2.5862    0.0000 C   0  0  0  0  0  0  0  0  0  0  0  0
   -4.3580   -3.7589    0.0000 C   0  0  0  0  0  0  0  0  0  0  0  0
   -5.2932   -2.5862    0.0000 C   0  0  0  0  0  0  0  0  0  0  0  0
   -6.7764   -2.8097    0.0000 C   0  0  0  0  0  0  0  0  0  0  0  0
   -7.3244   -4.2060    0.0000 C   0  0  0  0  0  0  0  0  0  0  0  0
   -6.3892   -5.3788    0.0000 C   0  0  0  0  0  0  0  0  0  0  0  0
   -4.9060   -5.1552    0.0000 C   0  0  0  0  0  0  0  0  0  0  0  0
   -5.0181   -6.6510    0.0000 C   0  0  0  0  0  0  0  0  0  0  0  0
   -6.4514   -6.2089    0.0000 C   0  0  0  0  0  0  0  0  0  0  0  0
   -7.5510   -7.2291    0.0000 C   0  0  0  0  0  0  0  0  0  0  0  0
   -7.2172   -8.6915    0.0000 C   0  0  0  0  0  0  0  0  0  0  0  0
   -5.7839   -9.1337    0.0000 C   0  0  0  0  0  0  0  0  0  0  0  0
   -4.6843   -8.1134    0.0000 C   0  0  0  0  0  0  0  0  0  0  0  0
   -3.9343   -9.4124    0.0000 C   0  0  0  0  0  0  0  0  0  0  0  0
   -5.3676   -9.8546    0.0000 C   0  0  0  0  0  0  0  0  0  0  0  0
   -5.7014  -11.3170    0.0000 C   0  0  0  0  0  0  0  0  0  0  0  0
   -4.6018  -12.3372    0.0000 C   0  0  0  0  0  0  0  0  0  0  0  0
   -3.1685  -11.8951    0.0000 C   0  0  0  0  0  0  0  0  0  0  0  0
   -2.8347  -10.4327    0.0000 C   0  0  0  0  0  0  0  0  0  0  0  0
  1  2  1  0
  2  3  1  0
  3  4  2  0
  4  5  1  0
  5  6  2  0
  6  7  1  0
  7  8  2  0
  8  9  1  0
  9 10  2  0
  9 11  1  0
 11 12  1  0
 12 13  2  0
 13 14  1  0
 14 15  2  0
 15 16  1  0
 16 17  1  0
 17 18  1  0
 18 19  1  0
 19 20  1  0
 20 21  1  0
 21 22  1  0
 22 23  2  0
 23 24  1  0
 24 25  2  0
 25 26  1  0
 26 27  2  0
 27 28  1  0
 28 29  2  0
 29 30  1  0
 30 31  2  0
 31 32  1  0
 32 33  2  0
 33 34  1  0
 34 35  2  0
 35 36  1  0
 36 37  2  0
 37 38  1  0
 38 39  2  0
 39 40  1  0
 40 41  2  0
 41 42  1  0
 42 43  2  0
 43 44  1  0
 44 45  2  0
 45  2  1  0
 12  8  1  0
 21 16  1  0
 27 22  1  0
 33 28  1  0
 39 34  1  0
 45 40  1  0
M  END
>  <Title>  (690) 
idAAYPgen10

$$$$

     RDKit          2D

 91 93  0  0  0  0  0  0  0  0999 V2000
   -5.2698    2.0298    0.0000 O   0  0  0  0  0  0  0  0  0  0  0  0
   -4.5560    3.3491    0.0000 C   0  0  0  0  0  0  0  0  0  0  0  0
   -5.8467    4.1135    0.0000 C   0  0  0  0  0  0  0  0  0  0  0  0
   -7.0742    4.9755    0.0000 C   0  0  0  0  0  0  0  0  0  0  0  0
   -8.2312    5.9301    0.0000 C   0  0  0  0  0  0  0  0  0  0  0  0
   -9.3108    6.9715    0.0000 C   0  0  0  0  0  0  0  0  0  0  0  0
  -10.3065    8.0934    0.0000 C   0  0  0  0  0  0  0  0  0  0  0  0
  -11.2122    9.2891    0.0000 C   0  0  0  0  0  0  0  0  0  0  0  0
  -12.0225   10.5514    0.0000 C   0  0  0  0  0  0  0  0  0  0  0  0
  -12.7326   11.8727    0.0000 C   0  0  0  0  0  0  0  0  0  0  0  0
  -13.3381   13.2450    0.0000 C   0  0  0  0  0  0  0  0  0  0  0  0
  -13.8355   14.6602    0.0000 C   0  0  0  0  0  0  0  0  0  0  0  0
  -14.2217   16.1096    0.0000 C   0  0  0  0  0  0  0  0  0  0  0  0
  -14.4945   17.5846    0.0000 C   0  0  0  0  0  0  0  0  0  0  0  0
  -14.6521   19.0763    0.0000 C   0  0  0  0  0  0  0  0  0  0  0  0
  -14.6936   20.5757    0.0000 C   0  0  0  0  0  0  0  0  0  0  0  0
  -14.6189   22.0739    0.0000 C   0  0  0  0  0  0  0  0  0  0  0  0
  -14.4282   23.5617    0.0000 C   0  0  0  0  0  0  0  0  0  0  0  0
  -14.1229   25.0303    0.0000 C   0  0  0  0  0  0  0  0  0  0  0  0
  -13.7046   26.4708    0.0000 C   0  0  0  0  0  0  0  0  0  0  0  0
  -13.1760   27.8746    0.0000 C   0  0  0  0  0  0  0  0  0  0  0  0
  -12.5402   29.2331    0.0000 C   0  0  0  0  0  0  0  0  0  0  0  0
  -11.8010   30.5384    0.0000 C   0  0  0  0  0  0  0  0  0  0  0  0
  -10.9629   31.7824    0.0000 C   0  0  0  0  0  0  0  0  0  0  0  0
  -10.0309   32.9577    0.0000 C   0  0  0  0  0  0  0  0  0  0  0  0
   -9.0107   34.0573    0.0000 C   0  0  0  0  0  0  0  0  0  0  0  0
   -7.9083   35.0745    0.0000 C   0  0  0  0  0  0  0  0  0  0  0  0
   -6.7304   36.0032    0.0000 C   0  0  0  0  0  0  0  0  0  0  0  0
   -5.4840   36.8379    0.0000 C   0  0  0  0  0  0  0  0  0  0  0  0
   -4.1768   37.5734    0.0000 C   0  0  0  0  0  0  0  0  0  0  0  0
   -2.8164   38.2055    0.0000 C   0  0  0  0  0  0  0  0  0  0  0  0
   -1.4112   38.7302    0.0000 C   0  0  0  0  0  0  0  0  0  0  0  0
    0.0305   39.1445    0.0000 C   0  0  0  0  0  0  0  0  0  0  0  0
    1.4999   39.4458    0.0000 C   0  0  0  0  0  0  0  0  0  0  0  0
    2.9883   39.6323    0.0000 C   0  0  0  0  0  0  0  0  0  0  0  0
    4.4866   39.7029    0.0000 C   0  0  0  0  0  0  0  0  0  0  0  0
    5.9859   39.6572    0.0000 C   0  0  0  0  0  0  0  0  0  0  0  0
    7.4772   39.4954    0.0000 C   0  0  0  0  0  0  0  0  0  0  0  0
    8.9514   39.2186    0.0000 C   0  0  0  0  0  0  0  0  0  0  0  0
   10.3997   38.8284    0.0000 C   0  0  0  0  0  0  0  0  0  0  0  0
   11.8135   38.3271    0.0000 C   0  0  0  0  0  0  0  0  0  0  0  0
   13.1842   37.7177    0.0000 C   0  0  0  0  0  0  0  0  0  0  0  0
   14.5035   37.0040    0.0000 C   0  0  0  0  0  0  0  0  0  0  0  0
   15.7635   36.1902    0.0000 C   0  0  0  0  0  0  0  0  0  0  0  0
   16.9567   35.2812    0.0000 C   0  0  0  0  0  0  0  0  0  0  0  0
   18.0758   34.2824    0.0000 C   0  0  0  0  0  0  0  0  0  0  0  0
   19.1142   33.2000    0.0000 C   0  0  0  0  0  0  0  0  0  0  0  0
   20.0656   32.0403    0.0000 C   0  0  0  0  0  0  0  0  0  0  0  0
   20.9243   30.8104    0.0000 C   0  0  0  0  0  0  0  0  0  0  0  0
   21.6851   29.5176    0.0000 C   0  0  0  0  0  0  0  0  0  0  0  0
   22.3434   28.1698    0.0000 C   0  0  0  0  0  0  0  0  0  0  0  0
   22.8952   26.7750    0.0000 C   0  0  0  0  0  0  0  0  0  0  0  0
   23.3374   25.3416    0.0000 C   0  0  0  0  0  0  0  0  0  0  0  0
   23.6671   23.8783    0.0000 C   0  0  0  0  0  0  0  0  0  0  0  0
   23.8824   22.3939    0.0000 C   0  0  0  0  0  0  0  0  0  0  0  0
   23.9821   20.8972    0.0000 C   0  0  0  0  0  0  0  0  0  0  0  0
   23.9655   19.3973    0.0000 C   0  0  0  0  0  0  0  0  0  0  0  0
   23.8327   17.9032    0.0000 C   0  0  0  0  0  0  0  0  0  0  0  0
   23.5845   16.4238    0.0000 C   0  0  0  0  0  0  0  0  0  0  0  0
   23.2224   14.9682    0.0000 C   0  0  0  0  0  0  0  0  0  0  0  0
   22.7486   13.5450    0.0000 C   0  0  0  0  0  0  0  0  0  0  0  0
   22.1660   12.1628    0.0000 C   0  0  0  0  0  0  0  0  0  0  0  0
   21.4780   10.8299    0.0000 C   0  0  0  0  0  0  0  0  0  0  0  0
   20.6887    9.5543    0.0000 C   0  0  0  0  0  0  0  0  0  0  0  0
   19.8030    8.3437    0.0000 C   0  0  0  0  0  0  0  0  0  0  0  0
   18.8262    7.2054    0.0000 C   0  0  0  0  0  0  0  0  0  0  0  0
   17.7640    6.1462    0.0000 C   0  0  0  0  0  0  0  0  0  0  0  0
   16.6230    5.1725    0.0000 C   0  0  0  0  0  0  0  0  0  0  0  0
   15.4100    4.2901    0.0000 C   0  0  0  0  0  0  0  0  0  0  0  0
   14.1322    3.5044    0.0000 C   0  0  0  0  0  0  0  0  0  0  0  0
   12.7974    2.8201    0.0000 C   0  0  0  0  0  0  0  0  0  0  0  0
   11.4136    2.2413    0.0000 C   0  0  0  0  0  0  0  0  0  0  0  0
    9.9891    1.7715    0.0000 C   0  0  0  0  0  0  0  0  0  0  0  0
    8.5324    1.4134    0.0000 C   0  0  0  0  0  0  0  0  0  0  0  0
    7.0524    1.1693    0.0000 C   0  0  0  0  0  0  0  0  0  0  0  0
    5.5580    1.0407    0.0000 C   0  0  0  0  0  0  0  0  0  0  0  0
    4.0580    1.0282    0.0000 C   0  0  0  0  0  0  0  0  0  0  0  0
    2.5616    1.1320    0.0000 C   0  0  0  0  0  0  0  0  0  0  0  0
    1.0777    1.3515    0.0000 C   0  0  0  0  0  0  0  0  0  0  0  0
    1.7286    0.0000    0.0000 C   0  0  0  0  0  0  0  0  0  0  0  0
    1.0777   -1.3515    0.0000 C   0  0  0  0  0  0  0  0  0  0  0  0
   -0.3846   -1.6852    0.0000 C   0  0  0  0  0  0  0  0  0  0  0  0
   -1.5574   -0.7500    0.0000 C   0  0  0  0  0  0  0  0  0  0  0  0
   -1.5574    0.7500    0.0000 C   0  0  0  0  0  0  0  0  0  0  0  0
   -0.3846    1.6852    0.0000 C   0  0  0  0  0  0  0  0  0  0  0  0
   -1.8168    2.1313    0.0000 C   0  0  0  0  0  0  0  0  0  0  0  0
   -0.6389    3.0601    0.0000 C   0  0  0  0  0  0  0  0  0  0  0  0
   -0.8542    4.5445    0.0000 C   0  0  0  0  0  0  0  0  0  0  0  0
   -2.2475    5.1003    0.0000 C   0  0  0  0  0  0  0  0  0  0  0  0
   -3.4254    4.1715    0.0000 C   0  0  0  0  0  0  0  0  0  0  0  0
   -3.2100    2.6871    0.0000 C   0  0  0  0  0  0  0  0  0  0  0  0
  1  2  1  0
  2  3  1  0
  3  4  1  0
  4  5  1  0
  5  6  1  0
  6  7  1  0
  7  8  1  0
  8  9  1  0
  9 10  1  0
 10 11  1  0
 11 12  1  0
 12 13  1  0
 13 14  1  0
 14 15  1  0
 15 16  1  0
 16 17  1  0
 17 18  1  0
 18 19  1  0
 19 20  1  0
 20 21  1  0
 21 22  1  0
 22 23  1  0
 23 24  1  0
 24 25  1  0
 25 26  1  0
 26 27  1  0
 27 28  1  0
 28 29  1  0
 29 30  1  0
 30 31  1  0
 31 32  1  0
 32 33  1  0
 33 34  1  0
 34 35  1  0
 35 36  1  0
 36 37  1  0
 37 38  1  0
 38 39  1  0
 39 40  1  0
 40 41  1  0
 41 42  1  0
 42 43  1  0
 43 44  1  0
 44 45  1  0
 45 46  1  0
 46 47  1  0
 47 48  1  0
 48 49  1  0
 49 50  1  0
 50 51  1  0
 51 52  1  0
 52 53  1  0
 53 54  1  0
 54 55  1  0
 55 56  1  0
 56 57  1  0
 57 58  1  0
 58 59  1  0
 59 60  1  0
 60 61  2  0
 61 62  1  0
 62 63  2  0
 63 64  1  0
 64 65  2  0
 65 66  1  0
 66 67  2  0
 67 68  1  0
 68 69  2  0
 69 70  1  0
 70 71  2  0
 71 72  1  0
 72 73  2  0
 73 74  1  0
 74 75  2  0
 75 76  1  0
 76 77  2  0
 77 78  1  0
 78 79  2  0
 79 80  1  0
 80 81  1  0
 81 82  1  0
 82 83  2  0
 83 84  1  0
 84 85  2  0
 85 86  1  0
 86 87  2  0
 87 88  1  0
 88 89  2  0
 89 90  1  0
 90 91  2  0
 91  2  1  0
 85 79  1  0
 91 86  1  0
M  END
>  <Title>  (691) 
idAAYQgen10

$$$$

     RDKit          2D

 35 39  0  0  0  0  0  0  0  0999 V2000
   -4.8705   -4.5850    0.0000 C   0  0  0  0  0  0  0  0  0  0  0  0
   -3.3705   -4.5850    0.0000 C   0  0  0  0  0  0  0  0  0  0  0  0
   -3.0367   -6.0474    0.0000 C   0  0  0  0  0  0  0  0  0  0  0  0
   -2.1015   -7.2201    0.0000 C   0  0  0  0  0  0  0  0  0  0  0  0
   -0.7500   -7.8710    0.0000 C   0  0  0  0  0  0  0  0  0  0  0  0
   -1.0838   -9.3334    0.0000 C   0  0  0  0  0  0  0  0  0  0  0  0
    0.0158  -10.3536    0.0000 O   0  0  0  0  0  0  0  0  0  0  0  0
   -2.5171   -9.7755    0.0000 N   0  0  0  0  0  0  0  0  0  0  0  0
   -2.8509  -11.2379    0.0000 C   0  0  0  0  0  0  0  0  0  0  0  0
   -4.2843  -11.6800    0.0000 N   0  0  0  0  0  0  0  0  0  0  0  0
   -4.6181  -13.1424    0.0000 N   0  0  0  0  0  0  0  0  0  0  0  0
   -3.5185  -14.1627    0.0000 N   0  0  0  0  0  0  0  0  0  0  0  0
   -2.0851  -13.7205    0.0000 N   0  0  0  0  0  0  0  0  0  0  0  0
   -1.7513  -12.2581    0.0000 N   0  0  0  0  0  0  0  0  0  0  0  0
    0.7500   -7.8710    0.0000 C   0  0  0  0  0  0  0  0  0  0  0  0
    2.1015   -7.2201    0.0000 C   0  0  0  0  0  0  0  0  0  0  0  0
    3.0367   -6.0474    0.0000 C   0  0  0  0  0  0  0  0  0  0  0  0
    3.3705   -4.5850    0.0000 C   0  0  0  0  0  0  0  0  0  0  0  0
    3.0367   -3.1226    0.0000 C   0  0  0  0  0  0  0  0  0  0  0  0
    4.4410   -2.5955    0.0000 C   0  0  0  0  0  0  0  0  0  0  0  0
    4.3737   -1.0971    0.0000 C   0  0  0  0  0  0  0  0  0  0  0  0
    2.9278   -0.6980    0.0000 C   0  0  0  0  0  0  0  0  0  0  0  0
    2.1015   -1.9499    0.0000 C   0  0  0  0  0  0  0  0  0  0  0  0
    0.7500   -1.2990    0.0000 C   0  0  0  0  0  0  0  0  0  0  0  0
    1.5000    0.0000    0.0000 C   0  0  0  0  0  0  0  0  0  0  0  0
    0.7500    1.2990    0.0000 C   0  0  0  0  0  0  0  0  0  0  0  0
   -0.7500    1.2990    0.0000 C   0  0  0  0  0  0  0  0  0  0  0  0
   -1.5000    0.0000    0.0000 C   0  0  0  0  0  0  0  0  0  0  0  0
   -0.7500   -1.2990    0.0000 C   0  0  0  0  0  0  0  0  0  0  0  0
   -2.1015   -1.9499    0.0000 C   0  0  0  0  0  0  0  0  0  0  0  0
   -2.6495   -0.5536    0.0000 C   0  0  0  0  0  0  0  0  0  0  0  0
   -4.1327   -0.3300    0.0000 C   0  0  0  0  0  0  0  0  0  0  0  0
   -5.0679   -1.5027    0.0000 C   0  0  0  0  0  0  0  0  0  0  0  0
   -4.5199   -2.8990    0.0000 C   0  0  0  0  0  0  0  0  0  0  0  0
   -3.0367   -3.1226    0.0000 C   0  0  0  0  0  0  0  0  0  0  0  0
  1  2  1  0
  2  3  1  0
  3  4  1  0
  4  5  1  0
  5  6  1  0
  6  7  2  0
  6  8  1  0
  8  9  1  0
  9 10  2  0
 10 11  1  0
 11 12  2  0
 12 13  1  0
 13 14  2  0
  5 15  2  0
 15 16  1  0
 16 17  2  0
 17 18  1  0
 18 19  2  0
 19 20  1  0
 20 21  2  0
 21 22  1  0
 22 23  2  0
 23 24  1  0
 24 25  2  0
 25 26  1  0
 26 27  2  0
 27 28  1  0
 28 29  2  0
 29 30  1  0
 30 31  2  0
 31 32  1  0
 32 33  2  0
 33 34  1  0
 34 35  2  0
 35  2  1  0
 14  9  1  0
 23 19  1  0
 29 24  1  0
 35 30  1  0
M  END
>  <Title>  (692) 
idAAYRgen10

$$$$

     RDKit          2D

 10 10  0  0  0  0  0  0  0  0999 V2000
    7.5000    0.0000    0.0000 N   0  0  0  0  0  0  0  0  0  0  0  0
    6.0000    0.0000    0.0000 C   0  0  0  0  0  0  0  0  0  0  0  0
    4.5000    0.0000    0.0000 C   0  0  0  0  0  0  0  0  0  0  0  0
    3.0000    0.0000    0.0000 C   0  0  0  0  0  0  0  0  0  0  0  0
    1.5000    0.0000    0.0000 C   0  0  0  0  0  0  0  0  0  0  0  0
    0.7500   -1.2990    0.0000 C   0  0  0  0  0  0  0  0  0  0  0  0
   -0.7500   -1.2990    0.0000 C   0  0  0  0  0  0  0  0  0  0  0  0
   -1.5000    0.0000    0.0000 C   0  0  0  0  0  0  0  0  0  0  0  0
   -0.7500    1.2990    0.0000 C   0  0  0  0  0  0  0  0  0  0  0  0
    0.7500    1.2990    0.0000 C   0  0  0  0  0  0  0  0  0  0  0  0
  1  2  3  0
  2  3  1  0
  3  4  3  0
  4  5  1  0
  5  6  2  0
  6  7  1  0
  7  8  2  0
  8  9  1  0
  9 10  2  0
 10  5  1  0
M  END
>  <Title>  (693) 
idAAYSgen10

$$$$

     RDKit          2D

 79 80  0  0  0  0  0  0  0  0999 V2000
    9.2316   -4.4986    0.0000 C   0  0  0  0  0  0  0  0  0  0  0  0
   10.0278   -4.4607    0.0000 C   0  0  0  0  0  0  0  0  0  0  0  0
   10.2295   -5.9471    0.0000 C   0  0  0  0  0  0  0  0  0  0  0  0
   10.6862   -7.3759    0.0000 C   0  0  0  0  0  0  0  0  0  0  0  0
   11.3841   -8.7036    0.0000 C   0  0  0  0  0  0  0  0  0  0  0  0
   12.3020   -9.8900    0.0000 C   0  0  0  0  0  0  0  0  0  0  0  0
   13.4119  -10.8990    0.0000 C   0  0  0  0  0  0  0  0  0  0  0  0
   14.6802  -11.6999    0.0000 C   0  0  0  0  0  0  0  0  0  0  0  0
   16.0683  -12.2685    0.0000 C   0  0  0  0  0  0  0  0  0  0  0  0
   17.5340  -12.5873    0.0000 C   0  0  0  0  0  0  0  0  0  0  0  0
   19.0328  -12.6468    0.0000 C   0  0  0  0  0  0  0  0  0  0  0  0
   20.5192  -12.4451    0.0000 C   0  0  0  0  0  0  0  0  0  0  0  0
   21.9480  -11.9884    0.0000 C   0  0  0  0  0  0  0  0  0  0  0  0
   23.2757  -11.2905    0.0000 C   0  0  0  0  0  0  0  0  0  0  0  0
   24.4621  -10.3726    0.0000 C   0  0  0  0  0  0  0  0  0  0  0  0
   25.4711   -9.2627    0.0000 C   0  0  0  0  0  0  0  0  0  0  0  0
   26.2720   -7.9944    0.0000 C   0  0  0  0  0  0  0  0  0  0  0  0
   26.8406   -6.6063    0.0000 C   0  0  0  0  0  0  0  0  0  0  0  0
   27.1594   -5.1406    0.0000 C   0  0  0  0  0  0  0  0  0  0  0  0
   27.2189   -3.6418    0.0000 C   0  0  0  0  0  0  0  0  0  0  0  0
   27.0172   -2.1554    0.0000 C   0  0  0  0  0  0  0  0  0  0  0  0
   26.5605   -0.7267    0.0000 C   0  0  0  0  0  0  0  0  0  0  0  0
   25.8626    0.6011    0.0000 C   0  0  0  0  0  0  0  0  0  0  0  0
   24.9447    1.7875    0.0000 C   0  0  0  0  0  0  0  0  0  0  0  0
   23.8348    2.7965    0.0000 C   0  0  0  0  0  0  0  0  0  0  0  0
   22.5665    3.5974    0.0000 C   0  0  0  0  0  0  0  0  0  0  0  0
   21.1784    4.1659    0.0000 C   0  0  0  0  0  0  0  0  0  0  0  0
   19.7127    4.4848    0.0000 C   0  0  0  0  0  0  0  0  0  0  0  0
   18.2139    4.5443    0.0000 C   0  0  0  0  0  0  0  0  0  0  0  0
   16.7275    4.3426    0.0000 C   0  0  0  0  0  0  0  0  0  0  0  0
   15.2987    3.8859    0.0000 C   0  0  0  0  0  0  0  0  0  0  0  0
   13.9710    3.1880    0.0000 C   0  0  0  0  0  0  0  0  0  0  0  0
   12.7846    2.2701    0.0000 C   0  0  0  0  0  0  0  0  0  0  0  0
   11.7756    1.1602    0.0000 C   0  0  0  0  0  0  0  0  0  0  0  0
   10.9747   -0.1081    0.0000 C   0  0  0  0  0  0  0  0  0  0  0  0
   10.4061   -1.4962    0.0000 C   0  0  0  0  0  0  0  0  0  0  0  0
    9.8132   -0.0000    0.0000 C   0  0  0  0  0  0  0  0  0  0  0  0
    9.7133    1.3966    0.0000 C   0  0  0  0  0  0  0  0  0  0  0  0
    9.4157    2.7647    0.0000 C   0  0  0  0  0  0  0  0  0  0  0  0
    8.9264    4.0765    0.0000 C   0  0  0  0  0  0  0  0  0  0  0  0
    8.2554    5.3054    0.0000 C   0  0  0  0  0  0  0  0  0  0  0  0
    7.4163    6.4263    0.0000 C   0  0  0  0  0  0  0  0  0  0  0  0
    6.4263    7.4163    0.0000 C   0  0  0  0  0  0  0  0  0  0  0  0
    5.3054    8.2554    0.0000 C   0  0  0  0  0  0  0  0  0  0  0  0
    4.0765    8.9264    0.0000 C   0  0  0  0  0  0  0  0  0  0  0  0
    2.7647    9.4157    0.0000 C   0  0  0  0  0  0  0  0  0  0  0  0
    1.3966    9.7133    0.0000 C   0  0  0  0  0  0  0  0  0  0  0  0
    0.0000    9.8132    0.0000 C   0  0  0  0  0  0  0  0  0  0  0  0
   -1.3966    9.7133    0.0000 C   0  0  0  0  0  0  0  0  0  0  0  0
   -2.7647    9.4157    0.0000 C   0  0  0  0  0  0  0  0  0  0  0  0
   -4.0765    8.9264    0.0000 C   0  0  0  0  0  0  0  0  0  0  0  0
   -5.3054    8.2554    0.0000 C   0  0  0  0  0  0  0  0  0  0  0  0
   -6.4263    7.4163    0.0000 C   0  0  0  0  0  0  0  0  0  0  0  0
   -7.4163    6.4263    0.0000 C   0  0  0  0  0  0  0  0  0  0  0  0
   -8.2554    5.3054    0.0000 C   0  0  0  0  0  0  0  0  0  0  0  0
   -8.9264    4.0765    0.0000 C   0  0  0  0  0  0  0  0  0  0  0  0
   -9.4157    2.7647    0.0000 C   0  0  0  0  0  0  0  0  0  0  0  0
   -9.7133    1.3966    0.0000 C   0  0  0  0  0  0  0  0  0  0  0  0
   -9.8132    0.0000    0.0000 C   0  0  0  0  0  0  0  0  0  0  0  0
   -9.7133   -1.3966    0.0000 C   0  0  0  0  0  0  0  0  0  0  0  0
   -9.4157   -2.7647    0.0000 C   0  0  0  0  0  0  0  0  0  0  0  0
   -8.9264   -4.0765    0.0000 C   0  0  0  0  0  0  0  0  0  0  0  0
   -8.2554   -5.3054    0.0000 C   0  0  0  0  0  0  0  0  0  0  0  0
   -7.4163   -6.4263    0.0000 C   0  0  0  0  0  0  0  0  0  0  0  0
   -6.4263   -7.4163    0.0000 C   0  0  0  0  0  0  0  0  0  0  0  0
   -5.3054   -8.2554    0.0000 C   0  0  0  0  0  0  0  0  0  0  0  0
   -4.0765   -8.9264    0.0000 C   0  0  0  0  0  0  0  0  0  0  0  0
   -2.7647   -9.4157    0.0000 C   0  0  0  0  0  0  0  0  0  0  0  0
   -1.3966   -9.7133    0.0000 C   0  0  0  0  0  0  0  0  0  0  0  0
   -0.0000   -9.8132    0.0000 C   0  0  0  0  0  0  0  0  0  0  0  0
    1.3966   -9.7133    0.0000 C   0  0  0  0  0  0  0  0  0  0  0  0
    2.7647   -9.4157    0.0000 C   0  0  0  0  0  0  0  0  0  0  0  0
    4.0765   -8.9264    0.0000 C   0  0  0  0  0  0  0  0  0  0  0  0
    5.3054   -8.2554    0.0000 C   0  0  0  0  0  0  0  0  0  0  0  0
    6.4263   -7.4163    0.0000 C   0  0  0  0  0  0  0  0  0  0  0  0
    7.4163   -6.4263    0.0000 C   0  0  0  0  0  0  0  0  0  0  0  0
    8.2554   -5.3054    0.0000 C   0  0  0  0  0  0  0  0  0  0  0  0
    8.9264   -4.0765    0.0000 C   0  0  0  0  0  0  0  0  0  0  0  0
   10.0873   -2.9619    0.0000 C   0  0  0  0  0  0  0  0  0  0  0  0
  1  2  1  0
  2  3  1  0
  3  4  2  0
  4  5  1  0
  5  6  2  0
  6  7  1  0
  7  8  2  0
  8  9  1  0
  9 10  2  0
 10 11  1  0
 11 12  2  0
 12 13  1  0
 13 14  2  0
 14 15  1  0
 15 16  2  0
 16 17  1  0
 17 18  2  0
 18 19  1  0
 19 20  2  0
 20 21  1  0
 21 22  2  0
 22 23  1  0
 23 24  2  0
 24 25  1  0
 25 26  2  0
 26 27  1  0
 27 28  2  0
 28 29  1  0
 29 30  2  0
 30 31  1  0
 31 32  2  0
 32 33  1  0
 33 34  2  0
 34 35  1  0
 35 36  2  0
 36 37  1  0
 37 38  1  0
 38 39  1  0
 39 40  1  0
 40 41  1  0
 41 42  1  0
 42 43  1  0
 43 44  1  0
 44 45  1  0
 45 46  1  0
 46 47  1  0
 47 48  1  0
 48 49  1  0
 49 50  1  0
 50 51  1  0
 51 52  1  0
 52 53  1  0
 53 54  1  0
 54 55  1  0
 55 56  1  0
 56 57  1  0
 57 58  1  0
 58 59  1  0
 59 60  1  0
 60 61  1  0
 61 62  1  0
 62 63  2  0
 63 64  1  0
 64 65  2  0
 65 66  1  0
 66 67  2  0
 67 68  1  0
 68 69  2  0
 69 70  1  0
 70 71  2  0
 71 72  1  0
 72 73  2  0
 73 74  1  0
 74 75  2  0
 75 76  1  0
 76 77  2  0
 77 78  1  0
 78 79  2  0
 79  2  1  0
 79 36  1  0
M  END
>  <Title>  (694) 
idAAYTgen10

$$$$

     RDKit          2D

 13 12  0  0  0  0  0  0  0  0999 V2000
    0.0000    0.0000    0.0000 C   0  0  0  0  0  0  0  0  0  0  0  0
   -0.0000   -1.5000    0.0000 C   0  0  0  0  0  0  0  0  0  0  0  0
   -0.0000   -3.0000    0.0000 C   0  0  0  0  0  0  0  0  0  0  0  0
    1.2990   -3.7500    0.0000 C   0  0  0  0  0  0  0  0  0  0  0  0
    1.2990   -5.2500    0.0000 C   0  0  0  0  0  0  0  0  0  0  0  0
    2.5981   -6.0000    0.0000 C   0  0  0  0  0  0  0  0  0  0  0  0
    2.5981   -7.5000    0.0000 C   0  0  0  0  0  0  0  0  0  0  0  0
    3.8971   -8.2500    0.0000 C   0  0  0  0  0  0  0  0  0  0  0  0
    3.8971   -9.7500    0.0000 C   0  0  0  0  0  0  0  0  0  0  0  0
    5.1962  -10.5000    0.0000 C   0  0  0  0  0  0  0  0  0  0  0  0
    5.1962  -12.0000    0.0000 C   0  0  0  0  0  0  0  0  0  0  0  0
    6.4952  -12.7500    0.0000 C   0  0  0  0  0  0  0  0  0  0  0  0
    6.4952  -14.2500    0.0000 C   0  0  0  0  0  0  0  0  0  0  0  0
  1  2  3  0
  2  3  1  0
  3  4  1  0
  4  5  1  0
  5  6  1  0
  6  7  1  0
  7  8  1  0
  8  9  1  0
  9 10  1  0
 10 11  1  0
 11 12  2  3
 12 13  1  0
M  END
>  <Title>  (695) 
idAAYUgen10

$$$$

     RDKit          2D

  7  7  0  0  0  0  0  0  0  0999 V2000
    3.5260   -1.2990    0.0000 C   0  0  0  0  0  0  0  0  0  0  0  0
    2.7760    0.0000    0.0000 C   0  0  0  0  0  0  0  0  0  0  0  0
    1.2760    0.0000    0.0000 C   0  0  0  0  0  0  0  0  0  0  0  0
    0.3943    1.2135    0.0000 C   0  0  0  0  0  0  0  0  0  0  0  0
   -1.0323    0.7500    0.0000 C   0  0  0  0  0  0  0  0  0  0  0  0
   -1.0323   -0.7500    0.0000 C   0  0  0  0  0  0  0  0  0  0  0  0
    0.3943   -1.2135    0.0000 C   0  0  0  0  0  0  0  0  0  0  0  0
  1  2  2  0
  2  3  1  0
  3  4  2  0
  4  5  1  0
  5  6  2  0
  6  7  1  0
  7  3  1  0
M  END
>  <Title>  (696) 
idAAYVgen10

$$$$

     RDKit          2D

 10 10  0  0  0  0  0  0  0  0999 V2000
    6.7500   -1.2990    0.0000 C   0  0  0  0  0  0  0  0  0  0  0  0
    5.2500   -1.2990    0.0000 C   0  0  0  0  0  0  0  0  0  0  0  0
    3.7500   -1.2990    0.0000 C   0  0  0  0  0  0  0  0  0  0  0  0
    3.0000    0.0000    0.0000 N   0  0  0  0  0  0  0  0  0  0  0  0
    1.5000    0.0000    0.0000 C   0  0  0  0  0  0  0  0  0  0  0  0
    0.7500   -1.2990    0.0000 C   0  0  0  0  0  0  0  0  0  0  0  0
   -0.7500   -1.2990    0.0000 C   0  0  0  0  0  0  0  0  0  0  0  0
   -1.5000    0.0000    0.0000 C   0  0  0  0  0  0  0  0  0  0  0  0
   -0.7500    1.2990    0.0000 C   0  0  0  0  0  0  0  0  0  0  0  0
    0.7500    1.2990    0.0000 C   0  0  0  0  0  0  0  0  0  0  0  0
  1  2  3  0
  2  3  1  0
  3  4  1  0
  4  5  1  0
  5  6  2  0
  6  7  1  0
  7  8  2  0
  8  9  1  0
  9 10  2  0
 10  5  1  0
M  END
>  <Title>  (697) 
idAAYWgen10

$$$$

     RDKit          2D

 45 51  0  0  0  0  0  0  0  0999 V2000
   11.0333   -8.4565    0.0000 C   0  0  0  0  0  0  0  0  0  0  0  0
    9.6819   -7.8057    0.0000 C   0  0  0  0  0  0  0  0  0  0  0  0
    8.4425   -8.6507    0.0000 C   0  0  0  0  0  0  0  0  0  0  0  0
    7.0910   -7.9999    0.0000 C   0  0  0  0  0  0  0  0  0  0  0  0
    6.9790   -6.5041    0.0000 C   0  0  0  0  0  0  0  0  0  0  0  0
    5.6275   -5.8532    0.0000 C   0  0  0  0  0  0  0  0  0  0  0  0
    5.5154   -4.3574    0.0000 O   0  0  0  0  0  0  0  0  0  0  0  0
    4.3881   -6.6982    0.0000 N   0  0  0  0  0  0  0  0  0  0  0  0
    3.0367   -6.0474    0.0000 C   0  0  0  0  0  0  0  0  0  0  0  0
    3.3705   -4.5850    0.0000 N   0  0  0  0  0  0  0  0  0  0  0  0
    3.0367   -3.1226    0.0000 N   0  0  0  0  0  0  0  0  0  0  0  0
    2.1015   -1.9499    0.0000 N   0  0  0  0  0  0  0  0  0  0  0  0
    0.7500   -1.2990    0.0000 N   0  0  0  0  0  0  0  0  0  0  0  0
    1.5000    0.0000    0.0000 C   0  0  0  0  0  0  0  0  0  0  0  0
    0.7500    1.2990    0.0000 C   0  0  0  0  0  0  0  0  0  0  0  0
   -0.7500    1.2990    0.0000 C   0  0  0  0  0  0  0  0  0  0  0  0
   -1.5000    0.0000    0.0000 C   0  0  0  0  0  0  0  0  0  0  0  0
   -0.7500   -1.2990    0.0000 C   0  0  0  0  0  0  0  0  0  0  0  0
   -2.1015   -1.9499    0.0000 C   0  0  0  0  0  0  0  0  0  0  0  0
   -2.6495   -0.5536    0.0000 C   0  0  0  0  0  0  0  0  0  0  0  0
   -4.1327   -0.3300    0.0000 C   0  0  0  0  0  0  0  0  0  0  0  0
   -5.0679   -1.5027    0.0000 C   0  0  0  0  0  0  0  0  0  0  0  0
   -4.5199   -2.8990    0.0000 C   0  0  0  0  0  0  0  0  0  0  0  0
   -3.0367   -3.1226    0.0000 C   0  0  0  0  0  0  0  0  0  0  0  0
   -3.3705   -4.5850    0.0000 C   0  0  0  0  0  0  0  0  0  0  0  0
   -4.8038   -4.1429    0.0000 C   0  0  0  0  0  0  0  0  0  0  0  0
   -5.9034   -5.1631    0.0000 C   0  0  0  0  0  0  0  0  0  0  0  0
   -5.5696   -6.6255    0.0000 C   0  0  0  0  0  0  0  0  0  0  0  0
   -4.1363   -7.0677    0.0000 C   0  0  0  0  0  0  0  0  0  0  0  0
   -3.0367   -6.0474    0.0000 C   0  0  0  0  0  0  0  0  0  0  0  0
   -2.1015   -7.2201    0.0000 C   0  0  0  0  0  0  0  0  0  0  0  0
   -3.3408   -8.0651    0.0000 C   0  0  0  0  0  0  0  0  0  0  0  0
   -3.2287   -9.5609    0.0000 C   0  0  0  0  0  0  0  0  0  0  0  0
   -1.8773  -10.2118    0.0000 C   0  0  0  0  0  0  0  0  0  0  0  0
   -0.6379   -9.3668    0.0000 C   0  0  0  0  0  0  0  0  0  0  0  0
   -0.7500   -7.8710    0.0000 C   0  0  0  0  0  0  0  0  0  0  0  0
    0.7500   -7.8710    0.0000 C   0  0  0  0  0  0  0  0  0  0  0  0
    0.6379   -9.3668    0.0000 C   0  0  0  0  0  0  0  0  0  0  0  0
    1.8773  -10.2118    0.0000 C   0  0  0  0  0  0  0  0  0  0  0  0
    3.2287   -9.5609    0.0000 C   0  0  0  0  0  0  0  0  0  0  0  0
    3.3408   -8.0651    0.0000 C   0  0  0  0  0  0  0  0  0  0  0  0
    2.1015   -7.2201    0.0000 C   0  0  0  0  0  0  0  0  0  0  0  0
    8.2183   -5.6591    0.0000 C   0  0  0  0  0  0  0  0  0  0  0  0
    8.1062   -4.1633    0.0000 C   0  0  0  0  0  0  0  0  0  0  0  0
    9.5698   -6.3099    0.0000 C   0  0  0  0  0  0  0  0  0  0  0  0
  1  2  1  0
  2  3  2  0
  3  4  1  0
  4  5  2  0
  5  6  1  0
  6  7  2  0
  6  8  1  0
  8  9  1  0
  9 10  2  0
 10 11  1  0
 11 12  2  0
 12 13  1  0
 13 14  1  0
 14 15  1  0
 15 16  2  0
 16 17  1  0
 17 18  2  0
 18 19  1  0
 19 20  2  0
 20 21  1  0
 21 22  2  0
 22 23  1  0
 23 24  2  0
 24 25  1  0
 25 26  2  0
 26 27  1  0
 27 28  2  0
 28 29  1  0
 29 30  2  0
 30 31  1  0
 31 32  2  0
 32 33  1  0
 33 34  2  0
 34 35  1  0
 35 36  2  0
 36 37  1  0
 37 38  2  0
 38 39  1  0
 39 40  2  0
 40 41  1  0
 41 42  2  0
  5 43  1  0
 43 44  1  0
 43 45  2  0
 45  2  1  0
 42  9  1  0
 18 13  1  0
 24 19  1  0
 30 25  1  0
 36 31  1  0
 42 37  1  0
M  END
>  <Title>  (698) 
idAAYXgen10

$$$$

     RDKit          2D

 11 11  0  0  0  0  0  0  0  0999 V2000
    4.2760   -2.5981    0.0000 C   0  0  0  0  0  0  0  0  0  0  0  0
    3.5260   -1.2990    0.0000 C   0  0  0  0  0  0  0  0  0  0  0  0
    2.7760    0.0000    0.0000 C   0  0  0  0  0  0  0  0  0  0  0  0
    3.5260    1.2990    0.0000 O   0  0  0  0  0  0  0  0  0  0  0  0
    1.2760    0.0000    0.0000 C   0  0  0  0  0  0  0  0  0  0  0  0
    0.3943    1.2135    0.0000 C   0  0  0  0  0  0  0  0  0  0  0  0
    0.8578    2.6401    0.0000 C   0  0  0  0  0  0  0  0  0  0  0  0
    1.3213    4.0667    0.0000 N   0  0  0  0  0  0  0  0  0  0  0  0
   -1.0323    0.7500    0.0000 C   0  0  0  0  0  0  0  0  0  0  0  0
   -1.0323   -0.7500    0.0000 C   0  0  0  0  0  0  0  0  0  0  0  0
    0.3943   -1.2135    0.0000 C   0  0  0  0  0  0  0  0  0  0  0  0
  1  2  3  0
  2  3  1  0
  3  4  2  0
  3  5  1  0
  5  6  2  0
  6  7  1  0
  7  8  3  0
  6  9  1  0
  9 10  2  0
 10 11  1  0
 11  5  1  0
M  END
>  <Title>  (699) 
idAAYYgen10

$$$$

     RDKit          2D

 17 18  0  0  0  0  0  0  0  0999 V2000
    4.5000   -2.5981    0.0000 C   0  0  0  0  0  0  0  0  0  0  0  0
    3.7500   -1.2990    0.0000 C   0  0  0  0  0  0  0  0  0  0  0  0
    3.0000    0.0000    0.0000 C   0  0  0  0  0  0  0  0  0  0  0  0
    3.7500    1.2990    0.0000 O   0  0  0  0  0  0  0  0  0  0  0  0
    1.5000    0.0000    0.0000 N   0  0  0  0  0  0  0  0  0  0  0  0
    0.7500   -1.2990    0.0000 C   0  0  0  0  0  0  0  0  0  0  0  0
   -0.7500   -1.2990    0.0000 C   0  0  0  0  0  0  0  0  0  0  0  0
   -1.5000    0.0000    0.0000 C   0  0  0  0  0  0  0  0  0  0  0  0
   -3.0000    0.0000    0.0000 C   0  0  0  0  0  0  0  0  0  0  0  0
   -3.7500    1.2990    0.0000 C   0  0  0  0  0  0  0  0  0  0  0  0
   -3.0000    2.5981    0.0000 C   0  0  0  0  0  0  0  0  0  0  0  0
   -3.7500    3.8971    0.0000 C   0  0  0  0  0  0  0  0  0  0  0  0
   -5.2500    3.8971    0.0000 C   0  0  0  0  0  0  0  0  0  0  0  0
   -6.0000    2.5981    0.0000 C   0  0  0  0  0  0  0  0  0  0  0  0
   -5.2500    1.2990    0.0000 C   0  0  0  0  0  0  0  0  0  0  0  0
   -0.7500    1.2990    0.0000 C   0  0  0  0  0  0  0  0  0  0  0  0
    0.7500    1.2990    0.0000 C   0  0  0  0  0  0  0  0  0  0  0  0
  1  2  3  0
  2  3  1  0
  3  4  2  0
  3  5  1  0
  5  6  1  0
  6  7  1  0
  7  8  1  0
  8  9  1  0
  9 10  1  0
 10 11  2  0
 11 12  1  0
 12 13  2  0
 13 14  1  0
 14 15  2  0
  8 16  1  0
 16 17  1  0
 17  5  1  0
 15 10  1  0
M  END
>  <Title>  (700) 
idAAYZgen10

$$$$

     RDKit          2D

  7  7  0  0  0  0  0  0  0  0999 V2000
    2.7760    0.0000    0.0000 C   0  0  0  0  0  0  0  0  0  0  0  0
    1.2760    0.0000    0.0000 C   0  0  0  0  0  0  0  0  0  0  0  0
    0.3943    1.2135    0.0000 C   0  0  0  0  0  0  0  0  0  0  0  0
   -1.0323    0.7500    0.0000 N   0  0  0  0  0  0  0  0  0  0  0  0
   -1.0323   -0.7500    0.0000 C   0  0  0  0  0  0  0  0  0  0  0  0
   -2.2458   -1.6317    0.0000 C   0  0  0  0  0  0  0  0  0  0  0  0
    0.3943   -1.2135    0.0000 C   0  0  0  0  0  0  0  0  0  0  0  0
  1  2  1  0
  2  3  2  0
  3  4  1  0
  4  5  1  0
  5  6  1  0
  5  7  2  0
  7  2  1  0
M  END
>  <Title>  (701) 
idAAZAgen10

$$$$

     RDKit          2D

 12 13  0  0  0  0  0  0  0  0999 V2000
   -1.0607   -7.0333    0.0000 O   0  0  0  0  0  0  0  0  0  0  0  0
   -0.3107   -5.7342    0.0000 C   0  0  0  0  0  0  0  0  0  0  0  0
   -0.6989   -4.2853    0.0000 C   0  0  0  0  0  0  0  0  0  0  0  0
    0.7500   -3.8971    0.0000 C   0  0  0  0  0  0  0  0  0  0  0  0
    1.5000   -2.5981    0.0000 C   0  0  0  0  0  0  0  0  0  0  0  0
    0.7500   -1.2990    0.0000 C   0  0  0  0  0  0  0  0  0  0  0  0
    1.5000    0.0000    0.0000 C   0  0  0  0  0  0  0  0  0  0  0  0
    0.7500    1.2990    0.0000 C   0  0  0  0  0  0  0  0  0  0  0  0
   -0.7500    1.2990    0.0000 C   0  0  0  0  0  0  0  0  0  0  0  0
   -1.5000    0.0000    0.0000 C   0  0  0  0  0  0  0  0  0  0  0  0
   -0.7500   -1.2990    0.0000 C   0  0  0  0  0  0  0  0  0  0  0  0
    1.1382   -5.3460    0.0000 C   0  0  0  0  0  0  0  0  0  0  0  0
  1  2  1  0
  2  3  2  0
  3  4  1  0
  4  5  1  0
  5  6  1  0
  6  7  2  0
  7  8  1  0
  8  9  2  0
  9 10  1  0
 10 11  2  0
  4 12  2  0
 12  2  1  0
 11  6  1  0
M  END
>  <Title>  (702) 
idAAZBgen10

$$$$

     RDKit          2D

 70 71  0  0  0  0  0  0  0  0999 V2000
   14.8646    5.4731    0.0000 C   0  0  0  0  0  0  0  0  0  0  0  0
   15.6388    4.1883    0.0000 C   0  0  0  0  0  0  0  0  0  0  0  0
   17.1220    4.4118    0.0000 C   0  0  0  0  0  0  0  0  0  0  0  0
   18.3289    3.5211    0.0000 C   0  0  0  0  0  0  0  0  0  0  0  0
   18.5525    2.0379    0.0000 C   0  0  0  0  0  0  0  0  0  0  0  0
   17.6618    0.8310    0.0000 C   0  0  0  0  0  0  0  0  0  0  0  0
   16.1785    0.6074    0.0000 C   0  0  0  0  0  0  0  0  0  0  0  0
   14.9716    1.4981    0.0000 C   0  0  0  0  0  0  0  0  0  0  0  0
   15.0464    0.0000    0.0000 C   0  0  0  0  0  0  0  0  0  0  0  0
   14.9716   -1.4981    0.0000 C   0  0  0  0  0  0  0  0  0  0  0  0
   14.7480   -2.9814    0.0000 C   0  0  0  0  0  0  0  0  0  0  0  0
   14.3779   -4.4350    0.0000 C   0  0  0  0  0  0  0  0  0  0  0  0
   13.8649   -5.8445    0.0000 C   0  0  0  0  0  0  0  0  0  0  0  0
   13.2141   -7.1960    0.0000 C   0  0  0  0  0  0  0  0  0  0  0  0
   12.4319   -8.4759    0.0000 C   0  0  0  0  0  0  0  0  0  0  0  0
   11.5262   -9.6716    0.0000 C   0  0  0  0  0  0  0  0  0  0  0  0
   10.5059  -10.7712    0.0000 C   0  0  0  0  0  0  0  0  0  0  0  0
    9.3813  -11.7637    0.0000 C   0  0  0  0  0  0  0  0  0  0  0  0
    8.1634  -12.6393    0.0000 C   0  0  0  0  0  0  0  0  0  0  0  0
    6.8643  -13.3893    0.0000 C   0  0  0  0  0  0  0  0  0  0  0  0
    5.4971  -14.0063    0.0000 C   0  0  0  0  0  0  0  0  0  0  0  0
    4.0752  -14.4840    0.0000 C   0  0  0  0  0  0  0  0  0  0  0  0
    2.6128  -14.8178    0.0000 C   0  0  0  0  0  0  0  0  0  0  0  0
    1.1244  -15.0043    0.0000 C   0  0  0  0  0  0  0  0  0  0  0  0
   -0.3751  -15.0417    0.0000 C   0  0  0  0  0  0  0  0  0  0  0  0
   -1.8709  -14.9296    0.0000 C   0  0  0  0  0  0  0  0  0  0  0  0
   -3.3481  -14.6691    0.0000 C   0  0  0  0  0  0  0  0  0  0  0  0
   -4.7921  -14.2629    0.0000 C   0  0  0  0  0  0  0  0  0  0  0  0
   -6.1884  -13.7149    0.0000 C   0  0  0  0  0  0  0  0  0  0  0  0
   -7.5232  -13.0305    0.0000 C   0  0  0  0  0  0  0  0  0  0  0  0
   -8.7832  -12.2167    0.0000 C   0  0  0  0  0  0  0  0  0  0  0  0
   -9.9560  -11.2815    0.0000 C   0  0  0  0  0  0  0  0  0  0  0  0
  -11.0298  -10.2341    0.0000 C   0  0  0  0  0  0  0  0  0  0  0  0
  -11.9940   -9.0851    0.0000 C   0  0  0  0  0  0  0  0  0  0  0  0
  -12.8389   -7.8457    0.0000 C   0  0  0  0  0  0  0  0  0  0  0  0
  -13.5563   -6.5284    0.0000 C   0  0  0  0  0  0  0  0  0  0  0  0
  -14.1390   -5.1462    0.0000 C   0  0  0  0  0  0  0  0  0  0  0  0
  -14.5811   -3.7128    0.0000 C   0  0  0  0  0  0  0  0  0  0  0  0
  -14.8783   -2.2425    0.0000 C   0  0  0  0  0  0  0  0  0  0  0  0
  -15.0277   -0.7500    0.0000 C   0  0  0  0  0  0  0  0  0  0  0  0
  -15.0277    0.7500    0.0000 C   0  0  0  0  0  0  0  0  0  0  0  0
  -14.8783    2.2425    0.0000 C   0  0  0  0  0  0  0  0  0  0  0  0
  -14.5811    3.7128    0.0000 C   0  0  0  0  0  0  0  0  0  0  0  0
  -14.1390    5.1462    0.0000 C   0  0  0  0  0  0  0  0  0  0  0  0
  -13.5563    6.5284    0.0000 C   0  0  0  0  0  0  0  0  0  0  0  0
  -12.8389    7.8457    0.0000 C   0  0  0  0  0  0  0  0  0  0  0  0
  -11.9940    9.0851    0.0000 C   0  0  0  0  0  0  0  0  0  0  0  0
  -11.0298   10.2341    0.0000 C   0  0  0  0  0  0  0  0  0  0  0  0
   -9.9560   11.2815    0.0000 C   0  0  0  0  0  0  0  0  0  0  0  0
   -8.7832   12.2167    0.0000 C   0  0  0  0  0  0  0  0  0  0  0  0
   -7.5232   13.0305    0.0000 C   0  0  0  0  0  0  0  0  0  0  0  0
   -6.1884   13.7149    0.0000 C   0  0  0  0  0  0  0  0  0  0  0  0
   -4.7921   14.2629    0.0000 C   0  0  0  0  0  0  0  0  0  0  0  0
   -3.3481   14.6691    0.0000 C   0  0  0  0  0  0  0  0  0  0  0  0
   -1.8709   14.9296    0.0000 C   0  0  0  0  0  0  0  0  0  0  0  0
   -0.3751   15.0417    0.0000 C   0  0  0  0  0  0  0  0  0  0  0  0
    1.1244   15.0043    0.0000 C   0  0  0  0  0  0  0  0  0  0  0  0
    2.6128   14.8178    0.0000 C   0  0  0  0  0  0  0  0  0  0  0  0
    4.0752   14.4840    0.0000 C   0  0  0  0  0  0  0  0  0  0  0  0
    5.4971   14.0063    0.0000 C   0  0  0  0  0  0  0  0  0  0  0  0
    6.8643   13.3893    0.0000 C   0  0  0  0  0  0  0  0  0  0  0  0
    8.1634   12.6393    0.0000 C   0  0  0  0  0  0  0  0  0  0  0  0
    9.3813   11.7637    0.0000 C   0  0  0  0  0  0  0  0  0  0  0  0
   10.5059   10.7712    0.0000 C   0  0  0  0  0  0  0  0  0  0  0  0
   11.5262    9.6716    0.0000 C   0  0  0  0  0  0  0  0  0  0  0  0
   12.4319    8.4759    0.0000 C   0  0  0  0  0  0  0  0  0  0  0  0
   13.2141    7.1960    0.0000 C   0  0  0  0  0  0  0  0  0  0  0  0
   13.8649    5.8445    0.0000 C   0  0  0  0  0  0  0  0  0  0  0  0
   14.3779    4.4350    0.0000 C   0  0  0  0  0  0  0  0  0  0  0  0
   14.7480    2.9814    0.0000 C   0  0  0  0  0  0  0  0  0  0  0  0
  1  2  1  0
  2  3  1  0
  3  4  2  0
  4  5  1  0
  5  6  2  0
  6  7  1  0
  7  8  2  0
  8  9  1  0
  9 10  1  0
 10 11  1  0
 11 12  1  0
 12 13  1  0
 13 14  1  0
 14 15  1  0
 15 16  1  0
 16 17  1  0
 17 18  1  0
 18 19  1  0
 19 20  1  0
 20 21  1  0
 21 22  1  0
 22 23  1  0
 23 24  1  0
 24 25  1  0
 25 26  1  0
 26 27  1  0
 27 28  1  0
 28 29  1  0
 29 30  1  0
 30 31  1  0
 31 32  2  0
 32 33  1  0
 33 34  2  0
 34 35  1  0
 35 36  2  0
 36 37  1  0
 37 38  2  0
 38 39  1  0
 39 40  2  0
 40 41  1  0
 41 42  2  0
 42 43  1  0
 43 44  2  0
 44 45  1  0
 45 46  2  0
 46 47  1  0
 47 48  2  0
 48 49  1  0
 49 50  2  0
 50 51  1  0
 51 52  2  0
 52 53  1  0
 53 54  2  0
 54 55  1  0
 55 56  2  0
 56 57  1  0
 57 58  2  0
 58 59  1  0
 59 60  2  0
 60 61  1  0
 61 62  2  0
 62 63  1  0
 63 64  2  0
 64 65  1  0
 65 66  2  0
 66 67  1  0
 67 68  2  0
 68 69  1  0
 69 70  2  0
 70  2  1  0
 70  8  1  0
M  END
>  <Title>  (703) 
idAAZCgen10

$$$$

     RDKit          2D

 68 78  0  0  0  0  0  0  0  0999 V2000
    7.1840   -7.9416    0.0000 C   0  0  0  0  0  0  0  0  0  0  0  0
    5.6968   -7.7459    0.0000 C   0  0  0  0  0  0  0  0  0  0  0  0
    5.6968   -6.2459    0.0000 N   0  0  0  0  0  0  0  0  0  0  0  0
    5.3086   -4.7970    0.0000 N   0  0  0  0  0  0  0  0  0  0  0  0
    4.5586   -3.4979    0.0000 N   0  0  0  0  0  0  0  0  0  0  0  0
    3.4979   -2.4373    0.0000 C   0  0  0  0  0  0  0  0  0  0  0  0
    4.7970   -1.6873    0.0000 C   0  0  0  0  0  0  0  0  0  0  0  0
    4.7970   -0.1873    0.0000 C   0  0  0  0  0  0  0  0  0  0  0  0
    3.4979    0.5627    0.0000 N   0  0  0  0  0  0  0  0  0  0  0  0
    3.4979    2.0627    0.0000 C   0  0  0  0  0  0  0  0  0  0  0  0
    2.1989   -0.1873    0.0000 C   0  0  0  0  0  0  0  0  0  0  0  0
    2.1989   -1.6873    0.0000 C   0  0  0  0  0  0  0  0  0  0  0  0
    0.7500   -1.2990    0.0000 C   0  0  0  0  0  0  0  0  0  0  0  0
    1.5000    0.0000    0.0000 C   0  0  0  0  0  0  0  0  0  0  0  0
    0.7500    1.2990    0.0000 C   0  0  0  0  0  0  0  0  0  0  0  0
   -0.7500    1.2990    0.0000 C   0  0  0  0  0  0  0  0  0  0  0  0
   -1.5000    0.0000    0.0000 C   0  0  0  0  0  0  0  0  0  0  0  0
   -0.7500   -1.2990    0.0000 C   0  0  0  0  0  0  0  0  0  0  0  0
   -2.1989   -1.6873    0.0000 C   0  0  0  0  0  0  0  0  0  0  0  0
   -2.1989   -0.1873    0.0000 C   0  0  0  0  0  0  0  0  0  0  0  0
   -3.4979    0.5627    0.0000 C   0  0  0  0  0  0  0  0  0  0  0  0
   -4.7970   -0.1873    0.0000 C   0  0  0  0  0  0  0  0  0  0  0  0
   -4.7970   -1.6873    0.0000 C   0  0  0  0  0  0  0  0  0  0  0  0
   -3.4979   -2.4373    0.0000 C   0  0  0  0  0  0  0  0  0  0  0  0
   -4.5586   -3.4979    0.0000 C   0  0  0  0  0  0  0  0  0  0  0  0
   -5.3086   -2.1989    0.0000 C   0  0  0  0  0  0  0  0  0  0  0  0
   -6.8086   -2.1989    0.0000 C   0  0  0  0  0  0  0  0  0  0  0  0
   -7.5586   -3.4979    0.0000 C   0  0  0  0  0  0  0  0  0  0  0  0
   -6.8086   -4.7970    0.0000 C   0  0  0  0  0  0  0  0  0  0  0  0
   -5.3086   -4.7970    0.0000 C   0  0  0  0  0  0  0  0  0  0  0  0
   -5.6968   -6.2459    0.0000 C   0  0  0  0  0  0  0  0  0  0  0  0
   -6.9959   -5.4959    0.0000 C   0  0  0  0  0  0  0  0  0  0  0  0
   -8.2949   -6.2459    0.0000 C   0  0  0  0  0  0  0  0  0  0  0  0
   -8.2949   -7.7459    0.0000 C   0  0  0  0  0  0  0  0  0  0  0  0
   -6.9959   -8.4959    0.0000 C   0  0  0  0  0  0  0  0  0  0  0  0
   -5.6968   -7.7459    0.0000 C   0  0  0  0  0  0  0  0  0  0  0  0
   -5.3086   -9.1947    0.0000 C   0  0  0  0  0  0  0  0  0  0  0  0
   -6.8086   -9.1947    0.0000 C   0  0  0  0  0  0  0  0  0  0  0  0
   -7.5586  -10.4938    0.0000 C   0  0  0  0  0  0  0  0  0  0  0  0
   -6.8086  -11.7928    0.0000 C   0  0  0  0  0  0  0  0  0  0  0  0
   -5.3086  -11.7928    0.0000 C   0  0  0  0  0  0  0  0  0  0  0  0
   -4.5586  -10.4938    0.0000 C   0  0  0  0  0  0  0  0  0  0  0  0
   -3.4979  -11.5544    0.0000 C   0  0  0  0  0  0  0  0  0  0  0  0
   -4.7970  -12.3044    0.0000 C   0  0  0  0  0  0  0  0  0  0  0  0
   -4.7970  -13.8044    0.0000 C   0  0  0  0  0  0  0  0  0  0  0  0
   -3.4979  -14.5544    0.0000 C   0  0  0  0  0  0  0  0  0  0  0  0
   -2.1989  -13.8044    0.0000 C   0  0  0  0  0  0  0  0  0  0  0  0
   -2.1989  -12.3044    0.0000 C   0  0  0  0  0  0  0  0  0  0  0  0
   -0.7500  -12.6927    0.0000 C   0  0  0  0  0  0  0  0  0  0  0  0
   -1.5000  -13.9917    0.0000 C   0  0  0  0  0  0  0  0  0  0  0  0
   -0.7500  -15.2907    0.0000 C   0  0  0  0  0  0  0  0  0  0  0  0
    0.7500  -15.2907    0.0000 C   0  0  0  0  0  0  0  0  0  0  0  0
    1.5000  -13.9917    0.0000 C   0  0  0  0  0  0  0  0  0  0  0  0
    0.7500  -12.6927    0.0000 C   0  0  0  0  0  0  0  0  0  0  0  0
    2.1989  -12.3044    0.0000 C   0  0  0  0  0  0  0  0  0  0  0  0
    2.1989  -13.8044    0.0000 C   0  0  0  0  0  0  0  0  0  0  0  0
    3.4979  -14.5544    0.0000 C   0  0  0  0  0  0  0  0  0  0  0  0
    4.7970  -13.8044    0.0000 C   0  0  0  0  0  0  0  0  0  0  0  0
    4.7970  -12.3044    0.0000 C   0  0  0  0  0  0  0  0  0  0  0  0
    3.4979  -11.5544    0.0000 C   0  0  0  0  0  0  0  0  0  0  0  0
    4.5586  -10.4938    0.0000 C   0  0  0  0  0  0  0  0  0  0  0  0
    5.3086  -11.7928    0.0000 C   0  0  0  0  0  0  0  0  0  0  0  0
    6.8086  -11.7928    0.0000 C   0  0  0  0  0  0  0  0  0  0  0  0
    7.5586  -10.4938    0.0000 C   0  0  0  0  0  0  0  0  0  0  0  0
    9.0586  -10.4938    0.0000 C   0  0  0  0  0  0  0  0  0  0  0  0
   10.5586  -10.4938    0.0000 N   0  0  0  0  0  0  0  0  0  0  0  0
    6.8086   -9.1947    0.0000 C   0  0  0  0  0  0  0  0  0  0  0  0
    5.3086   -9.1947    0.0000 C   0  0  0  0  0  0  0  0  0  0  0  0
  1  2  1  0
  2  3  2  0
  3  4  1  0
  4  5  2  0
  5  6  1  0
  6  7  1  0
  7  8  1  0
  8  9  1  0
  9 10  1  0
  9 11  1  0
 11 12  2  0
 12 13  1  0
 13 14  2  0
 14 15  1  0
 15 16  2  0
 16 17  1  0
 17 18  2  0
 18 19  1  0
 19 20  2  0
 20 21  1  0
 21 22  2  0
 22 23  1  0
 23 24  2  0
 24 25  1  0
 25 26  2  0
 26 27  1  0
 27 28  2  0
 28 29  1  0
 29 30  2  0
 30 31  1  0
 31 32  2  0
 32 33  1  0
 33 34  2  0
 34 35  1  0
 35 36  2  0
 36 37  1  0
 37 38  2  0
 38 39  1  0
 39 40  2  0
 40 41  1  0
 41 42  2  0
 42 43  1  0
 43 44  2  0
 44 45  1  0
 45 46  2  0
 46 47  1  0
 47 48  2  0
 48 49  1  0
 49 50  2  0
 50 51  1  0
 51 52  2  0
 52 53  1  0
 53 54  2  0
 54 55  1  0
 55 56  2  0
 56 57  1  0
 57 58  2  0
 58 59  1  0
 59 60  2  0
 60 61  1  0
 61 62  2  0
 62 63  1  0
 63 64  2  0
 64 65  1  0
 65 66  3  0
 64 67  1  0
 67 68  2  0
 68  2  1  0
 12  6  1  0
 18 13  1  0
 24 19  1  0
 30 25  1  0
 36 31  1  0
 42 37  1  0
 48 43  1  0
 54 49  1  0
 60 55  1  0
 68 61  1  0
M  END
>  <Title>  (704) 
idAAZDgen10

$$$$

     RDKit          2D

 15 16  0  0  0  0  0  0  0  0999 V2000
    3.9076    7.8226    0.0000 C   0  0  0  0  0  0  0  0  0  0  0  0
    3.4441    6.3961    0.0000 C   0  0  0  0  0  0  0  0  0  0  0  0
    4.1251    5.0595    0.0000 C   0  0  0  0  0  0  0  0  0  0  0  0
    2.7886    4.3786    0.0000 C   0  0  0  0  0  0  0  0  0  0  0  0
    2.3250    2.9520    0.0000 N   0  0  0  0  0  0  0  0  0  0  0  0
    0.8578    2.6401    0.0000 C   0  0  0  0  0  0  0  0  0  0  0  0
   -0.1459    3.7548    0.0000 O   0  0  0  0  0  0  0  0  0  0  0  0
    0.3943    1.2135    0.0000 C   0  0  0  0  0  0  0  0  0  0  0  0
    1.2760    0.0000    0.0000 C   0  0  0  0  0  0  0  0  0  0  0  0
    0.3943   -1.2135    0.0000 N   0  0  0  0  0  0  0  0  0  0  0  0
   -1.0323   -0.7500    0.0000 C   0  0  0  0  0  0  0  0  0  0  0  0
   -2.2458   -1.6317    0.0000 C   0  0  0  0  0  0  0  0  0  0  0  0
   -1.0323    0.7500    0.0000 C   0  0  0  0  0  0  0  0  0  0  0  0
   -2.2458    1.6317    0.0000 O   0  0  0  0  0  0  0  0  0  0  0  0
    2.1076    5.7151    0.0000 C   0  0  0  0  0  0  0  0  0  0  0  0
  1  2  1  0
  2  3  2  0
  3  4  1  0
  4  5  1  0
  5  6  1  0
  6  7  2  0
  6  8  1  0
  8  9  2  0
  9 10  1  0
 10 11  2  0
 11 12  1  0
 11 13  1  0
 13 14  2  0
  4 15  1  0
 15  2  1  0
 13  8  1  0
M  END
>  <Title>  (705) 
idAAZEgen10

$$$$

     RDKit          2D

 90 91  0  0  0  0  0  0  0  0999 V2000
   21.3195    0.0000    0.0000 O   0  0  0  0  0  0  0  0  0  0  0  0
   19.8195    0.0000    0.0000 C   0  0  0  0  0  0  0  0  0  0  0  0
   19.7628    1.4989    0.0000 C   0  0  0  0  0  0  0  0  0  0  0  0
   19.5928    2.9893    0.0000 C   0  0  0  0  0  0  0  0  0  0  0  0
   19.3106    4.4625    0.0000 C   0  0  0  0  0  0  0  0  0  0  0  0
   18.9178    5.9101    0.0000 C   0  0  0  0  0  0  0  0  0  0  0  0
   18.4167    7.3239    0.0000 C   0  0  0  0  0  0  0  0  0  0  0  0
   17.8100    8.6958    0.0000 C   0  0  0  0  0  0  0  0  0  0  0  0
   17.1014   10.0178    0.0000 C   0  0  0  0  0  0  0  0  0  0  0  0
   16.2947   11.2825    0.0000 C   0  0  0  0  0  0  0  0  0  0  0  0
   15.3948   12.4825    0.0000 C   0  0  0  0  0  0  0  0  0  0  0  0
   14.4067   13.6111    0.0000 C   0  0  0  0  0  0  0  0  0  0  0  0
   13.3360   14.6617    0.0000 C   0  0  0  0  0  0  0  0  0  0  0  0
   12.1890   15.6283    0.0000 C   0  0  0  0  0  0  0  0  0  0  0  0
   10.9721   16.5053    0.0000 C   0  0  0  0  0  0  0  0  0  0  0  0
    9.6924   17.2879    0.0000 C   0  0  0  0  0  0  0  0  0  0  0  0
    8.3572   17.9714    0.0000 C   0  0  0  0  0  0  0  0  0  0  0  0
    6.9741   18.5520    0.0000 C   0  0  0  0  0  0  0  0  0  0  0  0
    5.5511   19.0263    0.0000 C   0  0  0  0  0  0  0  0  0  0  0  0
    4.0962   19.3916    0.0000 C   0  0  0  0  0  0  0  0  0  0  0  0
    2.6180   19.6459    0.0000 C   0  0  0  0  0  0  0  0  0  0  0  0
    1.1247   19.7876    0.0000 C   0  0  0  0  0  0  0  0  0  0  0  0
   -0.3751   19.8160    0.0000 C   0  0  0  0  0  0  0  0  0  0  0  0
   -1.8727   19.7309    0.0000 C   0  0  0  0  0  0  0  0  0  0  0  0
   -3.3595   19.5327    0.0000 C   0  0  0  0  0  0  0  0  0  0  0  0
   -4.8271   19.2227    0.0000 C   0  0  0  0  0  0  0  0  0  0  0  0
   -6.2671   18.8026    0.0000 C   0  0  0  0  0  0  0  0  0  0  0  0
   -7.6712   18.2748    0.0000 C   0  0  0  0  0  0  0  0  0  0  0  0
   -9.0313   17.6423    0.0000 C   0  0  0  0  0  0  0  0  0  0  0  0
  -10.3397   16.9087    0.0000 C   0  0  0  0  0  0  0  0  0  0  0  0
  -11.5888   16.0783    0.0000 C   0  0  0  0  0  0  0  0  0  0  0  0
  -12.7716   15.1558    0.0000 C   0  0  0  0  0  0  0  0  0  0  0  0
  -13.8813   14.1465    0.0000 C   0  0  0  0  0  0  0  0  0  0  0  0
  -14.9114   13.0562    0.0000 C   0  0  0  0  0  0  0  0  0  0  0  0
  -15.8561   11.8910    0.0000 C   0  0  0  0  0  0  0  0  0  0  0  0
  -16.7100   10.6578    0.0000 C   0  0  0  0  0  0  0  0  0  0  0  0
  -17.4682    9.3635    0.0000 C   0  0  0  0  0  0  0  0  0  0  0  0
  -18.1263    8.0156    0.0000 C   0  0  0  0  0  0  0  0  0  0  0  0
  -18.6806    6.6218    0.0000 C   0  0  0  0  0  0  0  0  0  0  0  0
  -19.1279    5.1900    0.0000 C   0  0  0  0  0  0  0  0  0  0  0  0
  -19.4656    3.7285    0.0000 C   0  0  0  0  0  0  0  0  0  0  0  0
  -19.6919    2.2457    0.0000 C   0  0  0  0  0  0  0  0  0  0  0  0
  -19.8053    0.7500    0.0000 C   0  0  0  0  0  0  0  0  0  0  0  0
  -19.8053   -0.7500    0.0000 C   0  0  0  0  0  0  0  0  0  0  0  0
  -19.6919   -2.2457    0.0000 C   0  0  0  0  0  0  0  0  0  0  0  0
  -19.4656   -3.7285    0.0000 C   0  0  0  0  0  0  0  0  0  0  0  0
  -19.1279   -5.1900    0.0000 C   0  0  0  0  0  0  0  0  0  0  0  0
  -18.6806   -6.6218    0.0000 C   0  0  0  0  0  0  0  0  0  0  0  0
  -18.1263   -8.0156    0.0000 C   0  0  0  0  0  0  0  0  0  0  0  0
  -17.4682   -9.3635    0.0000 C   0  0  0  0  0  0  0  0  0  0  0  0
  -16.7100  -10.6578    0.0000 C   0  0  0  0  0  0  0  0  0  0  0  0
  -15.8561  -11.8910    0.0000 C   0  0  0  0  0  0  0  0  0  0  0  0
  -14.9114  -13.0562    0.0000 C   0  0  0  0  0  0  0  0  0  0  0  0
  -13.8813  -14.1465    0.0000 C   0  0  0  0  0  0  0  0  0  0  0  0
  -12.7716  -15.1558    0.0000 C   0  0  0  0  0  0  0  0  0  0  0  0
  -11.5888  -16.0783    0.0000 C   0  0  0  0  0  0  0  0  0  0  0  0
  -10.3397  -16.9087    0.0000 C   0  0  0  0  0  0  0  0  0  0  0  0
   -9.0313  -17.6423    0.0000 C   0  0  0  0  0  0  0  0  0  0  0  0
   -7.6712  -18.2748    0.0000 C   0  0  0  0  0  0  0  0  0  0  0  0
   -6.2671  -18.8026    0.0000 C   0  0  0  0  0  0  0  0  0  0  0  0
   -4.8271  -19.2227    0.0000 C   0  0  0  0  0  0  0  0  0  0  0  0
   -3.3595  -19.5327    0.0000 C   0  0  0  0  0  0  0  0  0  0  0  0
   -1.8727  -19.7309    0.0000 C   0  0  0  0  0  0  0  0  0  0  0  0
   -0.3751  -19.8160    0.0000 C   0  0  0  0  0  0  0  0  0  0  0  0
    1.1247  -19.7876    0.0000 C   0  0  0  0  0  0  0  0  0  0  0  0
    2.6180  -19.6459    0.0000 C   0  0  0  0  0  0  0  0  0  0  0  0
    4.0962  -19.3916    0.0000 C   0  0  0  0  0  0  0  0  0  0  0  0
    5.5511  -19.0263    0.0000 C   0  0  0  0  0  0  0  0  0  0  0  0
    6.9741  -18.5520    0.0000 C   0  0  0  0  0  0  0  0  0  0  0  0
    8.3572  -17.9714    0.0000 C   0  0  0  0  0  0  0  0  0  0  0  0
    9.6924  -17.2879    0.0000 C   0  0  0  0  0  0  0  0  0  0  0  0
   10.9721  -16.5053    0.0000 C   0  0  0  0  0  0  0  0  0  0  0  0
   12.1890  -15.6283    0.0000 C   0  0  0  0  0  0  0  0  0  0  0  0
   13.3360  -14.6617    0.0000 C   0  0  0  0  0  0  0  0  0  0  0  0
   14.4067  -13.6111    0.0000 C   0  0  0  0  0  0  0  0  0  0  0  0
   15.3948  -12.4825    0.0000 C   0  0  0  0  0  0  0  0  0  0  0  0
   16.2947  -11.2825    0.0000 C   0  0  0  0  0  0  0  0  0  0  0  0
   17.1014  -10.0178    0.0000 C   0  0  0  0  0  0  0  0  0  0  0  0
   17.8100   -8.6958    0.0000 C   0  0  0  0  0  0  0  0  0  0  0  0
   18.4167   -7.3239    0.0000 C   0  0  0  0  0  0  0  0  0  0  0  0
   18.9178   -5.9101    0.0000 C   0  0  0  0  0  0  0  0  0  0  0  0
   19.3106   -4.4625    0.0000 C   0  0  0  0  0  0  0  0  0  0  0  0
   19.5928   -2.9893    0.0000 C   0  0  0  0  0  0  0  0  0  0  0  0
   19.7628   -1.4989    0.0000 C   0  0  0  0  0  0  0  0  0  0  0  0
   21.2585   -1.6124    0.0000 C   0  0  0  0  0  0  0  0  0  0  0  0
   21.9081   -2.9644    0.0000 C   0  0  0  0  0  0  0  0  0  0  0  0
   23.4038   -3.0779    0.0000 C   0  0  0  0  0  0  0  0  0  0  0  0
   24.2499   -1.8393    0.0000 C   0  0  0  0  0  0  0  0  0  0  0  0
   23.6003   -0.4872    0.0000 C   0  0  0  0  0  0  0  0  0  0  0  0
   22.1046   -0.3738    0.0000 C   0  0  0  0  0  0  0  0  0  0  0  0
  1  2  1  0
  2  3  2  0
  3  4  1  0
  4  5  1  0
  5  6  1  0
  6  7  1  0
  7  8  1  0
  8  9  1  0
  9 10  1  0
 10 11  1  0
 11 12  1  0
 12 13  1  0
 13 14  1  0
 14 15  1  0
 15 16  1  0
 16 17  1  0
 17 18  1  0
 18 19  1  0
 19 20  1  0
 20 21  1  0
 21 22  1  0
 22 23  1  0
 23 24  1  0
 24 25  1  0
 25 26  1  0
 26 27  1  0
 27 28  1  0
 28 29  1  0
 29 30  1  0
 30 31  1  0
 31 32  1  0
 32 33  1  0
 33 34  1  0
 34 35  1  0
 35 36  1  0
 36 37  1  0
 37 38  1  0
 38 39  1  0
 39 40  1  0
 40 41  1  0
 41 42  1  0
 42 43  1  0
 43 44  1  0
 44 45  1  0
 45 46  1  0
 46 47  1  0
 47 48  1  0
 48 49  1  0
 49 50  1  0
 50 51  1  0
 51 52  1  0
 52 53  1  0
 53 54  1  0
 54 55  1  0
 55 56  1  0
 56 57  1  0
 57 58  1  0
 58 59  1  0
 59 60  1  0
 60 61  1  0
 61 62  1  0
 62 63  1  0
 63 64  1  0
 64 65  1  0
 65 66  1  0
 66 67  1  0
 67 68  1  0
 68 69  1  0
 69 70  1  0
 70 71  1  0
 71 72  1  0
 72 73  1  0
 73 74  1  0
 74 75  1  0
 75 76  2  0
 76 77  1  0
 77 78  2  0
 78 79  1  0
 79 80  2  0
 80 81  1  0
 81 82  2  0
 82 83  1  0
 83 84  2  0
 84 85  1  0
 85 86  2  0
 86 87  1  0
 87 88  2  0
 88 89  1  0
 89 90  2  0
 84  2  1  0
 90 85  1  0
M  END
>  <Title>  (706) 
idAAZFgen10

$$$$

     RDKit          2D

 12 12  0  0  0  0  0  0  0  0999 V2000
    8.0260   -3.8971    0.0000 C   0  0  0  0  0  0  0  0  0  0  0  0
    7.2760   -2.5981    0.0000 C   0  0  0  0  0  0  0  0  0  0  0  0
    5.7760   -2.5981    0.0000 C   0  0  0  0  0  0  0  0  0  0  0  0
    5.0260   -1.2990    0.0000 N   0  0  0  0  0  0  0  0  0  0  0  0
    3.5260   -1.2990    0.0000 C   0  0  0  0  0  0  0  0  0  0  0  0
    2.7760    0.0000    0.0000 C   0  0  0  0  0  0  0  0  0  0  0  0
    1.2760    0.0000    0.0000 C   0  0  0  0  0  0  0  0  0  0  0  0
    0.3943    1.2135    0.0000 C   0  0  0  0  0  0  0  0  0  0  0  0
   -1.0323    0.7500    0.0000 C   0  0  0  0  0  0  0  0  0  0  0  0
   -1.0323   -0.7500    0.0000 C   0  0  0  0  0  0  0  0  0  0  0  0
   -2.2458   -1.6317    0.0000 C   0  0  0  0  0  0  0  0  0  0  0  0
    0.3943   -1.2135    0.0000 C   0  0  0  0  0  0  0  0  0  0  0  0
  1  2  2  0
  2  3  1  0
  3  4  1  0
  4  5  1  0
  5  6  1  0
  6  7  1  0
  7  8  2  0
  8  9  1  0
  9 10  2  0
 10 11  1  0
 10 12  1  0
 12  7  1  0
M  END
>  <Title>  (707) 
idAAZGgen10

$$$$

     RDKit          2D

 13 13  0  0  0  0  0  0  0  0999 V2000
    8.2500   -1.2990    0.0000 C   0  0  0  0  0  0  0  0  0  0  0  0
    6.7500   -1.2990    0.0000 C   0  0  0  0  0  0  0  0  0  0  0  0
    5.2500   -1.2990    0.0000 C   0  0  0  0  0  0  0  0  0  0  0  0
    3.7500   -1.2990    0.0000 C   0  0  0  0  0  0  0  0  0  0  0  0
    3.0000   -2.5981    0.0000 O   0  0  0  0  0  0  0  0  0  0  0  0
    3.0000    0.0000    0.0000 N   0  0  0  0  0  0  0  0  0  0  0  0
    1.5000    0.0000    0.0000 C   0  0  0  0  0  0  0  0  0  0  0  0
    0.7500   -1.2990    0.0000 N   0  0  0  0  0  0  0  0  0  0  0  0
   -0.7500   -1.2990    0.0000 C   0  0  0  0  0  0  0  0  0  0  0  0
   -1.5000    0.0000    0.0000 C   0  0  0  0  0  0  0  0  0  0  0  0
   -0.7500    1.2990    0.0000 C   0  0  0  0  0  0  0  0  0  0  0  0
    0.7500    1.2990    0.0000 C   0  0  0  0  0  0  0  0  0  0  0  0
    1.5000    2.5981    0.0000 O   0  0  0  0  0  0  0  0  0  0  0  0
  1  2  1  0
  2  3  3  0
  3  4  1  0
  4  5  2  0
  4  6  1  0
  6  7  1  0
  7  8  2  0
  8  9  1  0
  9 10  2  0
 10 11  1  0
 11 12  2  0
 12 13  1  0
 12  7  1  0
M  END
>  <Title>  (708) 
idAAZHgen10

$$$$

     RDKit          2D

  6  6  0  0  0  0  0  0  0  0999 V2000
    2.7760    0.0000    0.0000 C   0  0  0  0  0  0  0  0  0  0  0  0
    1.2760    0.0000    0.0000 C   0  0  0  0  0  0  0  0  0  0  0  0
    0.3943    1.2135    0.0000 C   0  0  0  0  0  0  0  0  0  0  0  0
   -1.0323    0.7500    0.0000 C   0  0  0  0  0  0  0  0  0  0  0  0
   -1.0323   -0.7500    0.0000 C   0  0  0  0  0  0  0  0  0  0  0  0
    0.3943   -1.2135    0.0000 C   0  0  0  0  0  0  0  0  0  0  0  0
  1  2  1  0
  2  3  1  0
  3  4  1  0
  4  5  2  0
  5  6  1  0
  6  2  1  0
M  END
>  <Title>  (709) 
idAAZIgen10

$$$$

     RDKit          2D

 15 15  0  0  0  0  0  0  0  0999 V2000
    5.1929   -0.0000    0.0000 C   0  0  0  0  0  0  0  0  0  0  0  0
    3.6929    0.0000    0.0000 C   0  0  0  0  0  0  0  0  0  0  0  0
    2.1929    0.0000    0.0000 C   0  0  0  0  0  0  0  0  0  0  0  0
    1.6798    1.4095    0.0000 C   0  0  0  0  0  0  0  0  0  0  0  0
    0.3808    2.1595    0.0000 C   0  0  0  0  0  0  0  0  0  0  0  0
   -1.0964    1.8991    0.0000 C   0  0  0  0  0  0  0  0  0  0  0  0
   -2.0606    0.7500    0.0000 C   0  0  0  0  0  0  0  0  0  0  0  0
   -2.0606   -0.7500    0.0000 C   0  0  0  0  0  0  0  0  0  0  0  0
   -1.0964   -1.8991    0.0000 C   0  0  0  0  0  0  0  0  0  0  0  0
    0.3808   -2.1595    0.0000 C   0  0  0  0  0  0  0  0  0  0  0  0
    1.6798   -1.4095    0.0000 C   0  0  0  0  0  0  0  0  0  0  0  0
    2.8289   -2.3737    0.0000 C   0  0  0  0  0  0  0  0  0  0  0  0
    4.2384   -1.8607    0.0000 O   0  0  0  0  0  0  0  0  0  0  0  0
    2.5684   -3.8509    0.0000 O   0  0  0  0  0  0  0  0  0  0  0  0
    3.7175   -4.8151    0.0000 C   0  0  0  0  0  0  0  0  0  0  0  0
  1  2  3  0
  2  3  1  0
  3  4  2  0
  4  5  1  0
  5  6  1  0
  6  7  1  0
  7  8  1  0
  8  9  2  0
  9 10  1  0
 10 11  2  0
 11 12  1  0
 12 13  2  0
 12 14  1  0
 14 15  1  0
 11  3  1  0
M  END
>  <Title>  (710) 
idAAZJgen10

$$$$

     RDKit          2D

 79 79  0  0  0  0  0  0  0  0999 V2000
   20.1262    0.0000    0.0000 C   0  0  0  0  0  0  0  0  0  0  0  0
   18.6262    0.0000    0.0000 C   0  0  0  0  0  0  0  0  0  0  0  0
   18.5658   -1.4988    0.0000 C   0  0  0  0  0  0  0  0  0  0  0  0
   18.3850   -2.9878    0.0000 C   0  0  0  0  0  0  0  0  0  0  0  0
   18.0849   -4.4575    0.0000 C   0  0  0  0  0  0  0  0  0  0  0  0
   17.6676   -5.8983    0.0000 C   0  0  0  0  0  0  0  0  0  0  0  0
   17.1357   -7.3008    0.0000 C   0  0  0  0  0  0  0  0  0  0  0  0
   16.4926   -8.6560    0.0000 C   0  0  0  0  0  0  0  0  0  0  0  0
   15.7426   -9.9550    0.0000 C   0  0  0  0  0  0  0  0  0  0  0  0
   14.8906  -11.1895    0.0000 C   0  0  0  0  0  0  0  0  0  0  0  0
   13.9419  -12.3514    0.0000 C   0  0  0  0  0  0  0  0  0  0  0  0
   12.9028  -13.4332    0.0000 C   0  0  0  0  0  0  0  0  0  0  0  0
   11.7800  -14.4279    0.0000 C   0  0  0  0  0  0  0  0  0  0  0  0
   10.5809  -15.3290    0.0000 C   0  0  0  0  0  0  0  0  0  0  0  0
    9.3131  -16.1307    0.0000 C   0  0  0  0  0  0  0  0  0  0  0  0
    7.9849  -16.8278    0.0000 C   0  0  0  0  0  0  0  0  0  0  0  0
    6.6049  -17.4158    0.0000 C   0  0  0  0  0  0  0  0  0  0  0  0
    5.1821  -17.8908    0.0000 C   0  0  0  0  0  0  0  0  0  0  0  0
    3.7257  -18.2497    0.0000 C   0  0  0  0  0  0  0  0  0  0  0  0
    2.2451  -18.4904    0.0000 C   0  0  0  0  0  0  0  0  0  0  0  0
    0.7500  -18.6111    0.0000 C   0  0  0  0  0  0  0  0  0  0  0  0
   -0.7500  -18.6111    0.0000 C   0  0  0  0  0  0  0  0  0  0  0  0
   -2.2451  -18.4904    0.0000 C   0  0  0  0  0  0  0  0  0  0  0  0
   -3.7257  -18.2497    0.0000 C   0  0  0  0  0  0  0  0  0  0  0  0
   -5.1821  -17.8908    0.0000 C   0  0  0  0  0  0  0  0  0  0  0  0
   -6.6049  -17.4158    0.0000 C   0  0  0  0  0  0  0  0  0  0  0  0
   -7.9849  -16.8278    0.0000 C   0  0  0  0  0  0  0  0  0  0  0  0
   -9.3131  -16.1307    0.0000 C   0  0  0  0  0  0  0  0  0  0  0  0
  -10.5809  -15.3290    0.0000 C   0  0  0  0  0  0  0  0  0  0  0  0
  -11.7800  -14.4279    0.0000 C   0  0  0  0  0  0  0  0  0  0  0  0
  -12.9028  -13.4332    0.0000 C   0  0  0  0  0  0  0  0  0  0  0  0
  -13.9419  -12.3514    0.0000 C   0  0  0  0  0  0  0  0  0  0  0  0
  -14.8906  -11.1895    0.0000 C   0  0  0  0  0  0  0  0  0  0  0  0
  -15.7426   -9.9550    0.0000 C   0  0  0  0  0  0  0  0  0  0  0  0
  -16.4926   -8.6560    0.0000 C   0  0  0  0  0  0  0  0  0  0  0  0
  -17.1357   -7.3008    0.0000 C   0  0  0  0  0  0  0  0  0  0  0  0
  -17.6676   -5.8983    0.0000 C   0  0  0  0  0  0  0  0  0  0  0  0
  -18.0849   -4.4575    0.0000 C   0  0  0  0  0  0  0  0  0  0  0  0
  -18.3850   -2.9878    0.0000 C   0  0  0  0  0  0  0  0  0  0  0  0
  -18.5658   -1.4988    0.0000 C   0  0  0  0  0  0  0  0  0  0  0  0
  -18.6262    0.0000    0.0000 C   0  0  0  0  0  0  0  0  0  0  0  0
  -18.5658    1.4988    0.0000 C   0  0  0  0  0  0  0  0  0  0  0  0
  -18.3850    2.9878    0.0000 C   0  0  0  0  0  0  0  0  0  0  0  0
  -18.0849    4.4575    0.0000 C   0  0  0  0  0  0  0  0  0  0  0  0
  -17.6676    5.8983    0.0000 C   0  0  0  0  0  0  0  0  0  0  0  0
  -17.1357    7.3008    0.0000 C   0  0  0  0  0  0  0  0  0  0  0  0
  -16.4926    8.6560    0.0000 C   0  0  0  0  0  0  0  0  0  0  0  0
  -15.7426    9.9550    0.0000 C   0  0  0  0  0  0  0  0  0  0  0  0
  -14.8906   11.1895    0.0000 C   0  0  0  0  0  0  0  0  0  0  0  0
  -13.9419   12.3514    0.0000 C   0  0  0  0  0  0  0  0  0  0  0  0
  -12.9028   13.4332    0.0000 C   0  0  0  0  0  0  0  0  0  0  0  0
  -11.7800   14.4279    0.0000 C   0  0  0  0  0  0  0  0  0  0  0  0
  -10.5809   15.3290    0.0000 C   0  0  0  0  0  0  0  0  0  0  0  0
   -9.3131   16.1307    0.0000 C   0  0  0  0  0  0  0  0  0  0  0  0
   -7.9849   16.8278    0.0000 C   0  0  0  0  0  0  0  0  0  0  0  0
   -6.6049   17.4158    0.0000 C   0  0  0  0  0  0  0  0  0  0  0  0
   -5.1821   17.8908    0.0000 C   0  0  0  0  0  0  0  0  0  0  0  0
   -3.7257   18.2497    0.0000 C   0  0  0  0  0  0  0  0  0  0  0  0
   -2.2451   18.4904    0.0000 C   0  0  0  0  0  0  0  0  0  0  0  0
   -0.7500   18.6111    0.0000 C   0  0  0  0  0  0  0  0  0  0  0  0
    0.7500   18.6111    0.0000 C   0  0  0  0  0  0  0  0  0  0  0  0
    2.2451   18.4904    0.0000 C   0  0  0  0  0  0  0  0  0  0  0  0
    3.7257   18.2497    0.0000 C   0  0  0  0  0  0  0  0  0  0  0  0
    5.1821   17.8908    0.0000 C   0  0  0  0  0  0  0  0  0  0  0  0
    6.6049   17.4158    0.0000 C   0  0  0  0  0  0  0  0  0  0  0  0
    7.9849   16.8278    0.0000 C   0  0  0  0  0  0  0  0  0  0  0  0
    9.3131   16.1307    0.0000 C   0  0  0  0  0  0  0  0  0  0  0  0
   10.5809   15.3290    0.0000 C   0  0  0  0  0  0  0  0  0  0  0  0
   11.7800   14.4279    0.0000 C   0  0  0  0  0  0  0  0  0  0  0  0
   12.9028   13.4332    0.0000 C   0  0  0  0  0  0  0  0  0  0  0  0
   13.9419   12.3514    0.0000 C   0  0  0  0  0  0  0  0  0  0  0  0
   14.8906   11.1895    0.0000 C   0  0  0  0  0  0  0  0  0  0  0  0
   15.7426    9.9550    0.0000 C   0  0  0  0  0  0  0  0  0  0  0  0
   16.4926    8.6560    0.0000 C   0  0  0  0  0  0  0  0  0  0  0  0
   17.1357    7.3008    0.0000 C   0  0  0  0  0  0  0  0  0  0  0  0
   17.6676    5.8983    0.0000 C   0  0  0  0  0  0  0  0  0  0  0  0
   18.0849    4.4575    0.0000 C   0  0  0  0  0  0  0  0  0  0  0  0
   18.3850    2.9878    0.0000 C   0  0  0  0  0  0  0  0  0  0  0  0
   18.5658    1.4988    0.0000 C   0  0  0  0  0  0  0  0  0  0  0  0
  1  2  1  0
  2  3  1  0
  3  4  2  0
  4  5  1  0
  5  6  1  0
  6  7  1  0
  7  8  1  0
  8  9  1  0
  9 10  1  0
 10 11  1  0
 11 12  1  0
 12 13  1  0
 13 14  1  0
 14 15  1  0
 15 16  1  0
 16 17  1  0
 17 18  1  0
 18 19  1  0
 19 20  1  0
 20 21  1  0
 21 22  1  0
 22 23  1  0
 23 24  1  0
 24 25  1  0
 25 26  1  0
 26 27  1  0
 27 28  1  0
 28 29  1  0
 29 30  1  0
 30 31  1  0
 31 32  1  0
 32 33  1  0
 33 34  1  0
 34 35  1  0
 35 36  1  0
 36 37  1  0
 37 38  1  0
 38 39  1  0
 39 40  1  0
 40 41  1  0
 41 42  1  0
 42 43  1  0
 43 44  1  0
 44 45  1  0
 45 46  1  0
 46 47  1  0
 47 48  1  0
 48 49  1  0
 49 50  1  0
 50 51  1  0
 51 52  1  0
 52 53  1  0
 53 54  1  0
 54 55  1  0
 55 56  1  0
 56 57  1  0
 57 58  1  0
 58 59  1  0
 59 60  1  0
 60 61  1  0
 61 62  1  0
 62 63  1  0
 63 64  1  0
 64 65  1  0
 65 66  1  0
 66 67  1  0
 67 68  1  0
 68 69  1  0
 69 70  1  0
 70 71  1  0
 71 72  1  0
 72 73  1  0
 73 74  1  0
 74 75  1  0
 75 76  1  0
 76 77  1  0
 77 78  1  0
 78 79  1  0
 79  2  1  0
M  END
>  <Title>  (711) 
idAAZKgen10

$$$$

     RDKit          2D

 11 11  0  0  0  0  0  0  0  0999 V2000
    5.2500   -1.2990    0.0000 C   0  0  0  0  0  0  0  0  0  0  0  0
    3.7500   -1.2990    0.0000 C   0  0  0  0  0  0  0  0  0  0  0  0
    3.0000   -2.5981    0.0000 O   0  0  0  0  0  0  0  0  0  0  0  0
    3.0000    0.0000    0.0000 N   0  0  0  0  0  0  0  0  0  0  0  0
    1.5000    0.0000    0.0000 C   0  0  0  0  0  0  0  0  0  0  0  0
    0.7500   -1.2990    0.0000 C   0  0  0  0  0  0  0  0  0  0  0  0
   -0.7500   -1.2990    0.0000 C   0  0  0  0  0  0  0  0  0  0  0  0
   -1.5000    0.0000    0.0000 C   0  0  0  0  0  0  0  0  0  0  0  0
   -0.7500    1.2990    0.0000 C   0  0  0  0  0  0  0  0  0  0  0  0
   -1.5000    2.5981    0.0000 C   0  0  0  0  0  0  0  0  0  0  0  0
    0.7500    1.2990    0.0000 C   0  0  0  0  0  0  0  0  0  0  0  0
  1  2  1  0
  2  3  2  0
  2  4  1  0
  4  5  1  0
  5  6  2  0
  6  7  1  0
  7  8  1  0
  8  9  2  0
  9 10  1  0
  9 11  1  0
 11  5  1  0
M  END
>  <Title>  (712) 
idAAZLgen10

$$$$

     RDKit          2D

  4  3  0  0  0  0  0  0  0  0999 V2000
    0.0000    0.0000    0.0000 C   0  0  0  0  0  0  0  0  0  0  0  0
    1.2990    0.7500    0.0000 C   0  0  0  0  0  0  0  0  0  0  0  0
    2.5981    1.5000    0.0000 C   0  0  0  0  0  0  0  0  0  0  0  0
    3.8971    2.2500    0.0000 C   0  0  0  0  0  0  0  0  0  0  0  0
  1  2  1  0
  2  3  3  0
  3  4  1  0
M  END
>  <Title>  (713) 
idAAZMgen10

$$$$

     RDKit          2D

  4  3  0  0  0  0  0  0  0  0999 V2000
    0.0000    0.0000    0.0000 C   0  0  0  0  0  0  0  0  0  0  0  0
   -0.0000   -1.5000    0.0000 C   0  0  0  0  0  0  0  0  0  0  0  0
   -0.0000   -3.0000    0.0000 C   0  0  0  0  0  0  0  0  0  0  0  0
   -0.0000   -4.5000    0.0000 N   0  0  0  0  0  0  0  0  0  0  0  0
  1  2  3  0
  2  3  1  0
  3  4  3  0
M  END
>  <Title>  (714) 
idAAZNgen10

$$$$

     RDKit          2D

  7  7  0  0  0  0  0  0  0  0999 V2000
    4.2760   -0.0000    0.0000 C   0  0  0  0  0  0  0  0  0  0  0  0
    2.7760    0.0000    0.0000 C   0  0  0  0  0  0  0  0  0  0  0  0
    1.2760    0.0000    0.0000 C   0  0  0  0  0  0  0  0  0  0  0  0
    0.3943    1.2135    0.0000 N   0  0  0  0  0  0  0  0  0  0  0  0
   -1.0323    0.7500    0.0000 C   0  0  0  0  0  0  0  0  0  0  0  0
   -1.0323   -0.7500    0.0000 C   0  0  0  0  0  0  0  0  0  0  0  0
    0.3943   -1.2135    0.0000 C   0  0  0  0  0  0  0  0  0  0  0  0
  1  2  3  0
  2  3  1  0
  3  4  2  0
  4  5  1  0
  5  6  1  0
  6  7  2  0
  7  3  1  0
M  END
>  <Title>  (715) 
idAAZOgen10

$$$$

     RDKit          2D

  9  9  0  0  0  0  0  0  0  0999 V2000
    5.2500   -1.2990    0.0000 C   0  0  0  0  0  0  0  0  0  0  0  0
    3.7500   -1.2990    0.0000 C   0  0  0  0  0  0  0  0  0  0  0  0
    3.0000    0.0000    0.0000 C   0  0  0  0  0  0  0  0  0  0  0  0
    1.5000    0.0000    0.0000 C   0  0  0  0  0  0  0  0  0  0  0  0
    0.7500   -1.2990    0.0000 C   0  0  0  0  0  0  0  0  0  0  0  0
   -0.7500   -1.2990    0.0000 C   0  0  0  0  0  0  0  0  0  0  0  0
   -1.5000    0.0000    0.0000 C   0  0  0  0  0  0  0  0  0  0  0  0
   -0.7500    1.2990    0.0000 C   0  0  0  0  0  0  0  0  0  0  0  0
    0.7500    1.2990    0.0000 C   0  0  0  0  0  0  0  0  0  0  0  0
  1  2  2  0
  2  3  1  0
  3  4  1  0
  4  5  2  0
  5  6  1  0
  6  7  2  0
  7  8  1  0
  8  9  2  0
  9  4  1  0
M  END
>  <Title>  (716) 
idAAZPgen10

$$$$

     RDKit          2D

116117  0  0  0  0  0  0  0  0999 V2000
   -2.3748    0.1107    0.0000 C   0  0  0  0  0  0  0  0  0  0  0  0
   -2.2476   -1.3839    0.0000 C   0  0  0  0  0  0  0  0  0  0  0  0
   -3.7380   -1.5534    0.0000 C   0  0  0  0  0  0  0  0  0  0  0  0
   -5.2164   -1.8069    0.0000 C   0  0  0  0  0  0  0  0  0  0  0  0
   -6.6781   -2.1436    0.0000 C   0  0  0  0  0  0  0  0  0  0  0  0
   -8.1185   -2.5625    0.0000 C   0  0  0  0  0  0  0  0  0  0  0  0
   -9.5328   -3.0622    0.0000 C   0  0  0  0  0  0  0  0  0  0  0  0
  -10.9166   -3.6411    0.0000 C   0  0  0  0  0  0  0  0  0  0  0  0
  -12.2654   -4.2974    0.0000 C   0  0  0  0  0  0  0  0  0  0  0  0
  -13.5749   -5.0289    0.0000 C   0  0  0  0  0  0  0  0  0  0  0  0
  -14.8409   -5.8334    0.0000 C   0  0  0  0  0  0  0  0  0  0  0  0
  -16.0594   -6.7082    0.0000 C   0  0  0  0  0  0  0  0  0  0  0  0
  -17.2265   -7.6505    0.0000 C   0  0  0  0  0  0  0  0  0  0  0  0
  -18.3383   -8.6574    0.0000 C   0  0  0  0  0  0  0  0  0  0  0  0
  -19.3915   -9.7255    0.0000 C   0  0  0  0  0  0  0  0  0  0  0  0
  -20.3825  -10.8515    0.0000 C   0  0  0  0  0  0  0  0  0  0  0  0
  -21.3082  -12.0318    0.0000 C   0  0  0  0  0  0  0  0  0  0  0  0
  -22.1657  -13.2625    0.0000 C   0  0  0  0  0  0  0  0  0  0  0  0
  -22.9521  -14.5398    0.0000 C   0  0  0  0  0  0  0  0  0  0  0  0
  -23.6651  -15.8596    0.0000 C   0  0  0  0  0  0  0  0  0  0  0  0
  -24.3022  -17.2175    0.0000 C   0  0  0  0  0  0  0  0  0  0  0  0
  -24.8615  -18.6094    0.0000 C   0  0  0  0  0  0  0  0  0  0  0  0
  -25.3411  -20.0306    0.0000 C   0  0  0  0  0  0  0  0  0  0  0  0
  -25.7396  -21.4767    0.0000 C   0  0  0  0  0  0  0  0  0  0  0  0
  -26.0556  -22.9431    0.0000 C   0  0  0  0  0  0  0  0  0  0  0  0
  -26.2882  -24.4249    0.0000 C   0  0  0  0  0  0  0  0  0  0  0  0
  -26.4365  -25.9176    0.0000 C   0  0  0  0  0  0  0  0  0  0  0  0
  -26.5002  -27.4162    0.0000 C   0  0  0  0  0  0  0  0  0  0  0  0
  -26.4790  -28.9161    0.0000 C   0  0  0  0  0  0  0  0  0  0  0  0
  -26.3729  -30.4123    0.0000 C   0  0  0  0  0  0  0  0  0  0  0  0
  -26.1824  -31.9002    0.0000 C   0  0  0  0  0  0  0  0  0  0  0  0
  -25.9080  -33.3749    0.0000 C   0  0  0  0  0  0  0  0  0  0  0  0
  -25.5506  -34.8317    0.0000 C   0  0  0  0  0  0  0  0  0  0  0  0
  -25.1114  -36.2659    0.0000 C   0  0  0  0  0  0  0  0  0  0  0  0
  -24.5917  -37.6730    0.0000 C   0  0  0  0  0  0  0  0  0  0  0  0
  -23.9932  -39.0485    0.0000 C   0  0  0  0  0  0  0  0  0  0  0  0
  -23.3179  -40.3879    0.0000 C   0  0  0  0  0  0  0  0  0  0  0  0
  -22.5679  -41.6869    0.0000 C   0  0  0  0  0  0  0  0  0  0  0  0
  -21.7456  -42.9414    0.0000 C   0  0  0  0  0  0  0  0  0  0  0  0
  -20.8537  -44.1474    0.0000 C   0  0  0  0  0  0  0  0  0  0  0  0
  -19.8949  -45.3010    0.0000 C   0  0  0  0  0  0  0  0  0  0  0  0
  -18.8725  -46.3985    0.0000 C   0  0  0  0  0  0  0  0  0  0  0  0
  -17.7895  -47.4364    0.0000 C   0  0  0  0  0  0  0  0  0  0  0  0
  -16.6496  -48.4114    0.0000 C   0  0  0  0  0  0  0  0  0  0  0  0
  -15.4564  -49.3203    0.0000 C   0  0  0  0  0  0  0  0  0  0  0  0
  -14.2136  -50.1603    0.0000 C   0  0  0  0  0  0  0  0  0  0  0  0
  -12.9253  -50.9286    0.0000 C   0  0  0  0  0  0  0  0  0  0  0  0
  -11.5956  -51.6228    0.0000 C   0  0  0  0  0  0  0  0  0  0  0  0
  -10.2288  -52.2407    0.0000 C   0  0  0  0  0  0  0  0  0  0  0  0
   -8.8291  -52.7802    0.0000 C   0  0  0  0  0  0  0  0  0  0  0  0
   -7.4013  -53.2397    0.0000 C   0  0  0  0  0  0  0  0  0  0  0  0
   -5.9497  -53.6176    0.0000 C   0  0  0  0  0  0  0  0  0  0  0  0
   -4.4790  -53.9129    0.0000 C   0  0  0  0  0  0  0  0  0  0  0  0
   -2.9940  -54.1244    0.0000 C   0  0  0  0  0  0  0  0  0  0  0  0
   -1.4994  -54.2516    0.0000 C   0  0  0  0  0  0  0  0  0  0  0  0
   -0.0000  -54.2941    0.0000 C   0  0  0  0  0  0  0  0  0  0  0  0
    1.4994  -54.2516    0.0000 C   0  0  0  0  0  0  0  0  0  0  0  0
    2.9940  -54.1244    0.0000 C   0  0  0  0  0  0  0  0  0  0  0  0
    4.4790  -53.9129    0.0000 C   0  0  0  0  0  0  0  0  0  0  0  0
    5.9497  -53.6176    0.0000 C   0  0  0  0  0  0  0  0  0  0  0  0
    7.4013  -53.2397    0.0000 C   0  0  0  0  0  0  0  0  0  0  0  0
    8.8291  -52.7802    0.0000 C   0  0  0  0  0  0  0  0  0  0  0  0
   10.2288  -52.2407    0.0000 C   0  0  0  0  0  0  0  0  0  0  0  0
   11.5956  -51.6228    0.0000 C   0  0  0  0  0  0  0  0  0  0  0  0
   12.9253  -50.9286    0.0000 C   0  0  0  0  0  0  0  0  0  0  0  0
   14.2136  -50.1603    0.0000 C   0  0  0  0  0  0  0  0  0  0  0  0
   15.4564  -49.3203    0.0000 C   0  0  0  0  0  0  0  0  0  0  0  0
   16.6496  -48.4114    0.0000 C   0  0  0  0  0  0  0  0  0  0  0  0
   17.7895  -47.4364    0.0000 C   0  0  0  0  0  0  0  0  0  0  0  0
   18.8725  -46.3985    0.0000 C   0  0  0  0  0  0  0  0  0  0  0  0
   19.8949  -45.3010    0.0000 C   0  0  0  0  0  0  0  0  0  0  0  0
   20.8537  -44.1474    0.0000 C   0  0  0  0  0  0  0  0  0  0  0  0
   21.7456  -42.9414    0.0000 C   0  0  0  0  0  0  0  0  0  0  0  0
   22.5679  -41.6869    0.0000 C   0  0  0  0  0  0  0  0  0  0  0  0
   23.3179  -40.3879    0.0000 C   0  0  0  0  0  0  0  0  0  0  0  0
   23.9932  -39.0485    0.0000 C   0  0  0  0  0  0  0  0  0  0  0  0
   24.5917  -37.6730    0.0000 C   0  0  0  0  0  0  0  0  0  0  0  0
   25.1114  -36.2659    0.0000 C   0  0  0  0  0  0  0  0  0  0  0  0
   25.5506  -34.8317    0.0000 C   0  0  0  0  0  0  0  0  0  0  0  0
   25.9080  -33.3749    0.0000 C   0  0  0  0  0  0  0  0  0  0  0  0
   26.1824  -31.9002    0.0000 C   0  0  0  0  0  0  0  0  0  0  0  0
   26.3729  -30.4123    0.0000 C   0  0  0  0  0  0  0  0  0  0  0  0
   26.4790  -28.9161    0.0000 C   0  0  0  0  0  0  0  0  0  0  0  0
   26.5002  -27.4162    0.0000 C   0  0  0  0  0  0  0  0  0  0  0  0
   26.4365  -25.9176    0.0000 C   0  0  0  0  0  0  0  0  0  0  0  0
   26.2882  -24.4249    0.0000 C   0  0  0  0  0  0  0  0  0  0  0  0
   26.0556  -22.9431    0.0000 C   0  0  0  0  0  0  0  0  0  0  0  0
   25.7396  -21.4767    0.0000 C   0  0  0  0  0  0  0  0  0  0  0  0
   25.3411  -20.0306    0.0000 C   0  0  0  0  0  0  0  0  0  0  0  0
   24.8615  -18.6094    0.0000 C   0  0  0  0  0  0  0  0  0  0  0  0
   24.3022  -17.2175    0.0000 C   0  0  0  0  0  0  0  0  0  0  0  0
   23.6651  -15.8596    0.0000 C   0  0  0  0  0  0  0  0  0  0  0  0
   22.9521  -14.5398    0.0000 C   0  0  0  0  0  0  0  0  0  0  0  0
   22.1657  -13.2625    0.0000 C   0  0  0  0  0  0  0  0  0  0  0  0
   21.3082  -12.0318    0.0000 C   0  0  0  0  0  0  0  0  0  0  0  0
   20.3825  -10.8515    0.0000 C   0  0  0  0  0  0  0  0  0  0  0  0
   19.3915   -9.7255    0.0000 C   0  0  0  0  0  0  0  0  0  0  0  0
   18.3383   -8.6574    0.0000 C   0  0  0  0  0  0  0  0  0  0  0  0
   17.2265   -7.6505    0.0000 C   0  0  0  0  0  0  0  0  0  0  0  0
   16.0594   -6.7082    0.0000 C   0  0  0  0  0  0  0  0  0  0  0  0
   14.8409   -5.8334    0.0000 C   0  0  0  0  0  0  0  0  0  0  0  0
   13.5749   -5.0289    0.0000 C   0  0  0  0  0  0  0  0  0  0  0  0
   12.2654   -4.2974    0.0000 C   0  0  0  0  0  0  0  0  0  0  0  0
   10.9166   -3.6411    0.0000 C   0  0  0  0  0  0  0  0  0  0  0  0
    9.5328   -3.0622    0.0000 C   0  0  0  0  0  0  0  0  0  0  0  0
    8.1185   -2.5625    0.0000 C   0  0  0  0  0  0  0  0  0  0  0  0
    6.6781   -2.1436    0.0000 C   0  0  0  0  0  0  0  0  0  0  0  0
    5.2164   -1.8069    0.0000 C   0  0  0  0  0  0  0  0  0  0  0  0
    3.7380   -1.5534    0.0000 C   0  0  0  0  0  0  0  0  0  0  0  0
    2.2476   -1.3839    0.0000 C   0  0  0  0  0  0  0  0  0  0  0  0
    0.7500   -1.2990    0.0000 C   0  0  0  0  0  0  0  0  0  0  0  0
    1.5000    0.0000    0.0000 C   0  0  0  0  0  0  0  0  0  0  0  0
    0.7500    1.2990    0.0000 C   0  0  0  0  0  0  0  0  0  0  0  0
   -0.7500    1.2990    0.0000 C   0  0  0  0  0  0  0  0  0  0  0  0
   -1.5000    0.0000    0.0000 C   0  0  0  0  0  0  0  0  0  0  0  0
   -0.7500   -1.2990    0.0000 C   0  0  0  0  0  0  0  0  0  0  0  0
  1  2  1  0
  2  3  1  0
  3  4  2  0
  4  5  1  0
  5  6  1  0
  6  7  1  0
  7  8  1  0
  8  9  1  0
  9 10  1  0
 10 11  1  0
 11 12  1  0
 12 13  1  0
 13 14  1  0
 14 15  1  0
 15 16  1  0
 16 17  1  0
 17 18  1  0
 18 19  1  0
 19 20  1  0
 20 21  1  0
 21 22  1  0
 22 23  1  0
 23 24  1  0
 24 25  1  0
 25 26  1  0
 26 27  1  0
 27 28  1  0
 28 29  1  0
 29 30  1  0
 30 31  1  0
 31 32  1  0
 32 33  1  0
 33 34  1  0
 34 35  1  0
 35 36  1  0
 36 37  1  0
 37 38  1  0
 38 39  1  0
 39 40  1  0
 40 41  1  0
 41 42  1  0
 42 43  1  0
 43 44  1  0
 44 45  1  0
 45 46  1  0
 46 47  1  0
 47 48  1  0
 48 49  1  0
 49 50  1  0
 50 51  1  0
 51 52  1  0
 52 53  1  0
 53 54  1  0
 54 55  1  0
 55 56  1  0
 56 57  1  0
 57 58  1  0
 58 59  1  0
 59 60  1  0
 60 61  1  0
 61 62  1  0
 62 63  1  0
 63 64  1  0
 64 65  1  0
 65 66  1  0
 66 67  1  0
 67 68  1  0
 68 69  1  0
 69 70  1  0
 70 71  1  0
 71 72  1  0
 72 73  1  0
 73 74  1  0
 74 75  1  0
 75 76  1  0
 76 77  1  0
 77 78  1  0
 78 79  1  0
 79 80  1  0
 80 81  1  0
 81 82  1  0
 82 83  1  0
 83 84  1  0
 84 85  1  0
 85 86  1  0
 86 87  1  0
 87 88  1  0
 88 89  1  0
 89 90  1  0
 90 91  1  0
 91 92  1  0
 92 93  1  0
 93 94  1  0
 94 95  1  0
 95 96  1  0
 96 97  1  0
 97 98  1  0
 98 99  1  0
 99100  1  0
100101  1  0
101102  1  0
102103  1  0
103104  1  0
104105  1  0
105106  1  0
106107  1  0
107108  1  0
108109  1  0
109110  1  0
110111  1  0
111112  1  0
112113  1  0
113114  1  0
114115  1  0
115116  2  0
116  2  1  0
116111  1  0
M  END
>  <Title>  (717) 
idAAZQgen10

$$$$

     RDKit          2D

  9  9  0  0  0  0  0  0  0  0999 V2000
    7.2760   -0.0000    0.0000 C   0  0  0  0  0  0  0  0  0  0  0  0
    5.7760   -0.0000    0.0000 C   0  0  0  0  0  0  0  0  0  0  0  0
    4.2760   -0.0000    0.0000 C   0  0  0  0  0  0  0  0  0  0  0  0
    2.7760    0.0000    0.0000 C   0  0  0  0  0  0  0  0  0  0  0  0
    1.2760    0.0000    0.0000 C   0  0  0  0  0  0  0  0  0  0  0  0
    0.3943    1.2135    0.0000 C   0  0  0  0  0  0  0  0  0  0  0  0
   -1.0323    0.7500    0.0000 C   0  0  0  0  0  0  0  0  0  0  0  0
   -1.0323   -0.7500    0.0000 C   0  0  0  0  0  0  0  0  0  0  0  0
    0.3943   -1.2135    0.0000 C   0  0  0  0  0  0  0  0  0  0  0  0
  1  2  3  0
  2  3  1  0
  3  4  3  0
  4  5  1  0
  5  6  2  0
  6  7  1  0
  7  8  2  0
  8  9  1  0
  9  5  1  0
M  END
>  <Title>  (718) 
idAAZRgen10

$$$$

     RDKit          2D

 87 88  0  0  0  0  0  0  0  0999 V2000
   -2.1909   -1.0742    0.0000 C   0  0  0  0  0  0  0  0  0  0  0  0
   -2.4898    0.3957    0.0000 C   0  0  0  0  0  0  0  0  0  0  0  0
   -3.9700    0.1526    0.0000 C   0  0  0  0  0  0  0  0  0  0  0  0
   -5.4643    0.0222    0.0000 C   0  0  0  0  0  0  0  0  0  0  0  0
   -6.9642    0.0052    0.0000 C   0  0  0  0  0  0  0  0  0  0  0  0
   -8.4611    0.1016    0.0000 C   0  0  0  0  0  0  0  0  0  0  0  0
   -9.9465    0.3110    0.0000 C   0  0  0  0  0  0  0  0  0  0  0  0
  -11.4117    0.6321    0.0000 C   0  0  0  0  0  0  0  0  0  0  0  0
  -12.8484    1.0631    0.0000 C   0  0  0  0  0  0  0  0  0  0  0  0
  -14.2484    1.6016    0.0000 C   0  0  0  0  0  0  0  0  0  0  0  0
  -15.6037    2.2444    0.0000 C   0  0  0  0  0  0  0  0  0  0  0  0
  -16.9066    2.9878    0.0000 C   0  0  0  0  0  0  0  0  0  0  0  0
  -18.1494    3.8276    0.0000 C   0  0  0  0  0  0  0  0  0  0  0  0
  -19.3252    4.7591    0.0000 C   0  0  0  0  0  0  0  0  0  0  0  0
  -20.4271    5.7767    0.0000 C   0  0  0  0  0  0  0  0  0  0  0  0
  -21.4490    6.8748    0.0000 C   0  0  0  0  0  0  0  0  0  0  0  0
  -22.3849    8.0471    0.0000 C   0  0  0  0  0  0  0  0  0  0  0  0
  -23.2294    9.2867    0.0000 C   0  0  0  0  0  0  0  0  0  0  0  0
  -23.9778   10.5867    0.0000 C   0  0  0  0  0  0  0  0  0  0  0  0
  -24.6257   11.9396    0.0000 C   0  0  0  0  0  0  0  0  0  0  0  0
  -25.1694   13.3376    0.0000 C   0  0  0  0  0  0  0  0  0  0  0  0
  -25.6058   14.7727    0.0000 C   0  0  0  0  0  0  0  0  0  0  0  0
  -25.9325   16.2367    0.0000 C   0  0  0  0  0  0  0  0  0  0  0  0
  -26.1475   17.7212    0.0000 C   0  0  0  0  0  0  0  0  0  0  0  0
  -26.2496   19.2177    0.0000 C   0  0  0  0  0  0  0  0  0  0  0  0
  -26.2383   20.7177    0.0000 C   0  0  0  0  0  0  0  0  0  0  0  0
  -26.1135   22.2125    0.0000 C   0  0  0  0  0  0  0  0  0  0  0  0
  -25.8760   23.6935    0.0000 C   0  0  0  0  0  0  0  0  0  0  0  0
  -25.5273   25.1524    0.0000 C   0  0  0  0  0  0  0  0  0  0  0  0
  -25.0691   26.5808    0.0000 C   0  0  0  0  0  0  0  0  0  0  0  0
  -24.5043   27.9703    0.0000 C   0  0  0  0  0  0  0  0  0  0  0  0
  -23.8360   29.3132    0.0000 C   0  0  0  0  0  0  0  0  0  0  0  0
  -23.0680   30.6017    0.0000 C   0  0  0  0  0  0  0  0  0  0  0  0
  -22.2048   31.8285    0.0000 C   0  0  0  0  0  0  0  0  0  0  0  0
  -21.2513   32.9864    0.0000 C   0  0  0  0  0  0  0  0  0  0  0  0
  -20.2130   34.0689    0.0000 C   0  0  0  0  0  0  0  0  0  0  0  0
  -19.0957   35.0698    0.0000 C   0  0  0  0  0  0  0  0  0  0  0  0
  -17.9060   35.9833    0.0000 C   0  0  0  0  0  0  0  0  0  0  0  0
  -16.6506   36.8042    0.0000 C   0  0  0  0  0  0  0  0  0  0  0  0
  -15.3366   37.5279    0.0000 C   0  0  0  0  0  0  0  0  0  0  0  0
  -13.9718   38.1501    0.0000 C   0  0  0  0  0  0  0  0  0  0  0  0
  -12.5637   38.6672    0.0000 C   0  0  0  0  0  0  0  0  0  0  0  0
  -11.1206   39.0764    0.0000 C   0  0  0  0  0  0  0  0  0  0  0  0
   -9.6507   39.3753    0.0000 C   0  0  0  0  0  0  0  0  0  0  0  0
   -8.1624   39.5622    0.0000 C   0  0  0  0  0  0  0  0  0  0  0  0
   -6.6642   39.6360    0.0000 C   0  0  0  0  0  0  0  0  0  0  0  0
   -5.1648   39.5963    0.0000 C   0  0  0  0  0  0  0  0  0  0  0  0
   -3.6726   39.4432    0.0000 C   0  0  0  0  0  0  0  0  0  0  0  0
   -2.1963   39.1778    0.0000 C   0  0  0  0  0  0  0  0  0  0  0  0
   -0.7442   38.8015    0.0000 C   0  0  0  0  0  0  0  0  0  0  0  0
    0.6752   38.3164    0.0000 C   0  0  0  0  0  0  0  0  0  0  0  0
    2.0538   37.7254    0.0000 C   0  0  0  0  0  0  0  0  0  0  0  0
    3.3838   37.0318    0.0000 C   0  0  0  0  0  0  0  0  0  0  0  0
    4.6576   36.2395    0.0000 C   0  0  0  0  0  0  0  0  0  0  0  0
    5.8678   35.3533    0.0000 C   0  0  0  0  0  0  0  0  0  0  0  0
    7.0074   34.3780    0.0000 C   0  0  0  0  0  0  0  0  0  0  0  0
    8.0701   33.3194    0.0000 C   0  0  0  0  0  0  0  0  0  0  0  0
    9.0497   32.1834    0.0000 C   0  0  0  0  0  0  0  0  0  0  0  0
    9.9405   30.9766    0.0000 C   0  0  0  0  0  0  0  0  0  0  0  0
   10.7375   29.7058    0.0000 C   0  0  0  0  0  0  0  0  0  0  0  0
   11.4362   28.3785    0.0000 C   0  0  0  0  0  0  0  0  0  0  0  0
   12.0324   27.0021    0.0000 C   0  0  0  0  0  0  0  0  0  0  0  0
   12.5228   25.5845    0.0000 C   0  0  0  0  0  0  0  0  0  0  0  0
   12.9047   24.1339    0.0000 C   0  0  0  0  0  0  0  0  0  0  0  0
   13.1757   22.6586    0.0000 C   0  0  0  0  0  0  0  0  0  0  0  0
   13.3344   21.1670    0.0000 C   0  0  0  0  0  0  0  0  0  0  0  0
   13.3798   19.6677    0.0000 C   0  0  0  0  0  0  0  0  0  0  0  0
   13.3117   18.1693    0.0000 C   0  0  0  0  0  0  0  0  0  0  0  0
   13.1304   16.6802    0.0000 C   0  0  0  0  0  0  0  0  0  0  0  0
   12.8371   15.2092    0.0000 C   0  0  0  0  0  0  0  0  0  0  0  0
   12.4334   13.7646    0.0000 C   0  0  0  0  0  0  0  0  0  0  0  0
   11.9215   12.3546    0.0000 C   0  0  0  0  0  0  0  0  0  0  0  0
   11.3045   10.9874    0.0000 C   0  0  0  0  0  0  0  0  0  0  0  0
   10.5859    9.6707    0.0000 C   0  0  0  0  0  0  0  0  0  0  0  0
    9.7697    8.4122    0.0000 C   0  0  0  0  0  0  0  0  0  0  0  0
    8.8607    7.2190    0.0000 C   0  0  0  0  0  0  0  0  0  0  0  0
    7.8640    6.0980    0.0000 C   0  0  0  0  0  0  0  0  0  0  0  0
    6.7855    5.0556    0.0000 C   0  0  0  0  0  0  0  0  0  0  0  0
    5.6311    4.0977    0.0000 C   0  0  0  0  0  0  0  0  0  0  0  0
    4.4077    3.2298    0.0000 C   0  0  0  0  0  0  0  0  0  0  0  0
    3.1221    2.4570    0.0000 C   0  0  0  0  0  0  0  0  0  0  0  0
    1.7817    1.7836    0.0000 C   0  0  0  0  0  0  0  0  0  0  0  0
    0.3943    1.2135    0.0000 C   0  0  0  0  0  0  0  0  0  0  0  0
    1.2760    0.0000    0.0000 C   0  0  0  0  0  0  0  0  0  0  0  0
    0.3943   -1.2135    0.0000 C   0  0  0  0  0  0  0  0  0  0  0  0
   -1.0323   -0.7500    0.0000 C   0  0  0  0  0  0  0  0  0  0  0  0
   -1.0323    0.7500    0.0000 C   0  0  0  0  0  0  0  0  0  0  0  0
  1  2  1  0
  2  3  1  0
  3  4  1  0
  4  5  1  0
  5  6  1  0
  6  7  1  0
  7  8  1  0
  8  9  1  0
  9 10  1  0
 10 11  1  0
 11 12  1  0
 12 13  1  0
 13 14  1  0
 14 15  1  0
 15 16  1  0
 16 17  1  0
 17 18  1  0
 18 19  1  0
 19 20  1  0
 20 21  1  0
 21 22  1  0
 22 23  1  0
 23 24  1  0
 24 25  1  0
 25 26  1  0
 26 27  1  0
 27 28  1  0
 28 29  1  0
 29 30  1  0
 30 31  1  0
 31 32  1  0
 32 33  1  0
 33 34  1  0
 34 35  1  0
 35 36  1  0
 36 37  1  0
 37 38  1  0
 38 39  1  0
 39 40  1  0
 40 41  1  0
 41 42  1  0
 42 43  1  0
 43 44  1  0
 44 45  1  0
 45 46  1  0
 46 47  1  0
 47 48  1  0
 48 49  1  0
 49 50  1  0
 50 51  1  0
 51 52  1  0
 52 53  1  0
 53 54  1  0
 54 55  1  0
 55 56  1  0
 56 57  1  0
 57 58  1  0
 58 59  1  0
 59 60  1  0
 60 61  2  0
 61 62  1  0
 62 63  2  0
 63 64  1  0
 64 65  2  0
 65 66  1  0
 66 67  2  0
 67 68  1  0
 68 69  2  0
 69 70  1  0
 70 71  2  0
 71 72  1  0
 72 73  2  0
 73 74  1  0
 74 75  2  0
 75 76  1  0
 76 77  2  0
 77 78  1  0
 78 79  2  0
 79 80  1  0
 80 81  2  0
 81 82  1  0
 82 83  2  0
 83 84  1  0
 84 85  2  0
 85 86  1  0
 86 87  2  0
 87  2  1  0
 87 83  1  0
M  END
>  <Title>  (719) 
idAAZSgen10

$$$$

     RDKit          2D

 84 85  0  0  0  0  0  0  0  0999 V2000
   -2.0194    2.0725    0.0000 C   0  0  0  0  0  0  0  0  0  0  0  0
   -0.8519    3.0143    0.0000 C   0  0  0  0  0  0  0  0  0  0  0  0
   -2.0098    3.9678    0.0000 C   0  0  0  0  0  0  0  0  0  0  0  0
   -3.0849    5.0138    0.0000 C   0  0  0  0  0  0  0  0  0  0  0  0
   -4.0701    6.1449    0.0000 C   0  0  0  0  0  0  0  0  0  0  0  0
   -4.9584    7.3536    0.0000 C   0  0  0  0  0  0  0  0  0  0  0  0
   -5.7439    8.6315    0.0000 C   0  0  0  0  0  0  0  0  0  0  0  0
   -6.4212    9.9698    0.0000 C   0  0  0  0  0  0  0  0  0  0  0  0
   -6.9857   11.3596    0.0000 C   0  0  0  0  0  0  0  0  0  0  0  0
   -7.4335   12.7912    0.0000 C   0  0  0  0  0  0  0  0  0  0  0  0
   -7.7615   14.2549    0.0000 C   0  0  0  0  0  0  0  0  0  0  0  0
   -7.9675   15.7407    0.0000 C   0  0  0  0  0  0  0  0  0  0  0  0
   -8.0501   17.2384    0.0000 C   0  0  0  0  0  0  0  0  0  0  0  0
   -8.0088   18.7378    0.0000 C   0  0  0  0  0  0  0  0  0  0  0  0
   -7.8438   20.2287    0.0000 C   0  0  0  0  0  0  0  0  0  0  0  0
   -7.5562   21.7009    0.0000 C   0  0  0  0  0  0  0  0  0  0  0  0
   -7.1481   23.1443    0.0000 C   0  0  0  0  0  0  0  0  0  0  0  0
   -6.6221   24.5491    0.0000 C   0  0  0  0  0  0  0  0  0  0  0  0
   -5.9820   25.9056    0.0000 C   0  0  0  0  0  0  0  0  0  0  0  0
   -5.2320   27.2046    0.0000 C   0  0  0  0  0  0  0  0  0  0  0  0
   -4.3772   28.4373    0.0000 C   0  0  0  0  0  0  0  0  0  0  0  0
   -3.4237   29.5952    0.0000 C   0  0  0  0  0  0  0  0  0  0  0  0
   -2.3777   30.6704    0.0000 C   0  0  0  0  0  0  0  0  0  0  0  0
   -1.2466   31.6555    0.0000 C   0  0  0  0  0  0  0  0  0  0  0  0
   -0.0379   32.5438    0.0000 C   0  0  0  0  0  0  0  0  0  0  0  0
    1.2400   33.3294    0.0000 C   0  0  0  0  0  0  0  0  0  0  0  0
    2.5784   34.0067    0.0000 C   0  0  0  0  0  0  0  0  0  0  0  0
    3.9681   34.5711    0.0000 C   0  0  0  0  0  0  0  0  0  0  0  0
    5.3997   35.0189    0.0000 C   0  0  0  0  0  0  0  0  0  0  0  0
    6.8634   35.3469    0.0000 C   0  0  0  0  0  0  0  0  0  0  0  0
    8.3492   35.5529    0.0000 C   0  0  0  0  0  0  0  0  0  0  0  0
    9.8469   35.6356    0.0000 C   0  0  0  0  0  0  0  0  0  0  0  0
   11.3463   35.5942    0.0000 C   0  0  0  0  0  0  0  0  0  0  0  0
   12.8372   35.4292    0.0000 C   0  0  0  0  0  0  0  0  0  0  0  0
   14.3094   35.1417    0.0000 C   0  0  0  0  0  0  0  0  0  0  0  0
   15.7528   34.7335    0.0000 C   0  0  0  0  0  0  0  0  0  0  0  0
   17.1576   34.2075    0.0000 C   0  0  0  0  0  0  0  0  0  0  0  0
   18.5141   33.5674    0.0000 C   0  0  0  0  0  0  0  0  0  0  0  0
   19.8132   32.8174    0.0000 C   0  0  0  0  0  0  0  0  0  0  0  0
   21.0458   31.9627    0.0000 C   0  0  0  0  0  0  0  0  0  0  0  0
   22.2037   31.0091    0.0000 C   0  0  0  0  0  0  0  0  0  0  0  0
   23.2789   29.9631    0.0000 C   0  0  0  0  0  0  0  0  0  0  0  0
   24.2640   28.8320    0.0000 C   0  0  0  0  0  0  0  0  0  0  0  0
   25.1523   27.6233    0.0000 C   0  0  0  0  0  0  0  0  0  0  0  0
   25.9379   26.3455    0.0000 C   0  0  0  0  0  0  0  0  0  0  0  0
   26.6152   25.0071    0.0000 C   0  0  0  0  0  0  0  0  0  0  0  0
   27.1796   23.6173    0.0000 C   0  0  0  0  0  0  0  0  0  0  0  0
   27.6274   22.1857    0.0000 C   0  0  0  0  0  0  0  0  0  0  0  0
   27.9554   20.7220    0.0000 C   0  0  0  0  0  0  0  0  0  0  0  0
   28.1614   19.2362    0.0000 C   0  0  0  0  0  0  0  0  0  0  0  0
   28.2441   17.7385    0.0000 C   0  0  0  0  0  0  0  0  0  0  0  0
   28.2027   16.2391    0.0000 C   0  0  0  0  0  0  0  0  0  0  0  0
   28.0377   14.7482    0.0000 C   0  0  0  0  0  0  0  0  0  0  0  0
   27.7502   13.2760    0.0000 C   0  0  0  0  0  0  0  0  0  0  0  0
   27.3420   11.8326    0.0000 C   0  0  0  0  0  0  0  0  0  0  0  0
   26.8161   10.4279    0.0000 C   0  0  0  0  0  0  0  0  0  0  0  0
   26.1759    9.0713    0.0000 C   0  0  0  0  0  0  0  0  0  0  0  0
   25.4259    7.7723    0.0000 C   0  0  0  0  0  0  0  0  0  0  0  0
   24.5712    6.5396    0.0000 C   0  0  0  0  0  0  0  0  0  0  0  0
   23.6176    5.3817    0.0000 C   0  0  0  0  0  0  0  0  0  0  0  0
   22.5716    4.3066    0.0000 C   0  0  0  0  0  0  0  0  0  0  0  0
   21.4405    3.3214    0.0000 C   0  0  0  0  0  0  0  0  0  0  0  0
   20.2318    2.4331    0.0000 C   0  0  0  0  0  0  0  0  0  0  0  0
   18.9540    1.6476    0.0000 C   0  0  0  0  0  0  0  0  0  0  0  0
   17.6156    0.9703    0.0000 C   0  0  0  0  0  0  0  0  0  0  0  0
   16.2258    0.4058    0.0000 C   0  0  0  0  0  0  0  0  0  0  0  0
   14.7942   -0.0420    0.0000 C   0  0  0  0  0  0  0  0  0  0  0  0
   13.3305   -0.3700    0.0000 C   0  0  0  0  0  0  0  0  0  0  0  0
   11.8448   -0.5760    0.0000 C   0  0  0  0  0  0  0  0  0  0  0  0
   10.3470   -0.6586    0.0000 C   0  0  0  0  0  0  0  0  0  0  0  0
    8.8476   -0.6173    0.0000 C   0  0  0  0  0  0  0  0  0  0  0  0
    7.3567   -0.4523    0.0000 C   0  0  0  0  0  0  0  0  0  0  0  0
    5.8845   -0.1647    0.0000 C   0  0  0  0  0  0  0  0  0  0  0  0
    4.4411    0.2434    0.0000 C   0  0  0  0  0  0  0  0  0  0  0  0
    3.0364    0.7694    0.0000 C   0  0  0  0  0  0  0  0  0  0  0  0
    1.6798    1.4095    0.0000 C   0  0  0  0  0  0  0  0  0  0  0  0
    2.1929    0.0000    0.0000 C   0  0  0  0  0  0  0  0  0  0  0  0
    1.6798   -1.4095    0.0000 C   0  0  0  0  0  0  0  0  0  0  0  0
    0.3808   -2.1595    0.0000 C   0  0  0  0  0  0  0  0  0  0  0  0
   -1.0964   -1.8991    0.0000 C   0  0  0  0  0  0  0  0  0  0  0  0
   -2.0606   -0.7500    0.0000 C   0  0  0  0  0  0  0  0  0  0  0  0
   -2.0606    0.7500    0.0000 C   0  0  0  0  0  0  0  0  0  0  0  0
   -1.0964    1.8991    0.0000 C   0  0  0  0  0  0  0  0  0  0  0  0
    0.3808    2.1595    0.0000 C   0  0  0  0  0  0  0  0  0  0  0  0
  1  2  1  0
  2  3  1  0
  3  4  1  0
  4  5  1  0
  5  6  1  0
  6  7  1  0
  7  8  1  0
  8  9  1  0
  9 10  1  0
 10 11  1  0
 11 12  1  0
 12 13  1  0
 13 14  1  0
 14 15  1  0
 15 16  1  0
 16 17  1  0
 17 18  1  0
 18 19  1  0
 19 20  1  0
 20 21  1  0
 21 22  1  0
 22 23  1  0
 23 24  1  0
 24 25  1  0
 25 26  1  0
 26 27  1  0
 27 28  1  0
 28 29  1  0
 29 30  1  0
 30 31  1  0
 31 32  1  0
 32 33  1  0
 33 34  1  0
 34 35  1  0
 35 36  1  0
 36 37  1  0
 37 38  1  0
 38 39  1  0
 39 40  1  0
 40 41  1  0
 41 42  1  0
 42 43  1  0
 43 44  1  0
 44 45  1  0
 45 46  1  0
 46 47  1  0
 47 48  1  0
 48 49  1  0
 49 50  1  0
 50 51  1  0
 51 52  1  0
 52 53  1  0
 53 54  1  0
 54 55  1  0
 55 56  1  0
 56 57  1  0
 57 58  1  0
 58 59  1  0
 59 60  1  0
 60 61  1  0
 61 62  1  0
 62 63  1  0
 63 64  1  0
 64 65  1  0
 65 66  1  0
 66 67  1  0
 67 68  1  0
 68 69  1  0
 69 70  1  0
 70 71  1  0
 71 72  1  0
 72 73  1  0
 73 74  1  0
 74 75  1  0
 75 76  1  0
 76 77  1  0
 77 78  1  0
 78 79  1  0
 79 80  2  0
 80 81  1  0
 81 82  2  0
 82 83  1  0
 83 84  2  0
 84  2  1  0
 84 76  1  0
M  END
>  <Title>  (720) 
idAAZTgen10

$$$$

     RDKit          2D

 12 12  0  0  0  0  0  0  0  0999 V2000
    7.5000    0.0000    0.0000 C   0  0  0  0  0  0  0  0  0  0  0  0
    6.0000    0.0000    0.0000 C   0  0  0  0  0  0  0  0  0  0  0  0
    4.5000    0.0000    0.0000 C   0  0  0  0  0  0  0  0  0  0  0  0
    3.0000    0.0000    0.0000 C   0  0  0  0  0  0  0  0  0  0  0  0
    1.5000    0.0000    0.0000 C   0  0  0  0  0  0  0  0  0  0  0  0
    0.7500   -1.2990    0.0000 C   0  0  0  0  0  0  0  0  0  0  0  0
   -0.7500   -1.2990    0.0000 C   0  0  0  0  0  0  0  0  0  0  0  0
   -1.5000   -2.5981    0.0000 C   0  0  0  0  0  0  0  0  0  0  0  0
   -1.5000    0.0000    0.0000 C   0  0  0  0  0  0  0  0  0  0  0  0
   -0.7500    1.2990    0.0000 C   0  0  0  0  0  0  0  0  0  0  0  0
    0.7500    1.2990    0.0000 C   0  0  0  0  0  0  0  0  0  0  0  0
    1.5000    2.5981    0.0000 C   0  0  0  0  0  0  0  0  0  0  0  0
  1  2  3  0
  2  3  1  0
  3  4  3  0
  4  5  1  0
  5  6  2  0
  6  7  1  0
  7  8  1  0
  7  9  2  0
  9 10  1  0
 10 11  2  0
 11 12  1  0
 11  5  1  0
M  END
>  <Title>  (721) 
idAAZUgen10

$$$$

     RDKit          2D

 62 64  0  0  0  0  0  0  0  0999 V2000
   -2.5003    0.0040    0.0000 C   0  0  0  0  0  0  0  0  0  0  0  0
   -2.2399   -1.4732    0.0000 C   0  0  0  0  0  0  0  0  0  0  0  0
   -3.6994   -1.8191    0.0000 C   0  0  0  0  0  0  0  0  0  0  0  0
   -5.1090   -2.3321    0.0000 C   0  0  0  0  0  0  0  0  0  0  0  0
   -6.4494   -3.0053    0.0000 C   0  0  0  0  0  0  0  0  0  0  0  0
   -7.7026   -3.8296    0.0000 C   0  0  0  0  0  0  0  0  0  0  0  0
   -8.8517   -4.7938    0.0000 C   0  0  0  0  0  0  0  0  0  0  0  0
   -9.8811   -5.8848    0.0000 C   0  0  0  0  0  0  0  0  0  0  0  0
  -10.7768   -7.0880    0.0000 C   0  0  0  0  0  0  0  0  0  0  0  0
  -11.5268   -8.3871    0.0000 C   0  0  0  0  0  0  0  0  0  0  0  0
  -12.1209   -9.7644    0.0000 C   0  0  0  0  0  0  0  0  0  0  0  0
  -12.5511  -11.2014    0.0000 C   0  0  0  0  0  0  0  0  0  0  0  0
  -12.8116  -12.6786    0.0000 C   0  0  0  0  0  0  0  0  0  0  0  0
  -12.8988  -14.1760    0.0000 C   0  0  0  0  0  0  0  0  0  0  0  0
  -12.8116  -15.6735    0.0000 C   0  0  0  0  0  0  0  0  0  0  0  0
  -12.5511  -17.1507    0.0000 C   0  0  0  0  0  0  0  0  0  0  0  0
  -12.1209  -18.5877    0.0000 C   0  0  0  0  0  0  0  0  0  0  0  0
  -11.5268  -19.9650    0.0000 C   0  0  0  0  0  0  0  0  0  0  0  0
  -10.7768  -21.2641    0.0000 C   0  0  0  0  0  0  0  0  0  0  0  0
   -9.8811  -22.4672    0.0000 C   0  0  0  0  0  0  0  0  0  0  0  0
   -8.8517  -23.5583    0.0000 C   0  0  0  0  0  0  0  0  0  0  0  0
   -7.7026  -24.5225    0.0000 C   0  0  0  0  0  0  0  0  0  0  0  0
   -6.4494  -25.3468    0.0000 C   0  0  0  0  0  0  0  0  0  0  0  0
   -5.1090  -26.0200    0.0000 C   0  0  0  0  0  0  0  0  0  0  0  0
   -3.6994  -26.5330    0.0000 C   0  0  0  0  0  0  0  0  0  0  0  0
   -2.2399  -26.8789    0.0000 C   0  0  0  0  0  0  0  0  0  0  0  0
   -0.7500  -27.0530    0.0000 C   0  0  0  0  0  0  0  0  0  0  0  0
    0.7500  -27.0530    0.0000 C   0  0  0  0  0  0  0  0  0  0  0  0
    2.2399  -26.8789    0.0000 C   0  0  0  0  0  0  0  0  0  0  0  0
    3.6994  -26.5330    0.0000 C   0  0  0  0  0  0  0  0  0  0  0  0
    5.1090  -26.0200    0.0000 C   0  0  0  0  0  0  0  0  0  0  0  0
    6.4494  -25.3468    0.0000 C   0  0  0  0  0  0  0  0  0  0  0  0
    7.7026  -24.5225    0.0000 C   0  0  0  0  0  0  0  0  0  0  0  0
    8.8517  -23.5583    0.0000 C   0  0  0  0  0  0  0  0  0  0  0  0
    9.8811  -22.4672    0.0000 C   0  0  0  0  0  0  0  0  0  0  0  0
   10.7768  -21.2641    0.0000 C   0  0  0  0  0  0  0  0  0  0  0  0
   11.5268  -19.9650    0.0000 C   0  0  0  0  0  0  0  0  0  0  0  0
   12.1209  -18.5877    0.0000 C   0  0  0  0  0  0  0  0  0  0  0  0
   12.5511  -17.1507    0.0000 C   0  0  0  0  0  0  0  0  0  0  0  0
   12.8116  -15.6735    0.0000 C   0  0  0  0  0  0  0  0  0  0  0  0
   12.8988  -14.1760    0.0000 C   0  0  0  0  0  0  0  0  0  0  0  0
   12.8116  -12.6786    0.0000 C   0  0  0  0  0  0  0  0  0  0  0  0
   12.5511  -11.2014    0.0000 C   0  0  0  0  0  0  0  0  0  0  0  0
   12.1209   -9.7644    0.0000 C   0  0  0  0  0  0  0  0  0  0  0  0
   11.5268   -8.3871    0.0000 C   0  0  0  0  0  0  0  0  0  0  0  0
   10.7768   -7.0880    0.0000 C   0  0  0  0  0  0  0  0  0  0  0  0
    9.8811   -5.8848    0.0000 C   0  0  0  0  0  0  0  0  0  0  0  0
    8.8517   -4.7938    0.0000 C   0  0  0  0  0  0  0  0  0  0  0  0
    7.7026   -3.8296    0.0000 C   0  0  0  0  0  0  0  0  0  0  0  0
    6.4494   -3.0053    0.0000 C   0  0  0  0  0  0  0  0  0  0  0  0
    5.1090   -2.3321    0.0000 C   0  0  0  0  0  0  0  0  0  0  0  0
    3.6994   -1.8191    0.0000 C   0  0  0  0  0  0  0  0  0  0  0  0
    3.8215   -3.3141    0.0000 C   0  0  0  0  0  0  0  0  0  0  0  0
    2.4373   -3.8922    0.0000 C   0  0  0  0  0  0  0  0  0  0  0  0
    1.4598   -2.7544    0.0000 C   0  0  0  0  0  0  0  0  0  0  0  0
    2.2399   -1.4732    0.0000 C   0  0  0  0  0  0  0  0  0  0  0  0
    0.7500   -1.2990    0.0000 C   0  0  0  0  0  0  0  0  0  0  0  0
    1.5000    0.0000    0.0000 C   0  0  0  0  0  0  0  0  0  0  0  0
    0.7500    1.2990    0.0000 C   0  0  0  0  0  0  0  0  0  0  0  0
   -0.7500    1.2990    0.0000 C   0  0  0  0  0  0  0  0  0  0  0  0
   -1.5000    0.0000    0.0000 C   0  0  0  0  0  0  0  0  0  0  0  0
   -0.7500   -1.2990    0.0000 C   0  0  0  0  0  0  0  0  0  0  0  0
  1  2  1  0
  2  3  2  0
  3  4  1  0
  4  5  1  0
  5  6  2  0
  6  7  1  0
  7  8  2  0
  8  9  1  0
  9 10  2  0
 10 11  1  0
 11 12  2  0
 12 13  1  0
 13 14  2  0
 14 15  1  0
 15 16  2  0
 16 17  1  0
 17 18  2  0
 18 19  1  0
 19 20  2  0
 20 21  1  0
 21 22  2  0
 22 23  1  0
 23 24  2  0
 24 25  1  0
 25 26  2  0
 26 27  1  0
 27 28  2  0
 28 29  1  0
 29 30  2  0
 30 31  1  0
 31 32  2  0
 32 33  1  0
 33 34  2  0
 34 35  1  0
 35 36  2  0
 36 37  1  0
 37 38  2  0
 38 39  1  0
 39 40  2  0
 40 41  1  0
 41 42  2  0
 42 43  1  0
 43 44  2  0
 44 45  1  0
 45 46  2  0
 46 47  1  0
 47 48  2  0
 48 49  1  0
 49 50  2  0
 50 51  1  0
 51 52  2  0
 52 53  1  0
 53 54  2  0
 54 55  1  0
 55 56  2  0
 56 57  1  0
 57 58  2  0
 58 59  1  0
 59 60  2  0
 60 61  1  0
 61 62  2  0
 62  2  1  0
 56 52  1  0
 62 57  1  0
M  END
>  <Title>  (722) 
idAAZVgen10

$$$$

     RDKit          2D

  8  8  0  0  0  0  0  0  0  0999 V2000
    4.5000    0.0000    0.0000 N   0  0  0  0  0  0  0  0  0  0  0  0
    3.0000    0.0000    0.0000 C   0  0  0  0  0  0  0  0  0  0  0  0
    1.5000    0.0000    0.0000 C   0  0  0  0  0  0  0  0  0  0  0  0
    0.7500   -1.2990    0.0000 C   0  0  0  0  0  0  0  0  0  0  0  0
   -0.7500   -1.2990    0.0000 C   0  0  0  0  0  0  0  0  0  0  0  0
   -1.5000    0.0000    0.0000 C   0  0  0  0  0  0  0  0  0  0  0  0
   -0.7500    1.2990    0.0000 C   0  0  0  0  0  0  0  0  0  0  0  0
    0.7500    1.2990    0.0000 C   0  0  0  0  0  0  0  0  0  0  0  0
  1  2  3  0
  2  3  1  0
  3  4  2  0
  4  5  1  0
  5  6  2  0
  6  7  1  0
  7  8  2  0
  8  3  1  0
M  END
>  <Title>  (723) 
idAAZWgen10

$$$$

     RDKit          2D

 11 11  0  0  0  0  0  0  0  0999 V2000
    4.7286   -0.0000    0.0000 C   0  0  0  0  0  0  0  0  0  0  0  0
    3.2286   -0.0000    0.0000 C   0  0  0  0  0  0  0  0  0  0  0  0
    1.7286    0.0000    0.0000 C   0  0  0  0  0  0  0  0  0  0  0  0
    1.0777    1.3515    0.0000 C   0  0  0  0  0  0  0  0  0  0  0  0
   -0.3846    1.6852    0.0000 C   0  0  0  0  0  0  0  0  0  0  0  0
   -1.5574    0.7500    0.0000 C   0  0  0  0  0  0  0  0  0  0  0  0
   -1.5574   -0.7500    0.0000 C   0  0  0  0  0  0  0  0  0  0  0  0
   -2.9088   -1.4008    0.0000 C   0  0  0  0  0  0  0  0  0  0  0  0
   -4.2603   -2.0517    0.0000 N   0  0  0  0  0  0  0  0  0  0  0  0
   -0.3846   -1.6852    0.0000 C   0  0  0  0  0  0  0  0  0  0  0  0
    1.0777   -1.3515    0.0000 C   0  0  0  0  0  0  0  0  0  0  0  0
  1  2  3  0
  2  3  1  0
  3  4  1  0
  4  5  2  0
  5  6  1  0
  6  7  2  0
  7  8  1  0
  8  9  3  0
  7 10  1  0
 10 11  2  0
 11  3  1  0
M  END
>  <Title>  (724) 
idAAZXgen10

$$$$

     RDKit          2D

 87 91  0  0  0  0  0  0  0  0999 V2000
   -8.6323   -1.9257    0.0000 C   0  0  0  0  0  0  0  0  0  0  0  0
   -7.9307   -3.2515    0.0000 C   0  0  0  0  0  0  0  0  0  0  0  0
   -9.2242   -4.0111    0.0000 C   0  0  0  0  0  0  0  0  0  0  0  0
  -10.4454   -4.8820    0.0000 C   0  0  0  0  0  0  0  0  0  0  0  0
  -11.5850   -5.8574    0.0000 C   0  0  0  0  0  0  0  0  0  0  0  0
  -12.6338   -6.9297    0.0000 C   0  0  0  0  0  0  0  0  0  0  0  0
  -13.5838   -8.0906    0.0000 C   0  0  0  0  0  0  0  0  0  0  0  0
  -14.4275   -9.3308    0.0000 C   0  0  0  0  0  0  0  0  0  0  0  0
  -15.1582  -10.6408    0.0000 C   0  0  0  0  0  0  0  0  0  0  0  0
  -15.7704  -12.0102    0.0000 C   0  0  0  0  0  0  0  0  0  0  0  0
  -16.2591  -13.4283    0.0000 C   0  0  0  0  0  0  0  0  0  0  0  0
  -16.6205  -14.8841    0.0000 C   0  0  0  0  0  0  0  0  0  0  0  0
  -16.8519  -16.3662    0.0000 C   0  0  0  0  0  0  0  0  0  0  0  0
  -16.9514  -17.8629    0.0000 C   0  0  0  0  0  0  0  0  0  0  0  0
  -16.9182  -19.3625    0.0000 C   0  0  0  0  0  0  0  0  0  0  0  0
  -16.7526  -20.8533    0.0000 C   0  0  0  0  0  0  0  0  0  0  0  0
  -16.4559  -22.3237    0.0000 C   0  0  0  0  0  0  0  0  0  0  0  0
  -16.0304  -23.7621    0.0000 C   0  0  0  0  0  0  0  0  0  0  0  0
  -15.4795  -25.1573    0.0000 C   0  0  0  0  0  0  0  0  0  0  0  0
  -14.8074  -26.4983    0.0000 C   0  0  0  0  0  0  0  0  0  0  0  0
  -14.0194  -27.7746    0.0000 C   0  0  0  0  0  0  0  0  0  0  0  0
  -13.1217  -28.9763    0.0000 C   0  0  0  0  0  0  0  0  0  0  0  0
  -12.1213  -30.0940    0.0000 C   0  0  0  0  0  0  0  0  0  0  0  0
  -11.0260  -31.1189    0.0000 C   0  0  0  0  0  0  0  0  0  0  0  0
   -9.8444  -32.0429    0.0000 C   0  0  0  0  0  0  0  0  0  0  0  0
   -8.5858  -32.8590    0.0000 C   0  0  0  0  0  0  0  0  0  0  0  0
   -7.2600  -33.5606    0.0000 C   0  0  0  0  0  0  0  0  0  0  0  0
   -5.8774  -34.1423    0.0000 C   0  0  0  0  0  0  0  0  0  0  0  0
   -4.4488  -34.5995    0.0000 C   0  0  0  0  0  0  0  0  0  0  0  0
   -2.9853  -34.9286    0.0000 C   0  0  0  0  0  0  0  0  0  0  0  0
   -1.4985  -35.1272    0.0000 C   0  0  0  0  0  0  0  0  0  0  0  0
   -0.0000  -35.1935    0.0000 C   0  0  0  0  0  0  0  0  0  0  0  0
    1.4985  -35.1272    0.0000 C   0  0  0  0  0  0  0  0  0  0  0  0
    2.9853  -34.9286    0.0000 C   0  0  0  0  0  0  0  0  0  0  0  0
    4.4488  -34.5995    0.0000 C   0  0  0  0  0  0  0  0  0  0  0  0
    5.8774  -34.1423    0.0000 C   0  0  0  0  0  0  0  0  0  0  0  0
    7.2600  -33.5606    0.0000 C   0  0  0  0  0  0  0  0  0  0  0  0
    8.5858  -32.8590    0.0000 C   0  0  0  0  0  0  0  0  0  0  0  0
    9.8444  -32.0429    0.0000 C   0  0  0  0  0  0  0  0  0  0  0  0
   11.0260  -31.1189    0.0000 C   0  0  0  0  0  0  0  0  0  0  0  0
   12.1213  -30.0940    0.0000 C   0  0  0  0  0  0  0  0  0  0  0  0
   13.1217  -28.9763    0.0000 C   0  0  0  0  0  0  0  0  0  0  0  0
   14.0194  -27.7746    0.0000 C   0  0  0  0  0  0  0  0  0  0  0  0
   14.8074  -26.4983    0.0000 C   0  0  0  0  0  0  0  0  0  0  0  0
   15.4795  -25.1573    0.0000 C   0  0  0  0  0  0  0  0  0  0  0  0
   16.0304  -23.7621    0.0000 C   0  0  0  0  0  0  0  0  0  0  0  0
   16.4559  -22.3237    0.0000 C   0  0  0  0  0  0  0  0  0  0  0  0
   16.7526  -20.8533    0.0000 C   0  0  0  0  0  0  0  0  0  0  0  0
   16.9182  -19.3625    0.0000 C   0  0  0  0  0  0  0  0  0  0  0  0
   16.9514  -17.8629    0.0000 C   0  0  0  0  0  0  0  0  0  0  0  0
   16.8519  -16.3662    0.0000 C   0  0  0  0  0  0  0  0  0  0  0  0
   16.6205  -14.8841    0.0000 C   0  0  0  0  0  0  0  0  0  0  0  0
   16.2591  -13.4283    0.0000 C   0  0  0  0  0  0  0  0  0  0  0  0
   15.7704  -12.0102    0.0000 C   0  0  0  0  0  0  0  0  0  0  0  0
   15.1582  -10.6408    0.0000 C   0  0  0  0  0  0  0  0  0  0  0  0
   14.4275   -9.3308    0.0000 C   0  0  0  0  0  0  0  0  0  0  0  0
   13.5838   -8.0906    0.0000 C   0  0  0  0  0  0  0  0  0  0  0  0
   12.6338   -6.9297    0.0000 C   0  0  0  0  0  0  0  0  0  0  0  0
   11.5850   -5.8574    0.0000 C   0  0  0  0  0  0  0  0  0  0  0  0
   10.4454   -4.8820    0.0000 C   0  0  0  0  0  0  0  0  0  0  0  0
    9.2242   -4.0111    0.0000 C   0  0  0  0  0  0  0  0  0  0  0  0
    7.9307   -3.2515    0.0000 C   0  0  0  0  0  0  0  0  0  0  0  0
    6.5751   -2.6092    0.0000 C   0  0  0  0  0  0  0  0  0  0  0  0
    5.1681   -2.0893    0.0000 C   0  0  0  0  0  0  0  0  0  0  0  0
    3.7207   -1.6957    0.0000 C   0  0  0  0  0  0  0  0  0  0  0  0
    3.9258   -3.1816    0.0000 C   0  0  0  0  0  0  0  0  0  0  0  0
    2.5760   -3.8359    0.0000 C   0  0  0  0  0  0  0  0  0  0  0  0
    1.5367   -2.7543    0.0000 C   0  0  0  0  0  0  0  0  0  0  0  0
    2.2441   -1.4316    0.0000 C   0  0  0  0  0  0  0  0  0  0  0  0
    0.7500   -1.2990    0.0000 C   0  0  0  0  0  0  0  0  0  0  0  0
    1.5000    0.0000    0.0000 C   0  0  0  0  0  0  0  0  0  0  0  0
    0.7500    1.2990    0.0000 C   0  0  0  0  0  0  0  0  0  0  0  0
   -0.7500    1.2990    0.0000 C   0  0  0  0  0  0  0  0  0  0  0  0
   -1.5000    0.0000    0.0000 C   0  0  0  0  0  0  0  0  0  0  0  0
   -0.7500   -1.2990    0.0000 C   0  0  0  0  0  0  0  0  0  0  0  0
   -2.2441   -1.4316    0.0000 C   0  0  0  0  0  0  0  0  0  0  0  0
   -1.2771   -2.5783    0.0000 C   0  0  0  0  0  0  0  0  0  0  0  0
   -1.7867   -3.9891    0.0000 C   0  0  0  0  0  0  0  0  0  0  0  0
   -3.2633   -4.2532    0.0000 C   0  0  0  0  0  0  0  0  0  0  0  0
   -4.2303   -3.1065    0.0000 C   0  0  0  0  0  0  0  0  0  0  0  0
   -3.7207   -1.6957    0.0000 C   0  0  0  0  0  0  0  0  0  0  0  0
   -5.1681   -2.0893    0.0000 C   0  0  0  0  0  0  0  0  0  0  0  0
   -4.9149   -0.6108    0.0000 C   0  0  0  0  0  0  0  0  0  0  0  0
   -6.0687    0.3477    0.0000 C   0  0  0  0  0  0  0  0  0  0  0  0
   -7.4757   -0.1722    0.0000 C   0  0  0  0  0  0  0  0  0  0  0  0
   -7.7289   -1.6507    0.0000 C   0  0  0  0  0  0  0  0  0  0  0  0
   -6.5751   -2.6092    0.0000 C   0  0  0  0  0  0  0  0  0  0  0  0
  1  2  1  0
  2  3  1  0
  3  4  1  0
  4  5  1  0
  5  6  1  0
  6  7  1  0
  7  8  1  0
  8  9  1  0
  9 10  1  0
 10 11  1  0
 11 12  1  0
 12 13  1  0
 13 14  1  0
 14 15  1  0
 15 16  1  0
 16 17  1  0
 17 18  1  0
 18 19  1  0
 19 20  1  0
 20 21  1  0
 21 22  1  0
 22 23  1  0
 23 24  1  0
 24 25  1  0
 25 26  1  0
 26 27  1  0
 27 28  1  0
 28 29  1  0
 29 30  1  0
 30 31  1  0
 31 32  1  0
 32 33  1  0
 33 34  1  0
 34 35  2  0
 35 36  1  0
 36 37  2  0
 37 38  1  0
 38 39  2  0
 39 40  1  0
 40 41  2  0
 41 42  1  0
 42 43  2  0
 43 44  1  0
 44 45  2  0
 45 46  1  0
 46 47  2  0
 47 48  1  0
 48 49  2  0
 49 50  1  0
 50 51  2  0
 51 52  1  0
 52 53  2  0
 53 54  1  0
 54 55  2  0
 55 56  1  0
 56 57  2  0
 57 58  1  0
 58 59  2  0
 59 60  1  0
 60 61  2  0
 61 62  1  0
 62 63  2  0
 63 64  1  0
 64 65  2  0
 65 66  1  0
 66 67  2  0
 67 68  1  0
 68 69  2  0
 69 70  1  0
 70 71  2  0
 71 72  1  0
 72 73  2  0
 73 74  1  0
 74 75  2  0
 75 76  1  0
 76 77  2  0
 77 78  1  0
 78 79  2  0
 79 80  1  0
 80 81  2  0
 81 82  1  0
 82 83  2  0
 83 84  1  0
 84 85  2  0
 85 86  1  0
 86 87  2  0
 87  2  1  0
 69 65  1  0
 75 70  1  0
 81 76  1  0
 87 82  1  0
M  END
>  <Title>  (725) 
idAAZYgen10

$$$$

     RDKit          2D

  9  9  0  0  0  0  0  0  0  0999 V2000
    5.2500   -1.2990    0.0000 C   0  0  0  0  0  0  0  0  0  0  0  0
    3.7500   -1.2990    0.0000 C   0  0  0  0  0  0  0  0  0  0  0  0
    3.0000    0.0000    0.0000 C   0  0  0  0  0  0  0  0  0  0  0  0
    1.5000    0.0000    0.0000 C   0  0  0  0  0  0  0  0  0  0  0  0
    0.7500   -1.2990    0.0000 C   0  0  0  0  0  0  0  0  0  0  0  0
   -0.7500   -1.2990    0.0000 C   0  0  0  0  0  0  0  0  0  0  0  0
   -1.5000    0.0000    0.0000 C   0  0  0  0  0  0  0  0  0  0  0  0
   -0.7500    1.2990    0.0000 C   0  0  0  0  0  0  0  0  0  0  0  0
    0.7500    1.2990    0.0000 C   0  0  0  0  0  0  0  0  0  0  0  0
  1  2  1  0
  2  3  1  0
  3  4  1  0
  4  5  2  0
  5  6  1  0
  6  7  2  0
  7  8  1  0
  8  9  2  0
  9  4  1  0
M  END
>  <Title>  (726) 
idAAZZgen10

$$$$

     RDKit          2D

 10 10  0  0  0  0  0  0  0  0999 V2000
    6.0000   -2.5981    0.0000 C   0  0  0  0  0  0  0  0  0  0  0  0
    5.2500   -1.2990    0.0000 C   0  0  0  0  0  0  0  0  0  0  0  0
    3.7500   -1.2990    0.0000 C   0  0  0  0  0  0  0  0  0  0  0  0
    3.0000    0.0000    0.0000 N   0  0  0  0  0  0  0  0  0  0  0  0
    1.5000    0.0000    0.0000 C   0  0  0  0  0  0  0  0  0  0  0  0
    0.7500   -1.2990    0.0000 C   0  0  0  0  0  0  0  0  0  0  0  0
   -0.7500   -1.2990    0.0000 C   0  0  0  0  0  0  0  0  0  0  0  0
   -1.5000    0.0000    0.0000 C   0  0  0  0  0  0  0  0  0  0  0  0
   -0.7500    1.2990    0.0000 C   0  0  0  0  0  0  0  0  0  0  0  0
    0.7500    1.2990    0.0000 C   0  0  0  0  0  0  0  0  0  0  0  0
  1  2  1  0
  2  3  1  0
  3  4  1  0
  4  5  1  0
  5  6  2  0
  6  7  1  0
  7  8  2  0
  8  9  1  0
  9 10  2  0
 10  5  1  0
M  END
>  <Title>  (727) 
idABAAgen10

$$$$

     RDKit          2D

 22 23  0  0  0  0  0  0  0  0999 V2000
    9.7500   -1.2990    0.0000 C   0  0  0  0  0  0  0  0  0  0  0  0
    9.0000    0.0000    0.0000 C   0  0  0  0  0  0  0  0  0  0  0  0
    9.7500    1.2990    0.0000 C   0  0  0  0  0  0  0  0  0  0  0  0
    7.5000    0.0000    0.0000 C   0  0  0  0  0  0  0  0  0  0  0  0
    6.0000    0.0000    0.0000 C   0  0  0  0  0  0  0  0  0  0  0  0
    4.5000    0.0000    0.0000 C   0  0  0  0  0  0  0  0  0  0  0  0
    3.0000    0.0000    0.0000 C   0  0  0  0  0  0  0  0  0  0  0  0
    1.5000    0.0000    0.0000 C   0  0  0  0  0  0  0  0  0  0  0  0
    0.7500   -1.2990    0.0000 C   0  0  0  0  0  0  0  0  0  0  0  0
   -0.7500   -1.2990    0.0000 C   0  0  0  0  0  0  0  0  0  0  0  0
   -1.5000    0.0000    0.0000 C   0  0  0  0  0  0  0  0  0  0  0  0
   -0.7500    1.2990    0.0000 C   0  0  0  0  0  0  0  0  0  0  0  0
    0.7500    1.2990    0.0000 C   0  0  0  0  0  0  0  0  0  0  0  0
    1.5000    2.5981    0.0000 C   0  0  0  0  0  0  0  0  0  0  0  0
    3.0000    2.5981    0.0000 O   0  0  0  0  0  0  0  0  0  0  0  0
    0.7500    3.8971    0.0000 N   0  0  0  0  0  0  0  0  0  0  0  0
    1.5000    5.1962    0.0000 C   0  0  0  0  0  0  0  0  0  0  0  0
    3.0000    5.1962    0.0000 C   0  0  0  0  0  0  0  0  0  0  0  0
    3.7500    6.4952    0.0000 C   0  0  0  0  0  0  0  0  0  0  0  0
    3.0000    7.7942    0.0000 C   0  0  0  0  0  0  0  0  0  0  0  0
    1.5000    7.7942    0.0000 C   0  0  0  0  0  0  0  0  0  0  0  0
    0.7500    6.4952    0.0000 C   0  0  0  0  0  0  0  0  0  0  0  0
  1  2  1  0
  2  3  1  0
  2  4  1  0
  4  5  3  0
  5  6  1  0
  6  7  3  0
  7  8  1  0
  8  9  2  0
  9 10  1  0
 10 11  2  0
 11 12  1  0
 12 13  2  0
 13 14  1  0
 14 15  2  0
 14 16  1  0
 16 17  1  0
 17 18  2  0
 18 19  1  0
 19 20  2  0
 20 21  1  0
 21 22  2  0
 13  8  1  0
 22 17  1  0
M  END
>  <Title>  (728) 
idABABgen10

$$$$

     RDKit          2D

 16 17  0  0  0  0  0  0  0  0999 V2000
    3.0000    0.0000    0.0000 C   0  0  0  0  0  0  0  0  0  0  0  0
    1.5000    0.0000    0.0000 C   0  0  0  0  0  0  0  0  0  0  0  0
    0.7500   -1.2990    0.0000 C   0  0  0  0  0  0  0  0  0  0  0  0
   -0.7500   -1.2990    0.0000 C   0  0  0  0  0  0  0  0  0  0  0  0
   -1.5000    0.0000    0.0000 C   0  0  0  0  0  0  0  0  0  0  0  0
   -0.7500    1.2990    0.0000 C   0  0  0  0  0  0  0  0  0  0  0  0
   -1.5000    2.5981    0.0000 C   0  0  0  0  0  0  0  0  0  0  0  0
   -3.0000    2.5981    0.0000 O   0  0  0  0  0  0  0  0  0  0  0  0
   -0.7500    3.8971    0.0000 N   0  0  0  0  0  0  0  0  0  0  0  0
   -1.5000    5.1962    0.0000 C   0  0  0  0  0  0  0  0  0  0  0  0
   -0.7500    6.4952    0.0000 N   0  0  0  0  0  0  0  0  0  0  0  0
   -1.5000    7.7942    0.0000 N   0  0  0  0  0  0  0  0  0  0  0  0
   -3.0000    7.7942    0.0000 N   0  0  0  0  0  0  0  0  0  0  0  0
   -3.7500    6.4952    0.0000 N   0  0  0  0  0  0  0  0  0  0  0  0
   -3.0000    5.1962    0.0000 N   0  0  0  0  0  0  0  0  0  0  0  0
    0.7500    1.2990    0.0000 C   0  0  0  0  0  0  0  0  0  0  0  0
  1  2  1  0
  2  3  1  0
  3  4  2  0
  4  5  1  0
  5  6  1  0
  6  7  1  0
  7  8  2  0
  7  9  1  0
  9 10  1  0
 10 11  2  0
 11 12  1  0
 12 13  2  0
 13 14  1  0
 14 15  2  0
  6 16  1  0
 16  2  1  0
 15 10  1  0
M  END
>  <Title>  (729) 
idABACgen10

$$$$

     RDKit          2D

  3  2  0  0  0  0  0  0  0  0999 V2000
    0.0000    0.0000    0.0000 C   0  0  0  0  0  0  0  0  0  0  0  0
    1.2990    0.7500    0.0000 C   0  0  0  0  0  0  0  0  0  0  0  0
    2.5981   -0.0000    0.0000 C   0  0  0  0  0  0  0  0  0  0  0  0
  1  2  1  0
  2  3  1  0
M  END
>  <Title>  (730) 
idABADgen10

$$$$

     RDKit          2D

 61 62  0  0  0  0  0  0  0  0999 V2000
   -2.4918    0.0118    0.0000 C   0  0  0  0  0  0  0  0  0  0  0  0
   -2.2406   -1.4670    0.0000 C   0  0  0  0  0  0  0  0  0  0  0  0
   -3.7030   -1.8008    0.0000 C   0  0  0  0  0  0  0  0  0  0  0  0
   -5.1188   -2.2962    0.0000 C   0  0  0  0  0  0  0  0  0  0  0  0
   -6.4702   -2.9470    0.0000 C   0  0  0  0  0  0  0  0  0  0  0  0
   -7.7403   -3.7451    0.0000 C   0  0  0  0  0  0  0  0  0  0  0  0
   -8.9131   -4.6803    0.0000 C   0  0  0  0  0  0  0  0  0  0  0  0
   -9.9737   -5.7410    0.0000 C   0  0  0  0  0  0  0  0  0  0  0  0
  -10.9090   -6.9137    0.0000 C   0  0  0  0  0  0  0  0  0  0  0  0
  -11.7070   -8.1838    0.0000 C   0  0  0  0  0  0  0  0  0  0  0  0
  -12.3578   -9.5352    0.0000 C   0  0  0  0  0  0  0  0  0  0  0  0
  -12.8533  -10.9511    0.0000 C   0  0  0  0  0  0  0  0  0  0  0  0
  -13.1870  -12.4135    0.0000 C   0  0  0  0  0  0  0  0  0  0  0  0
  -13.3550  -13.9040    0.0000 C   0  0  0  0  0  0  0  0  0  0  0  0
  -13.3550  -15.4040    0.0000 C   0  0  0  0  0  0  0  0  0  0  0  0
  -13.1870  -16.8946    0.0000 C   0  0  0  0  0  0  0  0  0  0  0  0
  -12.8533  -18.3570    0.0000 C   0  0  0  0  0  0  0  0  0  0  0  0
  -12.3578  -19.7728    0.0000 C   0  0  0  0  0  0  0  0  0  0  0  0
  -11.7070  -21.1243    0.0000 C   0  0  0  0  0  0  0  0  0  0  0  0
  -10.9090  -22.3944    0.0000 C   0  0  0  0  0  0  0  0  0  0  0  0
   -9.9737  -23.5671    0.0000 C   0  0  0  0  0  0  0  0  0  0  0  0
   -8.9131  -24.6278    0.0000 C   0  0  0  0  0  0  0  0  0  0  0  0
   -7.7403  -25.5630    0.0000 C   0  0  0  0  0  0  0  0  0  0  0  0
   -6.4702  -26.3610    0.0000 C   0  0  0  0  0  0  0  0  0  0  0  0
   -5.1188  -27.0119    0.0000 C   0  0  0  0  0  0  0  0  0  0  0  0
   -3.7030  -27.5073    0.0000 C   0  0  0  0  0  0  0  0  0  0  0  0
   -2.2406  -27.8411    0.0000 C   0  0  0  0  0  0  0  0  0  0  0  0
   -0.7500  -28.0090    0.0000 C   0  0  0  0  0  0  0  0  0  0  0  0
    0.7500  -28.0090    0.0000 C   0  0  0  0  0  0  0  0  0  0  0  0
    2.2406  -27.8411    0.0000 C   0  0  0  0  0  0  0  0  0  0  0  0
    3.7030  -27.5073    0.0000 C   0  0  0  0  0  0  0  0  0  0  0  0
    5.1188  -27.0119    0.0000 C   0  0  0  0  0  0  0  0  0  0  0  0
    6.4702  -26.3610    0.0000 C   0  0  0  0  0  0  0  0  0  0  0  0
    7.7403  -25.5630    0.0000 C   0  0  0  0  0  0  0  0  0  0  0  0
    8.9131  -24.6278    0.0000 C   0  0  0  0  0  0  0  0  0  0  0  0
    9.9737  -23.5671    0.0000 C   0  0  0  0  0  0  0  0  0  0  0  0
   10.9090  -22.3944    0.0000 C   0  0  0  0  0  0  0  0  0  0  0  0
   11.7070  -21.1243    0.0000 C   0  0  0  0  0  0  0  0  0  0  0  0
   12.3578  -19.7728    0.0000 C   0  0  0  0  0  0  0  0  0  0  0  0
   12.8533  -18.3570    0.0000 C   0  0  0  0  0  0  0  0  0  0  0  0
   13.1870  -16.8946    0.0000 C   0  0  0  0  0  0  0  0  0  0  0  0
   13.3550  -15.4040    0.0000 C   0  0  0  0  0  0  0  0  0  0  0  0
   13.3550  -13.9040    0.0000 C   0  0  0  0  0  0  0  0  0  0  0  0
   13.1870  -12.4135    0.0000 C   0  0  0  0  0  0  0  0  0  0  0  0
   12.8533  -10.9511    0.0000 C   0  0  0  0  0  0  0  0  0  0  0  0
   12.3578   -9.5352    0.0000 C   0  0  0  0  0  0  0  0  0  0  0  0
   11.7070   -8.1838    0.0000 C   0  0  0  0  0  0  0  0  0  0  0  0
   10.9090   -6.9137    0.0000 C   0  0  0  0  0  0  0  0  0  0  0  0
    9.9737   -5.7410    0.0000 C   0  0  0  0  0  0  0  0  0  0  0  0
    8.9131   -4.6803    0.0000 C   0  0  0  0  0  0  0  0  0  0  0  0
    7.7403   -3.7451    0.0000 C   0  0  0  0  0  0  0  0  0  0  0  0
    6.4702   -2.9470    0.0000 C   0  0  0  0  0  0  0  0  0  0  0  0
    5.1188   -2.2962    0.0000 C   0  0  0  0  0  0  0  0  0  0  0  0
    3.7030   -1.8008    0.0000 C   0  0  0  0  0  0  0  0  0  0  0  0
    2.2406   -1.4670    0.0000 C   0  0  0  0  0  0  0  0  0  0  0  0
    0.7500   -1.2990    0.0000 C   0  0  0  0  0  0  0  0  0  0  0  0
    1.5000    0.0000    0.0000 C   0  0  0  0  0  0  0  0  0  0  0  0
    0.7500    1.2990    0.0000 C   0  0  0  0  0  0  0  0  0  0  0  0
   -0.7500    1.2990    0.0000 C   0  0  0  0  0  0  0  0  0  0  0  0
   -1.5000    0.0000    0.0000 C   0  0  0  0  0  0  0  0  0  0  0  0
   -0.7500   -1.2990    0.0000 C   0  0  0  0  0  0  0  0  0  0  0  0
  1  2  1  0
  2  3  1  0
  3  4  2  0
  4  5  1  0
  5  6  2  0
  6  7  1  0
  7  8  2  0
  8  9  1  0
  9 10  2  0
 10 11  1  0
 11 12  2  0
 12 13  1  0
 13 14  2  0
 14 15  1  0
 15 16  2  0
 16 17  1  0
 17 18  2  0
 18 19  1  0
 19 20  2  0
 20 21  1  0
 21 22  2  0
 22 23  1  0
 23 24  2  0
 24 25  1  0
 25 26  2  0
 26 27  1  0
 27 28  2  0
 28 29  1  0
 29 30  2  0
 30 31  1  0
 31 32  2  0
 32 33  1  0
 33 34  2  0
 34 35  1  0
 35 36  2  0
 36 37  1  0
 37 38  2  0
 38 39  1  0
 39 40  2  0
 40 41  1  0
 41 42  2  0
 42 43  1  0
 43 44  2  0
 44 45  1  0
 45 46  2  0
 46 47  1  0
 47 48  2  0
 48 49  1  0
 49 50  2  0
 50 51  1  0
 51 52  2  0
 52 53  1  0
 53 54  2  0
 54 55  1  0
 55 56  2  0
 56 57  1  0
 57 58  1  0
 58 59  1  0
 59 60  1  0
 60 61  2  0
 61  2  1  0
 61 56  1  0
M  END
>  <Title>  (731) 
idABAEgen10

$$$$

     RDKit          2D

 10 10  0  0  0  0  0  0  0  0999 V2000
    4.0607   -2.5981    0.0000 C   0  0  0  0  0  0  0  0  0  0  0  0
    3.3107   -1.2990    0.0000 C   0  0  0  0  0  0  0  0  0  0  0  0
    2.5607    0.0000    0.0000 C   0  0  0  0  0  0  0  0  0  0  0  0
    3.3107    1.2990    0.0000 O   0  0  0  0  0  0  0  0  0  0  0  0
    1.0607    0.0000    0.0000 C   0  0  0  0  0  0  0  0  0  0  0  0
   -0.0000   -1.0607    0.0000 C   0  0  0  0  0  0  0  0  0  0  0  0
   -0.0000   -2.5607    0.0000 C   0  0  0  0  0  0  0  0  0  0  0  0
   -1.0607    0.0000    0.0000 C   0  0  0  0  0  0  0  0  0  0  0  0
   -2.5607    0.0000    0.0000 C   0  0  0  0  0  0  0  0  0  0  0  0
    0.0000    1.0607    0.0000 N   0  0  0  0  0  0  0  0  0  0  0  0
  1  2  3  0
  2  3  1  0
  3  4  2  0
  3  5  1  0
  5  6  2  0
  6  7  1  0
  6  8  1  0
  8  9  1  0
  8 10  1  0
 10  5  1  0
M  END
>  <Title>  (732) 
idABAFgen10

$$$$

     RDKit          2D

 11 11  0  0  0  0  0  0  0  0999 V2000
    6.5260   -1.2990    0.0000 C   0  0  0  0  0  0  0  0  0  0  0  0
    5.7760   -0.0000    0.0000 C   0  0  0  0  0  0  0  0  0  0  0  0
    4.2760   -0.0000    0.0000 C   0  0  0  0  0  0  0  0  0  0  0  0
    2.7760    0.0000    0.0000 C   0  0  0  0  0  0  0  0  0  0  0  0
    1.2760    0.0000    0.0000 C   0  0  0  0  0  0  0  0  0  0  0  0
    0.3943    1.2135    0.0000 C   0  0  0  0  0  0  0  0  0  0  0  0
   -1.0323    0.7500    0.0000 C   0  0  0  0  0  0  0  0  0  0  0  0
   -2.2458    1.6317    0.0000 C   0  0  0  0  0  0  0  0  0  0  0  0
   -1.0323   -0.7500    0.0000 C   0  0  0  0  0  0  0  0  0  0  0  0
   -2.2458   -1.6317    0.0000 O   0  0  0  0  0  0  0  0  0  0  0  0
    0.3943   -1.2135    0.0000 N   0  0  0  0  0  0  0  0  0  0  0  0
  1  2  2  0
  2  3  1  0
  3  4  3  0
  4  5  1  0
  5  6  2  0
  6  7  1  0
  7  8  1  0
  7  9  1  0
  9 10  2  0
  9 11  1  0
 11  5  1  0
M  END
>  <Title>  (733) 
idABAGgen10

$$$$

     RDKit          2D

 63 63  0  0  0  0  0  0  0  0999 V2000
   16.3077   -0.0000    0.0000 C   0  0  0  0  0  0  0  0  0  0  0  0
   14.8077    0.0000    0.0000 C   0  0  0  0  0  0  0  0  0  0  0  0
   14.7318   -1.4981    0.0000 C   0  0  0  0  0  0  0  0  0  0  0  0
   14.5046   -2.9808    0.0000 C   0  0  0  0  0  0  0  0  0  0  0  0
   14.1287   -4.4329    0.0000 C   0  0  0  0  0  0  0  0  0  0  0  0
   13.6077   -5.8395    0.0000 C   0  0  0  0  0  0  0  0  0  0  0  0
   12.9471   -7.1862    0.0000 C   0  0  0  0  0  0  0  0  0  0  0  0
   12.1537   -8.4592    0.0000 C   0  0  0  0  0  0  0  0  0  0  0  0
   11.2355   -9.6454    0.0000 C   0  0  0  0  0  0  0  0  0  0  0  0
   10.2020  -10.7325    0.0000 C   0  0  0  0  0  0  0  0  0  0  0  0
    9.0639  -11.7096    0.0000 C   0  0  0  0  0  0  0  0  0  0  0  0
    7.8328  -12.5665    0.0000 C   0  0  0  0  0  0  0  0  0  0  0  0
    6.5212  -13.2945    0.0000 C   0  0  0  0  0  0  0  0  0  0  0  0
    5.1428  -13.8860    0.0000 C   0  0  0  0  0  0  0  0  0  0  0  0
    3.7116  -14.3350    0.0000 C   0  0  0  0  0  0  0  0  0  0  0  0
    2.2423  -14.6370    0.0000 C   0  0  0  0  0  0  0  0  0  0  0  0
    0.7500  -14.7887    0.0000 C   0  0  0  0  0  0  0  0  0  0  0  0
   -0.7500  -14.7887    0.0000 C   0  0  0  0  0  0  0  0  0  0  0  0
   -2.2423  -14.6370    0.0000 C   0  0  0  0  0  0  0  0  0  0  0  0
   -3.7116  -14.3350    0.0000 C   0  0  0  0  0  0  0  0  0  0  0  0
   -5.1428  -13.8860    0.0000 C   0  0  0  0  0  0  0  0  0  0  0  0
   -6.5212  -13.2945    0.0000 C   0  0  0  0  0  0  0  0  0  0  0  0
   -7.8328  -12.5665    0.0000 C   0  0  0  0  0  0  0  0  0  0  0  0
   -9.0639  -11.7096    0.0000 C   0  0  0  0  0  0  0  0  0  0  0  0
  -10.2020  -10.7325    0.0000 C   0  0  0  0  0  0  0  0  0  0  0  0
  -11.2355   -9.6454    0.0000 C   0  0  0  0  0  0  0  0  0  0  0  0
  -12.1537   -8.4592    0.0000 C   0  0  0  0  0  0  0  0  0  0  0  0
  -12.9471   -7.1862    0.0000 C   0  0  0  0  0  0  0  0  0  0  0  0
  -13.6077   -5.8395    0.0000 C   0  0  0  0  0  0  0  0  0  0  0  0
  -14.1287   -4.4329    0.0000 C   0  0  0  0  0  0  0  0  0  0  0  0
  -14.5046   -2.9808    0.0000 C   0  0  0  0  0  0  0  0  0  0  0  0
  -14.7318   -1.4981    0.0000 C   0  0  0  0  0  0  0  0  0  0  0  0
  -14.8077    0.0000    0.0000 C   0  0  0  0  0  0  0  0  0  0  0  0
  -14.7318    1.4981    0.0000 C   0  0  0  0  0  0  0  0  0  0  0  0
  -14.5046    2.9808    0.0000 C   0  0  0  0  0  0  0  0  0  0  0  0
  -14.1287    4.4329    0.0000 C   0  0  0  0  0  0  0  0  0  0  0  0
  -13.6077    5.8395    0.0000 C   0  0  0  0  0  0  0  0  0  0  0  0
  -12.9471    7.1862    0.0000 C   0  0  0  0  0  0  0  0  0  0  0  0
  -12.1537    8.4592    0.0000 C   0  0  0  0  0  0  0  0  0  0  0  0
  -11.2355    9.6454    0.0000 C   0  0  0  0  0  0  0  0  0  0  0  0
  -10.2020   10.7325    0.0000 C   0  0  0  0  0  0  0  0  0  0  0  0
   -9.0639   11.7096    0.0000 C   0  0  0  0  0  0  0  0  0  0  0  0
   -7.8328   12.5665    0.0000 C   0  0  0  0  0  0  0  0  0  0  0  0
   -6.5212   13.2945    0.0000 C   0  0  0  0  0  0  0  0  0  0  0  0
   -5.1428   13.8860    0.0000 C   0  0  0  0  0  0  0  0  0  0  0  0
   -3.7116   14.3350    0.0000 C   0  0  0  0  0  0  0  0  0  0  0  0
   -2.2423   14.6370    0.0000 C   0  0  0  0  0  0  0  0  0  0  0  0
   -0.7500   14.7887    0.0000 C   0  0  0  0  0  0  0  0  0  0  0  0
    0.7500   14.7887    0.0000 C   0  0  0  0  0  0  0  0  0  0  0  0
    2.2423   14.6370    0.0000 C   0  0  0  0  0  0  0  0  0  0  0  0
    3.7116   14.3350    0.0000 C   0  0  0  0  0  0  0  0  0  0  0  0
    5.1428   13.8860    0.0000 C   0  0  0  0  0  0  0  0  0  0  0  0
    6.5212   13.2945    0.0000 C   0  0  0  0  0  0  0  0  0  0  0  0
    7.8328   12.5665    0.0000 C   0  0  0  0  0  0  0  0  0  0  0  0
    9.0639   11.7096    0.0000 C   0  0  0  0  0  0  0  0  0  0  0  0
   10.2020   10.7325    0.0000 C   0  0  0  0  0  0  0  0  0  0  0  0
   11.2355    9.6454    0.0000 C   0  0  0  0  0  0  0  0  0  0  0  0
   12.1537    8.4592    0.0000 C   0  0  0  0  0  0  0  0  0  0  0  0
   12.9471    7.1862    0.0000 C   0  0  0  0  0  0  0  0  0  0  0  0
   13.6077    5.8395    0.0000 C   0  0  0  0  0  0  0  0  0  0  0  0
   14.1287    4.4329    0.0000 C   0  0  0  0  0  0  0  0  0  0  0  0
   14.5046    2.9808    0.0000 C   0  0  0  0  0  0  0  0  0  0  0  0
   14.7318    1.4981    0.0000 C   0  0  0  0  0  0  0  0  0  0  0  0
  1  2  1  0
  2  3  1  0
  3  4  1  0
  4  5  1  0
  5  6  1  0
  6  7  1  0
  7  8  1  0
  8  9  1  0
  9 10  1  0
 10 11  1  0
 11 12  1  0
 12 13  1  0
 13 14  1  0
 14 15  1  0
 15 16  1  0
 16 17  1  0
 17 18  1  0
 18 19  1  0
 19 20  1  0
 20 21  1  0
 21 22  1  0
 22 23  1  0
 23 24  1  0
 24 25  1  0
 25 26  1  0
 26 27  1  0
 27 28  1  0
 28 29  1  0
 29 30  1  0
 30 31  1  0
 31 32  1  0
 32 33  1  0
 33 34  1  0
 34 35  1  0
 35 36  1  0
 36 37  1  0
 37 38  1  0
 38 39  1  0
 39 40  1  0
 40 41  1  0
 41 42  1  0
 42 43  1  0
 43 44  1  0
 44 45  1  0
 45 46  1  0
 46 47  1  0
 47 48  1  0
 48 49  1  0
 49 50  1  0
 50 51  1  0
 51 52  1  0
 52 53  1  0
 53 54  1  0
 54 55  1  0
 55 56  1  0
 56 57  1  0
 57 58  1  0
 58 59  1  0
 59 60  1  0
 60 61  1  0
 61 62  1  0
 62 63  1  0
 63  2  1  0
M  END
>  <Title>  (734) 
idABAHgen10

$$$$

     RDKit          2D

  8  8  0  0  0  0  0  0  0  0999 V2000
    2.7760    0.0000    0.0000 C   0  0  0  0  0  0  0  0  0  0  0  0
    1.2760    0.0000    0.0000 C   0  0  0  0  0  0  0  0  0  0  0  0
    0.3943    1.2135    0.0000 N   0  0  0  0  0  0  0  0  0  0  0  0
   -1.0323    0.7500    0.0000 C   0  0  0  0  0  0  0  0  0  0  0  0
   -2.2458    1.6317    0.0000 C   0  0  0  0  0  0  0  0  0  0  0  0
   -1.0323   -0.7500    0.0000 C   0  0  0  0  0  0  0  0  0  0  0  0
   -2.2458   -1.6317    0.0000 C   0  0  0  0  0  0  0  0  0  0  0  0
    0.3943   -1.2135    0.0000 N   0  0  0  0  0  0  0  0  0  0  0  0
  1  2  1  0
  2  3  2  0
  3  4  1  0
  4  5  1  0
  4  6  1  0
  6  7  1  0
  6  8  1  0
  8  2  1  0
M  END
>  <Title>  (735) 
idABAIgen10

$$$$

     RDKit          2D

  8  8  0  0  0  0  0  0  0  0999 V2000
    2.7760    0.0000    0.0000 C   0  0  0  0  0  0  0  0  0  0  0  0
    1.2760    0.0000    0.0000 C   0  0  0  0  0  0  0  0  0  0  0  0
    0.3943    1.2135    0.0000 C   0  0  0  0  0  0  0  0  0  0  0  0
   -1.0323    0.7500    0.0000 C   0  0  0  0  0  0  0  0  0  0  0  0
   -1.0323   -0.7500    0.0000 C   0  0  0  0  0  0  0  0  0  0  0  0
   -2.2458   -1.6317    0.0000 C   0  0  0  0  0  0  0  0  0  0  0  0
   -3.4593   -2.5134    0.0000 N   0  0  0  0  0  0  0  0  0  0  0  0
    0.3943   -1.2135    0.0000 C   0  0  0  0  0  0  0  0  0  0  0  0
  1  2  1  0
  2  3  2  0
  3  4  1  0
  4  5  2  0
  5  6  1  0
  6  7  3  0
  5  8  1  0
  8  2  1  0
M  END
>  <Title>  (736) 
idABAJgen10

$$$$

     RDKit          2D

  8  8  0  0  0  0  0  0  0  0999 V2000
    2.7760    0.0000    0.0000 C   0  0  0  0  0  0  0  0  0  0  0  0
    1.2760    0.0000    0.0000 C   0  0  0  0  0  0  0  0  0  0  0  0
    0.3943    1.2135    0.0000 C   0  0  0  0  0  0  0  0  0  0  0  0
   -1.0323    0.7500    0.0000 C   0  0  0  0  0  0  0  0  0  0  0  0
   -1.0323   -0.7500    0.0000 C   0  0  0  0  0  0  0  0  0  0  0  0
   -2.2458   -1.6317    0.0000 C   0  0  0  0  0  0  0  0  0  0  0  0
   -3.4593   -2.5134    0.0000 N   0  0  0  0  0  0  0  0  0  0  0  0
    0.3943   -1.2135    0.0000 C   0  0  0  0  0  0  0  0  0  0  0  0
  1  2  1  0
  2  3  2  0
  3  4  1  0
  4  5  1  0
  5  6  1  0
  6  7  3  0
  5  8  2  0
  8  2  1  0
M  END
>  <Title>  (737) 
idABAKgen10

$$$$

     RDKit          2D

 10 10  0  0  0  0  0  0  0  0999 V2000
    7.2760   -0.0000    0.0000 C   0  0  0  0  0  0  0  0  0  0  0  0
    5.7760   -0.0000    0.0000 C   0  0  0  0  0  0  0  0  0  0  0  0
    4.2760   -0.0000    0.0000 C   0  0  0  0  0  0  0  0  0  0  0  0
    2.7760    0.0000    0.0000 C   0  0  0  0  0  0  0  0  0  0  0  0
    1.2760    0.0000    0.0000 C   0  0  0  0  0  0  0  0  0  0  0  0
    0.3943    1.2135    0.0000 C   0  0  0  0  0  0  0  0  0  0  0  0
    0.8578    2.6401    0.0000 C   0  0  0  0  0  0  0  0  0  0  0  0
   -1.0323    0.7500    0.0000 C   0  0  0  0  0  0  0  0  0  0  0  0
   -1.0323   -0.7500    0.0000 C   0  0  0  0  0  0  0  0  0  0  0  0
    0.3943   -1.2135    0.0000 C   0  0  0  0  0  0  0  0  0  0  0  0
  1  2  3  0
  2  3  1  0
  3  4  3  0
  4  5  1  0
  5  6  2  0
  6  7  1  0
  6  8  1  0
  8  9  1  0
  9 10  2  0
 10  5  1  0
M  END
>  <Title>  (738) 
idABALgen10

$$$$

     RDKit          2D

122122  0  0  0  0  0  0  0  0999 V2000
   30.3899    0.0000    0.0000 C   0  0  0  0  0  0  0  0  0  0  0  0
   28.8899    0.0000    0.0000 C   0  0  0  0  0  0  0  0  0  0  0  0
   28.8509    1.4995    0.0000 C   0  0  0  0  0  0  0  0  0  0  0  0
   28.7342    2.9949    0.0000 C   0  0  0  0  0  0  0  0  0  0  0  0
   28.5400    4.4823    0.0000 C   0  0  0  0  0  0  0  0  0  0  0  0
   28.2689    5.9576    0.0000 C   0  0  0  0  0  0  0  0  0  0  0  0
   27.9216    7.4169    0.0000 C   0  0  0  0  0  0  0  0  0  0  0  0
   27.4990    8.8561    0.0000 C   0  0  0  0  0  0  0  0  0  0  0  0
   27.0023   10.2715    0.0000 C   0  0  0  0  0  0  0  0  0  0  0  0
   26.4327   11.6591    0.0000 C   0  0  0  0  0  0  0  0  0  0  0  0
   25.7919   13.0154    0.0000 C   0  0  0  0  0  0  0  0  0  0  0  0
   25.0816   14.3365    0.0000 C   0  0  0  0  0  0  0  0  0  0  0  0
   24.3037   15.6190    0.0000 C   0  0  0  0  0  0  0  0  0  0  0  0
   23.4603   16.8594    0.0000 C   0  0  0  0  0  0  0  0  0  0  0  0
   22.5536   18.0544    0.0000 C   0  0  0  0  0  0  0  0  0  0  0  0
   21.5861   19.2007    0.0000 C   0  0  0  0  0  0  0  0  0  0  0  0
   20.5604   20.2952    0.0000 C   0  0  0  0  0  0  0  0  0  0  0  0
   19.4793   21.3350    0.0000 C   0  0  0  0  0  0  0  0  0  0  0  0
   18.3457   22.3173    0.0000 C   0  0  0  0  0  0  0  0  0  0  0  0
   17.1626   23.2394    0.0000 C   0  0  0  0  0  0  0  0  0  0  0  0
   15.9332   24.0989    0.0000 C   0  0  0  0  0  0  0  0  0  0  0  0
   14.6609   24.8934    0.0000 C   0  0  0  0  0  0  0  0  0  0  0  0
   13.3491   25.6208    0.0000 C   0  0  0  0  0  0  0  0  0  0  0  0
   12.0013   26.2791    0.0000 C   0  0  0  0  0  0  0  0  0  0  0  0
   10.6211   26.8666    0.0000 C   0  0  0  0  0  0  0  0  0  0  0  0
    9.2123   27.3817    0.0000 C   0  0  0  0  0  0  0  0  0  0  0  0
    7.7787   27.8229    0.0000 C   0  0  0  0  0  0  0  0  0  0  0  0
    6.3241   28.1892    0.0000 C   0  0  0  0  0  0  0  0  0  0  0  0
    4.8524   28.4794    0.0000 C   0  0  0  0  0  0  0  0  0  0  0  0
    3.3677   28.6929    0.0000 C   0  0  0  0  0  0  0  0  0  0  0  0
    1.8739   28.8290    0.0000 C   0  0  0  0  0  0  0  0  0  0  0  0
    0.3750   28.8874    0.0000 C   0  0  0  0  0  0  0  0  0  0  0  0
   -1.1248   28.8680    0.0000 C   0  0  0  0  0  0  0  0  0  0  0  0
   -2.6217   28.7707    0.0000 C   0  0  0  0  0  0  0  0  0  0  0  0
   -4.1115   28.5958    0.0000 C   0  0  0  0  0  0  0  0  0  0  0  0
   -5.5901   28.3439    0.0000 C   0  0  0  0  0  0  0  0  0  0  0  0
   -7.0538   28.0155    0.0000 C   0  0  0  0  0  0  0  0  0  0  0  0
   -8.4984   27.6116    0.0000 C   0  0  0  0  0  0  0  0  0  0  0  0
   -9.9201   27.1333    0.0000 C   0  0  0  0  0  0  0  0  0  0  0  0
  -11.3150   26.5819    0.0000 C   0  0  0  0  0  0  0  0  0  0  0  0
  -12.6795   25.9587    0.0000 C   0  0  0  0  0  0  0  0  0  0  0  0
  -14.0097   25.2656    0.0000 C   0  0  0  0  0  0  0  0  0  0  0  0
  -15.3022   24.5044    0.0000 C   0  0  0  0  0  0  0  0  0  0  0  0
  -16.5535   23.6771    0.0000 C   0  0  0  0  0  0  0  0  0  0  0  0
  -17.7601   22.7860    0.0000 C   0  0  0  0  0  0  0  0  0  0  0  0
  -18.9188   21.8335    0.0000 C   0  0  0  0  0  0  0  0  0  0  0  0
  -20.0266   20.8221    0.0000 C   0  0  0  0  0  0  0  0  0  0  0  0
  -21.0803   19.7546    0.0000 C   0  0  0  0  0  0  0  0  0  0  0  0
  -22.0773   18.6338    0.0000 C   0  0  0  0  0  0  0  0  0  0  0  0
  -23.0147   17.4628    0.0000 C   0  0  0  0  0  0  0  0  0  0  0  0
  -23.8900   16.2447    0.0000 C   0  0  0  0  0  0  0  0  0  0  0  0
  -24.7010   14.9828    0.0000 C   0  0  0  0  0  0  0  0  0  0  0  0
  -25.4454   13.6806    0.0000 C   0  0  0  0  0  0  0  0  0  0  0  0
  -26.1211   12.3414    0.0000 C   0  0  0  0  0  0  0  0  0  0  0  0
  -26.7265   10.9690    0.0000 C   0  0  0  0  0  0  0  0  0  0  0  0
  -27.2598    9.5670    0.0000 C   0  0  0  0  0  0  0  0  0  0  0  0
  -27.7196    8.1392    0.0000 C   0  0  0  0  0  0  0  0  0  0  0  0
  -28.1047    6.6895    0.0000 C   0  0  0  0  0  0  0  0  0  0  0  0
  -28.4140    5.2217    0.0000 C   0  0  0  0  0  0  0  0  0  0  0  0
  -28.6468    3.7399    0.0000 C   0  0  0  0  0  0  0  0  0  0  0  0
  -28.8023    2.2480    0.0000 C   0  0  0  0  0  0  0  0  0  0  0  0
  -28.8801    0.7500    0.0000 C   0  0  0  0  0  0  0  0  0  0  0  0
  -28.8801   -0.7500    0.0000 C   0  0  0  0  0  0  0  0  0  0  0  0
  -28.8023   -2.2480    0.0000 C   0  0  0  0  0  0  0  0  0  0  0  0
  -28.6468   -3.7399    0.0000 C   0  0  0  0  0  0  0  0  0  0  0  0
  -28.4140   -5.2217    0.0000 C   0  0  0  0  0  0  0  0  0  0  0  0
  -28.1047   -6.6895    0.0000 C   0  0  0  0  0  0  0  0  0  0  0  0
  -27.7196   -8.1392    0.0000 C   0  0  0  0  0  0  0  0  0  0  0  0
  -27.2598   -9.5670    0.0000 C   0  0  0  0  0  0  0  0  0  0  0  0
  -26.7265  -10.9690    0.0000 C   0  0  0  0  0  0  0  0  0  0  0  0
  -26.1211  -12.3414    0.0000 C   0  0  0  0  0  0  0  0  0  0  0  0
  -25.4454  -13.6806    0.0000 C   0  0  0  0  0  0  0  0  0  0  0  0
  -24.7010  -14.9828    0.0000 C   0  0  0  0  0  0  0  0  0  0  0  0
  -23.8900  -16.2447    0.0000 C   0  0  0  0  0  0  0  0  0  0  0  0
  -23.0147  -17.4628    0.0000 C   0  0  0  0  0  0  0  0  0  0  0  0
  -22.0773  -18.6338    0.0000 C   0  0  0  0  0  0  0  0  0  0  0  0
  -21.0803  -19.7546    0.0000 C   0  0  0  0  0  0  0  0  0  0  0  0
  -20.0266  -20.8221    0.0000 C   0  0  0  0  0  0  0  0  0  0  0  0
  -18.9188  -21.8335    0.0000 C   0  0  0  0  0  0  0  0  0  0  0  0
  -17.7601  -22.7860    0.0000 C   0  0  0  0  0  0  0  0  0  0  0  0
  -16.5535  -23.6771    0.0000 C   0  0  0  0  0  0  0  0  0  0  0  0
  -15.3022  -24.5044    0.0000 C   0  0  0  0  0  0  0  0  0  0  0  0
  -14.0097  -25.2656    0.0000 C   0  0  0  0  0  0  0  0  0  0  0  0
  -12.6795  -25.9587    0.0000 C   0  0  0  0  0  0  0  0  0  0  0  0
  -11.3150  -26.5819    0.0000 C   0  0  0  0  0  0  0  0  0  0  0  0
   -9.9201  -27.1333    0.0000 C   0  0  0  0  0  0  0  0  0  0  0  0
   -8.4984  -27.6116    0.0000 C   0  0  0  0  0  0  0  0  0  0  0  0
   -7.0538  -28.0155    0.0000 C   0  0  0  0  0  0  0  0  0  0  0  0
   -5.5901  -28.3439    0.0000 C   0  0  0  0  0  0  0  0  0  0  0  0
   -4.1115  -28.5958    0.0000 C   0  0  0  0  0  0  0  0  0  0  0  0
   -2.6217  -28.7707    0.0000 C   0  0  0  0  0  0  0  0  0  0  0  0
   -1.1248  -28.8680    0.0000 C   0  0  0  0  0  0  0  0  0  0  0  0
    0.3750  -28.8874    0.0000 C   0  0  0  0  0  0  0  0  0  0  0  0
    1.8739  -28.8290    0.0000 C   0  0  0  0  0  0  0  0  0  0  0  0
    3.3677  -28.6929    0.0000 C   0  0  0  0  0  0  0  0  0  0  0  0
    4.8524  -28.4794    0.0000 C   0  0  0  0  0  0  0  0  0  0  0  0
    6.3241  -28.1892    0.0000 C   0  0  0  0  0  0  0  0  0  0  0  0
    7.7787  -27.8229    0.0000 C   0  0  0  0  0  0  0  0  0  0  0  0
    9.2123  -27.3817    0.0000 C   0  0  0  0  0  0  0  0  0  0  0  0
   10.6211  -26.8666    0.0000 C   0  0  0  0  0  0  0  0  0  0  0  0
   12.0013  -26.2791    0.0000 C   0  0  0  0  0  0  0  0  0  0  0  0
   13.3491  -25.6208    0.0000 C   0  0  0  0  0  0  0  0  0  0  0  0
   14.6609  -24.8934    0.0000 C   0  0  0  0  0  0  0  0  0  0  0  0
   15.9332  -24.0989    0.0000 C   0  0  0  0  0  0  0  0  0  0  0  0
   17.1626  -23.2394    0.0000 C   0  0  0  0  0  0  0  0  0  0  0  0
   18.3457  -22.3173    0.0000 C   0  0  0  0  0  0  0  0  0  0  0  0
   19.4793  -21.3350    0.0000 C   0  0  0  0  0  0  0  0  0  0  0  0
   20.5604  -20.2952    0.0000 C   0  0  0  0  0  0  0  0  0  0  0  0
   21.5861  -19.2007    0.0000 C   0  0  0  0  0  0  0  0  0  0  0  0
   22.5536  -18.0544    0.0000 C   0  0  0  0  0  0  0  0  0  0  0  0
   23.4603  -16.8594    0.0000 C   0  0  0  0  0  0  0  0  0  0  0  0
   24.3037  -15.6190    0.0000 C   0  0  0  0  0  0  0  0  0  0  0  0
   25.0816  -14.3365    0.0000 C   0  0  0  0  0  0  0  0  0  0  0  0
   25.7919  -13.0154    0.0000 C   0  0  0  0  0  0  0  0  0  0  0  0
   26.4327  -11.6591    0.0000 C   0  0  0  0  0  0  0  0  0  0  0  0
   27.0023  -10.2715    0.0000 C   0  0  0  0  0  0  0  0  0  0  0  0
   27.4990   -8.8561    0.0000 C   0  0  0  0  0  0  0  0  0  0  0  0
   27.9216   -7.4169    0.0000 C   0  0  0  0  0  0  0  0  0  0  0  0
   28.2689   -5.9576    0.0000 C   0  0  0  0  0  0  0  0  0  0  0  0
   28.5400   -4.4823    0.0000 C   0  0  0  0  0  0  0  0  0  0  0  0
   28.7342   -2.9949    0.0000 C   0  0  0  0  0  0  0  0  0  0  0  0
   28.8509   -1.4995    0.0000 C   0  0  0  0  0  0  0  0  0  0  0  0
  1  2  1  0
  2  3  1  0
  3  4  1  0
  4  5  1  0
  5  6  1  0
  6  7  1  0
  7  8  1  0
  8  9  1  0
  9 10  1  0
 10 11  1  0
 11 12  1  0
 12 13  1  0
 13 14  1  0
 14 15  1  0
 15 16  1  0
 16 17  1  0
 17 18  1  0
 18 19  1  0
 19 20  1  0
 20 21  1  0
 21 22  1  0
 22 23  1  0
 23 24  1  0
 24 25  1  0
 25 26  1  0
 26 27  1  0
 27 28  1  0
 28 29  1  0
 29 30  1  0
 30 31  1  0
 31 32  1  0
 32 33  1  0
 33 34  1  0
 34 35  1  0
 35 36  1  0
 36 37  1  0
 37 38  1  0
 38 39  1  0
 39 40  1  0
 40 41  1  0
 41 42  1  0
 42 43  1  0
 43 44  1  0
 44 45  1  0
 45 46  1  0
 46 47  1  0
 47 48  1  0
 48 49  1  0
 49 50  1  0
 50 51  1  0
 51 52  1  0
 52 53  1  0
 53 54  1  0
 54 55  1  0
 55 56  1  0
 56 57  1  0
 57 58  1  0
 58 59  1  0
 59 60  1  0
 60 61  1  0
 61 62  1  0
 62 63  1  0
 63 64  1  0
 64 65  1  0
 65 66  1  0
 66 67  1  0
 67 68  1  0
 68 69  1  0
 69 70  1  0
 70 71  1  0
 71 72  1  0
 72 73  1  0
 73 74  1  0
 74 75  1  0
 75 76  1  0
 76 77  1  0
 77 78  1  0
 78 79  1  0
 79 80  1  0
 80 81  1  0
 81 82  1  0
 82 83  1  0
 83 84  1  0
 84 85  1  0
 85 86  1  0
 86 87  1  0
 87 88  1  0
 88 89  1  0
 89 90  1  0
 90 91  1  0
 91 92  1  0
 92 93  1  0
 93 94  1  0
 94 95  1  0
 95 96  1  0
 96 97  1  0
 97 98  1  0
 98 99  1  0
 99100  1  0
100101  1  0
101102  1  0
102103  1  0
103104  1  0
104105  1  0
105106  1  0
106107  1  0
107108  1  0
108109  1  0
109110  1  0
110111  1  0
111112  1  0
112113  1  0
113114  1  0
114115  1  0
115116  1  0
116117  1  0
117118  1  0
118119  1  0
119120  1  0
120121  1  0
121122  1  0
122  2  1  0
M  END
>  <Title>  (739) 
idABAMgen10

$$$$

     RDKit          2D

100101  0  0  0  0  0  0  0  0999 V2000
    5.5044   -6.6641    0.0000 C   0  0  0  0  0  0  0  0  0  0  0  0
    4.1357   -7.2780    0.0000 C   0  0  0  0  0  0  0  0  0  0  0  0
    3.4769   -5.9304    0.0000 C   0  0  0  0  0  0  0  0  0  0  0  0
    2.7305   -4.6293    0.0000 C   0  0  0  0  0  0  0  0  0  0  0  0
    1.8997   -3.3804    0.0000 C   0  0  0  0  0  0  0  0  0  0  0  0
    0.9882   -2.1891    0.0000 C   0  0  0  0  0  0  0  0  0  0  0  0
   -0.0000   -1.0607    0.0000 C   0  0  0  0  0  0  0  0  0  0  0  0
    1.0607    0.0000    0.0000 N   0  0  0  0  0  0  0  0  0  0  0  0
    0.0000    1.0607    0.0000 C   0  0  0  0  0  0  0  0  0  0  0  0
    0.0000    2.5607    0.0000 O   0  0  0  0  0  0  0  0  0  0  0  0
   -1.0607    0.0000    0.0000 C   0  0  0  0  0  0  0  0  0  0  0  0
   -2.1891    0.9882    0.0000 C   0  0  0  0  0  0  0  0  0  0  0  0
   -3.3804    1.8997    0.0000 C   0  0  0  0  0  0  0  0  0  0  0  0
   -4.6293    2.7305    0.0000 C   0  0  0  0  0  0  0  0  0  0  0  0
   -5.9304    3.4769    0.0000 C   0  0  0  0  0  0  0  0  0  0  0  0
   -7.2780    4.1357    0.0000 C   0  0  0  0  0  0  0  0  0  0  0  0
   -8.6662    4.7040    0.0000 C   0  0  0  0  0  0  0  0  0  0  0  0
  -10.0889    5.1793    0.0000 C   0  0  0  0  0  0  0  0  0  0  0  0
  -11.5399    5.5596    0.0000 C   0  0  0  0  0  0  0  0  0  0  0  0
  -13.0129    5.8431    0.0000 C   0  0  0  0  0  0  0  0  0  0  0  0
  -14.5013    6.0286    0.0000 C   0  0  0  0  0  0  0  0  0  0  0  0
  -15.9988    6.1154    0.0000 C   0  0  0  0  0  0  0  0  0  0  0  0
  -17.4988    6.1030    0.0000 C   0  0  0  0  0  0  0  0  0  0  0  0
  -18.9946    5.9915    0.0000 C   0  0  0  0  0  0  0  0  0  0  0  0
  -20.4798    5.7813    0.0000 C   0  0  0  0  0  0  0  0  0  0  0  0
  -21.9479    5.4735    0.0000 C   0  0  0  0  0  0  0  0  0  0  0  0
  -23.3924    5.0693    0.0000 C   0  0  0  0  0  0  0  0  0  0  0  0
  -24.8071    4.5706    0.0000 C   0  0  0  0  0  0  0  0  0  0  0  0
  -26.1857    3.9794    0.0000 C   0  0  0  0  0  0  0  0  0  0  0  0
  -27.5222    3.2984    0.0000 C   0  0  0  0  0  0  0  0  0  0  0  0
  -28.8108    2.5306    0.0000 C   0  0  0  0  0  0  0  0  0  0  0  0
  -30.0458    1.6793    0.0000 C   0  0  0  0  0  0  0  0  0  0  0  0
  -31.2218    0.7482    0.0000 C   0  0  0  0  0  0  0  0  0  0  0  0
  -32.3338   -0.2586    0.0000 C   0  0  0  0  0  0  0  0  0  0  0  0
  -33.3768   -1.3366    0.0000 C   0  0  0  0  0  0  0  0  0  0  0  0
  -34.3462   -2.4812    0.0000 C   0  0  0  0  0  0  0  0  0  0  0  0
  -35.2379   -3.6874    0.0000 C   0  0  0  0  0  0  0  0  0  0  0  0
  -36.0479   -4.9499    0.0000 C   0  0  0  0  0  0  0  0  0  0  0  0
  -36.7727   -6.2632    0.0000 C   0  0  0  0  0  0  0  0  0  0  0  0
  -37.4091   -7.6215    0.0000 C   0  0  0  0  0  0  0  0  0  0  0  0
  -37.9544   -9.0189    0.0000 C   0  0  0  0  0  0  0  0  0  0  0  0
  -38.4061  -10.4492    0.0000 C   0  0  0  0  0  0  0  0  0  0  0  0
  -38.7623  -11.9063    0.0000 C   0  0  0  0  0  0  0  0  0  0  0  0
  -39.0214  -13.3838    0.0000 C   0  0  0  0  0  0  0  0  0  0  0  0
  -39.1823  -14.8751    0.0000 C   0  0  0  0  0  0  0  0  0  0  0  0
  -39.2443  -16.3738    0.0000 C   0  0  0  0  0  0  0  0  0  0  0  0
  -39.2071  -17.8734    0.0000 C   0  0  0  0  0  0  0  0  0  0  0  0
  -39.0709  -19.3672    0.0000 C   0  0  0  0  0  0  0  0  0  0  0  0
  -38.8362  -20.8487    0.0000 C   0  0  0  0  0  0  0  0  0  0  0  0
  -38.5042  -22.3115    0.0000 C   0  0  0  0  0  0  0  0  0  0  0  0
  -38.0762  -23.7491    0.0000 C   0  0  0  0  0  0  0  0  0  0  0  0
  -37.5541  -25.1553    0.0000 C   0  0  0  0  0  0  0  0  0  0  0  0
  -36.9402  -26.5240    0.0000 C   0  0  0  0  0  0  0  0  0  0  0  0
  -36.2372  -27.8490    0.0000 C   0  0  0  0  0  0  0  0  0  0  0  0
  -35.4482  -29.1248    0.0000 C   0  0  0  0  0  0  0  0  0  0  0  0
  -34.5766  -30.3455    0.0000 C   0  0  0  0  0  0  0  0  0  0  0  0
  -33.6262  -31.5060    0.0000 C   0  0  0  0  0  0  0  0  0  0  0  0
  -32.6012  -32.6012    0.0000 C   0  0  0  0  0  0  0  0  0  0  0  0
  -31.5060  -33.6262    0.0000 C   0  0  0  0  0  0  0  0  0  0  0  0
  -30.3455  -34.5766    0.0000 C   0  0  0  0  0  0  0  0  0  0  0  0
  -29.1248  -35.4482    0.0000 C   0  0  0  0  0  0  0  0  0  0  0  0
  -27.8490  -36.2372    0.0000 C   0  0  0  0  0  0  0  0  0  0  0  0
  -26.5240  -36.9402    0.0000 C   0  0  0  0  0  0  0  0  0  0  0  0
  -25.1553  -37.5541    0.0000 C   0  0  0  0  0  0  0  0  0  0  0  0
  -23.7491  -38.0762    0.0000 C   0  0  0  0  0  0  0  0  0  0  0  0
  -22.3115  -38.5042    0.0000 C   0  0  0  0  0  0  0  0  0  0  0  0
  -20.8487  -38.8362    0.0000 C   0  0  0  0  0  0  0  0  0  0  0  0
  -19.3672  -39.0709    0.0000 C   0  0  0  0  0  0  0  0  0  0  0  0
  -17.8734  -39.2071    0.0000 C   0  0  0  0  0  0  0  0  0  0  0  0
  -16.3738  -39.2443    0.0000 C   0  0  0  0  0  0  0  0  0  0  0  0
  -14.8751  -39.1823    0.0000 C   0  0  0  0  0  0  0  0  0  0  0  0
  -13.3838  -39.0214    0.0000 C   0  0  0  0  0  0  0  0  0  0  0  0
  -11.9063  -38.7623    0.0000 C   0  0  0  0  0  0  0  0  0  0  0  0
  -10.4492  -38.4061    0.0000 C   0  0  0  0  0  0  0  0  0  0  0  0
   -9.0189  -37.9544    0.0000 C   0  0  0  0  0  0  0  0  0  0  0  0
   -7.6215  -37.4091    0.0000 C   0  0  0  0  0  0  0  0  0  0  0  0
   -6.2632  -36.7727    0.0000 C   0  0  0  0  0  0  0  0  0  0  0  0
   -4.9499  -36.0479    0.0000 C   0  0  0  0  0  0  0  0  0  0  0  0
   -3.6874  -35.2379    0.0000 C   0  0  0  0  0  0  0  0  0  0  0  0
   -2.4812  -34.3462    0.0000 C   0  0  0  0  0  0  0  0  0  0  0  0
   -1.3366  -33.3768    0.0000 C   0  0  0  0  0  0  0  0  0  0  0  0
   -0.2586  -32.3338    0.0000 C   0  0  0  0  0  0  0  0  0  0  0  0
    0.7482  -31.2218    0.0000 C   0  0  0  0  0  0  0  0  0  0  0  0
    1.6793  -30.0458    0.0000 C   0  0  0  0  0  0  0  0  0  0  0  0
    2.5306  -28.8108    0.0000 C   0  0  0  0  0  0  0  0  0  0  0  0
    3.2984  -27.5222    0.0000 C   0  0  0  0  0  0  0  0  0  0  0  0
    3.9794  -26.1857    0.0000 C   0  0  0  0  0  0  0  0  0  0  0  0
    4.5706  -24.8071    0.0000 C   0  0  0  0  0  0  0  0  0  0  0  0
    5.0693  -23.3924    0.0000 C   0  0  0  0  0  0  0  0  0  0  0  0
    5.4735  -21.9479    0.0000 C   0  0  0  0  0  0  0  0  0  0  0  0
    5.7813  -20.4798    0.0000 C   0  0  0  0  0  0  0  0  0  0  0  0
    5.9915  -18.9946    0.0000 C   0  0  0  0  0  0  0  0  0  0  0  0
    6.1030  -17.4988    0.0000 C   0  0  0  0  0  0  0  0  0  0  0  0
    6.1154  -15.9988    0.0000 C   0  0  0  0  0  0  0  0  0  0  0  0
    6.0286  -14.5013    0.0000 C   0  0  0  0  0  0  0  0  0  0  0  0
    5.8431  -13.0129    0.0000 C   0  0  0  0  0  0  0  0  0  0  0  0
    5.5596  -11.5399    0.0000 C   0  0  0  0  0  0  0  0  0  0  0  0
    5.1793  -10.0889    0.0000 C   0  0  0  0  0  0  0  0  0  0  0  0
    4.7040   -8.6662    0.0000 C   0  0  0  0  0  0  0  0  0  0  0  0
    6.1102   -8.1441    0.0000 C   0  0  0  0  0  0  0  0  0  0  0  0
  1  2  1  0
  2  3  2  0
  3  4  1  0
  4  5  2  0
  5  6  1  0
  6  7  2  0
  7  8  1  0
  8  9  1  0
  9 10  2  0
  9 11  1  0
 11 12  2  0
 12 13  1  0
 13 14  2  0
 14 15  1  0
 15 16  2  0
 16 17  1  0
 17 18  2  0
 18 19  1  0
 19 20  2  0
 20 21  1  0
 21 22  2  0
 22 23  1  0
 23 24  2  0
 24 25  1  0
 25 26  2  0
 26 27  1  0
 27 28  2  0
 28 29  1  0
 29 30  2  0
 30 31  1  0
 31 32  2  0
 32 33  1  0
 33 34  1  0
 34 35  1  0
 35 36  1  0
 36 37  1  0
 37 38  1  0
 38 39  1  0
 39 40  1  0
 40 41  1  0
 41 42  1  0
 42 43  1  0
 43 44  1  0
 44 45  1  0
 45 46  1  0
 46 47  1  0
 47 48  1  0
 48 49  1  0
 49 50  1  0
 50 51  1  0
 51 52  1  0
 52 53  1  0
 53 54  1  0
 54 55  1  0
 55 56  1  0
 56 57  1  0
 57 58  1  0
 58 59  1  0
 59 60  1  0
 60 61  1  0
 61 62  1  0
 62 63  1  0
 63 64  1  0
 64 65  1  0
 65 66  1  0
 66 67  1  0
 67 68  1  0
 68 69  1  0
 69 70  1  0
 70 71  1  0
 71 72  1  0
 72 73  1  0
 73 74  1  0
 74 75  1  0
 75 76  1  0
 76 77  1  0
 77 78  1  0
 78 79  1  0
 79 80  1  0
 80 81  1  0
 81 82  1  0
 82 83  1  0
 83 84  1  0
 84 85  1  0
 85 86  1  0
 86 87  1  0
 87 88  1  0
 88 89  1  0
 89 90  1  0
 90 91  1  0
 91 92  1  0
 92 93  1  0
 93 94  1  0
 94 95  1  0
 95 96  1  0
 96 97  1  0
 97 98  1  0
 98 99  1  0
 99100  1  0
 99  2  1  0
 11  7  1  0
M  END
>  <Title>  (740) 
idABANgen10

$$$$

     RDKit          2D

 21 23  0  0  0  0  0  0  0  0999 V2000
   -3.1476   -2.1380    0.0000 C   0  0  0  0  0  0  0  0  0  0  0  0
   -1.6852   -2.4718    0.0000 C   0  0  0  0  0  0  0  0  0  0  0  0
   -1.3515   -3.9342    0.0000 C   0  0  0  0  0  0  0  0  0  0  0  0
   -0.0000   -4.5850    0.0000 C   0  0  0  0  0  0  0  0  0  0  0  0
    1.3515   -3.9342    0.0000 C   0  0  0  0  0  0  0  0  0  0  0  0
    1.6852   -2.4718    0.0000 C   0  0  0  0  0  0  0  0  0  0  0  0
    3.1476   -2.1380    0.0000 C   0  0  0  0  0  0  0  0  0  0  0  0
    3.5898   -0.7046    0.0000 O   0  0  0  0  0  0  0  0  0  0  0  0
    4.1679   -3.2376    0.0000 N   0  0  0  0  0  0  0  0  0  0  0  0
    5.6303   -2.9038    0.0000 C   0  0  0  0  0  0  0  0  0  0  0  0
    6.6505   -4.0034    0.0000 N   0  0  0  0  0  0  0  0  0  0  0  0
    8.1129   -3.6696    0.0000 N   0  0  0  0  0  0  0  0  0  0  0  0
    8.5551   -2.2362    0.0000 N   0  0  0  0  0  0  0  0  0  0  0  0
    7.5348   -1.1367    0.0000 N   0  0  0  0  0  0  0  0  0  0  0  0
    6.0724   -1.4704    0.0000 N   0  0  0  0  0  0  0  0  0  0  0  0
    0.7500   -1.2990    0.0000 C   0  0  0  0  0  0  0  0  0  0  0  0
    1.5000    0.0000    0.0000 C   0  0  0  0  0  0  0  0  0  0  0  0
    0.7500    1.2990    0.0000 C   0  0  0  0  0  0  0  0  0  0  0  0
   -0.7500    1.2990    0.0000 C   0  0  0  0  0  0  0  0  0  0  0  0
   -1.5000    0.0000    0.0000 C   0  0  0  0  0  0  0  0  0  0  0  0
   -0.7500   -1.2990    0.0000 C   0  0  0  0  0  0  0  0  0  0  0  0
  1  2  1  0
  2  3  1  0
  3  4  2  0
  4  5  1  0
  5  6  1  0
  6  7  1  0
  7  8  2  0
  7  9  1  0
  9 10  1  0
 10 11  2  0
 11 12  1  0
 12 13  2  0
 13 14  1  0
 14 15  2  0
  6 16  1  0
 16 17  2  0
 17 18  1  0
 18 19  2  0
 19 20  1  0
 20 21  2  0
 21  2  1  0
 15 10  1  0
 21 16  1  0
M  END
>  <Title>  (741) 
idABAOgen10

$$$$

     RDKit          2D

 54 55  0  0  0  0  0  0  0  0999 V2000
   -2.3177   -1.0192    0.0000 C   0  0  0  0  0  0  0  0  0  0  0  0
   -2.5057    0.4689    0.0000 C   0  0  0  0  0  0  0  0  0  0  0  0
   -4.0028    0.3747    0.0000 C   0  0  0  0  0  0  0  0  0  0  0  0
   -5.4998    0.4689    0.0000 C   0  0  0  0  0  0  0  0  0  0  0  0
   -6.9732    0.7500    0.0000 C   0  0  0  0  0  0  0  0  0  0  0  0
   -8.3998    1.2135    0.0000 C   0  0  0  0  0  0  0  0  0  0  0  0
   -9.7571    1.8522    0.0000 C   0  0  0  0  0  0  0  0  0  0  0  0
  -11.0235    2.6559    0.0000 C   0  0  0  0  0  0  0  0  0  0  0  0
  -12.1793    3.6121    0.0000 C   0  0  0  0  0  0  0  0  0  0  0  0
  -13.2061    4.7055    0.0000 C   0  0  0  0  0  0  0  0  0  0  0  0
  -14.0878    5.9190    0.0000 C   0  0  0  0  0  0  0  0  0  0  0  0
  -14.8104    7.2335    0.0000 C   0  0  0  0  0  0  0  0  0  0  0  0
  -15.3626    8.6282    0.0000 C   0  0  0  0  0  0  0  0  0  0  0  0
  -15.7357   10.0810    0.0000 C   0  0  0  0  0  0  0  0  0  0  0  0
  -15.9237   11.5692    0.0000 C   0  0  0  0  0  0  0  0  0  0  0  0
  -15.9237   13.0692    0.0000 C   0  0  0  0  0  0  0  0  0  0  0  0
  -15.7357   14.5574    0.0000 C   0  0  0  0  0  0  0  0  0  0  0  0
  -15.3626   16.0103    0.0000 C   0  0  0  0  0  0  0  0  0  0  0  0
  -14.8104   17.4049    0.0000 C   0  0  0  0  0  0  0  0  0  0  0  0
  -14.0878   18.7194    0.0000 C   0  0  0  0  0  0  0  0  0  0  0  0
  -13.2061   19.9329    0.0000 C   0  0  0  0  0  0  0  0  0  0  0  0
  -12.1793   21.0264    0.0000 C   0  0  0  0  0  0  0  0  0  0  0  0
  -11.0235   21.9825    0.0000 C   0  0  0  0  0  0  0  0  0  0  0  0
   -9.7571   22.7862    0.0000 C   0  0  0  0  0  0  0  0  0  0  0  0
   -8.3998   23.4249    0.0000 C   0  0  0  0  0  0  0  0  0  0  0  0
   -6.9732   23.8884    0.0000 C   0  0  0  0  0  0  0  0  0  0  0  0
   -5.4998   24.1695    0.0000 C   0  0  0  0  0  0  0  0  0  0  0  0
   -4.0028   24.2637    0.0000 C   0  0  0  0  0  0  0  0  0  0  0  0
   -2.5057   24.1695    0.0000 C   0  0  0  0  0  0  0  0  0  0  0  0
   -1.0323   23.8884    0.0000 C   0  0  0  0  0  0  0  0  0  0  0  0
    0.3943   23.4249    0.0000 C   0  0  0  0  0  0  0  0  0  0  0  0
    1.7515   22.7862    0.0000 C   0  0  0  0  0  0  0  0  0  0  0  0
    3.0180   21.9825    0.0000 C   0  0  0  0  0  0  0  0  0  0  0  0
    4.1738   21.0264    0.0000 C   0  0  0  0  0  0  0  0  0  0  0  0
    5.2006   19.9329    0.0000 C   0  0  0  0  0  0  0  0  0  0  0  0
    6.0823   18.7194    0.0000 C   0  0  0  0  0  0  0  0  0  0  0  0
    6.8049   17.4049    0.0000 C   0  0  0  0  0  0  0  0  0  0  0  0
    7.3571   16.0103    0.0000 C   0  0  0  0  0  0  0  0  0  0  0  0
    7.7302   14.5574    0.0000 C   0  0  0  0  0  0  0  0  0  0  0  0
    7.9182   13.0692    0.0000 C   0  0  0  0  0  0  0  0  0  0  0  0
    7.9182   11.5692    0.0000 C   0  0  0  0  0  0  0  0  0  0  0  0
    7.7302   10.0810    0.0000 C   0  0  0  0  0  0  0  0  0  0  0  0
    7.3571    8.6282    0.0000 C   0  0  0  0  0  0  0  0  0  0  0  0
    6.8049    7.2335    0.0000 C   0  0  0  0  0  0  0  0  0  0  0  0
    6.0823    5.9190    0.0000 C   0  0  0  0  0  0  0  0  0  0  0  0
    5.2006    4.7055    0.0000 C   0  0  0  0  0  0  0  0  0  0  0  0
    4.1738    3.6121    0.0000 C   0  0  0  0  0  0  0  0  0  0  0  0
    3.0180    2.6559    0.0000 C   0  0  0  0  0  0  0  0  0  0  0  0
    1.7515    1.8522    0.0000 C   0  0  0  0  0  0  0  0  0  0  0  0
    0.3943    1.2135    0.0000 C   0  0  0  0  0  0  0  0  0  0  0  0
    1.2760    0.0000    0.0000 C   0  0  0  0  0  0  0  0  0  0  0  0
    0.3943   -1.2135    0.0000 C   0  0  0  0  0  0  0  0  0  0  0  0
   -1.0323   -0.7500    0.0000 C   0  0  0  0  0  0  0  0  0  0  0  0
   -1.0323    0.7500    0.0000 C   0  0  0  0  0  0  0  0  0  0  0  0
  1  2  1  0
  2  3  2  0
  3  4  1  0
  4  5  1  0
  5  6  1  0
  6  7  1  0
  7  8  2  0
  8  9  1  0
  9 10  2  0
 10 11  1  0
 11 12  2  0
 12 13  1  0
 13 14  2  0
 14 15  1  0
 15 16  2  0
 16 17  1  0
 17 18  2  0
 18 19  1  0
 19 20  2  0
 20 21  1  0
 21 22  2  0
 22 23  1  0
 23 24  2  0
 24 25  1  0
 25 26  2  0
 26 27  1  0
 27 28  2  0
 28 29  1  0
 29 30  2  0
 30 31  1  0
 31 32  2  0
 32 33  1  0
 33 34  2  0
 34 35  1  0
 35 36  2  0
 36 37  1  0
 37 38  2  0
 38 39  1  0
 39 40  2  0
 40 41  1  0
 41 42  2  0
 42 43  1  0
 43 44  2  0
 44 45  1  0
 45 46  2  0
 46 47  1  0
 47 48  2  0
 48 49  1  0
 49 50  2  0
 50 51  1  0
 51 52  2  0
 52 53  1  0
 53 54  2  0
 54  2  1  0
 54 50  1  0
M  END
>  <Title>  (742) 
idABAPgen10

$$$$

     RDKit          2D

  6  6  0  0  0  0  0  0  0  0999 V2000
    1.5000    0.0000    0.0000 C   0  0  0  0  0  0  0  0  0  0  0  0
    0.7500   -1.2990    0.0000 C   0  0  0  0  0  0  0  0  0  0  0  0
   -0.7500   -1.2990    0.0000 C   0  0  0  0  0  0  0  0  0  0  0  0
   -1.5000    0.0000    0.0000 C   0  0  0  0  0  0  0  0  0  0  0  0
   -0.7500    1.2990    0.0000 C   0  0  0  0  0  0  0  0  0  0  0  0
    0.7500    1.2990    0.0000 C   0  0  0  0  0  0  0  0  0  0  0  0
  1  2  2  0
  2  3  1  0
  3  4  1  0
  4  5  2  0
  5  6  1  0
  6  1  1  0
M  END
>  <Title>  (743) 
idABAQgen10

$$$$

     RDKit          2D

 10 10  0  0  0  0  0  0  0  0999 V2000
    4.2760   -0.0000    0.0000 C   0  0  0  0  0  0  0  0  0  0  0  0
    2.7760    0.0000    0.0000 C   0  0  0  0  0  0  0  0  0  0  0  0
    1.2760    0.0000    0.0000 C   0  0  0  0  0  0  0  0  0  0  0  0
    0.3943    1.2135    0.0000 C   0  0  0  0  0  0  0  0  0  0  0  0
   -1.0323    0.7500    0.0000 C   0  0  0  0  0  0  0  0  0  0  0  0
   -1.0323   -0.7500    0.0000 C   0  0  0  0  0  0  0  0  0  0  0  0
   -2.2458   -1.6317    0.0000 C   0  0  0  0  0  0  0  0  0  0  0  0
   -3.4593   -2.5134    0.0000 C   0  0  0  0  0  0  0  0  0  0  0  0
   -4.6729   -3.3950    0.0000 C   0  0  0  0  0  0  0  0  0  0  0  0
    0.3943   -1.2135    0.0000 C   0  0  0  0  0  0  0  0  0  0  0  0
  1  2  3  0
  2  3  1  0
  3  4  1  0
  4  5  2  0
  5  6  1  0
  6  7  1  0
  7  8  3  0
  8  9  1  0
  6 10  2  0
 10  3  1  0
M  END
>  <Title>  (744) 
idABARgen10

$$$$

     RDKit          2D

  7  7  0  0  0  0  0  0  0  0999 V2000
    1.7286    0.0000    0.0000 C   0  0  0  0  0  0  0  0  0  0  0  0
    1.0777    1.3515    0.0000 C   0  0  0  0  0  0  0  0  0  0  0  0
   -0.3846    1.6852    0.0000 C   0  0  0  0  0  0  0  0  0  0  0  0
   -1.5574    0.7500    0.0000 C   0  0  0  0  0  0  0  0  0  0  0  0
   -1.5574   -0.7500    0.0000 C   0  0  0  0  0  0  0  0  0  0  0  0
   -0.3846   -1.6852    0.0000 C   0  0  0  0  0  0  0  0  0  0  0  0
    1.0777   -1.3515    0.0000 C   0  0  0  0  0  0  0  0  0  0  0  0
  1  2  2  0
  2  3  1  0
  3  4  2  0
  4  5  1  0
  5  6  1  0
  6  7  2  0
  7  1  1  0
M  END
>  <Title>  (745) 
idABASgen10

$$$$

     RDKit          2D

 10 10  0  0  0  0  0  0  0  0999 V2000
    7.2760   -0.0000    0.0000 C   0  0  0  0  0  0  0  0  0  0  0  0
    5.7760   -0.0000    0.0000 C   0  0  0  0  0  0  0  0  0  0  0  0
    4.2760   -0.0000    0.0000 C   0  0  0  0  0  0  0  0  0  0  0  0
    2.7760    0.0000    0.0000 C   0  0  0  0  0  0  0  0  0  0  0  0
    1.2760    0.0000    0.0000 C   0  0  0  0  0  0  0  0  0  0  0  0
    0.3943    1.2135    0.0000 C   0  0  0  0  0  0  0  0  0  0  0  0
   -1.0323    0.7500    0.0000 C   0  0  0  0  0  0  0  0  0  0  0  0
   -2.2458    1.6317    0.0000 C   0  0  0  0  0  0  0  0  0  0  0  0
   -1.0323   -0.7500    0.0000 C   0  0  0  0  0  0  0  0  0  0  0  0
    0.3943   -1.2135    0.0000 C   0  0  0  0  0  0  0  0  0  0  0  0
  1  2  3  0
  2  3  1  0
  3  4  3  0
  4  5  1  0
  5  6  2  0
  6  7  1  0
  7  8  1  0
  7  9  1  0
  9 10  1  0
 10  5  1  0
M  END
>  <Title>  (746) 
idABATgen10

$$$$

     RDKit          2D

 76 78  0  0  0  0  0  0  0  0999 V2000
    4.0164   10.7733    0.0000 C   0  0  0  0  0  0  0  0  0  0  0  0
    5.4211   10.2473    0.0000 C   0  0  0  0  0  0  0  0  0  0  0  0
    6.0398   11.6138    0.0000 C   0  0  0  0  0  0  0  0  0  0  0  0
    6.8350   12.8857    0.0000 C   0  0  0  0  0  0  0  0  0  0  0  0
    7.7927   14.0402    0.0000 C   0  0  0  0  0  0  0  0  0  0  0  0
    8.8957   15.0567    0.0000 C   0  0  0  0  0  0  0  0  0  0  0  0
   10.1244   15.9172    0.0000 C   0  0  0  0  0  0  0  0  0  0  0  0
   11.4568   16.6062    0.0000 C   0  0  0  0  0  0  0  0  0  0  0  0
   12.8691   17.1114    0.0000 C   0  0  0  0  0  0  0  0  0  0  0  0
   14.3362   17.4240    0.0000 C   0  0  0  0  0  0  0  0  0  0  0  0
   15.8318   17.5382    0.0000 C   0  0  0  0  0  0  0  0  0  0  0  0
   17.3293   17.4520    0.0000 C   0  0  0  0  0  0  0  0  0  0  0  0
   18.8020   17.1670    0.0000 C   0  0  0  0  0  0  0  0  0  0  0  0
   20.2236   16.6882    0.0000 C   0  0  0  0  0  0  0  0  0  0  0  0
   21.5686   16.0243    0.0000 C   0  0  0  0  0  0  0  0  0  0  0  0
   22.8132   15.1869    0.0000 C   0  0  0  0  0  0  0  0  0  0  0  0
   23.9350   14.1912    0.0000 C   0  0  0  0  0  0  0  0  0  0  0  0
   24.9141   13.0549    0.0000 C   0  0  0  0  0  0  0  0  0  0  0  0
   25.7330   11.7981    0.0000 C   0  0  0  0  0  0  0  0  0  0  0  0
   26.3772   10.4435    0.0000 C   0  0  0  0  0  0  0  0  0  0  0  0
   26.8350    9.0150    0.0000 C   0  0  0  0  0  0  0  0  0  0  0  0
   27.0983    7.5383    0.0000 C   0  0  0  0  0  0  0  0  0  0  0  0
   27.1624    6.0397    0.0000 C   0  0  0  0  0  0  0  0  0  0  0  0
   27.0263    4.5459    0.0000 C   0  0  0  0  0  0  0  0  0  0  0  0
   26.6922    3.0836    0.0000 C   0  0  0  0  0  0  0  0  0  0  0  0
   26.1662    1.6788    0.0000 C   0  0  0  0  0  0  0  0  0  0  0  0
   25.4577    0.3567    0.0000 C   0  0  0  0  0  0  0  0  0  0  0  0
   24.5792   -0.8592    0.0000 C   0  0  0  0  0  0  0  0  0  0  0  0
   23.5466   -1.9471    0.0000 C   0  0  0  0  0  0  0  0  0  0  0  0
   22.3781   -2.8877    0.0000 C   0  0  0  0  0  0  0  0  0  0  0  0
   21.0948   -3.6642    0.0000 C   0  0  0  0  0  0  0  0  0  0  0  0
   19.7193   -4.2627    0.0000 C   0  0  0  0  0  0  0  0  0  0  0  0
   18.2764   -4.6725    0.0000 C   0  0  0  0  0  0  0  0  0  0  0  0
   16.7917   -4.8863    0.0000 C   0  0  0  0  0  0  0  0  0  0  0  0
   15.2918   -4.9004    0.0000 C   0  0  0  0  0  0  0  0  0  0  0  0
   13.8034   -4.7144    0.0000 C   0  0  0  0  0  0  0  0  0  0  0  0
   12.3530   -4.3316    0.0000 C   0  0  0  0  0  0  0  0  0  0  0  0
   10.9666   -3.7590    0.0000 C   0  0  0  0  0  0  0  0  0  0  0  0
    9.6689   -3.0067    0.0000 N   0  0  0  0  0  0  0  0  0  0  0  0
    8.4831   -2.0881    0.0000 C   0  0  0  0  0  0  0  0  0  0  0  0
    7.4302   -1.0197    0.0000 C   0  0  0  0  0  0  0  0  0  0  0  0
    6.5292    0.1796    0.0000 C   0  0  0  0  0  0  0  0  0  0  0  0
    5.7960    1.4882    0.0000 C   0  0  0  0  0  0  0  0  0  0  0  0
    5.2840    0.0000    0.0000 C   0  0  0  0  0  0  0  0  0  0  0  0
    5.1180   -1.3141    0.0000 C   0  0  0  0  0  0  0  0  0  0  0  0
    4.6304   -2.5456    0.0000 C   0  0  0  0  0  0  0  0  0  0  0  0
    3.8519   -3.6172    0.0000 C   0  0  0  0  0  0  0  0  0  0  0  0
    2.8313   -4.4615    0.0000 C   0  0  0  0  0  0  0  0  0  0  0  0
    1.6329   -5.0254    0.0000 C   0  0  0  0  0  0  0  0  0  0  0  0
    0.3318   -5.2736    0.0000 C   0  0  0  0  0  0  0  0  0  0  0  0
   -0.9901   -5.1905    0.0000 C   0  0  0  0  0  0  0  0  0  0  0  0
   -2.2498   -4.7811    0.0000 C   0  0  0  0  0  0  0  0  0  0  0  0
   -3.3682   -4.0714    0.0000 C   0  0  0  0  0  0  0  0  0  0  0  0
   -4.2749   -3.1059    0.0000 C   0  0  0  0  0  0  0  0  0  0  0  0
   -4.9130   -1.9452    0.0000 C   0  0  0  0  0  0  0  0  0  0  0  0
   -5.2424   -0.6623    0.0000 C   0  0  0  0  0  0  0  0  0  0  0  0
   -5.2424    0.6623    0.0000 C   0  0  0  0  0  0  0  0  0  0  0  0
   -4.9130    1.9452    0.0000 C   0  0  0  0  0  0  0  0  0  0  0  0
   -4.2749    3.1059    0.0000 C   0  0  0  0  0  0  0  0  0  0  0  0
   -3.3682    4.0714    0.0000 C   0  0  0  0  0  0  0  0  0  0  0  0
   -2.2498    4.7811    0.0000 C   0  0  0  0  0  0  0  0  0  0  0  0
   -0.9901    5.1905    0.0000 C   0  0  0  0  0  0  0  0  0  0  0  0
    0.3318    5.2736    0.0000 C   0  0  0  0  0  0  0  0  0  0  0  0
    1.6329    5.0254    0.0000 C   0  0  0  0  0  0  0  0  0  0  0  0
    2.8313    4.4615    0.0000 C   0  0  0  0  0  0  0  0  0  0  0  0
    3.8519    3.6172    0.0000 C   0  0  0  0  0  0  0  0  0  0  0  0
    5.2439    2.8828    0.0000 C   0  0  0  0  0  0  0  0  0  0  0  0
    4.8825    4.3387    0.0000 C   0  0  0  0  0  0  0  0  0  0  0  0
    6.2558    3.7353    0.0000 C   0  0  0  0  0  0  0  0  0  0  0  0
    7.4650    4.6229    0.0000 C   0  0  0  0  0  0  0  0  0  0  0  0
    7.3009    6.1139    0.0000 C   0  0  0  0  0  0  0  0  0  0  0  0
    5.9276    6.7173    0.0000 C   0  0  0  0  0  0  0  0  0  0  0  0
    4.7184    5.8297    0.0000 C   0  0  0  0  0  0  0  0  0  0  0  0
    4.7545    7.3292    0.0000 C   0  0  0  0  0  0  0  0  0  0  0  0
    3.2607    7.4654    0.0000 C   0  0  0  0  0  0  0  0  0  0  0  0
    4.9901    8.8106    0.0000 C   0  0  0  0  0  0  0  0  0  0  0  0
  1  2  1  0
  2  3  2  0
  3  4  1  0
  4  5  2  0
  5  6  1  0
  6  7  2  0
  7  8  1  0
  8  9  2  0
  9 10  1  0
 10 11  2  0
 11 12  1  0
 12 13  2  0
 13 14  1  0
 14 15  2  0
 15 16  1  0
 16 17  2  0
 17 18  1  0
 18 19  2  0
 19 20  1  0
 20 21  2  0
 21 22  1  0
 22 23  2  0
 23 24  1  0
 24 25  2  0
 25 26  1  0
 26 27  2  0
 27 28  1  0
 28 29  2  0
 29 30  1  0
 30 31  2  0
 31 32  1  0
 32 33  2  0
 33 34  1  0
 34 35  2  0
 35 36  1  0
 36 37  2  0
 37 38  1  0
 38 39  2  0
 39 40  1  0
 40 41  2  0
 41 42  1  0
 42 43  2  0
 43 44  1  0
 44 45  2  0
 45 46  1  0
 46 47  2  0
 47 48  1  0
 48 49  2  0
 49 50  1  0
 50 51  2  0
 51 52  1  0
 52 53  2  0
 53 54  1  0
 54 55  2  0
 55 56  1  0
 56 57  2  0
 57 58  1  0
 58 59  2  0
 59 60  1  0
 60 61  2  0
 61 62  1  0
 62 63  2  0
 63 64  1  0
 64 65  2  0
 65 66  1  0
 66 67  2  0
 67 68  1  0
 68 69  2  0
 69 70  1  0
 70 71  2  0
 71 72  1  0
 72 73  2  0
 73 74  1  0
 74 75  1  0
 74 76  2  0
 76  2  1  0
 67 43  1  0
 73 68  1  0
M  END
>  <Title>  (747) 
idABAUgen10

$$$$

     RDKit          2D

 10 10  0  0  0  0  0  0  0  0999 V2000
    2.7760    3.0000    0.0000 C   0  0  0  0  0  0  0  0  0  0  0  0
    2.7760    1.5000    0.0000 C   0  0  0  0  0  0  0  0  0  0  0  0
    2.7760    0.0000    0.0000 C   0  0  0  0  0  0  0  0  0  0  0  0
    4.2760    0.0000    0.0000 C   0  0  0  0  0  0  0  0  0  0  0  0
    2.7760   -1.5000    0.0000 O   0  0  0  0  0  0  0  0  0  0  0  0
    1.2760    0.0000    0.0000 C   0  0  0  0  0  0  0  0  0  0  0  0
    0.3943    1.2135    0.0000 C   0  0  0  0  0  0  0  0  0  0  0  0
   -1.0323    0.7500    0.0000 C   0  0  0  0  0  0  0  0  0  0  0  0
   -1.0323   -0.7500    0.0000 C   0  0  0  0  0  0  0  0  0  0  0  0
    0.3943   -1.2135    0.0000 C   0  0  0  0  0  0  0  0  0  0  0  0
  1  2  3  0
  2  3  1  0
  3  4  1  0
  3  5  1  0
  3  6  1  0
  6  7  2  0
  7  8  1  0
  8  9  2  0
  9 10  1  0
 10  6  1  0
M  END
>  <Title>  (748) 
idABAVgen10

$$$$

     RDKit          2D

 11 11  0  0  0  0  0  0  0  0999 V2000
    4.5000   -2.5981    0.0000 C   0  0  0  0  0  0  0  0  0  0  0  0
    3.7500   -1.2990    0.0000 C   0  0  0  0  0  0  0  0  0  0  0  0
    3.0000    0.0000    0.0000 C   0  0  0  0  0  0  0  0  0  0  0  0
    3.7500    1.2990    0.0000 O   0  0  0  0  0  0  0  0  0  0  0  0
    1.5000    0.0000    0.0000 N   0  0  0  0  0  0  0  0  0  0  0  0
    0.7500   -1.2990    0.0000 C   0  0  0  0  0  0  0  0  0  0  0  0
   -0.7500   -1.2990    0.0000 C   0  0  0  0  0  0  0  0  0  0  0  0
   -1.5000    0.0000    0.0000 C   0  0  0  0  0  0  0  0  0  0  0  0
   -0.7500    1.2990    0.0000 C   0  0  0  0  0  0  0  0  0  0  0  0
    0.7500    1.2990    0.0000 C   0  0  0  0  0  0  0  0  0  0  0  0
    1.5000    2.5981    0.0000 C   0  0  0  0  0  0  0  0  0  0  0  0
  1  2  3  0
  2  3  1  0
  3  4  2  0
  3  5  1  0
  5  6  1  0
  6  7  1  0
  7  8  2  0
  8  9  1  0
  9 10  2  0
 10 11  1  0
 10  5  1  0
M  END
>  <Title>  (749) 
idABAWgen10

$$$$

     RDKit          2D

 62 62  0  0  0  0  0  0  0  0999 V2000
   14.8077    0.0000    0.0000 C   0  0  0  0  0  0  0  0  0  0  0  0
   14.7318   -1.4981    0.0000 C   0  0  0  0  0  0  0  0  0  0  0  0
   14.5046   -2.9808    0.0000 C   0  0  0  0  0  0  0  0  0  0  0  0
   14.1287   -4.4329    0.0000 C   0  0  0  0  0  0  0  0  0  0  0  0
   13.6077   -5.8395    0.0000 C   0  0  0  0  0  0  0  0  0  0  0  0
   12.9471   -7.1862    0.0000 C   0  0  0  0  0  0  0  0  0  0  0  0
   12.1537   -8.4592    0.0000 C   0  0  0  0  0  0  0  0  0  0  0  0
   11.2355   -9.6454    0.0000 C   0  0  0  0  0  0  0  0  0  0  0  0
   10.2020  -10.7325    0.0000 C   0  0  0  0  0  0  0  0  0  0  0  0
    9.0639  -11.7096    0.0000 C   0  0  0  0  0  0  0  0  0  0  0  0
    7.8328  -12.5665    0.0000 C   0  0  0  0  0  0  0  0  0  0  0  0
    6.5212  -13.2945    0.0000 C   0  0  0  0  0  0  0  0  0  0  0  0
    5.1428  -13.8860    0.0000 C   0  0  0  0  0  0  0  0  0  0  0  0
    3.7116  -14.3350    0.0000 C   0  0  0  0  0  0  0  0  0  0  0  0
    2.2423  -14.6370    0.0000 C   0  0  0  0  0  0  0  0  0  0  0  0
    0.7500  -14.7887    0.0000 C   0  0  0  0  0  0  0  0  0  0  0  0
   -0.7500  -14.7887    0.0000 C   0  0  0  0  0  0  0  0  0  0  0  0
   -2.2423  -14.6370    0.0000 C   0  0  0  0  0  0  0  0  0  0  0  0
   -3.7116  -14.3350    0.0000 C   0  0  0  0  0  0  0  0  0  0  0  0
   -5.1428  -13.8860    0.0000 C   0  0  0  0  0  0  0  0  0  0  0  0
   -6.5212  -13.2945    0.0000 C   0  0  0  0  0  0  0  0  0  0  0  0
   -7.8328  -12.5665    0.0000 C   0  0  0  0  0  0  0  0  0  0  0  0
   -9.0639  -11.7096    0.0000 C   0  0  0  0  0  0  0  0  0  0  0  0
  -10.2020  -10.7325    0.0000 C   0  0  0  0  0  0  0  0  0  0  0  0
  -11.2355   -9.6454    0.0000 C   0  0  0  0  0  0  0  0  0  0  0  0
  -12.1537   -8.4592    0.0000 C   0  0  0  0  0  0  0  0  0  0  0  0
  -12.9471   -7.1862    0.0000 C   0  0  0  0  0  0  0  0  0  0  0  0
  -13.6077   -5.8395    0.0000 C   0  0  0  0  0  0  0  0  0  0  0  0
  -14.1287   -4.4329    0.0000 C   0  0  0  0  0  0  0  0  0  0  0  0
  -14.5046   -2.9808    0.0000 C   0  0  0  0  0  0  0  0  0  0  0  0
  -14.7318   -1.4981    0.0000 C   0  0  0  0  0  0  0  0  0  0  0  0
  -14.8077    0.0000    0.0000 C   0  0  0  0  0  0  0  0  0  0  0  0
  -14.7318    1.4981    0.0000 C   0  0  0  0  0  0  0  0  0  0  0  0
  -14.5046    2.9808    0.0000 C   0  0  0  0  0  0  0  0  0  0  0  0
  -14.1287    4.4329    0.0000 C   0  0  0  0  0  0  0  0  0  0  0  0
  -13.6077    5.8395    0.0000 C   0  0  0  0  0  0  0  0  0  0  0  0
  -12.9471    7.1862    0.0000 C   0  0  0  0  0  0  0  0  0  0  0  0
  -12.1537    8.4592    0.0000 C   0  0  0  0  0  0  0  0  0  0  0  0
  -11.2355    9.6454    0.0000 C   0  0  0  0  0  0  0  0  0  0  0  0
  -10.2020   10.7325    0.0000 C   0  0  0  0  0  0  0  0  0  0  0  0
   -9.0639   11.7096    0.0000 C   0  0  0  0  0  0  0  0  0  0  0  0
   -7.8328   12.5665    0.0000 C   0  0  0  0  0  0  0  0  0  0  0  0
   -6.5212   13.2945    0.0000 C   0  0  0  0  0  0  0  0  0  0  0  0
   -5.1428   13.8860    0.0000 C   0  0  0  0  0  0  0  0  0  0  0  0
   -3.7116   14.3350    0.0000 C   0  0  0  0  0  0  0  0  0  0  0  0
   -2.2423   14.6370    0.0000 C   0  0  0  0  0  0  0  0  0  0  0  0
   -0.7500   14.7887    0.0000 C   0  0  0  0  0  0  0  0  0  0  0  0
    0.7500   14.7887    0.0000 C   0  0  0  0  0  0  0  0  0  0  0  0
    2.2423   14.6370    0.0000 C   0  0  0  0  0  0  0  0  0  0  0  0
    3.7116   14.3350    0.0000 C   0  0  0  0  0  0  0  0  0  0  0  0
    5.1428   13.8860    0.0000 C   0  0  0  0  0  0  0  0  0  0  0  0
    6.5212   13.2945    0.0000 C   0  0  0  0  0  0  0  0  0  0  0  0
    7.8328   12.5665    0.0000 C   0  0  0  0  0  0  0  0  0  0  0  0
    9.0639   11.7096    0.0000 C   0  0  0  0  0  0  0  0  0  0  0  0
   10.2020   10.7325    0.0000 C   0  0  0  0  0  0  0  0  0  0  0  0
   11.2355    9.6454    0.0000 C   0  0  0  0  0  0  0  0  0  0  0  0
   12.1537    8.4592    0.0000 C   0  0  0  0  0  0  0  0  0  0  0  0
   12.9471    7.1862    0.0000 C   0  0  0  0  0  0  0  0  0  0  0  0
   13.6077    5.8395    0.0000 C   0  0  0  0  0  0  0  0  0  0  0  0
   14.1287    4.4329    0.0000 C   0  0  0  0  0  0  0  0  0  0  0  0
   14.5046    2.9808    0.0000 C   0  0  0  0  0  0  0  0  0  0  0  0
   14.7318    1.4981    0.0000 C   0  0  0  0  0  0  0  0  0  0  0  0
  1  2  2  0
  2  3  1  0
  3  4  2  0
  4  5  1  0
  5  6  1  0
  6  7  1  0
  7  8  1  0
  8  9  1  0
  9 10  1  0
 10 11  1  0
 11 12  1  0
 12 13  1  0
 13 14  1  0
 14 15  1  0
 15 16  1  0
 16 17  1  0
 17 18  1  0
 18 19  1  0
 19 20  1  0
 20 21  1  0
 21 22  1  0
 22 23  1  0
 23 24  1  0
 24 25  1  0
 25 26  1  0
 26 27  1  0
 27 28  1  0
 28 29  1  0
 29 30  1  0
 30 31  1  0
 31 32  1  0
 32 33  1  0
 33 34  1  0
 34 35  1  0
 35 36  1  0
 36 37  1  0
 37 38  1  0
 38 39  1  0
 39 40  1  0
 40 41  1  0
 41 42  1  0
 42 43  1  0
 43 44  1  0
 44 45  1  0
 45 46  1  0
 46 47  1  0
 47 48  1  0
 48 49  1  0
 49 50  1  0
 50 51  1  0
 51 52  1  0
 52 53  1  0
 53 54  1  0
 54 55  1  0
 55 56  1  0
 56 57  1  0
 57 58  1  0
 58 59  1  0
 59 60  2  0
 60 61  1  0
 61 62  2  0
 62  1  1  0
M  END
>  <Title>  (750) 
idABAXgen10

$$$$

     RDKit          2D

 90 90  0  0  0  0  0  0  0  0999 V2000
   22.7516    0.0000    0.0000 C   0  0  0  0  0  0  0  0  0  0  0  0
   21.2516    0.0000    0.0000 C   0  0  0  0  0  0  0  0  0  0  0  0
   21.1987    1.4991    0.0000 C   0  0  0  0  0  0  0  0  0  0  0  0
   21.0401    2.9907    0.0000 C   0  0  0  0  0  0  0  0  0  0  0  0
   20.7767    4.4674    0.0000 C   0  0  0  0  0  0  0  0  0  0  0  0
   20.4099    5.9218    0.0000 C   0  0  0  0  0  0  0  0  0  0  0  0
   19.9413    7.3467    0.0000 C   0  0  0  0  0  0  0  0  0  0  0  0
   19.3734    8.7351    0.0000 C   0  0  0  0  0  0  0  0  0  0  0  0
   18.7090   10.0799    0.0000 C   0  0  0  0  0  0  0  0  0  0  0  0
   17.9514   11.3745    0.0000 C   0  0  0  0  0  0  0  0  0  0  0  0
   17.1043   12.6124    0.0000 C   0  0  0  0  0  0  0  0  0  0  0  0
   16.1720   13.7875    0.0000 C   0  0  0  0  0  0  0  0  0  0  0  0
   15.1592   14.8940    0.0000 C   0  0  0  0  0  0  0  0  0  0  0  0
   14.0708   15.9262    0.0000 C   0  0  0  0  0  0  0  0  0  0  0  0
   12.9123   16.8790    0.0000 C   0  0  0  0  0  0  0  0  0  0  0  0
   11.6895   17.7478    0.0000 C   0  0  0  0  0  0  0  0  0  0  0  0
   10.4085   18.5282    0.0000 C   0  0  0  0  0  0  0  0  0  0  0  0
    9.0756   19.2162    0.0000 C   0  0  0  0  0  0  0  0  0  0  0  0
    7.6975   19.8085    0.0000 C   0  0  0  0  0  0  0  0  0  0  0  0
    6.2811   20.3022    0.0000 C   0  0  0  0  0  0  0  0  0  0  0  0
    4.8333   20.6947    0.0000 C   0  0  0  0  0  0  0  0  0  0  0  0
    3.3615   20.9841    0.0000 C   0  0  0  0  0  0  0  0  0  0  0  0
    1.8730   21.1689    0.0000 C   0  0  0  0  0  0  0  0  0  0  0  0
    0.3751   21.2483    0.0000 C   0  0  0  0  0  0  0  0  0  0  0  0
   -1.1247   21.2218    0.0000 C   0  0  0  0  0  0  0  0  0  0  0  0
   -2.6189   21.0896    0.0000 C   0  0  0  0  0  0  0  0  0  0  0  0
   -4.1000   20.8524    0.0000 C   0  0  0  0  0  0  0  0  0  0  0  0
   -5.5607   20.5112    0.0000 C   0  0  0  0  0  0  0  0  0  0  0  0
   -6.9937   20.0679    0.0000 C   0  0  0  0  0  0  0  0  0  0  0  0
   -8.3918   19.5245    0.0000 C   0  0  0  0  0  0  0  0  0  0  0  0
   -9.7481   18.8840    0.0000 C   0  0  0  0  0  0  0  0  0  0  0  0
  -11.0559   18.1493    0.0000 C   0  0  0  0  0  0  0  0  0  0  0  0
  -12.3086   17.3242    0.0000 C   0  0  0  0  0  0  0  0  0  0  0  0
  -13.5000   16.4128    0.0000 C   0  0  0  0  0  0  0  0  0  0  0  0
  -14.6241   15.4197    0.0000 C   0  0  0  0  0  0  0  0  0  0  0  0
  -15.6754   14.3497    0.0000 C   0  0  0  0  0  0  0  0  0  0  0  0
  -16.6485   13.2082    0.0000 C   0  0  0  0  0  0  0  0  0  0  0  0
  -17.5387   12.0009    0.0000 C   0  0  0  0  0  0  0  0  0  0  0  0
  -18.3416   10.7339    0.0000 C   0  0  0  0  0  0  0  0  0  0  0  0
  -19.0531    9.4134    0.0000 C   0  0  0  0  0  0  0  0  0  0  0  0
  -19.6696    8.0459    0.0000 C   0  0  0  0  0  0  0  0  0  0  0  0
  -20.1882    6.6384    0.0000 C   0  0  0  0  0  0  0  0  0  0  0  0
  -20.6061    5.1978    0.0000 C   0  0  0  0  0  0  0  0  0  0  0  0
  -20.9215    3.7313    0.0000 C   0  0  0  0  0  0  0  0  0  0  0  0
  -21.1326    2.2463    0.0000 C   0  0  0  0  0  0  0  0  0  0  0  0
  -21.2384    0.7500    0.0000 C   0  0  0  0  0  0  0  0  0  0  0  0
  -21.2384   -0.7500    0.0000 C   0  0  0  0  0  0  0  0  0  0  0  0
  -21.1326   -2.2463    0.0000 C   0  0  0  0  0  0  0  0  0  0  0  0
  -20.9215   -3.7313    0.0000 C   0  0  0  0  0  0  0  0  0  0  0  0
  -20.6061   -5.1978    0.0000 C   0  0  0  0  0  0  0  0  0  0  0  0
  -20.1882   -6.6384    0.0000 C   0  0  0  0  0  0  0  0  0  0  0  0
  -19.6696   -8.0459    0.0000 C   0  0  0  0  0  0  0  0  0  0  0  0
  -19.0531   -9.4134    0.0000 C   0  0  0  0  0  0  0  0  0  0  0  0
  -18.3416  -10.7339    0.0000 C   0  0  0  0  0  0  0  0  0  0  0  0
  -17.5387  -12.0009    0.0000 C   0  0  0  0  0  0  0  0  0  0  0  0
  -16.6485  -13.2082    0.0000 C   0  0  0  0  0  0  0  0  0  0  0  0
  -15.6754  -14.3497    0.0000 C   0  0  0  0  0  0  0  0  0  0  0  0
  -14.6241  -15.4197    0.0000 C   0  0  0  0  0  0  0  0  0  0  0  0
  -13.5000  -16.4128    0.0000 C   0  0  0  0  0  0  0  0  0  0  0  0
  -12.3086  -17.3242    0.0000 C   0  0  0  0  0  0  0  0  0  0  0  0
  -11.0559  -18.1493    0.0000 C   0  0  0  0  0  0  0  0  0  0  0  0
   -9.7481  -18.8840    0.0000 C   0  0  0  0  0  0  0  0  0  0  0  0
   -8.3918  -19.5245    0.0000 C   0  0  0  0  0  0  0  0  0  0  0  0
   -6.9937  -20.0679    0.0000 C   0  0  0  0  0  0  0  0  0  0  0  0
   -5.5607  -20.5112    0.0000 C   0  0  0  0  0  0  0  0  0  0  0  0
   -4.1000  -20.8524    0.0000 C   0  0  0  0  0  0  0  0  0  0  0  0
   -2.6189  -21.0896    0.0000 C   0  0  0  0  0  0  0  0  0  0  0  0
   -1.1247  -21.2218    0.0000 C   0  0  0  0  0  0  0  0  0  0  0  0
    0.3751  -21.2483    0.0000 C   0  0  0  0  0  0  0  0  0  0  0  0
    1.8730  -21.1689    0.0000 C   0  0  0  0  0  0  0  0  0  0  0  0
    3.3615  -20.9841    0.0000 C   0  0  0  0  0  0  0  0  0  0  0  0
    4.8333  -20.6947    0.0000 C   0  0  0  0  0  0  0  0  0  0  0  0
    6.2811  -20.3022    0.0000 C   0  0  0  0  0  0  0  0  0  0  0  0
    7.6975  -19.8085    0.0000 C   0  0  0  0  0  0  0  0  0  0  0  0
    9.0756  -19.2162    0.0000 C   0  0  0  0  0  0  0  0  0  0  0  0
   10.4085  -18.5282    0.0000 C   0  0  0  0  0  0  0  0  0  0  0  0
   11.6895  -17.7478    0.0000 C   0  0  0  0  0  0  0  0  0  0  0  0
   12.9123  -16.8790    0.0000 C   0  0  0  0  0  0  0  0  0  0  0  0
   14.0708  -15.9262    0.0000 C   0  0  0  0  0  0  0  0  0  0  0  0
   15.1592  -14.8940    0.0000 C   0  0  0  0  0  0  0  0  0  0  0  0
   16.1720  -13.7875    0.0000 C   0  0  0  0  0  0  0  0  0  0  0  0
   17.1043  -12.6124    0.0000 C   0  0  0  0  0  0  0  0  0  0  0  0
   17.9514  -11.3745    0.0000 C   0  0  0  0  0  0  0  0  0  0  0  0
   18.7090  -10.0799    0.0000 C   0  0  0  0  0  0  0  0  0  0  0  0
   19.3734   -8.7351    0.0000 C   0  0  0  0  0  0  0  0  0  0  0  0
   19.9413   -7.3467    0.0000 C   0  0  0  0  0  0  0  0  0  0  0  0
   20.4099   -5.9218    0.0000 C   0  0  0  0  0  0  0  0  0  0  0  0
   20.7767   -4.4674    0.0000 C   0  0  0  0  0  0  0  0  0  0  0  0
   21.0401   -2.9907    0.0000 C   0  0  0  0  0  0  0  0  0  0  0  0
   21.1987   -1.4991    0.0000 C   0  0  0  0  0  0  0  0  0  0  0  0
  1  2  1  0
  2  3  1  0
  3  4  2  0
  4  5  1  0
  5  6  2  0
  6  7  1  0
  7  8  2  0
  8  9  1  0
  9 10  2  0
 10 11  1  0
 11 12  2  0
 12 13  1  0
 13 14  2  0
 14 15  1  0
 15 16  2  0
 16 17  1  0
 17 18  2  0
 18 19  1  0
 19 20  2  0
 20 21  1  0
 21 22  2  0
 22 23  1  0
 23 24  2  0
 24 25  1  0
 25 26  2  0
 26 27  1  0
 27 28  2  0
 28 29  1  0
 29 30  2  0
 30 31  1  0
 31 32  2  0
 32 33  1  0
 33 34  2  0
 34 35  1  0
 35 36  2  0
 36 37  1  0
 37 38  2  0
 38 39  1  0
 39 40  2  0
 40 41  1  0
 41 42  2  0
 42 43  1  0
 43 44  1  0
 44 45  1  0
 45 46  1  0
 46 47  1  0
 47 48  1  0
 48 49  1  0
 49 50  1  0
 50 51  1  0
 51 52  1  0
 52 53  1  0
 53 54  1  0
 54 55  1  0
 55 56  1  0
 56 57  1  0
 57 58  1  0
 58 59  1  0
 59 60  1  0
 60 61  1  0
 61 62  1  0
 62 63  1  0
 63 64  1  0
 64 65  1  0
 65 66  1  0
 66 67  1  0
 67 68  1  0
 68 69  1  0
 69 70  1  0
 70 71  1  0
 71 72  1  0
 72 73  1  0
 73 74  1  0
 74 75  1  0
 75 76  1  0
 76 77  1  0
 77 78  1  0
 78 79  1  0
 79 80  1  0
 80 81  1  0
 81 82  1  0
 82 83  1  0
 83 84  1  0
 84 85  1  0
 85 86  1  0
 86 87  1  0
 87 88  1  0
 88 89  1  0
 89 90  1  0
 90  2  1  0
M  END
>  <Title>  (751) 
idABAYgen10

$$$$

     RDKit          2D

  7  6  0  0  0  0  0  0  0  0999 V2000
    0.0000    0.0000    0.0000 C   0  0  0  0  0  0  0  0  0  0  0  0
   -0.0000   -1.5000    0.0000 C   0  0  0  0  0  0  0  0  0  0  0  0
   -0.0000   -3.0000    0.0000 C   0  0  0  0  0  0  0  0  0  0  0  0
   -0.0000   -4.5000    0.0000 C   0  0  0  0  0  0  0  0  0  0  0  0
   -0.0000   -6.0000    0.0000 C   0  0  0  0  0  0  0  0  0  0  0  0
    1.2990   -6.7500    0.0000 C   0  0  0  0  0  0  0  0  0  0  0  0
    2.5981   -7.5000    0.0000 N   0  0  0  0  0  0  0  0  0  0  0  0
  1  2  3  0
  2  3  1  0
  3  4  3  0
  4  5  1  0
  5  6  1  0
  6  7  3  0
M  END
>  <Title>  (752) 
idABAZgen10

$$$$

     RDKit          2D

  9  9  0  0  0  0  0  0  0  0999 V2000
    3.7500   -1.2990    0.0000 C   0  0  0  0  0  0  0  0  0  0  0  0
    3.0000    0.0000    0.0000 N   0  0  0  0  0  0  0  0  0  0  0  0
    3.7500    1.2990    0.0000 C   0  0  0  0  0  0  0  0  0  0  0  0
    1.5000    0.0000    0.0000 C   0  0  0  0  0  0  0  0  0  0  0  0
    0.7500   -1.2990    0.0000 C   0  0  0  0  0  0  0  0  0  0  0  0
   -0.7500   -1.2990    0.0000 C   0  0  0  0  0  0  0  0  0  0  0  0
   -1.5000    0.0000    0.0000 C   0  0  0  0  0  0  0  0  0  0  0  0
   -0.7500    1.2990    0.0000 C   0  0  0  0  0  0  0  0  0  0  0  0
    0.7500    1.2990    0.0000 C   0  0  0  0  0  0  0  0  0  0  0  0
  1  2  1  0
  2  3  1  0
  2  4  1  0
  4  5  2  0
  5  6  1  0
  6  7  2  0
  7  8  1  0
  8  9  2  0
  9  4  1  0
M  END
>  <Title>  (753) 
idABBAgen10

$$$$

     RDKit          2D

  6  5  0  0  0  0  0  0  0  0999 V2000
    0.0000    0.0000    0.0000 C   0  0  0  0  0  0  0  0  0  0  0  0
    1.2990    0.7500    0.0000 C   0  0  0  0  0  0  0  0  0  0  0  0
    2.5981   -0.0000    0.0000 C   0  0  0  0  0  0  0  0  0  0  0  0
    3.8971   -0.7500    0.0000 C   0  0  0  0  0  0  0  0  0  0  0  0
    5.1962   -1.5000    0.0000 C   0  0  0  0  0  0  0  0  0  0  0  0
    6.4952   -0.7500    0.0000 O   0  0  0  0  0  0  0  0  0  0  0  0
  1  2  2  0
  2  3  1  0
  3  4  3  0
  4  5  1  0
  5  6  1  0
M  END
>  <Title>  (754) 
idABBBgen10

$$$$

     RDKit          2D

  6  6  0  0  0  0  0  0  0  0999 V2000
    2.7760    0.0000    0.0000 O   0  0  0  0  0  0  0  0  0  0  0  0
    1.2760    0.0000    0.0000 C   0  0  0  0  0  0  0  0  0  0  0  0
    0.3943    1.2135    0.0000 C   0  0  0  0  0  0  0  0  0  0  0  0
   -1.0323    0.7500    0.0000 C   0  0  0  0  0  0  0  0  0  0  0  0
   -1.0323   -0.7500    0.0000 C   0  0  0  0  0  0  0  0  0  0  0  0
    0.3943   -1.2135    0.0000 C   0  0  0  0  0  0  0  0  0  0  0  0
  1  2  1  0
  2  3  1  0
  3  4  2  0
  4  5  1  0
  5  6  1  0
  6  2  1  0
M  END
>  <Title>  (755) 
idABBCgen10

$$$$

     RDKit          2D

  9  9  0  0  0  0  0  0  0  0999 V2000
    2.7760    0.0000    0.0000 C   0  0  0  0  0  0  0  0  0  0  0  0
    1.2760    0.0000    0.0000 C   0  0  0  0  0  0  0  0  0  0  0  0
    0.3943    1.2135    0.0000 C   0  0  0  0  0  0  0  0  0  0  0  0
   -1.0323    0.7500    0.0000 C   0  0  0  0  0  0  0  0  0  0  0  0
   -2.2458    1.6317    0.0000 C   0  0  0  0  0  0  0  0  0  0  0  0
   -3.4593    2.5134    0.0000 N   0  0  0  0  0  0  0  0  0  0  0  0
   -1.0323   -0.7500    0.0000 C   0  0  0  0  0  0  0  0  0  0  0  0
    0.3943   -1.2135    0.0000 C   0  0  0  0  0  0  0  0  0  0  0  0
    0.8578   -2.6401    0.0000 C   0  0  0  0  0  0  0  0  0  0  0  0
  1  2  1  0
  2  3  2  0
  3  4  1  0
  4  5  1  0
  5  6  3  0
  4  7  2  0
  7  8  1  0
  8  9  1  0
  8  2  1  0
M  END
>  <Title>  (756) 
idABBDgen10

$$$$

     RDKit          2D

 26 29  0  0  0  0  0  0  0  0999 V2000
   -1.3240   -6.3062    0.0000 C   0  0  0  0  0  0  0  0  0  0  0  0
   -0.7500   -4.9204    0.0000 C   0  0  0  0  0  0  0  0  0  0  0  0
    0.7500   -4.9204    0.0000 C   0  0  0  0  0  0  0  0  0  0  0  0
    1.8107   -3.8597    0.0000 C   0  0  0  0  0  0  0  0  0  0  0  0
    1.8107   -2.3597    0.0000 C   0  0  0  0  0  0  0  0  0  0  0  0
    3.1965   -1.7857    0.0000 C   0  0  0  0  0  0  0  0  0  0  0  0
    3.3923   -0.2985    0.0000 O   0  0  0  0  0  0  0  0  0  0  0  0
    4.3865   -2.6988    0.0000 N   0  0  0  0  0  0  0  0  0  0  0  0
    5.7723   -2.1248    0.0000 C   0  0  0  0  0  0  0  0  0  0  0  0
    6.9624   -3.0379    0.0000 N   0  0  0  0  0  0  0  0  0  0  0  0
    8.3482   -2.4639    0.0000 N   0  0  0  0  0  0  0  0  0  0  0  0
    8.5440   -0.9767    0.0000 N   0  0  0  0  0  0  0  0  0  0  0  0
    7.3539   -0.0636    0.0000 N   0  0  0  0  0  0  0  0  0  0  0  0
    5.9681   -0.6376    0.0000 N   0  0  0  0  0  0  0  0  0  0  0  0
    0.7500   -1.2990    0.0000 C   0  0  0  0  0  0  0  0  0  0  0  0
    1.5000    0.0000    0.0000 C   0  0  0  0  0  0  0  0  0  0  0  0
    0.7500    1.2990    0.0000 C   0  0  0  0  0  0  0  0  0  0  0  0
   -0.7500    1.2990    0.0000 C   0  0  0  0  0  0  0  0  0  0  0  0
   -1.5000    0.0000    0.0000 C   0  0  0  0  0  0  0  0  0  0  0  0
   -0.7500   -1.2990    0.0000 C   0  0  0  0  0  0  0  0  0  0  0  0
   -1.8107   -2.3597    0.0000 C   0  0  0  0  0  0  0  0  0  0  0  0
   -3.1097   -1.6097    0.0000 C   0  0  0  0  0  0  0  0  0  0  0  0
   -4.4087   -2.3597    0.0000 C   0  0  0  0  0  0  0  0  0  0  0  0
   -4.4087   -3.8597    0.0000 C   0  0  0  0  0  0  0  0  0  0  0  0
   -3.1097   -4.6097    0.0000 C   0  0  0  0  0  0  0  0  0  0  0  0
   -1.8107   -3.8597    0.0000 C   0  0  0  0  0  0  0  0  0  0  0  0
  1  2  1  0
  2  3  1  0
  3  4  2  0
  4  5  1  0
  5  6  1  0
  6  7  2  0
  6  8  1  0
  8  9  1  0
  9 10  2  0
 10 11  1  0
 11 12  2  0
 12 13  1  0
 13 14  2  0
  5 15  1  0
 15 16  2  0
 16 17  1  0
 17 18  2  0
 18 19  1  0
 19 20  2  0
 20 21  1  0
 21 22  2  0
 22 23  1  0
 23 24  2  0
 24 25  1  0
 25 26  2  0
 26  2  1  0
 14  9  1  0
 20 15  1  0
 26 21  1  0
M  END
>  <Title>  (757) 
idABBEgen10

$$$$

     RDKit          2D

  9  9  0  0  0  0  0  0  0  0999 V2000
    4.2760   -2.5981    0.0000 C   0  0  0  0  0  0  0  0  0  0  0  0
    3.5260   -1.2990    0.0000 C   0  0  0  0  0  0  0  0  0  0  0  0
    2.7760    0.0000    0.0000 C   0  0  0  0  0  0  0  0  0  0  0  0
    3.5260    1.2990    0.0000 O   0  0  0  0  0  0  0  0  0  0  0  0
    1.2760    0.0000    0.0000 N   0  0  0  0  0  0  0  0  0  0  0  0
    0.3943    1.2135    0.0000 C   0  0  0  0  0  0  0  0  0  0  0  0
   -1.0323    0.7500    0.0000 C   0  0  0  0  0  0  0  0  0  0  0  0
   -1.0323   -0.7500    0.0000 C   0  0  0  0  0  0  0  0  0  0  0  0
    0.3943   -1.2135    0.0000 C   0  0  0  0  0  0  0  0  0  0  0  0
  1  2  3  0
  2  3  1  0
  3  4  2  0
  3  5  1  0
  5  6  1  0
  6  7  1  0
  7  8  2  0
  8  9  1  0
  9  5  1  0
M  END
>  <Title>  (758) 
idABBFgen10

$$$$

     RDKit          2D

 10 10  0  0  0  0  0  0  0  0999 V2000
    5.2500   -1.2990    0.0000 C   0  0  0  0  0  0  0  0  0  0  0  0
    3.7500   -1.2990    0.0000 C   0  0  0  0  0  0  0  0  0  0  0  0
    3.0000    0.0000    0.0000 N   0  0  0  0  0  0  0  0  0  0  0  0
    1.5000    0.0000    0.0000 C   0  0  0  0  0  0  0  0  0  0  0  0
    0.7500   -1.2990    0.0000 C   0  0  0  0  0  0  0  0  0  0  0  0
   -0.7500   -1.2990    0.0000 C   0  0  0  0  0  0  0  0  0  0  0  0
   -1.5000    0.0000    0.0000 C   0  0  0  0  0  0  0  0  0  0  0  0
   -0.7500    1.2990    0.0000 C   0  0  0  0  0  0  0  0  0  0  0  0
    0.7500    1.2990    0.0000 C   0  0  0  0  0  0  0  0  0  0  0  0
    1.5000    2.5981    0.0000 C   0  0  0  0  0  0  0  0  0  0  0  0
  1  2  1  0
  2  3  1  0
  3  4  1  0
  4  5  2  0
  5  6  1  0
  6  7  2  0
  7  8  1  0
  8  9  2  0
  9 10  1  0
  9  4  1  0
M  END
>  <Title>  (759) 
idABBGgen10

$$$$

     RDKit          2D

 12 13  0  0  0  0  0  0  0  0999 V2000
   -3.1476   -2.1380    0.0000 O   0  0  0  0  0  0  0  0  0  0  0  0
   -1.6852   -2.4718    0.0000 C   0  0  0  0  0  0  0  0  0  0  0  0
   -1.3515   -3.9342    0.0000 C   0  0  0  0  0  0  0  0  0  0  0  0
   -0.0000   -4.5850    0.0000 C   0  0  0  0  0  0  0  0  0  0  0  0
    1.3515   -3.9342    0.0000 C   0  0  0  0  0  0  0  0  0  0  0  0
    1.6852   -2.4718    0.0000 C   0  0  0  0  0  0  0  0  0  0  0  0
    0.7500   -1.2990    0.0000 C   0  0  0  0  0  0  0  0  0  0  0  0
    1.5000    0.0000    0.0000 C   0  0  0  0  0  0  0  0  0  0  0  0
    0.7500    1.2990    0.0000 C   0  0  0  0  0  0  0  0  0  0  0  0
   -0.7500    1.2990    0.0000 C   0  0  0  0  0  0  0  0  0  0  0  0
   -1.5000    0.0000    0.0000 C   0  0  0  0  0  0  0  0  0  0  0  0
   -0.7500   -1.2990    0.0000 C   0  0  0  0  0  0  0  0  0  0  0  0
  1  2  1  0
  2  3  1  0
  3  4  1  0
  4  5  1  0
  5  6  1  0
  6  7  1  0
  7  8  2  0
  8  9  1  0
  9 10  2  0
 10 11  1  0
 11 12  2  0
 12  2  1  0
 12  7  1  0
M  END
>  <Title>  (760) 
idABBHgen10

$$$$

     RDKit          2D

 11 11  0  0  0  0  0  0  0  0999 V2000
    5.7760   -5.1962    0.0000 C   0  0  0  0  0  0  0  0  0  0  0  0
    5.0260   -3.8971    0.0000 C   0  0  0  0  0  0  0  0  0  0  0  0
    4.2760   -2.5981    0.0000 C   0  0  0  0  0  0  0  0  0  0  0  0
    3.5260   -1.2990    0.0000 C   0  0  0  0  0  0  0  0  0  0  0  0
    2.7760    0.0000    0.0000 C   0  0  0  0  0  0  0  0  0  0  0  0
    3.5260    1.2990    0.0000 O   0  0  0  0  0  0  0  0  0  0  0  0
    1.2760    0.0000    0.0000 C   0  0  0  0  0  0  0  0  0  0  0  0
    0.3943    1.2135    0.0000 C   0  0  0  0  0  0  0  0  0  0  0  0
   -1.0323    0.7500    0.0000 C   0  0  0  0  0  0  0  0  0  0  0  0
   -1.0323   -0.7500    0.0000 C   0  0  0  0  0  0  0  0  0  0  0  0
    0.3943   -1.2135    0.0000 C   0  0  0  0  0  0  0  0  0  0  0  0
  1  2  3  0
  2  3  1  0
  3  4  3  0
  4  5  1  0
  5  6  2  0
  5  7  1  0
  7  8  2  0
  8  9  1  0
  9 10  2  0
 10 11  1  0
 11  7  1  0
M  END
>  <Title>  (761) 
idABBIgen10

$$$$

     RDKit          2D

 16 17  0  0  0  0  0  0  0  0999 V2000
    1.6910  -10.5537    0.0000 C   0  0  0  0  0  0  0  0  0  0  0  0
    1.8478   -9.0619    0.0000 C   0  0  0  0  0  0  0  0  0  0  0  0
    2.0046   -7.5702    0.0000 C   0  0  0  0  0  0  0  0  0  0  0  0
    3.3037   -6.8202    0.0000 C   0  0  0  0  0  0  0  0  0  0  0  0
    2.9918   -5.3529    0.0000 C   0  0  0  0  0  0  0  0  0  0  0  0
    1.5000   -5.1962    0.0000 C   0  0  0  0  0  0  0  0  0  0  0  0
    0.7500   -3.8971    0.0000 C   0  0  0  0  0  0  0  0  0  0  0  0
   -0.7500   -3.8971    0.0000 O   0  0  0  0  0  0  0  0  0  0  0  0
    1.5000   -2.5981    0.0000 N   0  0  0  0  0  0  0  0  0  0  0  0
    0.7500   -1.2990    0.0000 C   0  0  0  0  0  0  0  0  0  0  0  0
    1.5000    0.0000    0.0000 N   0  0  0  0  0  0  0  0  0  0  0  0
    0.7500    1.2990    0.0000 N   0  0  0  0  0  0  0  0  0  0  0  0
   -0.7500    1.2990    0.0000 N   0  0  0  0  0  0  0  0  0  0  0  0
   -1.5000    0.0000    0.0000 N   0  0  0  0  0  0  0  0  0  0  0  0
   -0.7500   -1.2990    0.0000 N   0  0  0  0  0  0  0  0  0  0  0  0
    0.8899   -6.5665    0.0000 C   0  0  0  0  0  0  0  0  0  0  0  0
  1  2  3  0
  2  3  1  0
  3  4  2  0
  4  5  1  0
  5  6  2  0
  6  7  1  0
  7  8  2  0
  7  9  1  0
  9 10  1  0
 10 11  2  0
 11 12  1  0
 12 13  2  0
 13 14  1  0
 14 15  2  0
  6 16  1  0
 16  3  1  0
 15 10  1  0
M  END
>  <Title>  (762) 
idABBJgen10

$$$$

     RDKit          2D

 94 95  0  0  0  0  0  0  0  0999 V2000
   -2.1759   -1.0801    0.0000 C   0  0  0  0  0  0  0  0  0  0  0  0
   -2.4877    0.3871    0.0000 C   0  0  0  0  0  0  0  0  0  0  0  0
   -3.9649    0.1266    0.0000 C   0  0  0  0  0  0  0  0  0  0  0  0
   -5.4567   -0.0301    0.0000 C   0  0  0  0  0  0  0  0  0  0  0  0
   -6.9558   -0.0825    0.0000 C   0  0  0  0  0  0  0  0  0  0  0  0
   -8.4549   -0.0301    0.0000 C   0  0  0  0  0  0  0  0  0  0  0  0
   -9.9467    0.1266    0.0000 C   0  0  0  0  0  0  0  0  0  0  0  0
  -11.4239    0.3871    0.0000 C   0  0  0  0  0  0  0  0  0  0  0  0
  -12.8793    0.7500    0.0000 C   0  0  0  0  0  0  0  0  0  0  0  0
  -14.3059    1.2135    0.0000 C   0  0  0  0  0  0  0  0  0  0  0  0
  -15.6967    1.7754    0.0000 C   0  0  0  0  0  0  0  0  0  0  0  0
  -17.0449    2.4330    0.0000 C   0  0  0  0  0  0  0  0  0  0  0  0
  -18.3439    3.1830    0.0000 C   0  0  0  0  0  0  0  0  0  0  0  0
  -19.5875    4.0218    0.0000 C   0  0  0  0  0  0  0  0  0  0  0  0
  -20.7695    4.9453    0.0000 C   0  0  0  0  0  0  0  0  0  0  0  0
  -21.8842    5.9490    0.0000 C   0  0  0  0  0  0  0  0  0  0  0  0
  -22.9262    7.0280    0.0000 C   0  0  0  0  0  0  0  0  0  0  0  0
  -23.8904    8.1770    0.0000 C   0  0  0  0  0  0  0  0  0  0  0  0
  -24.7721    9.3906    0.0000 C   0  0  0  0  0  0  0  0  0  0  0  0
  -25.5669   10.6626    0.0000 C   0  0  0  0  0  0  0  0  0  0  0  0
  -26.2711   11.9871    0.0000 C   0  0  0  0  0  0  0  0  0  0  0  0
  -26.8813   13.3574    0.0000 C   0  0  0  0  0  0  0  0  0  0  0  0
  -27.3943   14.7669    0.0000 C   0  0  0  0  0  0  0  0  0  0  0  0
  -27.8077   16.2088    0.0000 C   0  0  0  0  0  0  0  0  0  0  0  0
  -28.1196   17.6760    0.0000 C   0  0  0  0  0  0  0  0  0  0  0  0
  -28.3284   19.1614    0.0000 C   0  0  0  0  0  0  0  0  0  0  0  0
  -28.4330   20.6578    0.0000 C   0  0  0  0  0  0  0  0  0  0  0  0
  -28.4330   22.1578    0.0000 C   0  0  0  0  0  0  0  0  0  0  0  0
  -28.3284   23.6541    0.0000 C   0  0  0  0  0  0  0  0  0  0  0  0
  -28.1196   25.1395    0.0000 C   0  0  0  0  0  0  0  0  0  0  0  0
  -27.8077   26.6068    0.0000 C   0  0  0  0  0  0  0  0  0  0  0  0
  -27.3943   28.0486    0.0000 C   0  0  0  0  0  0  0  0  0  0  0  0
  -26.8813   29.4582    0.0000 C   0  0  0  0  0  0  0  0  0  0  0  0
  -26.2711   30.8285    0.0000 C   0  0  0  0  0  0  0  0  0  0  0  0
  -25.5669   32.1529    0.0000 C   0  0  0  0  0  0  0  0  0  0  0  0
  -24.7721   33.4250    0.0000 C   0  0  0  0  0  0  0  0  0  0  0  0
  -23.8904   34.6385    0.0000 C   0  0  0  0  0  0  0  0  0  0  0  0
  -22.9262   35.7876    0.0000 C   0  0  0  0  0  0  0  0  0  0  0  0
  -21.8842   36.8666    0.0000 C   0  0  0  0  0  0  0  0  0  0  0  0
  -20.7695   37.8703    0.0000 C   0  0  0  0  0  0  0  0  0  0  0  0
  -19.5875   38.7938    0.0000 C   0  0  0  0  0  0  0  0  0  0  0  0
  -18.3439   39.6326    0.0000 C   0  0  0  0  0  0  0  0  0  0  0  0
  -17.0449   40.3826    0.0000 C   0  0  0  0  0  0  0  0  0  0  0  0
  -15.6967   41.0401    0.0000 C   0  0  0  0  0  0  0  0  0  0  0  0
  -14.3059   41.6020    0.0000 C   0  0  0  0  0  0  0  0  0  0  0  0
  -12.8793   42.0656    0.0000 C   0  0  0  0  0  0  0  0  0  0  0  0
  -11.4239   42.4285    0.0000 C   0  0  0  0  0  0  0  0  0  0  0  0
   -9.9467   42.6889    0.0000 C   0  0  0  0  0  0  0  0  0  0  0  0
   -8.4549   42.8457    0.0000 C   0  0  0  0  0  0  0  0  0  0  0  0
   -6.9558   42.8981    0.0000 C   0  0  0  0  0  0  0  0  0  0  0  0
   -5.4567   42.8457    0.0000 C   0  0  0  0  0  0  0  0  0  0  0  0
   -3.9649   42.6889    0.0000 C   0  0  0  0  0  0  0  0  0  0  0  0
   -2.4877   42.4285    0.0000 C   0  0  0  0  0  0  0  0  0  0  0  0
   -1.0323   42.0656    0.0000 C   0  0  0  0  0  0  0  0  0  0  0  0
    0.3943   41.6020    0.0000 C   0  0  0  0  0  0  0  0  0  0  0  0
    1.7851   41.0401    0.0000 C   0  0  0  0  0  0  0  0  0  0  0  0
    3.1333   40.3826    0.0000 C   0  0  0  0  0  0  0  0  0  0  0  0
    4.4323   39.6326    0.0000 C   0  0  0  0  0  0  0  0  0  0  0  0
    5.6759   38.7938    0.0000 C   0  0  0  0  0  0  0  0  0  0  0  0
    6.8579   37.8703    0.0000 C   0  0  0  0  0  0  0  0  0  0  0  0
    7.9726   36.8666    0.0000 C   0  0  0  0  0  0  0  0  0  0  0  0
    9.0146   35.7876    0.0000 C   0  0  0  0  0  0  0  0  0  0  0  0
    9.9788   34.6385    0.0000 C   0  0  0  0  0  0  0  0  0  0  0  0
   10.8604   33.4250    0.0000 C   0  0  0  0  0  0  0  0  0  0  0  0
   11.6553   32.1529    0.0000 C   0  0  0  0  0  0  0  0  0  0  0  0
   12.3595   30.8285    0.0000 C   0  0  0  0  0  0  0  0  0  0  0  0
   12.9696   29.4582    0.0000 C   0  0  0  0  0  0  0  0  0  0  0  0
   13.4827   28.0486    0.0000 C   0  0  0  0  0  0  0  0  0  0  0  0
   13.8961   26.6068    0.0000 C   0  0  0  0  0  0  0  0  0  0  0  0
   14.2080   25.1395    0.0000 C   0  0  0  0  0  0  0  0  0  0  0  0
   14.4167   23.6541    0.0000 C   0  0  0  0  0  0  0  0  0  0  0  0
   14.5214   22.1578    0.0000 C   0  0  0  0  0  0  0  0  0  0  0  0
   14.5214   20.6578    0.0000 C   0  0  0  0  0  0  0  0  0  0  0  0
   14.4167   19.1614    0.0000 C   0  0  0  0  0  0  0  0  0  0  0  0
   14.2080   17.6760    0.0000 C   0  0  0  0  0  0  0  0  0  0  0  0
   13.8961   16.2088    0.0000 C   0  0  0  0  0  0  0  0  0  0  0  0
   13.4827   14.7669    0.0000 C   0  0  0  0  0  0  0  0  0  0  0  0
   12.9696   13.3574    0.0000 C   0  0  0  0  0  0  0  0  0  0  0  0
   12.3595   11.9871    0.0000 C   0  0  0  0  0  0  0  0  0  0  0  0
   11.6553   10.6626    0.0000 C   0  0  0  0  0  0  0  0  0  0  0  0
   10.8604    9.3906    0.0000 C   0  0  0  0  0  0  0  0  0  0  0  0
    9.9788    8.1770    0.0000 C   0  0  0  0  0  0  0  0  0  0  0  0
    9.0146    7.0280    0.0000 C   0  0  0  0  0  0  0  0  0  0  0  0
    7.9726    5.9490    0.0000 C   0  0  0  0  0  0  0  0  0  0  0  0
    6.8579    4.9453    0.0000 C   0  0  0  0  0  0  0  0  0  0  0  0
    5.6759    4.0218    0.0000 C   0  0  0  0  0  0  0  0  0  0  0  0
    4.4323    3.1830    0.0000 C   0  0  0  0  0  0  0  0  0  0  0  0
    3.1333    2.4330    0.0000 C   0  0  0  0  0  0  0  0  0  0  0  0
    1.7851    1.7754    0.0000 C   0  0  0  0  0  0  0  0  0  0  0  0
    0.3943    1.2135    0.0000 C   0  0  0  0  0  0  0  0  0  0  0  0
    1.2760    0.0000    0.0000 C   0  0  0  0  0  0  0  0  0  0  0  0
    0.3943   -1.2135    0.0000 C   0  0  0  0  0  0  0  0  0  0  0  0
   -1.0323   -0.7500    0.0000 C   0  0  0  0  0  0  0  0  0  0  0  0
   -1.0323    0.7500    0.0000 C   0  0  0  0  0  0  0  0  0  0  0  0
  1  2  1  0
  2  3  1  0
  3  4  1  0
  4  5  1  0
  5  6  1  0
  6  7  1  0
  7  8  1  0
  8  9  1  0
  9 10  1  0
 10 11  1  0
 11 12  1  0
 12 13  1  0
 13 14  1  0
 14 15  1  0
 15 16  1  0
 16 17  1  0
 17 18  1  0
 18 19  1  0
 19 20  1  0
 20 21  1  0
 21 22  1  0
 22 23  1  0
 23 24  1  0
 24 25  1  0
 25 26  1  0
 26 27  1  0
 27 28  1  0
 28 29  1  0
 29 30  1  0
 30 31  1  0
 31 32  1  0
 32 33  1  0
 33 34  1  0
 34 35  1  0
 35 36  1  0
 36 37  1  0
 37 38  1  0
 38 39  1  0
 39 40  1  0
 40 41  1  0
 41 42  1  0
 42 43  1  0
 43 44  1  0
 44 45  1  0
 45 46  1  0
 46 47  1  0
 47 48  1  0
 48 49  1  0
 49 50  1  0
 50 51  1  0
 51 52  1  0
 52 53  1  0
 53 54  1  0
 54 55  1  0
 55 56  1  0
 56 57  1  0
 57 58  1  0
 58 59  1  0
 59 60  1  0
 60 61  1  0
 61 62  1  0
 62 63  1  0
 63 64  1  0
 64 65  1  0
 65 66  1  0
 66 67  1  0
 67 68  1  0
 68 69  1  0
 69 70  1  0
 70 71  1  0
 71 72  1  0
 72 73  1  0
 73 74  1  0
 74 75  1  0
 75 76  1  0
 76 77  1  0
 77 78  1  0
 78 79  1  0
 79 80  1  0
 80 81  1  0
 81 82  1  0
 82 83  1  0
 83 84  1  0
 84 85  1  0
 85 86  1  0
 86 87  1  0
 87 88  1  0
 88 89  1  0
 89 90  1  0
 90 91  1  0
 91 92  2  0
 92 93  1  0
 93 94  2  0
 94  2  1  0
 94 90  1  0
M  END
>  <Title>  (763) 
idABBKgen10

$$$$

     RDKit          2D

 91 93  0  0  0  0  0  0  0  0999 V2000
   -2.4157    0.0779    0.0000 C   0  0  0  0  0  0  0  0  0  0  0  0
   -2.2457   -1.4125    0.0000 C   0  0  0  0  0  0  0  0  0  0  0  0
   -3.7285   -1.6387    0.0000 C   0  0  0  0  0  0  0  0  0  0  0  0
   -5.1900   -1.9765    0.0000 C   0  0  0  0  0  0  0  0  0  0  0  0
   -6.6218   -2.4237    0.0000 C   0  0  0  0  0  0  0  0  0  0  0  0
   -8.0156   -2.9780    0.0000 C   0  0  0  0  0  0  0  0  0  0  0  0
   -9.3635   -3.6362    0.0000 C   0  0  0  0  0  0  0  0  0  0  0  0
  -10.6578   -4.3943    0.0000 C   0  0  0  0  0  0  0  0  0  0  0  0
  -11.8910   -5.2482    0.0000 C   0  0  0  0  0  0  0  0  0  0  0  0
  -13.0562   -6.1930    0.0000 C   0  0  0  0  0  0  0  0  0  0  0  0
  -14.1465   -7.2231    0.0000 C   0  0  0  0  0  0  0  0  0  0  0  0
  -15.1558   -8.3327    0.0000 C   0  0  0  0  0  0  0  0  0  0  0  0
  -16.0783   -9.5155    0.0000 C   0  0  0  0  0  0  0  0  0  0  0  0
  -16.9087  -10.7647    0.0000 C   0  0  0  0  0  0  0  0  0  0  0  0
  -17.6423  -12.0731    0.0000 C   0  0  0  0  0  0  0  0  0  0  0  0
  -18.2748  -13.4332    0.0000 C   0  0  0  0  0  0  0  0  0  0  0  0
  -18.8026  -14.8373    0.0000 C   0  0  0  0  0  0  0  0  0  0  0  0
  -19.2227  -16.2772    0.0000 C   0  0  0  0  0  0  0  0  0  0  0  0
  -19.5327  -17.7449    0.0000 C   0  0  0  0  0  0  0  0  0  0  0  0
  -19.7309  -19.2317    0.0000 C   0  0  0  0  0  0  0  0  0  0  0  0
  -19.8160  -20.7293    0.0000 C   0  0  0  0  0  0  0  0  0  0  0  0
  -19.7876  -22.2290    0.0000 C   0  0  0  0  0  0  0  0  0  0  0  0
  -19.6459  -23.7223    0.0000 C   0  0  0  0  0  0  0  0  0  0  0  0
  -19.3916  -25.2006    0.0000 C   0  0  0  0  0  0  0  0  0  0  0  0
  -19.0263  -26.6554    0.0000 C   0  0  0  0  0  0  0  0  0  0  0  0
  -18.5520  -28.0785    0.0000 C   0  0  0  0  0  0  0  0  0  0  0  0
  -17.9714  -29.4616    0.0000 C   0  0  0  0  0  0  0  0  0  0  0  0
  -17.2879  -30.7968    0.0000 C   0  0  0  0  0  0  0  0  0  0  0  0
  -16.5053  -32.0765    0.0000 C   0  0  0  0  0  0  0  0  0  0  0  0
  -15.6283  -33.2933    0.0000 C   0  0  0  0  0  0  0  0  0  0  0  0
  -14.6617  -34.4404    0.0000 C   0  0  0  0  0  0  0  0  0  0  0  0
  -13.6111  -35.5110    0.0000 C   0  0  0  0  0  0  0  0  0  0  0  0
  -12.4825  -36.4992    0.0000 C   0  0  0  0  0  0  0  0  0  0  0  0
  -11.2825  -37.3991    0.0000 C   0  0  0  0  0  0  0  0  0  0  0  0
  -10.0178  -38.2057    0.0000 C   0  0  0  0  0  0  0  0  0  0  0  0
   -8.6958  -38.9144    0.0000 C   0  0  0  0  0  0  0  0  0  0  0  0
   -7.3239  -39.5210    0.0000 C   0  0  0  0  0  0  0  0  0  0  0  0
   -5.9101  -40.0222    0.0000 C   0  0  0  0  0  0  0  0  0  0  0  0
   -4.4625  -40.4150    0.0000 C   0  0  0  0  0  0  0  0  0  0  0  0
   -2.9893  -40.6972    0.0000 C   0  0  0  0  0  0  0  0  0  0  0  0
   -1.4989  -40.8671    0.0000 C   0  0  0  0  0  0  0  0  0  0  0  0
   -0.0000  -40.9239    0.0000 C   0  0  0  0  0  0  0  0  0  0  0  0
    1.4989  -40.8671    0.0000 C   0  0  0  0  0  0  0  0  0  0  0  0
    2.9893  -40.6972    0.0000 C   0  0  0  0  0  0  0  0  0  0  0  0
    4.4625  -40.4150    0.0000 C   0  0  0  0  0  0  0  0  0  0  0  0
    5.9101  -40.0222    0.0000 C   0  0  0  0  0  0  0  0  0  0  0  0
    7.3239  -39.5210    0.0000 C   0  0  0  0  0  0  0  0  0  0  0  0
    8.6958  -38.9144    0.0000 C   0  0  0  0  0  0  0  0  0  0  0  0
   10.0178  -38.2057    0.0000 C   0  0  0  0  0  0  0  0  0  0  0  0
   11.2825  -37.3991    0.0000 C   0  0  0  0  0  0  0  0  0  0  0  0
   12.4825  -36.4992    0.0000 C   0  0  0  0  0  0  0  0  0  0  0  0
   13.6111  -35.5110    0.0000 C   0  0  0  0  0  0  0  0  0  0  0  0
   14.6617  -34.4404    0.0000 C   0  0  0  0  0  0  0  0  0  0  0  0
   15.6283  -33.2933    0.0000 C   0  0  0  0  0  0  0  0  0  0  0  0
   16.5053  -32.0765    0.0000 C   0  0  0  0  0  0  0  0  0  0  0  0
   17.2879  -30.7968    0.0000 C   0  0  0  0  0  0  0  0  0  0  0  0
   17.9714  -29.4616    0.0000 C   0  0  0  0  0  0  0  0  0  0  0  0
   18.5520  -28.0785    0.0000 C   0  0  0  0  0  0  0  0  0  0  0  0
   19.0263  -26.6554    0.0000 C   0  0  0  0  0  0  0  0  0  0  0  0
   19.3916  -25.2006    0.0000 C   0  0  0  0  0  0  0  0  0  0  0  0
   19.6459  -23.7223    0.0000 C   0  0  0  0  0  0  0  0  0  0  0  0
   19.7876  -22.2290    0.0000 C   0  0  0  0  0  0  0  0  0  0  0  0
   19.8160  -20.7293    0.0000 C   0  0  0  0  0  0  0  0  0  0  0  0
   19.7309  -19.2317    0.0000 C   0  0  0  0  0  0  0  0  0  0  0  0
   19.5327  -17.7449    0.0000 C   0  0  0  0  0  0  0  0  0  0  0  0
   19.2227  -16.2772    0.0000 C   0  0  0  0  0  0  0  0  0  0  0  0
   18.8026  -14.8373    0.0000 C   0  0  0  0  0  0  0  0  0  0  0  0
   18.2748  -13.4332    0.0000 C   0  0  0  0  0  0  0  0  0  0  0  0
   17.6423  -12.0731    0.0000 C   0  0  0  0  0  0  0  0  0  0  0  0
   16.9087  -10.7647    0.0000 C   0  0  0  0  0  0  0  0  0  0  0  0
   16.0783   -9.5155    0.0000 C   0  0  0  0  0  0  0  0  0  0  0  0
   15.1558   -8.3327    0.0000 C   0  0  0  0  0  0  0  0  0  0  0  0
   14.1465   -7.2231    0.0000 C   0  0  0  0  0  0  0  0  0  0  0  0
   13.0562   -6.1930    0.0000 C   0  0  0  0  0  0  0  0  0  0  0  0
   11.8910   -5.2482    0.0000 C   0  0  0  0  0  0  0  0  0  0  0  0
   10.6578   -4.3943    0.0000 C   0  0  0  0  0  0  0  0  0  0  0  0
    9.3635   -3.6362    0.0000 C   0  0  0  0  0  0  0  0  0  0  0  0
    8.0156   -2.9780    0.0000 C   0  0  0  0  0  0  0  0  0  0  0  0
    6.6218   -2.4237    0.0000 C   0  0  0  0  0  0  0  0  0  0  0  0
    5.1900   -1.9765    0.0000 C   0  0  0  0  0  0  0  0  0  0  0  0
    3.7285   -1.6387    0.0000 C   0  0  0  0  0  0  0  0  0  0  0  0
    3.9716   -3.1189    0.0000 C   0  0  0  0  0  0  0  0  0  0  0  0
    2.6390   -3.8075    0.0000 C   0  0  0  0  0  0  0  0  0  0  0  0
    1.5723   -2.7528    0.0000 C   0  0  0  0  0  0  0  0  0  0  0  0
    2.2457   -1.4125    0.0000 C   0  0  0  0  0  0  0  0  0  0  0  0
    0.7500   -1.2990    0.0000 C   0  0  0  0  0  0  0  0  0  0  0  0
    1.5000    0.0000    0.0000 C   0  0  0  0  0  0  0  0  0  0  0  0
    0.7500    1.2990    0.0000 C   0  0  0  0  0  0  0  0  0  0  0  0
   -0.7500    1.2990    0.0000 C   0  0  0  0  0  0  0  0  0  0  0  0
   -1.5000    0.0000    0.0000 C   0  0  0  0  0  0  0  0  0  0  0  0
   -0.7500   -1.2990    0.0000 C   0  0  0  0  0  0  0  0  0  0  0  0
  1  2  1  0
  2  3  1  0
  3  4  1  0
  4  5  1  0
  5  6  1  0
  6  7  1  0
  7  8  1  0
  8  9  1  0
  9 10  1  0
 10 11  1  0
 11 12  1  0
 12 13  1  0
 13 14  1  0
 14 15  1  0
 15 16  1  0
 16 17  1  0
 17 18  1  0
 18 19  1  0
 19 20  1  0
 20 21  1  0
 21 22  1  0
 22 23  1  0
 23 24  1  0
 24 25  1  0
 25 26  1  0
 26 27  1  0
 27 28  1  0
 28 29  1  0
 29 30  1  0
 30 31  1  0
 31 32  1  0
 32 33  1  0
 33 34  1  0
 34 35  1  0
 35 36  1  0
 36 37  1  0
 37 38  1  0
 38 39  1  0
 39 40  1  0
 40 41  1  0
 41 42  1  0
 42 43  1  0
 43 44  1  0
 44 45  1  0
 45 46  1  0
 46 47  1  0
 47 48  1  0
 48 49  1  0
 49 50  1  0
 50 51  1  0
 51 52  1  0
 52 53  1  0
 53 54  1  0
 54 55  1  0
 55 56  1  0
 56 57  1  0
 57 58  1  0
 58 59  2  0
 59 60  1  0
 60 61  2  0
 61 62  1  0
 62 63  2  0
 63 64  1  0
 64 65  2  0
 65 66  1  0
 66 67  2  0
 67 68  1  0
 68 69  2  0
 69 70  1  0
 70 71  2  0
 71 72  1  0
 72 73  2  0
 73 74  1  0
 74 75  2  0
 75 76  1  0
 76 77  2  0
 77 78  1  0
 78 79  2  0
 79 80  1  0
 80 81  2  0
 81 82  1  0
 82 83  2  0
 83 84  1  0
 84 85  2  0
 85 86  1  0
 86 87  2  0
 87 88  1  0
 88 89  2  0
 89 90  1  0
 90 91  2  0
 91  2  1  0
 85 81  1  0
 91 86  1  0
M  END
>  <Title>  (764) 
idABBLgen10

$$$$

     RDKit          2D

104104  0  0  0  0  0  0  0  0999 V2000
   26.0933    0.0000    0.0000 C   0  0  0  0  0  0  0  0  0  0  0  0
   24.5933    0.0000    0.0000 C   0  0  0  0  0  0  0  0  0  0  0  0
   24.5475    1.4993    0.0000 C   0  0  0  0  0  0  0  0  0  0  0  0
   24.4104    2.9930    0.0000 C   0  0  0  0  0  0  0  0  0  0  0  0
   24.1826    4.4756    0.0000 C   0  0  0  0  0  0  0  0  0  0  0  0
   23.8647    5.9416    0.0000 C   0  0  0  0  0  0  0  0  0  0  0  0
   23.4581    7.3854    0.0000 C   0  0  0  0  0  0  0  0  0  0  0  0
   22.9643    8.8018    0.0000 C   0  0  0  0  0  0  0  0  0  0  0  0
   22.3850   10.1854    0.0000 C   0  0  0  0  0  0  0  0  0  0  0  0
   21.7224   11.5311    0.0000 C   0  0  0  0  0  0  0  0  0  0  0  0
   20.9790   12.8339    0.0000 C   0  0  0  0  0  0  0  0  0  0  0  0
   20.1576   14.0890    0.0000 C   0  0  0  0  0  0  0  0  0  0  0  0
   19.2611   15.2917    0.0000 C   0  0  0  0  0  0  0  0  0  0  0  0
   18.2931   16.4375    0.0000 C   0  0  0  0  0  0  0  0  0  0  0  0
   17.2569   17.5222    0.0000 C   0  0  0  0  0  0  0  0  0  0  0  0
   16.1566   18.5416    0.0000 C   0  0  0  0  0  0  0  0  0  0  0  0
   14.9962   19.4921    0.0000 C   0  0  0  0  0  0  0  0  0  0  0  0
   13.7800   20.3701    0.0000 C   0  0  0  0  0  0  0  0  0  0  0  0
   12.5125   21.1723    0.0000 C   0  0  0  0  0  0  0  0  0  0  0  0
   11.1985   21.8957    0.0000 C   0  0  0  0  0  0  0  0  0  0  0  0
    9.8428   22.5377    0.0000 C   0  0  0  0  0  0  0  0  0  0  0  0
    8.4505   23.0958    0.0000 C   0  0  0  0  0  0  0  0  0  0  0  0
    7.0268   23.5680    0.0000 C   0  0  0  0  0  0  0  0  0  0  0  0
    5.5769   23.9526    0.0000 C   0  0  0  0  0  0  0  0  0  0  0  0
    4.1063   24.2480    0.0000 C   0  0  0  0  0  0  0  0  0  0  0  0
    2.6204   24.4532    0.0000 C   0  0  0  0  0  0  0  0  0  0  0  0
    1.1248   24.5675    0.0000 C   0  0  0  0  0  0  0  0  0  0  0  0
   -0.3750   24.5904    0.0000 C   0  0  0  0  0  0  0  0  0  0  0  0
   -1.8735   24.5218    0.0000 C   0  0  0  0  0  0  0  0  0  0  0  0
   -3.3649   24.3620    0.0000 C   0  0  0  0  0  0  0  0  0  0  0  0
   -4.8439   24.1115    0.0000 C   0  0  0  0  0  0  0  0  0  0  0  0
   -6.3048   23.7714    0.0000 C   0  0  0  0  0  0  0  0  0  0  0  0
   -7.7423   23.3428    0.0000 C   0  0  0  0  0  0  0  0  0  0  0  0
   -9.1509   22.8274    0.0000 C   0  0  0  0  0  0  0  0  0  0  0  0
  -10.5256   22.2270    0.0000 C   0  0  0  0  0  0  0  0  0  0  0  0
  -11.8610   21.5440    0.0000 C   0  0  0  0  0  0  0  0  0  0  0  0
  -13.1524   20.7808    0.0000 C   0  0  0  0  0  0  0  0  0  0  0  0
  -14.3948   19.9404    0.0000 C   0  0  0  0  0  0  0  0  0  0  0  0
  -15.5837   19.0257    0.0000 C   0  0  0  0  0  0  0  0  0  0  0  0
  -16.7146   18.0403    0.0000 C   0  0  0  0  0  0  0  0  0  0  0  0
  -17.7833   16.9877    0.0000 C   0  0  0  0  0  0  0  0  0  0  0  0
  -18.7858   15.8720    0.0000 C   0  0  0  0  0  0  0  0  0  0  0  0
  -19.7185   14.6972    0.0000 C   0  0  0  0  0  0  0  0  0  0  0  0
  -20.5778   13.4678    0.0000 C   0  0  0  0  0  0  0  0  0  0  0  0
  -21.3606   12.1882    0.0000 C   0  0  0  0  0  0  0  0  0  0  0  0
  -22.0639   10.8633    0.0000 C   0  0  0  0  0  0  0  0  0  0  0  0
  -22.6852    9.4980    0.0000 C   0  0  0  0  0  0  0  0  0  0  0  0
  -23.2220    8.0973    0.0000 C   0  0  0  0  0  0  0  0  0  0  0  0
  -23.6724    6.6666    0.0000 C   0  0  0  0  0  0  0  0  0  0  0  0
  -24.0348    5.2110    0.0000 C   0  0  0  0  0  0  0  0  0  0  0  0
  -24.3078    3.7361    0.0000 C   0  0  0  0  0  0  0  0  0  0  0  0
  -24.4904    2.2472    0.0000 C   0  0  0  0  0  0  0  0  0  0  0  0
  -24.5818    0.7500    0.0000 C   0  0  0  0  0  0  0  0  0  0  0  0
  -24.5818   -0.7500    0.0000 C   0  0  0  0  0  0  0  0  0  0  0  0
  -24.4904   -2.2472    0.0000 C   0  0  0  0  0  0  0  0  0  0  0  0
  -24.3078   -3.7361    0.0000 C   0  0  0  0  0  0  0  0  0  0  0  0
  -24.0348   -5.2110    0.0000 C   0  0  0  0  0  0  0  0  0  0  0  0
  -23.6724   -6.6666    0.0000 C   0  0  0  0  0  0  0  0  0  0  0  0
  -23.2220   -8.0973    0.0000 C   0  0  0  0  0  0  0  0  0  0  0  0
  -22.6852   -9.4980    0.0000 C   0  0  0  0  0  0  0  0  0  0  0  0
  -22.0639  -10.8633    0.0000 C   0  0  0  0  0  0  0  0  0  0  0  0
  -21.3606  -12.1882    0.0000 C   0  0  0  0  0  0  0  0  0  0  0  0
  -20.5778  -13.4678    0.0000 C   0  0  0  0  0  0  0  0  0  0  0  0
  -19.7185  -14.6972    0.0000 C   0  0  0  0  0  0  0  0  0  0  0  0
  -18.7858  -15.8720    0.0000 C   0  0  0  0  0  0  0  0  0  0  0  0
  -17.7833  -16.9877    0.0000 C   0  0  0  0  0  0  0  0  0  0  0  0
  -16.7146  -18.0403    0.0000 C   0  0  0  0  0  0  0  0  0  0  0  0
  -15.5837  -19.0257    0.0000 C   0  0  0  0  0  0  0  0  0  0  0  0
  -14.3948  -19.9404    0.0000 C   0  0  0  0  0  0  0  0  0  0  0  0
  -13.1524  -20.7808    0.0000 C   0  0  0  0  0  0  0  0  0  0  0  0
  -11.8610  -21.5440    0.0000 C   0  0  0  0  0  0  0  0  0  0  0  0
  -10.5256  -22.2270    0.0000 C   0  0  0  0  0  0  0  0  0  0  0  0
   -9.1509  -22.8274    0.0000 C   0  0  0  0  0  0  0  0  0  0  0  0
   -7.7423  -23.3428    0.0000 C   0  0  0  0  0  0  0  0  0  0  0  0
   -6.3048  -23.7714    0.0000 C   0  0  0  0  0  0  0  0  0  0  0  0
   -4.8439  -24.1115    0.0000 C   0  0  0  0  0  0  0  0  0  0  0  0
   -3.3649  -24.3620    0.0000 C   0  0  0  0  0  0  0  0  0  0  0  0
   -1.8735  -24.5218    0.0000 C   0  0  0  0  0  0  0  0  0  0  0  0
   -0.3750  -24.5904    0.0000 C   0  0  0  0  0  0  0  0  0  0  0  0
    1.1248  -24.5675    0.0000 C   0  0  0  0  0  0  0  0  0  0  0  0
    2.6204  -24.4532    0.0000 C   0  0  0  0  0  0  0  0  0  0  0  0
    4.1063  -24.2480    0.0000 C   0  0  0  0  0  0  0  0  0  0  0  0
    5.5769  -23.9526    0.0000 C   0  0  0  0  0  0  0  0  0  0  0  0
    7.0268  -23.5680    0.0000 C   0  0  0  0  0  0  0  0  0  0  0  0
    8.4505  -23.0958    0.0000 C   0  0  0  0  0  0  0  0  0  0  0  0
    9.8428  -22.5377    0.0000 C   0  0  0  0  0  0  0  0  0  0  0  0
   11.1985  -21.8957    0.0000 C   0  0  0  0  0  0  0  0  0  0  0  0
   12.5125  -21.1723    0.0000 C   0  0  0  0  0  0  0  0  0  0  0  0
   13.7800  -20.3701    0.0000 C   0  0  0  0  0  0  0  0  0  0  0  0
   14.9962  -19.4921    0.0000 C   0  0  0  0  0  0  0  0  0  0  0  0
   16.1566  -18.5416    0.0000 C   0  0  0  0  0  0  0  0  0  0  0  0
   17.2569  -17.5222    0.0000 C   0  0  0  0  0  0  0  0  0  0  0  0
   18.2931  -16.4375    0.0000 C   0  0  0  0  0  0  0  0  0  0  0  0
   19.2611  -15.2917    0.0000 C   0  0  0  0  0  0  0  0  0  0  0  0
   20.1576  -14.0890    0.0000 C   0  0  0  0  0  0  0  0  0  0  0  0
   20.9790  -12.8339    0.0000 C   0  0  0  0  0  0  0  0  0  0  0  0
   21.7224  -11.5311    0.0000 C   0  0  0  0  0  0  0  0  0  0  0  0
   22.3850  -10.1854    0.0000 C   0  0  0  0  0  0  0  0  0  0  0  0
   22.9643   -8.8018    0.0000 C   0  0  0  0  0  0  0  0  0  0  0  0
   23.4581   -7.3854    0.0000 C   0  0  0  0  0  0  0  0  0  0  0  0
   23.8647   -5.9416    0.0000 C   0  0  0  0  0  0  0  0  0  0  0  0
   24.1826   -4.4756    0.0000 C   0  0  0  0  0  0  0  0  0  0  0  0
   24.4104   -2.9930    0.0000 C   0  0  0  0  0  0  0  0  0  0  0  0
   24.5475   -1.4993    0.0000 C   0  0  0  0  0  0  0  0  0  0  0  0
  1  2  1  0
  2  3  1  0
  3  4  1  0
  4  5  1  0
  5  6  1  0
  6  7  1  0
  7  8  1  0
  8  9  1  0
  9 10  1  0
 10 11  1  0
 11 12  1  0
 12 13  1  0
 13 14  1  0
 14 15  1  0
 15 16  1  0
 16 17  1  0
 17 18  1  0
 18 19  1  0
 19 20  1  0
 20 21  1  0
 21 22  1  0
 22 23  1  0
 23 24  1  0
 24 25  1  0
 25 26  1  0
 26 27  1  0
 27 28  1  0
 28 29  1  0
 29 30  1  0
 30 31  1  0
 31 32  1  0
 32 33  1  0
 33 34  1  0
 34 35  1  0
 35 36  1  0
 36 37  1  0
 37 38  1  0
 38 39  1  0
 39 40  1  0
 40 41  1  0
 41 42  1  0
 42 43  1  0
 43 44  1  0
 44 45  1  0
 45 46  1  0
 46 47  1  0
 47 48  1  0
 48 49  1  0
 49 50  1  0
 50 51  1  0
 51 52  1  0
 52 53  1  0
 53 54  1  0
 54 55  1  0
 55 56  1  0
 56 57  1  0
 57 58  1  0
 58 59  1  0
 59 60  1  0
 60 61  1  0
 61 62  1  0
 62 63  1  0
 63 64  1  0
 64 65  1  0
 65 66  1  0
 66 67  1  0
 67 68  1  0
 68 69  1  0
 69 70  1  0
 70 71  1  0
 71 72  1  0
 72 73  1  0
 73 74  1  0
 74 75  1  0
 75 76  1  0
 76 77  1  0
 77 78  1  0
 78 79  1  0
 79 80  1  0
 80 81  1  0
 81 82  1  0
 82 83  1  0
 83 84  1  0
 84 85  1  0
 85 86  1  0
 86 87  1  0
 87 88  1  0
 88 89  1  0
 89 90  1  0
 90 91  1  0
 91 92  1  0
 92 93  1  0
 93 94  1  0
 94 95  1  0
 95 96  1  0
 96 97  1  0
 97 98  1  0
 98 99  1  0
 99100  1  0
100101  1  0
101102  1  0
102103  1  0
103104  1  0
104  2  1  0
M  END
>  <Title>  (765) 
idABBMgen10

$$$$

     RDKit          2D

108108  0  0  0  0  0  0  0  0999 V2000
   27.0480   -0.0000    0.0000 O   0  0  0  0  0  0  0  0  0  0  0  0
   25.5480    0.0000    0.0000 C   0  0  0  0  0  0  0  0  0  0  0  0
   25.5040    1.4994    0.0000 C   0  0  0  0  0  0  0  0  0  0  0  0
   25.3721    2.9935    0.0000 C   0  0  0  0  0  0  0  0  0  0  0  0
   25.1526    4.4774    0.0000 C   0  0  0  0  0  0  0  0  0  0  0  0
   24.8465    5.9458    0.0000 C   0  0  0  0  0  0  0  0  0  0  0  0
   24.4547    7.3938    0.0000 C   0  0  0  0  0  0  0  0  0  0  0  0
   23.9787    8.8162    0.0000 C   0  0  0  0  0  0  0  0  0  0  0  0
   23.4199   10.2083    0.0000 C   0  0  0  0  0  0  0  0  0  0  0  0
   22.7805   11.5651    0.0000 C   0  0  0  0  0  0  0  0  0  0  0  0
   22.0625   12.8821    0.0000 C   0  0  0  0  0  0  0  0  0  0  0  0
   21.2684   14.1547    0.0000 C   0  0  0  0  0  0  0  0  0  0  0  0
   20.4011   15.3785    0.0000 C   0  0  0  0  0  0  0  0  0  0  0  0
   19.4634   16.5493    0.0000 C   0  0  0  0  0  0  0  0  0  0  0  0
   18.4586   17.6630    0.0000 C   0  0  0  0  0  0  0  0  0  0  0  0
   17.3902   18.7159    0.0000 C   0  0  0  0  0  0  0  0  0  0  0  0
   16.2618   19.7042    0.0000 C   0  0  0  0  0  0  0  0  0  0  0  0
   15.0774   20.6246    0.0000 C   0  0  0  0  0  0  0  0  0  0  0  0
   13.8410   21.4739    0.0000 C   0  0  0  0  0  0  0  0  0  0  0  0
   12.5569   22.2492    0.0000 C   0  0  0  0  0  0  0  0  0  0  0  0
   11.2295   22.9478    0.0000 C   0  0  0  0  0  0  0  0  0  0  0  0
    9.8634   23.5673    0.0000 C   0  0  0  0  0  0  0  0  0  0  0  0
    8.4633   24.1055    0.0000 C   0  0  0  0  0  0  0  0  0  0  0  0
    7.0340   24.5606    0.0000 C   0  0  0  0  0  0  0  0  0  0  0  0
    5.5805   24.9311    0.0000 C   0  0  0  0  0  0  0  0  0  0  0  0
    4.1077   25.2157    0.0000 C   0  0  0  0  0  0  0  0  0  0  0  0
    2.6208   25.4133    0.0000 C   0  0  0  0  0  0  0  0  0  0  0  0
    1.1248   25.5233    0.0000 C   0  0  0  0  0  0  0  0  0  0  0  0
   -0.3750   25.5453    0.0000 C   0  0  0  0  0  0  0  0  0  0  0  0
   -1.8736   25.4792    0.0000 C   0  0  0  0  0  0  0  0  0  0  0  0
   -3.3657   25.3254    0.0000 C   0  0  0  0  0  0  0  0  0  0  0  0
   -4.8462   25.0842    0.0000 C   0  0  0  0  0  0  0  0  0  0  0  0
   -6.3099   24.7566    0.0000 C   0  0  0  0  0  0  0  0  0  0  0  0
   -7.7520   24.3436    0.0000 C   0  0  0  0  0  0  0  0  0  0  0  0
   -9.1673   23.8467    0.0000 C   0  0  0  0  0  0  0  0  0  0  0  0
  -10.5510   23.2676    0.0000 C   0  0  0  0  0  0  0  0  0  0  0  0
  -11.8983   22.6082    0.0000 C   0  0  0  0  0  0  0  0  0  0  0  0
  -13.2046   21.8710    0.0000 C   0  0  0  0  0  0  0  0  0  0  0  0
  -14.4654   21.0583    0.0000 C   0  0  0  0  0  0  0  0  0  0  0  0
  -15.6763   20.1731    0.0000 C   0  0  0  0  0  0  0  0  0  0  0  0
  -16.8332   19.2183    0.0000 C   0  0  0  0  0  0  0  0  0  0  0  0
  -17.9321   18.1973    0.0000 C   0  0  0  0  0  0  0  0  0  0  0  0
  -18.9692   17.1135    0.0000 C   0  0  0  0  0  0  0  0  0  0  0  0
  -19.9408   15.9708    0.0000 C   0  0  0  0  0  0  0  0  0  0  0  0
  -20.8437   14.7730    0.0000 C   0  0  0  0  0  0  0  0  0  0  0  0
  -21.6748   13.5243    0.0000 C   0  0  0  0  0  0  0  0  0  0  0  0
  -22.4311   12.2289    0.0000 C   0  0  0  0  0  0  0  0  0  0  0  0
  -23.1102   10.8914    0.0000 C   0  0  0  0  0  0  0  0  0  0  0  0
  -23.7095    9.5163    0.0000 C   0  0  0  0  0  0  0  0  0  0  0  0
  -24.2271    8.1085    0.0000 C   0  0  0  0  0  0  0  0  0  0  0  0
  -24.6613    6.6727    0.0000 C   0  0  0  0  0  0  0  0  0  0  0  0
  -25.0104    5.2139    0.0000 C   0  0  0  0  0  0  0  0  0  0  0  0
  -25.2732    3.7371    0.0000 C   0  0  0  0  0  0  0  0  0  0  0  0
  -25.4490    2.2474    0.0000 C   0  0  0  0  0  0  0  0  0  0  0  0
  -25.5370    0.7500    0.0000 C   0  0  0  0  0  0  0  0  0  0  0  0
  -25.5370   -0.7500    0.0000 C   0  0  0  0  0  0  0  0  0  0  0  0
  -25.4490   -2.2474    0.0000 C   0  0  0  0  0  0  0  0  0  0  0  0
  -25.2732   -3.7371    0.0000 C   0  0  0  0  0  0  0  0  0  0  0  0
  -25.0104   -5.2139    0.0000 C   0  0  0  0  0  0  0  0  0  0  0  0
  -24.6613   -6.6727    0.0000 C   0  0  0  0  0  0  0  0  0  0  0  0
  -24.2271   -8.1085    0.0000 C   0  0  0  0  0  0  0  0  0  0  0  0
  -23.7095   -9.5163    0.0000 C   0  0  0  0  0  0  0  0  0  0  0  0
  -23.1102  -10.8914    0.0000 C   0  0  0  0  0  0  0  0  0  0  0  0
  -22.4311  -12.2289    0.0000 C   0  0  0  0  0  0  0  0  0  0  0  0
  -21.6748  -13.5243    0.0000 C   0  0  0  0  0  0  0  0  0  0  0  0
  -20.8437  -14.7730    0.0000 C   0  0  0  0  0  0  0  0  0  0  0  0
  -19.9408  -15.9708    0.0000 C   0  0  0  0  0  0  0  0  0  0  0  0
  -18.9692  -17.1135    0.0000 C   0  0  0  0  0  0  0  0  0  0  0  0
  -17.9321  -18.1973    0.0000 C   0  0  0  0  0  0  0  0  0  0  0  0
  -16.8332  -19.2183    0.0000 C   0  0  0  0  0  0  0  0  0  0  0  0
  -15.6763  -20.1731    0.0000 C   0  0  0  0  0  0  0  0  0  0  0  0
  -14.4654  -21.0583    0.0000 C   0  0  0  0  0  0  0  0  0  0  0  0
  -13.2046  -21.8710    0.0000 C   0  0  0  0  0  0  0  0  0  0  0  0
  -11.8983  -22.6082    0.0000 C   0  0  0  0  0  0  0  0  0  0  0  0
  -10.5510  -23.2676    0.0000 C   0  0  0  0  0  0  0  0  0  0  0  0
   -9.1673  -23.8467    0.0000 C   0  0  0  0  0  0  0  0  0  0  0  0
   -7.7520  -24.3436    0.0000 C   0  0  0  0  0  0  0  0  0  0  0  0
   -6.3099  -24.7566    0.0000 C   0  0  0  0  0  0  0  0  0  0  0  0
   -4.8462  -25.0842    0.0000 C   0  0  0  0  0  0  0  0  0  0  0  0
   -3.3657  -25.3254    0.0000 C   0  0  0  0  0  0  0  0  0  0  0  0
   -1.8736  -25.4792    0.0000 C   0  0  0  0  0  0  0  0  0  0  0  0
   -0.3750  -25.5453    0.0000 C   0  0  0  0  0  0  0  0  0  0  0  0
    1.1248  -25.5233    0.0000 C   0  0  0  0  0  0  0  0  0  0  0  0
    2.6208  -25.4133    0.0000 C   0  0  0  0  0  0  0  0  0  0  0  0
    4.1077  -25.2157    0.0000 C   0  0  0  0  0  0  0  0  0  0  0  0
    5.5805  -24.9311    0.0000 C   0  0  0  0  0  0  0  0  0  0  0  0
    7.0340  -24.5606    0.0000 C   0  0  0  0  0  0  0  0  0  0  0  0
    8.4633  -24.1055    0.0000 C   0  0  0  0  0  0  0  0  0  0  0  0
    9.8634  -23.5673    0.0000 C   0  0  0  0  0  0  0  0  0  0  0  0
   11.2295  -22.9478    0.0000 C   0  0  0  0  0  0  0  0  0  0  0  0
   12.5569  -22.2492    0.0000 C   0  0  0  0  0  0  0  0  0  0  0  0
   13.8410  -21.4739    0.0000 C   0  0  0  0  0  0  0  0  0  0  0  0
   15.0774  -20.6246    0.0000 C   0  0  0  0  0  0  0  0  0  0  0  0
   16.2618  -19.7042    0.0000 C   0  0  0  0  0  0  0  0  0  0  0  0
   17.3902  -18.7159    0.0000 C   0  0  0  0  0  0  0  0  0  0  0  0
   18.4586  -17.6630    0.0000 C   0  0  0  0  0  0  0  0  0  0  0  0
   19.4634  -16.5493    0.0000 C   0  0  0  0  0  0  0  0  0  0  0  0
   20.4011  -15.3785    0.0000 C   0  0  0  0  0  0  0  0  0  0  0  0
   21.2684  -14.1547    0.0000 C   0  0  0  0  0  0  0  0  0  0  0  0
   22.0625  -12.8821    0.0000 C   0  0  0  0  0  0  0  0  0  0  0  0
   22.7805  -11.5651    0.0000 C   0  0  0  0  0  0  0  0  0  0  0  0
   23.4199  -10.2083    0.0000 C   0  0  0  0  0  0  0  0  0  0  0  0
   23.9787   -8.8162    0.0000 C   0  0  0  0  0  0  0  0  0  0  0  0
   24.4547   -7.3938    0.0000 C   0  0  0  0  0  0  0  0  0  0  0  0
   24.8465   -5.9458    0.0000 C   0  0  0  0  0  0  0  0  0  0  0  0
   25.1526   -4.4774    0.0000 C   0  0  0  0  0  0  0  0  0  0  0  0
   25.3721   -2.9935    0.0000 C   0  0  0  0  0  0  0  0  0  0  0  0
   25.5040   -1.4994    0.0000 C   0  0  0  0  0  0  0  0  0  0  0  0
  1  2  1  0
  2  3  2  0
  3  4  1  0
  4  5  1  0
  5  6  1  0
  6  7  1  0
  7  8  1  0
  8  9  1  0
  9 10  1  0
 10 11  1  0
 11 12  1  0
 12 13  1  0
 13 14  1  0
 14 15  1  0
 15 16  1  0
 16 17  1  0
 17 18  1  0
 18 19  1  0
 19 20  1  0
 20 21  1  0
 21 22  1  0
 22 23  1  0
 23 24  1  0
 24 25  1  0
 25 26  1  0
 26 27  1  0
 27 28  1  0
 28 29  1  0
 29 30  1  0
 30 31  1  0
 31 32  1  0
 32 33  1  0
 33 34  1  0
 34 35  1  0
 35 36  1  0
 36 37  1  0
 37 38  1  0
 38 39  1  0
 39 40  1  0
 40 41  1  0
 41 42  1  0
 42 43  1  0
 43 44  1  0
 44 45  1  0
 45 46  1  0
 46 47  1  0
 47 48  1  0
 48 49  1  0
 49 50  1  0
 50 51  1  0
 51 52  1  0
 52 53  1  0
 53 54  1  0
 54 55  1  0
 55 56  1  0
 56 57  1  0
 57 58  1  0
 58 59  1  0
 59 60  1  0
 60 61  1  0
 61 62  1  0
 62 63  1  0
 63 64  1  0
 64 65  1  0
 65 66  1  0
 66 67  1  0
 67 68  1  0
 68 69  1  0
 69 70  1  0
 70 71  1  0
 71 72  1  0
 72 73  1  0
 73 74  1  0
 74 75  1  0
 75 76  1  0
 76 77  1  0
 77 78  1  0
 78 79  1  0
 79 80  1  0
 80 81  1  0
 81 82  1  0
 82 83  1  0
 83 84  1  0
 84 85  1  0
 85 86  1  0
 86 87  1  0
 87 88  1  0
 88 89  1  0
 89 90  1  0
 90 91  1  0
 91 92  1  0
 92 93  1  0
 93 94  1  0
 94 95  1  0
 95 96  1  0
 96 97  1  0
 97 98  1  0
 98 99  1  0
 99100  1  0
100101  1  0
101102  1  0
102103  1  0
103104  1  0
104105  1  0
105106  1  0
106107  1  0
107108  1  0
108  2  1  0
M  END
>  <Title>  (766) 
idABBNgen10

$$$$

     RDKit          2D

 15 16  0  0  0  0  0  0  0  0999 V2000
    3.9271    0.0000    0.0000 C   0  0  0  0  0  0  0  0  0  0  0  0
    2.4271    0.0000    0.0000 C   0  0  0  0  0  0  0  0  0  0  0  0
    1.9635   -1.4266    0.0000 C   0  0  0  0  0  0  0  0  0  0  0  0
    0.7500   -2.3083    0.0000 C   0  0  0  0  0  0  0  0  0  0  0  0
   -0.7500   -2.3083    0.0000 C   0  0  0  0  0  0  0  0  0  0  0  0
   -1.9635   -1.4266    0.0000 C   0  0  0  0  0  0  0  0  0  0  0  0
   -3.1771   -2.3083    0.0000 C   0  0  0  0  0  0  0  0  0  0  0  0
   -4.3906   -1.4266    0.0000 C   0  0  0  0  0  0  0  0  0  0  0  0
   -3.9271   -0.0000    0.0000 N   0  0  0  0  0  0  0  0  0  0  0  0
   -4.8087    1.2135    0.0000 C   0  0  0  0  0  0  0  0  0  0  0  0
   -2.4271    0.0000    0.0000 C   0  0  0  0  0  0  0  0  0  0  0  0
   -1.9635    1.4266    0.0000 N   0  0  0  0  0  0  0  0  0  0  0  0
   -0.7500    2.3083    0.0000 N   0  0  0  0  0  0  0  0  0  0  0  0
    0.7500    2.3083    0.0000 N   0  0  0  0  0  0  0  0  0  0  0  0
    1.9635    1.4266    0.0000 N   0  0  0  0  0  0  0  0  0  0  0  0
  1  2  1  0
  2  3  2  0
  3  4  1  0
  4  5  1  0
  5  6  2  0
  6  7  1  0
  7  8  1  0
  8  9  1  0
  9 10  1  0
  9 11  1  0
 11 12  2  0
 12 13  1  0
 13 14  2  0
 14 15  1  0
 15  2  1  0
 11  6  1  0
M  END
>  <Title>  (767) 
idABBOgen10

$$$$

     RDKit          2D

 12 12  0  0  0  0  0  0  0  0999 V2000
    7.5000    0.0000    0.0000 C   0  0  0  0  0  0  0  0  0  0  0  0
    6.0000    0.0000    0.0000 C   0  0  0  0  0  0  0  0  0  0  0  0
    4.5000    0.0000    0.0000 C   0  0  0  0  0  0  0  0  0  0  0  0
    3.0000    0.0000    0.0000 C   0  0  0  0  0  0  0  0  0  0  0  0
    1.5000    0.0000    0.0000 C   0  0  0  0  0  0  0  0  0  0  0  0
    0.7500   -1.2990    0.0000 C   0  0  0  0  0  0  0  0  0  0  0  0
   -0.7500   -1.2990    0.0000 C   0  0  0  0  0  0  0  0  0  0  0  0
   -1.5000    0.0000    0.0000 C   0  0  0  0  0  0  0  0  0  0  0  0
   -3.0000    0.0000    0.0000 O   0  0  0  0  0  0  0  0  0  0  0  0
   -3.7500    1.2990    0.0000 C   0  0  0  0  0  0  0  0  0  0  0  0
   -0.7500    1.2990    0.0000 C   0  0  0  0  0  0  0  0  0  0  0  0
    0.7500    1.2990    0.0000 C   0  0  0  0  0  0  0  0  0  0  0  0
  1  2  3  0
  2  3  1  0
  3  4  3  0
  4  5  1  0
  5  6  2  0
  6  7  1  0
  7  8  2  0
  8  9  1  0
  9 10  1  0
  8 11  1  0
 11 12  2  0
 12  5  1  0
M  END
>  <Title>  (768) 
idABBPgen10

$$$$

     RDKit          2D

 10 10  0  0  0  0  0  0  0  0999 V2000
    5.2500   -1.2990    0.0000 C   0  0  0  0  0  0  0  0  0  0  0  0
    3.7500   -1.2990    0.0000 C   0  0  0  0  0  0  0  0  0  0  0  0
    3.0000    0.0000    0.0000 C   0  0  0  0  0  0  0  0  0  0  0  0
    1.5000    0.0000    0.0000 C   0  0  0  0  0  0  0  0  0  0  0  0
    0.7500   -1.2990    0.0000 C   0  0  0  0  0  0  0  0  0  0  0  0
   -0.7500   -1.2990    0.0000 C   0  0  0  0  0  0  0  0  0  0  0  0
   -1.5000   -2.5981    0.0000 C   0  0  0  0  0  0  0  0  0  0  0  0
   -1.5000    0.0000    0.0000 C   0  0  0  0  0  0  0  0  0  0  0  0
   -0.7500    1.2990    0.0000 C   0  0  0  0  0  0  0  0  0  0  0  0
    0.7500    1.2990    0.0000 N   0  0  0  0  0  0  0  0  0  0  0  0
  1  2  2  0
  2  3  1  0
  3  4  1  0
  4  5  2  0
  5  6  1  0
  6  7  1  0
  6  8  2  0
  8  9  1  0
  9 10  2  0
 10  4  1  0
M  END
>  <Title>  (769) 
idABBQgen10

$$$$

     RDKit          2D

 13 13  0  0  0  0  0  0  0  0999 V2000
   10.5000    0.0000    0.0000 C   0  0  0  0  0  0  0  0  0  0  0  0
    9.0000    0.0000    0.0000 C   0  0  0  0  0  0  0  0  0  0  0  0
    7.5000    0.0000    0.0000 C   0  0  0  0  0  0  0  0  0  0  0  0
    6.0000    0.0000    0.0000 C   0  0  0  0  0  0  0  0  0  0  0  0
    4.5000    0.0000    0.0000 C   0  0  0  0  0  0  0  0  0  0  0  0
    3.0000    0.0000    0.0000 C   0  0  0  0  0  0  0  0  0  0  0  0
    1.5000    0.0000    0.0000 C   0  0  0  0  0  0  0  0  0  0  0  0
    0.7500   -1.2990    0.0000 C   0  0  0  0  0  0  0  0  0  0  0  0
    1.5000   -2.5981    0.0000 C   0  0  0  0  0  0  0  0  0  0  0  0
   -0.7500   -1.2990    0.0000 N   0  0  0  0  0  0  0  0  0  0  0  0
   -1.5000    0.0000    0.0000 C   0  0  0  0  0  0  0  0  0  0  0  0
   -0.7500    1.2990    0.0000 C   0  0  0  0  0  0  0  0  0  0  0  0
    0.7500    1.2990    0.0000 C   0  0  0  0  0  0  0  0  0  0  0  0
  1  2  3  0
  2  3  1  0
  3  4  3  0
  4  5  1  0
  5  6  3  0
  6  7  1  0
  7  8  2  0
  8  9  1  0
  8 10  1  0
 10 11  1  0
 11 12  1  0
 12 13  2  0
 13  7  1  0
M  END
>  <Title>  (770) 
idABBRgen10

$$$$

     RDKit          2D

108109  0  0  0  0  0  0  0  0999 V2000
   -2.1517   -1.0892    0.0000 C   0  0  0  0  0  0  0  0  0  0  0  0
   -2.4843    0.3735    0.0000 C   0  0  0  0  0  0  0  0  0  0  0  0
   -3.9563    0.0853    0.0000 C   0  0  0  0  0  0  0  0  0  0  0  0
   -5.4431   -0.1135    0.0000 C   0  0  0  0  0  0  0  0  0  0  0  0
   -6.9391   -0.2222    0.0000 C   0  0  0  0  0  0  0  0  0  0  0  0
   -8.4390   -0.2403    0.0000 C   0  0  0  0  0  0  0  0  0  0  0  0
   -9.9373   -0.1678    0.0000 C   0  0  0  0  0  0  0  0  0  0  0  0
  -11.4284   -0.0050    0.0000 C   0  0  0  0  0  0  0  0  0  0  0  0
  -12.9070    0.2475    0.0000 C   0  0  0  0  0  0  0  0  0  0  0  0
  -14.3677    0.5889    0.0000 C   0  0  0  0  0  0  0  0  0  0  0  0
  -15.8050    1.0178    0.0000 C   0  0  0  0  0  0  0  0  0  0  0  0
  -17.2139    1.5327    0.0000 C   0  0  0  0  0  0  0  0  0  0  0  0
  -18.5891    2.1317    0.0000 C   0  0  0  0  0  0  0  0  0  0  0  0
  -19.9256    2.8127    0.0000 C   0  0  0  0  0  0  0  0  0  0  0  0
  -21.2185    3.5732    0.0000 C   0  0  0  0  0  0  0  0  0  0  0  0
  -22.4632    4.4103    0.0000 C   0  0  0  0  0  0  0  0  0  0  0  0
  -23.6551    5.3210    0.0000 C   0  0  0  0  0  0  0  0  0  0  0  0
  -24.7898    6.3021    0.0000 C   0  0  0  0  0  0  0  0  0  0  0  0
  -25.8632    7.3498    0.0000 C   0  0  0  0  0  0  0  0  0  0  0  0
  -26.8713    8.4605    0.0000 C   0  0  0  0  0  0  0  0  0  0  0  0
  -27.8106    9.6300    0.0000 C   0  0  0  0  0  0  0  0  0  0  0  0
  -28.6776   10.8541    0.0000 C   0  0  0  0  0  0  0  0  0  0  0  0
  -29.4690   12.1283    0.0000 C   0  0  0  0  0  0  0  0  0  0  0  0
  -30.1821   13.4480    0.0000 C   0  0  0  0  0  0  0  0  0  0  0  0
  -30.8142   14.8083    0.0000 C   0  0  0  0  0  0  0  0  0  0  0  0
  -31.3630   16.2043    0.0000 C   0  0  0  0  0  0  0  0  0  0  0  0
  -31.8266   17.6309    0.0000 C   0  0  0  0  0  0  0  0  0  0  0  0
  -32.2031   19.0828    0.0000 C   0  0  0  0  0  0  0  0  0  0  0  0
  -32.4913   20.5549    0.0000 C   0  0  0  0  0  0  0  0  0  0  0  0
  -32.6901   22.0417    0.0000 C   0  0  0  0  0  0  0  0  0  0  0  0
  -32.7987   23.5377    0.0000 C   0  0  0  0  0  0  0  0  0  0  0  0
  -32.8169   25.0376    0.0000 C   0  0  0  0  0  0  0  0  0  0  0  0
  -32.7444   26.5359    0.0000 C   0  0  0  0  0  0  0  0  0  0  0  0
  -32.5816   28.0270    0.0000 C   0  0  0  0  0  0  0  0  0  0  0  0
  -32.3291   29.5056    0.0000 C   0  0  0  0  0  0  0  0  0  0  0  0
  -31.9877   30.9662    0.0000 C   0  0  0  0  0  0  0  0  0  0  0  0
  -31.5588   32.4036    0.0000 C   0  0  0  0  0  0  0  0  0  0  0  0
  -31.0439   33.8125    0.0000 C   0  0  0  0  0  0  0  0  0  0  0  0
  -30.4448   35.1876    0.0000 C   0  0  0  0  0  0  0  0  0  0  0  0
  -29.7638   36.5242    0.0000 C   0  0  0  0  0  0  0  0  0  0  0  0
  -29.0034   37.8171    0.0000 C   0  0  0  0  0  0  0  0  0  0  0  0
  -28.1663   39.0618    0.0000 C   0  0  0  0  0  0  0  0  0  0  0  0
  -27.2555   40.2537    0.0000 C   0  0  0  0  0  0  0  0  0  0  0  0
  -26.2745   41.3884    0.0000 C   0  0  0  0  0  0  0  0  0  0  0  0
  -25.2267   42.4618    0.0000 C   0  0  0  0  0  0  0  0  0  0  0  0
  -24.1160   43.4699    0.0000 C   0  0  0  0  0  0  0  0  0  0  0  0
  -22.9465   44.4092    0.0000 C   0  0  0  0  0  0  0  0  0  0  0  0
  -21.7224   45.2762    0.0000 C   0  0  0  0  0  0  0  0  0  0  0  0
  -20.4482   46.0676    0.0000 C   0  0  0  0  0  0  0  0  0  0  0  0
  -19.1286   46.7807    0.0000 C   0  0  0  0  0  0  0  0  0  0  0  0
  -17.7683   47.4128    0.0000 C   0  0  0  0  0  0  0  0  0  0  0  0
  -16.3723   47.9616    0.0000 C   0  0  0  0  0  0  0  0  0  0  0  0
  -14.9457   48.4251    0.0000 C   0  0  0  0  0  0  0  0  0  0  0  0
  -13.4937   48.8017    0.0000 C   0  0  0  0  0  0  0  0  0  0  0  0
  -12.0217   49.0899    0.0000 C   0  0  0  0  0  0  0  0  0  0  0  0
  -10.5349   49.2887    0.0000 C   0  0  0  0  0  0  0  0  0  0  0  0
   -9.0388   49.3973    0.0000 C   0  0  0  0  0  0  0  0  0  0  0  0
   -7.5389   49.4154    0.0000 C   0  0  0  0  0  0  0  0  0  0  0  0
   -6.0407   49.3430    0.0000 C   0  0  0  0  0  0  0  0  0  0  0  0
   -4.5496   49.1802    0.0000 C   0  0  0  0  0  0  0  0  0  0  0  0
   -3.0710   48.9276    0.0000 C   0  0  0  0  0  0  0  0  0  0  0  0
   -1.6103   48.5863    0.0000 C   0  0  0  0  0  0  0  0  0  0  0  0
   -0.1730   48.1574    0.0000 C   0  0  0  0  0  0  0  0  0  0  0  0
    1.2359   47.6424    0.0000 C   0  0  0  0  0  0  0  0  0  0  0  0
    2.6111   47.0434    0.0000 C   0  0  0  0  0  0  0  0  0  0  0  0
    3.9476   46.3624    0.0000 C   0  0  0  0  0  0  0  0  0  0  0  0
    5.2405   45.6020    0.0000 C   0  0  0  0  0  0  0  0  0  0  0  0
    6.4852   44.7649    0.0000 C   0  0  0  0  0  0  0  0  0  0  0  0
    7.6771   43.8541    0.0000 C   0  0  0  0  0  0  0  0  0  0  0  0
    8.8118   42.8731    0.0000 C   0  0  0  0  0  0  0  0  0  0  0  0
    9.8852   41.8253    0.0000 C   0  0  0  0  0  0  0  0  0  0  0  0
   10.8934   40.7146    0.0000 C   0  0  0  0  0  0  0  0  0  0  0  0
   11.8327   39.5451    0.0000 C   0  0  0  0  0  0  0  0  0  0  0  0
   12.6996   38.3210    0.0000 C   0  0  0  0  0  0  0  0  0  0  0  0
   13.4911   37.0468    0.0000 C   0  0  0  0  0  0  0  0  0  0  0  0
   14.2041   35.7272    0.0000 C   0  0  0  0  0  0  0  0  0  0  0  0
   14.8362   34.3669    0.0000 C   0  0  0  0  0  0  0  0  0  0  0  0
   15.3851   32.9709    0.0000 C   0  0  0  0  0  0  0  0  0  0  0  0
   15.8486   31.5443    0.0000 C   0  0  0  0  0  0  0  0  0  0  0  0
   16.2251   30.0923    0.0000 C   0  0  0  0  0  0  0  0  0  0  0  0
   16.5133   28.6203    0.0000 C   0  0  0  0  0  0  0  0  0  0  0  0
   16.7121   27.1335    0.0000 C   0  0  0  0  0  0  0  0  0  0  0  0
   16.8208   25.6374    0.0000 C   0  0  0  0  0  0  0  0  0  0  0  0
   16.8389   24.1375    0.0000 C   0  0  0  0  0  0  0  0  0  0  0  0
   16.7664   22.6393    0.0000 C   0  0  0  0  0  0  0  0  0  0  0  0
   16.6036   21.1481    0.0000 C   0  0  0  0  0  0  0  0  0  0  0  0
   16.3511   19.6696    0.0000 C   0  0  0  0  0  0  0  0  0  0  0  0
   16.0097   18.2089    0.0000 C   0  0  0  0  0  0  0  0  0  0  0  0
   15.5808   16.7715    0.0000 C   0  0  0  0  0  0  0  0  0  0  0  0
   15.0659   15.3627    0.0000 C   0  0  0  0  0  0  0  0  0  0  0  0
   14.4668   13.9875    0.0000 C   0  0  0  0  0  0  0  0  0  0  0  0
   13.7859   12.6510    0.0000 C   0  0  0  0  0  0  0  0  0  0  0  0
   13.0254   11.3580    0.0000 C   0  0  0  0  0  0  0  0  0  0  0  0
   12.1883   10.1134    0.0000 C   0  0  0  0  0  0  0  0  0  0  0  0
   11.2776    8.9215    0.0000 C   0  0  0  0  0  0  0  0  0  0  0  0
   10.2965    7.7868    0.0000 C   0  0  0  0  0  0  0  0  0  0  0  0
    9.2487    6.7134    0.0000 C   0  0  0  0  0  0  0  0  0  0  0  0
    8.1381    5.7052    0.0000 C   0  0  0  0  0  0  0  0  0  0  0  0
    6.9686    4.7659    0.0000 C   0  0  0  0  0  0  0  0  0  0  0  0
    5.7445    3.8990    0.0000 C   0  0  0  0  0  0  0  0  0  0  0  0
    4.4703    3.1075    0.0000 C   0  0  0  0  0  0  0  0  0  0  0  0
    3.1506    2.3944    0.0000 C   0  0  0  0  0  0  0  0  0  0  0  0
    1.7903    1.7623    0.0000 C   0  0  0  0  0  0  0  0  0  0  0  0
    0.3943    1.2135    0.0000 C   0  0  0  0  0  0  0  0  0  0  0  0
    1.2760    0.0000    0.0000 C   0  0  0  0  0  0  0  0  0  0  0  0
    0.3943   -1.2135    0.0000 C   0  0  0  0  0  0  0  0  0  0  0  0
   -1.0323   -0.7500    0.0000 C   0  0  0  0  0  0  0  0  0  0  0  0
   -1.0323    0.7500    0.0000 C   0  0  0  0  0  0  0  0  0  0  0  0
  1  2  1  0
  2  3  1  0
  3  4  1  0
  4  5  1  0
  5  6  1  0
  6  7  1  0
  7  8  1  0
  8  9  1  0
  9 10  1  0
 10 11  1  0
 11 12  1  0
 12 13  1  0
 13 14  1  0
 14 15  1  0
 15 16  1  0
 16 17  1  0
 17 18  1  0
 18 19  1  0
 19 20  1  0
 20 21  1  0
 21 22  1  0
 22 23  1  0
 23 24  1  0
 24 25  1  0
 25 26  1  0
 26 27  1  0
 27 28  1  0
 28 29  1  0
 29 30  1  0
 30 31  1  0
 31 32  1  0
 32 33  1  0
 33 34  1  0
 34 35  1  0
 35 36  1  0
 36 37  1  0
 37 38  1  0
 38 39  1  0
 39 40  1  0
 40 41  1  0
 41 42  1  0
 42 43  1  0
 43 44  1  0
 44 45  1  0
 45 46  1  0
 46 47  1  0
 47 48  1  0
 48 49  1  0
 49 50  1  0
 50 51  1  0
 51 52  1  0
 52 53  1  0
 53 54  1  0
 54 55  1  0
 55 56  1  0
 56 57  1  0
 57 58  1  0
 58 59  1  0
 59 60  1  0
 60 61  1  0
 61 62  1  0
 62 63  1  0
 63 64  1  0
 64 65  1  0
 65 66  1  0
 66 67  1  0
 67 68  1  0
 68 69  1  0
 69 70  1  0
 70 71  1  0
 71 72  1  0
 72 73  1  0
 73 74  1  0
 74 75  1  0
 75 76  1  0
 76 77  1  0
 77 78  1  0
 78 79  1  0
 79 80  1  0
 80 81  1  0
 81 82  1  0
 82 83  1  0
 83 84  1  0
 84 85  1  0
 85 86  1  0
 86 87  1  0
 87 88  1  0
 88 89  1  0
 89 90  1  0
 90 91  1  0
 91 92  1  0
 92 93  1  0
 93 94  1  0
 94 95  1  0
 95 96  1  0
 96 97  1  0
 97 98  1  0
 98 99  1  0
 99100  1  0
100101  1  0
101102  1  0
102103  1  0
103104  1  0
104105  1  0
105106  2  0
106107  1  0
107108  2  0
108  2  1  0
108104  1  0
M  END
>  <Title>  (771) 
idABBSgen10

$$$$

     RDKit          2D

  8  8  0  0  0  0  0  0  0  0999 V2000
    3.0000    0.0000    0.0000 C   0  0  0  0  0  0  0  0  0  0  0  0
    1.5000    0.0000    0.0000 C   0  0  0  0  0  0  0  0  0  0  0  0
    0.7500   -1.2990    0.0000 C   0  0  0  0  0  0  0  0  0  0  0  0
   -0.7500   -1.2990    0.0000 C   0  0  0  0  0  0  0  0  0  0  0  0
   -1.5000    0.0000    0.0000 C   0  0  0  0  0  0  0  0  0  0  0  0
   -0.7500    1.2990    0.0000 C   0  0  0  0  0  0  0  0  0  0  0  0
   -1.5000    2.5981    0.0000 C   0  0  0  0  0  0  0  0  0  0  0  0
    0.7500    1.2990    0.0000 N   0  0  0  0  0  0  0  0  0  0  0  0
  1  2  1  0
  2  3  2  0
  3  4  1  0
  4  5  1  0
  5  6  2  0
  6  7  1  0
  6  8  1  0
  8  2  1  0
M  END
>  <Title>  (772) 
idABBTgen10

$$$$

     RDKit          2D

 74 78  0  0  0  0  0  0  0  0999 V2000
   -8.6160   -2.4243    0.0000 C   0  0  0  0  0  0  0  0  0  0  0  0
   -7.7743   -3.6658    0.0000 C   0  0  0  0  0  0  0  0  0  0  0  0
   -8.9684   -4.5736    0.0000 C   0  0  0  0  0  0  0  0  0  0  0  0
  -10.0574   -5.6051    0.0000 C   0  0  0  0  0  0  0  0  0  0  0  0
  -11.0285   -6.7483    0.0000 C   0  0  0  0  0  0  0  0  0  0  0  0
  -11.8703   -7.9899    0.0000 C   0  0  0  0  0  0  0  0  0  0  0  0
  -12.5729   -9.3151    0.0000 C   0  0  0  0  0  0  0  0  0  0  0  0
  -13.1281  -10.7086    0.0000 C   0  0  0  0  0  0  0  0  0  0  0  0
  -13.5294  -12.1539    0.0000 C   0  0  0  0  0  0  0  0  0  0  0  0
  -13.7720  -13.6342    0.0000 C   0  0  0  0  0  0  0  0  0  0  0  0
  -13.8533  -15.1320    0.0000 C   0  0  0  0  0  0  0  0  0  0  0  0
  -13.7720  -16.6298    0.0000 C   0  0  0  0  0  0  0  0  0  0  0  0
  -13.5294  -18.1100    0.0000 C   0  0  0  0  0  0  0  0  0  0  0  0
  -13.1281  -19.5553    0.0000 C   0  0  0  0  0  0  0  0  0  0  0  0
  -12.5729  -20.9488    0.0000 C   0  0  0  0  0  0  0  0  0  0  0  0
  -11.8703  -22.2741    0.0000 C   0  0  0  0  0  0  0  0  0  0  0  0
  -11.0285  -23.5156    0.0000 C   0  0  0  0  0  0  0  0  0  0  0  0
  -10.0574  -24.6588    0.0000 C   0  0  0  0  0  0  0  0  0  0  0  0
   -8.9684  -25.6904    0.0000 C   0  0  0  0  0  0  0  0  0  0  0  0
   -7.7743  -26.5982    0.0000 C   0  0  0  0  0  0  0  0  0  0  0  0
   -6.4890  -27.3715    0.0000 C   0  0  0  0  0  0  0  0  0  0  0  0
   -5.1276  -28.0013    0.0000 C   0  0  0  0  0  0  0  0  0  0  0  0
   -3.7061  -28.4803    0.0000 C   0  0  0  0  0  0  0  0  0  0  0  0
   -2.2412  -28.8027    0.0000 C   0  0  0  0  0  0  0  0  0  0  0  0
   -0.7500  -28.9649    0.0000 C   0  0  0  0  0  0  0  0  0  0  0  0
    0.7500  -28.9649    0.0000 C   0  0  0  0  0  0  0  0  0  0  0  0
    2.2412  -28.8027    0.0000 C   0  0  0  0  0  0  0  0  0  0  0  0
    3.7061  -28.4803    0.0000 C   0  0  0  0  0  0  0  0  0  0  0  0
    5.1276  -28.0013    0.0000 C   0  0  0  0  0  0  0  0  0  0  0  0
    6.4890  -27.3715    0.0000 C   0  0  0  0  0  0  0  0  0  0  0  0
    7.7743  -26.5982    0.0000 C   0  0  0  0  0  0  0  0  0  0  0  0
    8.9684  -25.6904    0.0000 C   0  0  0  0  0  0  0  0  0  0  0  0
   10.0574  -24.6588    0.0000 C   0  0  0  0  0  0  0  0  0  0  0  0
   11.0285  -23.5156    0.0000 C   0  0  0  0  0  0  0  0  0  0  0  0
   11.8703  -22.2741    0.0000 C   0  0  0  0  0  0  0  0  0  0  0  0
   12.5729  -20.9488    0.0000 C   0  0  0  0  0  0  0  0  0  0  0  0
   13.1281  -19.5553    0.0000 C   0  0  0  0  0  0  0  0  0  0  0  0
   13.5294  -18.1100    0.0000 C   0  0  0  0  0  0  0  0  0  0  0  0
   13.7720  -16.6298    0.0000 C   0  0  0  0  0  0  0  0  0  0  0  0
   13.8533  -15.1320    0.0000 C   0  0  0  0  0  0  0  0  0  0  0  0
   13.7720  -13.6342    0.0000 C   0  0  0  0  0  0  0  0  0  0  0  0
   13.5294  -12.1539    0.0000 C   0  0  0  0  0  0  0  0  0  0  0  0
   13.1281  -10.7086    0.0000 C   0  0  0  0  0  0  0  0  0  0  0  0
   12.5729   -9.3151    0.0000 C   0  0  0  0  0  0  0  0  0  0  0  0
   11.8703   -7.9899    0.0000 C   0  0  0  0  0  0  0  0  0  0  0  0
   11.0285   -6.7483    0.0000 C   0  0  0  0  0  0  0  0  0  0  0  0
   10.0574   -5.6051    0.0000 C   0  0  0  0  0  0  0  0  0  0  0  0
    8.9684   -4.5736    0.0000 C   0  0  0  0  0  0  0  0  0  0  0  0
    7.7743   -3.6658    0.0000 C   0  0  0  0  0  0  0  0  0  0  0  0
    6.4890   -2.8925    0.0000 C   0  0  0  0  0  0  0  0  0  0  0  0
    5.1276   -2.2626    0.0000 C   0  0  0  0  0  0  0  0  0  0  0  0
    3.7061   -1.7837    0.0000 C   0  0  0  0  0  0  0  0  0  0  0  0
    3.8522   -3.2765    0.0000 C   0  0  0  0  0  0  0  0  0  0  0  0
    2.4775   -3.8767    0.0000 C   0  0  0  0  0  0  0  0  0  0  0  0
    1.4818   -2.7548    0.0000 C   0  0  0  0  0  0  0  0  0  0  0  0
    2.2412   -1.4612    0.0000 C   0  0  0  0  0  0  0  0  0  0  0  0
    0.7500   -1.2990    0.0000 C   0  0  0  0  0  0  0  0  0  0  0  0
    1.5000    0.0000    0.0000 C   0  0  0  0  0  0  0  0  0  0  0  0
    0.7500    1.2990    0.0000 C   0  0  0  0  0  0  0  0  0  0  0  0
   -0.7500    1.2990    0.0000 C   0  0  0  0  0  0  0  0  0  0  0  0
   -1.5000    0.0000    0.0000 C   0  0  0  0  0  0  0  0  0  0  0  0
   -0.7500   -1.2990    0.0000 C   0  0  0  0  0  0  0  0  0  0  0  0
   -2.2412   -1.4612    0.0000 C   0  0  0  0  0  0  0  0  0  0  0  0
   -1.2295   -2.5687    0.0000 C   0  0  0  0  0  0  0  0  0  0  0  0
   -1.6827   -3.9986    0.0000 C   0  0  0  0  0  0  0  0  0  0  0  0
   -3.1476   -4.3210    0.0000 C   0  0  0  0  0  0  0  0  0  0  0  0
   -4.1593   -3.2136    0.0000 C   0  0  0  0  0  0  0  0  0  0  0  0
   -3.7061   -1.7837    0.0000 C   0  0  0  0  0  0  0  0  0  0  0  0
   -5.1276   -2.2626    0.0000 C   0  0  0  0  0  0  0  0  0  0  0  0
   -4.9924   -0.7687    0.0000 C   0  0  0  0  0  0  0  0  0  0  0  0
   -6.2185    0.0953    0.0000 C   0  0  0  0  0  0  0  0  0  0  0  0
   -7.5799   -0.5345    0.0000 C   0  0  0  0  0  0  0  0  0  0  0  0
   -7.7151   -2.0284    0.0000 C   0  0  0  0  0  0  0  0  0  0  0  0
   -6.4890   -2.8925    0.0000 C   0  0  0  0  0  0  0  0  0  0  0  0
  1  2  1  0
  2  3  1  0
  3  4  2  0
  4  5  1  0
  5  6  2  0
  6  7  1  0
  7  8  2  0
  8  9  1  0
  9 10  2  0
 10 11  1  0
 11 12  2  0
 12 13  1  0
 13 14  2  0
 14 15  1  0
 15 16  2  0
 16 17  1  0
 17 18  2  0
 18 19  1  0
 19 20  2  0
 20 21  1  0
 21 22  2  0
 22 23  1  0
 23 24  2  0
 24 25  1  0
 25 26  2  0
 26 27  1  0
 27 28  2  0
 28 29  1  0
 29 30  2  0
 30 31  1  0
 31 32  2  0
 32 33  1  0
 33 34  2  0
 34 35  1  0
 35 36  2  0
 36 37  1  0
 37 38  2  0
 38 39  1  0
 39 40  2  0
 40 41  1  0
 41 42  2  0
 42 43  1  0
 43 44  2  0
 44 45  1  0
 45 46  2  0
 46 47  1  0
 47 48  2  0
 48 49  1  0
 49 50  2  0
 50 51  1  0
 51 52  2  0
 52 53  1  0
 53 54  2  0
 54 55  1  0
 55 56  2  0
 56 57  1  0
 57 58  2  0
 58 59  1  0
 59 60  2  0
 60 61  1  0
 61 62  2  0
 62 63  1  0
 63 64  2  0
 64 65  1  0
 65 66  2  0
 66 67  1  0
 67 68  2  0
 68 69  1  0
 69 70  2  0
 70 71  1  0
 71 72  2  0
 72 73  1  0
 73 74  2  0
 74  2  1  0
 56 52  1  0
 62 57  1  0
 68 63  1  0
 74 69  1  0
M  END
>  <Title>  (773) 
idABBUgen10

$$$$

     RDKit          2D

 13 13  0  0  0  0  0  0  0  0999 V2000
    7.5000   -2.5981    0.0000 C   0  0  0  0  0  0  0  0  0  0  0  0
    6.0000   -2.5981    0.0000 C   0  0  0  0  0  0  0  0  0  0  0  0
    5.2500   -3.8971    0.0000 C   0  0  0  0  0  0  0  0  0  0  0  0
    5.2500   -1.2990    0.0000 C   0  0  0  0  0  0  0  0  0  0  0  0
    3.7500   -1.2990    0.0000 C   0  0  0  0  0  0  0  0  0  0  0  0
    3.0000   -2.5981    0.0000 O   0  0  0  0  0  0  0  0  0  0  0  0
    3.0000    0.0000    0.0000 N   0  0  0  0  0  0  0  0  0  0  0  0
    1.5000    0.0000    0.0000 C   0  0  0  0  0  0  0  0  0  0  0  0
    0.7500   -1.2990    0.0000 C   0  0  0  0  0  0  0  0  0  0  0  0
   -0.7500   -1.2990    0.0000 C   0  0  0  0  0  0  0  0  0  0  0  0
   -1.5000    0.0000    0.0000 C   0  0  0  0  0  0  0  0  0  0  0  0
   -0.7500    1.2990    0.0000 N   0  0  0  0  0  0  0  0  0  0  0  0
    0.7500    1.2990    0.0000 N   0  0  0  0  0  0  0  0  0  0  0  0
  1  2  1  0
  2  3  1  0
  2  4  1  0
  4  5  1  0
  5  6  2  0
  5  7  1  0
  7  8  1  0
  8  9  2  0
  9 10  1  0
 10 11  2  0
 11 12  1  0
 12 13  2  0
 13  8  1  0
M  END
>  <Title>  (774) 
idABBVgen10

$$$$

     RDKit          2D

 21 22  0  0  0  0  0  0  0  0999 V2000
    3.6929    0.0000    0.0000 C   0  0  0  0  0  0  0  0  0  0  0  0
    2.1929    0.0000    0.0000 C   0  0  0  0  0  0  0  0  0  0  0  0
    1.6798    1.4095    0.0000 C   0  0  0  0  0  0  0  0  0  0  0  0
    0.3808    2.1595    0.0000 C   0  0  0  0  0  0  0  0  0  0  0  0
   -1.0964    1.8991    0.0000 C   0  0  0  0  0  0  0  0  0  0  0  0
   -1.8464    3.1981    0.0000 C   0  0  0  0  0  0  0  0  0  0  0  0
   -2.0606    0.7500    0.0000 N   0  0  0  0  0  0  0  0  0  0  0  0
   -2.0606   -0.7500    0.0000 C   0  0  0  0  0  0  0  0  0  0  0  0
   -3.4701   -1.2630    0.0000 O   0  0  0  0  0  0  0  0  0  0  0  0
   -1.0964   -1.8991    0.0000 N   0  0  0  0  0  0  0  0  0  0  0  0
    0.3808   -2.1595    0.0000 C   0  0  0  0  0  0  0  0  0  0  0  0
    0.6413   -3.6368    0.0000 N   0  0  0  0  0  0  0  0  0  0  0  0
   -0.5078   -4.6009    0.0000 N   0  0  0  0  0  0  0  0  0  0  0  0
   -0.2473   -6.0781    0.0000 N   0  0  0  0  0  0  0  0  0  0  0  0
   -1.3964   -7.0423    0.0000 N   0  0  0  0  0  0  0  0  0  0  0  0
   -2.8059   -6.5293    0.0000 C   0  0  0  0  0  0  0  0  0  0  0  0
   -3.9550   -7.4935    0.0000 C   0  0  0  0  0  0  0  0  0  0  0  0
   -3.6945   -8.9707    0.0000 C   0  0  0  0  0  0  0  0  0  0  0  0
   -2.2850   -9.4837    0.0000 C   0  0  0  0  0  0  0  0  0  0  0  0
   -1.1359   -8.5195    0.0000 C   0  0  0  0  0  0  0  0  0  0  0  0
    1.6798   -1.4095    0.0000 C   0  0  0  0  0  0  0  0  0  0  0  0
  1  2  1  0
  2  3  1  0
  3  4  1  0
  4  5  1  0
  5  6  1  0
  5  7  1  0
  7  8  1  0
  8  9  2  0
  8 10  1  0
 10 11  1  0
 11 12  2  3
 12 13  1  0
 13 14  2  3
 14 15  1  0
 15 16  1  0
 16 17  2  0
 17 18  1  0
 18 19  2  0
 19 20  1  0
 11 21  1  0
 21  2  1  0
 20 15  1  0
M  END
>  <Title>  (775) 
idABBWgen10

$$$$

     RDKit          2D

 18 19  0  0  0  0  0  0  0  0999 V2000
    1.3774  -13.5373    0.0000 C   0  0  0  0  0  0  0  0  0  0  0  0
    1.5342  -12.0455    0.0000 C   0  0  0  0  0  0  0  0  0  0  0  0
    1.6910  -10.5537    0.0000 C   0  0  0  0  0  0  0  0  0  0  0  0
    1.8478   -9.0619    0.0000 C   0  0  0  0  0  0  0  0  0  0  0  0
    2.0046   -7.5702    0.0000 C   0  0  0  0  0  0  0  0  0  0  0  0
    3.3037   -6.8202    0.0000 C   0  0  0  0  0  0  0  0  0  0  0  0
    2.9918   -5.3529    0.0000 C   0  0  0  0  0  0  0  0  0  0  0  0
    1.5000   -5.1962    0.0000 C   0  0  0  0  0  0  0  0  0  0  0  0
    0.7500   -3.8971    0.0000 C   0  0  0  0  0  0  0  0  0  0  0  0
   -0.7500   -3.8971    0.0000 O   0  0  0  0  0  0  0  0  0  0  0  0
    1.5000   -2.5981    0.0000 O   0  0  0  0  0  0  0  0  0  0  0  0
    0.7500   -1.2990    0.0000 C   0  0  0  0  0  0  0  0  0  0  0  0
    1.5000    0.0000    0.0000 N   0  0  0  0  0  0  0  0  0  0  0  0
    0.7500    1.2990    0.0000 N   0  0  0  0  0  0  0  0  0  0  0  0
   -0.7500    1.2990    0.0000 N   0  0  0  0  0  0  0  0  0  0  0  0
   -1.5000    0.0000    0.0000 N   0  0  0  0  0  0  0  0  0  0  0  0
   -0.7500   -1.2990    0.0000 N   0  0  0  0  0  0  0  0  0  0  0  0
    0.8899   -6.5665    0.0000 C   0  0  0  0  0  0  0  0  0  0  0  0
  1  2  3  0
  2  3  1  0
  3  4  3  0
  4  5  1  0
  5  6  1  0
  6  7  2  0
  7  8  1  0
  8  9  1  0
  9 10  2  0
  9 11  1  0
 11 12  1  0
 12 13  2  0
 13 14  1  0
 14 15  2  0
 15 16  1  0
 16 17  2  0
  8 18  2  0
 18  5  1  0
 17 12  1  0
M  END
>  <Title>  (776) 
idABBXgen10

$$$$

     RDKit          2D

106106  0  0  0  0  0  0  0  0999 V2000
   25.3093    0.0000    0.0000 C   0  0  0  0  0  0  0  0  0  0  0  0
   25.2649   -1.4993    0.0000 C   0  0  0  0  0  0  0  0  0  0  0  0
   25.1317   -2.9934    0.0000 C   0  0  0  0  0  0  0  0  0  0  0  0
   24.9102   -4.4770    0.0000 C   0  0  0  0  0  0  0  0  0  0  0  0
   24.6013   -5.9448    0.0000 C   0  0  0  0  0  0  0  0  0  0  0  0
   24.2059   -7.3918    0.0000 C   0  0  0  0  0  0  0  0  0  0  0  0
   23.7255   -8.8128    0.0000 C   0  0  0  0  0  0  0  0  0  0  0  0
   23.1617  -10.2028    0.0000 C   0  0  0  0  0  0  0  0  0  0  0  0
   22.5166  -11.5570    0.0000 C   0  0  0  0  0  0  0  0  0  0  0  0
   21.7924  -12.8706    0.0000 C   0  0  0  0  0  0  0  0  0  0  0  0
   20.9917  -14.1390    0.0000 C   0  0  0  0  0  0  0  0  0  0  0  0
   20.1172  -15.3577    0.0000 C   0  0  0  0  0  0  0  0  0  0  0  0
   19.1721  -16.5225    0.0000 C   0  0  0  0  0  0  0  0  0  0  0  0
   18.1596  -17.6292    0.0000 C   0  0  0  0  0  0  0  0  0  0  0  0
   17.0834  -18.6741    0.0000 C   0  0  0  0  0  0  0  0  0  0  0  0
   15.9471  -19.6533    0.0000 C   0  0  0  0  0  0  0  0  0  0  0  0
   14.7548  -20.5635    0.0000 C   0  0  0  0  0  0  0  0  0  0  0  0
   13.5107  -21.4015    0.0000 C   0  0  0  0  0  0  0  0  0  0  0  0
   12.2192  -22.1643    0.0000 C   0  0  0  0  0  0  0  0  0  0  0  0
   10.8847  -22.8492    0.0000 C   0  0  0  0  0  0  0  0  0  0  0  0
    9.5119  -23.4539    0.0000 C   0  0  0  0  0  0  0  0  0  0  0  0
    8.1058  -23.9762    0.0000 C   0  0  0  0  0  0  0  0  0  0  0  0
    6.6712  -24.4143    0.0000 C   0  0  0  0  0  0  0  0  0  0  0  0
    5.2132  -24.7666    0.0000 C   0  0  0  0  0  0  0  0  0  0  0  0
    3.7368  -25.0320    0.0000 C   0  0  0  0  0  0  0  0  0  0  0  0
    2.2474  -25.2094    0.0000 C   0  0  0  0  0  0  0  0  0  0  0  0
    0.7500  -25.2982    0.0000 C   0  0  0  0  0  0  0  0  0  0  0  0
   -0.7500  -25.2982    0.0000 C   0  0  0  0  0  0  0  0  0  0  0  0
   -2.2474  -25.2094    0.0000 C   0  0  0  0  0  0  0  0  0  0  0  0
   -3.7368  -25.0320    0.0000 C   0  0  0  0  0  0  0  0  0  0  0  0
   -5.2132  -24.7666    0.0000 C   0  0  0  0  0  0  0  0  0  0  0  0
   -6.6712  -24.4143    0.0000 C   0  0  0  0  0  0  0  0  0  0  0  0
   -8.1058  -23.9762    0.0000 C   0  0  0  0  0  0  0  0  0  0  0  0
   -9.5119  -23.4539    0.0000 C   0  0  0  0  0  0  0  0  0  0  0  0
  -10.8847  -22.8492    0.0000 C   0  0  0  0  0  0  0  0  0  0  0  0
  -12.2192  -22.1643    0.0000 C   0  0  0  0  0  0  0  0  0  0  0  0
  -13.5107  -21.4015    0.0000 C   0  0  0  0  0  0  0  0  0  0  0  0
  -14.7548  -20.5635    0.0000 C   0  0  0  0  0  0  0  0  0  0  0  0
  -15.9471  -19.6533    0.0000 C   0  0  0  0  0  0  0  0  0  0  0  0
  -17.0834  -18.6741    0.0000 C   0  0  0  0  0  0  0  0  0  0  0  0
  -18.1596  -17.6292    0.0000 C   0  0  0  0  0  0  0  0  0  0  0  0
  -19.1721  -16.5225    0.0000 C   0  0  0  0  0  0  0  0  0  0  0  0
  -20.1172  -15.3577    0.0000 C   0  0  0  0  0  0  0  0  0  0  0  0
  -20.9917  -14.1390    0.0000 C   0  0  0  0  0  0  0  0  0  0  0  0
  -21.7924  -12.8706    0.0000 C   0  0  0  0  0  0  0  0  0  0  0  0
  -22.5166  -11.5570    0.0000 C   0  0  0  0  0  0  0  0  0  0  0  0
  -23.1617  -10.2028    0.0000 C   0  0  0  0  0  0  0  0  0  0  0  0
  -23.7255   -8.8128    0.0000 C   0  0  0  0  0  0  0  0  0  0  0  0
  -24.2059   -7.3918    0.0000 C   0  0  0  0  0  0  0  0  0  0  0  0
  -24.6013   -5.9448    0.0000 C   0  0  0  0  0  0  0  0  0  0  0  0
  -24.9102   -4.4770    0.0000 C   0  0  0  0  0  0  0  0  0  0  0  0
  -25.1317   -2.9934    0.0000 C   0  0  0  0  0  0  0  0  0  0  0  0
  -25.2649   -1.4993    0.0000 C   0  0  0  0  0  0  0  0  0  0  0  0
  -25.3093    0.0000    0.0000 C   0  0  0  0  0  0  0  0  0  0  0  0
  -25.2649    1.4993    0.0000 C   0  0  0  0  0  0  0  0  0  0  0  0
  -25.1317    2.9934    0.0000 C   0  0  0  0  0  0  0  0  0  0  0  0
  -24.9102    4.4770    0.0000 C   0  0  0  0  0  0  0  0  0  0  0  0
  -24.6013    5.9448    0.0000 C   0  0  0  0  0  0  0  0  0  0  0  0
  -24.2059    7.3918    0.0000 C   0  0  0  0  0  0  0  0  0  0  0  0
  -23.7255    8.8128    0.0000 C   0  0  0  0  0  0  0  0  0  0  0  0
  -23.1617   10.2028    0.0000 C   0  0  0  0  0  0  0  0  0  0  0  0
  -22.5166   11.5570    0.0000 C   0  0  0  0  0  0  0  0  0  0  0  0
  -21.7924   12.8706    0.0000 C   0  0  0  0  0  0  0  0  0  0  0  0
  -20.9917   14.1390    0.0000 C   0  0  0  0  0  0  0  0  0  0  0  0
  -20.1172   15.3577    0.0000 C   0  0  0  0  0  0  0  0  0  0  0  0
  -19.1721   16.5225    0.0000 C   0  0  0  0  0  0  0  0  0  0  0  0
  -18.1596   17.6292    0.0000 C   0  0  0  0  0  0  0  0  0  0  0  0
  -17.0834   18.6741    0.0000 C   0  0  0  0  0  0  0  0  0  0  0  0
  -15.9471   19.6533    0.0000 C   0  0  0  0  0  0  0  0  0  0  0  0
  -14.7548   20.5635    0.0000 C   0  0  0  0  0  0  0  0  0  0  0  0
  -13.5107   21.4015    0.0000 C   0  0  0  0  0  0  0  0  0  0  0  0
  -12.2192   22.1643    0.0000 C   0  0  0  0  0  0  0  0  0  0  0  0
  -10.8847   22.8492    0.0000 C   0  0  0  0  0  0  0  0  0  0  0  0
   -9.5119   23.4539    0.0000 C   0  0  0  0  0  0  0  0  0  0  0  0
   -8.1058   23.9762    0.0000 C   0  0  0  0  0  0  0  0  0  0  0  0
   -6.6712   24.4143    0.0000 C   0  0  0  0  0  0  0  0  0  0  0  0
   -5.2132   24.7666    0.0000 C   0  0  0  0  0  0  0  0  0  0  0  0
   -3.7368   25.0320    0.0000 C   0  0  0  0  0  0  0  0  0  0  0  0
   -2.2474   25.2094    0.0000 C   0  0  0  0  0  0  0  0  0  0  0  0
   -0.7500   25.2982    0.0000 C   0  0  0  0  0  0  0  0  0  0  0  0
    0.7500   25.2982    0.0000 C   0  0  0  0  0  0  0  0  0  0  0  0
    2.2474   25.2094    0.0000 C   0  0  0  0  0  0  0  0  0  0  0  0
    3.7368   25.0320    0.0000 C   0  0  0  0  0  0  0  0  0  0  0  0
    5.2132   24.7666    0.0000 C   0  0  0  0  0  0  0  0  0  0  0  0
    6.6712   24.4143    0.0000 C   0  0  0  0  0  0  0  0  0  0  0  0
    8.1058   23.9762    0.0000 C   0  0  0  0  0  0  0  0  0  0  0  0
    9.5119   23.4539    0.0000 C   0  0  0  0  0  0  0  0  0  0  0  0
   10.8847   22.8492    0.0000 C   0  0  0  0  0  0  0  0  0  0  0  0
   12.2192   22.1643    0.0000 C   0  0  0  0  0  0  0  0  0  0  0  0
   13.5107   21.4015    0.0000 C   0  0  0  0  0  0  0  0  0  0  0  0
   14.7548   20.5635    0.0000 C   0  0  0  0  0  0  0  0  0  0  0  0
   15.9471   19.6533    0.0000 C   0  0  0  0  0  0  0  0  0  0  0  0
   17.0834   18.6741    0.0000 C   0  0  0  0  0  0  0  0  0  0  0  0
   18.1596   17.6292    0.0000 C   0  0  0  0  0  0  0  0  0  0  0  0
   19.1721   16.5225    0.0000 C   0  0  0  0  0  0  0  0  0  0  0  0
   20.1172   15.3577    0.0000 C   0  0  0  0  0  0  0  0  0  0  0  0
   20.9917   14.1390    0.0000 C   0  0  0  0  0  0  0  0  0  0  0  0
   21.7924   12.8706    0.0000 C   0  0  0  0  0  0  0  0  0  0  0  0
   22.5166   11.5570    0.0000 C   0  0  0  0  0  0  0  0  0  0  0  0
   23.1617   10.2028    0.0000 C   0  0  0  0  0  0  0  0  0  0  0  0
   23.7255    8.8128    0.0000 C   0  0  0  0  0  0  0  0  0  0  0  0
   24.2059    7.3918    0.0000 C   0  0  0  0  0  0  0  0  0  0  0  0
   24.6013    5.9448    0.0000 C   0  0  0  0  0  0  0  0  0  0  0  0
   24.9102    4.4770    0.0000 C   0  0  0  0  0  0  0  0  0  0  0  0
   25.1317    2.9934    0.0000 C   0  0  0  0  0  0  0  0  0  0  0  0
   25.2649    1.4993    0.0000 C   0  0  0  0  0  0  0  0  0  0  0  0
  1  2  1  0
  2  3  1  0
  3  4  1  0
  4  5  1  0
  5  6  1  0
  6  7  1  0
  7  8  1  0
  8  9  1  0
  9 10  1  0
 10 11  1  0
 11 12  1  0
 12 13  1  0
 13 14  1  0
 14 15  1  0
 15 16  1  0
 16 17  1  0
 17 18  1  0
 18 19  1  0
 19 20  1  0
 20 21  1  0
 21 22  1  0
 22 23  1  0
 23 24  1  0
 24 25  1  0
 25 26  1  0
 26 27  1  0
 27 28  1  0
 28 29  1  0
 29 30  1  0
 30 31  1  0
 31 32  1  0
 32 33  1  0
 33 34  1  0
 34 35  1  0
 35 36  1  0
 36 37  1  0
 37 38  1  0
 38 39  1  0
 39 40  1  0
 40 41  1  0
 41 42  1  0
 42 43  1  0
 43 44  1  0
 44 45  1  0
 45 46  1  0
 46 47  1  0
 47 48  1  0
 48 49  1  0
 49 50  1  0
 50 51  1  0
 51 52  1  0
 52 53  1  0
 53 54  1  0
 54 55  1  0
 55 56  1  0
 56 57  1  0
 57 58  1  0
 58 59  1  0
 59 60  1  0
 60 61  1  0
 61 62  1  0
 62 63  1  0
 63 64  1  0
 64 65  1  0
 65 66  1  0
 66 67  1  0
 67 68  1  0
 68 69  1  0
 69 70  1  0
 70 71  1  0
 71 72  1  0
 72 73  1  0
 73 74  1  0
 74 75  1  0
 75 76  1  0
 76 77  1  0
 77 78  1  0
 78 79  1  0
 79 80  1  0
 80 81  1  0
 81 82  1  0
 82 83  1  0
 83 84  1  0
 84 85  1  0
 85 86  1  0
 86 87  1  0
 87 88  1  0
 88 89  1  0
 89 90  1  0
 90 91  1  0
 91 92  1  0
 92 93  1  0
 93 94  1  0
 94 95  1  0
 95 96  1  0
 96 97  1  0
 97 98  1  0
 98 99  1  0
 99100  1  0
100101  1  0
101102  1  0
102103  1  0
103104  1  0
104105  1  0
105106  1  0
106  1  1  0
M  END
>  <Title>  (777) 
idABBYgen10

$$$$

     RDKit          2D

  6  6  0  0  0  0  0  0  0  0999 V2000
    2.7760    0.0000    0.0000 C   0  0  0  0  0  0  0  0  0  0  0  0
    1.2760    0.0000    0.0000 N   0  0  0  0  0  0  0  0  0  0  0  0
    0.3943    1.2135    0.0000 C   0  0  0  0  0  0  0  0  0  0  0  0
   -1.0323    0.7500    0.0000 C   0  0  0  0  0  0  0  0  0  0  0  0
   -1.0323   -0.7500    0.0000 C   0  0  0  0  0  0  0  0  0  0  0  0
    0.3943   -1.2135    0.0000 C   0  0  0  0  0  0  0  0  0  0  0  0
  1  2  1  0
  2  3  1  0
  3  4  1  0
  4  5  2  0
  5  6  1  0
  6  2  1  0
M  END
>  <Title>  (778) 
idABBZgen10

$$$$

     RDKit          2D

  5  4  0  0  0  0  0  0  0  0999 V2000
    0.0000    0.0000    0.0000 C   0  0  0  0  0  0  0  0  0  0  0  0
   -0.0000   -1.5000    0.0000 C   0  0  0  0  0  0  0  0  0  0  0  0
   -0.0000   -3.0000    0.0000 C   0  0  0  0  0  0  0  0  0  0  0  0
    1.2990   -3.7500    0.0000 C   0  0  0  0  0  0  0  0  0  0  0  0
    2.5981   -4.5000    0.0000 N   0  0  0  0  0  0  0  0  0  0  0  0
  1  2  3  0
  2  3  1  0
  3  4  1  0
  4  5  3  0
M  END
>  <Title>  (779) 
idABCAgen10

$$$$

     RDKit          2D

 12 12  0  0  0  0  0  0  0  0999 V2000
    5.0260   -1.2990    0.0000 C   0  0  0  0  0  0  0  0  0  0  0  0
    3.5260   -1.2990    0.0000 C   0  0  0  0  0  0  0  0  0  0  0  0
    2.7760   -2.5981    0.0000 O   0  0  0  0  0  0  0  0  0  0  0  0
    2.7760    0.0000    0.0000 N   0  0  0  0  0  0  0  0  0  0  0  0
    1.2760    0.0000    0.0000 C   0  0  0  0  0  0  0  0  0  0  0  0
    0.3943    1.2135    0.0000 C   0  0  0  0  0  0  0  0  0  0  0  0
   -1.0323    0.7500    0.0000 C   0  0  0  0  0  0  0  0  0  0  0  0
   -2.2458    1.6317    0.0000 C   0  0  0  0  0  0  0  0  0  0  0  0
   -1.0323   -0.7500    0.0000 N   0  0  0  0  0  0  0  0  0  0  0  0
   -2.2458   -1.6317    0.0000 C   0  0  0  0  0  0  0  0  0  0  0  0
    0.3943   -1.2135    0.0000 C   0  0  0  0  0  0  0  0  0  0  0  0
    0.8578   -2.6401    0.0000 O   0  0  0  0  0  0  0  0  0  0  0  0
  1  2  1  0
  2  3  2  0
  2  4  1  0
  4  5  1  0
  5  6  1  0
  6  7  1  0
  7  8  1  0
  7  9  1  0
  9 10  1  0
  9 11  1  0
 11 12  2  0
 11  5  1  0
M  END
>  <Title>  (780) 
idABCBgen10

$$$$

     RDKit          2D

 13 13  0  0  0  0  0  0  0  0999 V2000
    6.0000   -5.1962    0.0000 C   0  0  0  0  0  0  0  0  0  0  0  0
    5.2500   -3.8971    0.0000 C   0  0  0  0  0  0  0  0  0  0  0  0
    4.5000   -2.5981    0.0000 C   0  0  0  0  0  0  0  0  0  0  0  0
    3.7500   -1.2990    0.0000 C   0  0  0  0  0  0  0  0  0  0  0  0
    3.0000    0.0000    0.0000 C   0  0  0  0  0  0  0  0  0  0  0  0
    3.7500    1.2990    0.0000 O   0  0  0  0  0  0  0  0  0  0  0  0
    1.5000    0.0000    0.0000 C   0  0  0  0  0  0  0  0  0  0  0  0
    0.7500   -1.2990    0.0000 C   0  0  0  0  0  0  0  0  0  0  0  0
   -0.7500   -1.2990    0.0000 C   0  0  0  0  0  0  0  0  0  0  0  0
   -1.5000    0.0000    0.0000 C   0  0  0  0  0  0  0  0  0  0  0  0
   -0.7500    1.2990    0.0000 C   0  0  0  0  0  0  0  0  0  0  0  0
    0.7500    1.2990    0.0000 C   0  0  0  0  0  0  0  0  0  0  0  0
    1.5000    2.5981    0.0000 C   0  0  0  0  0  0  0  0  0  0  0  0
  1  2  3  0
  2  3  1  0
  3  4  3  0
  4  5  1  0
  5  6  2  0
  5  7  1  0
  7  8  2  0
  8  9  1  0
  9 10  2  0
 10 11  1  0
 11 12  2  0
 12 13  1  0
 12  7  1  0
M  END
>  <Title>  (781) 
idABCCgen10

$$$$

     RDKit          2D

 60 61  0  0  0  0  0  0  0  0999 V2000
    0.6735   -3.5136    0.0000 C   0  0  0  0  0  0  0  0  0  0  0  0
    2.0667   -4.0694    0.0000 C   0  0  0  0  0  0  0  0  0  0  0  0
    1.6094   -5.4980    0.0000 C   0  0  0  0  0  0  0  0  0  0  0  0
    1.3554   -6.9764    0.0000 C   0  0  0  0  0  0  0  0  0  0  0  0
    1.3096   -8.4757    0.0000 C   0  0  0  0  0  0  0  0  0  0  0  0
    1.4729   -9.9667    0.0000 C   0  0  0  0  0  0  0  0  0  0  0  0
    1.8421  -11.4206    0.0000 C   0  0  0  0  0  0  0  0  0  0  0  0
    2.4101  -12.8089    0.0000 C   0  0  0  0  0  0  0  0  0  0  0  0
    3.1658  -14.1047    0.0000 C   0  0  0  0  0  0  0  0  0  0  0  0
    4.0944  -15.2826    0.0000 C   0  0  0  0  0  0  0  0  0  0  0  0
    5.1779  -16.3199    0.0000 C   0  0  0  0  0  0  0  0  0  0  0  0
    6.3953  -17.1963    0.0000 C   0  0  0  0  0  0  0  0  0  0  0  0
    7.7228  -17.8947    0.0000 C   0  0  0  0  0  0  0  0  0  0  0  0
    9.1345  -18.4016    0.0000 C   0  0  0  0  0  0  0  0  0  0  0  0
   10.6031  -18.7070    0.0000 C   0  0  0  0  0  0  0  0  0  0  0  0
   12.0999  -18.8051    0.0000 C   0  0  0  0  0  0  0  0  0  0  0  0
   13.5958  -18.6940    0.0000 C   0  0  0  0  0  0  0  0  0  0  0  0
   15.0616  -18.3757    0.0000 C   0  0  0  0  0  0  0  0  0  0  0  0
   16.4689  -17.8565    0.0000 C   0  0  0  0  0  0  0  0  0  0  0  0
   17.7902  -17.1466    0.0000 C   0  0  0  0  0  0  0  0  0  0  0  0
   18.9999  -16.2596    0.0000 C   0  0  0  0  0  0  0  0  0  0  0  0
   20.0744  -15.2129    0.0000 C   0  0  0  0  0  0  0  0  0  0  0  0
   20.9927  -14.0269    0.0000 C   0  0  0  0  0  0  0  0  0  0  0  0
   21.7370  -12.7246    0.0000 C   0  0  0  0  0  0  0  0  0  0  0  0
   22.2929  -11.3314    0.0000 C   0  0  0  0  0  0  0  0  0  0  0  0
   22.6494   -9.8743    0.0000 C   0  0  0  0  0  0  0  0  0  0  0  0
   22.7997   -8.3819    0.0000 C   0  0  0  0  0  0  0  0  0  0  0  0
   22.7408   -6.8830    0.0000 C   0  0  0  0  0  0  0  0  0  0  0  0
   22.4739   -5.4070    0.0000 C   0  0  0  0  0  0  0  0  0  0  0  0
   22.0041   -3.9824    0.0000 C   0  0  0  0  0  0  0  0  0  0  0  0
   21.3407   -2.6371    0.0000 C   0  0  0  0  0  0  0  0  0  0  0  0
   20.4965   -1.3972    0.0000 C   0  0  0  0  0  0  0  0  0  0  0  0
   19.4879   -0.2869    0.0000 C   0  0  0  0  0  0  0  0  0  0  0  0
   18.3347    0.6722    0.0000 C   0  0  0  0  0  0  0  0  0  0  0  0
   17.0591    1.4616    0.0000 C   0  0  0  0  0  0  0  0  0  0  0  0
   15.6862    2.0657    0.0000 C   0  0  0  0  0  0  0  0  0  0  0  0
   14.2425    2.4728    0.0000 C   0  0  0  0  0  0  0  0  0  0  0  0
   12.7562    2.6751    0.0000 C   0  0  0  0  0  0  0  0  0  0  0  0
   11.2562    2.6686    0.0000 C   0  0  0  0  0  0  0  0  0  0  0  0
    9.7717    2.4533    0.0000 C   0  0  0  0  0  0  0  0  0  0  0  0
    8.3316    2.0336    0.0000 C   0  0  0  0  0  0  0  0  0  0  0  0
    6.9640    1.4175    0.0000 C   0  0  0  0  0  0  0  0  0  0  0  0
    5.6954    0.6171    0.0000 C   0  0  0  0  0  0  0  0  0  0  0  0
    4.5506   -0.3521    0.0000 C   0  0  0  0  0  0  0  0  0  0  0  0
    3.5517   -1.4712    0.0000 C   0  0  0  0  0  0  0  0  0  0  0  0
    3.8444    0.0000    0.0000 C   0  0  0  0  0  0  0  0  0  0  0  0
    3.5517    1.4712    0.0000 C   0  0  0  0  0  0  0  0  0  0  0  0
    2.7184    2.7184    0.0000 C   0  0  0  0  0  0  0  0  0  0  0  0
    1.4712    3.5517    0.0000 C   0  0  0  0  0  0  0  0  0  0  0  0
    0.0000    3.8444    0.0000 C   0  0  0  0  0  0  0  0  0  0  0  0
   -1.4712    3.5517    0.0000 C   0  0  0  0  0  0  0  0  0  0  0  0
   -2.7184    2.7184    0.0000 C   0  0  0  0  0  0  0  0  0  0  0  0
   -3.5517    1.4712    0.0000 C   0  0  0  0  0  0  0  0  0  0  0  0
   -3.8444    0.0000    0.0000 C   0  0  0  0  0  0  0  0  0  0  0  0
   -3.5517   -1.4712    0.0000 C   0  0  0  0  0  0  0  0  0  0  0  0
   -2.7184   -2.7184    0.0000 C   0  0  0  0  0  0  0  0  0  0  0  0
   -1.4712   -3.5517    0.0000 C   0  0  0  0  0  0  0  0  0  0  0  0
   -0.0000   -3.8444    0.0000 C   0  0  0  0  0  0  0  0  0  0  0  0
    1.4712   -3.5517    0.0000 C   0  0  0  0  0  0  0  0  0  0  0  0
    2.7184   -2.7184    0.0000 C   0  0  0  0  0  0  0  0  0  0  0  0
  1  2  1  0
  2  3  2  0
  3  4  1  0
  4  5  2  0
  5  6  1  0
  6  7  2  0
  7  8  1  0
  8  9  2  0
  9 10  1  0
 10 11  2  0
 11 12  1  0
 12 13  2  0
 13 14  1  0
 14 15  2  0
 15 16  1  0
 16 17  2  0
 17 18  1  0
 18 19  2  0
 19 20  1  0
 20 21  2  0
 21 22  1  0
 22 23  2  0
 23 24  1  0
 24 25  2  0
 25 26  1  0
 26 27  2  0
 27 28  1  0
 28 29  2  0
 29 30  1  0
 30 31  2  0
 31 32  1  0
 32 33  2  0
 33 34  1  0
 34 35  2  0
 35 36  1  0
 36 37  2  0
 37 38  1  0
 38 39  2  0
 39 40  1  0
 40 41  2  0
 41 42  1  0
 42 43  2  0
 43 44  1  0
 44 45  2  0
 45 46  1  0
 46 47  1  0
 47 48  1  0
 48 49  1  0
 49 50  1  0
 50 51  1  0
 51 52  1  0
 52 53  1  0
 53 54  1  0
 54 55  1  0
 55 56  2  0
 56 57  1  0
 57 58  2  0
 58 59  1  0
 59 60  2  0
 60  2  1  0
 60 45  1  0
M  END
>  <Title>  (782) 
idABCDgen10

$$$$

     RDKit          2D

  8  8  0  0  0  0  0  0  0  0999 V2000
    4.5000    0.0000    0.0000 N   0  0  0  0  0  0  0  0  0  0  0  0
    3.0000    0.0000    0.0000 C   0  0  0  0  0  0  0  0  0  0  0  0
    1.5000    0.0000    0.0000 C   0  0  0  0  0  0  0  0  0  0  0  0
    0.7500   -1.2990    0.0000 C   0  0  0  0  0  0  0  0  0  0  0  0
   -0.7500   -1.2990    0.0000 C   0  0  0  0  0  0  0  0  0  0  0  0
   -1.5000    0.0000    0.0000 C   0  0  0  0  0  0  0  0  0  0  0  0
   -0.7500    1.2990    0.0000 C   0  0  0  0  0  0  0  0  0  0  0  0
    0.7500    1.2990    0.0000 N   0  0  0  0  0  0  0  0  0  0  0  0
  1  2  3  0
  2  3  1  0
  3  4  2  0
  4  5  1  0
  5  6  2  0
  6  7  1  0
  7  8  2  0
  8  3  1  0
M  END
>  <Title>  (783) 
idABCEgen10

$$$$

     RDKit          2D

  7  7  0  0  0  0  0  0  0  0999 V2000
    3.0000    0.0000    0.0000 C   0  0  0  0  0  0  0  0  0  0  0  0
    1.5000    0.0000    0.0000 C   0  0  0  0  0  0  0  0  0  0  0  0
    0.7500   -1.2990    0.0000 C   0  0  0  0  0  0  0  0  0  0  0  0
   -0.7500   -1.2990    0.0000 C   0  0  0  0  0  0  0  0  0  0  0  0
   -1.5000    0.0000    0.0000 C   0  0  0  0  0  0  0  0  0  0  0  0
   -0.7500    1.2990    0.0000 C   0  0  0  0  0  0  0  0  0  0  0  0
    0.7500    1.2990    0.0000 C   0  0  0  0  0  0  0  0  0  0  0  0
  1  2  1  0
  2  3  1  0
  3  4  2  0
  4  5  1  0
  5  6  1  0
  6  7  1  0
  7  2  1  0
M  END
>  <Title>  (784) 
idABCFgen10

$$$$

     RDKit          2D

  8  7  0  0  0  0  0  0  0  0999 V2000
    0.0000    0.0000    0.0000 C   0  0  0  0  0  0  0  0  0  0  0  0
   -0.0000   -1.5000    0.0000 C   0  0  0  0  0  0  0  0  0  0  0  0
   -0.0000   -3.0000    0.0000 C   0  0  0  0  0  0  0  0  0  0  0  0
   -0.0000   -4.5000    0.0000 C   0  0  0  0  0  0  0  0  0  0  0  0
   -0.0000   -6.0000    0.0000 C   0  0  0  0  0  0  0  0  0  0  0  0
   -0.0000   -7.5000    0.0000 C   0  0  0  0  0  0  0  0  0  0  0  0
   -0.0000   -9.0000    0.0000 C   0  0  0  0  0  0  0  0  0  0  0  0
   -0.0000  -10.5000    0.0000 N   0  0  0  0  0  0  0  0  0  0  0  0
  1  2  3  0
  2  3  1  0
  3  4  3  0
  4  5  1  0
  5  6  3  0
  6  7  1  0
  7  8  3  0
M  END
>  <Title>  (785) 
idABCGgen10

$$$$

     RDKit          2D

 11 11  0  0  0  0  0  0  0  0999 V2000
    6.7500   -3.8971    0.0000 C   0  0  0  0  0  0  0  0  0  0  0  0
    6.0000   -2.5981    0.0000 C   0  0  0  0  0  0  0  0  0  0  0  0
    5.2500   -1.2990    0.0000 C   0  0  0  0  0  0  0  0  0  0  0  0
    3.7500   -1.2990    0.0000 N   0  0  0  0  0  0  0  0  0  0  0  0
    3.0000    0.0000    0.0000 C   0  0  0  0  0  0  0  0  0  0  0  0
    1.5000    0.0000    0.0000 C   0  0  0  0  0  0  0  0  0  0  0  0
    0.7500   -1.2990    0.0000 C   0  0  0  0  0  0  0  0  0  0  0  0
   -0.7500   -1.2990    0.0000 C   0  0  0  0  0  0  0  0  0  0  0  0
   -1.5000    0.0000    0.0000 C   0  0  0  0  0  0  0  0  0  0  0  0
   -0.7500    1.2990    0.0000 C   0  0  0  0  0  0  0  0  0  0  0  0
    0.7500    1.2990    0.0000 C   0  0  0  0  0  0  0  0  0  0  0  0
  1  2  3  0
  2  3  1  0
  3  4  1  0
  4  5  1  0
  5  6  1  0
  6  7  2  0
  7  8  1  0
  8  9  2  0
  9 10  1  0
 10 11  2  0
 11  6  1  0
M  END
>  <Title>  (786) 
idABCHgen10

$$$$

     RDKit          2D

 12 12  0  0  0  0  0  0  0  0999 V2000
   10.2760   -0.0000    0.0000 C   0  0  0  0  0  0  0  0  0  0  0  0
    8.7760   -0.0000    0.0000 C   0  0  0  0  0  0  0  0  0  0  0  0
    7.2760   -0.0000    0.0000 C   0  0  0  0  0  0  0  0  0  0  0  0
    5.7760   -0.0000    0.0000 C   0  0  0  0  0  0  0  0  0  0  0  0
    4.2760   -0.0000    0.0000 C   0  0  0  0  0  0  0  0  0  0  0  0
    2.7760    0.0000    0.0000 C   0  0  0  0  0  0  0  0  0  0  0  0
    1.2760    0.0000    0.0000 C   0  0  0  0  0  0  0  0  0  0  0  0
    0.3943    1.2135    0.0000 C   0  0  0  0  0  0  0  0  0  0  0  0
   -1.0323    0.7500    0.0000 C   0  0  0  0  0  0  0  0  0  0  0  0
   -1.0323   -0.7500    0.0000 C   0  0  0  0  0  0  0  0  0  0  0  0
   -2.2458   -1.6317    0.0000 C   0  0  0  0  0  0  0  0  0  0  0  0
    0.3943   -1.2135    0.0000 N   0  0  0  0  0  0  0  0  0  0  0  0
  1  2  3  0
  2  3  1  0
  3  4  3  0
  4  5  1  0
  5  6  3  0
  6  7  1  0
  7  8  2  0
  8  9  1  0
  9 10  2  0
 10 11  1  0
 10 12  1  0
 12  7  1  0
M  END
>  <Title>  (787) 
idABCIgen10

$$$$

     RDKit          2D

 11 12  0  0  0  0  0  0  0  0999 V2000
   -3.0000   -2.5981    0.0000 O   0  0  0  0  0  0  0  0  0  0  0  0
   -1.5000   -2.5981    0.0000 C   0  0  0  0  0  0  0  0  0  0  0  0
   -0.7500   -3.8971    0.0000 C   0  0  0  0  0  0  0  0  0  0  0  0
    0.7500   -3.8971    0.0000 C   0  0  0  0  0  0  0  0  0  0  0  0
    1.5000   -2.5981    0.0000 C   0  0  0  0  0  0  0  0  0  0  0  0
    0.7500   -1.2990    0.0000 C   0  0  0  0  0  0  0  0  0  0  0  0
    1.5000    0.0000    0.0000 C   0  0  0  0  0  0  0  0  0  0  0  0
    0.7500    1.2990    0.0000 C   0  0  0  0  0  0  0  0  0  0  0  0
   -0.7500    1.2990    0.0000 C   0  0  0  0  0  0  0  0  0  0  0  0
   -1.5000    0.0000    0.0000 C   0  0  0  0  0  0  0  0  0  0  0  0
   -0.7500   -1.2990    0.0000 C   0  0  0  0  0  0  0  0  0  0  0  0
  1  2  1  0
  2  3  2  0
  3  4  1  0
  4  5  1  0
  5  6  1  0
  6  7  2  0
  7  8  1  0
  8  9  2  0
  9 10  1  0
 10 11  2  0
 11  2  1  0
 11  6  1  0
M  END
>  <Title>  (788) 
idABCJgen10

$$$$

     RDKit          2D

 51 55  0  0  0  0  0  0  0  0999 V2000
   -9.4645   -7.6236    0.0000 C   0  0  0  0  0  0  0  0  0  0  0  0
   -7.9901   -7.8992    0.0000 C   0  0  0  0  0  0  0  0  0  0  0  0
   -8.1285   -9.3928    0.0000 C   0  0  0  0  0  0  0  0  0  0  0  0
   -7.9901  -10.8864    0.0000 C   0  0  0  0  0  0  0  0  0  0  0  0
   -7.5796  -12.3292    0.0000 C   0  0  0  0  0  0  0  0  0  0  0  0
   -6.9110  -13.6719    0.0000 C   0  0  0  0  0  0  0  0  0  0  0  0
   -6.0070  -14.8689    0.0000 C   0  0  0  0  0  0  0  0  0  0  0  0
   -4.8985  -15.8795    0.0000 C   0  0  0  0  0  0  0  0  0  0  0  0
   -3.6232  -16.6691    0.0000 C   0  0  0  0  0  0  0  0  0  0  0  0
   -2.2245  -17.2110    0.0000 C   0  0  0  0  0  0  0  0  0  0  0  0
   -0.7500  -17.4866    0.0000 C   0  0  0  0  0  0  0  0  0  0  0  0
    0.7500  -17.4866    0.0000 C   0  0  0  0  0  0  0  0  0  0  0  0
    2.2245  -17.2110    0.0000 C   0  0  0  0  0  0  0  0  0  0  0  0
    3.6232  -16.6691    0.0000 C   0  0  0  0  0  0  0  0  0  0  0  0
    4.8985  -15.8795    0.0000 C   0  0  0  0  0  0  0  0  0  0  0  0
    6.0070  -14.8689    0.0000 C   0  0  0  0  0  0  0  0  0  0  0  0
    6.9110  -13.6719    0.0000 C   0  0  0  0  0  0  0  0  0  0  0  0
    7.5796  -12.3292    0.0000 C   0  0  0  0  0  0  0  0  0  0  0  0
    7.9901  -10.8864    0.0000 C   0  0  0  0  0  0  0  0  0  0  0  0
    8.1285   -9.3928    0.0000 C   0  0  0  0  0  0  0  0  0  0  0  0
    7.9901   -7.8992    0.0000 C   0  0  0  0  0  0  0  0  0  0  0  0
    7.5796   -6.4565    0.0000 C   0  0  0  0  0  0  0  0  0  0  0  0
    6.9110   -5.1137    0.0000 C   0  0  0  0  0  0  0  0  0  0  0  0
    6.0070   -3.9167    0.0000 C   0  0  0  0  0  0  0  0  0  0  0  0
    4.8985   -2.9062    0.0000 C   0  0  0  0  0  0  0  0  0  0  0  0
    3.6232   -2.1165    0.0000 C   0  0  0  0  0  0  0  0  0  0  0  0
    2.2245   -1.5747    0.0000 C   0  0  0  0  0  0  0  0  0  0  0  0
    0.7500   -1.2990    0.0000 C   0  0  0  0  0  0  0  0  0  0  0  0
    1.5000    0.0000    0.0000 C   0  0  0  0  0  0  0  0  0  0  0  0
    0.7500    1.2990    0.0000 C   0  0  0  0  0  0  0  0  0  0  0  0
   -0.7500    1.2990    0.0000 C   0  0  0  0  0  0  0  0  0  0  0  0
   -1.5000    0.0000    0.0000 C   0  0  0  0  0  0  0  0  0  0  0  0
   -0.7500   -1.2990    0.0000 C   0  0  0  0  0  0  0  0  0  0  0  0
   -2.2245   -1.5747    0.0000 C   0  0  0  0  0  0  0  0  0  0  0  0
   -2.6471   -0.3453    0.0000 C   0  0  0  0  0  0  0  0  0  0  0  0
   -3.2704    0.1563    0.0000 C   0  0  0  0  0  0  0  0  0  0  0  0
   -4.0163   -0.1327    0.0000 C   0  0  0  0  0  0  0  0  0  0  0  0
   -4.1391   -0.9233    0.0000 C   0  0  0  0  0  0  0  0  0  0  0  0
   -3.6232   -2.1165    0.0000 C   0  0  0  0  0  0  0  0  0  0  0  0
   -4.8985   -2.9062    0.0000 C   0  0  0  0  0  0  0  0  0  0  0  0
   -5.2194   -1.4409    0.0000 C   0  0  0  0  0  0  0  0  0  0  0  0
   -6.6488   -0.9862    0.0000 C   0  0  0  0  0  0  0  0  0  0  0  0
   -7.7573   -1.9967    0.0000 C   0  0  0  0  0  0  0  0  0  0  0  0
   -7.4364   -3.4620    0.0000 C   0  0  0  0  0  0  0  0  0  0  0  0
   -6.0070   -3.9167    0.0000 C   0  0  0  0  0  0  0  0  0  0  0  0
   -6.9110   -5.1137    0.0000 C   0  0  0  0  0  0  0  0  0  0  0  0
   -8.0515   -4.4900    0.0000 C   0  0  0  0  0  0  0  0  0  0  0  0
   -8.8500   -4.5392    0.0000 C   0  0  0  0  0  0  0  0  0  0  0  0
   -9.2066   -5.2553    0.0000 C   0  0  0  0  0  0  0  0  0  0  0  0
   -8.7647   -5.9222    0.0000 C   0  0  0  0  0  0  0  0  0  0  0  0
   -7.5796   -6.4565    0.0000 C   0  0  0  0  0  0  0  0  0  0  0  0
  1  2  1  0
  2  3  2  0
  3  4  1  0
  4  5  1  0
  5  6  2  0
  6  7  1  0
  7  8  2  0
  8  9  1  0
  9 10  2  0
 10 11  1  0
 11 12  2  0
 12 13  1  0
 13 14  2  0
 14 15  1  0
 15 16  2  0
 16 17  1  0
 17 18  2  0
 18 19  1  0
 19 20  2  0
 20 21  1  0
 21 22  2  0
 22 23  1  0
 23 24  2  0
 24 25  1  0
 25 26  2  0
 26 27  1  0
 27 28  2  0
 28 29  1  0
 29 30  1  0
 30 31  2  0
 31 32  1  0
 32 33  2  0
 33 34  1  0
 34 35  2  0
 35 36  1  0
 36 37  2  0
 37 38  1  0
 38 39  2  0
 39 40  1  0
 40 41  2  0
 41 42  1  0
 42 43  2  0
 43 44  1  0
 44 45  2  0
 45 46  1  0
 46 47  2  0
 47 48  1  0
 48 49  2  0
 49 50  1  0
 50 51  2  0
 51  2  1  0
 33 28  1  0
 39 34  1  0
 45 40  1  0
 51 46  1  0
M  END
>  <Title>  (789) 
idABCKgen10

$$$$

     RDKit          2D

 10 10  0  0  0  0  0  0  0  0999 V2000
    6.0000   -2.5981    0.0000 C   0  0  0  0  0  0  0  0  0  0  0  0
    5.2500   -1.2990    0.0000 C   0  0  0  0  0  0  0  0  0  0  0  0
    3.7500   -1.2990    0.0000 C   0  0  0  0  0  0  0  0  0  0  0  0
    3.0000    0.0000    0.0000 N   0  0  0  0  0  0  0  0  0  0  0  0
    1.5000    0.0000    0.0000 C   0  0  0  0  0  0  0  0  0  0  0  0
    0.7500   -1.2990    0.0000 C   0  0  0  0  0  0  0  0  0  0  0  0
   -0.7500   -1.2990    0.0000 C   0  0  0  0  0  0  0  0  0  0  0  0
   -1.5000    0.0000    0.0000 C   0  0  0  0  0  0  0  0  0  0  0  0
   -0.7500    1.2990    0.0000 C   0  0  0  0  0  0  0  0  0  0  0  0
    0.7500    1.2990    0.0000 C   0  0  0  0  0  0  0  0  0  0  0  0
  1  2  2  0
  2  3  1  0
  3  4  1  0
  4  5  1  0
  5  6  2  0
  6  7  1  0
  7  8  2  0
  8  9  1  0
  9 10  2  0
 10  5  1  0
M  END
>  <Title>  (790) 
idABCLgen10

$$$$

     RDKit          2D

 10 10  0  0  0  0  0  0  0  0999 V2000
    7.2760   -0.0000    0.0000 C   0  0  0  0  0  0  0  0  0  0  0  0
    5.7760   -0.0000    0.0000 C   0  0  0  0  0  0  0  0  0  0  0  0
    4.2760   -0.0000    0.0000 C   0  0  0  0  0  0  0  0  0  0  0  0
    2.7760    0.0000    0.0000 C   0  0  0  0  0  0  0  0  0  0  0  0
    1.2760    0.0000    0.0000 C   0  0  0  0  0  0  0  0  0  0  0  0
    0.3943    1.2135    0.0000 C   0  0  0  0  0  0  0  0  0  0  0  0
   -1.0323    0.7500    0.0000 C   0  0  0  0  0  0  0  0  0  0  0  0
   -1.0323   -0.7500    0.0000 C   0  0  0  0  0  0  0  0  0  0  0  0
   -2.2458   -1.6317    0.0000 C   0  0  0  0  0  0  0  0  0  0  0  0
    0.3943   -1.2135    0.0000 C   0  0  0  0  0  0  0  0  0  0  0  0
  1  2  3  0
  2  3  1  0
  3  4  3  0
  4  5  1  0
  5  6  2  0
  6  7  1  0
  7  8  2  0
  8  9  1  0
  8 10  1  0
 10  5  1  0
M  END
>  <Title>  (791) 
idABCMgen10

$$$$

     RDKit          2D

109110  0  0  0  0  0  0  0  0999 V2000
   -2.3830    0.1042    0.0000 C   0  0  0  0  0  0  0  0  0  0  0  0
   -2.2473   -1.3896    0.0000 C   0  0  0  0  0  0  0  0  0  0  0  0
   -3.7363   -1.5704    0.0000 C   0  0  0  0  0  0  0  0  0  0  0  0
   -5.2118   -1.8408    0.0000 C   0  0  0  0  0  0  0  0  0  0  0  0
   -6.6682   -2.1998    0.0000 C   0  0  0  0  0  0  0  0  0  0  0  0
   -8.1003   -2.6460    0.0000 C   0  0  0  0  0  0  0  0  0  0  0  0
   -9.5028   -3.1779    0.0000 C   0  0  0  0  0  0  0  0  0  0  0  0
  -10.8706   -3.7935    0.0000 C   0  0  0  0  0  0  0  0  0  0  0  0
  -12.1988   -4.4906    0.0000 C   0  0  0  0  0  0  0  0  0  0  0  0
  -13.4825   -5.2666    0.0000 C   0  0  0  0  0  0  0  0  0  0  0  0
  -14.7170   -6.1187    0.0000 C   0  0  0  0  0  0  0  0  0  0  0  0
  -15.8977   -7.0438    0.0000 C   0  0  0  0  0  0  0  0  0  0  0  0
  -17.0205   -8.0385    0.0000 C   0  0  0  0  0  0  0  0  0  0  0  0
  -18.0812   -9.0992    0.0000 C   0  0  0  0  0  0  0  0  0  0  0  0
  -19.0758  -10.2219    0.0000 C   0  0  0  0  0  0  0  0  0  0  0  0
  -20.0009  -11.4027    0.0000 C   0  0  0  0  0  0  0  0  0  0  0  0
  -20.8530  -12.6372    0.0000 C   0  0  0  0  0  0  0  0  0  0  0  0
  -21.6290  -13.9208    0.0000 C   0  0  0  0  0  0  0  0  0  0  0  0
  -22.3261  -15.2490    0.0000 C   0  0  0  0  0  0  0  0  0  0  0  0
  -22.9417  -16.6169    0.0000 C   0  0  0  0  0  0  0  0  0  0  0  0
  -23.4736  -18.0194    0.0000 C   0  0  0  0  0  0  0  0  0  0  0  0
  -23.9199  -19.4515    0.0000 C   0  0  0  0  0  0  0  0  0  0  0  0
  -24.2789  -20.9079    0.0000 C   0  0  0  0  0  0  0  0  0  0  0  0
  -24.5492  -22.3833    0.0000 C   0  0  0  0  0  0  0  0  0  0  0  0
  -24.7301  -23.8724    0.0000 C   0  0  0  0  0  0  0  0  0  0  0  0
  -24.8206  -25.3697    0.0000 C   0  0  0  0  0  0  0  0  0  0  0  0
  -24.8206  -26.8697    0.0000 C   0  0  0  0  0  0  0  0  0  0  0  0
  -24.7301  -28.3669    0.0000 C   0  0  0  0  0  0  0  0  0  0  0  0
  -24.5492  -29.8560    0.0000 C   0  0  0  0  0  0  0  0  0  0  0  0
  -24.2789  -31.3314    0.0000 C   0  0  0  0  0  0  0  0  0  0  0  0
  -23.9199  -32.7878    0.0000 C   0  0  0  0  0  0  0  0  0  0  0  0
  -23.4736  -34.2199    0.0000 C   0  0  0  0  0  0  0  0  0  0  0  0
  -22.9417  -35.6224    0.0000 C   0  0  0  0  0  0  0  0  0  0  0  0
  -22.3261  -36.9903    0.0000 C   0  0  0  0  0  0  0  0  0  0  0  0
  -21.6290  -38.3185    0.0000 C   0  0  0  0  0  0  0  0  0  0  0  0
  -20.8530  -39.6021    0.0000 C   0  0  0  0  0  0  0  0  0  0  0  0
  -20.0009  -40.8366    0.0000 C   0  0  0  0  0  0  0  0  0  0  0  0
  -19.0758  -42.0174    0.0000 C   0  0  0  0  0  0  0  0  0  0  0  0
  -18.0812  -43.1402    0.0000 C   0  0  0  0  0  0  0  0  0  0  0  0
  -17.0205  -44.2008    0.0000 C   0  0  0  0  0  0  0  0  0  0  0  0
  -15.8977  -45.1955    0.0000 C   0  0  0  0  0  0  0  0  0  0  0  0
  -14.7170  -46.1206    0.0000 C   0  0  0  0  0  0  0  0  0  0  0  0
  -13.4825  -46.9727    0.0000 C   0  0  0  0  0  0  0  0  0  0  0  0
  -12.1988  -47.7487    0.0000 C   0  0  0  0  0  0  0  0  0  0  0  0
  -10.8706  -48.4458    0.0000 C   0  0  0  0  0  0  0  0  0  0  0  0
   -9.5028  -49.0614    0.0000 C   0  0  0  0  0  0  0  0  0  0  0  0
   -8.1003  -49.5933    0.0000 C   0  0  0  0  0  0  0  0  0  0  0  0
   -6.6682  -50.0395    0.0000 C   0  0  0  0  0  0  0  0  0  0  0  0
   -5.2118  -50.3985    0.0000 C   0  0  0  0  0  0  0  0  0  0  0  0
   -3.7363  -50.6689    0.0000 C   0  0  0  0  0  0  0  0  0  0  0  0
   -2.2473  -50.8497    0.0000 C   0  0  0  0  0  0  0  0  0  0  0  0
   -0.7500  -50.9403    0.0000 C   0  0  0  0  0  0  0  0  0  0  0  0
    0.7500  -50.9403    0.0000 C   0  0  0  0  0  0  0  0  0  0  0  0
    2.2473  -50.8497    0.0000 C   0  0  0  0  0  0  0  0  0  0  0  0
    3.7363  -50.6689    0.0000 C   0  0  0  0  0  0  0  0  0  0  0  0
    5.2118  -50.3985    0.0000 C   0  0  0  0  0  0  0  0  0  0  0  0
    6.6682  -50.0395    0.0000 C   0  0  0  0  0  0  0  0  0  0  0  0
    8.1003  -49.5933    0.0000 C   0  0  0  0  0  0  0  0  0  0  0  0
    9.5028  -49.0614    0.0000 C   0  0  0  0  0  0  0  0  0  0  0  0
   10.8706  -48.4458    0.0000 C   0  0  0  0  0  0  0  0  0  0  0  0
   12.1988  -47.7487    0.0000 C   0  0  0  0  0  0  0  0  0  0  0  0
   13.4825  -46.9727    0.0000 C   0  0  0  0  0  0  0  0  0  0  0  0
   14.7170  -46.1206    0.0000 C   0  0  0  0  0  0  0  0  0  0  0  0
   15.8977  -45.1955    0.0000 C   0  0  0  0  0  0  0  0  0  0  0  0
   17.0205  -44.2008    0.0000 C   0  0  0  0  0  0  0  0  0  0  0  0
   18.0812  -43.1402    0.0000 C   0  0  0  0  0  0  0  0  0  0  0  0
   19.0758  -42.0174    0.0000 C   0  0  0  0  0  0  0  0  0  0  0  0
   20.0009  -40.8366    0.0000 C   0  0  0  0  0  0  0  0  0  0  0  0
   20.8530  -39.6021    0.0000 C   0  0  0  0  0  0  0  0  0  0  0  0
   21.6290  -38.3185    0.0000 C   0  0  0  0  0  0  0  0  0  0  0  0
   22.3261  -36.9903    0.0000 C   0  0  0  0  0  0  0  0  0  0  0  0
   22.9417  -35.6224    0.0000 C   0  0  0  0  0  0  0  0  0  0  0  0
   23.4736  -34.2199    0.0000 C   0  0  0  0  0  0  0  0  0  0  0  0
   23.9199  -32.7878    0.0000 C   0  0  0  0  0  0  0  0  0  0  0  0
   24.2789  -31.3314    0.0000 C   0  0  0  0  0  0  0  0  0  0  0  0
   24.5492  -29.8560    0.0000 C   0  0  0  0  0  0  0  0  0  0  0  0
   24.7301  -28.3669    0.0000 C   0  0  0  0  0  0  0  0  0  0  0  0
   24.8206  -26.8697    0.0000 C   0  0  0  0  0  0  0  0  0  0  0  0
   24.8206  -25.3697    0.0000 C   0  0  0  0  0  0  0  0  0  0  0  0
   24.7301  -23.8724    0.0000 C   0  0  0  0  0  0  0  0  0  0  0  0
   24.5492  -22.3833    0.0000 C   0  0  0  0  0  0  0  0  0  0  0  0
   24.2789  -20.9079    0.0000 C   0  0  0  0  0  0  0  0  0  0  0  0
   23.9199  -19.4515    0.0000 C   0  0  0  0  0  0  0  0  0  0  0  0
   23.4736  -18.0194    0.0000 C   0  0  0  0  0  0  0  0  0  0  0  0
   22.9417  -16.6169    0.0000 C   0  0  0  0  0  0  0  0  0  0  0  0
   22.3261  -15.2490    0.0000 C   0  0  0  0  0  0  0  0  0  0  0  0
   21.6290  -13.9208    0.0000 C   0  0  0  0  0  0  0  0  0  0  0  0
   20.8530  -12.6372    0.0000 C   0  0  0  0  0  0  0  0  0  0  0  0
   20.0009  -11.4027    0.0000 C   0  0  0  0  0  0  0  0  0  0  0  0
   19.0758  -10.2219    0.0000 C   0  0  0  0  0  0  0  0  0  0  0  0
   18.0812   -9.0992    0.0000 C   0  0  0  0  0  0  0  0  0  0  0  0
   17.0205   -8.0385    0.0000 C   0  0  0  0  0  0  0  0  0  0  0  0
   15.8977   -7.0438    0.0000 C   0  0  0  0  0  0  0  0  0  0  0  0
   14.7170   -6.1187    0.0000 C   0  0  0  0  0  0  0  0  0  0  0  0
   13.4825   -5.2666    0.0000 C   0  0  0  0  0  0  0  0  0  0  0  0
   12.1988   -4.4906    0.0000 C   0  0  0  0  0  0  0  0  0  0  0  0
   10.8706   -3.7935    0.0000 C   0  0  0  0  0  0  0  0  0  0  0  0
    9.5028   -3.1779    0.0000 C   0  0  0  0  0  0  0  0  0  0  0  0
    8.1003   -2.6460    0.0000 C   0  0  0  0  0  0  0  0  0  0  0  0
    6.6682   -2.1998    0.0000 C   0  0  0  0  0  0  0  0  0  0  0  0
    5.2118   -1.8408    0.0000 C   0  0  0  0  0  0  0  0  0  0  0  0
    3.7363   -1.5704    0.0000 C   0  0  0  0  0  0  0  0  0  0  0  0
    2.2473   -1.3896    0.0000 C   0  0  0  0  0  0  0  0  0  0  0  0
    0.7500   -1.2990    0.0000 C   0  0  0  0  0  0  0  0  0  0  0  0
    1.5000    0.0000    0.0000 C   0  0  0  0  0  0  0  0  0  0  0  0
    0.7500    1.2990    0.0000 C   0  0  0  0  0  0  0  0  0  0  0  0
   -0.7500    1.2990    0.0000 C   0  0  0  0  0  0  0  0  0  0  0  0
   -1.5000    0.0000    0.0000 C   0  0  0  0  0  0  0  0  0  0  0  0
   -0.7500   -1.2990    0.0000 C   0  0  0  0  0  0  0  0  0  0  0  0
  1  2  1  0
  2  3  1  0
  3  4  2  0
  4  5  1  0
  5  6  2  0
  6  7  1  0
  7  8  2  0
  8  9  1  0
  9 10  2  0
 10 11  1  0
 11 12  2  0
 12 13  1  0
 13 14  2  0
 14 15  1  0
 15 16  2  0
 16 17  1  0
 17 18  1  0
 18 19  1  0
 19 20  1  0
 20 21  1  0
 21 22  1  0
 22 23  1  0
 23 24  1  0
 24 25  1  0
 25 26  1  0
 26 27  1  0
 27 28  1  0
 28 29  1  0
 29 30  1  0
 30 31  1  0
 31 32  1  0
 32 33  1  0
 33 34  1  0
 34 35  1  0
 35 36  1  0
 36 37  1  0
 37 38  1  0
 38 39  1  0
 39 40  1  0
 40 41  1  0
 41 42  1  0
 42 43  1  0
 43 44  1  0
 44 45  1  0
 45 46  1  0
 46 47  1  0
 47 48  1  0
 48 49  1  0
 49 50  1  0
 50 51  1  0
 51 52  1  0
 52 53  1  0
 53 54  1  0
 54 55  1  0
 55 56  1  0
 56 57  1  0
 57 58  1  0
 58 59  1  0
 59 60  1  0
 60 61  1  0
 61 62  1  0
 62 63  1  0
 63 64  1  0
 64 65  1  0
 65 66  1  0
 66 67  1  0
 67 68  1  0
 68 69  1  0
 69 70  1  0
 70 71  1  0
 71 72  1  0
 72 73  1  0
 73 74  1  0
 74 75  1  0
 75 76  1  0
 76 77  1  0
 77 78  1  0
 78 79  1  0
 79 80  1  0
 80 81  1  0
 81 82  1  0
 82 83  1  0
 83 84  1  0
 84 85  1  0
 85 86  1  0
 86 87  1  0
 87 88  1  0
 88 89  1  0
 89 90  1  0
 90 91  1  0
 91 92  1  0
 92 93  1  0
 93 94  1  0
 94 95  1  0
 95 96  1  0
 96 97  1  0
 97 98  1  0
 98 99  1  0
 99100  1  0
100101  1  0
101102  1  0
102103  1  0
103104  1  0
104105  1  0
105106  2  0
106107  1  0
107108  2  0
108109  1  0
109  2  1  0
109104  1  0
M  END
>  <Title>  (792) 
idABCNgen10

$$$$

     RDKit          2D

 68 78  0  0  0  0  0  0  0  0999 V2000
    6.4958   -4.6081    0.0000 C   0  0  0  0  0  0  0  0  0  0  0  0
    5.0565   -5.0307    0.0000 C   0  0  0  0  0  0  0  0  0  0  0  0
    4.4334   -3.6662    0.0000 C   0  0  0  0  0  0  0  0  0  0  0  0
    3.4511   -2.5326    0.0000 C   0  0  0  0  0  0  0  0  0  0  0  0
    2.1892   -1.7216    0.0000 C   0  0  0  0  0  0  0  0  0  0  0  0
    2.8124   -0.3572    0.0000 C   0  0  0  0  0  0  0  0  0  0  0  0
    1.9423    0.8647    0.0000 O   0  0  0  0  0  0  0  0  0  0  0  0
    4.3056   -0.2146    0.0000 N   0  0  0  0  0  0  0  0  0  0  0  0
    4.9287    1.1498    0.0000 C   0  0  0  0  0  0  0  0  0  0  0  0
    6.4219    1.2924    0.0000 N   0  0  0  0  0  0  0  0  0  0  0  0
    7.0450    2.6569    0.0000 N   0  0  0  0  0  0  0  0  0  0  0  0
    6.1749    3.8787    0.0000 N   0  0  0  0  0  0  0  0  0  0  0  0
    4.6817    3.7362    0.0000 N   0  0  0  0  0  0  0  0  0  0  0  0
    4.0586    2.3717    0.0000 N   0  0  0  0  0  0  0  0  0  0  0  0
    0.7500   -1.2990    0.0000 C   0  0  0  0  0  0  0  0  0  0  0  0
    1.5000    0.0000    0.0000 C   0  0  0  0  0  0  0  0  0  0  0  0
    0.7500    1.2990    0.0000 C   0  0  0  0  0  0  0  0  0  0  0  0
   -0.7500    1.2990    0.0000 C   0  0  0  0  0  0  0  0  0  0  0  0
   -1.5000    0.0000    0.0000 C   0  0  0  0  0  0  0  0  0  0  0  0
   -0.7500   -1.2990    0.0000 C   0  0  0  0  0  0  0  0  0  0  0  0
   -2.1892   -1.7216    0.0000 C   0  0  0  0  0  0  0  0  0  0  0  0
   -2.2606   -0.2233    0.0000 C   0  0  0  0  0  0  0  0  0  0  0  0
   -3.5939    0.4640    0.0000 C   0  0  0  0  0  0  0  0  0  0  0  0
   -4.8557   -0.3470    0.0000 C   0  0  0  0  0  0  0  0  0  0  0  0
   -4.7844   -1.8453    0.0000 C   0  0  0  0  0  0  0  0  0  0  0  0
   -3.4511   -2.5326    0.0000 C   0  0  0  0  0  0  0  0  0  0  0  0
   -4.4334   -3.6662    0.0000 C   0  0  0  0  0  0  0  0  0  0  0  0
   -5.3035   -2.4444    0.0000 C   0  0  0  0  0  0  0  0  0  0  0  0
   -6.7967   -2.5869    0.0000 C   0  0  0  0  0  0  0  0  0  0  0  0
   -7.4198   -3.9514    0.0000 C   0  0  0  0  0  0  0  0  0  0  0  0
   -6.5497   -5.1733    0.0000 C   0  0  0  0  0  0  0  0  0  0  0  0
   -5.0565   -5.0307    0.0000 C   0  0  0  0  0  0  0  0  0  0  0  0
   -5.2700   -6.5154    0.0000 C   0  0  0  0  0  0  0  0  0  0  0  0
   -6.6626   -5.9579    0.0000 C   0  0  0  0  0  0  0  0  0  0  0  0
   -7.8416   -6.8851    0.0000 C   0  0  0  0  0  0  0  0  0  0  0  0
   -7.6282   -8.3699    0.0000 C   0  0  0  0  0  0  0  0  0  0  0  0
   -6.2356   -8.9274    0.0000 C   0  0  0  0  0  0  0  0  0  0  0  0
   -5.0565   -8.0001    0.0000 C   0  0  0  0  0  0  0  0  0  0  0  0
   -4.4334   -9.3646    0.0000 C   0  0  0  0  0  0  0  0  0  0  0  0
   -5.9063   -9.6485    0.0000 C   0  0  0  0  0  0  0  0  0  0  0  0
   -6.3969  -11.0660    0.0000 C   0  0  0  0  0  0  0  0  0  0  0  0
   -5.4146  -12.1996    0.0000 C   0  0  0  0  0  0  0  0  0  0  0  0
   -3.9417  -11.9157    0.0000 C   0  0  0  0  0  0  0  0  0  0  0  0
   -3.4511  -10.4982    0.0000 C   0  0  0  0  0  0  0  0  0  0  0  0
   -2.1892  -11.3092    0.0000 C   0  0  0  0  0  0  0  0  0  0  0  0
   -3.2748  -12.3443    0.0000 C   0  0  0  0  0  0  0  0  0  0  0  0
   -2.9212  -13.8020    0.0000 C   0  0  0  0  0  0  0  0  0  0  0  0
   -1.4820  -14.2246    0.0000 C   0  0  0  0  0  0  0  0  0  0  0  0
   -0.3964  -13.1895    0.0000 C   0  0  0  0  0  0  0  0  0  0  0  0
   -0.7500  -11.7318    0.0000 C   0  0  0  0  0  0  0  0  0  0  0  0
    0.7500  -11.7318    0.0000 C   0  0  0  0  0  0  0  0  0  0  0  0
    0.3964  -13.1895    0.0000 C   0  0  0  0  0  0  0  0  0  0  0  0
    1.4820  -14.2246    0.0000 C   0  0  0  0  0  0  0  0  0  0  0  0
    2.9212  -13.8020    0.0000 C   0  0  0  0  0  0  0  0  0  0  0  0
    3.2748  -12.3443    0.0000 C   0  0  0  0  0  0  0  0  0  0  0  0
    2.1892  -11.3092    0.0000 C   0  0  0  0  0  0  0  0  0  0  0  0
    3.4511  -10.4982    0.0000 C   0  0  0  0  0  0  0  0  0  0  0  0
    3.9417  -11.9157    0.0000 C   0  0  0  0  0  0  0  0  0  0  0  0
    5.4146  -12.1996    0.0000 C   0  0  0  0  0  0  0  0  0  0  0  0
    6.3969  -11.0660    0.0000 C   0  0  0  0  0  0  0  0  0  0  0  0
    5.9063   -9.6485    0.0000 C   0  0  0  0  0  0  0  0  0  0  0  0
    4.4334   -9.3646    0.0000 C   0  0  0  0  0  0  0  0  0  0  0  0
    5.0565   -8.0001    0.0000 C   0  0  0  0  0  0  0  0  0  0  0  0
    6.2356   -8.9274    0.0000 C   0  0  0  0  0  0  0  0  0  0  0  0
    7.6282   -8.3699    0.0000 C   0  0  0  0  0  0  0  0  0  0  0  0
    7.8416   -6.8851    0.0000 C   0  0  0  0  0  0  0  0  0  0  0  0
    6.6626   -5.9579    0.0000 C   0  0  0  0  0  0  0  0  0  0  0  0
    5.2700   -6.5154    0.0000 C   0  0  0  0  0  0  0  0  0  0  0  0
  1  2  1  0
  2  3  1  0
  3  4  1  0
  4  5  1  0
  5  6  1  0
  6  7  2  0
  6  8  1  0
  8  9  1  0
  9 10  2  0
 10 11  1  0
 11 12  2  0
 12 13  1  0
 13 14  2  0
  5 15  1  0
 15 16  2  0
 16 17  1  0
 17 18  2  0
 18 19  1  0
 19 20  2  0
 20 21  1  0
 21 22  2  0
 22 23  1  0
 23 24  2  0
 24 25  1  0
 25 26  2  0
 26 27  1  0
 27 28  2  0
 28 29  1  0
 29 30  2  0
 30 31  1  0
 31 32  2  0
 32 33  1  0
 33 34  2  0
 34 35  1  0
 35 36  2  0
 36 37  1  0
 37 38  2  0
 38 39  1  0
 39 40  2  0
 40 41  1  0
 41 42  2  0
 42 43  1  0
 43 44  2  0
 44 45  1  0
 45 46  2  0
 46 47  1  0
 47 48  2  0
 48 49  1  0
 49 50  2  0
 50 51  1  0
 51 52  2  0
 52 53  1  0
 53 54  2  0
 54 55  1  0
 55 56  2  0
 56 57  1  0
 57 58  2  0
 58 59  1  0
 59 60  2  0
 60 61  1  0
 61 62  2  0
 62 63  1  0
 63 64  2  0
 64 65  1  0
 65 66  2  0
 66 67  1  0
 67 68  2  0
 68  2  1  0
 14  9  1  0
 20 15  1  0
 26 21  1  0
 32 27  1  0
 38 33  1  0
 44 39  1  0
 50 45  1  0
 56 51  1  0
 62 57  1  0
 68 63  1  0
M  END
>  <Title>  (793) 
idABCOgen10

$$$$

     RDKit          2D

 96 97  0  0  0  0  0  0  0  0999 V2000
    0.3209    3.2215    0.0000 C   0  0  0  0  0  0  0  0  0  0  0  0
    1.6276    3.9582    0.0000 C   0  0  0  0  0  0  0  0  0  0  0  0
    0.9415    5.2921    0.0000 C   0  0  0  0  0  0  0  0  0  0  0  0
    0.3595    6.6746    0.0000 C   0  0  0  0  0  0  0  0  0  0  0  0
   -0.1150    8.0976    0.0000 C   0  0  0  0  0  0  0  0  0  0  0  0
   -0.4791    9.5527    0.0000 C   0  0  0  0  0  0  0  0  0  0  0  0
   -0.7308   11.0315    0.0000 C   0  0  0  0  0  0  0  0  0  0  0  0
   -0.8685   12.5251    0.0000 C   0  0  0  0  0  0  0  0  0  0  0  0
   -0.8915   14.0249    0.0000 C   0  0  0  0  0  0  0  0  0  0  0  0
   -0.7996   15.5221    0.0000 C   0  0  0  0  0  0  0  0  0  0  0  0
   -0.5933   17.0079    0.0000 C   0  0  0  0  0  0  0  0  0  0  0  0
   -0.2740   18.4735    0.0000 C   0  0  0  0  0  0  0  0  0  0  0  0
    0.1566   19.9104    0.0000 C   0  0  0  0  0  0  0  0  0  0  0  0
    0.6960   21.3100    0.0000 C   0  0  0  0  0  0  0  0  0  0  0  0
    1.3409   22.6643    0.0000 C   0  0  0  0  0  0  0  0  0  0  0  0
    2.0875   23.9653    0.0000 C   0  0  0  0  0  0  0  0  0  0  0  0
    2.9316   25.2052    0.0000 C   0  0  0  0  0  0  0  0  0  0  0  0
    3.8681   26.3770    0.0000 C   0  0  0  0  0  0  0  0  0  0  0  0
    4.8916   27.4736    0.0000 C   0  0  0  0  0  0  0  0  0  0  0  0
    5.9960   28.4886    0.0000 C   0  0  0  0  0  0  0  0  0  0  0  0
    7.1749   29.4161    0.0000 C   0  0  0  0  0  0  0  0  0  0  0  0
    8.4213   30.2507    0.0000 C   0  0  0  0  0  0  0  0  0  0  0  0
    9.7279   30.9873    0.0000 C   0  0  0  0  0  0  0  0  0  0  0  0
   11.0871   31.6219    0.0000 C   0  0  0  0  0  0  0  0  0  0  0  0
   12.4909   32.1505    0.0000 C   0  0  0  0  0  0  0  0  0  0  0  0
   13.9310   32.5700    0.0000 C   0  0  0  0  0  0  0  0  0  0  0  0
   15.3990   32.8782    0.0000 C   0  0  0  0  0  0  0  0  0  0  0  0
   16.8863   33.0730    0.0000 C   0  0  0  0  0  0  0  0  0  0  0  0
   18.3841   33.1534    0.0000 C   0  0  0  0  0  0  0  0  0  0  0  0
   19.8838   33.1189    0.0000 C   0  0  0  0  0  0  0  0  0  0  0  0
   21.3763   32.9698    0.0000 C   0  0  0  0  0  0  0  0  0  0  0  0
   22.8531   32.7068    0.0000 C   0  0  0  0  0  0  0  0  0  0  0  0
   24.3054   32.3315    0.0000 C   0  0  0  0  0  0  0  0  0  0  0  0
   25.7247   31.8462    0.0000 C   0  0  0  0  0  0  0  0  0  0  0  0
   27.1027   31.2536    0.0000 C   0  0  0  0  0  0  0  0  0  0  0  0
   28.4313   30.5573    0.0000 C   0  0  0  0  0  0  0  0  0  0  0  0
   29.7027   29.7614    0.0000 C   0  0  0  0  0  0  0  0  0  0  0  0
   30.9094   28.8704    0.0000 C   0  0  0  0  0  0  0  0  0  0  0  0
   32.0444   27.8897    0.0000 C   0  0  0  0  0  0  0  0  0  0  0  0
   33.1010   26.8250    0.0000 C   0  0  0  0  0  0  0  0  0  0  0  0
   34.0730   25.6825    0.0000 C   0  0  0  0  0  0  0  0  0  0  0  0
   34.9547   24.4690    0.0000 C   0  0  0  0  0  0  0  0  0  0  0  0
   35.7409   23.1915    0.0000 C   0  0  0  0  0  0  0  0  0  0  0  0
   36.4270   21.8576    0.0000 C   0  0  0  0  0  0  0  0  0  0  0  0
   37.0089   20.4752    0.0000 C   0  0  0  0  0  0  0  0  0  0  0  0
   37.4834   19.0522    0.0000 C   0  0  0  0  0  0  0  0  0  0  0  0
   37.8475   17.5970    0.0000 C   0  0  0  0  0  0  0  0  0  0  0  0
   38.0992   16.1183    0.0000 C   0  0  0  0  0  0  0  0  0  0  0  0
   38.2369   14.6246    0.0000 C   0  0  0  0  0  0  0  0  0  0  0  0
   38.2599   13.1248    0.0000 C   0  0  0  0  0  0  0  0  0  0  0  0
   38.1680   11.6276    0.0000 C   0  0  0  0  0  0  0  0  0  0  0  0
   37.9618   10.1419    0.0000 C   0  0  0  0  0  0  0  0  0  0  0  0
   37.6424    8.6763    0.0000 C   0  0  0  0  0  0  0  0  0  0  0  0
   37.2118    7.2394    0.0000 C   0  0  0  0  0  0  0  0  0  0  0  0
   36.6725    5.8397    0.0000 C   0  0  0  0  0  0  0  0  0  0  0  0
   36.0275    4.4854    0.0000 C   0  0  0  0  0  0  0  0  0  0  0  0
   35.2809    3.1845    0.0000 C   0  0  0  0  0  0  0  0  0  0  0  0
   34.4368    1.9445    0.0000 C   0  0  0  0  0  0  0  0  0  0  0  0
   33.5003    0.7728    0.0000 C   0  0  0  0  0  0  0  0  0  0  0  0
   32.4768   -0.3238    0.0000 C   0  0  0  0  0  0  0  0  0  0  0  0
   31.3724   -1.3389    0.0000 C   0  0  0  0  0  0  0  0  0  0  0  0
   30.1935   -2.2664    0.0000 C   0  0  0  0  0  0  0  0  0  0  0  0
   28.9471   -3.1009    0.0000 C   0  0  0  0  0  0  0  0  0  0  0  0
   27.6405   -3.8376    0.0000 C   0  0  0  0  0  0  0  0  0  0  0  0
   26.2813   -4.4721    0.0000 C   0  0  0  0  0  0  0  0  0  0  0  0
   24.8775   -5.0007    0.0000 C   0  0  0  0  0  0  0  0  0  0  0  0
   23.4374   -5.4203    0.0000 C   0  0  0  0  0  0  0  0  0  0  0  0
   21.9694   -5.7284    0.0000 C   0  0  0  0  0  0  0  0  0  0  0  0
   20.4821   -5.9233    0.0000 C   0  0  0  0  0  0  0  0  0  0  0  0
   18.9843   -6.0037    0.0000 C   0  0  0  0  0  0  0  0  0  0  0  0
   17.4847   -5.9692    0.0000 C   0  0  0  0  0  0  0  0  0  0  0  0
   15.9921   -5.8200    0.0000 C   0  0  0  0  0  0  0  0  0  0  0  0
   14.5153   -5.5570    0.0000 C   0  0  0  0  0  0  0  0  0  0  0  0
   13.0630   -5.1818    0.0000 C   0  0  0  0  0  0  0  0  0  0  0  0
   11.6437   -4.6964    0.0000 C   0  0  0  0  0  0  0  0  0  0  0  0
   10.2657   -4.1039    0.0000 C   0  0  0  0  0  0  0  0  0  0  0  0
    8.9371   -3.4076    0.0000 C   0  0  0  0  0  0  0  0  0  0  0  0
    7.6657   -2.6116    0.0000 C   0  0  0  0  0  0  0  0  0  0  0  0
    6.4590   -1.7207    0.0000 C   0  0  0  0  0  0  0  0  0  0  0  0
    5.3240   -0.7400    0.0000 C   0  0  0  0  0  0  0  0  0  0  0  0
    4.2674    0.3247    0.0000 C   0  0  0  0  0  0  0  0  0  0  0  0
    3.2954    1.4672    0.0000 C   0  0  0  0  0  0  0  0  0  0  0  0
    3.6073    0.0000    0.0000 C   0  0  0  0  0  0  0  0  0  0  0  0
    3.2954   -1.4672    0.0000 C   0  0  0  0  0  0  0  0  0  0  0  0
    2.4138   -2.6807    0.0000 C   0  0  0  0  0  0  0  0  0  0  0  0
    1.1147   -3.4307    0.0000 C   0  0  0  0  0  0  0  0  0  0  0  0
   -0.3771   -3.5875    0.0000 C   0  0  0  0  0  0  0  0  0  0  0  0
   -1.8037   -3.1240    0.0000 C   0  0  0  0  0  0  0  0  0  0  0  0
   -2.9184   -2.1203    0.0000 C   0  0  0  0  0  0  0  0  0  0  0  0
   -3.5285   -0.7500    0.0000 C   0  0  0  0  0  0  0  0  0  0  0  0
   -3.5285    0.7500    0.0000 C   0  0  0  0  0  0  0  0  0  0  0  0
   -2.9184    2.1203    0.0000 C   0  0  0  0  0  0  0  0  0  0  0  0
   -1.8037    3.1240    0.0000 C   0  0  0  0  0  0  0  0  0  0  0  0
   -0.3771    3.5875    0.0000 C   0  0  0  0  0  0  0  0  0  0  0  0
    1.1147    3.4307    0.0000 C   0  0  0  0  0  0  0  0  0  0  0  0
    2.4138    2.6807    0.0000 C   0  0  0  0  0  0  0  0  0  0  0  0
  1  2  1  0
  2  3  1  0
  3  4  1  0
  4  5  1  0
  5  6  1  0
  6  7  1  0
  7  8  1  0
  8  9  1  0
  9 10  1  0
 10 11  1  0
 11 12  1  0
 12 13  1  0
 13 14  1  0
 14 15  1  0
 15 16  1  0
 16 17  1  0
 17 18  1  0
 18 19  1  0
 19 20  1  0
 20 21  1  0
 21 22  1  0
 22 23  1  0
 23 24  1  0
 24 25  1  0
 25 26  1  0
 26 27  1  0
 27 28  1  0
 28 29  1  0
 29 30  1  0
 30 31  1  0
 31 32  1  0
 32 33  1  0
 33 34  1  0
 34 35  1  0
 35 36  1  0
 36 37  1  0
 37 38  1  0
 38 39  1  0
 39 40  1  0
 40 41  1  0
 41 42  1  0
 42 43  1  0
 43 44  1  0
 44 45  1  0
 45 46  1  0
 46 47  1  0
 47 48  1  0
 48 49  1  0
 49 50  1  0
 50 51  1  0
 51 52  1  0
 52 53  1  0
 53 54  1  0
 54 55  1  0
 55 56  1  0
 56 57  1  0
 57 58  1  0
 58 59  1  0
 59 60  1  0
 60 61  1  0
 61 62  1  0
 62 63  1  0
 63 64  1  0
 64 65  1  0
 65 66  1  0
 66 67  1  0
 67 68  1  0
 68 69  1  0
 69 70  1  0
 70 71  1  0
 71 72  1  0
 72 73  1  0
 73 74  1  0
 74 75  1  0
 75 76  1  0
 76 77  1  0
 77 78  1  0
 78 79  1  0
 79 80  1  0
 80 81  1  0
 81 82  1  0
 82 83  1  0
 83 84  2  0
 84 85  1  0
 85 86  2  0
 86 87  1  0
 87 88  2  0
 88 89  1  0
 89 90  2  0
 90 91  1  0
 91 92  2  0
 92 93  1  0
 93 94  2  0
 94 95  1  0
 95 96  2  0
 96  2  1  0
 96 82  1  0
M  END
>  <Title>  (794) 
idABCPgen10

$$$$

     RDKit          2D

 11 11  0  0  0  0  0  0  0  0999 V2000
    7.5000    0.0000    0.0000 C   0  0  0  0  0  0  0  0  0  0  0  0
    6.0000    0.0000    0.0000 C   0  0  0  0  0  0  0  0  0  0  0  0
    4.5000    0.0000    0.0000 C   0  0  0  0  0  0  0  0  0  0  0  0
    3.0000    0.0000    0.0000 C   0  0  0  0  0  0  0  0  0  0  0  0
    1.5000    0.0000    0.0000 C   0  0  0  0  0  0  0  0  0  0  0  0
    0.7500   -1.2990    0.0000 C   0  0  0  0  0  0  0  0  0  0  0  0
   -0.7500   -1.2990    0.0000 C   0  0  0  0  0  0  0  0  0  0  0  0
   -1.5000   -2.5981    0.0000 C   0  0  0  0  0  0  0  0  0  0  0  0
   -1.5000    0.0000    0.0000 C   0  0  0  0  0  0  0  0  0  0  0  0
   -0.7500    1.2990    0.0000 C   0  0  0  0  0  0  0  0  0  0  0  0
    0.7500    1.2990    0.0000 C   0  0  0  0  0  0  0  0  0  0  0  0
  1  2  3  0
  2  3  1  0
  3  4  3  0
  4  5  1  0
  5  6  2  0
  6  7  1  0
  7  8  1  0
  7  9  1  0
  9 10  1  0
 10 11  2  0
 11  5  1  0
M  END
>  <Title>  (795) 
idABCQgen10

$$$$

     RDKit          2D

 44 50  0  0  0  0  0  0  0  0999 V2000
    4.3881   -6.6982    0.0000 C   0  0  0  0  0  0  0  0  0  0  0  0
    3.0367   -6.0474    0.0000 C   0  0  0  0  0  0  0  0  0  0  0  0
    3.3705   -4.5850    0.0000 C   0  0  0  0  0  0  0  0  0  0  0  0
    3.0367   -3.1226    0.0000 C   0  0  0  0  0  0  0  0  0  0  0  0
    2.1015   -1.9499    0.0000 C   0  0  0  0  0  0  0  0  0  0  0  0
    3.0367   -0.7771    0.0000 C   0  0  0  0  0  0  0  0  0  0  0  0
    2.4887    0.6192    0.0000 O   0  0  0  0  0  0  0  0  0  0  0  0
    4.5199   -1.0007    0.0000 N   0  0  0  0  0  0  0  0  0  0  0  0
    5.4552    0.1721    0.0000 C   0  0  0  0  0  0  0  0  0  0  0  0
    6.9384   -0.0515    0.0000 N   0  0  0  0  0  0  0  0  0  0  0  0
    7.8736    1.1213    0.0000 N   0  0  0  0  0  0  0  0  0  0  0  0
    7.3256    2.5176    0.0000 N   0  0  0  0  0  0  0  0  0  0  0  0
    5.8424    2.7411    0.0000 N   0  0  0  0  0  0  0  0  0  0  0  0
    4.9072    1.5684    0.0000 N   0  0  0  0  0  0  0  0  0  0  0  0
    0.7500   -1.2990    0.0000 C   0  0  0  0  0  0  0  0  0  0  0  0
    1.5000    0.0000    0.0000 C   0  0  0  0  0  0  0  0  0  0  0  0
    0.7500    1.2990    0.0000 C   0  0  0  0  0  0  0  0  0  0  0  0
   -0.7500    1.2990    0.0000 C   0  0  0  0  0  0  0  0  0  0  0  0
   -1.5000    0.0000    0.0000 C   0  0  0  0  0  0  0  0  0  0  0  0
   -0.7500   -1.2990    0.0000 C   0  0  0  0  0  0  0  0  0  0  0  0
   -2.1015   -1.9499    0.0000 C   0  0  0  0  0  0  0  0  0  0  0  0
   -2.6495   -0.5536    0.0000 C   0  0  0  0  0  0  0  0  0  0  0  0
   -4.1327   -0.3300    0.0000 C   0  0  0  0  0  0  0  0  0  0  0  0
   -5.0679   -1.5027    0.0000 C   0  0  0  0  0  0  0  0  0  0  0  0
   -4.5199   -2.8990    0.0000 C   0  0  0  0  0  0  0  0  0  0  0  0
   -3.0367   -3.1226    0.0000 C   0  0  0  0  0  0  0  0  0  0  0  0
   -3.3705   -4.5850    0.0000 C   0  0  0  0  0  0  0  0  0  0  0  0
   -4.8038   -4.1429    0.0000 C   0  0  0  0  0  0  0  0  0  0  0  0
   -5.9034   -5.1631    0.0000 C   0  0  0  0  0  0  0  0  0  0  0  0
   -5.5696   -6.6255    0.0000 C   0  0  0  0  0  0  0  0  0  0  0  0
   -4.1363   -7.0677    0.0000 C   0  0  0  0  0  0  0  0  0  0  0  0
   -3.0367   -6.0474    0.0000 C   0  0  0  0  0  0  0  0  0  0  0  0
   -2.1015   -7.2201    0.0000 C   0  0  0  0  0  0  0  0  0  0  0  0
   -3.3408   -8.0651    0.0000 C   0  0  0  0  0  0  0  0  0  0  0  0
   -3.2287   -9.5609    0.0000 C   0  0  0  0  0  0  0  0  0  0  0  0
   -1.8773  -10.2118    0.0000 C   0  0  0  0  0  0  0  0  0  0  0  0
   -0.6379   -9.3668    0.0000 C   0  0  0  0  0  0  0  0  0  0  0  0
   -0.7500   -7.8710    0.0000 C   0  0  0  0  0  0  0  0  0  0  0  0
    0.7500   -7.8710    0.0000 C   0  0  0  0  0  0  0  0  0  0  0  0
    0.6379   -9.3668    0.0000 C   0  0  0  0  0  0  0  0  0  0  0  0
    1.8773  -10.2118    0.0000 C   0  0  0  0  0  0  0  0  0  0  0  0
    3.2287   -9.5609    0.0000 C   0  0  0  0  0  0  0  0  0  0  0  0
    3.3408   -8.0651    0.0000 C   0  0  0  0  0  0  0  0  0  0  0  0
    2.1015   -7.2201    0.0000 C   0  0  0  0  0  0  0  0  0  0  0  0
  1  2  1  0
  2  3  1  0
  3  4  2  0
  4  5  1  0
  5  6  1  0
  6  7  2  0
  6  8  1  0
  8  9  1  0
  9 10  2  0
 10 11  1  0
 11 12  2  0
 12 13  1  0
 13 14  2  0
  5 15  1  0
 15 16  2  0
 16 17  1  0
 17 18  2  0
 18 19  1  0
 19 20  2  0
 20 21  1  0
 21 22  2  0
 22 23  1  0
 23 24  2  0
 24 25  1  0
 25 26  2  0
 26 27  1  0
 27 28  2  0
 28 29  1  0
 29 30  2  0
 30 31  1  0
 31 32  2  0
 32 33  1  0
 33 34  2  0
 34 35  1  0
 35 36  2  0
 36 37  1  0
 37 38  2  0
 38 39  1  0
 39 40  2  0
 40 41  1  0
 41 42  2  0
 42 43  1  0
 43 44  2  0
 44  2  1  0
 14  9  1  0
 20 15  1  0
 26 21  1  0
 32 27  1  0
 38 33  1  0
 44 39  1  0
M  END
>  <Title>  (796) 
idABCRgen10

$$$$

     RDKit          2D

 10 10  0  0  0  0  0  0  0  0999 V2000
    4.5000    0.0000    0.0000 N   0  0  0  0  0  0  0  0  0  0  0  0
    3.0000    0.0000    0.0000 C   0  0  0  0  0  0  0  0  0  0  0  0
    1.5000    0.0000    0.0000 C   0  0  0  0  0  0  0  0  0  0  0  0
    0.7500   -1.2990    0.0000 C   0  0  0  0  0  0  0  0  0  0  0  0
   -0.7500   -1.2990    0.0000 C   0  0  0  0  0  0  0  0  0  0  0  0
   -1.5000    0.0000    0.0000 C   0  0  0  0  0  0  0  0  0  0  0  0
   -3.0000    0.0000    0.0000 C   0  0  0  0  0  0  0  0  0  0  0  0
   -4.5000    0.0000    0.0000 N   0  0  0  0  0  0  0  0  0  0  0  0
   -0.7500    1.2990    0.0000 C   0  0  0  0  0  0  0  0  0  0  0  0
    0.7500    1.2990    0.0000 C   0  0  0  0  0  0  0  0  0  0  0  0
  1  2  3  0
  2  3  1  0
  3  4  2  0
  4  5  1  0
  5  6  2  0
  6  7  1  0
  7  8  3  0
  6  9  1  0
  9 10  2  0
 10  3  1  0
M  END
>  <Title>  (797) 
idABCSgen10

$$$$

     RDKit          2D

 45 51  0  0  0  0  0  0  0  0999 V2000
    3.7955   -8.2450    0.0000 C   0  0  0  0  0  0  0  0  0  0  0  0
    2.6807   -7.2413    0.0000 C   0  0  0  0  0  0  0  0  0  0  0  0
    3.4307   -5.9422    0.0000 C   0  0  0  0  0  0  0  0  0  0  0  0
    3.5875   -4.4504    0.0000 C   0  0  0  0  0  0  0  0  0  0  0  0
    3.1240   -3.0239    0.0000 C   0  0  0  0  0  0  0  0  0  0  0  0
    2.1203   -1.9091    0.0000 C   0  0  0  0  0  0  0  0  0  0  0  0
    3.0020   -0.6956    0.0000 C   0  0  0  0  0  0  0  0  0  0  0  0
    2.3919    0.6747    0.0000 O   0  0  0  0  0  0  0  0  0  0  0  0
    4.4938   -0.8524    0.0000 O   0  0  0  0  0  0  0  0  0  0  0  0
    5.3755    0.3611    0.0000 C   0  0  0  0  0  0  0  0  0  0  0  0
    6.8672    0.2043    0.0000 N   0  0  0  0  0  0  0  0  0  0  0  0
    7.7489    1.4178    0.0000 N   0  0  0  0  0  0  0  0  0  0  0  0
    7.1388    2.7882    0.0000 N   0  0  0  0  0  0  0  0  0  0  0  0
    5.6470    2.9450    0.0000 N   0  0  0  0  0  0  0  0  0  0  0  0
    4.7654    1.7314    0.0000 N   0  0  0  0  0  0  0  0  0  0  0  0
    0.7500   -1.2990    0.0000 C   0  0  0  0  0  0  0  0  0  0  0  0
    1.5000    0.0000    0.0000 C   0  0  0  0  0  0  0  0  0  0  0  0
    0.7500    1.2990    0.0000 C   0  0  0  0  0  0  0  0  0  0  0  0
   -0.7500    1.2990    0.0000 C   0  0  0  0  0  0  0  0  0  0  0  0
   -1.5000    0.0000    0.0000 C   0  0  0  0  0  0  0  0  0  0  0  0
   -0.7500   -1.2990    0.0000 C   0  0  0  0  0  0  0  0  0  0  0  0
   -2.1203   -1.9091    0.0000 C   0  0  0  0  0  0  0  0  0  0  0  0
   -2.5838   -0.4826    0.0000 C   0  0  0  0  0  0  0  0  0  0  0  0
   -4.0511   -0.1707    0.0000 C   0  0  0  0  0  0  0  0  0  0  0  0
   -5.0548   -1.2854    0.0000 C   0  0  0  0  0  0  0  0  0  0  0  0
   -4.5912   -2.7120    0.0000 C   0  0  0  0  0  0  0  0  0  0  0  0
   -3.1240   -3.0239    0.0000 C   0  0  0  0  0  0  0  0  0  0  0  0
   -3.5875   -4.4504    0.0000 C   0  0  0  0  0  0  0  0  0  0  0  0
   -4.9579   -3.8403    0.0000 C   0  0  0  0  0  0  0  0  0  0  0  0
   -6.1714   -4.7220    0.0000 C   0  0  0  0  0  0  0  0  0  0  0  0
   -6.0146   -6.2138    0.0000 C   0  0  0  0  0  0  0  0  0  0  0  0
   -4.6443   -6.8239    0.0000 C   0  0  0  0  0  0  0  0  0  0  0  0
   -3.4307   -5.9422    0.0000 C   0  0  0  0  0  0  0  0  0  0  0  0
   -2.6807   -7.2413    0.0000 C   0  0  0  0  0  0  0  0  0  0  0  0
   -4.0511   -7.8514    0.0000 C   0  0  0  0  0  0  0  0  0  0  0  0
   -4.2079   -9.3432    0.0000 C   0  0  0  0  0  0  0  0  0  0  0  0
   -2.9943  -10.2248    0.0000 C   0  0  0  0  0  0  0  0  0  0  0  0
   -1.6240   -9.6147    0.0000 C   0  0  0  0  0  0  0  0  0  0  0  0
   -1.4672   -8.1229    0.0000 C   0  0  0  0  0  0  0  0  0  0  0  0
   -0.0000   -8.4348    0.0000 C   0  0  0  0  0  0  0  0  0  0  0  0
   -0.4635   -9.8614    0.0000 C   0  0  0  0  0  0  0  0  0  0  0  0
    0.5402  -10.9761    0.0000 C   0  0  0  0  0  0  0  0  0  0  0  0
    2.0074  -10.6642    0.0000 C   0  0  0  0  0  0  0  0  0  0  0  0
    2.4709   -9.2377    0.0000 C   0  0  0  0  0  0  0  0  0  0  0  0
    1.4672   -8.1229    0.0000 C   0  0  0  0  0  0  0  0  0  0  0  0
  1  2  1  0
  2  3  1  0
  3  4  2  0
  4  5  1  0
  5  6  2  0
  6  7  1  0
  7  8  2  0
  7  9  1  0
  9 10  1  0
 10 11  2  0
 11 12  1  0
 12 13  2  0
 13 14  1  0
 14 15  2  0
  6 16  1  0
 16 17  2  0
 17 18  1  0
 18 19  2  0
 19 20  1  0
 20 21  2  0
 21 22  1  0
 22 23  2  0
 23 24  1  0
 24 25  2  0
 25 26  1  0
 26 27  2  0
 27 28  1  0
 28 29  2  0
 29 30  1  0
 30 31  2  0
 31 32  1  0
 32 33  2  0
 33 34  1  0
 34 35  2  0
 35 36  1  0
 36 37  2  0
 37 38  1  0
 38 39  2  0
 39 40  1  0
 40 41  2  0
 41 42  1  0
 42 43  2  0
 43 44  1  0
 44 45  2  0
 45  2  1  0
 15 10  1  0
 21 16  1  0
 27 22  1  0
 33 28  1  0
 39 34  1  0
 45 40  1  0
M  END
>  <Title>  (798) 
idABCTgen10

$$$$

     RDKit          2D

  6  6  0  0  0  0  0  0  0  0999 V2000
    1.5000    0.0000    0.0000 C   0  0  0  0  0  0  0  0  0  0  0  0
    0.7500   -1.2990    0.0000 C   0  0  0  0  0  0  0  0  0  0  0  0
   -0.7500   -1.2990    0.0000 C   0  0  0  0  0  0  0  0  0  0  0  0
   -1.5000    0.0000    0.0000 C   0  0  0  0  0  0  0  0  0  0  0  0
   -0.7500    1.2990    0.0000 C   0  0  0  0  0  0  0  0  0  0  0  0
    0.7500    1.2990    0.0000 C   0  0  0  0  0  0  0  0  0  0  0  0
  1  2  1  0
  2  3  1  0
  3  4  1  0
  4  5  1  0
  5  6  1  0
  6  1  1  0
M  END
>  <Title>  (799) 
idABCUgen10

$$$$

     RDKit          2D

  8  8  0  0  0  0  0  0  0  0999 V2000
    3.0000    0.0000    0.0000 C   0  0  0  0  0  0  0  0  0  0  0  0
    1.5000    0.0000    0.0000 C   0  0  0  0  0  0  0  0  0  0  0  0
    0.7500   -1.2990    0.0000 C   0  0  0  0  0  0  0  0  0  0  0  0
   -0.7500   -1.2990    0.0000 C   0  0  0  0  0  0  0  0  0  0  0  0
   -1.5000    0.0000    0.0000 C   0  0  0  0  0  0  0  0  0  0  0  0
   -0.7500    1.2990    0.0000 C   0  0  0  0  0  0  0  0  0  0  0  0
   -1.5000    2.5981    0.0000 O   0  0  0  0  0  0  0  0  0  0  0  0
    0.7500    1.2990    0.0000 C   0  0  0  0  0  0  0  0  0  0  0  0
  1  2  1  0
  2  3  2  0
  3  4  1  0
  4  5  2  0
  5  6  1  0
  6  7  1  0
  6  8  2  0
  8  2  1  0
M  END
>  <Title>  (800) 
idABCVgen10

$$$$

     RDKit          2D

 17 18  0  0  0  0  0  0  0  0999 V2000
    7.5000    0.0000    0.0000 C   0  0  0  0  0  0  0  0  0  0  0  0
    6.0000    0.0000    0.0000 C   0  0  0  0  0  0  0  0  0  0  0  0
    4.5000    0.0000    0.0000 C   0  0  0  0  0  0  0  0  0  0  0  0
    3.0000    0.0000    0.0000 C   0  0  0  0  0  0  0  0  0  0  0  0
    1.5000    0.0000    0.0000 C   0  0  0  0  0  0  0  0  0  0  0  0
    0.7500   -1.2990    0.0000 C   0  0  0  0  0  0  0  0  0  0  0  0
   -0.7500   -1.2990    0.0000 C   0  0  0  0  0  0  0  0  0  0  0  0
   -1.5000    0.0000    0.0000 C   0  0  0  0  0  0  0  0  0  0  0  0
   -0.7500    1.2990    0.0000 C   0  0  0  0  0  0  0  0  0  0  0  0
    0.7500    1.2990    0.0000 C   0  0  0  0  0  0  0  0  0  0  0  0
    1.5000    2.5981    0.0000 C   0  0  0  0  0  0  0  0  0  0  0  0
    3.0000    2.5981    0.0000 C   0  0  0  0  0  0  0  0  0  0  0  0
    3.7500    3.8971    0.0000 C   0  0  0  0  0  0  0  0  0  0  0  0
    3.1399    5.2674    0.0000 C   0  0  0  0  0  0  0  0  0  0  0  0
    4.2546    6.2711    0.0000 C   0  0  0  0  0  0  0  0  0  0  0  0
    5.5537    5.5211    0.0000 C   0  0  0  0  0  0  0  0  0  0  0  0
    5.2418    4.0539    0.0000 C   0  0  0  0  0  0  0  0  0  0  0  0
  1  2  3  0
  2  3  1  0
  3  4  3  0
  4  5  1  0
  5  6  2  0
  6  7  1  0
  7  8  2  0
  8  9  1  0
  9 10  2  0
 10 11  1  0
 11 12  1  0
 12 13  1  0
 13 14  2  0
 14 15  1  0
 15 16  2  0
 16 17  1  0
 10  5  1  0
 17 13  1  0
M  END
>  <Title>  (801) 
idABCWgen10

$$$$

     RDKit          2D

 11 11  0  0  0  0  0  0  0  0999 V2000
    6.0000   -2.5981    0.0000 C   0  0  0  0  0  0  0  0  0  0  0  0
    5.2500   -1.2990    0.0000 C   0  0  0  0  0  0  0  0  0  0  0  0
    3.7500   -1.2990    0.0000 C   0  0  0  0  0  0  0  0  0  0  0  0
    3.0000    0.0000    0.0000 C   0  0  0  0  0  0  0  0  0  0  0  0
    3.7500    1.2990    0.0000 O   0  0  0  0  0  0  0  0  0  0  0  0
    1.5000    0.0000    0.0000 C   0  0  0  0  0  0  0  0  0  0  0  0
    0.7500   -1.2990    0.0000 C   0  0  0  0  0  0  0  0  0  0  0  0
   -0.7500   -1.2990    0.0000 C   0  0  0  0  0  0  0  0  0  0  0  0
   -1.5000    0.0000    0.0000 C   0  0  0  0  0  0  0  0  0  0  0  0
   -0.7500    1.2990    0.0000 C   0  0  0  0  0  0  0  0  0  0  0  0
    0.7500    1.2990    0.0000 C   0  0  0  0  0  0  0  0  0  0  0  0
  1  2  2  0
  2  3  1  0
  3  4  1  0
  4  5  2  0
  4  6  1  0
  6  7  2  0
  7  8  1  0
  8  9  2  0
  9 10  1  0
 10 11  2  0
 11  6  1  0
M  END
>  <Title>  (802) 
idABCXgen10

$$$$

     RDKit          2D

  9  9  0  0  0  0  0  0  0  0999 V2000
    3.2286   -0.0000    0.0000 C   0  0  0  0  0  0  0  0  0  0  0  0
    1.7286    0.0000    0.0000 C   0  0  0  0  0  0  0  0  0  0  0  0
    1.0777    1.3515    0.0000 C   0  0  0  0  0  0  0  0  0  0  0  0
   -0.3846    1.6852    0.0000 C   0  0  0  0  0  0  0  0  0  0  0  0
   -1.5574    0.7500    0.0000 C   0  0  0  0  0  0  0  0  0  0  0  0
   -1.5574   -0.7500    0.0000 C   0  0  0  0  0  0  0  0  0  0  0  0
   -2.9088   -1.4008    0.0000 C   0  0  0  0  0  0  0  0  0  0  0  0
   -0.3846   -1.6852    0.0000 C   0  0  0  0  0  0  0  0  0  0  0  0
    1.0777   -1.3515    0.0000 C   0  0  0  0  0  0  0  0  0  0  0  0
  1  2  1  0
  2  3  2  0
  3  4  1  0
  4  5  2  0
  5  6  1  0
  6  7  1  0
  6  8  1  0
  8  9  2  0
  9  2  1  0
M  END
>  <Title>  (803) 
idABCYgen10

$$$$

     RDKit          2D

 10 10  0  0  0  0  0  0  0  0999 V2000
    4.5000   -2.5981    0.0000 C   0  0  0  0  0  0  0  0  0  0  0  0
    3.7500   -1.2990    0.0000 C   0  0  0  0  0  0  0  0  0  0  0  0
    3.0000    0.0000    0.0000 C   0  0  0  0  0  0  0  0  0  0  0  0
    3.7500    1.2990    0.0000 O   0  0  0  0  0  0  0  0  0  0  0  0
    1.5000    0.0000    0.0000 C   0  0  0  0  0  0  0  0  0  0  0  0
    0.7500   -1.2990    0.0000 C   0  0  0  0  0  0  0  0  0  0  0  0
   -0.7500   -1.2990    0.0000 C   0  0  0  0  0  0  0  0  0  0  0  0
   -1.5000    0.0000    0.0000 C   0  0  0  0  0  0  0  0  0  0  0  0
   -0.7500    1.2990    0.0000 C   0  0  0  0  0  0  0  0  0  0  0  0
    0.7500    1.2990    0.0000 N   0  0  0  0  0  0  0  0  0  0  0  0
  1  2  3  0
  2  3  1  0
  3  4  2  0
  3  5  1  0
  5  6  2  0
  6  7  1  0
  7  8  2  0
  8  9  1  0
  9 10  2  0
 10  5  1  0
M  END
>  <Title>  (804) 
idABCZgen10

$$$$

     RDKit          2D

 64 65  0  0  0  0  0  0  0  0999 V2000
   -2.2649   -1.0434    0.0000 C   0  0  0  0  0  0  0  0  0  0  0  0
   -2.4995    0.4381    0.0000 C   0  0  0  0  0  0  0  0  0  0  0  0
   -3.9913    0.2813    0.0000 C   0  0  0  0  0  0  0  0  0  0  0  0
   -5.4913    0.2813    0.0000 C   0  0  0  0  0  0  0  0  0  0  0  0
   -6.9831    0.4381    0.0000 C   0  0  0  0  0  0  0  0  0  0  0  0
   -8.4503    0.7500    0.0000 C   0  0  0  0  0  0  0  0  0  0  0  0
   -9.8769    1.2135    0.0000 C   0  0  0  0  0  0  0  0  0  0  0  0
  -11.2472    1.8236    0.0000 N   0  0  0  0  0  0  0  0  0  0  0  0
  -12.5462    2.5736    0.0000 C   0  0  0  0  0  0  0  0  0  0  0  0
  -13.7598    3.4553    0.0000 C   0  0  0  0  0  0  0  0  0  0  0  0
  -14.8745    4.4590    0.0000 C   0  0  0  0  0  0  0  0  0  0  0  0
  -15.8782    5.5737    0.0000 C   0  0  0  0  0  0  0  0  0  0  0  0
  -16.7599    6.7872    0.0000 C   0  0  0  0  0  0  0  0  0  0  0  0
  -17.5099    8.0863    0.0000 C   0  0  0  0  0  0  0  0  0  0  0  0
  -18.1200    9.4566    0.0000 C   0  0  0  0  0  0  0  0  0  0  0  0
  -18.5835   10.8832    0.0000 C   0  0  0  0  0  0  0  0  0  0  0  0
  -18.8954   12.3504    0.0000 C   0  0  0  0  0  0  0  0  0  0  0  0
  -19.0521   13.8422    0.0000 C   0  0  0  0  0  0  0  0  0  0  0  0
  -19.0521   15.3422    0.0000 C   0  0  0  0  0  0  0  0  0  0  0  0
  -18.8954   16.8340    0.0000 C   0  0  0  0  0  0  0  0  0  0  0  0
  -18.5835   18.3012    0.0000 C   0  0  0  0  0  0  0  0  0  0  0  0
  -18.1200   19.7278    0.0000 C   0  0  0  0  0  0  0  0  0  0  0  0
  -17.5099   21.0981    0.0000 C   0  0  0  0  0  0  0  0  0  0  0  0
  -16.7599   22.3971    0.0000 C   0  0  0  0  0  0  0  0  0  0  0  0
  -15.8782   23.6107    0.0000 C   0  0  0  0  0  0  0  0  0  0  0  0
  -14.8745   24.7254    0.0000 C   0  0  0  0  0  0  0  0  0  0  0  0
  -13.7598   25.7291    0.0000 C   0  0  0  0  0  0  0  0  0  0  0  0
  -12.5462   26.6108    0.0000 C   0  0  0  0  0  0  0  0  0  0  0  0
  -11.2472   27.3608    0.0000 C   0  0  0  0  0  0  0  0  0  0  0  0
   -9.8769   27.9709    0.0000 C   0  0  0  0  0  0  0  0  0  0  0  0
   -8.4503   28.4344    0.0000 C   0  0  0  0  0  0  0  0  0  0  0  0
   -6.9831   28.7463    0.0000 C   0  0  0  0  0  0  0  0  0  0  0  0
   -5.4913   28.9030    0.0000 C   0  0  0  0  0  0  0  0  0  0  0  0
   -3.9913   28.9030    0.0000 C   0  0  0  0  0  0  0  0  0  0  0  0
   -2.4995   28.7463    0.0000 C   0  0  0  0  0  0  0  0  0  0  0  0
   -1.0323   28.4344    0.0000 C   0  0  0  0  0  0  0  0  0  0  0  0
    0.3943   27.9709    0.0000 C   0  0  0  0  0  0  0  0  0  0  0  0
    1.7646   27.3608    0.0000 C   0  0  0  0  0  0  0  0  0  0  0  0
    3.0637   26.6108    0.0000 C   0  0  0  0  0  0  0  0  0  0  0  0
    4.2772   25.7291    0.0000 C   0  0  0  0  0  0  0  0  0  0  0  0
    5.3919   24.7254    0.0000 C   0  0  0  0  0  0  0  0  0  0  0  0
    6.3956   23.6107    0.0000 C   0  0  0  0  0  0  0  0  0  0  0  0
    7.2773   22.3971    0.0000 C   0  0  0  0  0  0  0  0  0  0  0  0
    8.0273   21.0981    0.0000 C   0  0  0  0  0  0  0  0  0  0  0  0
    8.6374   19.7278    0.0000 C   0  0  0  0  0  0  0  0  0  0  0  0
    9.1009   18.3012    0.0000 C   0  0  0  0  0  0  0  0  0  0  0  0
    9.4128   16.8340    0.0000 C   0  0  0  0  0  0  0  0  0  0  0  0
    9.5696   15.3422    0.0000 C   0  0  0  0  0  0  0  0  0  0  0  0
    9.5696   13.8422    0.0000 C   0  0  0  0  0  0  0  0  0  0  0  0
    9.4128   12.3504    0.0000 C   0  0  0  0  0  0  0  0  0  0  0  0
    9.1009   10.8832    0.0000 C   0  0  0  0  0  0  0  0  0  0  0  0
    8.6374    9.4566    0.0000 C   0  0  0  0  0  0  0  0  0  0  0  0
    8.0273    8.0863    0.0000 C   0  0  0  0  0  0  0  0  0  0  0  0
    7.2773    6.7872    0.0000 C   0  0  0  0  0  0  0  0  0  0  0  0
    6.3956    5.5737    0.0000 C   0  0  0  0  0  0  0  0  0  0  0  0
    5.3919    4.4590    0.0000 C   0  0  0  0  0  0  0  0  0  0  0  0
    4.2772    3.4553    0.0000 C   0  0  0  0  0  0  0  0  0  0  0  0
    3.0637    2.5736    0.0000 C   0  0  0  0  0  0  0  0  0  0  0  0
    1.7646    1.8236    0.0000 C   0  0  0  0  0  0  0  0  0  0  0  0
    0.3943    1.2135    0.0000 C   0  0  0  0  0  0  0  0  0  0  0  0
    1.2760    0.0000    0.0000 C   0  0  0  0  0  0  0  0  0  0  0  0
    0.3943   -1.2135    0.0000 C   0  0  0  0  0  0  0  0  0  0  0  0
   -1.0323   -0.7500    0.0000 C   0  0  0  0  0  0  0  0  0  0  0  0
   -1.0323    0.7500    0.0000 C   0  0  0  0  0  0  0  0  0  0  0  0
  1  2  1  0
  2  3  1  0
  3  4  2  0
  4  5  1  0
  5  6  2  0
  6  7  1  0
  7  8  2  0
  8  9  1  0
  9 10  2  0
 10 11  1  0
 11 12  2  0
 12 13  1  0
 13 14  2  0
 14 15  1  0
 15 16  2  0
 16 17  1  0
 17 18  2  0
 18 19  1  0
 19 20  2  0
 20 21  1  0
 21 22  2  0
 22 23  1  0
 23 24  2  0
 24 25  1  0
 25 26  2  0
 26 27  1  0
 27 28  2  0
 28 29  1  0
 29 30  2  0
 30 31  1  0
 31 32  2  0
 32 33  1  0
 33 34  2  0
 34 35  1  0
 35 36  2  0
 36 37  1  0
 37 38  2  0
 38 39  1  0
 39 40  2  0
 40 41  1  0
 41 42  2  0
 42 43  1  0
 43 44  2  0
 44 45  1  0
 45 46  2  0
 46 47  1  0
 47 48  2  0
 48 49  1  0
 49 50  2  0
 50 51  1  0
 51 52  2  0
 52 53  1  0
 53 54  2  0
 54 55  1  0
 55 56  2  0
 56 57  1  0
 57 58  2  0
 58 59  1  0
 59 60  2  0
 60 61  1  0
 61 62  2  0
 62 63  1  0
 63 64  2  0
 64  2  1  0
 64 60  1  0
M  END
>  <Title>  (805) 
idABDAgen10

$$$$

     RDKit          2D

105106  0  0  0  0  0  0  0  0999 V2000
   -0.7001   -2.6895    0.0000 C   0  0  0  0  0  0  0  0  0  0  0  0
    0.4614   -3.6387    0.0000 C   0  0  0  0  0  0  0  0  0  0  0  0
   -0.4484   -4.8313    0.0000 C   0  0  0  0  0  0  0  0  0  0  0  0
   -1.2765   -6.0819    0.0000 C   0  0  0  0  0  0  0  0  0  0  0  0
   -2.0193   -7.3851    0.0000 C   0  0  0  0  0  0  0  0  0  0  0  0
   -2.6733   -8.7350    0.0000 C   0  0  0  0  0  0  0  0  0  0  0  0
   -3.2357  -10.1256    0.0000 C   0  0  0  0  0  0  0  0  0  0  0  0
   -3.7040  -11.5506    0.0000 C   0  0  0  0  0  0  0  0  0  0  0  0
   -4.0761  -13.0037    0.0000 C   0  0  0  0  0  0  0  0  0  0  0  0
   -4.3503  -14.4785    0.0000 C   0  0  0  0  0  0  0  0  0  0  0  0
   -4.5253  -15.9682    0.0000 C   0  0  0  0  0  0  0  0  0  0  0  0
   -4.6005  -17.4663    0.0000 C   0  0  0  0  0  0  0  0  0  0  0  0
   -4.5754  -18.9661    0.0000 C   0  0  0  0  0  0  0  0  0  0  0  0
   -4.4503  -20.4609    0.0000 C   0  0  0  0  0  0  0  0  0  0  0  0
   -4.2255  -21.9440    0.0000 C   0  0  0  0  0  0  0  0  0  0  0  0
   -3.9022  -23.4087    0.0000 C   0  0  0  0  0  0  0  0  0  0  0  0
   -3.4818  -24.8486    0.0000 C   0  0  0  0  0  0  0  0  0  0  0  0
   -2.9662  -26.2572    0.0000 C   0  0  0  0  0  0  0  0  0  0  0  0
   -2.3576  -27.6282    0.0000 C   0  0  0  0  0  0  0  0  0  0  0  0
   -1.6588  -28.9555    0.0000 C   0  0  0  0  0  0  0  0  0  0  0  0
   -0.8729  -30.2331    0.0000 C   0  0  0  0  0  0  0  0  0  0  0  0
   -0.0034  -31.4554    0.0000 C   0  0  0  0  0  0  0  0  0  0  0  0
    0.9457  -32.6169    0.0000 C   0  0  0  0  0  0  0  0  0  0  0  0
    1.9704  -33.7124    0.0000 C   0  0  0  0  0  0  0  0  0  0  0  0
    3.0659  -34.7370    0.0000 C   0  0  0  0  0  0  0  0  0  0  0  0
    4.2274  -35.6862    0.0000 C   0  0  0  0  0  0  0  0  0  0  0  0
    5.4497  -36.5557    0.0000 C   0  0  0  0  0  0  0  0  0  0  0  0
    6.7273  -37.3416    0.0000 C   0  0  0  0  0  0  0  0  0  0  0  0
    8.0546  -38.0403    0.0000 C   0  0  0  0  0  0  0  0  0  0  0  0
    9.4256  -38.6489    0.0000 C   0  0  0  0  0  0  0  0  0  0  0  0
   10.8342  -39.1646    0.0000 C   0  0  0  0  0  0  0  0  0  0  0  0
   12.2741  -39.5850    0.0000 C   0  0  0  0  0  0  0  0  0  0  0  0
   13.7388  -39.9083    0.0000 C   0  0  0  0  0  0  0  0  0  0  0  0
   15.2219  -40.1330    0.0000 C   0  0  0  0  0  0  0  0  0  0  0  0
   16.7166  -40.2582    0.0000 C   0  0  0  0  0  0  0  0  0  0  0  0
   18.2164  -40.2833    0.0000 C   0  0  0  0  0  0  0  0  0  0  0  0
   19.7146  -40.2081    0.0000 C   0  0  0  0  0  0  0  0  0  0  0  0
   21.2043  -40.0330    0.0000 C   0  0  0  0  0  0  0  0  0  0  0  0
   22.6790  -39.7589    0.0000 C   0  0  0  0  0  0  0  0  0  0  0  0
   24.1322  -39.3868    0.0000 C   0  0  0  0  0  0  0  0  0  0  0  0
   25.5572  -38.9185    0.0000 C   0  0  0  0  0  0  0  0  0  0  0  0
   26.9478  -38.3561    0.0000 C   0  0  0  0  0  0  0  0  0  0  0  0
   28.2976  -37.7020    0.0000 C   0  0  0  0  0  0  0  0  0  0  0  0
   29.6008  -36.9593    0.0000 C   0  0  0  0  0  0  0  0  0  0  0  0
   30.8515  -36.1312    0.0000 C   0  0  0  0  0  0  0  0  0  0  0  0
   32.0441  -35.2213    0.0000 C   0  0  0  0  0  0  0  0  0  0  0  0
   33.1732  -34.2339    0.0000 C   0  0  0  0  0  0  0  0  0  0  0  0
   34.2339  -33.1732    0.0000 C   0  0  0  0  0  0  0  0  0  0  0  0
   35.2213  -32.0441    0.0000 C   0  0  0  0  0  0  0  0  0  0  0  0
   36.1312  -30.8515    0.0000 C   0  0  0  0  0  0  0  0  0  0  0  0
   36.9593  -29.6008    0.0000 C   0  0  0  0  0  0  0  0  0  0  0  0
   37.7020  -28.2976    0.0000 C   0  0  0  0  0  0  0  0  0  0  0  0
   38.3561  -26.9478    0.0000 C   0  0  0  0  0  0  0  0  0  0  0  0
   38.9185  -25.5572    0.0000 C   0  0  0  0  0  0  0  0  0  0  0  0
   39.3868  -24.1322    0.0000 C   0  0  0  0  0  0  0  0  0  0  0  0
   39.7589  -22.6790    0.0000 C   0  0  0  0  0  0  0  0  0  0  0  0
   40.0330  -21.2043    0.0000 C   0  0  0  0  0  0  0  0  0  0  0  0
   40.2081  -19.7146    0.0000 C   0  0  0  0  0  0  0  0  0  0  0  0
   40.2833  -18.2164    0.0000 C   0  0  0  0  0  0  0  0  0  0  0  0
   40.2582  -16.7166    0.0000 C   0  0  0  0  0  0  0  0  0  0  0  0
   40.1330  -15.2219    0.0000 C   0  0  0  0  0  0  0  0  0  0  0  0
   39.9083  -13.7388    0.0000 C   0  0  0  0  0  0  0  0  0  0  0  0
   39.5850  -12.2741    0.0000 C   0  0  0  0  0  0  0  0  0  0  0  0
   39.1646  -10.8342    0.0000 C   0  0  0  0  0  0  0  0  0  0  0  0
   38.6489   -9.4256    0.0000 C   0  0  0  0  0  0  0  0  0  0  0  0
   38.0403   -8.0546    0.0000 C   0  0  0  0  0  0  0  0  0  0  0  0
   37.3416   -6.7273    0.0000 C   0  0  0  0  0  0  0  0  0  0  0  0
   36.5557   -5.4497    0.0000 C   0  0  0  0  0  0  0  0  0  0  0  0
   35.6862   -4.2274    0.0000 C   0  0  0  0  0  0  0  0  0  0  0  0
   34.7370   -3.0659    0.0000 C   0  0  0  0  0  0  0  0  0  0  0  0
   33.7124   -1.9704    0.0000 C   0  0  0  0  0  0  0  0  0  0  0  0
   32.6169   -0.9457    0.0000 C   0  0  0  0  0  0  0  0  0  0  0  0
   31.4554    0.0034    0.0000 C   0  0  0  0  0  0  0  0  0  0  0  0
   30.2331    0.8729    0.0000 C   0  0  0  0  0  0  0  0  0  0  0  0
   28.9555    1.6588    0.0000 C   0  0  0  0  0  0  0  0  0  0  0  0
   27.6282    2.3576    0.0000 C   0  0  0  0  0  0  0  0  0  0  0  0
   26.2572    2.9662    0.0000 C   0  0  0  0  0  0  0  0  0  0  0  0
   24.8486    3.4818    0.0000 C   0  0  0  0  0  0  0  0  0  0  0  0
   23.4087    3.9022    0.0000 C   0  0  0  0  0  0  0  0  0  0  0  0
   21.9440    4.2255    0.0000 C   0  0  0  0  0  0  0  0  0  0  0  0
   20.4609    4.4503    0.0000 C   0  0  0  0  0  0  0  0  0  0  0  0
   18.9661    4.5754    0.0000 C   0  0  0  0  0  0  0  0  0  0  0  0
   17.4663    4.6005    0.0000 C   0  0  0  0  0  0  0  0  0  0  0  0
   15.9682    4.5253    0.0000 C   0  0  0  0  0  0  0  0  0  0  0  0
   14.4785    4.3503    0.0000 C   0  0  0  0  0  0  0  0  0  0  0  0
   13.0037    4.0761    0.0000 C   0  0  0  0  0  0  0  0  0  0  0  0
   11.5506    3.7040    0.0000 C   0  0  0  0  0  0  0  0  0  0  0  0
   10.1256    3.2357    0.0000 C   0  0  0  0  0  0  0  0  0  0  0  0
    8.7350    2.6733    0.0000 C   0  0  0  0  0  0  0  0  0  0  0  0
    7.3851    2.0193    0.0000 C   0  0  0  0  0  0  0  0  0  0  0  0
    6.0819    1.2765    0.0000 C   0  0  0  0  0  0  0  0  0  0  0  0
    4.8313    0.4484    0.0000 C   0  0  0  0  0  0  0  0  0  0  0  0
    3.6387   -0.4614    0.0000 C   0  0  0  0  0  0  0  0  0  0  0  0
    2.5095   -1.4489    0.0000 C   0  0  0  0  0  0  0  0  0  0  0  0
    2.8978    0.0000    0.0000 C   0  0  0  0  0  0  0  0  0  0  0  0
    2.5095    1.4489    0.0000 C   0  0  0  0  0  0  0  0  0  0  0  0
    1.4489    2.5095    0.0000 C   0  0  0  0  0  0  0  0  0  0  0  0
    0.0000    2.8978    0.0000 C   0  0  0  0  0  0  0  0  0  0  0  0
   -1.4489    2.5095    0.0000 C   0  0  0  0  0  0  0  0  0  0  0  0
   -2.5095    1.4489    0.0000 C   0  0  0  0  0  0  0  0  0  0  0  0
   -2.8978    0.0000    0.0000 C   0  0  0  0  0  0  0  0  0  0  0  0
   -2.5095   -1.4489    0.0000 C   0  0  0  0  0  0  0  0  0  0  0  0
   -1.4489   -2.5095    0.0000 C   0  0  0  0  0  0  0  0  0  0  0  0
   -0.0000   -2.8978    0.0000 C   0  0  0  0  0  0  0  0  0  0  0  0
    1.4489   -2.5095    0.0000 C   0  0  0  0  0  0  0  0  0  0  0  0
  1  2  1  0
  2  3  1  0
  3  4  1  0
  4  5  1  0
  5  6  1  0
  6  7  1  0
  7  8  1  0
  8  9  1  0
  9 10  1  0
 10 11  1  0
 11 12  1  0
 12 13  1  0
 13 14  1  0
 14 15  1  0
 15 16  1  0
 16 17  1  0
 17 18  1  0
 18 19  1  0
 19 20  1  0
 20 21  1  0
 21 22  1  0
 22 23  1  0
 23 24  1  0
 24 25  1  0
 25 26  1  0
 26 27  1  0
 27 28  1  0
 28 29  1  0
 29 30  1  0
 30 31  1  0
 31 32  1  0
 32 33  1  0
 33 34  1  0
 34 35  1  0
 35 36  1  0
 36 37  1  0
 37 38  1  0
 38 39  1  0
 39 40  1  0
 40 41  1  0
 41 42  1  0
 42 43  1  0
 43 44  1  0
 44 45  1  0
 45 46  1  0
 46 47  1  0
 47 48  1  0
 48 49  1  0
 49 50  1  0
 50 51  1  0
 51 52  1  0
 52 53  1  0
 53 54  1  0
 54 55  1  0
 55 56  1  0
 56 57  1  0
 57 58  1  0
 58 59  1  0
 59 60  1  0
 60 61  1  0
 61 62  1  0
 62 63  1  0
 63 64  1  0
 64 65  1  0
 65 66  1  0
 66 67  1  0
 67 68  1  0
 68 69  1  0
 69 70  1  0
 70 71  1  0
 71 72  1  0
 72 73  1  0
 73 74  1  0
 74 75  1  0
 75 76  1  0
 76 77  1  0
 77 78  1  0
 78 79  1  0
 79 80  1  0
 80 81  1  0
 81 82  1  0
 82 83  1  0
 83 84  1  0
 84 85  1  0
 85 86  1  0
 86 87  1  0
 87 88  1  0
 88 89  1  0
 89 90  1  0
 90 91  1  0
 91 92  1  0
 92 93  1  0
 93 94  1  0
 94 95  1  0
 95 96  1  0
 96 97  1  0
 97 98  1  0
 98 99  2  0
 99100  1  0
100101  2  0
101102  1  0
102103  2  0
103104  1  0
104105  2  0
105  2  1  0
105 94  1  0
M  END
>  <Title>  (806) 
idABDBgen10

$$$$

     RDKit          2D

 11 11  0  0  0  0  0  0  0  0999 V2000
    5.2500   -1.2990    0.0000 C   0  0  0  0  0  0  0  0  0  0  0  0
    3.7500   -1.2990    0.0000 N   0  0  0  0  0  0  0  0  0  0  0  0
    3.0000   -2.5981    0.0000 C   0  0  0  0  0  0  0  0  0  0  0  0
    3.0000    0.0000    0.0000 C   0  0  0  0  0  0  0  0  0  0  0  0
    3.7500    1.2990    0.0000 O   0  0  0  0  0  0  0  0  0  0  0  0
    1.5000    0.0000    0.0000 C   0  0  0  0  0  0  0  0  0  0  0  0
    0.7500   -1.2990    0.0000 C   0  0  0  0  0  0  0  0  0  0  0  0
   -0.7500   -1.2990    0.0000 C   0  0  0  0  0  0  0  0  0  0  0  0
   -1.5000    0.0000    0.0000 C   0  0  0  0  0  0  0  0  0  0  0  0
   -0.7500    1.2990    0.0000 C   0  0  0  0  0  0  0  0  0  0  0  0
    0.7500    1.2990    0.0000 C   0  0  0  0  0  0  0  0  0  0  0  0
  1  2  1  0
  2  3  1  0
  2  4  1  0
  4  5  2  0
  4  6  1  0
  6  7  2  0
  7  8  1  0
  8  9  2  0
  9 10  1  0
 10 11  2  0
 11  6  1  0
M  END
>  <Title>  (807) 
idABDCgen10

$$$$

     RDKit          2D

 85 86  0  0  0  0  0  0  0  0999 V2000
   -2.1957   -1.0723    0.0000 C   0  0  0  0  0  0  0  0  0  0  0  0
   -2.4905    0.3984    0.0000 C   0  0  0  0  0  0  0  0  0  0  0  0
   -3.9716    0.1609    0.0000 C   0  0  0  0  0  0  0  0  0  0  0  0
   -5.4666    0.0389    0.0000 C   0  0  0  0  0  0  0  0  0  0  0  0
   -6.9666    0.0330    0.0000 C   0  0  0  0  0  0  0  0  0  0  0  0
   -8.4625    0.1435    0.0000 C   0  0  0  0  0  0  0  0  0  0  0  0
   -9.9454    0.3695    0.0000 C   0  0  0  0  0  0  0  0  0  0  0  0
  -11.4063    0.7098    0.0000 C   0  0  0  0  0  0  0  0  0  0  0  0
  -12.8364    1.1622    0.0000 C   0  0  0  0  0  0  0  0  0  0  0  0
  -14.2272    1.7241    0.0000 C   0  0  0  0  0  0  0  0  0  0  0  0
  -15.5703    2.3921    0.0000 C   0  0  0  0  0  0  0  0  0  0  0  0
  -16.8575    3.1622    0.0000 C   0  0  0  0  0  0  0  0  0  0  0  0
  -18.0812    4.0297    0.0000 C   0  0  0  0  0  0  0  0  0  0  0  0
  -19.2340    4.9894    0.0000 C   0  0  0  0  0  0  0  0  0  0  0  0
  -20.3090    6.0356    0.0000 C   0  0  0  0  0  0  0  0  0  0  0  0
  -21.2996    7.1619    0.0000 C   0  0  0  0  0  0  0  0  0  0  0  0
  -22.2000    8.3616    0.0000 C   0  0  0  0  0  0  0  0  0  0  0  0
  -23.0047    9.6274    0.0000 C   0  0  0  0  0  0  0  0  0  0  0  0
  -23.7089   10.9519    0.0000 C   0  0  0  0  0  0  0  0  0  0  0  0
  -24.3084   12.3269    0.0000 C   0  0  0  0  0  0  0  0  0  0  0  0
  -24.7995   13.7442    0.0000 C   0  0  0  0  0  0  0  0  0  0  0  0
  -25.1793   15.1953    0.0000 C   0  0  0  0  0  0  0  0  0  0  0  0
  -25.4455   16.6715    0.0000 C   0  0  0  0  0  0  0  0  0  0  0  0
  -25.5965   18.1639    0.0000 C   0  0  0  0  0  0  0  0  0  0  0  0
  -25.6314   19.6635    0.0000 C   0  0  0  0  0  0  0  0  0  0  0  0
  -25.5500   21.1613    0.0000 C   0  0  0  0  0  0  0  0  0  0  0  0
  -25.3528   22.6483    0.0000 C   0  0  0  0  0  0  0  0  0  0  0  0
  -25.0409   24.1155    0.0000 C   0  0  0  0  0  0  0  0  0  0  0  0
  -24.6163   25.5541    0.0000 C   0  0  0  0  0  0  0  0  0  0  0  0
  -24.0814   26.9555    0.0000 C   0  0  0  0  0  0  0  0  0  0  0  0
  -23.4396   28.3113    0.0000 C   0  0  0  0  0  0  0  0  0  0  0  0
  -22.6947   29.6132    0.0000 C   0  0  0  0  0  0  0  0  0  0  0  0
  -21.8510   30.8535    0.0000 C   0  0  0  0  0  0  0  0  0  0  0  0
  -20.9139   32.0247    0.0000 C   0  0  0  0  0  0  0  0  0  0  0  0
  -19.8887   33.1197    0.0000 C   0  0  0  0  0  0  0  0  0  0  0  0
  -18.7818   34.1321    0.0000 C   0  0  0  0  0  0  0  0  0  0  0  0
  -17.5998   35.0556    0.0000 C   0  0  0  0  0  0  0  0  0  0  0  0
  -16.3498   35.8847    0.0000 C   0  0  0  0  0  0  0  0  0  0  0  0
  -15.0393   36.6144    0.0000 C   0  0  0  0  0  0  0  0  0  0  0  0
  -13.6762   37.2404    0.0000 C   0  0  0  0  0  0  0  0  0  0  0  0
  -12.2686   37.7589    0.0000 C   0  0  0  0  0  0  0  0  0  0  0  0
  -10.8251   38.1668    0.0000 C   0  0  0  0  0  0  0  0  0  0  0  0
   -9.3544   38.4616    0.0000 C   0  0  0  0  0  0  0  0  0  0  0  0
   -7.8652   38.6415    0.0000 C   0  0  0  0  0  0  0  0  0  0  0  0
   -6.3666   38.7055    0.0000 C   0  0  0  0  0  0  0  0  0  0  0  0
   -4.8675   38.6531    0.0000 C   0  0  0  0  0  0  0  0  0  0  0  0
   -3.3770   38.4847    0.0000 C   0  0  0  0  0  0  0  0  0  0  0  0
   -1.9040   38.2014    0.0000 C   0  0  0  0  0  0  0  0  0  0  0  0
   -0.4574   37.8047    0.0000 C   0  0  0  0  0  0  0  0  0  0  0  0
    0.9541   37.2972    0.0000 C   0  0  0  0  0  0  0  0  0  0  0  0
    2.3221   36.6818    0.0000 C   0  0  0  0  0  0  0  0  0  0  0  0
    3.6382   35.9622    0.0000 C   0  0  0  0  0  0  0  0  0  0  0  0
    4.8946   35.1428    0.0000 C   0  0  0  0  0  0  0  0  0  0  0  0
    6.0838   34.2285    0.0000 C   0  0  0  0  0  0  0  0  0  0  0  0
    7.1985   33.2248    0.0000 C   0  0  0  0  0  0  0  0  0  0  0  0
    8.2321   32.1377    0.0000 C   0  0  0  0  0  0  0  0  0  0  0  0
    9.1783   30.9739    0.0000 C   0  0  0  0  0  0  0  0  0  0  0  0
   10.0315   29.7402    0.0000 C   0  0  0  0  0  0  0  0  0  0  0  0
   10.7866   28.4440    0.0000 C   0  0  0  0  0  0  0  0  0  0  0  0
   11.4389   27.0933    0.0000 C   0  0  0  0  0  0  0  0  0  0  0  0
   11.9846   25.6961    0.0000 C   0  0  0  0  0  0  0  0  0  0  0  0
   12.4204   24.2608    0.0000 C   0  0  0  0  0  0  0  0  0  0  0  0
   12.7436   22.7960    0.0000 C   0  0  0  0  0  0  0  0  0  0  0  0
   12.9524   21.3106    0.0000 C   0  0  0  0  0  0  0  0  0  0  0  0
   13.0454   19.8135    0.0000 C   0  0  0  0  0  0  0  0  0  0  0  0
   13.0221   18.3137    0.0000 C   0  0  0  0  0  0  0  0  0  0  0  0
   12.8827   16.8202    0.0000 C   0  0  0  0  0  0  0  0  0  0  0  0
   12.6279   15.3420    0.0000 C   0  0  0  0  0  0  0  0  0  0  0  0
   12.2594   13.8879    0.0000 C   0  0  0  0  0  0  0  0  0  0  0  0
   11.7793   12.4668    0.0000 C   0  0  0  0  0  0  0  0  0  0  0  0
   11.1906   11.0872    0.0000 C   0  0  0  0  0  0  0  0  0  0  0  0
   10.4966    9.7574    0.0000 C   0  0  0  0  0  0  0  0  0  0  0  0
    9.7018    8.4853    0.0000 C   0  0  0  0  0  0  0  0  0  0  0  0
    8.8107    7.2787    0.0000 C   0  0  0  0  0  0  0  0  0  0  0  0
    7.8288    6.1447    0.0000 C   0  0  0  0  0  0  0  0  0  0  0  0
    6.7620    5.0902    0.0000 C   0  0  0  0  0  0  0  0  0  0  0  0
    5.6167    4.1216    0.0000 C   0  0  0  0  0  0  0  0  0  0  0  0
    4.3997    3.2446    0.0000 C   0  0  0  0  0  0  0  0  0  0  0  0
    3.1185    2.4646    0.0000 C   0  0  0  0  0  0  0  0  0  0  0  0
    1.7807    1.7862    0.0000 C   0  0  0  0  0  0  0  0  0  0  0  0
    0.3943    1.2135    0.0000 C   0  0  0  0  0  0  0  0  0  0  0  0
    1.2760    0.0000    0.0000 C   0  0  0  0  0  0  0  0  0  0  0  0
    0.3943   -1.2135    0.0000 C   0  0  0  0  0  0  0  0  0  0  0  0
   -1.0323   -0.7500    0.0000 C   0  0  0  0  0  0  0  0  0  0  0  0
   -1.0323    0.7500    0.0000 C   0  0  0  0  0  0  0  0  0  0  0  0
  1  2  1  0
  2  3  1  0
  3  4  1  0
  4  5  1  0
  5  6  1  0
  6  7  1  0
  7  8  1  0
  8  9  1  0
  9 10  1  0
 10 11  1  0
 11 12  1  0
 12 13  1  0
 13 14  1  0
 14 15  1  0
 15 16  1  0
 16 17  1  0
 17 18  1  0
 18 19  1  0
 19 20  1  0
 20 21  1  0
 21 22  1  0
 22 23  1  0
 23 24  1  0
 24 25  1  0
 25 26  1  0
 26 27  1  0
 27 28  1  0
 28 29  1  0
 29 30  1  0
 30 31  1  0
 31 32  1  0
 32 33  1  0
 33 34  1  0
 34 35  1  0
 35 36  1  0
 36 37  1  0
 37 38  1  0
 38 39  1  0
 39 40  1  0
 40 41  1  0
 41 42  1  0
 42 43  1  0
 43 44  1  0
 44 45  1  0
 45 46  1  0
 46 47  1  0
 47 48  1  0
 48 49  1  0
 49 50  1  0
 50 51  1  0
 51 52  1  0
 52 53  1  0
 53 54  1  0
 54 55  1  0
 55 56  1  0
 56 57  1  0
 57 58  1  0
 58 59  1  0
 59 60  1  0
 60 61  1  0
 61 62  1  0
 62 63  1  0
 63 64  1  0
 64 65  1  0
 65 66  1  0
 66 67  1  0
 67 68  1  0
 68 69  1  0
 69 70  1  0
 70 71  1  0
 71 72  1  0
 72 73  1  0
 73 74  1  0
 74 75  1  0
 75 76  1  0
 76 77  2  0
 77 78  1  0
 78 79  2  0
 79 80  1  0
 80 81  2  0
 81 82  1  0
 82 83  2  0
 83 84  1  0
 84 85  2  0
 85  2  1  0
 85 81  1  0
M  END
>  <Title>  (808) 
idABDDgen10

$$$$

     RDKit          2D

  7  7  0  0  0  0  0  0  0  0999 V2000
    3.0000    0.0000    0.0000 C   0  0  0  0  0  0  0  0  0  0  0  0
    1.5000    0.0000    0.0000 C   0  0  0  0  0  0  0  0  0  0  0  0
    0.7500   -1.2990    0.0000 C   0  0  0  0  0  0  0  0  0  0  0  0
   -0.7500   -1.2990    0.0000 C   0  0  0  0  0  0  0  0  0  0  0  0
   -1.5000    0.0000    0.0000 C   0  0  0  0  0  0  0  0  0  0  0  0
   -0.7500    1.2990    0.0000 C   0  0  0  0  0  0  0  0  0  0  0  0
    0.7500    1.2990    0.0000 C   0  0  0  0  0  0  0  0  0  0  0  0
  1  2  1  0
  2  3  2  0
  3  4  1  0
  4  5  1  0
  5  6  1  0
  6  7  1  0
  7  2  1  0
M  END
>  <Title>  (809) 
idABDEgen10

$$$$

     RDKit          2D

 74 75  0  0  0  0  0  0  0  0999 V2000
   11.0142    4.8369    0.0000 C   0  0  0  0  0  0  0  0  0  0  0  0
   12.4674    4.4650    0.0000 C   0  0  0  0  0  0  0  0  0  0  0  0
   13.0423    5.8504    0.0000 C   0  0  0  0  0  0  0  0  0  0  0  0
   13.9843    7.0178    0.0000 C   0  0  0  0  0  0  0  0  0  0  0  0
   15.2170    7.8724    0.0000 C   0  0  0  0  0  0  0  0  0  0  0  0
   16.6406    8.3452    0.0000 C   0  0  0  0  0  0  0  0  0  0  0  0
   18.1397    8.3977    0.0000 C   0  0  0  0  0  0  0  0  0  0  0  0
   19.5928    8.0258    0.0000 C   0  0  0  0  0  0  0  0  0  0  0  0
   20.8823    7.2595    0.0000 C   0  0  0  0  0  0  0  0  0  0  0  0
   21.9037    6.1609    0.0000 C   0  0  0  0  0  0  0  0  0  0  0  0
   22.5742    4.8192    0.0000 C   0  0  0  0  0  0  0  0  0  0  0  0
   22.8396    3.3428    0.0000 C   0  0  0  0  0  0  0  0  0  0  0  0
   22.6782    1.8515    0.0000 C   0  0  0  0  0  0  0  0  0  0  0  0
   22.1033    0.4661    0.0000 C   0  0  0  0  0  0  0  0  0  0  0  0
   21.1613   -0.7012    0.0000 C   0  0  0  0  0  0  0  0  0  0  0  0
   19.9286   -1.5559    0.0000 C   0  0  0  0  0  0  0  0  0  0  0  0
   18.5050   -2.0286    0.0000 C   0  0  0  0  0  0  0  0  0  0  0  0
   17.0059   -2.0812    0.0000 C   0  0  0  0  0  0  0  0  0  0  0  0
   15.5528   -1.7092    0.0000 C   0  0  0  0  0  0  0  0  0  0  0  0
   14.2633   -0.9430    0.0000 C   0  0  0  0  0  0  0  0  0  0  0  0
   13.2419    0.1556    0.0000 C   0  0  0  0  0  0  0  0  0  0  0  0
   12.5714    1.4974    0.0000 C   0  0  0  0  0  0  0  0  0  0  0  0
   11.9602    0.0000    0.0000 C   0  0  0  0  0  0  0  0  0  0  0  0
   11.8763   -1.4146    0.0000 C   0  0  0  0  0  0  0  0  0  0  0  0
   11.6256   -2.8093    0.0000 C   0  0  0  0  0  0  0  0  0  0  0  0
   11.2118   -4.1646    0.0000 C   0  0  0  0  0  0  0  0  0  0  0  0
   10.6405   -5.4614    0.0000 C   0  0  0  0  0  0  0  0  0  0  0  0
    9.9199   -6.6815    0.0000 C   0  0  0  0  0  0  0  0  0  0  0  0
    9.0600   -7.8079    0.0000 C   0  0  0  0  0  0  0  0  0  0  0  0
    8.0730   -8.8247    0.0000 C   0  0  0  0  0  0  0  0  0  0  0  0
    6.9726   -9.7175    0.0000 C   0  0  0  0  0  0  0  0  0  0  0  0
    5.7743  -10.4740    0.0000 C   0  0  0  0  0  0  0  0  0  0  0  0
    4.4950  -11.0834    0.0000 C   0  0  0  0  0  0  0  0  0  0  0  0
    3.1526  -11.5373    0.0000 C   0  0  0  0  0  0  0  0  0  0  0  0
    1.7659  -11.8291    0.0000 C   0  0  0  0  0  0  0  0  0  0  0  0
    0.3544  -11.9550    0.0000 C   0  0  0  0  0  0  0  0  0  0  0  0
   -1.0620  -11.9130    0.0000 C   0  0  0  0  0  0  0  0  0  0  0  0
   -2.4636  -11.7038    0.0000 C   0  0  0  0  0  0  0  0  0  0  0  0
   -3.8305  -11.3302    0.0000 C   0  0  0  0  0  0  0  0  0  0  0  0
   -5.1437  -10.7977    0.0000 C   0  0  0  0  0  0  0  0  0  0  0  0
   -6.3847  -10.1135    0.0000 C   0  0  0  0  0  0  0  0  0  0  0  0
   -7.5360   -9.2874    0.0000 C   0  0  0  0  0  0  0  0  0  0  0  0
   -8.5816   -8.3309    0.0000 C   0  0  0  0  0  0  0  0  0  0  0  0
   -9.5066   -7.2575    0.0000 C   0  0  0  0  0  0  0  0  0  0  0  0
  -10.2983   -6.0821    0.0000 C   0  0  0  0  0  0  0  0  0  0  0  0
  -10.9454   -4.8214    0.0000 C   0  0  0  0  0  0  0  0  0  0  0  0
  -11.4388   -3.4931    0.0000 C   0  0  0  0  0  0  0  0  0  0  0  0
  -11.7716   -2.1156    0.0000 C   0  0  0  0  0  0  0  0  0  0  0  0
  -11.9392   -0.7085    0.0000 C   0  0  0  0  0  0  0  0  0  0  0  0
  -11.9392    0.7085    0.0000 C   0  0  0  0  0  0  0  0  0  0  0  0
  -11.7716    2.1156    0.0000 C   0  0  0  0  0  0  0  0  0  0  0  0
  -11.4388    3.4931    0.0000 C   0  0  0  0  0  0  0  0  0  0  0  0
  -10.9454    4.8214    0.0000 C   0  0  0  0  0  0  0  0  0  0  0  0
  -10.2983    6.0821    0.0000 C   0  0  0  0  0  0  0  0  0  0  0  0
   -9.5066    7.2575    0.0000 C   0  0  0  0  0  0  0  0  0  0  0  0
   -8.5816    8.3309    0.0000 C   0  0  0  0  0  0  0  0  0  0  0  0
   -7.5360    9.2874    0.0000 C   0  0  0  0  0  0  0  0  0  0  0  0
   -6.3847   10.1135    0.0000 C   0  0  0  0  0  0  0  0  0  0  0  0
   -5.1437   10.7977    0.0000 C   0  0  0  0  0  0  0  0  0  0  0  0
   -3.8305   11.3302    0.0000 C   0  0  0  0  0  0  0  0  0  0  0  0
   -2.4636   11.7038    0.0000 C   0  0  0  0  0  0  0  0  0  0  0  0
   -1.0620   11.9130    0.0000 C   0  0  0  0  0  0  0  0  0  0  0  0
    0.3544   11.9550    0.0000 C   0  0  0  0  0  0  0  0  0  0  0  0
    1.7659   11.8291    0.0000 C   0  0  0  0  0  0  0  0  0  0  0  0
    3.1526   11.5373    0.0000 C   0  0  0  0  0  0  0  0  0  0  0  0
    4.4950   11.0834    0.0000 C   0  0  0  0  0  0  0  0  0  0  0  0
    5.7743   10.4740    0.0000 C   0  0  0  0  0  0  0  0  0  0  0  0
    6.9726    9.7175    0.0000 C   0  0  0  0  0  0  0  0  0  0  0  0
    8.0730    8.8247    0.0000 C   0  0  0  0  0  0  0  0  0  0  0  0
    9.0600    7.8079    0.0000 C   0  0  0  0  0  0  0  0  0  0  0  0
    9.9199    6.6815    0.0000 C   0  0  0  0  0  0  0  0  0  0  0  0
   10.6405    5.4614    0.0000 C   0  0  0  0  0  0  0  0  0  0  0  0
   11.2118    4.1646    0.0000 C   0  0  0  0  0  0  0  0  0  0  0  0
   12.3060    2.9737    0.0000 C   0  0  0  0  0  0  0  0  0  0  0  0
  1  2  1  0
  2  3  2  0
  3  4  1  0
  4  5  1  0
  5  6  2  0
  6  7  1  0
  7  8  2  0
  8  9  1  0
  9 10  2  0
 10 11  1  0
 11 12  2  0
 12 13  1  0
 13 14  2  0
 14 15  1  0
 15 16  2  0
 16 17  1  0
 17 18  2  0
 18 19  1  0
 19 20  2  0
 20 21  1  0
 21 22  2  0
 22 23  1  0
 23 24  2  0
 24 25  1  0
 25 26  2  0
 26 27  1  0
 27 28  2  0
 28 29  1  0
 29 30  2  0
 30 31  1  0
 31 32  2  0
 32 33  1  0
 33 34  2  0
 34 35  1  0
 35 36  2  0
 36 37  1  0
 37 38  2  0
 38 39  1  0
 39 40  2  0
 40 41  1  0
 41 42  2  0
 42 43  1  0
 43 44  2  0
 44 45  1  0
 45 46  2  0
 46 47  1  0
 47 48  2  0
 48 49  1  0
 49 50  2  0
 50 51  1  0
 51 52  2  0
 52 53  1  0
 53 54  2  0
 54 55  1  0
 55 56  2  0
 56 57  1  0
 57 58  2  0
 58 59  1  0
 59 60  2  0
 60 61  1  0
 61 62  2  0
 62 63  1  0
 63 64  2  0
 64 65  1  0
 65 66  2  0
 66 67  1  0
 67 68  2  0
 68 69  1  0
 69 70  2  0
 70 71  1  0
 71 72  2  0
 72 73  1  0
 73 74  2  0
 74  2  1  0
 74 22  1  0
M  END
>  <Title>  (810) 
idABDFgen10

$$$$

     RDKit          2D

 78 81  0  0  0  0  0  0  0  0999 V2000
   -8.6303   -2.1307    0.0000 C   0  0  0  0  0  0  0  0  0  0  0  0
   -7.8699   -3.4236    0.0000 C   0  0  0  0  0  0  0  0  0  0  0  0
   -9.1246   -4.2457    0.0000 C   0  0  0  0  0  0  0  0  0  0  0  0
  -10.2941   -5.1849    0.0000 C   0  0  0  0  0  0  0  0  0  0  0  0
  -11.3675   -6.2327    0.0000 C   0  0  0  0  0  0  0  0  0  0  0  0
  -12.3347   -7.3792    0.0000 C   0  0  0  0  0  0  0  0  0  0  0  0
  -13.1868   -8.6137    0.0000 C   0  0  0  0  0  0  0  0  0  0  0  0
  -13.9158   -9.9246    0.0000 C   0  0  0  0  0  0  0  0  0  0  0  0
  -14.5149  -11.2998    0.0000 C   0  0  0  0  0  0  0  0  0  0  0  0
  -14.9784  -12.7264    0.0000 C   0  0  0  0  0  0  0  0  0  0  0  0
  -15.3021  -14.1910    0.0000 C   0  0  0  0  0  0  0  0  0  0  0  0
  -15.4829  -15.6801    0.0000 C   0  0  0  0  0  0  0  0  0  0  0  0
  -15.5191  -17.1797    0.0000 C   0  0  0  0  0  0  0  0  0  0  0  0
  -15.4105  -18.6757    0.0000 C   0  0  0  0  0  0  0  0  0  0  0  0
  -15.1579  -20.1543    0.0000 C   0  0  0  0  0  0  0  0  0  0  0  0
  -14.7639  -21.6016    0.0000 C   0  0  0  0  0  0  0  0  0  0  0  0
  -14.2320  -23.0042    0.0000 C   0  0  0  0  0  0  0  0  0  0  0  0
  -13.5672  -24.3488    0.0000 C   0  0  0  0  0  0  0  0  0  0  0  0
  -12.7757  -25.6230    0.0000 C   0  0  0  0  0  0  0  0  0  0  0  0
  -11.8650  -26.8149    0.0000 C   0  0  0  0  0  0  0  0  0  0  0  0
  -10.8434  -27.9133    0.0000 C   0  0  0  0  0  0  0  0  0  0  0  0
   -9.7207  -28.9080    0.0000 C   0  0  0  0  0  0  0  0  0  0  0  0
   -8.5072  -29.7896    0.0000 C   0  0  0  0  0  0  0  0  0  0  0  0
   -7.2142  -30.5501    0.0000 C   0  0  0  0  0  0  0  0  0  0  0  0
   -5.8539  -31.1822    0.0000 C   0  0  0  0  0  0  0  0  0  0  0  0
   -4.4389  -31.6800    0.0000 C   0  0  0  0  0  0  0  0  0  0  0  0
   -2.9825  -32.0390    0.0000 C   0  0  0  0  0  0  0  0  0  0  0  0
   -1.4982  -32.2557    0.0000 C   0  0  0  0  0  0  0  0  0  0  0  0
   -0.0000  -32.3282    0.0000 C   0  0  0  0  0  0  0  0  0  0  0  0
    1.4982  -32.2557    0.0000 C   0  0  0  0  0  0  0  0  0  0  0  0
    2.9825  -32.0390    0.0000 C   0  0  0  0  0  0  0  0  0  0  0  0
    4.4389  -31.6800    0.0000 C   0  0  0  0  0  0  0  0  0  0  0  0
    5.8539  -31.1822    0.0000 C   0  0  0  0  0  0  0  0  0  0  0  0
    7.2142  -30.5501    0.0000 C   0  0  0  0  0  0  0  0  0  0  0  0
    8.5072  -29.7896    0.0000 C   0  0  0  0  0  0  0  0  0  0  0  0
    9.7207  -28.9080    0.0000 C   0  0  0  0  0  0  0  0  0  0  0  0
   10.8434  -27.9133    0.0000 C   0  0  0  0  0  0  0  0  0  0  0  0
   11.8650  -26.8149    0.0000 C   0  0  0  0  0  0  0  0  0  0  0  0
   12.7757  -25.6230    0.0000 C   0  0  0  0  0  0  0  0  0  0  0  0
   13.5672  -24.3488    0.0000 C   0  0  0  0  0  0  0  0  0  0  0  0
   14.2320  -23.0042    0.0000 C   0  0  0  0  0  0  0  0  0  0  0  0
   14.7639  -21.6016    0.0000 C   0  0  0  0  0  0  0  0  0  0  0  0
   15.1579  -20.1543    0.0000 C   0  0  0  0  0  0  0  0  0  0  0  0
   15.4105  -18.6757    0.0000 C   0  0  0  0  0  0  0  0  0  0  0  0
   15.5191  -17.1797    0.0000 C   0  0  0  0  0  0  0  0  0  0  0  0
   15.4829  -15.6801    0.0000 C   0  0  0  0  0  0  0  0  0  0  0  0
   15.3021  -14.1910    0.0000 C   0  0  0  0  0  0  0  0  0  0  0  0
   14.9784  -12.7264    0.0000 C   0  0  0  0  0  0  0  0  0  0  0  0
   14.5149  -11.2998    0.0000 C   0  0  0  0  0  0  0  0  0  0  0  0
   13.9158   -9.9246    0.0000 C   0  0  0  0  0  0  0  0  0  0  0  0
   13.1868   -8.6137    0.0000 C   0  0  0  0  0  0  0  0  0  0  0  0
   12.3347   -7.3792    0.0000 C   0  0  0  0  0  0  0  0  0  0  0  0
   11.3675   -6.2327    0.0000 C   0  0  0  0  0  0  0  0  0  0  0  0
   10.2941   -5.1849    0.0000 C   0  0  0  0  0  0  0  0  0  0  0  0
    9.1246   -4.2457    0.0000 C   0  0  0  0  0  0  0  0  0  0  0  0
    7.8699   -3.4236    0.0000 C   0  0  0  0  0  0  0  0  0  0  0  0
    6.5417   -2.7266    0.0000 C   0  0  0  0  0  0  0  0  0  0  0  0
    5.1524   -2.1609    0.0000 C   0  0  0  0  0  0  0  0  0  0  0  0
    3.7151   -1.7320    0.0000 C   0  0  0  0  0  0  0  0  0  0  0  0
    2.2430   -1.4438    0.0000 C   0  0  0  0  0  0  0  0  0  0  0  0
    0.7500   -1.2990    0.0000 C   0  0  0  0  0  0  0  0  0  0  0  0
    1.5000    0.0000    0.0000 C   0  0  0  0  0  0  0  0  0  0  0  0
    0.7500    1.2990    0.0000 C   0  0  0  0  0  0  0  0  0  0  0  0
   -0.7500    1.2990    0.0000 C   0  0  0  0  0  0  0  0  0  0  0  0
   -1.5000    0.0000    0.0000 C   0  0  0  0  0  0  0  0  0  0  0  0
   -0.7500   -1.2990    0.0000 C   0  0  0  0  0  0  0  0  0  0  0  0
   -2.2430   -1.4438    0.0000 C   0  0  0  0  0  0  0  0  0  0  0  0
   -1.2574   -2.5746    0.0000 C   0  0  0  0  0  0  0  0  0  0  0  0
   -1.7438   -3.9935    0.0000 C   0  0  0  0  0  0  0  0  0  0  0  0
   -3.2159   -4.2817    0.0000 C   0  0  0  0  0  0  0  0  0  0  0  0
   -4.2015   -3.1509    0.0000 C   0  0  0  0  0  0  0  0  0  0  0  0
   -3.7151   -1.7320    0.0000 C   0  0  0  0  0  0  0  0  0  0  0  0
   -5.1524   -2.1609    0.0000 C   0  0  0  0  0  0  0  0  0  0  0  0
   -4.9477   -0.6750    0.0000 C   0  0  0  0  0  0  0  0  0  0  0  0
   -6.1321    0.2454    0.0000 C   0  0  0  0  0  0  0  0  0  0  0  0
   -7.5214   -0.3203    0.0000 C   0  0  0  0  0  0  0  0  0  0  0  0
   -7.7262   -1.8062    0.0000 C   0  0  0  0  0  0  0  0  0  0  0  0
   -6.5417   -2.7266    0.0000 C   0  0  0  0  0  0  0  0  0  0  0  0
  1  2  1  0
  2  3  1  0
  3  4  2  0
  4  5  1  0
  5  6  1  0
  6  7  1  0
  7  8  1  0
  8  9  1  0
  9 10  1  0
 10 11  1  0
 11 12  1  0
 12 13  1  0
 13 14  1  0
 14 15  1  0
 15 16  1  0
 16 17  1  0
 17 18  1  0
 18 19  1  0
 19 20  1  0
 20 21  1  0
 21 22  1  0
 22 23  1  0
 23 24  1  0
 24 25  1  0
 25 26  1  0
 26 27  1  0
 27 28  1  0
 28 29  1  0
 29 30  1  0
 30 31  1  0
 31 32  1  0
 32 33  1  0
 33 34  1  0
 34 35  1  0
 35 36  1  0
 36 37  1  0
 37 38  1  0
 38 39  1  0
 39 40  1  0
 40 41  1  0
 41 42  1  0
 42 43  1  0
 43 44  1  0
 44 45  1  0
 45 46  1  0
 46 47  1  0
 47 48  1  0
 48 49  1  0
 49 50  1  0
 50 51  1  0
 51 52  1  0
 52 53  1  0
 53 54  1  0
 54 55  1  0
 55 56  1  0
 56 57  1  0
 57 58  1  0
 58 59  1  0
 59 60  1  0
 60 61  1  0
 61 62  2  0
 62 63  1  0
 63 64  2  0
 64 65  1  0
 65 66  2  0
 66 67  1  0
 67 68  2  0
 68 69  1  0
 69 70  2  0
 70 71  1  0
 71 72  2  0
 72 73  1  0
 73 74  2  0
 74 75  1  0
 75 76  2  0
 76 77  1  0
 77 78  2  0
 78  2  1  0
 66 61  1  0
 72 67  1  0
 78 73  1  0
M  END
>  <Title>  (811) 
idABDGgen10

$$$$

     RDKit          2D

  8  8  0  0  0  0  0  0  0  0999 V2000
    4.2760   -0.0000    0.0000 C   0  0  0  0  0  0  0  0  0  0  0  0
    2.7760    0.0000    0.0000 C   0  0  0  0  0  0  0  0  0  0  0  0
    1.2760    0.0000    0.0000 C   0  0  0  0  0  0  0  0  0  0  0  0
    0.3943    1.2135    0.0000 C   0  0  0  0  0  0  0  0  0  0  0  0
   -1.0323    0.7500    0.0000 C   0  0  0  0  0  0  0  0  0  0  0  0
   -1.0323   -0.7500    0.0000 C   0  0  0  0  0  0  0  0  0  0  0  0
   -2.2458   -1.6317    0.0000 C   0  0  0  0  0  0  0  0  0  0  0  0
    0.3943   -1.2135    0.0000 N   0  0  0  0  0  0  0  0  0  0  0  0
  1  2  3  0
  2  3  1  0
  3  4  2  0
  4  5  1  0
  5  6  2  0
  6  7  1  0
  6  8  1  0
  8  3  1  0
M  END
>  <Title>  (812) 
idABDHgen10

$$$$

     RDKit          2D

 85 86  0  0  0  0  0  0  0  0999 V2000
    2.1692    4.1368    0.0000 C   0  0  0  0  0  0  0  0  0  0  0  0
    3.6673    4.2116    0.0000 C   0  0  0  0  0  0  0  0  0  0  0  0
    5.1655    4.2863    0.0000 C   0  0  0  0  0  0  0  0  0  0  0  0
    6.6636    4.3610    0.0000 C   0  0  0  0  0  0  0  0  0  0  0  0
    8.1618    4.4357    0.0000 C   0  0  0  0  0  0  0  0  0  0  0  0
    8.1894    5.9355    0.0000 C   0  0  0  0  0  0  0  0  0  0  0  0
    8.4211    7.4175    0.0000 C   0  0  0  0  0  0  0  0  0  0  0  0
    8.8524    8.8542    0.0000 C   0  0  0  0  0  0  0  0  0  0  0  0
    9.4753   10.2187    0.0000 C   0  0  0  0  0  0  0  0  0  0  0  0
   10.2782   11.4857    0.0000 C   0  0  0  0  0  0  0  0  0  0  0  0
   11.2461   12.6316    0.0000 C   0  0  0  0  0  0  0  0  0  0  0  0
   12.3611   13.6350    0.0000 C   0  0  0  0  0  0  0  0  0  0  0  0
   13.6023   14.4773    0.0000 C   0  0  0  0  0  0  0  0  0  0  0  0
   14.9466   15.1427    0.0000 C   0  0  0  0  0  0  0  0  0  0  0  0
   16.3690   15.6188    0.0000 C   0  0  0  0  0  0  0  0  0  0  0  0
   17.8431   15.8969    0.0000 C   0  0  0  0  0  0  0  0  0  0  0  0
   19.3412   15.9716    0.0000 C   0  0  0  0  0  0  0  0  0  0  0  0
   20.8356   15.8416    0.0000 C   0  0  0  0  0  0  0  0  0  0  0  0
   22.2983   15.5094    0.0000 C   0  0  0  0  0  0  0  0  0  0  0  0
   23.7022   14.9811    0.0000 C   0  0  0  0  0  0  0  0  0  0  0  0
   25.0210   14.2665    0.0000 C   0  0  0  0  0  0  0  0  0  0  0  0
   26.2303   13.3790    0.0000 C   0  0  0  0  0  0  0  0  0  0  0  0
   27.3075   12.3351    0.0000 C   0  0  0  0  0  0  0  0  0  0  0  0
   28.2325   11.1543    0.0000 C   0  0  0  0  0  0  0  0  0  0  0  0
   28.9881    9.8585    0.0000 C   0  0  0  0  0  0  0  0  0  0  0  0
   29.5602    8.4719    0.0000 C   0  0  0  0  0  0  0  0  0  0  0  0
   29.9381    7.0203    0.0000 C   0  0  0  0  0  0  0  0  0  0  0  0
   30.1149    5.5307    0.0000 C   0  0  0  0  0  0  0  0  0  0  0  0
   30.0872    4.0310    0.0000 C   0  0  0  0  0  0  0  0  0  0  0  0
   29.8556    2.5490    0.0000 C   0  0  0  0  0  0  0  0  0  0  0  0
   29.4243    1.1123    0.0000 C   0  0  0  0  0  0  0  0  0  0  0  0
   28.8014   -0.2522    0.0000 C   0  0  0  0  0  0  0  0  0  0  0  0
   27.9985   -1.5193    0.0000 C   0  0  0  0  0  0  0  0  0  0  0  0
   27.0306   -2.6652    0.0000 C   0  0  0  0  0  0  0  0  0  0  0  0
   25.9156   -3.6686    0.0000 C   0  0  0  0  0  0  0  0  0  0  0  0
   24.6744   -4.5108    0.0000 C   0  0  0  0  0  0  0  0  0  0  0  0
   23.3301   -5.1762    0.0000 C   0  0  0  0  0  0  0  0  0  0  0  0
   21.9076   -5.6524    0.0000 C   0  0  0  0  0  0  0  0  0  0  0  0
   20.4336   -5.9304    0.0000 C   0  0  0  0  0  0  0  0  0  0  0  0
   18.9355   -6.0051    0.0000 C   0  0  0  0  0  0  0  0  0  0  0  0
   17.4411   -5.8752    0.0000 C   0  0  0  0  0  0  0  0  0  0  0  0
   15.9784   -5.5429    0.0000 C   0  0  0  0  0  0  0  0  0  0  0  0
   14.5745   -5.0146    0.0000 C   0  0  0  0  0  0  0  0  0  0  0  0
   13.2557   -4.3000    0.0000 C   0  0  0  0  0  0  0  0  0  0  0  0
   12.0464   -3.4125    0.0000 C   0  0  0  0  0  0  0  0  0  0  0  0
   10.9692   -2.3687    0.0000 C   0  0  0  0  0  0  0  0  0  0  0  0
   10.0442   -1.1878    0.0000 C   0  0  0  0  0  0  0  0  0  0  0  0
    9.2886    0.1080    0.0000 C   0  0  0  0  0  0  0  0  0  0  0  0
    8.7165    1.4946    0.0000 C   0  0  0  0  0  0  0  0  0  0  0  0
    8.1437   -0.0000    0.0000 C   0  0  0  0  0  0  0  0  0  0  0  0
    8.0266   -1.3763    0.0000 C   0  0  0  0  0  0  0  0  0  0  0  0
    7.6785   -2.7130    0.0000 C   0  0  0  0  0  0  0  0  0  0  0  0
    7.1096   -3.9717    0.0000 C   0  0  0  0  0  0  0  0  0  0  0  0
    6.3361   -5.1160    0.0000 C   0  0  0  0  0  0  0  0  0  0  0  0
    5.3804   -6.1133    0.0000 C   0  0  0  0  0  0  0  0  0  0  0  0
    4.2698   -6.9346    0.0000 C   0  0  0  0  0  0  0  0  0  0  0  0
    3.0364   -7.5565    0.0000 C   0  0  0  0  0  0  0  0  0  0  0  0
    1.7157   -7.9609    0.0000 C   0  0  0  0  0  0  0  0  0  0  0  0
    0.3456   -8.1364    0.0000 C   0  0  0  0  0  0  0  0  0  0  0  0
   -1.0344   -8.0778    0.0000 C   0  0  0  0  0  0  0  0  0  0  0  0
   -2.3847   -7.7868    0.0000 C   0  0  0  0  0  0  0  0  0  0  0  0
   -3.6663   -7.2717    0.0000 C   0  0  0  0  0  0  0  0  0  0  0  0
   -4.8425   -6.5475    0.0000 C   0  0  0  0  0  0  0  0  0  0  0  0
   -5.8794   -5.6350    0.0000 C   0  0  0  0  0  0  0  0  0  0  0  0
   -6.7472   -4.5603    0.0000 C   0  0  0  0  0  0  0  0  0  0  0  0
   -7.4208   -3.3544    0.0000 C   0  0  0  0  0  0  0  0  0  0  0  0
   -7.8809   -2.0520    0.0000 C   0  0  0  0  0  0  0  0  0  0  0  0
   -8.1144   -0.6906    0.0000 C   0  0  0  0  0  0  0  0  0  0  0  0
   -8.1144    0.6906    0.0000 C   0  0  0  0  0  0  0  0  0  0  0  0
   -7.8809    2.0520    0.0000 C   0  0  0  0  0  0  0  0  0  0  0  0
   -7.4208    3.3544    0.0000 C   0  0  0  0  0  0  0  0  0  0  0  0
   -6.7472    4.5603    0.0000 C   0  0  0  0  0  0  0  0  0  0  0  0
   -5.8794    5.6350    0.0000 C   0  0  0  0  0  0  0  0  0  0  0  0
   -4.8425    6.5475    0.0000 C   0  0  0  0  0  0  0  0  0  0  0  0
   -3.6663    7.2717    0.0000 C   0  0  0  0  0  0  0  0  0  0  0  0
   -2.3847    7.7868    0.0000 C   0  0  0  0  0  0  0  0  0  0  0  0
   -1.0344    8.0778    0.0000 C   0  0  0  0  0  0  0  0  0  0  0  0
    0.3456    8.1364    0.0000 C   0  0  0  0  0  0  0  0  0  0  0  0
    1.7157    7.9609    0.0000 C   0  0  0  0  0  0  0  0  0  0  0  0
    3.0364    7.5565    0.0000 C   0  0  0  0  0  0  0  0  0  0  0  0
    4.2698    6.9346    0.0000 C   0  0  0  0  0  0  0  0  0  0  0  0
    5.3804    6.1133    0.0000 C   0  0  0  0  0  0  0  0  0  0  0  0
    6.3361    5.1160    0.0000 C   0  0  0  0  0  0  0  0  0  0  0  0
    7.1096    3.9717    0.0000 C   0  0  0  0  0  0  0  0  0  0  0  0
    8.3385    2.9462    0.0000 C   0  0  0  0  0  0  0  0  0  0  0  0
  1  2  3  0
  2  3  1  0
  3  4  3  0
  4  5  1  0
  5  6  1  0
  6  7  1  0
  7  8  1  0
  8  9  1  0
  9 10  1  0
 10 11  1  0
 11 12  1  0
 12 13  1  0
 13 14  1  0
 14 15  1  0
 15 16  1  0
 16 17  1  0
 17 18  1  0
 18 19  1  0
 19 20  1  0
 20 21  1  0
 21 22  1  0
 22 23  1  0
 23 24  1  0
 24 25  1  0
 25 26  1  0
 26 27  1  0
 27 28  1  0
 28 29  1  0
 29 30  1  0
 30 31  1  0
 31 32  1  0
 32 33  1  0
 33 34  1  0
 34 35  1  0
 35 36  1  0
 36 37  1  0
 37 38  1  0
 38 39  1  0
 39 40  1  0
 40 41  1  0
 41 42  1  0
 42 43  1  0
 43 44  1  0
 44 45  1  0
 45 46  1  0
 46 47  1  0
 47 48  1  0
 48 49  1  0
 49 50  1  0
 50 51  1  0
 51 52  1  0
 52 53  1  0
 53 54  1  0
 54 55  1  0
 55 56  1  0
 56 57  1  0
 57 58  1  0
 58 59  1  0
 59 60  1  0
 60 61  1  0
 61 62  1  0
 62 63  1  0
 63 64  1  0
 64 65  1  0
 65 66  1  0
 66 67  1  0
 67 68  1  0
 68 69  1  0
 69 70  1  0
 70 71  1  0
 71 72  1  0
 72 73  1  0
 73 74  1  0
 74 75  1  0
 75 76  1  0
 76 77  1  0
 77 78  1  0
 78 79  1  0
 79 80  1  0
 80 81  2  0
 81 82  1  0
 82 83  2  0
 83 84  1  0
 84 85  2  0
 85  5  1  0
 85 49  1  0
M  END
>  <Title>  (813) 
idABDIgen10

$$$$

     RDKit          2D

 10 10  0  0  0  0  0  0  0  0999 V2000
    5.2500   -1.2990    0.0000 C   0  0  0  0  0  0  0  0  0  0  0  0
    3.7500   -1.2990    0.0000 C   0  0  0  0  0  0  0  0  0  0  0  0
    3.0000   -2.5981    0.0000 O   0  0  0  0  0  0  0  0  0  0  0  0
    3.0000    0.0000    0.0000 N   0  0  0  0  0  0  0  0  0  0  0  0
    1.5000    0.0000    0.0000 C   0  0  0  0  0  0  0  0  0  0  0  0
    0.7500   -1.2990    0.0000 C   0  0  0  0  0  0  0  0  0  0  0  0
   -0.7500   -1.2990    0.0000 C   0  0  0  0  0  0  0  0  0  0  0  0
   -1.5000    0.0000    0.0000 C   0  0  0  0  0  0  0  0  0  0  0  0
   -0.7500    1.2990    0.0000 C   0  0  0  0  0  0  0  0  0  0  0  0
    0.7500    1.2990    0.0000 N   0  0  0  0  0  0  0  0  0  0  0  0
  1  2  1  0
  2  3  2  0
  2  4  1  0
  4  5  1  0
  5  6  2  0
  6  7  1  0
  7  8  2  0
  8  9  1  0
  9 10  2  0
 10  5  1  0
M  END
>  <Title>  (814) 
idABDJgen10

$$$$

     RDKit          2D

  7  7  0  0  0  0  0  0  0  0999 V2000
    3.5260   -1.2990    0.0000 C   0  0  0  0  0  0  0  0  0  0  0  0
    2.7760    0.0000    0.0000 O   0  0  0  0  0  0  0  0  0  0  0  0
    1.2760    0.0000    0.0000 C   0  0  0  0  0  0  0  0  0  0  0  0
    0.3943    1.2135    0.0000 C   0  0  0  0  0  0  0  0  0  0  0  0
   -1.0323    0.7500    0.0000 C   0  0  0  0  0  0  0  0  0  0  0  0
   -1.0323   -0.7500    0.0000 C   0  0  0  0  0  0  0  0  0  0  0  0
    0.3943   -1.2135    0.0000 C   0  0  0  0  0  0  0  0  0  0  0  0
  1  2  1  0
  2  3  1  0
  3  4  2  0
  4  5  1  0
  5  6  1  0
  6  7  2  0
  7  3  1  0
M  END
>  <Title>  (815) 
idABDKgen10

$$$$

     RDKit          2D

  6  5  0  0  0  0  0  0  0  0999 V2000
    0.0000    0.0000    0.0000 C   0  0  0  0  0  0  0  0  0  0  0  0
    1.2990    0.7500    0.0000 C   0  0  0  0  0  0  0  0  0  0  0  0
    2.5981   -0.0000    0.0000 C   0  0  0  0  0  0  0  0  0  0  0  0
    3.8971   -0.7500    0.0000 C   0  0  0  0  0  0  0  0  0  0  0  0
    5.1962   -1.5000    0.0000 C   0  0  0  0  0  0  0  0  0  0  0  0
    6.4952   -2.2500    0.0000 N   0  0  0  0  0  0  0  0  0  0  0  0
  1  2  2  0
  2  3  1  0
  3  4  3  0
  4  5  1  0
  5  6  3  0
M  END
>  <Title>  (816) 
idABDLgen10

$$$$

     RDKit          2D

111112  0  0  0  0  0  0  0  0999 V2000
   -2.1474   -1.0908    0.0000 C   0  0  0  0  0  0  0  0  0  0  0  0
   -2.4836    0.3710    0.0000 C   0  0  0  0  0  0  0  0  0  0  0  0
   -3.9547    0.0778    0.0000 C   0  0  0  0  0  0  0  0  0  0  0  0
   -5.4404   -0.1285    0.0000 C   0  0  0  0  0  0  0  0  0  0  0  0
   -6.9357   -0.2473    0.0000 C   0  0  0  0  0  0  0  0  0  0  0  0
   -8.4354   -0.2781    0.0000 C   0  0  0  0  0  0  0  0  0  0  0  0
   -9.9343   -0.2209    0.0000 C   0  0  0  0  0  0  0  0  0  0  0  0
  -11.4273   -0.0758    0.0000 C   0  0  0  0  0  0  0  0  0  0  0  0
  -12.9091    0.1567    0.0000 C   0  0  0  0  0  0  0  0  0  0  0  0
  -14.3748    0.4757    0.0000 C   0  0  0  0  0  0  0  0  0  0  0  0
  -15.8193    0.8802    0.0000 C   0  0  0  0  0  0  0  0  0  0  0  0
  -17.2375    1.3688    0.0000 C   0  0  0  0  0  0  0  0  0  0  0  0
  -18.6245    1.9398    0.0000 C   0  0  0  0  0  0  0  0  0  0  0  0
  -19.9757    2.5912    0.0000 C   0  0  0  0  0  0  0  0  0  0  0  0
  -21.2863    3.3208    0.0000 C   0  0  0  0  0  0  0  0  0  0  0  0
  -22.5519    4.1260    0.0000 C   0  0  0  0  0  0  0  0  0  0  0  0
  -23.7680    5.0041    0.0000 C   0  0  0  0  0  0  0  0  0  0  0  0
  -24.9305    5.9521    0.0000 C   0  0  0  0  0  0  0  0  0  0  0  0
  -26.0353    6.9666    0.0000 C   0  0  0  0  0  0  0  0  0  0  0  0
  -27.0787    8.0443    0.0000 C   0  0  0  0  0  0  0  0  0  0  0  0
  -28.0571    9.1813    0.0000 C   0  0  0  0  0  0  0  0  0  0  0  0
  -28.9670   10.3738    0.0000 C   0  0  0  0  0  0  0  0  0  0  0  0
  -29.8054   11.6176    0.0000 C   0  0  0  0  0  0  0  0  0  0  0  0
  -30.5693   12.9085    0.0000 C   0  0  0  0  0  0  0  0  0  0  0  0
  -31.2562   14.2420    0.0000 C   0  0  0  0  0  0  0  0  0  0  0  0
  -31.8636   15.6135    0.0000 C   0  0  0  0  0  0  0  0  0  0  0  0
  -32.3895   17.0183    0.0000 C   0  0  0  0  0  0  0  0  0  0  0  0
  -32.8320   18.4515    0.0000 C   0  0  0  0  0  0  0  0  0  0  0  0
  -33.1897   19.9083    0.0000 C   0  0  0  0  0  0  0  0  0  0  0  0
  -33.4612   21.3835    0.0000 C   0  0  0  0  0  0  0  0  0  0  0  0
  -33.6457   22.8721    0.0000 C   0  0  0  0  0  0  0  0  0  0  0  0
  -33.7426   24.3690    0.0000 C   0  0  0  0  0  0  0  0  0  0  0  0
  -33.7514   25.8690    0.0000 C   0  0  0  0  0  0  0  0  0  0  0  0
  -33.6721   27.3669    0.0000 C   0  0  0  0  0  0  0  0  0  0  0  0
  -33.5051   28.8575    0.0000 C   0  0  0  0  0  0  0  0  0  0  0  0
  -33.2509   30.3358    0.0000 C   0  0  0  0  0  0  0  0  0  0  0  0
  -32.9104   31.7967    0.0000 C   0  0  0  0  0  0  0  0  0  0  0  0
  -32.4847   33.2350    0.0000 C   0  0  0  0  0  0  0  0  0  0  0  0
  -31.9754   34.6459    0.0000 C   0  0  0  0  0  0  0  0  0  0  0  0
  -31.3841   36.0244    0.0000 C   0  0  0  0  0  0  0  0  0  0  0  0
  -30.7129   37.3659    0.0000 C   0  0  0  0  0  0  0  0  0  0  0  0
  -29.9642   38.6657    0.0000 C   0  0  0  0  0  0  0  0  0  0  0  0
  -29.1405   39.9193    0.0000 C   0  0  0  0  0  0  0  0  0  0  0  0
  -28.2446   41.1223    0.0000 C   0  0  0  0  0  0  0  0  0  0  0  0
  -27.2797   42.2708    0.0000 C   0  0  0  0  0  0  0  0  0  0  0  0
  -26.2490   43.3606    0.0000 C   0  0  0  0  0  0  0  0  0  0  0  0
  -25.1562   44.3881    0.0000 C   0  0  0  0  0  0  0  0  0  0  0  0
  -24.0049   45.3496    0.0000 C   0  0  0  0  0  0  0  0  0  0  0  0
  -22.7992   46.2420    0.0000 C   0  0  0  0  0  0  0  0  0  0  0  0
  -21.5432   47.0620    0.0000 C   0  0  0  0  0  0  0  0  0  0  0  0
  -20.2412   47.8069    0.0000 C   0  0  0  0  0  0  0  0  0  0  0  0
  -18.8978   48.4741    0.0000 C   0  0  0  0  0  0  0  0  0  0  0  0
  -17.5175   49.0613    0.0000 C   0  0  0  0  0  0  0  0  0  0  0  0
  -16.1051   49.5665    0.0000 C   0  0  0  0  0  0  0  0  0  0  0  0
  -14.6656   49.9880    0.0000 C   0  0  0  0  0  0  0  0  0  0  0  0
  -13.2037   50.3242    0.0000 C   0  0  0  0  0  0  0  0  0  0  0  0
  -11.7247   50.5741    0.0000 C   0  0  0  0  0  0  0  0  0  0  0  0
  -10.2335   50.7367    0.0000 C   0  0  0  0  0  0  0  0  0  0  0  0
   -8.7354   50.8116    0.0000 C   0  0  0  0  0  0  0  0  0  0  0  0
   -7.2355   50.7984    0.0000 C   0  0  0  0  0  0  0  0  0  0  0  0
   -5.7389   50.6971    0.0000 C   0  0  0  0  0  0  0  0  0  0  0  0
   -4.2508   50.5083    0.0000 C   0  0  0  0  0  0  0  0  0  0  0  0
   -2.7764   50.2324    0.0000 C   0  0  0  0  0  0  0  0  0  0  0  0
   -1.3207   49.8704    0.0000 C   0  0  0  0  0  0  0  0  0  0  0  0
    0.1112   49.4237    0.0000 C   0  0  0  0  0  0  0  0  0  0  0  0
    1.5144   48.8937    0.0000 C   0  0  0  0  0  0  0  0  0  0  0  0
    2.8842   48.2823    0.0000 C   0  0  0  0  0  0  0  0  0  0  0  0
    4.2156   47.5915    0.0000 C   0  0  0  0  0  0  0  0  0  0  0  0
    5.5043   46.8238    0.0000 C   0  0  0  0  0  0  0  0  0  0  0  0
    6.7456   45.9817    0.0000 C   0  0  0  0  0  0  0  0  0  0  0  0
    7.9354   45.0683    0.0000 C   0  0  0  0  0  0  0  0  0  0  0  0
    9.0696   44.0866    0.0000 C   0  0  0  0  0  0  0  0  0  0  0  0
   10.1442   43.0400    0.0000 C   0  0  0  0  0  0  0  0  0  0  0  0
   11.1555   41.9322    0.0000 C   0  0  0  0  0  0  0  0  0  0  0  0
   12.1000   40.7670    0.0000 C   0  0  0  0  0  0  0  0  0  0  0  0
   12.9746   39.5483    0.0000 C   0  0  0  0  0  0  0  0  0  0  0  0
   13.7761   38.2804    0.0000 C   0  0  0  0  0  0  0  0  0  0  0  0
   14.5018   36.9676    0.0000 C   0  0  0  0  0  0  0  0  0  0  0  0
   15.1492   35.6145    0.0000 C   0  0  0  0  0  0  0  0  0  0  0  0
   15.7161   34.2258    0.0000 C   0  0  0  0  0  0  0  0  0  0  0  0
   16.2005   32.8062    0.0000 C   0  0  0  0  0  0  0  0  0  0  0  0
   16.6008   31.3606    0.0000 C   0  0  0  0  0  0  0  0  0  0  0  0
   16.9155   29.8939    0.0000 C   0  0  0  0  0  0  0  0  0  0  0  0
   17.1437   28.4114    0.0000 C   0  0  0  0  0  0  0  0  0  0  0  0
   17.2844   26.9180    0.0000 C   0  0  0  0  0  0  0  0  0  0  0  0
   17.3372   25.4189    0.0000 C   0  0  0  0  0  0  0  0  0  0  0  0
   17.3020   23.9194    0.0000 C   0  0  0  0  0  0  0  0  0  0  0  0
   17.1788   22.4244    0.0000 C   0  0  0  0  0  0  0  0  0  0  0  0
   16.9681   20.9393    0.0000 C   0  0  0  0  0  0  0  0  0  0  0  0
   16.6706   19.4691    0.0000 C   0  0  0  0  0  0  0  0  0  0  0  0
   16.2874   18.0189    0.0000 C   0  0  0  0  0  0  0  0  0  0  0  0
   15.8197   16.5937    0.0000 C   0  0  0  0  0  0  0  0  0  0  0  0
   15.2691   15.1983    0.0000 C   0  0  0  0  0  0  0  0  0  0  0  0
   14.6376   13.8378    0.0000 C   0  0  0  0  0  0  0  0  0  0  0  0
   13.9274   12.5166    0.0000 C   0  0  0  0  0  0  0  0  0  0  0  0
   13.1408   11.2393    0.0000 C   0  0  0  0  0  0  0  0  0  0  0  0
   12.2806   10.0105    0.0000 C   0  0  0  0  0  0  0  0  0  0  0  0
   11.3498    8.8342    0.0000 C   0  0  0  0  0  0  0  0  0  0  0  0
   10.3516    7.7146    0.0000 C   0  0  0  0  0  0  0  0  0  0  0  0
    9.2894    6.6555    0.0000 C   0  0  0  0  0  0  0  0  0  0  0  0
    8.1669    5.6605    0.0000 C   0  0  0  0  0  0  0  0  0  0  0  0
    6.9879    4.7332    0.0000 C   0  0  0  0  0  0  0  0  0  0  0  0
    5.7565    3.8766    0.0000 C   0  0  0  0  0  0  0  0  0  0  0  0
    4.4769    3.0938    0.0000 C   0  0  0  0  0  0  0  0  0  0  0  0
    3.1537    2.3875    0.0000 C   0  0  0  0  0  0  0  0  0  0  0  0
    1.7912    1.7600    0.0000 C   0  0  0  0  0  0  0  0  0  0  0  0
    0.3943    1.2135    0.0000 C   0  0  0  0  0  0  0  0  0  0  0  0
    1.2760    0.0000    0.0000 C   0  0  0  0  0  0  0  0  0  0  0  0
    0.3943   -1.2135    0.0000 C   0  0  0  0  0  0  0  0  0  0  0  0
   -1.0323   -0.7500    0.0000 C   0  0  0  0  0  0  0  0  0  0  0  0
   -1.0323    0.7500    0.0000 C   0  0  0  0  0  0  0  0  0  0  0  0
  1  2  1  0
  2  3  1  0
  3  4  1  0
  4  5  1  0
  5  6  1  0
  6  7  1  0
  7  8  1  0
  8  9  1  0
  9 10  1  0
 10 11  1  0
 11 12  1  0
 12 13  1  0
 13 14  1  0
 14 15  1  0
 15 16  1  0
 16 17  1  0
 17 18  1  0
 18 19  1  0
 19 20  1  0
 20 21  1  0
 21 22  1  0
 22 23  1  0
 23 24  1  0
 24 25  1  0
 25 26  1  0
 26 27  1  0
 27 28  1  0
 28 29  1  0
 29 30  1  0
 30 31  1  0
 31 32  1  0
 32 33  1  0
 33 34  1  0
 34 35  1  0
 35 36  1  0
 36 37  1  0
 37 38  1  0
 38 39  1  0
 39 40  1  0
 40 41  1  0
 41 42  1  0
 42 43  1  0
 43 44  1  0
 44 45  1  0
 45 46  1  0
 46 47  1  0
 47 48  1  0
 48 49  1  0
 49 50  1  0
 50 51  1  0
 51 52  1  0
 52 53  1  0
 53 54  1  0
 54 55  1  0
 55 56  1  0
 56 57  1  0
 57 58  1  0
 58 59  1  0
 59 60  1  0
 60 61  1  0
 61 62  1  0
 62 63  1  0
 63 64  1  0
 64 65  1  0
 65 66  1  0
 66 67  1  0
 67 68  1  0
 68 69  1  0
 69 70  1  0
 70 71  1  0
 71 72  1  0
 72 73  1  0
 73 74  1  0
 74 75  1  0
 75 76  1  0
 76 77  1  0
 77 78  1  0
 78 79  1  0
 79 80  1  0
 80 81  1  0
 81 82  1  0
 82 83  1  0
 83 84  1  0
 84 85  1  0
 85 86  1  0
 86 87  1  0
 87 88  1  0
 88 89  1  0
 89 90  1  0
 90 91  1  0
 91 92  1  0
 92 93  1  0
 93 94  1  0
 94 95  1  0
 95 96  1  0
 96 97  1  0
 97 98  1  0
 98 99  2  0
 99100  1  0
100101  2  0
101102  1  0
102103  2  0
103104  1  0
104105  2  0
105106  1  0
106107  2  0
107108  1  0
108109  2  0
109110  1  0
110111  2  0
111  2  1  0
111107  1  0
M  END
>  <Title>  (817) 
idABDMgen10

$$$$

     RDKit          2D

 10 10  0  0  0  0  0  0  0  0999 V2000
    7.0607    0.0000    0.0000 C   0  0  0  0  0  0  0  0  0  0  0  0
    5.5607    0.0000    0.0000 C   0  0  0  0  0  0  0  0  0  0  0  0
    4.0607    0.0000    0.0000 C   0  0  0  0  0  0  0  0  0  0  0  0
    2.5607    0.0000    0.0000 C   0  0  0  0  0  0  0  0  0  0  0  0
    1.0607    0.0000    0.0000 C   0  0  0  0  0  0  0  0  0  0  0  0
   -0.0000   -1.0607    0.0000 C   0  0  0  0  0  0  0  0  0  0  0  0
   -0.0000   -2.5607    0.0000 C   0  0  0  0  0  0  0  0  0  0  0  0
   -0.0000   -4.0607    0.0000 N   0  0  0  0  0  0  0  0  0  0  0  0
   -1.0607    0.0000    0.0000 C   0  0  0  0  0  0  0  0  0  0  0  0
    0.0000    1.0607    0.0000 C   0  0  0  0  0  0  0  0  0  0  0  0
  1  2  3  0
  2  3  1  0
  3  4  3  0
  4  5  1  0
  5  6  2  0
  6  7  1  0
  7  8  3  0
  6  9  1  0
  9 10  2  0
 10  5  1  0
M  END
>  <Title>  (818) 
idABDNgen10

$$$$

     RDKit          2D

 55 63  0  0  0  0  0  0  0  0999 V2000
    3.6412  -12.7434    0.0000 C   0  0  0  0  0  0  0  0  0  0  0  0
    2.8618  -11.4618    0.0000 C   0  0  0  0  0  0  0  0  0  0  0  0
    4.0254  -10.5152    0.0000 C   0  0  0  0  0  0  0  0  0  0  0  0
    4.8904   -9.2897    0.0000 C   0  0  0  0  0  0  0  0  0  0  0  0
    5.3928   -7.8763    0.0000 C   0  0  0  0  0  0  0  0  0  0  0  0
    5.4951   -6.3798    0.0000 C   0  0  0  0  0  0  0  0  0  0  0  0
    6.9637   -6.0746    0.0000 C   0  0  0  0  0  0  0  0  0  0  0  0
    8.2180   -6.8973    0.0000 O   0  0  0  0  0  0  0  0  0  0  0  0
    6.6586   -4.6060    0.0000 N   0  0  0  0  0  0  0  0  0  0  0  0
    5.1899   -4.9112    0.0000 C   0  0  0  0  0  0  0  0  0  0  0  0
    4.4998   -3.5794    0.0000 N   0  0  0  0  0  0  0  0  0  0  0  0
    3.4760   -2.4831    0.0000 N   0  0  0  0  0  0  0  0  0  0  0  0
    2.1944   -1.7037    0.0000 N   0  0  0  0  0  0  0  0  0  0  0  0
    0.7500   -1.2990    0.0000 N   0  0  0  0  0  0  0  0  0  0  0  0
    1.5000    0.0000    0.0000 C   0  0  0  0  0  0  0  0  0  0  0  0
    0.7500    1.2990    0.0000 C   0  0  0  0  0  0  0  0  0  0  0  0
   -0.7500    1.2990    0.0000 C   0  0  0  0  0  0  0  0  0  0  0  0
   -1.5000    0.0000    0.0000 C   0  0  0  0  0  0  0  0  0  0  0  0
   -0.7500   -1.2990    0.0000 C   0  0  0  0  0  0  0  0  0  0  0  0
   -2.1944   -1.7037    0.0000 C   0  0  0  0  0  0  0  0  0  0  0  0
   -2.2285   -0.2041    0.0000 C   0  0  0  0  0  0  0  0  0  0  0  0
   -3.5443    0.5161    0.0000 C   0  0  0  0  0  0  0  0  0  0  0  0
   -4.8259   -0.2633    0.0000 C   0  0  0  0  0  0  0  0  0  0  0  0
   -4.7918   -1.7629    0.0000 C   0  0  0  0  0  0  0  0  0  0  0  0
   -3.4760   -2.4831    0.0000 C   0  0  0  0  0  0  0  0  0  0  0  0
   -4.4998   -3.5794    0.0000 C   0  0  0  0  0  0  0  0  0  0  0  0
   -5.3082   -2.3158    0.0000 C   0  0  0  0  0  0  0  0  0  0  0  0
   -6.8066   -2.3841    0.0000 C   0  0  0  0  0  0  0  0  0  0  0  0
   -7.4967   -3.7159    0.0000 C   0  0  0  0  0  0  0  0  0  0  0  0
   -6.6884   -4.9795    0.0000 C   0  0  0  0  0  0  0  0  0  0  0  0
   -5.1899   -4.9112    0.0000 C   0  0  0  0  0  0  0  0  0  0  0  0
   -5.4951   -6.3798    0.0000 C   0  0  0  0  0  0  0  0  0  0  0  0
   -6.8423   -5.7202    0.0000 C   0  0  0  0  0  0  0  0  0  0  0  0
   -8.0871   -6.5571    0.0000 C   0  0  0  0  0  0  0  0  0  0  0  0
   -7.9848   -8.0536    0.0000 C   0  0  0  0  0  0  0  0  0  0  0  0
   -6.6376   -8.7132    0.0000 C   0  0  0  0  0  0  0  0  0  0  0  0
   -5.3928   -7.8763    0.0000 C   0  0  0  0  0  0  0  0  0  0  0  0
   -4.8904   -9.2897    0.0000 C   0  0  0  0  0  0  0  0  0  0  0  0
   -6.3842   -9.4261    0.0000 C   0  0  0  0  0  0  0  0  0  0  0  0
   -7.0130  -10.7880    0.0000 C   0  0  0  0  0  0  0  0  0  0  0  0
   -6.1480  -12.0134    0.0000 C   0  0  0  0  0  0  0  0  0  0  0  0
   -4.6542  -11.8770    0.0000 C   0  0  0  0  0  0  0  0  0  0  0  0
   -4.0254  -10.5152    0.0000 C   0  0  0  0  0  0  0  0  0  0  0  0
   -2.8618  -11.4618    0.0000 C   0  0  0  0  0  0  0  0  0  0  0  0
   -4.0673  -12.3545    0.0000 C   0  0  0  0  0  0  0  0  0  0  0  0
   -3.8969  -13.8448    0.0000 C   0  0  0  0  0  0  0  0  0  0  0  0
   -2.5211  -14.4424    0.0000 C   0  0  0  0  0  0  0  0  0  0  0  0
   -1.3157  -13.5497    0.0000 C   0  0  0  0  0  0  0  0  0  0  0  0
   -1.4860  -12.0594    0.0000 C   0  0  0  0  0  0  0  0  0  0  0  0
   -0.0000  -12.2636    0.0000 C   0  0  0  0  0  0  0  0  0  0  0  0
   -0.5661  -13.6527    0.0000 C   0  0  0  0  0  0  0  0  0  0  0  0
    0.3538  -14.8375    0.0000 C   0  0  0  0  0  0  0  0  0  0  0  0
    1.8398  -14.6333    0.0000 C   0  0  0  0  0  0  0  0  0  0  0  0
    2.4059  -13.2442    0.0000 C   0  0  0  0  0  0  0  0  0  0  0  0
    1.4860  -12.0594    0.0000 C   0  0  0  0  0  0  0  0  0  0  0  0
  1  2  1  0
  2  3  2  0
  3  4  1  0
  4  5  1  0
  5  6  2  0
  6  7  1  0
  7  8  2  0
  7  9  1  0
  9 10  1  0
 10 11  2  0
 11 12  1  0
 12 13  2  0
 13 14  1  0
 14 15  1  0
 15 16  1  0
 16 17  2  0
 17 18  1  0
 18 19  2  0
 19 20  1  0
 20 21  2  0
 21 22  1  0
 22 23  2  0
 23 24  1  0
 24 25  2  0
 25 26  1  0
 26 27  2  0
 27 28  1  0
 28 29  2  0
 29 30  1  0
 30 31  2  0
 31 32  1  0
 32 33  2  0
 33 34  1  0
 34 35  2  0
 35 36  1  0
 36 37  2  0
 37 38  1  0
 38 39  2  0
 39 40  1  0
 40 41  2  0
 41 42  1  0
 42 43  2  0
 43 44  1  0
 44 45  2  0
 45 46  1  0
 46 47  2  0
 47 48  1  0
 48 49  2  0
 49 50  1  0
 50 51  2  0
 51 52  1  0
 52 53  2  0
 53 54  1  0
 54 55  2  0
 55  2  1  0
 10  6  1  0
 19 14  1  0
 25 20  1  0
 31 26  1  0
 37 32  1  0
 43 38  1  0
 49 44  1  0
 55 50  1  0
M  END
>  <Title>  (819) 
idABDOgen10

$$$$

     RDKit          2D

 12 12  0  0  0  0  0  0  0  0999 V2000
    4.2760   -2.5981    0.0000 C   0  0  0  0  0  0  0  0  0  0  0  0
    3.5260   -1.2990    0.0000 C   0  0  0  0  0  0  0  0  0  0  0  0
    2.7760    0.0000    0.0000 C   0  0  0  0  0  0  0  0  0  0  0  0
    3.5260    1.2990    0.0000 O   0  0  0  0  0  0  0  0  0  0  0  0
    1.2760    0.0000    0.0000 C   0  0  0  0  0  0  0  0  0  0  0  0
    0.3943    1.2135    0.0000 C   0  0  0  0  0  0  0  0  0  0  0  0
    0.8578    2.6401    0.0000 C   0  0  0  0  0  0  0  0  0  0  0  0
   -1.0323    0.7500    0.0000 C   0  0  0  0  0  0  0  0  0  0  0  0
   -2.2458    1.6317    0.0000 O   0  0  0  0  0  0  0  0  0  0  0  0
   -1.0323   -0.7500    0.0000 C   0  0  0  0  0  0  0  0  0  0  0  0
   -2.2458   -1.6317    0.0000 O   0  0  0  0  0  0  0  0  0  0  0  0
    0.3943   -1.2135    0.0000 C   0  0  0  0  0  0  0  0  0  0  0  0
  1  2  3  0
  2  3  1  0
  3  4  2  0
  3  5  1  0
  5  6  2  0
  6  7  1  0
  6  8  1  0
  8  9  1  0
  8 10  2  0
 10 11  1  0
 10 12  1  0
 12  5  1  0
M  END
>  <Title>  (820) 
idABDPgen10

$$$$

     RDKit          2D

  8  8  0  0  0  0  0  0  0  0999 V2000
    2.7760    0.0000    0.0000 C   0  0  0  0  0  0  0  0  0  0  0  0
    1.2760    0.0000    0.0000 C   0  0  0  0  0  0  0  0  0  0  0  0
    0.3943    1.2135    0.0000 N   0  0  0  0  0  0  0  0  0  0  0  0
   -1.0323    0.7500    0.0000 C   0  0  0  0  0  0  0  0  0  0  0  0
   -2.2458    1.6317    0.0000 C   0  0  0  0  0  0  0  0  0  0  0  0
   -3.4593    2.5134    0.0000 N   0  0  0  0  0  0  0  0  0  0  0  0
   -1.0323   -0.7500    0.0000 C   0  0  0  0  0  0  0  0  0  0  0  0
    0.3943   -1.2135    0.0000 C   0  0  0  0  0  0  0  0  0  0  0  0
  1  2  1  0
  2  3  2  0
  3  4  1  0
  4  5  1  0
  5  6  3  0
  4  7  1  0
  7  8  2  0
  8  2  1  0
M  END
>  <Title>  (821) 
idABDQgen10

$$$$

     RDKit          2D

 27 27  0  0  0  0  0  0  0  0999 V2000
   11.5080   -0.0000    0.0000 C   0  0  0  0  0  0  0  0  0  0  0  0
   10.0080   -0.0000    0.0000 C   0  0  0  0  0  0  0  0  0  0  0  0
    8.5080   -0.0000    0.0000 C   0  0  0  0  0  0  0  0  0  0  0  0
    7.0080   -0.0000    0.0000 C   0  0  0  0  0  0  0  0  0  0  0  0
    5.5080    0.0000    0.0000 C   0  0  0  0  0  0  0  0  0  0  0  0
    5.3037    1.4860    0.0000 C   0  0  0  0  0  0  0  0  0  0  0  0
    4.7061    2.8618    0.0000 C   0  0  0  0  0  0  0  0  0  0  0  0
    3.7595    4.0254    0.0000 C   0  0  0  0  0  0  0  0  0  0  0  0
    2.5340    4.8904    0.0000 C   0  0  0  0  0  0  0  0  0  0  0  0
    1.1206    5.3928    0.0000 C   0  0  0  0  0  0  0  0  0  0  0  0
   -0.3759    5.4951    0.0000 C   0  0  0  0  0  0  0  0  0  0  0  0
   -1.8445    5.1899    0.0000 C   0  0  0  0  0  0  0  0  0  0  0  0
   -3.1763    4.4998    0.0000 C   0  0  0  0  0  0  0  0  0  0  0  0
   -4.2726    3.4760    0.0000 C   0  0  0  0  0  0  0  0  0  0  0  0
   -5.0520    2.1944    0.0000 C   0  0  0  0  0  0  0  0  0  0  0  0
   -5.4567    0.7500    0.0000 C   0  0  0  0  0  0  0  0  0  0  0  0
   -5.4567   -0.7500    0.0000 C   0  0  0  0  0  0  0  0  0  0  0  0
   -5.0520   -2.1944    0.0000 C   0  0  0  0  0  0  0  0  0  0  0  0
   -4.2726   -3.4760    0.0000 C   0  0  0  0  0  0  0  0  0  0  0  0
   -3.1763   -4.4998    0.0000 C   0  0  0  0  0  0  0  0  0  0  0  0
   -1.8445   -5.1899    0.0000 C   0  0  0  0  0  0  0  0  0  0  0  0
   -0.3759   -5.4951    0.0000 C   0  0  0  0  0  0  0  0  0  0  0  0
    1.1206   -5.3928    0.0000 C   0  0  0  0  0  0  0  0  0  0  0  0
    2.5340   -4.8904    0.0000 C   0  0  0  0  0  0  0  0  0  0  0  0
    3.7595   -4.0254    0.0000 C   0  0  0  0  0  0  0  0  0  0  0  0
    4.7061   -2.8618    0.0000 C   0  0  0  0  0  0  0  0  0  0  0  0
    5.3037   -1.4860    0.0000 C   0  0  0  0  0  0  0  0  0  0  0  0
  1  2  3  0
  2  3  1  0
  3  4  3  0
  4  5  1  0
  5  6  1  0
  6  7  1  0
  7  8  1  0
  8  9  1  0
  9 10  1  0
 10 11  2  0
 11 12  1  0
 12 13  1  0
 13 14  1  0
 14 15  1  0
 15 16  1  0
 16 17  1  0
 17 18  1  0
 18 19  1  0
 19 20  1  0
 20 21  1  0
 21 22  1  0
 22 23  1  0
 23 24  1  0
 24 25  1  0
 25 26  1  0
 26 27  1  0
 27  5  1  0
M  END
>  <Title>  (822) 
idABDRgen10

$$$$

     RDKit          2D

 14 15  0  0  0  0  0  0  0  0999 V2000
   -4.0844   -7.0470    0.0000 C   0  0  0  0  0  0  0  0  0  0  0  0
   -2.7853   -6.2970    0.0000 C   0  0  0  0  0  0  0  0  0  0  0  0
   -1.4863   -5.5470    0.0000 C   0  0  0  0  0  0  0  0  0  0  0  0
   -0.1873   -4.7970    0.0000 C   0  0  0  0  0  0  0  0  0  0  0  0
    1.1118   -4.0470    0.0000 C   0  0  0  0  0  0  0  0  0  0  0  0
    1.5000   -2.5981    0.0000 C   0  0  0  0  0  0  0  0  0  0  0  0
    0.7500   -1.2990    0.0000 C   0  0  0  0  0  0  0  0  0  0  0  0
    1.5000    0.0000    0.0000 C   0  0  0  0  0  0  0  0  0  0  0  0
    0.7500    1.2990    0.0000 C   0  0  0  0  0  0  0  0  0  0  0  0
   -0.7500    1.2990    0.0000 C   0  0  0  0  0  0  0  0  0  0  0  0
   -1.5000    0.0000    0.0000 C   0  0  0  0  0  0  0  0  0  0  0  0
   -0.7500   -1.2990    0.0000 C   0  0  0  0  0  0  0  0  0  0  0  0
    2.9489   -2.9863    0.0000 C   0  0  0  0  0  0  0  0  0  0  0  0
    2.5607   -4.4352    0.0000 C   0  0  0  0  0  0  0  0  0  0  0  0
  1  2  3  0
  2  3  1  0
  3  4  3  0
  4  5  1  0
  5  6  2  0
  6  7  1  0
  7  8  2  0
  8  9  1  0
  9 10  2  0
 10 11  1  0
 11 12  2  0
  6 13  1  0
 13 14  2  0
 14  5  1  0
 12  7  1  0
M  END
>  <Title>  (823) 
idABDSgen10

$$$$

     RDKit          2D

 13 13  0  0  0  0  0  0  0  0999 V2000
   10.5000    0.0000    0.0000 C   0  0  0  0  0  0  0  0  0  0  0  0
    9.0000    0.0000    0.0000 C   0  0  0  0  0  0  0  0  0  0  0  0
    7.5000    0.0000    0.0000 C   0  0  0  0  0  0  0  0  0  0  0  0
    6.0000    0.0000    0.0000 C   0  0  0  0  0  0  0  0  0  0  0  0
    4.5000    0.0000    0.0000 C   0  0  0  0  0  0  0  0  0  0  0  0
    3.0000    0.0000    0.0000 C   0  0  0  0  0  0  0  0  0  0  0  0
    1.5000    0.0000    0.0000 C   0  0  0  0  0  0  0  0  0  0  0  0
    0.7500   -1.2990    0.0000 C   0  0  0  0  0  0  0  0  0  0  0  0
   -0.7500   -1.2990    0.0000 C   0  0  0  0  0  0  0  0  0  0  0  0
   -1.5000   -2.5981    0.0000 C   0  0  0  0  0  0  0  0  0  0  0  0
   -1.5000    0.0000    0.0000 C   0  0  0  0  0  0  0  0  0  0  0  0
   -0.7500    1.2990    0.0000 C   0  0  0  0  0  0  0  0  0  0  0  0
    0.7500    1.2990    0.0000 N   0  0  0  0  0  0  0  0  0  0  0  0
  1  2  3  0
  2  3  1  0
  3  4  3  0
  4  5  1  0
  5  6  3  0
  6  7  1  0
  7  8  2  0
  8  9  1  0
  9 10  1  0
  9 11  2  0
 11 12  1  0
 12 13  2  0
 13  7  1  0
M  END
>  <Title>  (824) 
idABDTgen10

$$$$

     RDKit          2D

  6  5  0  0  0  0  0  0  0  0999 V2000
    0.0000    0.0000    0.0000 C   0  0  0  0  0  0  0  0  0  0  0  0
   -0.0000   -1.5000    0.0000 C   0  0  0  0  0  0  0  0  0  0  0  0
   -0.0000   -3.0000    0.0000 C   0  0  0  0  0  0  0  0  0  0  0  0
    1.2990   -3.7500    0.0000 C   0  0  0  0  0  0  0  0  0  0  0  0
    1.2990   -5.2500    0.0000 C   0  0  0  0  0  0  0  0  0  0  0  0
    2.5981   -6.0000    0.0000 C   0  0  0  0  0  0  0  0  0  0  0  0
  1  2  3  0
  2  3  1  0
  3  4  1  0
  4  5  2  3
  5  6  1  0
M  END
>  <Title>  (825) 
idABDUgen10

$$$$

     RDKit          2D

112112  0  0  0  0  0  0  0  0999 V2000
   26.7415    0.0000    0.0000 C   0  0  0  0  0  0  0  0  0  0  0  0
   26.6995   -1.4994    0.0000 C   0  0  0  0  0  0  0  0  0  0  0  0
   26.5734   -2.9941    0.0000 C   0  0  0  0  0  0  0  0  0  0  0  0
   26.3637   -4.4794    0.0000 C   0  0  0  0  0  0  0  0  0  0  0  0
   26.0711   -5.9506    0.0000 C   0  0  0  0  0  0  0  0  0  0  0  0
   25.6964   -7.4030    0.0000 C   0  0  0  0  0  0  0  0  0  0  0  0
   25.2409   -8.8322    0.0000 C   0  0  0  0  0  0  0  0  0  0  0  0
   24.7060  -10.2335    0.0000 C   0  0  0  0  0  0  0  0  0  0  0  0
   24.0933  -11.6027    0.0000 C   0  0  0  0  0  0  0  0  0  0  0  0
   23.4048  -12.9354    0.0000 C   0  0  0  0  0  0  0  0  0  0  0  0
   22.6427  -14.2274    0.0000 C   0  0  0  0  0  0  0  0  0  0  0  0
   21.8094  -15.4746    0.0000 C   0  0  0  0  0  0  0  0  0  0  0  0
   20.9074  -16.6731    0.0000 C   0  0  0  0  0  0  0  0  0  0  0  0
   19.9396  -17.8191    0.0000 C   0  0  0  0  0  0  0  0  0  0  0  0
   18.9091  -18.9091    0.0000 C   0  0  0  0  0  0  0  0  0  0  0  0
   17.8191  -19.9396    0.0000 C   0  0  0  0  0  0  0  0  0  0  0  0
   16.6731  -20.9074    0.0000 C   0  0  0  0  0  0  0  0  0  0  0  0
   15.4746  -21.8094    0.0000 C   0  0  0  0  0  0  0  0  0  0  0  0
   14.2274  -22.6427    0.0000 C   0  0  0  0  0  0  0  0  0  0  0  0
   12.9354  -23.4048    0.0000 C   0  0  0  0  0  0  0  0  0  0  0  0
   11.6027  -24.0933    0.0000 C   0  0  0  0  0  0  0  0  0  0  0  0
   10.2335  -24.7060    0.0000 C   0  0  0  0  0  0  0  0  0  0  0  0
    8.8322  -25.2409    0.0000 C   0  0  0  0  0  0  0  0  0  0  0  0
    7.4030  -25.6964    0.0000 C   0  0  0  0  0  0  0  0  0  0  0  0
    5.9506  -26.0711    0.0000 C   0  0  0  0  0  0  0  0  0  0  0  0
    4.4794  -26.3637    0.0000 C   0  0  0  0  0  0  0  0  0  0  0  0
    2.9941  -26.5734    0.0000 C   0  0  0  0  0  0  0  0  0  0  0  0
    1.4994  -26.6995    0.0000 C   0  0  0  0  0  0  0  0  0  0  0  0
   -0.0000  -26.7415    0.0000 C   0  0  0  0  0  0  0  0  0  0  0  0
   -1.4994  -26.6995    0.0000 C   0  0  0  0  0  0  0  0  0  0  0  0
   -2.9941  -26.5734    0.0000 C   0  0  0  0  0  0  0  0  0  0  0  0
   -4.4794  -26.3637    0.0000 C   0  0  0  0  0  0  0  0  0  0  0  0
   -5.9506  -26.0711    0.0000 C   0  0  0  0  0  0  0  0  0  0  0  0
   -7.4030  -25.6964    0.0000 C   0  0  0  0  0  0  0  0  0  0  0  0
   -8.8322  -25.2409    0.0000 C   0  0  0  0  0  0  0  0  0  0  0  0
  -10.2335  -24.7060    0.0000 C   0  0  0  0  0  0  0  0  0  0  0  0
  -11.6027  -24.0933    0.0000 C   0  0  0  0  0  0  0  0  0  0  0  0
  -12.9354  -23.4048    0.0000 C   0  0  0  0  0  0  0  0  0  0  0  0
  -14.2274  -22.6427    0.0000 C   0  0  0  0  0  0  0  0  0  0  0  0
  -15.4746  -21.8094    0.0000 C   0  0  0  0  0  0  0  0  0  0  0  0
  -16.6731  -20.9074    0.0000 C   0  0  0  0  0  0  0  0  0  0  0  0
  -17.8191  -19.9396    0.0000 C   0  0  0  0  0  0  0  0  0  0  0  0
  -18.9091  -18.9091    0.0000 C   0  0  0  0  0  0  0  0  0  0  0  0
  -19.9396  -17.8191    0.0000 C   0  0  0  0  0  0  0  0  0  0  0  0
  -20.9074  -16.6731    0.0000 C   0  0  0  0  0  0  0  0  0  0  0  0
  -21.8094  -15.4746    0.0000 C   0  0  0  0  0  0  0  0  0  0  0  0
  -22.6427  -14.2274    0.0000 C   0  0  0  0  0  0  0  0  0  0  0  0
  -23.4048  -12.9354    0.0000 C   0  0  0  0  0  0  0  0  0  0  0  0
  -24.0933  -11.6027    0.0000 C   0  0  0  0  0  0  0  0  0  0  0  0
  -24.7060  -10.2335    0.0000 C   0  0  0  0  0  0  0  0  0  0  0  0
  -25.2409   -8.8322    0.0000 C   0  0  0  0  0  0  0  0  0  0  0  0
  -25.6964   -7.4030    0.0000 C   0  0  0  0  0  0  0  0  0  0  0  0
  -26.0711   -5.9506    0.0000 C   0  0  0  0  0  0  0  0  0  0  0  0
  -26.3637   -4.4794    0.0000 C   0  0  0  0  0  0  0  0  0  0  0  0
  -26.5734   -2.9941    0.0000 C   0  0  0  0  0  0  0  0  0  0  0  0
  -26.6995   -1.4994    0.0000 C   0  0  0  0  0  0  0  0  0  0  0  0
  -26.7415    0.0000    0.0000 C   0  0  0  0  0  0  0  0  0  0  0  0
  -26.6995    1.4994    0.0000 C   0  0  0  0  0  0  0  0  0  0  0  0
  -26.5734    2.9941    0.0000 C   0  0  0  0  0  0  0  0  0  0  0  0
  -26.3637    4.4794    0.0000 C   0  0  0  0  0  0  0  0  0  0  0  0
  -26.0711    5.9506    0.0000 C   0  0  0  0  0  0  0  0  0  0  0  0
  -25.6964    7.4030    0.0000 C   0  0  0  0  0  0  0  0  0  0  0  0
  -25.2409    8.8322    0.0000 C   0  0  0  0  0  0  0  0  0  0  0  0
  -24.7060   10.2335    0.0000 C   0  0  0  0  0  0  0  0  0  0  0  0
  -24.0933   11.6027    0.0000 C   0  0  0  0  0  0  0  0  0  0  0  0
  -23.4048   12.9354    0.0000 C   0  0  0  0  0  0  0  0  0  0  0  0
  -22.6427   14.2274    0.0000 C   0  0  0  0  0  0  0  0  0  0  0  0
  -21.8094   15.4746    0.0000 C   0  0  0  0  0  0  0  0  0  0  0  0
  -20.9074   16.6731    0.0000 C   0  0  0  0  0  0  0  0  0  0  0  0
  -19.9396   17.8191    0.0000 C   0  0  0  0  0  0  0  0  0  0  0  0
  -18.9091   18.9091    0.0000 C   0  0  0  0  0  0  0  0  0  0  0  0
  -17.8191   19.9396    0.0000 C   0  0  0  0  0  0  0  0  0  0  0  0
  -16.6731   20.9074    0.0000 C   0  0  0  0  0  0  0  0  0  0  0  0
  -15.4746   21.8094    0.0000 C   0  0  0  0  0  0  0  0  0  0  0  0
  -14.2274   22.6427    0.0000 C   0  0  0  0  0  0  0  0  0  0  0  0
  -12.9354   23.4048    0.0000 C   0  0  0  0  0  0  0  0  0  0  0  0
  -11.6027   24.0933    0.0000 C   0  0  0  0  0  0  0  0  0  0  0  0
  -10.2335   24.7060    0.0000 C   0  0  0  0  0  0  0  0  0  0  0  0
   -8.8322   25.2409    0.0000 C   0  0  0  0  0  0  0  0  0  0  0  0
   -7.4030   25.6964    0.0000 C   0  0  0  0  0  0  0  0  0  0  0  0
   -5.9506   26.0711    0.0000 C   0  0  0  0  0  0  0  0  0  0  0  0
   -4.4794   26.3637    0.0000 C   0  0  0  0  0  0  0  0  0  0  0  0
   -2.9941   26.5734    0.0000 C   0  0  0  0  0  0  0  0  0  0  0  0
   -1.4994   26.6995    0.0000 C   0  0  0  0  0  0  0  0  0  0  0  0
    0.0000   26.7415    0.0000 C   0  0  0  0  0  0  0  0  0  0  0  0
    1.4994   26.6995    0.0000 C   0  0  0  0  0  0  0  0  0  0  0  0
    2.9941   26.5734    0.0000 C   0  0  0  0  0  0  0  0  0  0  0  0
    4.4794   26.3637    0.0000 C   0  0  0  0  0  0  0  0  0  0  0  0
    5.9506   26.0711    0.0000 C   0  0  0  0  0  0  0  0  0  0  0  0
    7.4030   25.6964    0.0000 C   0  0  0  0  0  0  0  0  0  0  0  0
    8.8322   25.2409    0.0000 C   0  0  0  0  0  0  0  0  0  0  0  0
   10.2335   24.7060    0.0000 C   0  0  0  0  0  0  0  0  0  0  0  0
   11.6027   24.0933    0.0000 C   0  0  0  0  0  0  0  0  0  0  0  0
   12.9354   23.4048    0.0000 C   0  0  0  0  0  0  0  0  0  0  0  0
   14.2274   22.6427    0.0000 C   0  0  0  0  0  0  0  0  0  0  0  0
   15.4746   21.8094    0.0000 C   0  0  0  0  0  0  0  0  0  0  0  0
   16.6731   20.9074    0.0000 C   0  0  0  0  0  0  0  0  0  0  0  0
   17.8191   19.9396    0.0000 C   0  0  0  0  0  0  0  0  0  0  0  0
   18.9091   18.9091    0.0000 C   0  0  0  0  0  0  0  0  0  0  0  0
   19.9396   17.8191    0.0000 C   0  0  0  0  0  0  0  0  0  0  0  0
   20.9074   16.6731    0.0000 C   0  0  0  0  0  0  0  0  0  0  0  0
   21.8094   15.4746    0.0000 C   0  0  0  0  0  0  0  0  0  0  0  0
   22.6427   14.2274    0.0000 C   0  0  0  0  0  0  0  0  0  0  0  0
   23.4048   12.9354    0.0000 C   0  0  0  0  0  0  0  0  0  0  0  0
   24.0933   11.6027    0.0000 C   0  0  0  0  0  0  0  0  0  0  0  0
   24.7060   10.2335    0.0000 C   0  0  0  0  0  0  0  0  0  0  0  0
   25.2409    8.8322    0.0000 C   0  0  0  0  0  0  0  0  0  0  0  0
   25.6964    7.4030    0.0000 C   0  0  0  0  0  0  0  0  0  0  0  0
   26.0711    5.9506    0.0000 C   0  0  0  0  0  0  0  0  0  0  0  0
   26.3637    4.4794    0.0000 C   0  0  0  0  0  0  0  0  0  0  0  0
   26.5734    2.9941    0.0000 C   0  0  0  0  0  0  0  0  0  0  0  0
   26.6995    1.4994    0.0000 C   0  0  0  0  0  0  0  0  0  0  0  0
  1  2  1  0
  2  3  1  0
  3  4  1  0
  4  5  1  0
  5  6  1  0
  6  7  1  0
  7  8  1  0
  8  9  1  0
  9 10  1  0
 10 11  1  0
 11 12  1  0
 12 13  1  0
 13 14  1  0
 14 15  1  0
 15 16  1  0
 16 17  1  0
 17 18  1  0
 18 19  1  0
 19 20  1  0
 20 21  1  0
 21 22  1  0
 22 23  1  0
 23 24  1  0
 24 25  1  0
 25 26  1  0
 26 27  1  0
 27 28  1  0
 28 29  1  0
 29 30  1  0
 30 31  1  0
 31 32  1  0
 32 33  1  0
 33 34  1  0
 34 35  1  0
 35 36  1  0
 36 37  1  0
 37 38  1  0
 38 39  1  0
 39 40  1  0
 40 41  1  0
 41 42  1  0
 42 43  1  0
 43 44  1  0
 44 45  1  0
 45 46  1  0
 46 47  1  0
 47 48  1  0
 48 49  1  0
 49 50  1  0
 50 51  1  0
 51 52  1  0
 52 53  1  0
 53 54  1  0
 54 55  1  0
 55 56  1  0
 56 57  1  0
 57 58  1  0
 58 59  1  0
 59 60  1  0
 60 61  1  0
 61 62  1  0
 62 63  1  0
 63 64  1  0
 64 65  1  0
 65 66  1  0
 66 67  1  0
 67 68  1  0
 68 69  1  0
 69 70  1  0
 70 71  1  0
 71 72  1  0
 72 73  1  0
 73 74  1  0
 74 75  1  0
 75 76  1  0
 76 77  1  0
 77 78  1  0
 78 79  1  0
 79 80  1  0
 80 81  1  0
 81 82  1  0
 82 83  1  0
 83 84  1  0
 84 85  1  0
 85 86  1  0
 86 87  1  0
 87 88  1  0
 88 89  1  0
 89 90  1  0
 90 91  1  0
 91 92  1  0
 92 93  1  0
 93 94  1  0
 94 95  1  0
 95 96  1  0
 96 97  1  0
 97 98  1  0
 98 99  1  0
 99100  1  0
100101  1  0
101102  1  0
102103  1  0
103104  1  0
104105  1  0
105106  1  0
106107  1  0
107108  1  0
108109  1  0
109110  1  0
110111  1  0
111112  1  0
112  1  1  0
M  END
>  <Title>  (826) 
idABDVgen10

$$$$

     RDKit          2D

 32 35  0  0  0  0  0  0  0  0999 V2000
    8.6916    2.4974    0.0000 C   0  0  0  0  0  0  0  0  0  0  0  0
    7.4298    1.6865    0.0000 C   0  0  0  0  0  0  0  0  0  0  0  0
    6.0965    2.3738    0.0000 N   0  0  0  0  0  0  0  0  0  0  0  0
    4.8346    1.5629    0.0000 C   0  0  0  0  0  0  0  0  0  0  0  0
    4.9060    0.0646    0.0000 O   0  0  0  0  0  0  0  0  0  0  0  0
    3.5014    2.2502    0.0000 N   0  0  0  0  0  0  0  0  0  0  0  0
    2.2395    1.4392    0.0000 C   0  0  0  0  0  0  0  0  0  0  0  0
    2.6621    0.0000    0.0000 N   0  0  0  0  0  0  0  0  0  0  0  0
    2.2395   -1.4392    0.0000 N   0  0  0  0  0  0  0  0  0  0  0  0
    1.1059   -2.4215    0.0000 N   0  0  0  0  0  0  0  0  0  0  0  0
   -0.3789   -2.6350    0.0000 N   0  0  0  0  0  0  0  0  0  0  0  0
   -1.0020   -3.9995    0.0000 C   0  0  0  0  0  0  0  0  0  0  0  0
   -2.3664   -3.3763    0.0000 C   0  0  0  0  0  0  0  0  0  0  0  0
   -3.7719   -3.9005    0.0000 O   0  0  0  0  0  0  0  0  0  0  0  0
   -1.7433   -2.0119    0.0000 N   0  0  0  0  0  0  0  0  0  0  0  0
   -2.5543   -0.7500    0.0000 C   0  0  0  0  0  0  0  0  0  0  0  0
   -2.5543    0.7500    0.0000 C   0  0  0  0  0  0  0  0  0  0  0  0
   -1.7433    2.0119    0.0000 C   0  0  0  0  0  0  0  0  0  0  0  0
   -0.3789    2.6350    0.0000 C   0  0  0  0  0  0  0  0  0  0  0  0
    1.1059    2.4215    0.0000 C   0  0  0  0  0  0  0  0  0  0  0  0
    7.5011    0.1882    0.0000 C   0  0  0  0  0  0  0  0  0  0  0  0
    6.2393   -0.6228    0.0000 C   0  0  0  0  0  0  0  0  0  0  0  0
    6.3106   -2.1211    0.0000 C   0  0  0  0  0  0  0  0  0  0  0  0
    7.6439   -2.8084    0.0000 C   0  0  0  0  0  0  0  0  0  0  0  0
    8.9058   -1.9975    0.0000 C   0  0  0  0  0  0  0  0  0  0  0  0
    8.8344   -0.4992    0.0000 C   0  0  0  0  0  0  0  0  0  0  0  0
   10.0963    0.3118    0.0000 C   0  0  0  0  0  0  0  0  0  0  0  0
   11.4295   -0.3755    0.0000 C   0  0  0  0  0  0  0  0  0  0  0  0
   12.6914    0.4354    0.0000 C   0  0  0  0  0  0  0  0  0  0  0  0
   12.6200    1.9337    0.0000 C   0  0  0  0  0  0  0  0  0  0  0  0
   11.2868    2.6211    0.0000 C   0  0  0  0  0  0  0  0  0  0  0  0
   10.0249    1.8101    0.0000 C   0  0  0  0  0  0  0  0  0  0  0  0
  1  2  1  0
  2  3  1  0
  3  4  1  0
  4  5  2  0
  4  6  1  0
  6  7  1  0
  7  8  2  0
  8  9  1  0
  9 10  2  0
 10 11  1  0
 11 12  1  0
 12 13  1  0
 13 14  2  0
 13 15  1  0
 15 16  1  0
 16 17  1  0
 17 18  2  0
 18 19  1  0
 19 20  2  0
  2 21  1  0
 21 22  2  0
 22 23  1  0
 23 24  2  0
 24 25  1  0
 25 26  2  0
 26 27  1  0
 27 28  2  0
 28 29  1  0
 29 30  2  0
 30 31  1  0
 31 32  2  0
 20  7  1  0
 26 21  1  0
 32 27  1  0
 15 11  1  0
M  END
>  <Title>  (827) 
idABDWgen10

$$$$

     RDKit          2D

  9  9  0  0  0  0  0  0  0  0999 V2000
    4.5000    0.0000    0.0000 C   0  0  0  0  0  0  0  0  0  0  0  0
    3.0000    0.0000    0.0000 C   0  0  0  0  0  0  0  0  0  0  0  0
    1.5000    0.0000    0.0000 C   0  0  0  0  0  0  0  0  0  0  0  0
    0.7500   -1.2990    0.0000 C   0  0  0  0  0  0  0  0  0  0  0  0
   -0.7500   -1.2990    0.0000 C   0  0  0  0  0  0  0  0  0  0  0  0
   -1.5000    0.0000    0.0000 C   0  0  0  0  0  0  0  0  0  0  0  0
   -0.7500    1.2990    0.0000 C   0  0  0  0  0  0  0  0  0  0  0  0
    0.7500    1.2990    0.0000 C   0  0  0  0  0  0  0  0  0  0  0  0
    1.5000    2.5981    0.0000 O   0  0  0  0  0  0  0  0  0  0  0  0
  1  2  3  0
  2  3  1  0
  3  4  2  0
  4  5  1  0
  5  6  2  0
  6  7  1  0
  7  8  2  0
  8  9  1  0
  8  3  1  0
M  END
>  <Title>  (828) 
idABDXgen10

$$$$

     RDKit          2D

 77 78  0  0  0  0  0  0  0  0999 V2000
   -0.0116   -3.1409    0.0000 C   0  0  0  0  0  0  0  0  0  0  0  0
    1.2857   -3.8939    0.0000 C   0  0  0  0  0  0  0  0  0  0  0  0
    0.5972   -5.2266    0.0000 C   0  0  0  0  0  0  0  0  0  0  0  0
    0.0427   -6.6203    0.0000 C   0  0  0  0  0  0  0  0  0  0  0  0
   -0.3726   -8.0617    0.0000 C   0  0  0  0  0  0  0  0  0  0  0  0
   -0.6446   -9.5368    0.0000 C   0  0  0  0  0  0  0  0  0  0  0  0
   -0.7706  -11.0315    0.0000 C   0  0  0  0  0  0  0  0  0  0  0  0
   -0.7496  -12.5314    0.0000 C   0  0  0  0  0  0  0  0  0  0  0  0
   -0.5817  -14.0219    0.0000 C   0  0  0  0  0  0  0  0  0  0  0  0
   -0.2684  -15.4889    0.0000 C   0  0  0  0  0  0  0  0  0  0  0  0
    0.1871  -16.9180    0.0000 C   0  0  0  0  0  0  0  0  0  0  0  0
    0.7805  -18.2957    0.0000 C   0  0  0  0  0  0  0  0  0  0  0  0
    1.5061  -19.6085    0.0000 C   0  0  0  0  0  0  0  0  0  0  0  0
    2.3568  -20.8439    0.0000 C   0  0  0  0  0  0  0  0  0  0  0  0
    3.3246  -21.9899    0.0000 C   0  0  0  0  0  0  0  0  0  0  0  0
    4.4000  -23.0356    0.0000 C   0  0  0  0  0  0  0  0  0  0  0  0
    5.5728  -23.9709    0.0000 C   0  0  0  0  0  0  0  0  0  0  0  0
    6.8316  -24.7866    0.0000 C   0  0  0  0  0  0  0  0  0  0  0  0
    8.1642  -25.4751    0.0000 C   0  0  0  0  0  0  0  0  0  0  0  0
    9.5580  -26.0296    0.0000 C   0  0  0  0  0  0  0  0  0  0  0  0
   10.9993  -26.4449    0.0000 C   0  0  0  0  0  0  0  0  0  0  0  0
   12.4745  -26.7169    0.0000 C   0  0  0  0  0  0  0  0  0  0  0  0
   13.9692  -26.8430    0.0000 C   0  0  0  0  0  0  0  0  0  0  0  0
   15.4690  -26.8219    0.0000 C   0  0  0  0  0  0  0  0  0  0  0  0
   16.9596  -26.6540    0.0000 C   0  0  0  0  0  0  0  0  0  0  0  0
   18.4265  -26.3407    0.0000 C   0  0  0  0  0  0  0  0  0  0  0  0
   19.8557  -25.8852    0.0000 C   0  0  0  0  0  0  0  0  0  0  0  0
   21.2333  -25.2918    0.0000 C   0  0  0  0  0  0  0  0  0  0  0  0
   22.5461  -24.5662    0.0000 C   0  0  0  0  0  0  0  0  0  0  0  0
   23.7815  -23.7155    0.0000 C   0  0  0  0  0  0  0  0  0  0  0  0
   24.9276  -22.7477    0.0000 C   0  0  0  0  0  0  0  0  0  0  0  0
   25.9733  -21.6723    0.0000 C   0  0  0  0  0  0  0  0  0  0  0  0
   26.9085  -20.4995    0.0000 C   0  0  0  0  0  0  0  0  0  0  0  0
   27.7243  -19.2408    0.0000 C   0  0  0  0  0  0  0  0  0  0  0  0
   28.4128  -17.9081    0.0000 C   0  0  0  0  0  0  0  0  0  0  0  0
   28.9673  -16.5144    0.0000 C   0  0  0  0  0  0  0  0  0  0  0  0
   29.3825  -15.0730    0.0000 C   0  0  0  0  0  0  0  0  0  0  0  0
   29.6545  -13.5978    0.0000 C   0  0  0  0  0  0  0  0  0  0  0  0
   29.7806  -12.1032    0.0000 C   0  0  0  0  0  0  0  0  0  0  0  0
   29.7596  -10.6033    0.0000 C   0  0  0  0  0  0  0  0  0  0  0  0
   29.5916   -9.1127    0.0000 C   0  0  0  0  0  0  0  0  0  0  0  0
   29.2784   -7.6458    0.0000 C   0  0  0  0  0  0  0  0  0  0  0  0
   28.8229   -6.2166    0.0000 C   0  0  0  0  0  0  0  0  0  0  0  0
   28.2295   -4.8390    0.0000 C   0  0  0  0  0  0  0  0  0  0  0  0
   27.5039   -3.5262    0.0000 C   0  0  0  0  0  0  0  0  0  0  0  0
   26.6531   -2.2908    0.0000 C   0  0  0  0  0  0  0  0  0  0  0  0
   25.6854   -1.1447    0.0000 C   0  0  0  0  0  0  0  0  0  0  0  0
   24.6099   -0.0990    0.0000 C   0  0  0  0  0  0  0  0  0  0  0  0
   23.4372    0.8362    0.0000 C   0  0  0  0  0  0  0  0  0  0  0  0
   22.1784    1.6520    0.0000 C   0  0  0  0  0  0  0  0  0  0  0  0
   20.8457    2.3404    0.0000 C   0  0  0  0  0  0  0  0  0  0  0  0
   19.4520    2.8950    0.0000 C   0  0  0  0  0  0  0  0  0  0  0  0
   18.0106    3.3102    0.0000 C   0  0  0  0  0  0  0  0  0  0  0  0
   16.5355    3.5822    0.0000 C   0  0  0  0  0  0  0  0  0  0  0  0
   15.0408    3.7083    0.0000 C   0  0  0  0  0  0  0  0  0  0  0  0
   13.5409    3.6872    0.0000 C   0  0  0  0  0  0  0  0  0  0  0  0
   12.0504    3.5193    0.0000 C   0  0  0  0  0  0  0  0  0  0  0  0
   10.5834    3.2061    0.0000 C   0  0  0  0  0  0  0  0  0  0  0  0
    9.1543    2.7505    0.0000 C   0  0  0  0  0  0  0  0  0  0  0  0
    7.7767    2.1571    0.0000 C   0  0  0  0  0  0  0  0  0  0  0  0
    6.4638    1.4316    0.0000 C   0  0  0  0  0  0  0  0  0  0  0  0
    5.2284    0.5808    0.0000 C   0  0  0  0  0  0  0  0  0  0  0  0
    4.0824   -0.3870    0.0000 C   0  0  0  0  0  0  0  0  0  0  0  0
    3.0367   -1.4624    0.0000 C   0  0  0  0  0  0  0  0  0  0  0  0
    3.3705    0.0000    0.0000 C   0  0  0  0  0  0  0  0  0  0  0  0
    3.0367    1.4624    0.0000 C   0  0  0  0  0  0  0  0  0  0  0  0
    2.1015    2.6351    0.0000 C   0  0  0  0  0  0  0  0  0  0  0  0
    0.7500    3.2860    0.0000 C   0  0  0  0  0  0  0  0  0  0  0  0
   -0.7500    3.2860    0.0000 C   0  0  0  0  0  0  0  0  0  0  0  0
   -2.1015    2.6351    0.0000 C   0  0  0  0  0  0  0  0  0  0  0  0
   -3.0367    1.4624    0.0000 C   0  0  0  0  0  0  0  0  0  0  0  0
   -3.3705    0.0000    0.0000 C   0  0  0  0  0  0  0  0  0  0  0  0
   -3.0367   -1.4624    0.0000 C   0  0  0  0  0  0  0  0  0  0  0  0
   -2.1015   -2.6351    0.0000 C   0  0  0  0  0  0  0  0  0  0  0  0
   -0.7500   -3.2860    0.0000 C   0  0  0  0  0  0  0  0  0  0  0  0
    0.7500   -3.2860    0.0000 C   0  0  0  0  0  0  0  0  0  0  0  0
    2.1015   -2.6351    0.0000 C   0  0  0  0  0  0  0  0  0  0  0  0
  1  2  1  0
  2  3  1  0
  3  4  1  0
  4  5  1  0
  5  6  1  0
  6  7  1  0
  7  8  1  0
  8  9  1  0
  9 10  1  0
 10 11  1  0
 11 12  1  0
 12 13  1  0
 13 14  1  0
 14 15  1  0
 15 16  1  0
 16 17  1  0
 17 18  1  0
 18 19  1  0
 19 20  1  0
 20 21  1  0
 21 22  1  0
 22 23  1  0
 23 24  1  0
 24 25  1  0
 25 26  1  0
 26 27  1  0
 27 28  1  0
 28 29  1  0
 29 30  1  0
 30 31  1  0
 31 32  1  0
 32 33  1  0
 33 34  1  0
 34 35  1  0
 35 36  1  0
 36 37  1  0
 37 38  1  0
 38 39  1  0
 39 40  1  0
 40 41  1  0
 41 42  1  0
 42 43  1  0
 43 44  1  0
 44 45  1  0
 45 46  1  0
 46 47  1  0
 47 48  1  0
 48 49  1  0
 49 50  1  0
 50 51  1  0
 51 52  1  0
 52 53  1  0
 53 54  1  0
 54 55  1  0
 55 56  1  0
 56 57  1  0
 57 58  1  0
 58 59  1  0
 59 60  1  0
 60 61  1  0
 61 62  1  0
 62 63  1  0
 63 64  1  0
 64 65  1  0
 65 66  1  0
 66 67  1  0
 67 68  1  0
 68 69  2  0
 69 70  1  0
 70 71  2  0
 71 72  1  0
 72 73  2  0
 73 74  1  0
 74 75  2  0
 75 76  1  0
 76 77  2  0
 77  2  1  0
 77 64  1  0
M  END
>  <Title>  (829) 
idABDYgen10

$$$$

     RDKit          2D

 12 12  0  0  0  0  0  0  0  0999 V2000
    6.5260   -6.4952    0.0000 C   0  0  0  0  0  0  0  0  0  0  0  0
    5.7760   -5.1962    0.0000 C   0  0  0  0  0  0  0  0  0  0  0  0
    5.0260   -3.8971    0.0000 C   0  0  0  0  0  0  0  0  0  0  0  0
    4.2760   -2.5981    0.0000 C   0  0  0  0  0  0  0  0  0  0  0  0
    3.5260   -1.2990    0.0000 C   0  0  0  0  0  0  0  0  0  0  0  0
    2.7760    0.0000    0.0000 C   0  0  0  0  0  0  0  0  0  0  0  0
    3.5260    1.2990    0.0000 O   0  0  0  0  0  0  0  0  0  0  0  0
    1.2760    0.0000    0.0000 C   0  0  0  0  0  0  0  0  0  0  0  0
    0.3943    1.2135    0.0000 C   0  0  0  0  0  0  0  0  0  0  0  0
   -1.0323    0.7500    0.0000 C   0  0  0  0  0  0  0  0  0  0  0  0
   -1.0323   -0.7500    0.0000 C   0  0  0  0  0  0  0  0  0  0  0  0
    0.3943   -1.2135    0.0000 C   0  0  0  0  0  0  0  0  0  0  0  0
  1  2  1  0
  2  3  3  0
  3  4  1  0
  4  5  3  0
  5  6  1  0
  6  7  2  0
  6  8  1  0
  8  9  2  0
  9 10  1  0
 10 11  2  0
 11 12  1  0
 12  8  1  0
M  END
>  <Title>  (830) 
idABDZgen10

$$$$

     RDKit          2D

 69 70  0  0  0  0  0  0  0  0999 V2000
   -2.2444   -1.0523    0.0000 C   0  0  0  0  0  0  0  0  0  0  0  0
   -2.4969    0.4263    0.0000 C   0  0  0  0  0  0  0  0  0  0  0  0
   -3.9860    0.2455    0.0000 C   0  0  0  0  0  0  0  0  0  0  0  0
   -5.4856    0.2093    0.0000 C   0  0  0  0  0  0  0  0  0  0  0  0
   -6.9816    0.3179    0.0000 C   0  0  0  0  0  0  0  0  0  0  0  0
   -8.4602    0.5705    0.0000 C   0  0  0  0  0  0  0  0  0  0  0  0
   -9.9075    0.9645    0.0000 C   0  0  0  0  0  0  0  0  0  0  0  0
  -11.3101    1.4964    0.0000 C   0  0  0  0  0  0  0  0  0  0  0  0
  -12.6547    2.1612    0.0000 C   0  0  0  0  0  0  0  0  0  0  0  0
  -13.9289    2.9527    0.0000 C   0  0  0  0  0  0  0  0  0  0  0  0
  -15.1208    3.8634    0.0000 C   0  0  0  0  0  0  0  0  0  0  0  0
  -16.2192    4.8849    0.0000 C   0  0  0  0  0  0  0  0  0  0  0  0
  -17.2139    6.0077    0.0000 C   0  0  0  0  0  0  0  0  0  0  0  0
  -18.0955    7.2212    0.0000 C   0  0  0  0  0  0  0  0  0  0  0  0
  -18.8560    8.5142    0.0000 C   0  0  0  0  0  0  0  0  0  0  0  0
  -19.4881    9.8745    0.0000 C   0  0  0  0  0  0  0  0  0  0  0  0
  -19.9859   11.2895    0.0000 C   0  0  0  0  0  0  0  0  0  0  0  0
  -20.3449   12.7459    0.0000 C   0  0  0  0  0  0  0  0  0  0  0  0
  -20.5616   14.2301    0.0000 C   0  0  0  0  0  0  0  0  0  0  0  0
  -20.6341   15.7284    0.0000 C   0  0  0  0  0  0  0  0  0  0  0  0
  -20.5616   17.2266    0.0000 C   0  0  0  0  0  0  0  0  0  0  0  0
  -20.3449   18.7109    0.0000 C   0  0  0  0  0  0  0  0  0  0  0  0
  -19.9859   20.1673    0.0000 C   0  0  0  0  0  0  0  0  0  0  0  0
  -19.4881   21.5823    0.0000 C   0  0  0  0  0  0  0  0  0  0  0  0
  -18.8560   22.9426    0.0000 C   0  0  0  0  0  0  0  0  0  0  0  0
  -18.0955   24.2355    0.0000 C   0  0  0  0  0  0  0  0  0  0  0  0
  -17.2139   25.4491    0.0000 C   0  0  0  0  0  0  0  0  0  0  0  0
  -16.2192   26.5718    0.0000 C   0  0  0  0  0  0  0  0  0  0  0  0
  -15.1208   27.5934    0.0000 C   0  0  0  0  0  0  0  0  0  0  0  0
  -13.9289   28.5041    0.0000 C   0  0  0  0  0  0  0  0  0  0  0  0
  -12.6547   29.2956    0.0000 C   0  0  0  0  0  0  0  0  0  0  0  0
  -11.3101   29.9604    0.0000 C   0  0  0  0  0  0  0  0  0  0  0  0
   -9.9075   30.4923    0.0000 C   0  0  0  0  0  0  0  0  0  0  0  0
   -8.4602   30.8863    0.0000 C   0  0  0  0  0  0  0  0  0  0  0  0
   -6.9816   31.1389    0.0000 C   0  0  0  0  0  0  0  0  0  0  0  0
   -5.4856   31.2475    0.0000 C   0  0  0  0  0  0  0  0  0  0  0  0
   -3.9860   31.2113    0.0000 C   0  0  0  0  0  0  0  0  0  0  0  0
   -2.4969   31.0305    0.0000 C   0  0  0  0  0  0  0  0  0  0  0  0
   -1.0323   30.7068    0.0000 C   0  0  0  0  0  0  0  0  0  0  0  0
    0.3943   30.2433    0.0000 C   0  0  0  0  0  0  0  0  0  0  0  0
    1.7695   29.6442    0.0000 C   0  0  0  0  0  0  0  0  0  0  0  0
    3.0804   28.9152    0.0000 C   0  0  0  0  0  0  0  0  0  0  0  0
    4.3149   28.0631    0.0000 C   0  0  0  0  0  0  0  0  0  0  0  0
    5.4614   27.0959    0.0000 C   0  0  0  0  0  0  0  0  0  0  0  0
    6.5092   26.0225    0.0000 C   0  0  0  0  0  0  0  0  0  0  0  0
    7.4484   24.8530    0.0000 C   0  0  0  0  0  0  0  0  0  0  0  0
    8.2705   23.5983    0.0000 C   0  0  0  0  0  0  0  0  0  0  0  0
    8.9675   22.2701    0.0000 C   0  0  0  0  0  0  0  0  0  0  0  0
    9.5332   20.8808    0.0000 C   0  0  0  0  0  0  0  0  0  0  0  0
    9.9621   19.4434    0.0000 C   0  0  0  0  0  0  0  0  0  0  0  0
   10.2503   17.9714    0.0000 C   0  0  0  0  0  0  0  0  0  0  0  0
   10.3951   16.4784    0.0000 C   0  0  0  0  0  0  0  0  0  0  0  0
   10.3951   14.9784    0.0000 C   0  0  0  0  0  0  0  0  0  0  0  0
   10.2503   13.4854    0.0000 C   0  0  0  0  0  0  0  0  0  0  0  0
    9.9621   12.0133    0.0000 C   0  0  0  0  0  0  0  0  0  0  0  0
    9.5332   10.5760    0.0000 C   0  0  0  0  0  0  0  0  0  0  0  0
    8.9675    9.1867    0.0000 C   0  0  0  0  0  0  0  0  0  0  0  0
    8.2705    7.8585    0.0000 C   0  0  0  0  0  0  0  0  0  0  0  0
    7.4484    6.6038    0.0000 C   0  0  0  0  0  0  0  0  0  0  0  0
    6.5092    5.4343    0.0000 C   0  0  0  0  0  0  0  0  0  0  0  0
    5.4614    4.3609    0.0000 C   0  0  0  0  0  0  0  0  0  0  0  0
    4.3149    3.3936    0.0000 C   0  0  0  0  0  0  0  0  0  0  0  0
    3.0804    2.5415    0.0000 C   0  0  0  0  0  0  0  0  0  0  0  0
    1.7695    1.8126    0.0000 C   0  0  0  0  0  0  0  0  0  0  0  0
    0.3943    1.2135    0.0000 C   0  0  0  0  0  0  0  0  0  0  0  0
    1.2760    0.0000    0.0000 C   0  0  0  0  0  0  0  0  0  0  0  0
    0.3943   -1.2135    0.0000 C   0  0  0  0  0  0  0  0  0  0  0  0
   -1.0323   -0.7500    0.0000 C   0  0  0  0  0  0  0  0  0  0  0  0
   -1.0323    0.7500    0.0000 C   0  0  0  0  0  0  0  0  0  0  0  0
  1  2  1  0
  2  3  1  0
  3  4  2  0
  4  5  1  0
  5  6  1  0
  6  7  2  0
  7  8  1  0
  8  9  2  0
  9 10  1  0
 10 11  2  0
 11 12  1  0
 12 13  2  0
 13 14  1  0
 14 15  2  0
 15 16  1  0
 16 17  2  0
 17 18  1  0
 18 19  2  0
 19 20  1  0
 20 21  2  0
 21 22  1  0
 22 23  2  0
 23 24  1  0
 24 25  2  0
 25 26  1  0
 26 27  2  0
 27 28  1  0
 28 29  2  0
 29 30  1  0
 30 31  2  0
 31 32  1  0
 32 33  2  0
 33 34  1  0
 34 35  2  0
 35 36  1  0
 36 37  2  0
 37 38  1  0
 38 39  2  0
 39 40  1  0
 40 41  2  0
 41 42  1  0
 42 43  2  0
 43 44  1  0
 44 45  2  0
 45 46  1  0
 46 47  2  0
 47 48  1  0
 48 49  2  0
 49 50  1  0
 50 51  2  0
 51 52  1  0
 52 53  2  0
 53 54  1  0
 54 55  2  0
 55 56  1  0
 56 57  2  0
 57 58  1  0
 58 59  2  0
 59 60  1  0
 60 61  2  0
 61 62  1  0
 62 63  2  0
 63 64  1  0
 64 65  2  0
 65 66  1  0
 66 67  2  0
 67 68  1  0
 68 69  2  0
 69  2  1  0
 69 65  1  0
M  END
>  <Title>  (831) 
idABEAgen10

$$$$

     RDKit          2D

  9  9  0  0  0  0  0  0  0  0999 V2000
    4.5000    0.0000    0.0000 C   0  0  0  0  0  0  0  0  0  0  0  0
    3.0000    0.0000    0.0000 C   0  0  0  0  0  0  0  0  0  0  0  0
    1.5000    0.0000    0.0000 C   0  0  0  0  0  0  0  0  0  0  0  0
    0.7500   -1.2990    0.0000 C   0  0  0  0  0  0  0  0  0  0  0  0
   -0.7500   -1.2990    0.0000 C   0  0  0  0  0  0  0  0  0  0  0  0
   -1.5000    0.0000    0.0000 C   0  0  0  0  0  0  0  0  0  0  0  0
   -0.7500    1.2990    0.0000 C   0  0  0  0  0  0  0  0  0  0  0  0
   -1.5000    2.5981    0.0000 C   0  0  0  0  0  0  0  0  0  0  0  0
    0.7500    1.2990    0.0000 C   0  0  0  0  0  0  0  0  0  0  0  0
  1  2  3  0
  2  3  1  0
  3  4  2  0
  4  5  1  0
  5  6  2  0
  6  7  1  0
  7  8  1  0
  7  9  2  0
  9  3  1  0
M  END
>  <Title>  (832) 
idABEBgen10

$$$$

     RDKit          2D

 11 11  0  0  0  0  0  0  0  0999 V2000
    6.0000   -2.5981    0.0000 C   0  0  0  0  0  0  0  0  0  0  0  0
    5.2500   -1.2990    0.0000 C   0  0  0  0  0  0  0  0  0  0  0  0
    3.7500   -1.2990    0.0000 C   0  0  0  0  0  0  0  0  0  0  0  0
    3.0000   -2.5981    0.0000 O   0  0  0  0  0  0  0  0  0  0  0  0
    3.0000    0.0000    0.0000 N   0  0  0  0  0  0  0  0  0  0  0  0
    1.5000    0.0000    0.0000 C   0  0  0  0  0  0  0  0  0  0  0  0
    0.7500   -1.2990    0.0000 N   0  0  0  0  0  0  0  0  0  0  0  0
   -0.7500   -1.2990    0.0000 N   0  0  0  0  0  0  0  0  0  0  0  0
   -1.5000    0.0000    0.0000 N   0  0  0  0  0  0  0  0  0  0  0  0
   -0.7500    1.2990    0.0000 N   0  0  0  0  0  0  0  0  0  0  0  0
    0.7500    1.2990    0.0000 N   0  0  0  0  0  0  0  0  0  0  0  0
  1  2  2  0
  2  3  1  0
  3  4  2  0
  3  5  1  0
  5  6  1  0
  6  7  2  0
  7  8  1  0
  8  9  2  0
  9 10  1  0
 10 11  2  0
 11  6  1  0
M  END
>  <Title>  (833) 
idABECgen10

$$$$

     RDKit          2D

 26 27  0  0  0  0  0  0  0  0999 V2000
   -2.7027   -0.7831    0.0000 C   0  0  0  0  0  0  0  0  0  0  0  0
   -2.5317    0.7072    0.0000 C   0  0  0  0  0  0  0  0  0  0  0  0
   -3.9824    1.0885    0.0000 C   0  0  0  0  0  0  0  0  0  0  0  0
   -5.2669    1.8631    0.0000 C   0  0  0  0  0  0  0  0  0  0  0  0
   -6.2812    2.9682    0.0000 C   0  0  0  0  0  0  0  0  0  0  0  0
   -6.9430    4.3143    0.0000 C   0  0  0  0  0  0  0  0  0  0  0  0
   -7.1988    5.7923    0.0000 C   0  0  0  0  0  0  0  0  0  0  0  0
   -7.0278    7.2826    0.0000 C   0  0  0  0  0  0  0  0  0  0  0  0
   -6.4439    8.6642    0.0000 C   0  0  0  0  0  0  0  0  0  0  0  0
   -5.4944    9.8255    0.0000 C   0  0  0  0  0  0  0  0  0  0  0  0
   -4.2562   10.6721    0.0000 C   0  0  0  0  0  0  0  0  0  0  0  0
   -2.8296   11.1356    0.0000 C   0  0  0  0  0  0  0  0  0  0  0  0
   -1.3302   11.1785    0.0000 C   0  0  0  0  0  0  0  0  0  0  0  0
    0.1205   10.7971    0.0000 C   0  0  0  0  0  0  0  0  0  0  0  0
    1.4050   10.0226    0.0000 C   0  0  0  0  0  0  0  0  0  0  0  0
    2.4193    8.9174    0.0000 C   0  0  0  0  0  0  0  0  0  0  0  0
    3.0811    7.5713    0.0000 C   0  0  0  0  0  0  0  0  0  0  0  0
    3.3369    6.0933    0.0000 C   0  0  0  0  0  0  0  0  0  0  0  0
    3.1659    4.6031    0.0000 C   0  0  0  0  0  0  0  0  0  0  0  0
    2.5820    3.2214    0.0000 C   0  0  0  0  0  0  0  0  0  0  0  0
    1.6325    2.0602    0.0000 C   0  0  0  0  0  0  0  0  0  0  0  0
    0.3943    1.2135    0.0000 C   0  0  0  0  0  0  0  0  0  0  0  0
    1.2760    0.0000    0.0000 C   0  0  0  0  0  0  0  0  0  0  0  0
    0.3943   -1.2135    0.0000 C   0  0  0  0  0  0  0  0  0  0  0  0
   -1.0323   -0.7500    0.0000 C   0  0  0  0  0  0  0  0  0  0  0  0
   -1.0323    0.7500    0.0000 C   0  0  0  0  0  0  0  0  0  0  0  0
  1  2  1  0
  2  3  1  0
  3  4  2  0
  4  5  1  0
  5  6  2  0
  6  7  1  0
  7  8  2  0
  8  9  1  0
  9 10  2  0
 10 11  1  0
 11 12  2  0
 12 13  1  0
 13 14  2  0
 14 15  1  0
 15 16  2  0
 16 17  1  0
 17 18  2  0
 18 19  1  0
 19 20  2  0
 20 21  1  0
 21 22  2  0
 22 23  1  0
 23 24  2  0
 24 25  1  0
 25 26  2  0
 26  2  1  0
 26 22  1  0
M  END
>  <Title>  (834) 
idABEDgen10

$$$$

     RDKit          2D

  8  8  0  0  0  0  0  0  0  0999 V2000
    3.2286   -0.0000    0.0000 C   0  0  0  0  0  0  0  0  0  0  0  0
    1.7286    0.0000    0.0000 C   0  0  0  0  0  0  0  0  0  0  0  0
    1.0777    1.3515    0.0000 C   0  0  0  0  0  0  0  0  0  0  0  0
   -0.3846    1.6852    0.0000 C   0  0  0  0  0  0  0  0  0  0  0  0
   -1.5574    0.7500    0.0000 C   0  0  0  0  0  0  0  0  0  0  0  0
   -1.5574   -0.7500    0.0000 C   0  0  0  0  0  0  0  0  0  0  0  0
   -0.3846   -1.6852    0.0000 C   0  0  0  0  0  0  0  0  0  0  0  0
    1.0777   -1.3515    0.0000 C   0  0  0  0  0  0  0  0  0  0  0  0
  1  2  1  0
  2  3  1  0
  3  4  2  0
  4  5  1  0
  5  6  2  0
  6  7  1  0
  7  8  2  0
  8  2  1  0
M  END
>  <Title>  (835) 
idABEEgen10

$$$$

     RDKit          2D

  7  7  0  0  0  0  0  0  0  0999 V2000
    2.7760    0.0000    0.0000 C   0  0  0  0  0  0  0  0  0  0  0  0
    1.2760    0.0000    0.0000 C   0  0  0  0  0  0  0  0  0  0  0  0
    0.3943    1.2135    0.0000 C   0  0  0  0  0  0  0  0  0  0  0  0
   -1.0323    0.7500    0.0000 C   0  0  0  0  0  0  0  0  0  0  0  0
   -1.0323   -0.7500    0.0000 C   0  0  0  0  0  0  0  0  0  0  0  0
   -2.2458   -1.6317    0.0000 C   0  0  0  0  0  0  0  0  0  0  0  0
    0.3943   -1.2135    0.0000 N   0  0  0  0  0  0  0  0  0  0  0  0
  1  2  1  0
  2  3  2  0
  3  4  1  0
  4  5  2  0
  5  6  1  0
  5  7  1  0
  7  2  1  0
M  END
>  <Title>  (836) 
idABEFgen10

$$$$

     RDKit          2D

 76 78  0  0  0  0  0  0  0  0999 V2000
   -5.6417   -0.7157    0.0000 C   0  0  0  0  0  0  0  0  0  0  0  0
   -5.1581   -2.1357    0.0000 C   0  0  0  0  0  0  0  0  0  0  0  0
   -6.5538   -2.6852    0.0000 C   0  0  0  0  0  0  0  0  0  0  0  0
   -7.8919   -3.3631    0.0000 C   0  0  0  0  0  0  0  0  0  0  0  0
   -9.1607   -4.1632    0.0000 C   0  0  0  0  0  0  0  0  0  0  0  0
  -10.3489   -5.0787    0.0000 C   0  0  0  0  0  0  0  0  0  0  0  0
  -11.4462   -6.1014    0.0000 C   0  0  0  0  0  0  0  0  0  0  0  0
  -12.4429   -7.2224    0.0000 C   0  0  0  0  0  0  0  0  0  0  0  0
  -13.3303   -8.4318    0.0000 C   0  0  0  0  0  0  0  0  0  0  0  0
  -14.1005   -9.7189    0.0000 C   0  0  0  0  0  0  0  0  0  0  0  0
  -14.7468  -11.0726    0.0000 C   0  0  0  0  0  0  0  0  0  0  0  0
  -15.2635  -12.4808    0.0000 C   0  0  0  0  0  0  0  0  0  0  0  0
  -15.6461  -13.9311    0.0000 C   0  0  0  0  0  0  0  0  0  0  0  0
  -15.8911  -15.4110    0.0000 C   0  0  0  0  0  0  0  0  0  0  0  0
  -15.9965  -16.9073    0.0000 C   0  0  0  0  0  0  0  0  0  0  0  0
  -15.9614  -18.4069    0.0000 C   0  0  0  0  0  0  0  0  0  0  0  0
  -15.7859  -19.8966    0.0000 C   0  0  0  0  0  0  0  0  0  0  0  0
  -15.4718  -21.3633    0.0000 C   0  0  0  0  0  0  0  0  0  0  0  0
  -15.0217  -22.7942    0.0000 C   0  0  0  0  0  0  0  0  0  0  0  0
  -14.4395  -24.1766    0.0000 C   0  0  0  0  0  0  0  0  0  0  0  0
  -13.7305  -25.4985    0.0000 C   0  0  0  0  0  0  0  0  0  0  0  0
  -12.9008  -26.7481    0.0000 C   0  0  0  0  0  0  0  0  0  0  0  0
  -11.9577  -27.9146    0.0000 C   0  0  0  0  0  0  0  0  0  0  0  0
  -10.9096  -28.9876    0.0000 C   0  0  0  0  0  0  0  0  0  0  0  0
   -9.7655  -29.9577    0.0000 C   0  0  0  0  0  0  0  0  0  0  0  0
   -8.5357  -30.8165    0.0000 C   0  0  0  0  0  0  0  0  0  0  0  0
   -7.2308  -31.5563    0.0000 C   0  0  0  0  0  0  0  0  0  0  0  0
   -5.8624  -32.1707    0.0000 C   0  0  0  0  0  0  0  0  0  0  0  0
   -4.4425  -32.6542    0.0000 C   0  0  0  0  0  0  0  0  0  0  0  0
   -2.9835  -33.0027    0.0000 C   0  0  0  0  0  0  0  0  0  0  0  0
   -1.4984  -33.2130    0.0000 C   0  0  0  0  0  0  0  0  0  0  0  0
   -0.0000  -33.2833    0.0000 C   0  0  0  0  0  0  0  0  0  0  0  0
    1.4984  -33.2130    0.0000 C   0  0  0  0  0  0  0  0  0  0  0  0
    2.9835  -33.0027    0.0000 C   0  0  0  0  0  0  0  0  0  0  0  0
    4.4425  -32.6542    0.0000 C   0  0  0  0  0  0  0  0  0  0  0  0
    5.8624  -32.1707    0.0000 C   0  0  0  0  0  0  0  0  0  0  0  0
    7.2308  -31.5563    0.0000 C   0  0  0  0  0  0  0  0  0  0  0  0
    8.5357  -30.8165    0.0000 C   0  0  0  0  0  0  0  0  0  0  0  0
    9.7655  -29.9577    0.0000 C   0  0  0  0  0  0  0  0  0  0  0  0
   10.9096  -28.9876    0.0000 C   0  0  0  0  0  0  0  0  0  0  0  0
   11.9577  -27.9146    0.0000 C   0  0  0  0  0  0  0  0  0  0  0  0
   12.9008  -26.7481    0.0000 C   0  0  0  0  0  0  0  0  0  0  0  0
   13.7305  -25.4985    0.0000 C   0  0  0  0  0  0  0  0  0  0  0  0
   14.4395  -24.1766    0.0000 C   0  0  0  0  0  0  0  0  0  0  0  0
   15.0217  -22.7942    0.0000 C   0  0  0  0  0  0  0  0  0  0  0  0
   15.4718  -21.3633    0.0000 C   0  0  0  0  0  0  0  0  0  0  0  0
   15.7859  -19.8966    0.0000 C   0  0  0  0  0  0  0  0  0  0  0  0
   15.9614  -18.4069    0.0000 C   0  0  0  0  0  0  0  0  0  0  0  0
   15.9965  -16.9073    0.0000 C   0  0  0  0  0  0  0  0  0  0  0  0
   15.8911  -15.4110    0.0000 C   0  0  0  0  0  0  0  0  0  0  0  0
   15.6461  -13.9311    0.0000 C   0  0  0  0  0  0  0  0  0  0  0  0
   15.2635  -12.4808    0.0000 C   0  0  0  0  0  0  0  0  0  0  0  0
   14.7468  -11.0726    0.0000 C   0  0  0  0  0  0  0  0  0  0  0  0
   14.1005   -9.7189    0.0000 C   0  0  0  0  0  0  0  0  0  0  0  0
   13.3303   -8.4318    0.0000 C   0  0  0  0  0  0  0  0  0  0  0  0
   12.4429   -7.2224    0.0000 C   0  0  0  0  0  0  0  0  0  0  0  0
   11.4462   -6.1014    0.0000 C   0  0  0  0  0  0  0  0  0  0  0  0
   10.3489   -5.0787    0.0000 C   0  0  0  0  0  0  0  0  0  0  0  0
    9.1607   -4.1632    0.0000 C   0  0  0  0  0  0  0  0  0  0  0  0
    7.8919   -3.3631    0.0000 C   0  0  0  0  0  0  0  0  0  0  0  0
    6.5538   -2.6852    0.0000 C   0  0  0  0  0  0  0  0  0  0  0  0
    5.1581   -2.1357    0.0000 C   0  0  0  0  0  0  0  0  0  0  0  0
    3.7171   -1.7192    0.0000 C   0  0  0  0  0  0  0  0  0  0  0  0
    2.2434   -1.4395    0.0000 C   0  0  0  0  0  0  0  0  0  0  0  0
    0.7500   -1.2990    0.0000 C   0  0  0  0  0  0  0  0  0  0  0  0
    1.5000    0.0000    0.0000 C   0  0  0  0  0  0  0  0  0  0  0  0
    0.7500    1.2990    0.0000 C   0  0  0  0  0  0  0  0  0  0  0  0
   -0.7500    1.2990    0.0000 C   0  0  0  0  0  0  0  0  0  0  0  0
   -1.5000    0.0000    0.0000 C   0  0  0  0  0  0  0  0  0  0  0  0
   -0.7500   -1.2990    0.0000 C   0  0  0  0  0  0  0  0  0  0  0  0
   -2.2434   -1.4395    0.0000 C   0  0  0  0  0  0  0  0  0  0  0  0
   -1.2643   -2.5759    0.0000 C   0  0  0  0  0  0  0  0  0  0  0  0
   -1.7590   -3.9920    0.0000 C   0  0  0  0  0  0  0  0  0  0  0  0
   -3.2327   -4.2717    0.0000 C   0  0  0  0  0  0  0  0  0  0  0  0
   -4.2117   -3.1353    0.0000 C   0  0  0  0  0  0  0  0  0  0  0  0
   -3.7171   -1.7192    0.0000 C   0  0  0  0  0  0  0  0  0  0  0  0
  1  2  1  0
  2  3  1  0
  3  4  1  0
  4  5  1  0
  5  6  1  0
  6  7  1  0
  7  8  1  0
  8  9  1  0
  9 10  1  0
 10 11  1  0
 11 12  1  0
 12 13  1  0
 13 14  1  0
 14 15  1  0
 15 16  1  0
 16 17  1  0
 17 18  1  0
 18 19  1  0
 19 20  1  0
 20 21  1  0
 21 22  1  0
 22 23  1  0
 23 24  1  0
 24 25  1  0
 25 26  1  0
 26 27  1  0
 27 28  1  0
 28 29  1  0
 29 30  1  0
 30 31  1  0
 31 32  1  0
 32 33  2  0
 33 34  1  0
 34 35  2  0
 35 36  1  0
 36 37  2  0
 37 38  1  0
 38 39  2  0
 39 40  1  0
 40 41  2  0
 41 42  1  0
 42 43  2  0
 43 44  1  0
 44 45  2  0
 45 46  1  0
 46 47  2  0
 47 48  1  0
 48 49  2  0
 49 50  1  0
 50 51  2  0
 51 52  1  0
 52 53  2  0
 53 54  1  0
 54 55  2  0
 55 56  1  0
 56 57  2  0
 57 58  1  0
 58 59  2  0
 59 60  1  0
 60 61  2  0
 61 62  1  0
 62 63  2  0
 63 64  1  0
 64 65  2  0
 65 66  1  0
 66 67  1  0
 67 68  1  0
 68 69  1  0
 69 70  1  0
 70 71  1  0
 71 72  2  0
 72 73  1  0
 73 74  2  0
 74 75  1  0
 75 76  2  0
 76  2  1  0
 70 65  1  0
 76 71  1  0
M  END
>  <Title>  (837) 
idABEGgen10

$$$$

     RDKit          2D

  9  9  0  0  0  0  0  0  0  0999 V2000
    2.7760    0.0000    0.0000 C   0  0  0  0  0  0  0  0  0  0  0  0
    1.2760    0.0000    0.0000 C   0  0  0  0  0  0  0  0  0  0  0  0
    0.3943    1.2135    0.0000 C   0  0  0  0  0  0  0  0  0  0  0  0
    0.8578    2.6401    0.0000 C   0  0  0  0  0  0  0  0  0  0  0  0
    1.3213    4.0667    0.0000 N   0  0  0  0  0  0  0  0  0  0  0  0
   -1.0323    0.7500    0.0000 C   0  0  0  0  0  0  0  0  0  0  0  0
   -1.0323   -0.7500    0.0000 C   0  0  0  0  0  0  0  0  0  0  0  0
   -2.2458   -1.6317    0.0000 O   0  0  0  0  0  0  0  0  0  0  0  0
    0.3943   -1.2135    0.0000 N   0  0  0  0  0  0  0  0  0  0  0  0
  1  2  1  0
  2  3  2  0
  3  4  1  0
  4  5  3  0
  3  6  1  0
  6  7  2  0
  7  8  1  0
  7  9  1  0
  9  2  1  0
M  END
>  <Title>  (838) 
idABEHgen10

$$$$

     RDKit          2D

  5  4  0  0  0  0  0  0  0  0999 V2000
    0.0000    0.0000    0.0000 C   0  0  0  0  0  0  0  0  0  0  0  0
   -0.0000   -1.5000    0.0000 C   0  0  0  0  0  0  0  0  0  0  0  0
   -0.0000   -3.0000    0.0000 C   0  0  0  0  0  0  0  0  0  0  0  0
    1.2990   -3.7500    0.0000 C   0  0  0  0  0  0  0  0  0  0  0  0
   -1.2990   -3.7500    0.0000 C   0  0  0  0  0  0  0  0  0  0  0  0
  1  2  3  0
  2  3  1  0
  3  4  1  0
  3  5  1  0
M  END
>  <Title>  (839) 
idABEIgen10

$$$$

     RDKit          2D

 26 29  0  0  0  0  0  0  0  0999 V2000
    3.1443   -9.0806    0.0000 C   0  0  0  0  0  0  0  0  0  0  0  0
    2.6807   -7.6540    0.0000 C   0  0  0  0  0  0  0  0  0  0  0  0
    3.6844   -6.5393    0.0000 O   0  0  0  0  0  0  0  0  0  0  0  0
    1.2135   -7.3421    0.0000 N   0  0  0  0  0  0  0  0  0  0  0  0
    0.7500   -5.9156    0.0000 C   0  0  0  0  0  0  0  0  0  0  0  0
    1.9635   -5.0339    0.0000 N   0  0  0  0  0  0  0  0  0  0  0  0
    2.4271   -3.6073    0.0000 N   0  0  0  0  0  0  0  0  0  0  0  0
    1.9635   -2.1807    0.0000 N   0  0  0  0  0  0  0  0  0  0  0  0
    0.7500   -1.2990    0.0000 N   0  0  0  0  0  0  0  0  0  0  0  0
    1.5000    0.0000    0.0000 C   0  0  0  0  0  0  0  0  0  0  0  0
    0.7500    1.2990    0.0000 C   0  0  0  0  0  0  0  0  0  0  0  0
   -0.7500    1.2990    0.0000 C   0  0  0  0  0  0  0  0  0  0  0  0
   -1.5000    0.0000    0.0000 C   0  0  0  0  0  0  0  0  0  0  0  0
   -0.7500   -1.2990    0.0000 C   0  0  0  0  0  0  0  0  0  0  0  0
   -1.9635   -2.1807    0.0000 C   0  0  0  0  0  0  0  0  0  0  0  0
   -2.9672   -1.0660    0.0000 C   0  0  0  0  0  0  0  0  0  0  0  0
   -4.4344   -1.3779    0.0000 C   0  0  0  0  0  0  0  0  0  0  0  0
   -4.8980   -2.8045    0.0000 C   0  0  0  0  0  0  0  0  0  0  0  0
   -3.8943   -3.9192    0.0000 C   0  0  0  0  0  0  0  0  0  0  0  0
   -2.4271   -3.6073    0.0000 C   0  0  0  0  0  0  0  0  0  0  0  0
   -1.9635   -5.0339    0.0000 C   0  0  0  0  0  0  0  0  0  0  0  0
   -3.3338   -5.6440    0.0000 C   0  0  0  0  0  0  0  0  0  0  0  0
   -3.4906   -7.1358    0.0000 C   0  0  0  0  0  0  0  0  0  0  0  0
   -2.2771   -8.0175    0.0000 C   0  0  0  0  0  0  0  0  0  0  0  0
   -0.9068   -7.4073    0.0000 C   0  0  0  0  0  0  0  0  0  0  0  0
   -0.7500   -5.9156    0.0000 C   0  0  0  0  0  0  0  0  0  0  0  0
  1  2  1  0
  2  3  2  0
  2  4  1  0
  4  5  1  0
  5  6  2  0
  6  7  1  0
  7  8  2  0
  8  9  1  0
  9 10  1  0
 10 11  1  0
 11 12  2  0
 12 13  1  0
 13 14  2  0
 14 15  1  0
 15 16  2  0
 16 17  1  0
 17 18  2  0
 18 19  1  0
 19 20  2  0
 20 21  1  0
 21 22  2  0
 22 23  1  0
 23 24  2  0
 24 25  1  0
 25 26  2  0
 26  5  1  0
 14  9  1  0
 20 15  1  0
 26 21  1  0
M  END
>  <Title>  (840) 
idABEJgen10

$$$$

     RDKit          2D

  9  9  0  0  0  0  0  0  0  0999 V2000
    6.5260   -1.2990    0.0000 C   0  0  0  0  0  0  0  0  0  0  0  0
    5.7760   -0.0000    0.0000 C   0  0  0  0  0  0  0  0  0  0  0  0
    4.2760   -0.0000    0.0000 C   0  0  0  0  0  0  0  0  0  0  0  0
    2.7760    0.0000    0.0000 C   0  0  0  0  0  0  0  0  0  0  0  0
    1.2760    0.0000    0.0000 C   0  0  0  0  0  0  0  0  0  0  0  0
    0.3943    1.2135    0.0000 C   0  0  0  0  0  0  0  0  0  0  0  0
   -1.0323    0.7500    0.0000 C   0  0  0  0  0  0  0  0  0  0  0  0
   -1.0323   -0.7500    0.0000 C   0  0  0  0  0  0  0  0  0  0  0  0
    0.3943   -1.2135    0.0000 C   0  0  0  0  0  0  0  0  0  0  0  0
  1  2  2  0
  2  3  1  0
  3  4  3  0
  4  5  1  0
  5  6  2  0
  6  7  1  0
  7  8  2  0
  8  9  1  0
  9  5  1  0
M  END
>  <Title>  (841) 
idABEKgen10

$$$$

     RDKit          2D

 93 93  0  0  0  0  0  0  0  0999 V2000
   23.4677   -0.0000    0.0000 C   0  0  0  0  0  0  0  0  0  0  0  0
   21.9677    0.0000    0.0000 C   0  0  0  0  0  0  0  0  0  0  0  0
   21.9164   -1.4991    0.0000 C   0  0  0  0  0  0  0  0  0  0  0  0
   21.7630   -2.9913    0.0000 C   0  0  0  0  0  0  0  0  0  0  0  0
   21.5082   -4.4695    0.0000 C   0  0  0  0  0  0  0  0  0  0  0  0
   21.1530   -5.9268    0.0000 C   0  0  0  0  0  0  0  0  0  0  0  0
   20.6993   -7.3565    0.0000 C   0  0  0  0  0  0  0  0  0  0  0  0
   20.1490   -8.7519    0.0000 C   0  0  0  0  0  0  0  0  0  0  0  0
   19.5048  -10.1065    0.0000 C   0  0  0  0  0  0  0  0  0  0  0  0
   18.7696  -11.4140    0.0000 C   0  0  0  0  0  0  0  0  0  0  0  0
   17.9469  -12.6683    0.0000 C   0  0  0  0  0  0  0  0  0  0  0  0
   17.0406  -13.8635    0.0000 C   0  0  0  0  0  0  0  0  0  0  0  0
   16.0547  -14.9941    0.0000 C   0  0  0  0  0  0  0  0  0  0  0  0
   14.9941  -16.0547    0.0000 C   0  0  0  0  0  0  0  0  0  0  0  0
   13.8635  -17.0406    0.0000 C   0  0  0  0  0  0  0  0  0  0  0  0
   12.6683  -17.9469    0.0000 C   0  0  0  0  0  0  0  0  0  0  0  0
   11.4140  -18.7696    0.0000 C   0  0  0  0  0  0  0  0  0  0  0  0
   10.1065  -19.5048    0.0000 C   0  0  0  0  0  0  0  0  0  0  0  0
    8.7519  -20.1490    0.0000 C   0  0  0  0  0  0  0  0  0  0  0  0
    7.3565  -20.6993    0.0000 C   0  0  0  0  0  0  0  0  0  0  0  0
    5.9268  -21.1530    0.0000 C   0  0  0  0  0  0  0  0  0  0  0  0
    4.4695  -21.5082    0.0000 C   0  0  0  0  0  0  0  0  0  0  0  0
    2.9913  -21.7630    0.0000 C   0  0  0  0  0  0  0  0  0  0  0  0
    1.4991  -21.9164    0.0000 C   0  0  0  0  0  0  0  0  0  0  0  0
   -0.0000  -21.9677    0.0000 C   0  0  0  0  0  0  0  0  0  0  0  0
   -1.4991  -21.9164    0.0000 C   0  0  0  0  0  0  0  0  0  0  0  0
   -2.9913  -21.7630    0.0000 C   0  0  0  0  0  0  0  0  0  0  0  0
   -4.4695  -21.5082    0.0000 C   0  0  0  0  0  0  0  0  0  0  0  0
   -5.9268  -21.1530    0.0000 C   0  0  0  0  0  0  0  0  0  0  0  0
   -7.3565  -20.6993    0.0000 C   0  0  0  0  0  0  0  0  0  0  0  0
   -8.7519  -20.1490    0.0000 C   0  0  0  0  0  0  0  0  0  0  0  0
  -10.1065  -19.5048    0.0000 C   0  0  0  0  0  0  0  0  0  0  0  0
  -11.4140  -18.7696    0.0000 C   0  0  0  0  0  0  0  0  0  0  0  0
  -12.6683  -17.9469    0.0000 C   0  0  0  0  0  0  0  0  0  0  0  0
  -13.8635  -17.0406    0.0000 C   0  0  0  0  0  0  0  0  0  0  0  0
  -14.9941  -16.0547    0.0000 C   0  0  0  0  0  0  0  0  0  0  0  0
  -16.0547  -14.9941    0.0000 C   0  0  0  0  0  0  0  0  0  0  0  0
  -17.0406  -13.8635    0.0000 C   0  0  0  0  0  0  0  0  0  0  0  0
  -17.9469  -12.6683    0.0000 C   0  0  0  0  0  0  0  0  0  0  0  0
  -18.7696  -11.4140    0.0000 C   0  0  0  0  0  0  0  0  0  0  0  0
  -19.5048  -10.1065    0.0000 C   0  0  0  0  0  0  0  0  0  0  0  0
  -20.1490   -8.7519    0.0000 C   0  0  0  0  0  0  0  0  0  0  0  0
  -20.6993   -7.3565    0.0000 C   0  0  0  0  0  0  0  0  0  0  0  0
  -21.1530   -5.9268    0.0000 C   0  0  0  0  0  0  0  0  0  0  0  0
  -21.5082   -4.4695    0.0000 C   0  0  0  0  0  0  0  0  0  0  0  0
  -21.7630   -2.9913    0.0000 C   0  0  0  0  0  0  0  0  0  0  0  0
  -21.9164   -1.4991    0.0000 C   0  0  0  0  0  0  0  0  0  0  0  0
  -21.9677    0.0000    0.0000 C   0  0  0  0  0  0  0  0  0  0  0  0
  -21.9164    1.4991    0.0000 C   0  0  0  0  0  0  0  0  0  0  0  0
  -21.7630    2.9913    0.0000 C   0  0  0  0  0  0  0  0  0  0  0  0
  -21.5082    4.4695    0.0000 C   0  0  0  0  0  0  0  0  0  0  0  0
  -21.1530    5.9268    0.0000 C   0  0  0  0  0  0  0  0  0  0  0  0
  -20.6993    7.3565    0.0000 C   0  0  0  0  0  0  0  0  0  0  0  0
  -20.1490    8.7519    0.0000 C   0  0  0  0  0  0  0  0  0  0  0  0
  -19.5048   10.1065    0.0000 C   0  0  0  0  0  0  0  0  0  0  0  0
  -18.7696   11.4140    0.0000 C   0  0  0  0  0  0  0  0  0  0  0  0
  -17.9469   12.6683    0.0000 C   0  0  0  0  0  0  0  0  0  0  0  0
  -17.0406   13.8635    0.0000 C   0  0  0  0  0  0  0  0  0  0  0  0
  -16.0547   14.9941    0.0000 C   0  0  0  0  0  0  0  0  0  0  0  0
  -14.9941   16.0547    0.0000 C   0  0  0  0  0  0  0  0  0  0  0  0
  -13.8635   17.0406    0.0000 C   0  0  0  0  0  0  0  0  0  0  0  0
  -12.6683   17.9469    0.0000 C   0  0  0  0  0  0  0  0  0  0  0  0
  -11.4140   18.7696    0.0000 C   0  0  0  0  0  0  0  0  0  0  0  0
  -10.1065   19.5048    0.0000 C   0  0  0  0  0  0  0  0  0  0  0  0
   -8.7519   20.1490    0.0000 C   0  0  0  0  0  0  0  0  0  0  0  0
   -7.3565   20.6993    0.0000 C   0  0  0  0  0  0  0  0  0  0  0  0
   -5.9268   21.1530    0.0000 C   0  0  0  0  0  0  0  0  0  0  0  0
   -4.4695   21.5082    0.0000 C   0  0  0  0  0  0  0  0  0  0  0  0
   -2.9913   21.7630    0.0000 C   0  0  0  0  0  0  0  0  0  0  0  0
   -1.4991   21.9164    0.0000 C   0  0  0  0  0  0  0  0  0  0  0  0
    0.0000   21.9677    0.0000 C   0  0  0  0  0  0  0  0  0  0  0  0
    1.4991   21.9164    0.0000 C   0  0  0  0  0  0  0  0  0  0  0  0
    2.9913   21.7630    0.0000 C   0  0  0  0  0  0  0  0  0  0  0  0
    4.4695   21.5082    0.0000 C   0  0  0  0  0  0  0  0  0  0  0  0
    5.9268   21.1530    0.0000 C   0  0  0  0  0  0  0  0  0  0  0  0
    7.3565   20.6993    0.0000 C   0  0  0  0  0  0  0  0  0  0  0  0
    8.7519   20.1490    0.0000 C   0  0  0  0  0  0  0  0  0  0  0  0
   10.1065   19.5048    0.0000 C   0  0  0  0  0  0  0  0  0  0  0  0
   11.4140   18.7696    0.0000 C   0  0  0  0  0  0  0  0  0  0  0  0
   12.6683   17.9469    0.0000 C   0  0  0  0  0  0  0  0  0  0  0  0
   13.8635   17.0406    0.0000 C   0  0  0  0  0  0  0  0  0  0  0  0
   14.9941   16.0547    0.0000 C   0  0  0  0  0  0  0  0  0  0  0  0
   16.0547   14.9941    0.0000 C   0  0  0  0  0  0  0  0  0  0  0  0
   17.0406   13.8635    0.0000 C   0  0  0  0  0  0  0  0  0  0  0  0
   17.9469   12.6683    0.0000 C   0  0  0  0  0  0  0  0  0  0  0  0
   18.7696   11.4140    0.0000 C   0  0  0  0  0  0  0  0  0  0  0  0
   19.5048   10.1065    0.0000 C   0  0  0  0  0  0  0  0  0  0  0  0
   20.1490    8.7519    0.0000 C   0  0  0  0  0  0  0  0  0  0  0  0
   20.6993    7.3565    0.0000 C   0  0  0  0  0  0  0  0  0  0  0  0
   21.1530    5.9268    0.0000 C   0  0  0  0  0  0  0  0  0  0  0  0
   21.5082    4.4695    0.0000 C   0  0  0  0  0  0  0  0  0  0  0  0
   21.7630    2.9913    0.0000 C   0  0  0  0  0  0  0  0  0  0  0  0
   21.9164    1.4991    0.0000 C   0  0  0  0  0  0  0  0  0  0  0  0
  1  2  1  0
  2  3  1  0
  3  4  2  0
  4  5  1  0
  5  6  1  0
  6  7  1  0
  7  8  1  0
  8  9  1  0
  9 10  1  0
 10 11  1  0
 11 12  1  0
 12 13  1  0
 13 14  1  0
 14 15  1  0
 15 16  1  0
 16 17  1  0
 17 18  1  0
 18 19  1  0
 19 20  1  0
 20 21  1  0
 21 22  1  0
 22 23  1  0
 23 24  1  0
 24 25  1  0
 25 26  1  0
 26 27  1  0
 27 28  1  0
 28 29  1  0
 29 30  1  0
 30 31  1  0
 31 32  1  0
 32 33  1  0
 33 34  1  0
 34 35  1  0
 35 36  1  0
 36 37  1  0
 37 38  1  0
 38 39  1  0
 39 40  1  0
 40 41  1  0
 41 42  1  0
 42 43  1  0
 43 44  1  0
 44 45  1  0
 45 46  1  0
 46 47  1  0
 47 48  1  0
 48 49  1  0
 49 50  1  0
 50 51  1  0
 51 52  1  0
 52 53  1  0
 53 54  1  0
 54 55  1  0
 55 56  1  0
 56 57  1  0
 57 58  1  0
 58 59  1  0
 59 60  1  0
 60 61  1  0
 61 62  1  0
 62 63  1  0
 63 64  1  0
 64 65  1  0
 65 66  1  0
 66 67  1  0
 67 68  1  0
 68 69  1  0
 69 70  1  0
 70 71  1  0
 71 72  1  0
 72 73  1  0
 73 74  1  0
 74 75  1  0
 75 76  1  0
 76 77  1  0
 77 78  1  0
 78 79  1  0
 79 80  1  0
 80 81  1  0
 81 82  1  0
 82 83  1  0
 83 84  1  0
 84 85  1  0
 85 86  1  0
 86 87  1  0
 87 88  1  0
 88 89  1  0
 89 90  1  0
 90 91  1  0
 91 92  1  0
 92 93  1  0
 93  2  1  0
M  END
>  <Title>  (842) 
idABELgen10

$$$$

     RDKit          2D

 11 12  0  0  0  0  0  0  0  0999 V2000
   -3.0000   -2.5981    0.0000 C   0  0  0  0  0  0  0  0  0  0  0  0
   -1.5000   -2.5981    0.0000 C   0  0  0  0  0  0  0  0  0  0  0  0
   -0.7500   -3.8971    0.0000 C   0  0  0  0  0  0  0  0  0  0  0  0
    0.7500   -3.8971    0.0000 C   0  0  0  0  0  0  0  0  0  0  0  0
    1.5000   -2.5981    0.0000 C   0  0  0  0  0  0  0  0  0  0  0  0
    0.7500   -1.2990    0.0000 C   0  0  0  0  0  0  0  0  0  0  0  0
    1.5000    0.0000    0.0000 C   0  0  0  0  0  0  0  0  0  0  0  0
    0.7500    1.2990    0.0000 C   0  0  0  0  0  0  0  0  0  0  0  0
   -0.7500    1.2990    0.0000 C   0  0  0  0  0  0  0  0  0  0  0  0
   -1.5000    0.0000    0.0000 N   0  0  0  0  0  0  0  0  0  0  0  0
   -0.7500   -1.2990    0.0000 C   0  0  0  0  0  0  0  0  0  0  0  0
  1  2  1  0
  2  3  1  0
  3  4  2  0
  4  5  1  0
  5  6  1  0
  6  7  2  0
  7  8  1  0
  8  9  2  0
  9 10  1  0
 10 11  2  0
 11  2  1  0
 11  6  1  0
M  END
>  <Title>  (843) 
idABEMgen10

$$$$

     RDKit          2D

 38 40  0  0  0  0  0  0  0  0999 V2000
    4.0906    6.6802    0.0000 C   0  0  0  0  0  0  0  0  0  0  0  0
    4.9723    5.4667    0.0000 C   0  0  0  0  0  0  0  0  0  0  0  0
    6.4641    5.6235    0.0000 N   0  0  0  0  0  0  0  0  0  0  0  0
    7.3457    4.4099    0.0000 N   0  0  0  0  0  0  0  0  0  0  0  0
    6.7356    3.0396    0.0000 N   0  0  0  0  0  0  0  0  0  0  0  0
    5.2439    2.8828    0.0000 N   0  0  0  0  0  0  0  0  0  0  0  0
    5.7960    1.4882    0.0000 C   0  0  0  0  0  0  0  0  0  0  0  0
    7.2489    1.8612    0.0000 C   0  0  0  0  0  0  0  0  0  0  0  0
    7.6523    3.3060    0.0000 O   0  0  0  0  0  0  0  0  0  0  0  0
    8.2984    0.7895    0.0000 N   0  0  0  0  0  0  0  0  0  0  0  0
    7.8950   -0.6552    0.0000 C   0  0  0  0  0  0  0  0  0  0  0  0
    8.9445   -1.7270    0.0000 C   0  0  0  0  0  0  0  0  0  0  0  0
   10.3974   -1.3539    0.0000 C   0  0  0  0  0  0  0  0  0  0  0  0
   10.8008    0.0908    0.0000 C   0  0  0  0  0  0  0  0  0  0  0  0
    9.7513    1.1625    0.0000 C   0  0  0  0  0  0  0  0  0  0  0  0
    5.9840    0.0000    0.0000 C   0  0  0  0  0  0  0  0  0  0  0  0
    5.7960   -1.4882    0.0000 C   0  0  0  0  0  0  0  0  0  0  0  0
    5.2439   -2.8828    0.0000 C   0  0  0  0  0  0  0  0  0  0  0  0
    4.3622   -4.0964    0.0000 C   0  0  0  0  0  0  0  0  0  0  0  0
    3.2064   -5.0525    0.0000 C   0  0  0  0  0  0  0  0  0  0  0  0
    1.8492   -5.6912    0.0000 C   0  0  0  0  0  0  0  0  0  0  0  0
    0.3757   -5.9722    0.0000 C   0  0  0  0  0  0  0  0  0  0  0  0
   -1.1213   -5.8781    0.0000 C   0  0  0  0  0  0  0  0  0  0  0  0
   -2.5479   -5.4145    0.0000 C   0  0  0  0  0  0  0  0  0  0  0  0
   -3.8144   -4.6108    0.0000 C   0  0  0  0  0  0  0  0  0  0  0  0
   -4.8412   -3.5173    0.0000 C   0  0  0  0  0  0  0  0  0  0  0  0
   -5.5638   -2.2029    0.0000 C   0  0  0  0  0  0  0  0  0  0  0  0
   -5.9369   -0.7500    0.0000 C   0  0  0  0  0  0  0  0  0  0  0  0
   -5.9369    0.7500    0.0000 C   0  0  0  0  0  0  0  0  0  0  0  0
   -5.5638    2.2029    0.0000 C   0  0  0  0  0  0  0  0  0  0  0  0
   -4.8412    3.5173    0.0000 C   0  0  0  0  0  0  0  0  0  0  0  0
   -3.8144    4.6108    0.0000 C   0  0  0  0  0  0  0  0  0  0  0  0
   -2.5479    5.4145    0.0000 C   0  0  0  0  0  0  0  0  0  0  0  0
   -1.1213    5.8781    0.0000 C   0  0  0  0  0  0  0  0  0  0  0  0
    0.3757    5.9722    0.0000 C   0  0  0  0  0  0  0  0  0  0  0  0
    1.8492    5.6912    0.0000 C   0  0  0  0  0  0  0  0  0  0  0  0
    3.2064    5.0525    0.0000 C   0  0  0  0  0  0  0  0  0  0  0  0
    4.3622    4.0964    0.0000 C   0  0  0  0  0  0  0  0  0  0  0  0
  1  2  1  0
  2  3  2  0
  3  4  1  0
  4  5  2  0
  5  6  1  0
  6  7  1  0
  7  8  1  0
  8  9  2  0
  8 10  1  0
 10 11  1  0
 11 12  2  0
 12 13  1  0
 13 14  2  0
 14 15  1  0
  7 16  2  0
 16 17  1  0
 17 18  2  0
 18 19  1  0
 19 20  2  0
 20 21  1  0
 21 22  2  0
 22 23  1  0
 23 24  2  0
 24 25  1  0
 25 26  2  0
 26 27  1  0
 27 28  2  0
 28 29  1  0
 29 30  2  0
 30 31  1  0
 31 32  2  0
 32 33  1  0
 33 34  2  0
 34 35  1  0
 35 36  2  0
 36 37  1  0
 37 38  2  0
 38  2  1  0
 38  6  1  0
 15 10  1  0
M  END
>  <Title>  (844) 
idABENgen10

$$$$

     RDKit          2D

 16 17  0  0  0  0  0  0  0  0999 V2000
    4.2760   -0.0000    0.0000 C   0  0  0  0  0  0  0  0  0  0  0  0
    2.7760    0.0000    0.0000 C   0  0  0  0  0  0  0  0  0  0  0  0
    1.2760    0.0000    0.0000 C   0  0  0  0  0  0  0  0  0  0  0  0
    0.3943    1.2135    0.0000 C   0  0  0  0  0  0  0  0  0  0  0  0
   -1.0323    0.7500    0.0000 C   0  0  0  0  0  0  0  0  0  0  0  0
   -1.0323   -0.7500    0.0000 C   0  0  0  0  0  0  0  0  0  0  0  0
    0.3943   -1.2135    0.0000 C   0  0  0  0  0  0  0  0  0  0  0  0
    0.8578   -2.6401    0.0000 C   0  0  0  0  0  0  0  0  0  0  0  0
    2.3250   -2.9520    0.0000 O   0  0  0  0  0  0  0  0  0  0  0  0
   -0.1459   -3.7548    0.0000 C   0  0  0  0  0  0  0  0  0  0  0  0
    0.1660   -5.2220    0.0000 C   0  0  0  0  0  0  0  0  0  0  0  0
   -1.1330   -5.9720    0.0000 C   0  0  0  0  0  0  0  0  0  0  0  0
   -2.2478   -4.9684    0.0000 C   0  0  0  0  0  0  0  0  0  0  0  0
   -3.7150   -5.2802    0.0000 O   0  0  0  0  0  0  0  0  0  0  0  0
   -1.6377   -3.5980    0.0000 C   0  0  0  0  0  0  0  0  0  0  0  0
   -2.3877   -2.2990    0.0000 O   0  0  0  0  0  0  0  0  0  0  0  0
  1  2  3  0
  2  3  1  0
  3  4  1  0
  4  5  2  0
  5  6  1  0
  6  7  1  0
  7  8  1  0
  8  9  2  0
  8 10  1  0
 10 11  1  0
 11 12  1  0
 12 13  1  0
 13 14  1  0
 13 15  1  0
 15 16  1  0
  7  3  1  0
 15 10  1  0
M  END
>  <Title>  (845) 
idABEOgen10

$$$$

     RDKit          2D

 17 18  0  0  0  0  0  0  0  0999 V2000
    3.0000    0.0000    0.0000 C   0  0  0  0  0  0  0  0  0  0  0  0
    1.5000    0.0000    0.0000 C   0  0  0  0  0  0  0  0  0  0  0  0
    0.7500   -1.2990    0.0000 C   0  0  0  0  0  0  0  0  0  0  0  0
   -0.7500   -1.2990    0.0000 C   0  0  0  0  0  0  0  0  0  0  0  0
   -1.5000    0.0000    0.0000 C   0  0  0  0  0  0  0  0  0  0  0  0
   -0.7500    1.2990    0.0000 C   0  0  0  0  0  0  0  0  0  0  0  0
   -1.5000    2.5981    0.0000 C   0  0  0  0  0  0  0  0  0  0  0  0
   -3.0000    2.5981    0.0000 O   0  0  0  0  0  0  0  0  0  0  0  0
   -0.7500    3.8971    0.0000 N   0  0  0  0  0  0  0  0  0  0  0  0
   -1.5000    5.1962    0.0000 C   0  0  0  0  0  0  0  0  0  0  0  0
   -0.7500    6.4952    0.0000 N   0  0  0  0  0  0  0  0  0  0  0  0
   -1.5000    7.7942    0.0000 N   0  0  0  0  0  0  0  0  0  0  0  0
   -3.0000    7.7942    0.0000 N   0  0  0  0  0  0  0  0  0  0  0  0
   -3.7500    6.4952    0.0000 N   0  0  0  0  0  0  0  0  0  0  0  0
   -3.0000    5.1962    0.0000 N   0  0  0  0  0  0  0  0  0  0  0  0
    0.7500    1.2990    0.0000 C   0  0  0  0  0  0  0  0  0  0  0  0
    1.5000    2.5981    0.0000 O   0  0  0  0  0  0  0  0  0  0  0  0
  1  2  1  0
  2  3  2  0
  3  4  1  0
  4  5  1  0
  5  6  2  0
  6  7  1  0
  7  8  2  0
  7  9  1  0
  9 10  1  0
 10 11  2  0
 11 12  1  0
 12 13  2  0
 13 14  1  0
 14 15  2  0
  6 16  1  0
 16 17  2  0
 16  2  1  0
 15 10  1  0
M  END
>  <Title>  (846) 
idABEPgen10

$$$$

     RDKit          2D

 10 10  0  0  0  0  0  0  0  0999 V2000
    5.0260   -1.2990    0.0000 C   0  0  0  0  0  0  0  0  0  0  0  0
    3.5260   -1.2990    0.0000 C   0  0  0  0  0  0  0  0  0  0  0  0
    2.7760    0.0000    0.0000 N   0  0  0  0  0  0  0  0  0  0  0  0
    1.2760    0.0000    0.0000 C   0  0  0  0  0  0  0  0  0  0  0  0
    0.3943    1.2135    0.0000 C   0  0  0  0  0  0  0  0  0  0  0  0
   -1.0323    0.7500    0.0000 C   0  0  0  0  0  0  0  0  0  0  0  0
   -2.2458    1.6317    0.0000 C   0  0  0  0  0  0  0  0  0  0  0  0
   -1.0323   -0.7500    0.0000 C   0  0  0  0  0  0  0  0  0  0  0  0
   -2.2458   -1.6317    0.0000 C   0  0  0  0  0  0  0  0  0  0  0  0
    0.3943   -1.2135    0.0000 N   0  0  0  0  0  0  0  0  0  0  0  0
  1  2  1  0
  2  3  1  0
  3  4  1  0
  4  5  2  0
  5  6  1  0
  6  7  1  0
  6  8  2  0
  8  9  1  0
  8 10  1  0
 10  4  1  0
M  END
>  <Title>  (847) 
idABEQgen10

$$$$

     RDKit          2D

118119  0  0  0  0  0  0  0  0999 V2000
   -2.3726    0.1124    0.0000 C   0  0  0  0  0  0  0  0  0  0  0  0
   -2.2477   -1.3824    0.0000 C   0  0  0  0  0  0  0  0  0  0  0  0
   -3.7384   -1.5489    0.0000 C   0  0  0  0  0  0  0  0  0  0  0  0
   -5.2176   -1.7979    0.0000 C   0  0  0  0  0  0  0  0  0  0  0  0
   -6.6806   -2.1288    0.0000 C   0  0  0  0  0  0  0  0  0  0  0  0
   -8.1230   -2.5405    0.0000 C   0  0  0  0  0  0  0  0  0  0  0  0
   -9.5403   -3.0317    0.0000 C   0  0  0  0  0  0  0  0  0  0  0  0
  -10.9281   -3.6009    0.0000 C   0  0  0  0  0  0  0  0  0  0  0  0
  -12.2822   -4.2463    0.0000 C   0  0  0  0  0  0  0  0  0  0  0  0
  -13.5982   -4.9660    0.0000 C   0  0  0  0  0  0  0  0  0  0  0  0
  -14.8723   -5.7578    0.0000 C   0  0  0  0  0  0  0  0  0  0  0  0
  -16.1003   -6.6191    0.0000 C   0  0  0  0  0  0  0  0  0  0  0  0
  -17.2786   -7.5473    0.0000 C   0  0  0  0  0  0  0  0  0  0  0  0
  -18.4035   -8.5396    0.0000 C   0  0  0  0  0  0  0  0  0  0  0  0
  -19.4715   -9.5929    0.0000 C   0  0  0  0  0  0  0  0  0  0  0  0
  -20.4794  -10.7038    0.0000 C   0  0  0  0  0  0  0  0  0  0  0  0
  -21.4239  -11.8691    0.0000 C   0  0  0  0  0  0  0  0  0  0  0  0
  -22.3022  -13.0851    0.0000 C   0  0  0  0  0  0  0  0  0  0  0  0
  -23.1115  -14.3480    0.0000 C   0  0  0  0  0  0  0  0  0  0  0  0
  -23.8495  -15.6539    0.0000 C   0  0  0  0  0  0  0  0  0  0  0  0
  -24.5137  -16.9989    0.0000 C   0  0  0  0  0  0  0  0  0  0  0  0
  -25.1021  -18.3786    0.0000 C   0  0  0  0  0  0  0  0  0  0  0  0
  -25.6130  -19.7890    0.0000 C   0  0  0  0  0  0  0  0  0  0  0  0
  -26.0447  -21.2255    0.0000 C   0  0  0  0  0  0  0  0  0  0  0  0
  -26.3958  -22.6838    0.0000 C   0  0  0  0  0  0  0  0  0  0  0  0
  -26.6654  -24.1594    0.0000 C   0  0  0  0  0  0  0  0  0  0  0  0
  -26.8526  -25.6477    0.0000 C   0  0  0  0  0  0  0  0  0  0  0  0
  -26.9568  -27.1440    0.0000 C   0  0  0  0  0  0  0  0  0  0  0  0
  -26.9776  -28.6439    0.0000 C   0  0  0  0  0  0  0  0  0  0  0  0
  -26.9151  -30.1426    0.0000 C   0  0  0  0  0  0  0  0  0  0  0  0
  -26.7694  -31.6355    0.0000 C   0  0  0  0  0  0  0  0  0  0  0  0
  -26.5409  -33.1180    0.0000 C   0  0  0  0  0  0  0  0  0  0  0  0
  -26.2304  -34.5855    0.0000 C   0  0  0  0  0  0  0  0  0  0  0  0
  -25.8388  -36.0335    0.0000 C   0  0  0  0  0  0  0  0  0  0  0  0
  -25.3674  -37.4575    0.0000 C   0  0  0  0  0  0  0  0  0  0  0  0
  -24.8175  -38.8530    0.0000 C   0  0  0  0  0  0  0  0  0  0  0  0
  -24.1909  -40.2159    0.0000 C   0  0  0  0  0  0  0  0  0  0  0  0
  -23.4896  -41.5419    0.0000 C   0  0  0  0  0  0  0  0  0  0  0  0
  -22.7156  -42.8268    0.0000 C   0  0  0  0  0  0  0  0  0  0  0  0
  -21.8715  -44.0667    0.0000 C   0  0  0  0  0  0  0  0  0  0  0  0
  -20.9597  -45.2578    0.0000 C   0  0  0  0  0  0  0  0  0  0  0  0
  -19.9832  -46.3964    0.0000 C   0  0  0  0  0  0  0  0  0  0  0  0
  -18.9449  -47.4789    0.0000 C   0  0  0  0  0  0  0  0  0  0  0  0
  -17.8480  -48.5021    0.0000 C   0  0  0  0  0  0  0  0  0  0  0  0
  -16.6959  -49.4627    0.0000 C   0  0  0  0  0  0  0  0  0  0  0  0
  -15.4923  -50.3578    0.0000 C   0  0  0  0  0  0  0  0  0  0  0  0
  -14.2408  -51.1847    0.0000 C   0  0  0  0  0  0  0  0  0  0  0  0
  -12.9452  -51.9407    0.0000 C   0  0  0  0  0  0  0  0  0  0  0  0
  -11.6096  -52.6235    0.0000 C   0  0  0  0  0  0  0  0  0  0  0  0
  -10.2382  -53.2311    0.0000 C   0  0  0  0  0  0  0  0  0  0  0  0
   -8.8351  -53.7615    0.0000 C   0  0  0  0  0  0  0  0  0  0  0  0
   -7.4047  -54.2131    0.0000 C   0  0  0  0  0  0  0  0  0  0  0  0
   -5.9514  -54.5845    0.0000 C   0  0  0  0  0  0  0  0  0  0  0  0
   -4.4797  -54.8746    0.0000 C   0  0  0  0  0  0  0  0  0  0  0  0
   -2.9942  -55.0824    0.0000 C   0  0  0  0  0  0  0  0  0  0  0  0
   -1.4994  -55.2074    0.0000 C   0  0  0  0  0  0  0  0  0  0  0  0
   -0.0000  -55.2491    0.0000 C   0  0  0  0  0  0  0  0  0  0  0  0
    1.4994  -55.2074    0.0000 C   0  0  0  0  0  0  0  0  0  0  0  0
    2.9942  -55.0824    0.0000 C   0  0  0  0  0  0  0  0  0  0  0  0
    4.4797  -54.8746    0.0000 C   0  0  0  0  0  0  0  0  0  0  0  0
    5.9514  -54.5845    0.0000 C   0  0  0  0  0  0  0  0  0  0  0  0
    7.4047  -54.2131    0.0000 C   0  0  0  0  0  0  0  0  0  0  0  0
    8.8351  -53.7615    0.0000 C   0  0  0  0  0  0  0  0  0  0  0  0
   10.2382  -53.2311    0.0000 C   0  0  0  0  0  0  0  0  0  0  0  0
   11.6096  -52.6235    0.0000 C   0  0  0  0  0  0  0  0  0  0  0  0
   12.9452  -51.9407    0.0000 C   0  0  0  0  0  0  0  0  0  0  0  0
   14.2408  -51.1847    0.0000 C   0  0  0  0  0  0  0  0  0  0  0  0
   15.4923  -50.3578    0.0000 C   0  0  0  0  0  0  0  0  0  0  0  0
   16.6959  -49.4627    0.0000 C   0  0  0  0  0  0  0  0  0  0  0  0
   17.8480  -48.5021    0.0000 C   0  0  0  0  0  0  0  0  0  0  0  0
   18.9449  -47.4789    0.0000 C   0  0  0  0  0  0  0  0  0  0  0  0
   19.9832  -46.3964    0.0000 C   0  0  0  0  0  0  0  0  0  0  0  0
   20.9597  -45.2578    0.0000 C   0  0  0  0  0  0  0  0  0  0  0  0
   21.8715  -44.0667    0.0000 C   0  0  0  0  0  0  0  0  0  0  0  0
   22.7156  -42.8268    0.0000 C   0  0  0  0  0  0  0  0  0  0  0  0
   23.4896  -41.5419    0.0000 C   0  0  0  0  0  0  0  0  0  0  0  0
   24.1909  -40.2159    0.0000 C   0  0  0  0  0  0  0  0  0  0  0  0
   24.8175  -38.8530    0.0000 C   0  0  0  0  0  0  0  0  0  0  0  0
   25.3674  -37.4575    0.0000 C   0  0  0  0  0  0  0  0  0  0  0  0
   25.8388  -36.0335    0.0000 C   0  0  0  0  0  0  0  0  0  0  0  0
   26.2304  -34.5855    0.0000 C   0  0  0  0  0  0  0  0  0  0  0  0
   26.5409  -33.1180    0.0000 C   0  0  0  0  0  0  0  0  0  0  0  0
   26.7694  -31.6355    0.0000 C   0  0  0  0  0  0  0  0  0  0  0  0
   26.9151  -30.1426    0.0000 C   0  0  0  0  0  0  0  0  0  0  0  0
   26.9776  -28.6439    0.0000 C   0  0  0  0  0  0  0  0  0  0  0  0
   26.9568  -27.1440    0.0000 C   0  0  0  0  0  0  0  0  0  0  0  0
   26.8526  -25.6477    0.0000 C   0  0  0  0  0  0  0  0  0  0  0  0
   26.6654  -24.1594    0.0000 C   0  0  0  0  0  0  0  0  0  0  0  0
   26.3958  -22.6838    0.0000 C   0  0  0  0  0  0  0  0  0  0  0  0
   26.0447  -21.2255    0.0000 C   0  0  0  0  0  0  0  0  0  0  0  0
   25.6130  -19.7890    0.0000 C   0  0  0  0  0  0  0  0  0  0  0  0
   25.1021  -18.3786    0.0000 C   0  0  0  0  0  0  0  0  0  0  0  0
   24.5137  -16.9989    0.0000 C   0  0  0  0  0  0  0  0  0  0  0  0
   23.8495  -15.6539    0.0000 C   0  0  0  0  0  0  0  0  0  0  0  0
   23.1115  -14.3480    0.0000 C   0  0  0  0  0  0  0  0  0  0  0  0
   22.3022  -13.0851    0.0000 C   0  0  0  0  0  0  0  0  0  0  0  0
   21.4239  -11.8691    0.0000 C   0  0  0  0  0  0  0  0  0  0  0  0
   20.4794  -10.7038    0.0000 C   0  0  0  0  0  0  0  0  0  0  0  0
   19.4715   -9.5929    0.0000 C   0  0  0  0  0  0  0  0  0  0  0  0
   18.4035   -8.5396    0.0000 C   0  0  0  0  0  0  0  0  0  0  0  0
   17.2786   -7.5473    0.0000 C   0  0  0  0  0  0  0  0  0  0  0  0
   16.1003   -6.6191    0.0000 C   0  0  0  0  0  0  0  0  0  0  0  0
   14.8723   -5.7578    0.0000 C   0  0  0  0  0  0  0  0  0  0  0  0
   13.5982   -4.9660    0.0000 C   0  0  0  0  0  0  0  0  0  0  0  0
   12.2822   -4.2463    0.0000 C   0  0  0  0  0  0  0  0  0  0  0  0
   10.9281   -3.6009    0.0000 C   0  0  0  0  0  0  0  0  0  0  0  0
    9.5403   -3.0317    0.0000 C   0  0  0  0  0  0  0  0  0  0  0  0
    8.1230   -2.5405    0.0000 C   0  0  0  0  0  0  0  0  0  0  0  0
    6.6806   -2.1288    0.0000 C   0  0  0  0  0  0  0  0  0  0  0  0
    5.2176   -1.7979    0.0000 C   0  0  0  0  0  0  0  0  0  0  0  0
    3.7384   -1.5489    0.0000 C   0  0  0  0  0  0  0  0  0  0  0  0
    2.2477   -1.3824    0.0000 C   0  0  0  0  0  0  0  0  0  0  0  0
    0.7500   -1.2990    0.0000 C   0  0  0  0  0  0  0  0  0  0  0  0
    1.5000    0.0000    0.0000 C   0  0  0  0  0  0  0  0  0  0  0  0
    0.7500    1.2990    0.0000 C   0  0  0  0  0  0  0  0  0  0  0  0
   -0.7500    1.2990    0.0000 C   0  0  0  0  0  0  0  0  0  0  0  0
   -1.5000    0.0000    0.0000 C   0  0  0  0  0  0  0  0  0  0  0  0
   -0.7500   -1.2990    0.0000 C   0  0  0  0  0  0  0  0  0  0  0  0
  1  2  1  0
  2  3  1  0
  3  4  1  0
  4  5  1  0
  5  6  1  0
  6  7  1  0
  7  8  1  0
  8  9  1  0
  9 10  1  0
 10 11  1  0
 11 12  1  0
 12 13  1  0
 13 14  1  0
 14 15  1  0
 15 16  1  0
 16 17  1  0
 17 18  1  0
 18 19  1  0
 19 20  1  0
 20 21  1  0
 21 22  1  0
 22 23  1  0
 23 24  1  0
 24 25  1  0
 25 26  1  0
 26 27  1  0
 27 28  1  0
 28 29  1  0
 29 30  1  0
 30 31  1  0
 31 32  1  0
 32 33  1  0
 33 34  1  0
 34 35  1  0
 35 36  1  0
 36 37  1  0
 37 38  1  0
 38 39  1  0
 39 40  1  0
 40 41  1  0
 41 42  1  0
 42 43  1  0
 43 44  1  0
 44 45  1  0
 45 46  1  0
 46 47  1  0
 47 48  1  0
 48 49  1  0
 49 50  1  0
 50 51  1  0
 51 52  1  0
 52 53  1  0
 53 54  1  0
 54 55  1  0
 55 56  1  0
 56 57  1  0
 57 58  1  0
 58 59  1  0
 59 60  1  0
 60 61  1  0
 61 62  1  0
 62 63  1  0
 63 64  1  0
 64 65  1  0
 65 66  1  0
 66 67  1  0
 67 68  1  0
 68 69  1  0
 69 70  1  0
 70 71  1  0
 71 72  1  0
 72 73  1  0
 73 74  1  0
 74 75  1  0
 75 76  1  0
 76 77  1  0
 77 78  1  0
 78 79  1  0
 79 80  1  0
 80 81  1  0
 81 82  1  0
 82 83  1  0
 83 84  1  0
 84 85  1  0
 85 86  1  0
 86 87  1  0
 87 88  1  0
 88 89  1  0
 89 90  1  0
 90 91  1  0
 91 92  1  0
 92 93  1  0
 93 94  1  0
 94 95  1  0
 95 96  1  0
 96 97  1  0
 97 98  1  0
 98 99  1  0
 99100  1  0
100101  1  0
101102  1  0
102103  1  0
103104  1  0
104105  1  0
105106  1  0
106107  1  0
107108  1  0
108109  1  0
109110  1  0
110111  1  0
111112  1  0
112113  1  0
113114  1  0
114115  1  0
115116  1  0
116117  1  0
117118  1  0
118  2  1  0
118113  1  0
M  END
>  <Title>  (848) 
idABERgen10

$$$$

     RDKit          2D

 15 16  0  0  0  0  0  0  0  0999 V2000
    1.8478   -9.0619    0.0000 C   0  0  0  0  0  0  0  0  0  0  0  0
    2.0046   -7.5702    0.0000 C   0  0  0  0  0  0  0  0  0  0  0  0
    3.3037   -6.8202    0.0000 C   0  0  0  0  0  0  0  0  0  0  0  0
    2.9918   -5.3529    0.0000 C   0  0  0  0  0  0  0  0  0  0  0  0
    1.5000   -5.1962    0.0000 C   0  0  0  0  0  0  0  0  0  0  0  0
    0.7500   -3.8971    0.0000 C   0  0  0  0  0  0  0  0  0  0  0  0
   -0.7500   -3.8971    0.0000 O   0  0  0  0  0  0  0  0  0  0  0  0
    1.5000   -2.5981    0.0000 N   0  0  0  0  0  0  0  0  0  0  0  0
    0.7500   -1.2990    0.0000 C   0  0  0  0  0  0  0  0  0  0  0  0
    1.5000    0.0000    0.0000 N   0  0  0  0  0  0  0  0  0  0  0  0
    0.7500    1.2990    0.0000 N   0  0  0  0  0  0  0  0  0  0  0  0
   -0.7500    1.2990    0.0000 N   0  0  0  0  0  0  0  0  0  0  0  0
   -1.5000    0.0000    0.0000 N   0  0  0  0  0  0  0  0  0  0  0  0
   -0.7500   -1.2990    0.0000 N   0  0  0  0  0  0  0  0  0  0  0  0
    0.8899   -6.5665    0.0000 C   0  0  0  0  0  0  0  0  0  0  0  0
  1  2  1  0
  2  3  1  0
  3  4  2  0
  4  5  1  0
  5  6  1  0
  6  7  2  0
  6  8  1  0
  8  9  1  0
  9 10  2  0
 10 11  1  0
 11 12  2  0
 12 13  1  0
 13 14  2  0
  5 15  2  0
 15  2  1  0
 14  9  1  0
M  END
>  <Title>  (849) 
idABESgen10

$$$$

     RDKit          2D

  5  4  0  0  0  0  0  0  0  0999 V2000
    0.0000    0.0000    0.0000 C   0  0  0  0  0  0  0  0  0  0  0  0
    1.2990    0.7500    0.0000 C   0  0  0  0  0  0  0  0  0  0  0  0
    2.5981    1.5000    0.0000 C   0  0  0  0  0  0  0  0  0  0  0  0
    3.8971    2.2500    0.0000 C   0  0  0  0  0  0  0  0  0  0  0  0
    5.1962    1.5000    0.0000 C   0  0  0  0  0  0  0  0  0  0  0  0
  1  2  1  0
  2  3  3  0
  3  4  1  0
  4  5  1  0
M  END
>  <Title>  (850) 
idABETgen10

$$$$

     RDKit          2D

  6  5  0  0  0  0  0  0  0  0999 V2000
    0.0000    0.0000    0.0000 C   0  0  0  0  0  0  0  0  0  0  0  0
    1.2990    0.7500    0.0000 C   0  0  0  0  0  0  0  0  0  0  0  0
    2.5981   -0.0000    0.0000 C   0  0  0  0  0  0  0  0  0  0  0  0
    3.8971    0.7500    0.0000 C   0  0  0  0  0  0  0  0  0  0  0  0
    5.1962   -0.0000    0.0000 C   0  0  0  0  0  0  0  0  0  0  0  0
    6.4952    0.7500    0.0000 C   0  0  0  0  0  0  0  0  0  0  0  0
  1  2  2  0
  2  3  1  0
  3  4  1  0
  4  5  2  3
  5  6  1  0
M  END
>  <Title>  (851) 
idABEUgen10

$$$$

     RDKit          2D

 11 11  0  0  0  0  0  0  0  0999 V2000
    5.7348   -4.0148    0.0000 C   0  0  0  0  0  0  0  0  0  0  0  0
    4.6201   -3.0111    0.0000 C   0  0  0  0  0  0  0  0  0  0  0  0
    3.5054   -2.0074    0.0000 C   0  0  0  0  0  0  0  0  0  0  0  0
    2.3907   -1.0037    0.0000 C   0  0  0  0  0  0  0  0  0  0  0  0
    1.2760    0.0000    0.0000 C   0  0  0  0  0  0  0  0  0  0  0  0
    2.3907    1.0037    0.0000 C   0  0  0  0  0  0  0  0  0  0  0  0
    0.3943    1.2135    0.0000 C   0  0  0  0  0  0  0  0  0  0  0  0
   -1.0323    0.7500    0.0000 C   0  0  0  0  0  0  0  0  0  0  0  0
   -1.0323   -0.7500    0.0000 C   0  0  0  0  0  0  0  0  0  0  0  0
    0.3943   -1.2135    0.0000 C   0  0  0  0  0  0  0  0  0  0  0  0
    0.8578   -2.6401    0.0000 C   0  0  0  0  0  0  0  0  0  0  0  0
  1  2  3  0
  2  3  1  0
  3  4  3  0
  4  5  1  0
  5  6  1  0
  5  7  1  0
  7  8  2  0
  8  9  1  0
  9 10  2  0
 10 11  1  0
 10  5  1  0
M  END
>  <Title>  (852) 
idABEVgen10

$$$$

     RDKit          2D

 89 90  0  0  0  0  0  0  0  0999 V2000
   -2.1864   -1.0760    0.0000 C   0  0  0  0  0  0  0  0  0  0  0  0
   -2.4892    0.3931    0.0000 C   0  0  0  0  0  0  0  0  0  0  0  0
   -3.9685    0.1448    0.0000 C   0  0  0  0  0  0  0  0  0  0  0  0
   -5.4621    0.0064    0.0000 C   0  0  0  0  0  0  0  0  0  0  0  0
   -6.9619   -0.0214    0.0000 C   0  0  0  0  0  0  0  0  0  0  0  0
   -8.4595    0.0618    0.0000 C   0  0  0  0  0  0  0  0  0  0  0  0
   -9.9470    0.2553    0.0000 C   0  0  0  0  0  0  0  0  0  0  0  0
  -11.4161    0.5581    0.0000 C   0  0  0  0  0  0  0  0  0  0  0  0
  -12.8589    0.9686    0.0000 C   0  0  0  0  0  0  0  0  0  0  0  0
  -14.2674    1.4845    0.0000 C   0  0  0  0  0  0  0  0  0  0  0  0
  -15.6339    2.1030    0.0000 C   0  0  0  0  0  0  0  0  0  0  0  0
  -16.9510    2.8208    0.0000 C   0  0  0  0  0  0  0  0  0  0  0  0
  -18.2115    3.6339    0.0000 C   0  0  0  0  0  0  0  0  0  0  0  0
  -19.4086    4.5378    0.0000 C   0  0  0  0  0  0  0  0  0  0  0  0
  -20.5355    5.5277    0.0000 C   0  0  0  0  0  0  0  0  0  0  0  0
  -21.5864    6.5981    0.0000 C   0  0  0  0  0  0  0  0  0  0  0  0
  -22.5553    7.7432    0.0000 C   0  0  0  0  0  0  0  0  0  0  0  0
  -23.4369    8.9568    0.0000 C   0  0  0  0  0  0  0  0  0  0  0  0
  -24.2266   10.2321    0.0000 C   0  0  0  0  0  0  0  0  0  0  0  0
  -24.9199   11.5622    0.0000 C   0  0  0  0  0  0  0  0  0  0  0  0
  -25.5131   12.9400    0.0000 C   0  0  0  0  0  0  0  0  0  0  0  0
  -26.0029   14.3578    0.0000 C   0  0  0  0  0  0  0  0  0  0  0  0
  -26.3866   15.8078    0.0000 C   0  0  0  0  0  0  0  0  0  0  0  0
  -26.6623   17.2823    0.0000 C   0  0  0  0  0  0  0  0  0  0  0  0
  -26.8282   18.7731    0.0000 C   0  0  0  0  0  0  0  0  0  0  0  0
  -26.8837   20.2721    0.0000 C   0  0  0  0  0  0  0  0  0  0  0  0
  -26.8282   21.7710    0.0000 C   0  0  0  0  0  0  0  0  0  0  0  0
  -26.6623   23.2618    0.0000 C   0  0  0  0  0  0  0  0  0  0  0  0
  -26.3866   24.7363    0.0000 C   0  0  0  0  0  0  0  0  0  0  0  0
  -26.0029   26.1864    0.0000 C   0  0  0  0  0  0  0  0  0  0  0  0
  -25.5131   27.6041    0.0000 C   0  0  0  0  0  0  0  0  0  0  0  0
  -24.9199   28.9819    0.0000 C   0  0  0  0  0  0  0  0  0  0  0  0
  -24.2266   30.3120    0.0000 C   0  0  0  0  0  0  0  0  0  0  0  0
  -23.4369   31.5873    0.0000 C   0  0  0  0  0  0  0  0  0  0  0  0
  -22.5553   32.8009    0.0000 C   0  0  0  0  0  0  0  0  0  0  0  0
  -21.5864   33.9460    0.0000 C   0  0  0  0  0  0  0  0  0  0  0  0
  -20.5355   35.0164    0.0000 C   0  0  0  0  0  0  0  0  0  0  0  0
  -19.4086   36.0063    0.0000 C   0  0  0  0  0  0  0  0  0  0  0  0
  -18.2115   36.9102    0.0000 C   0  0  0  0  0  0  0  0  0  0  0  0
  -16.9510   37.7233    0.0000 C   0  0  0  0  0  0  0  0  0  0  0  0
  -15.6339   38.4411    0.0000 C   0  0  0  0  0  0  0  0  0  0  0  0
  -14.2674   39.0596    0.0000 C   0  0  0  0  0  0  0  0  0  0  0  0
  -12.8589   39.5755    0.0000 C   0  0  0  0  0  0  0  0  0  0  0  0
  -11.4161   39.9860    0.0000 C   0  0  0  0  0  0  0  0  0  0  0  0
   -9.9470   40.2889    0.0000 C   0  0  0  0  0  0  0  0  0  0  0  0
   -8.4595   40.4823    0.0000 C   0  0  0  0  0  0  0  0  0  0  0  0
   -6.9619   40.5655    0.0000 C   0  0  0  0  0  0  0  0  0  0  0  0
   -5.4621   40.5377    0.0000 C   0  0  0  0  0  0  0  0  0  0  0  0
   -3.9685   40.3993    0.0000 C   0  0  0  0  0  0  0  0  0  0  0  0
   -2.4892   40.1510    0.0000 C   0  0  0  0  0  0  0  0  0  0  0  0
   -1.0323   39.7941    0.0000 C   0  0  0  0  0  0  0  0  0  0  0  0
    0.3943   39.3306    0.0000 C   0  0  0  0  0  0  0  0  0  0  0  0
    1.7828   38.7630    0.0000 C   0  0  0  0  0  0  0  0  0  0  0  0
    3.1255   38.0944    0.0000 C   0  0  0  0  0  0  0  0  0  0  0  0
    4.4152   37.3284    0.0000 C   0  0  0  0  0  0  0  0  0  0  0  0
    5.6448   36.4693    0.0000 C   0  0  0  0  0  0  0  0  0  0  0  0
    6.8076   35.5217    0.0000 C   0  0  0  0  0  0  0  0  0  0  0  0
    7.8973   34.4909    0.0000 C   0  0  0  0  0  0  0  0  0  0  0  0
    8.9078   33.3824    0.0000 C   0  0  0  0  0  0  0  0  0  0  0  0
    9.8337   32.2023    0.0000 C   0  0  0  0  0  0  0  0  0  0  0  0
   10.6700   30.9570    0.0000 C   0  0  0  0  0  0  0  0  0  0  0  0
   11.4119   29.6534    0.0000 C   0  0  0  0  0  0  0  0  0  0  0  0
   12.0556   28.2985    0.0000 C   0  0  0  0  0  0  0  0  0  0  0  0
   12.5975   26.8998    0.0000 C   0  0  0  0  0  0  0  0  0  0  0  0
   13.0346   25.4649    0.0000 C   0  0  0  0  0  0  0  0  0  0  0  0
   13.3645   24.0016    0.0000 C   0  0  0  0  0  0  0  0  0  0  0  0
   13.5854   22.5180    0.0000 C   0  0  0  0  0  0  0  0  0  0  0  0
   13.6962   21.0221    0.0000 C   0  0  0  0  0  0  0  0  0  0  0  0
   13.6962   19.5221    0.0000 C   0  0  0  0  0  0  0  0  0  0  0  0
   13.5854   18.0262    0.0000 C   0  0  0  0  0  0  0  0  0  0  0  0
   13.3645   16.5425    0.0000 C   0  0  0  0  0  0  0  0  0  0  0  0
   13.0346   15.0792    0.0000 C   0  0  0  0  0  0  0  0  0  0  0  0
   12.5975   13.6443    0.0000 C   0  0  0  0  0  0  0  0  0  0  0  0
   12.0556   12.2456    0.0000 C   0  0  0  0  0  0  0  0  0  0  0  0
   11.4119   10.8908    0.0000 C   0  0  0  0  0  0  0  0  0  0  0  0
   10.6700    9.5871    0.0000 C   0  0  0  0  0  0  0  0  0  0  0  0
    9.8337    8.3419    0.0000 C   0  0  0  0  0  0  0  0  0  0  0  0
    8.9078    7.1617    0.0000 C   0  0  0  0  0  0  0  0  0  0  0  0
    7.8973    6.0532    0.0000 C   0  0  0  0  0  0  0  0  0  0  0  0
    6.8076    5.0224    0.0000 C   0  0  0  0  0  0  0  0  0  0  0  0
    5.6448    4.0748    0.0000 C   0  0  0  0  0  0  0  0  0  0  0  0
    4.4152    3.2157    0.0000 C   0  0  0  0  0  0  0  0  0  0  0  0
    3.1255    2.4497    0.0000 C   0  0  0  0  0  0  0  0  0  0  0  0
    1.7828    1.7811    0.0000 C   0  0  0  0  0  0  0  0  0  0  0  0
    0.3943    1.2135    0.0000 C   0  0  0  0  0  0  0  0  0  0  0  0
    1.2760    0.0000    0.0000 C   0  0  0  0  0  0  0  0  0  0  0  0
    0.3943   -1.2135    0.0000 C   0  0  0  0  0  0  0  0  0  0  0  0
   -1.0323   -0.7500    0.0000 C   0  0  0  0  0  0  0  0  0  0  0  0
   -1.0323    0.7500    0.0000 C   0  0  0  0  0  0  0  0  0  0  0  0
  1  2  1  0
  2  3  1  0
  3  4  1  0
  4  5  1  0
  5  6  1  0
  6  7  1  0
  7  8  1  0
  8  9  1  0
  9 10  1  0
 10 11  1  0
 11 12  1  0
 12 13  1  0
 13 14  1  0
 14 15  1  0
 15 16  1  0
 16 17  1  0
 17 18  1  0
 18 19  1  0
 19 20  1  0
 20 21  1  0
 21 22  1  0
 22 23  1  0
 23 24  1  0
 24 25  1  0
 25 26  1  0
 26 27  1  0
 27 28  1  0
 28 29  1  0
 29 30  1  0
 30 31  1  0
 31 32  1  0
 32 33  1  0
 33 34  1  0
 34 35  1  0
 35 36  1  0
 36 37  1  0
 37 38  1  0
 38 39  1  0
 39 40  1  0
 40 41  1  0
 41 42  1  0
 42 43  1  0
 43 44  1  0
 44 45  1  0
 45 46  1  0
 46 47  1  0
 47 48  1  0
 48 49  1  0
 49 50  1  0
 50 51  1  0
 51 52  1  0
 52 53  1  0
 53 54  1  0
 54 55  1  0
 55 56  1  0
 56 57  1  0
 57 58  1  0
 58 59  1  0
 59 60  1  0
 60 61  1  0
 61 62  1  0
 62 63  1  0
 63 64  1  0
 64 65  1  0
 65 66  1  0
 66 67  2  0
 67 68  1  0
 68 69  2  0
 69 70  1  0
 70 71  2  0
 71 72  1  0
 72 73  2  0
 73 74  1  0
 74 75  2  0
 75 76  1  0
 76 77  2  0
 77 78  1  0
 78 79  2  0
 79 80  1  0
 80 81  2  0
 81 82  1  0
 82 83  2  0
 83 84  1  0
 84 85  2  0
 85 86  1  0
 86 87  2  0
 87 88  1  0
 88 89  2  0
 89  2  1  0
 89 85  1  0
M  END
>  <Title>  (853) 
idABEWgen10

$$$$

     RDKit          2D

 12 12  0  0  0  0  0  0  0  0999 V2000
   10.0607    0.0000    0.0000 C   0  0  0  0  0  0  0  0  0  0  0  0
    8.5607    0.0000    0.0000 C   0  0  0  0  0  0  0  0  0  0  0  0
    7.0607    0.0000    0.0000 C   0  0  0  0  0  0  0  0  0  0  0  0
    5.5607    0.0000    0.0000 C   0  0  0  0  0  0  0  0  0  0  0  0
    4.0607    0.0000    0.0000 C   0  0  0  0  0  0  0  0  0  0  0  0
    2.5607    0.0000    0.0000 C   0  0  0  0  0  0  0  0  0  0  0  0
    1.0607    0.0000    0.0000 C   0  0  0  0  0  0  0  0  0  0  0  0
   -0.0000   -1.0607    0.0000 C   0  0  0  0  0  0  0  0  0  0  0  0
   -0.0000   -2.5607    0.0000 C   0  0  0  0  0  0  0  0  0  0  0  0
   -0.0000   -4.0607    0.0000 N   0  0  0  0  0  0  0  0  0  0  0  0
   -1.0607    0.0000    0.0000 C   0  0  0  0  0  0  0  0  0  0  0  0
    0.0000    1.0607    0.0000 C   0  0  0  0  0  0  0  0  0  0  0  0
  1  2  3  0
  2  3  1  0
  3  4  3  0
  4  5  1  0
  5  6  3  0
  6  7  1  0
  7  8  2  0
  8  9  1  0
  9 10  3  0
  8 11  1  0
 11 12  2  0
 12  7  1  0
M  END
>  <Title>  (854) 
idABEXgen10

$$$$

     RDKit          2D

 17 17  0  0  0  0  0  0  0  0999 V2000
   13.7286   -0.0000    0.0000 C   0  0  0  0  0  0  0  0  0  0  0  0
   12.2286   -0.0000    0.0000 C   0  0  0  0  0  0  0  0  0  0  0  0
   10.7286   -0.0000    0.0000 C   0  0  0  0  0  0  0  0  0  0  0  0
    9.2286   -0.0000    0.0000 C   0  0  0  0  0  0  0  0  0  0  0  0
    7.7286   -0.0000    0.0000 C   0  0  0  0  0  0  0  0  0  0  0  0
    6.2286   -0.0000    0.0000 C   0  0  0  0  0  0  0  0  0  0  0  0
    4.7286   -0.0000    0.0000 C   0  0  0  0  0  0  0  0  0  0  0  0
    3.2286   -0.0000    0.0000 C   0  0  0  0  0  0  0  0  0  0  0  0
    1.7286    0.0000    0.0000 C   0  0  0  0  0  0  0  0  0  0  0  0
    1.0777    1.3515    0.0000 C   0  0  0  0  0  0  0  0  0  0  0  0
   -0.3846    1.6852    0.0000 C   0  0  0  0  0  0  0  0  0  0  0  0
   -0.7184    3.1476    0.0000 C   0  0  0  0  0  0  0  0  0  0  0  0
   -1.5574    0.7500    0.0000 C   0  0  0  0  0  0  0  0  0  0  0  0
   -2.9088    1.4008    0.0000 C   0  0  0  0  0  0  0  0  0  0  0  0
   -1.5574   -0.7500    0.0000 C   0  0  0  0  0  0  0  0  0  0  0  0
   -0.3846   -1.6852    0.0000 C   0  0  0  0  0  0  0  0  0  0  0  0
    1.0777   -1.3515    0.0000 C   0  0  0  0  0  0  0  0  0  0  0  0
  1  2  3  0
  2  3  1  0
  3  4  3  0
  4  5  1  0
  5  6  3  0
  6  7  1  0
  7  8  3  0
  8  9  1  0
  9 10  2  0
 10 11  1  0
 11 12  1  0
 11 13  1  0
 13 14  1  0
 13 15  2  0
 15 16  1  0
 16 17  2  0
 17  9  1  0
M  END
>  <Title>  (855) 
idABEYgen10

$$$$

     RDKit          2D

 12 12  0  0  0  0  0  0  0  0999 V2000
    7.5000    0.0000    0.0000 C   0  0  0  0  0  0  0  0  0  0  0  0
    6.0000    0.0000    0.0000 C   0  0  0  0  0  0  0  0  0  0  0  0
    4.5000    0.0000    0.0000 C   0  0  0  0  0  0  0  0  0  0  0  0
    3.0000    0.0000    0.0000 C   0  0  0  0  0  0  0  0  0  0  0  0
    1.5000    0.0000    0.0000 C   0  0  0  0  0  0  0  0  0  0  0  0
    0.7500   -1.2990    0.0000 C   0  0  0  0  0  0  0  0  0  0  0  0
   -0.7500   -1.2990    0.0000 C   0  0  0  0  0  0  0  0  0  0  0  0
   -1.5000    0.0000    0.0000 C   0  0  0  0  0  0  0  0  0  0  0  0
   -3.0000    0.0000    0.0000 C   0  0  0  0  0  0  0  0  0  0  0  0
   -4.5000    0.0000    0.0000 N   0  0  0  0  0  0  0  0  0  0  0  0
   -0.7500    1.2990    0.0000 C   0  0  0  0  0  0  0  0  0  0  0  0
    0.7500    1.2990    0.0000 C   0  0  0  0  0  0  0  0  0  0  0  0
  1  2  3  0
  2  3  1  0
  3  4  3  0
  4  5  1  0
  5  6  2  0
  6  7  1  0
  7  8  2  0
  8  9  1  0
  9 10  3  0
  8 11  1  0
 11 12  2  0
 12  5  1  0
M  END
>  <Title>  (856) 
idABEZgen10

$$$$

     RDKit          2D

 10 10  0  0  0  0  0  0  0  0999 V2000
    5.2500    1.2990    0.0000 C   0  0  0  0  0  0  0  0  0  0  0  0
    3.7500    1.2990    0.0000 C   0  0  0  0  0  0  0  0  0  0  0  0
    3.0000    0.0000    0.0000 C   0  0  0  0  0  0  0  0  0  0  0  0
    3.7500   -1.2990    0.0000 C   0  0  0  0  0  0  0  0  0  0  0  0
    1.5000    0.0000    0.0000 C   0  0  0  0  0  0  0  0  0  0  0  0
    0.7500   -1.2990    0.0000 C   0  0  0  0  0  0  0  0  0  0  0  0
   -0.7500   -1.2990    0.0000 C   0  0  0  0  0  0  0  0  0  0  0  0
   -1.5000    0.0000    0.0000 C   0  0  0  0  0  0  0  0  0  0  0  0
   -0.7500    1.2990    0.0000 C   0  0  0  0  0  0  0  0  0  0  0  0
    0.7500    1.2990    0.0000 N   0  0  0  0  0  0  0  0  0  0  0  0
  1  2  2  0
  2  3  1  0
  3  4  1  0
  3  5  1  0
  5  6  2  0
  6  7  1  0
  7  8  2  0
  8  9  1  0
  9 10  2  0
 10  5  1  0
M  END
>  <Title>  (857) 
idABFAgen10

$$$$

     RDKit          2D

 23 24  0  0  0  0  0  0  0  0999 V2000
   10.5773    1.0818    0.0000 C   0  0  0  0  0  0  0  0  0  0  0  0
    9.0800    0.9921    0.0000 C   0  0  0  0  0  0  0  0  0  0  0  0
    8.4090   -0.3495    0.0000 O   0  0  0  0  0  0  0  0  0  0  0  0
    8.2536    2.2439    0.0000 C   0  0  0  0  0  0  0  0  0  0  0  0
    8.9246    3.5855    0.0000 O   0  0  0  0  0  0  0  0  0  0  0  0
    6.7563    2.1542    0.0000 N   0  0  0  0  0  0  0  0  0  0  0  0
    5.9300    3.4061    0.0000 C   0  0  0  0  0  0  0  0  0  0  0  0
    6.4570    4.8104    0.0000 C   0  0  0  0  0  0  0  0  0  0  0  0
    5.2843    5.7457    0.0000 C   0  0  0  0  0  0  0  0  0  0  0  0
    5.3516    7.2442    0.0000 C   0  0  0  0  0  0  0  0  0  0  0  0
    4.0324    4.9193    0.0000 C   0  0  0  0  0  0  0  0  0  0  0  0
    2.6281    5.4464    0.0000 O   0  0  0  0  0  0  0  0  0  0  0  0
    4.4315    3.4734    0.0000 C   0  0  0  0  0  0  0  0  0  0  0  0
    3.4962    2.3006    0.0000 C   0  0  0  0  0  0  0  0  0  0  0  0
    4.0442    0.9043    0.0000 O   0  0  0  0  0  0  0  0  0  0  0  0
    2.0130    2.5242    0.0000 N   0  0  0  0  0  0  0  0  0  0  0  0
    1.0777    1.3515    0.0000 C   0  0  0  0  0  0  0  0  0  0  0  0
    1.7286    0.0000    0.0000 C   0  0  0  0  0  0  0  0  0  0  0  0
    1.0777   -1.3515    0.0000 C   0  0  0  0  0  0  0  0  0  0  0  0
   -0.3846   -1.6852    0.0000 C   0  0  0  0  0  0  0  0  0  0  0  0
   -1.5574   -0.7500    0.0000 C   0  0  0  0  0  0  0  0  0  0  0  0
   -1.5574    0.7500    0.0000 C   0  0  0  0  0  0  0  0  0  0  0  0
   -0.3846    1.6852    0.0000 C   0  0  0  0  0  0  0  0  0  0  0  0
  1  2  1  0
  2  3  2  0
  2  4  1  0
  4  5  2  0
  4  6  1  0
  6  7  1  0
  7  8  2  0
  8  9  1  0
  9 10  1  0
  9 11  1  0
 11 12  2  0
 11 13  1  0
 13 14  1  0
 14 15  2  0
 14 16  1  0
 16 17  1  0
 17 18  2  0
 18 19  1  0
 19 20  1  0
 20 21  2  0
 21 22  1  0
 22 23  2  0
 13  7  1  0
 23 17  1  0
M  END
>  <Title>  (858) 
idABFBgen10

$$$$

     RDKit          2D

 63 64  0  0  0  0  0  0  0  0999 V2000
   -2.4839    0.0190    0.0000 C   0  0  0  0  0  0  0  0  0  0  0  0
   -2.2412   -1.4612    0.0000 C   0  0  0  0  0  0  0  0  0  0  0  0
   -3.7061   -1.7837    0.0000 C   0  0  0  0  0  0  0  0  0  0  0  0
   -5.1276   -2.2626    0.0000 C   0  0  0  0  0  0  0  0  0  0  0  0
   -6.4890   -2.8925    0.0000 C   0  0  0  0  0  0  0  0  0  0  0  0
   -7.7743   -3.6658    0.0000 C   0  0  0  0  0  0  0  0  0  0  0  0
   -8.9684   -4.5736    0.0000 C   0  0  0  0  0  0  0  0  0  0  0  0
  -10.0574   -5.6051    0.0000 C   0  0  0  0  0  0  0  0  0  0  0  0
  -11.0285   -6.7483    0.0000 C   0  0  0  0  0  0  0  0  0  0  0  0
  -11.8703   -7.9899    0.0000 C   0  0  0  0  0  0  0  0  0  0  0  0
  -12.5729   -9.3151    0.0000 C   0  0  0  0  0  0  0  0  0  0  0  0
  -13.1281  -10.7086    0.0000 C   0  0  0  0  0  0  0  0  0  0  0  0
  -13.5294  -12.1539    0.0000 C   0  0  0  0  0  0  0  0  0  0  0  0
  -13.7720  -13.6342    0.0000 C   0  0  0  0  0  0  0  0  0  0  0  0
  -13.8533  -15.1320    0.0000 C   0  0  0  0  0  0  0  0  0  0  0  0
  -13.7720  -16.6298    0.0000 C   0  0  0  0  0  0  0  0  0  0  0  0
  -13.5294  -18.1100    0.0000 C   0  0  0  0  0  0  0  0  0  0  0  0
  -13.1281  -19.5553    0.0000 C   0  0  0  0  0  0  0  0  0  0  0  0
  -12.5729  -20.9488    0.0000 C   0  0  0  0  0  0  0  0  0  0  0  0
  -11.8703  -22.2741    0.0000 C   0  0  0  0  0  0  0  0  0  0  0  0
  -11.0285  -23.5156    0.0000 C   0  0  0  0  0  0  0  0  0  0  0  0
  -10.0574  -24.6588    0.0000 C   0  0  0  0  0  0  0  0  0  0  0  0
   -8.9684  -25.6904    0.0000 C   0  0  0  0  0  0  0  0  0  0  0  0
   -7.7743  -26.5982    0.0000 C   0  0  0  0  0  0  0  0  0  0  0  0
   -6.4890  -27.3715    0.0000 C   0  0  0  0  0  0  0  0  0  0  0  0
   -5.1276  -28.0013    0.0000 C   0  0  0  0  0  0  0  0  0  0  0  0
   -3.7061  -28.4803    0.0000 C   0  0  0  0  0  0  0  0  0  0  0  0
   -2.2412  -28.8027    0.0000 C   0  0  0  0  0  0  0  0  0  0  0  0
   -0.7500  -28.9649    0.0000 C   0  0  0  0  0  0  0  0  0  0  0  0
    0.7500  -28.9649    0.0000 C   0  0  0  0  0  0  0  0  0  0  0  0
    2.2412  -28.8027    0.0000 C   0  0  0  0  0  0  0  0  0  0  0  0
    3.7061  -28.4803    0.0000 C   0  0  0  0  0  0  0  0  0  0  0  0
    5.1276  -28.0013    0.0000 C   0  0  0  0  0  0  0  0  0  0  0  0
    6.4890  -27.3715    0.0000 C   0  0  0  0  0  0  0  0  0  0  0  0
    7.7743  -26.5982    0.0000 C   0  0  0  0  0  0  0  0  0  0  0  0
    8.9684  -25.6904    0.0000 C   0  0  0  0  0  0  0  0  0  0  0  0
   10.0574  -24.6588    0.0000 C   0  0  0  0  0  0  0  0  0  0  0  0
   11.0285  -23.5156    0.0000 C   0  0  0  0  0  0  0  0  0  0  0  0
   11.8703  -22.2741    0.0000 C   0  0  0  0  0  0  0  0  0  0  0  0
   12.5729  -20.9488    0.0000 C   0  0  0  0  0  0  0  0  0  0  0  0
   13.1281  -19.5553    0.0000 C   0  0  0  0  0  0  0  0  0  0  0  0
   13.5294  -18.1100    0.0000 C   0  0  0  0  0  0  0  0  0  0  0  0
   13.7720  -16.6298    0.0000 C   0  0  0  0  0  0  0  0  0  0  0  0
   13.8533  -15.1320    0.0000 C   0  0  0  0  0  0  0  0  0  0  0  0
   13.7720  -13.6342    0.0000 C   0  0  0  0  0  0  0  0  0  0  0  0
   13.5294  -12.1539    0.0000 C   0  0  0  0  0  0  0  0  0  0  0  0
   13.1281  -10.7086    0.0000 C   0  0  0  0  0  0  0  0  0  0  0  0
   12.5729   -9.3151    0.0000 C   0  0  0  0  0  0  0  0  0  0  0  0
   11.8703   -7.9899    0.0000 C   0  0  0  0  0  0  0  0  0  0  0  0
   11.0285   -6.7483    0.0000 C   0  0  0  0  0  0  0  0  0  0  0  0
   10.0574   -5.6051    0.0000 C   0  0  0  0  0  0  0  0  0  0  0  0
    8.9684   -4.5736    0.0000 C   0  0  0  0  0  0  0  0  0  0  0  0
    7.7743   -3.6658    0.0000 C   0  0  0  0  0  0  0  0  0  0  0  0
    6.4890   -2.8925    0.0000 C   0  0  0  0  0  0  0  0  0  0  0  0
    5.1276   -2.2626    0.0000 C   0  0  0  0  0  0  0  0  0  0  0  0
    3.7061   -1.7837    0.0000 C   0  0  0  0  0  0  0  0  0  0  0  0
    2.2412   -1.4612    0.0000 C   0  0  0  0  0  0  0  0  0  0  0  0
    0.7500   -1.2990    0.0000 C   0  0  0  0  0  0  0  0  0  0  0  0
    1.5000    0.0000    0.0000 C   0  0  0  0  0  0  0  0  0  0  0  0
    0.7500    1.2990    0.0000 C   0  0  0  0  0  0  0  0  0  0  0  0
   -0.7500    1.2990    0.0000 C   0  0  0  0  0  0  0  0  0  0  0  0
   -1.5000    0.0000    0.0000 C   0  0  0  0  0  0  0  0  0  0  0  0
   -0.7500   -1.2990    0.0000 C   0  0  0  0  0  0  0  0  0  0  0  0
  1  2  1  0
  2  3  1  0
  3  4  1  0
  4  5  1  0
  5  6  1  0
  6  7  1  0
  7  8  1  0
  8  9  1  0
  9 10  1  0
 10 11  1  0
 11 12  1  0
 12 13  1  0
 13 14  1  0
 14 15  1  0
 15 16  1  0
 16 17  1  0
 17 18  1  0
 18 19  1  0
 19 20  1  0
 20 21  1  0
 21 22  1  0
 22 23  1  0
 23 24  1  0
 24 25  1  0
 25 26  1  0
 26 27  1  0
 27 28  1  0
 28 29  1  0
 29 30  1  0
 30 31  1  0
 31 32  1  0
 32 33  1  0
 33 34  1  0
 34 35  1  0
 35 36  1  0
 36 37  1  0
 37 38  1  0
 38 39  1  0
 39 40  1  0
 40 41  1  0
 41 42  1  0
 42 43  1  0
 43 44  1  0
 44 45  1  0
 45 46  1  0
 46 47  1  0
 47 48  1  0
 48 49  1  0
 49 50  1  0
 50 51  1  0
 51 52  1  0
 52 53  1  0
 53 54  1  0
 54 55  1  0
 55 56  1  0
 56 57  1  0
 57 58  1  0
 58 59  2  0
 59 60  1  0
 60 61  2  0
 61 62  1  0
 62 63  2  0
 63  2  1  0
 63 58  1  0
M  END
>  <Title>  (859) 
idABFCgen10

$$$$

     RDKit          2D

 22 24  0  0  0  0  0  0  0  0999 V2000
    3.0000    0.0000    0.0000 C   0  0  0  0  0  0  0  0  0  0  0  0
    1.5000    0.0000    0.0000 C   0  0  0  0  0  0  0  0  0  0  0  0
    0.7500   -1.2990    0.0000 C   0  0  0  0  0  0  0  0  0  0  0  0
   -0.7500   -1.2990    0.0000 C   0  0  0  0  0  0  0  0  0  0  0  0
   -1.5000    0.0000    0.0000 C   0  0  0  0  0  0  0  0  0  0  0  0
   -0.7500    1.2990    0.0000 C   0  0  0  0  0  0  0  0  0  0  0  0
   -1.5000    2.5981    0.0000 C   0  0  0  0  0  0  0  0  0  0  0  0
   -3.0000    2.5981    0.0000 O   0  0  0  0  0  0  0  0  0  0  0  0
   -0.7500    3.8971    0.0000 N   0  0  0  0  0  0  0  0  0  0  0  0
   -1.5000    5.1962    0.0000 C   0  0  0  0  0  0  0  0  0  0  0  0
   -2.9918    5.3529    0.0000 N   0  0  0  0  0  0  0  0  0  0  0  0
   -3.3037    6.8202    0.0000 N   0  0  0  0  0  0  0  0  0  0  0  0
   -2.0046    7.5702    0.0000 N   0  0  0  0  0  0  0  0  0  0  0  0
   -0.8899    6.5665    0.0000 N   0  0  0  0  0  0  0  0  0  0  0  0
    0.5773    6.8783    0.0000 C   0  0  0  0  0  0  0  0  0  0  0  0
    1.1874    8.2487    0.0000 C   0  0  0  0  0  0  0  0  0  0  0  0
    2.6792    8.0919    0.0000 C   0  0  0  0  0  0  0  0  0  0  0  0
    2.9911    6.6246    0.0000 C   0  0  0  0  0  0  0  0  0  0  0  0
    1.6920    5.8746    0.0000 C   0  0  0  0  0  0  0  0  0  0  0  0
    1.5353    4.3829    0.0000 O   0  0  0  0  0  0  0  0  0  0  0  0
    0.7500    1.2990    0.0000 C   0  0  0  0  0  0  0  0  0  0  0  0
    1.5000    2.5981    0.0000 O   0  0  0  0  0  0  0  0  0  0  0  0
  1  2  1  0
  2  3  1  0
  3  4  2  0
  4  5  1  0
  5  6  2  0
  6  7  1  0
  7  8  2  0
  7  9  1  0
  9 10  1  0
 10 11  2  0
 11 12  1  0
 12 13  2  0
 13 14  1  0
 14 15  1  0
 15 16  2  0
 16 17  1  0
 17 18  2  0
 18 19  1  0
 19 20  2  0
  6 21  1  0
 21 22  2  0
 21  2  1  0
 14 10  1  0
 19 15  1  0
M  END
>  <Title>  (860) 
idABFDgen10

$$$$

     RDKit          2D

  5  5  0  0  0  0  0  0  0  0999 V2000
    1.2760    0.0000    0.0000 C   0  0  0  0  0  0  0  0  0  0  0  0
    0.3943    1.2135    0.0000 C   0  0  0  0  0  0  0  0  0  0  0  0
   -1.0323    0.7500    0.0000 C   0  0  0  0  0  0  0  0  0  0  0  0
   -1.0323   -0.7500    0.0000 C   0  0  0  0  0  0  0  0  0  0  0  0
    0.3943   -1.2135    0.0000 C   0  0  0  0  0  0  0  0  0  0  0  0
  1  2  2  0
  2  3  1  0
  3  4  1  0
  4  5  2  0
  5  1  1  0
M  END
>  <Title>  (861) 
idABFEgen10

$$$$

     RDKit          2D

 12 12  0  0  0  0  0  0  0  0999 V2000
    8.2500   -3.8971    0.0000 C   0  0  0  0  0  0  0  0  0  0  0  0
    7.5000   -2.5981    0.0000 C   0  0  0  0  0  0  0  0  0  0  0  0
    6.0000   -2.5981    0.0000 C   0  0  0  0  0  0  0  0  0  0  0  0
    5.2500   -1.2990    0.0000 N   0  0  0  0  0  0  0  0  0  0  0  0
    3.7500   -1.2990    0.0000 C   0  0  0  0  0  0  0  0  0  0  0  0
    3.0000    0.0000    0.0000 C   0  0  0  0  0  0  0  0  0  0  0  0
    1.5000    0.0000    0.0000 C   0  0  0  0  0  0  0  0  0  0  0  0
    0.7500   -1.2990    0.0000 C   0  0  0  0  0  0  0  0  0  0  0  0
   -0.7500   -1.2990    0.0000 C   0  0  0  0  0  0  0  0  0  0  0  0
   -1.5000    0.0000    0.0000 C   0  0  0  0  0  0  0  0  0  0  0  0
   -0.7500    1.2990    0.0000 C   0  0  0  0  0  0  0  0  0  0  0  0
    0.7500    1.2990    0.0000 C   0  0  0  0  0  0  0  0  0  0  0  0
  1  2  2  0
  2  3  1  0
  3  4  1  0
  4  5  1  0
  5  6  1  0
  6  7  1  0
  7  8  2  0
  8  9  1  0
  9 10  2  0
 10 11  1  0
 11 12  2  0
 12  7  1  0
M  END
>  <Title>  (862) 
idABFFgen10

$$$$

     RDKit          2D

 11 11  0  0  0  0  0  0  0  0999 V2000
    6.0000   -2.5981    0.0000 C   0  0  0  0  0  0  0  0  0  0  0  0
    5.2500   -1.2990    0.0000 C   0  0  0  0  0  0  0  0  0  0  0  0
    3.7500   -1.2990    0.0000 C   0  0  0  0  0  0  0  0  0  0  0  0
    3.0000    0.0000    0.0000 O   0  0  0  0  0  0  0  0  0  0  0  0
    1.5000    0.0000    0.0000 C   0  0  0  0  0  0  0  0  0  0  0  0
    0.7500   -1.2990    0.0000 C   0  0  0  0  0  0  0  0  0  0  0  0
   -0.7500   -1.2990    0.0000 C   0  0  0  0  0  0  0  0  0  0  0  0
   -1.5000    0.0000    0.0000 C   0  0  0  0  0  0  0  0  0  0  0  0
   -0.7500    1.2990    0.0000 C   0  0  0  0  0  0  0  0  0  0  0  0
   -1.5000    2.5981    0.0000 C   0  0  0  0  0  0  0  0  0  0  0  0
    0.7500    1.2990    0.0000 C   0  0  0  0  0  0  0  0  0  0  0  0
  1  2  2  0
  2  3  1  0
  3  4  1  0
  4  5  1  0
  5  6  2  0
  6  7  1  0
  7  8  2  0
  8  9  1  0
  9 10  1  0
  9 11  2  0
 11  5  1  0
M  END
>  <Title>  (863) 
idABFGgen10

$$$$

     RDKit          2D

  7  6  0  0  0  0  0  0  0  0999 V2000
    0.0000    0.0000    0.0000 C   0  0  0  0  0  0  0  0  0  0  0  0
    1.2990    0.7500    0.0000 C   0  0  0  0  0  0  0  0  0  0  0  0
    2.5981   -0.0000    0.0000 C   0  0  0  0  0  0  0  0  0  0  0  0
    1.2990    2.2500    0.0000 C   0  0  0  0  0  0  0  0  0  0  0  0
    1.2990    3.7500    0.0000 C   0  0  0  0  0  0  0  0  0  0  0  0
    1.2990    5.2500    0.0000 C   0  0  0  0  0  0  0  0  0  0  0  0
    1.2990    6.7500    0.0000 N   0  0  0  0  0  0  0  0  0  0  0  0
  1  2  1  0
  2  3  1  0
  2  4  1  0
  4  5  3  0
  5  6  1  0
  6  7  3  0
M  END
>  <Title>  (864) 
idABFHgen10

$$$$

     RDKit          2D

 78 81  0  0  0  0  0  0  0  0999 V2000
   -5.6459   -0.7306    0.0000 C   0  0  0  0  0  0  0  0  0  0  0  0
   -5.1553   -2.1481    0.0000 C   0  0  0  0  0  0  0  0  0  0  0  0
   -6.5479   -2.7056    0.0000 C   0  0  0  0  0  0  0  0  0  0  0  0
   -7.8811   -3.3929    0.0000 C   0  0  0  0  0  0  0  0  0  0  0  0
   -9.1430   -4.2039    0.0000 C   0  0  0  0  0  0  0  0  0  0  0  0
  -10.3221   -5.1311    0.0000 C   0  0  0  0  0  0  0  0  0  0  0  0
  -11.4077   -6.1662    0.0000 C   0  0  0  0  0  0  0  0  0  0  0  0
  -12.3900   -7.2999    0.0000 C   0  0  0  0  0  0  0  0  0  0  0  0
  -13.2601   -8.5217    0.0000 C   0  0  0  0  0  0  0  0  0  0  0  0
  -14.0101   -9.8208    0.0000 C   0  0  0  0  0  0  0  0  0  0  0  0
  -14.6332  -11.1852    0.0000 C   0  0  0  0  0  0  0  0  0  0  0  0
  -15.1238  -12.6027    0.0000 C   0  0  0  0  0  0  0  0  0  0  0  0
  -15.4774  -14.0604    0.0000 C   0  0  0  0  0  0  0  0  0  0  0  0
  -15.6909  -15.5452    0.0000 C   0  0  0  0  0  0  0  0  0  0  0  0
  -15.7623  -17.0435    0.0000 C   0  0  0  0  0  0  0  0  0  0  0  0
  -15.6909  -18.5418    0.0000 C   0  0  0  0  0  0  0  0  0  0  0  0
  -15.4774  -20.0265    0.0000 C   0  0  0  0  0  0  0  0  0  0  0  0
  -15.1238  -21.4842    0.0000 C   0  0  0  0  0  0  0  0  0  0  0  0
  -14.6332  -22.9017    0.0000 C   0  0  0  0  0  0  0  0  0  0  0  0
  -14.0101  -24.2662    0.0000 C   0  0  0  0  0  0  0  0  0  0  0  0
  -13.2601  -25.5652    0.0000 C   0  0  0  0  0  0  0  0  0  0  0  0
  -12.3900  -26.7871    0.0000 C   0  0  0  0  0  0  0  0  0  0  0  0
  -11.4077  -27.9207    0.0000 C   0  0  0  0  0  0  0  0  0  0  0  0
  -10.3221  -28.9558    0.0000 C   0  0  0  0  0  0  0  0  0  0  0  0
   -9.1430  -29.8831    0.0000 C   0  0  0  0  0  0  0  0  0  0  0  0
   -7.8811  -30.6940    0.0000 C   0  0  0  0  0  0  0  0  0  0  0  0
   -6.5479  -31.3814    0.0000 C   0  0  0  0  0  0  0  0  0  0  0  0
   -5.1553  -31.9389    0.0000 C   0  0  0  0  0  0  0  0  0  0  0  0
   -3.7161  -32.3615    0.0000 C   0  0  0  0  0  0  0  0  0  0  0  0
   -2.2432  -32.6453    0.0000 C   0  0  0  0  0  0  0  0  0  0  0  0
   -0.7500  -32.7879    0.0000 C   0  0  0  0  0  0  0  0  0  0  0  0
    0.7500  -32.7879    0.0000 C   0  0  0  0  0  0  0  0  0  0  0  0
    2.2432  -32.6453    0.0000 C   0  0  0  0  0  0  0  0  0  0  0  0
    3.7161  -32.3615    0.0000 C   0  0  0  0  0  0  0  0  0  0  0  0
    5.1553  -31.9389    0.0000 C   0  0  0  0  0  0  0  0  0  0  0  0
    6.5479  -31.3814    0.0000 C   0  0  0  0  0  0  0  0  0  0  0  0
    7.8811  -30.6940    0.0000 C   0  0  0  0  0  0  0  0  0  0  0  0
    9.1430  -29.8831    0.0000 C   0  0  0  0  0  0  0  0  0  0  0  0
   10.3221  -28.9558    0.0000 C   0  0  0  0  0  0  0  0  0  0  0  0
   11.4077  -27.9207    0.0000 C   0  0  0  0  0  0  0  0  0  0  0  0
   12.3900  -26.7871    0.0000 C   0  0  0  0  0  0  0  0  0  0  0  0
   13.2601  -25.5652    0.0000 C   0  0  0  0  0  0  0  0  0  0  0  0
   14.0101  -24.2662    0.0000 C   0  0  0  0  0  0  0  0  0  0  0  0
   14.6332  -22.9017    0.0000 C   0  0  0  0  0  0  0  0  0  0  0  0
   15.1238  -21.4842    0.0000 C   0  0  0  0  0  0  0  0  0  0  0  0
   15.4774  -20.0265    0.0000 C   0  0  0  0  0  0  0  0  0  0  0  0
   15.6909  -18.5418    0.0000 C   0  0  0  0  0  0  0  0  0  0  0  0
   15.7623  -17.0435    0.0000 C   0  0  0  0  0  0  0  0  0  0  0  0
   15.6909  -15.5452    0.0000 C   0  0  0  0  0  0  0  0  0  0  0  0
   15.4774  -14.0604    0.0000 C   0  0  0  0  0  0  0  0  0  0  0  0
   15.1238  -12.6027    0.0000 C   0  0  0  0  0  0  0  0  0  0  0  0
   14.6332  -11.1852    0.0000 C   0  0  0  0  0  0  0  0  0  0  0  0
   14.0101   -9.8208    0.0000 C   0  0  0  0  0  0  0  0  0  0  0  0
   13.2601   -8.5217    0.0000 C   0  0  0  0  0  0  0  0  0  0  0  0
   12.3900   -7.2999    0.0000 C   0  0  0  0  0  0  0  0  0  0  0  0
   11.4077   -6.1662    0.0000 C   0  0  0  0  0  0  0  0  0  0  0  0
   10.3221   -5.1311    0.0000 C   0  0  0  0  0  0  0  0  0  0  0  0
    9.1430   -4.2039    0.0000 C   0  0  0  0  0  0  0  0  0  0  0  0
    7.8811   -3.3929    0.0000 C   0  0  0  0  0  0  0  0  0  0  0  0
    6.5479   -2.7056    0.0000 C   0  0  0  0  0  0  0  0  0  0  0  0
    5.1553   -2.1481    0.0000 C   0  0  0  0  0  0  0  0  0  0  0  0
    3.7161   -1.7255    0.0000 C   0  0  0  0  0  0  0  0  0  0  0  0
    3.9013   -3.2140    0.0000 C   0  0  0  0  0  0  0  0  0  0  0  0
    2.5428   -3.8501    0.0000 C   0  0  0  0  0  0  0  0  0  0  0  0
    1.5181   -2.7547    0.0000 C   0  0  0  0  0  0  0  0  0  0  0  0
    2.2432   -1.4416    0.0000 C   0  0  0  0  0  0  0  0  0  0  0  0
    0.7500   -1.2990    0.0000 C   0  0  0  0  0  0  0  0  0  0  0  0
    1.5000    0.0000    0.0000 C   0  0  0  0  0  0  0  0  0  0  0  0
    0.7500    1.2990    0.0000 C   0  0  0  0  0  0  0  0  0  0  0  0
   -0.7500    1.2990    0.0000 C   0  0  0  0  0  0  0  0  0  0  0  0
   -1.5000    0.0000    0.0000 C   0  0  0  0  0  0  0  0  0  0  0  0
   -0.7500   -1.2990    0.0000 C   0  0  0  0  0  0  0  0  0  0  0  0
   -2.2432   -1.4416    0.0000 C   0  0  0  0  0  0  0  0  0  0  0  0
   -1.2609   -2.5752    0.0000 C   0  0  0  0  0  0  0  0  0  0  0  0
   -1.7515   -3.9927    0.0000 C   0  0  0  0  0  0  0  0  0  0  0  0
   -3.2244   -4.2766    0.0000 C   0  0  0  0  0  0  0  0  0  0  0  0
   -4.2067   -3.1430    0.0000 C   0  0  0  0  0  0  0  0  0  0  0  0
   -3.7161   -1.7255    0.0000 C   0  0  0  0  0  0  0  0  0  0  0  0
  1  2  1  0
  2  3  2  0
  3  4  1  0
  4  5  1  0
  5  6  2  0
  6  7  1  0
  7  8  2  0
  8  9  1  0
  9 10  2  0
 10 11  1  0
 11 12  2  0
 12 13  1  0
 13 14  2  0
 14 15  1  0
 15 16  2  0
 16 17  1  0
 17 18  2  0
 18 19  1  0
 19 20  2  0
 20 21  1  0
 21 22  2  0
 22 23  1  0
 23 24  2  0
 24 25  1  0
 25 26  2  0
 26 27  1  0
 27 28  2  0
 28 29  1  0
 29 30  2  0
 30 31  1  0
 31 32  2  0
 32 33  1  0
 33 34  2  0
 34 35  1  0
 35 36  2  0
 36 37  1  0
 37 38  2  0
 38 39  1  0
 39 40  2  0
 40 41  1  0
 41 42  2  0
 42 43  1  0
 43 44  2  0
 44 45  1  0
 45 46  2  0
 46 47  1  0
 47 48  2  0
 48 49  1  0
 49 50  2  0
 50 51  1  0
 51 52  2  0
 52 53  1  0
 53 54  2  0
 54 55  1  0
 55 56  2  0
 56 57  1  0
 57 58  2  0
 58 59  1  0
 59 60  2  0
 60 61  1  0
 61 62  2  0
 62 63  1  0
 63 64  2  0
 64 65  1  0
 65 66  2  0
 66 67  1  0
 67 68  2  0
 68 69  1  0
 69 70  2  0
 70 71  1  0
 71 72  2  0
 72 73  1  0
 73 74  2  0
 74 75  1  0
 75 76  2  0
 76 77  1  0
 77 78  2  0
 78  2  1  0
 66 62  1  0
 72 67  1  0
 78 73  1  0
M  END
>  <Title>  (865) 
idABFIgen10

$$$$

     RDKit          2D

 74 75  0  0  0  0  0  0  0  0999 V2000
   -2.2268   -1.0597    0.0000 C   0  0  0  0  0  0  0  0  0  0  0  0
   -2.4947    0.4162    0.0000 C   0  0  0  0  0  0  0  0  0  0  0  0
   -3.9811    0.2149    0.0000 C   0  0  0  0  0  0  0  0  0  0  0  0
   -5.4796    0.1476    0.0000 C   0  0  0  0  0  0  0  0  0  0  0  0
   -6.9781    0.2149    0.0000 C   0  0  0  0  0  0  0  0  0  0  0  0
   -8.4645    0.4162    0.0000 C   0  0  0  0  0  0  0  0  0  0  0  0
   -9.9269    0.7500    0.0000 C   0  0  0  0  0  0  0  0  0  0  0  0
  -11.3535    1.2135    0.0000 C   0  0  0  0  0  0  0  0  0  0  0  0
  -12.7328    1.8031    0.0000 C   0  0  0  0  0  0  0  0  0  0  0  0
  -14.0537    2.5139    0.0000 C   0  0  0  0  0  0  0  0  0  0  0  0
  -15.3055    3.3402    0.0000 C   0  0  0  0  0  0  0  0  0  0  0  0
  -16.4783    4.2754    0.0000 C   0  0  0  0  0  0  0  0  0  0  0  0
  -17.5625    5.3120    0.0000 C   0  0  0  0  0  0  0  0  0  0  0  0
  -18.5494    6.4416    0.0000 C   0  0  0  0  0  0  0  0  0  0  0  0
  -19.4311    7.6552    0.0000 C   0  0  0  0  0  0  0  0  0  0  0  0
  -20.2004    8.9428    0.0000 C   0  0  0  0  0  0  0  0  0  0  0  0
  -20.8512   10.2943    0.0000 C   0  0  0  0  0  0  0  0  0  0  0  0
  -21.3783   11.6987    0.0000 C   0  0  0  0  0  0  0  0  0  0  0  0
  -21.7773   13.1446    0.0000 C   0  0  0  0  0  0  0  0  0  0  0  0
  -22.0452   14.6205    0.0000 C   0  0  0  0  0  0  0  0  0  0  0  0
  -22.1796   16.1145    0.0000 C   0  0  0  0  0  0  0  0  0  0  0  0
  -22.1796   17.6145    0.0000 C   0  0  0  0  0  0  0  0  0  0  0  0
  -22.0452   19.1084    0.0000 C   0  0  0  0  0  0  0  0  0  0  0  0
  -21.7773   20.5843    0.0000 C   0  0  0  0  0  0  0  0  0  0  0  0
  -21.3783   22.0303    0.0000 C   0  0  0  0  0  0  0  0  0  0  0  0
  -20.8512   23.4346    0.0000 C   0  0  0  0  0  0  0  0  0  0  0  0
  -20.2004   24.7861    0.0000 C   0  0  0  0  0  0  0  0  0  0  0  0
  -19.4311   26.0737    0.0000 C   0  0  0  0  0  0  0  0  0  0  0  0
  -18.5494   27.2873    0.0000 C   0  0  0  0  0  0  0  0  0  0  0  0
  -17.5625   28.4169    0.0000 C   0  0  0  0  0  0  0  0  0  0  0  0
  -16.4783   29.4535    0.0000 C   0  0  0  0  0  0  0  0  0  0  0  0
  -15.3055   30.3887    0.0000 C   0  0  0  0  0  0  0  0  0  0  0  0
  -14.0537   31.2150    0.0000 C   0  0  0  0  0  0  0  0  0  0  0  0
  -12.7328   31.9258    0.0000 C   0  0  0  0  0  0  0  0  0  0  0  0
  -11.3535   32.5154    0.0000 C   0  0  0  0  0  0  0  0  0  0  0  0
   -9.9269   32.9789    0.0000 C   0  0  0  0  0  0  0  0  0  0  0  0
   -8.4645   33.3127    0.0000 C   0  0  0  0  0  0  0  0  0  0  0  0
   -6.9781   33.5140    0.0000 C   0  0  0  0  0  0  0  0  0  0  0  0
   -5.4796   33.5813    0.0000 C   0  0  0  0  0  0  0  0  0  0  0  0
   -3.9811   33.5140    0.0000 C   0  0  0  0  0  0  0  0  0  0  0  0
   -2.4947   33.3127    0.0000 C   0  0  0  0  0  0  0  0  0  0  0  0
   -1.0323   32.9789    0.0000 C   0  0  0  0  0  0  0  0  0  0  0  0
    0.3943   32.5154    0.0000 C   0  0  0  0  0  0  0  0  0  0  0  0
    1.7736   31.9258    0.0000 C   0  0  0  0  0  0  0  0  0  0  0  0
    3.0945   31.2150    0.0000 C   0  0  0  0  0  0  0  0  0  0  0  0
    4.3463   30.3887    0.0000 C   0  0  0  0  0  0  0  0  0  0  0  0
    5.5191   29.4535    0.0000 C   0  0  0  0  0  0  0  0  0  0  0  0
    6.6033   28.4169    0.0000 C   0  0  0  0  0  0  0  0  0  0  0  0
    7.5902   27.2873    0.0000 C   0  0  0  0  0  0  0  0  0  0  0  0
    8.4719   26.0737    0.0000 C   0  0  0  0  0  0  0  0  0  0  0  0
    9.2412   24.7861    0.0000 C   0  0  0  0  0  0  0  0  0  0  0  0
    9.8920   23.4346    0.0000 C   0  0  0  0  0  0  0  0  0  0  0  0
   10.4191   22.0303    0.0000 C   0  0  0  0  0  0  0  0  0  0  0  0
   10.8182   20.5843    0.0000 C   0  0  0  0  0  0  0  0  0  0  0  0
   11.0860   19.1084    0.0000 C   0  0  0  0  0  0  0  0  0  0  0  0
   11.2205   17.6145    0.0000 C   0  0  0  0  0  0  0  0  0  0  0  0
   11.2205   16.1145    0.0000 C   0  0  0  0  0  0  0  0  0  0  0  0
   11.0860   14.6205    0.0000 C   0  0  0  0  0  0  0  0  0  0  0  0
   10.8182   13.1446    0.0000 C   0  0  0  0  0  0  0  0  0  0  0  0
   10.4191   11.6987    0.0000 C   0  0  0  0  0  0  0  0  0  0  0  0
    9.8920   10.2943    0.0000 C   0  0  0  0  0  0  0  0  0  0  0  0
    9.2412    8.9428    0.0000 C   0  0  0  0  0  0  0  0  0  0  0  0
    8.4719    7.6552    0.0000 C   0  0  0  0  0  0  0  0  0  0  0  0
    7.5902    6.4416    0.0000 C   0  0  0  0  0  0  0  0  0  0  0  0
    6.6033    5.3120    0.0000 C   0  0  0  0  0  0  0  0  0  0  0  0
    5.5191    4.2754    0.0000 C   0  0  0  0  0  0  0  0  0  0  0  0
    4.3463    3.3402    0.0000 C   0  0  0  0  0  0  0  0  0  0  0  0
    3.0945    2.5139    0.0000 C   0  0  0  0  0  0  0  0  0  0  0  0
    1.7736    1.8031    0.0000 C   0  0  0  0  0  0  0  0  0  0  0  0
    0.3943    1.2135    0.0000 C   0  0  0  0  0  0  0  0  0  0  0  0
    1.2760    0.0000    0.0000 C   0  0  0  0  0  0  0  0  0  0  0  0
    0.3943   -1.2135    0.0000 C   0  0  0  0  0  0  0  0  0  0  0  0
   -1.0323   -0.7500    0.0000 C   0  0  0  0  0  0  0  0  0  0  0  0
   -1.0323    0.7500    0.0000 C   0  0  0  0  0  0  0  0  0  0  0  0
  1  2  1  0
  2  3  1  0
  3  4  1  0
  4  5  1  0
  5  6  1  0
  6  7  1  0
  7  8  1  0
  8  9  1  0
  9 10  1  0
 10 11  1  0
 11 12  1  0
 12 13  1  0
 13 14  1  0
 14 15  1  0
 15 16  1  0
 16 17  1  0
 17 18  1  0
 18 19  1  0
 19 20  1  0
 20 21  1  0
 21 22  1  0
 22 23  1  0
 23 24  1  0
 24 25  1  0
 25 26  1  0
 26 27  1  0
 27 28  1  0
 28 29  1  0
 29 30  1  0
 30 31  1  0
 31 32  1  0
 32 33  1  0
 33 34  1  0
 34 35  1  0
 35 36  1  0
 36 37  1  0
 37 38  1  0
 38 39  1  0
 39 40  1  0
 40 41  1  0
 41 42  2  0
 42 43  1  0
 43 44  2  0
 44 45  1  0
 45 46  2  0
 46 47  1  0
 47 48  2  0
 48 49  1  0
 49 50  2  0
 50 51  1  0
 51 52  2  0
 52 53  1  0
 53 54  2  0
 54 55  1  0
 55 56  2  0
 56 57  1  0
 57 58  2  0
 58 59  1  0
 59 60  2  0
 60 61  1  0
 61 62  2  0
 62 63  1  0
 63 64  2  0
 64 65  1  0
 65 66  2  0
 66 67  1  0
 67 68  2  0
 68 69  1  0
 69 70  2  0
 70 71  1  0
 71 72  2  0
 72 73  1  0
 73 74  2  0
 74  2  1  0
 74 70  1  0
M  END
>  <Title>  (866) 
idABFJgen10

$$$$

     RDKit          2D

  9  9  0  0  0  0  0  0  0  0999 V2000
    4.2760   -0.0000    0.0000 N   0  0  0  0  0  0  0  0  0  0  0  0
    2.7760    0.0000    0.0000 C   0  0  0  0  0  0  0  0  0  0  0  0
    1.2760    0.0000    0.0000 C   0  0  0  0  0  0  0  0  0  0  0  0
    0.3943    1.2135    0.0000 C   0  0  0  0  0  0  0  0  0  0  0  0
   -1.0323    0.7500    0.0000 C   0  0  0  0  0  0  0  0  0  0  0  0
   -2.2458    1.6317    0.0000 C   0  0  0  0  0  0  0  0  0  0  0  0
   -3.4593    2.5134    0.0000 N   0  0  0  0  0  0  0  0  0  0  0  0
   -1.0323   -0.7500    0.0000 C   0  0  0  0  0  0  0  0  0  0  0  0
    0.3943   -1.2135    0.0000 C   0  0  0  0  0  0  0  0  0  0  0  0
  1  2  3  0
  2  3  1  0
  3  4  2  0
  4  5  1  0
  5  6  1  0
  6  7  3  0
  5  8  1  0
  8  9  2  0
  9  3  1  0
M  END
>  <Title>  (867) 
idABFKgen10

$$$$

     RDKit          2D

 11 10  0  0  0  0  0  0  0  0999 V2000
    0.0000    0.0000    0.0000 C   0  0  0  0  0  0  0  0  0  0  0  0
   -0.0000   -1.5000    0.0000 C   0  0  0  0  0  0  0  0  0  0  0  0
   -0.0000   -3.0000    0.0000 C   0  0  0  0  0  0  0  0  0  0  0  0
   -0.0000   -4.5000    0.0000 C   0  0  0  0  0  0  0  0  0  0  0  0
   -0.0000   -6.0000    0.0000 C   0  0  0  0  0  0  0  0  0  0  0  0
    1.2990   -6.7500    0.0000 C   0  0  0  0  0  0  0  0  0  0  0  0
    1.2990   -8.2500    0.0000 C   0  0  0  0  0  0  0  0  0  0  0  0
    2.5981   -9.0000    0.0000 C   0  0  0  0  0  0  0  0  0  0  0  0
    2.5981  -10.5000    0.0000 C   0  0  0  0  0  0  0  0  0  0  0  0
    3.8971  -11.2500    0.0000 C   0  0  0  0  0  0  0  0  0  0  0  0
    3.8971  -12.7500    0.0000 C   0  0  0  0  0  0  0  0  0  0  0  0
  1  2  3  0
  2  3  1  0
  3  4  3  0
  4  5  1  0
  5  6  2  3
  6  7  1  0
  7  8  2  3
  8  9  1  0
  9 10  2  3
 10 11  1  0
M  END
>  <Title>  (868) 
idABFLgen10

$$$$

     RDKit          2D

106107  0  0  0  0  0  0  0  0999 V2000
   -2.3869    0.1012    0.0000 C   0  0  0  0  0  0  0  0  0  0  0  0
   -2.2471   -1.3923    0.0000 C   0  0  0  0  0  0  0  0  0  0  0  0
   -3.7355   -1.5784    0.0000 C   0  0  0  0  0  0  0  0  0  0  0  0
   -5.2095   -1.8568    0.0000 C   0  0  0  0  0  0  0  0  0  0  0  0
   -6.6633   -2.2262    0.0000 C   0  0  0  0  0  0  0  0  0  0  0  0
   -8.0913   -2.6853    0.0000 C   0  0  0  0  0  0  0  0  0  0  0  0
   -9.4880   -3.2322    0.0000 C   0  0  0  0  0  0  0  0  0  0  0  0
  -10.8480   -3.8650    0.0000 C   0  0  0  0  0  0  0  0  0  0  0  0
  -12.1660   -4.5811    0.0000 C   0  0  0  0  0  0  0  0  0  0  0  0
  -13.4370   -5.3777    0.0000 C   0  0  0  0  0  0  0  0  0  0  0  0
  -14.6560   -6.2518    0.0000 C   0  0  0  0  0  0  0  0  0  0  0  0
  -15.8183   -7.2000    0.0000 C   0  0  0  0  0  0  0  0  0  0  0  0
  -16.9194   -8.2187    0.0000 C   0  0  0  0  0  0  0  0  0  0  0  0
  -17.9550   -9.3038    0.0000 C   0  0  0  0  0  0  0  0  0  0  0  0
  -18.9212  -10.4512    0.0000 C   0  0  0  0  0  0  0  0  0  0  0  0
  -19.8141  -11.6564    0.0000 C   0  0  0  0  0  0  0  0  0  0  0  0
  -20.6304  -12.9148    0.0000 C   0  0  0  0  0  0  0  0  0  0  0  0
  -21.3669  -14.2216    0.0000 C   0  0  0  0  0  0  0  0  0  0  0  0
  -22.0208  -15.5716    0.0000 C   0  0  0  0  0  0  0  0  0  0  0  0
  -22.5894  -16.9596    0.0000 C   0  0  0  0  0  0  0  0  0  0  0  0
  -23.0706  -18.3803    0.0000 C   0  0  0  0  0  0  0  0  0  0  0  0
  -23.4626  -19.8282    0.0000 C   0  0  0  0  0  0  0  0  0  0  0  0
  -23.7638  -21.2977    0.0000 C   0  0  0  0  0  0  0  0  0  0  0  0
  -23.9731  -22.7830    0.0000 C   0  0  0  0  0  0  0  0  0  0  0  0
  -24.0896  -24.2785    0.0000 C   0  0  0  0  0  0  0  0  0  0  0  0
  -24.1129  -25.7783    0.0000 C   0  0  0  0  0  0  0  0  0  0  0  0
  -24.0430  -27.2766    0.0000 C   0  0  0  0  0  0  0  0  0  0  0  0
  -23.8800  -28.7678    0.0000 C   0  0  0  0  0  0  0  0  0  0  0  0
  -23.6246  -30.2459    0.0000 C   0  0  0  0  0  0  0  0  0  0  0  0
  -23.2779  -31.7052    0.0000 C   0  0  0  0  0  0  0  0  0  0  0  0
  -22.8411  -33.1402    0.0000 C   0  0  0  0  0  0  0  0  0  0  0  0
  -22.3159  -34.5453    0.0000 C   0  0  0  0  0  0  0  0  0  0  0  0
  -21.7043  -35.9150    0.0000 C   0  0  0  0  0  0  0  0  0  0  0  0
  -21.0088  -37.2440    0.0000 C   0  0  0  0  0  0  0  0  0  0  0  0
  -20.2321  -38.5272    0.0000 C   0  0  0  0  0  0  0  0  0  0  0  0
  -19.3770  -39.7596    0.0000 C   0  0  0  0  0  0  0  0  0  0  0  0
  -18.4470  -40.9365    0.0000 C   0  0  0  0  0  0  0  0  0  0  0  0
  -17.4456  -42.0533    0.0000 C   0  0  0  0  0  0  0  0  0  0  0  0
  -16.3767  -43.1057    0.0000 C   0  0  0  0  0  0  0  0  0  0  0  0
  -15.2445  -44.0896    0.0000 C   0  0  0  0  0  0  0  0  0  0  0  0
  -14.0533  -45.0012    0.0000 C   0  0  0  0  0  0  0  0  0  0  0  0
  -12.8077  -45.8370    0.0000 C   0  0  0  0  0  0  0  0  0  0  0  0
  -11.5126  -46.5937    0.0000 C   0  0  0  0  0  0  0  0  0  0  0  0
  -10.1729  -47.2684    0.0000 C   0  0  0  0  0  0  0  0  0  0  0  0
   -8.7939  -47.8586    0.0000 C   0  0  0  0  0  0  0  0  0  0  0  0
   -7.3808  -48.3619    0.0000 C   0  0  0  0  0  0  0  0  0  0  0  0
   -5.9392  -48.7763    0.0000 C   0  0  0  0  0  0  0  0  0  0  0  0
   -4.4746  -49.1003    0.0000 C   0  0  0  0  0  0  0  0  0  0  0  0
   -2.9927  -49.3327    0.0000 C   0  0  0  0  0  0  0  0  0  0  0  0
   -1.4993  -49.4724    0.0000 C   0  0  0  0  0  0  0  0  0  0  0  0
    0.0000  -49.5191    0.0000 C   0  0  0  0  0  0  0  0  0  0  0  0
    1.4993  -49.4724    0.0000 C   0  0  0  0  0  0  0  0  0  0  0  0
    2.9927  -49.3327    0.0000 C   0  0  0  0  0  0  0  0  0  0  0  0
    4.4746  -49.1003    0.0000 C   0  0  0  0  0  0  0  0  0  0  0  0
    5.9392  -48.7763    0.0000 C   0  0  0  0  0  0  0  0  0  0  0  0
    7.3808  -48.3619    0.0000 C   0  0  0  0  0  0  0  0  0  0  0  0
    8.7939  -47.8586    0.0000 C   0  0  0  0  0  0  0  0  0  0  0  0
   10.1729  -47.2684    0.0000 C   0  0  0  0  0  0  0  0  0  0  0  0
   11.5126  -46.5937    0.0000 C   0  0  0  0  0  0  0  0  0  0  0  0
   12.8077  -45.8370    0.0000 C   0  0  0  0  0  0  0  0  0  0  0  0
   14.0533  -45.0012    0.0000 C   0  0  0  0  0  0  0  0  0  0  0  0
   15.2445  -44.0896    0.0000 C   0  0  0  0  0  0  0  0  0  0  0  0
   16.3767  -43.1057    0.0000 C   0  0  0  0  0  0  0  0  0  0  0  0
   17.4456  -42.0533    0.0000 C   0  0  0  0  0  0  0  0  0  0  0  0
   18.4470  -40.9365    0.0000 C   0  0  0  0  0  0  0  0  0  0  0  0
   19.3770  -39.7596    0.0000 C   0  0  0  0  0  0  0  0  0  0  0  0
   20.2321  -38.5272    0.0000 C   0  0  0  0  0  0  0  0  0  0  0  0
   21.0088  -37.2440    0.0000 C   0  0  0  0  0  0  0  0  0  0  0  0
   21.7043  -35.9150    0.0000 C   0  0  0  0  0  0  0  0  0  0  0  0
   22.3159  -34.5453    0.0000 C   0  0  0  0  0  0  0  0  0  0  0  0
   22.8411  -33.1402    0.0000 C   0  0  0  0  0  0  0  0  0  0  0  0
   23.2779  -31.7052    0.0000 C   0  0  0  0  0  0  0  0  0  0  0  0
   23.6246  -30.2459    0.0000 C   0  0  0  0  0  0  0  0  0  0  0  0
   23.8800  -28.7678    0.0000 C   0  0  0  0  0  0  0  0  0  0  0  0
   24.0430  -27.2766    0.0000 C   0  0  0  0  0  0  0  0  0  0  0  0
   24.1129  -25.7783    0.0000 C   0  0  0  0  0  0  0  0  0  0  0  0
   24.0896  -24.2785    0.0000 C   0  0  0  0  0  0  0  0  0  0  0  0
   23.9731  -22.7830    0.0000 C   0  0  0  0  0  0  0  0  0  0  0  0
   23.7638  -21.2977    0.0000 C   0  0  0  0  0  0  0  0  0  0  0  0
   23.4626  -19.8282    0.0000 C   0  0  0  0  0  0  0  0  0  0  0  0
   23.0706  -18.3803    0.0000 C   0  0  0  0  0  0  0  0  0  0  0  0
   22.5894  -16.9596    0.0000 C   0  0  0  0  0  0  0  0  0  0  0  0
   22.0208  -15.5716    0.0000 C   0  0  0  0  0  0  0  0  0  0  0  0
   21.3669  -14.2216    0.0000 C   0  0  0  0  0  0  0  0  0  0  0  0
   20.6304  -12.9148    0.0000 C   0  0  0  0  0  0  0  0  0  0  0  0
   19.8141  -11.6564    0.0000 C   0  0  0  0  0  0  0  0  0  0  0  0
   18.9212  -10.4512    0.0000 C   0  0  0  0  0  0  0  0  0  0  0  0
   17.9550   -9.3038    0.0000 C   0  0  0  0  0  0  0  0  0  0  0  0
   16.9194   -8.2187    0.0000 C   0  0  0  0  0  0  0  0  0  0  0  0
   15.8183   -7.2000    0.0000 C   0  0  0  0  0  0  0  0  0  0  0  0
   14.6560   -6.2518    0.0000 C   0  0  0  0  0  0  0  0  0  0  0  0
   13.4370   -5.3777    0.0000 C   0  0  0  0  0  0  0  0  0  0  0  0
   12.1660   -4.5811    0.0000 C   0  0  0  0  0  0  0  0  0  0  0  0
   10.8480   -3.8650    0.0000 C   0  0  0  0  0  0  0  0  0  0  0  0
    9.4880   -3.2322    0.0000 C   0  0  0  0  0  0  0  0  0  0  0  0
    8.0913   -2.6853    0.0000 C   0  0  0  0  0  0  0  0  0  0  0  0
    6.6633   -2.2262    0.0000 C   0  0  0  0  0  0  0  0  0  0  0  0
    5.2095   -1.8568    0.0000 C   0  0  0  0  0  0  0  0  0  0  0  0
    3.7355   -1.5784    0.0000 C   0  0  0  0  0  0  0  0  0  0  0  0
    2.2471   -1.3923    0.0000 C   0  0  0  0  0  0  0  0  0  0  0  0
    0.7500   -1.2990    0.0000 C   0  0  0  0  0  0  0  0  0  0  0  0
    1.5000    0.0000    0.0000 C   0  0  0  0  0  0  0  0  0  0  0  0
    0.7500    1.2990    0.0000 C   0  0  0  0  0  0  0  0  0  0  0  0
   -0.7500    1.2990    0.0000 C   0  0  0  0  0  0  0  0  0  0  0  0
   -1.5000    0.0000    0.0000 C   0  0  0  0  0  0  0  0  0  0  0  0
   -0.7500   -1.2990    0.0000 C   0  0  0  0  0  0  0  0  0  0  0  0
  1  2  1  0
  2  3  1  0
  3  4  1  0
  4  5  1  0
  5  6  1  0
  6  7  1  0
  7  8  1  0
  8  9  1  0
  9 10  1  0
 10 11  1  0
 11 12  1  0
 12 13  1  0
 13 14  1  0
 14 15  1  0
 15 16  1  0
 16 17  1  0
 17 18  1  0
 18 19  1  0
 19 20  1  0
 20 21  1  0
 21 22  1  0
 22 23  1  0
 23 24  1  0
 24 25  1  0
 25 26  1  0
 26 27  1  0
 27 28  1  0
 28 29  1  0
 29 30  1  0
 30 31  1  0
 31 32  1  0
 32 33  1  0
 33 34  1  0
 34 35  1  0
 35 36  1  0
 36 37  1  0
 37 38  1  0
 38 39  1  0
 39 40  1  0
 40 41  1  0
 41 42  1  0
 42 43  1  0
 43 44  1  0
 44 45  1  0
 45 46  1  0
 46 47  1  0
 47 48  1  0
 48 49  1  0
 49 50  1  0
 50 51  1  0
 51 52  1  0
 52 53  1  0
 53 54  1  0
 54 55  1  0
 55 56  1  0
 56 57  1  0
 57 58  1  0
 58 59  1  0
 59 60  1  0
 60 61  1  0
 61 62  1  0
 62 63  1  0
 63 64  1  0
 64 65  1  0
 65 66  1  0
 66 67  1  0
 67 68  1  0
 68 69  1  0
 69 70  1  0
 70 71  1  0
 71 72  1  0
 72 73  1  0
 73 74  1  0
 74 75  1  0
 75 76  1  0
 76 77  1  0
 77 78  1  0
 78 79  1  0
 79 80  1  0
 80 81  1  0
 81 82  1  0
 82 83  1  0
 83 84  1  0
 84 85  1  0
 85 86  1  0
 86 87  1  0
 87 88  1  0
 88 89  1  0
 89 90  1  0
 90 91  1  0
 91 92  1  0
 92 93  1  0
 93 94  1  0
 94 95  1  0
 95 96  1  0
 96 97  2  0
 97 98  1  0
 98 99  2  0
 99100  1  0
100101  2  0
101102  1  0
102103  1  0
103104  1  0
104105  1  0
105106  1  0
106  2  1  0
106101  1  0
M  END
>  <Title>  (869) 
idABFMgen10

$$$$

     RDKit          2D

 11 11  0  0  0  0  0  0  0  0999 V2000
    6.0000   -5.1962    0.0000 C   0  0  0  0  0  0  0  0  0  0  0  0
    5.2500   -3.8971    0.0000 C   0  0  0  0  0  0  0  0  0  0  0  0
    4.5000   -2.5981    0.0000 C   0  0  0  0  0  0  0  0  0  0  0  0
    3.7500   -1.2990    0.0000 C   0  0  0  0  0  0  0  0  0  0  0  0
    3.0000    0.0000    0.0000 C   0  0  0  0  0  0  0  0  0  0  0  0
    1.5000    0.0000    0.0000 C   0  0  0  0  0  0  0  0  0  0  0  0
    0.7500   -1.2990    0.0000 C   0  0  0  0  0  0  0  0  0  0  0  0
   -0.7500   -1.2990    0.0000 C   0  0  0  0  0  0  0  0  0  0  0  0
   -1.5000    0.0000    0.0000 C   0  0  0  0  0  0  0  0  0  0  0  0
   -0.7500    1.2990    0.0000 C   0  0  0  0  0  0  0  0  0  0  0  0
    0.7500    1.2990    0.0000 C   0  0  0  0  0  0  0  0  0  0  0  0
  1  2  3  0
  2  3  1  0
  3  4  3  0
  4  5  1  0
  5  6  1  0
  6  7  2  0
  7  8  1  0
  8  9  2  0
  9 10  1  0
 10 11  2  0
 11  6  1  0
M  END
>  <Title>  (870) 
idABFNgen10

$$$$

     RDKit          2D

  7  6  0  0  0  0  0  0  0  0999 V2000
    0.0000    0.0000    0.0000 C   0  0  0  0  0  0  0  0  0  0  0  0
   -0.0000   -1.5000    0.0000 C   0  0  0  0  0  0  0  0  0  0  0  0
   -0.0000   -3.0000    0.0000 C   0  0  0  0  0  0  0  0  0  0  0  0
    1.5000   -3.0000    0.0000 C   0  0  0  0  0  0  0  0  0  0  0  0
   -1.5000   -3.0000    0.0000 C   0  0  0  0  0  0  0  0  0  0  0  0
   -0.0000   -4.5000    0.0000 C   0  0  0  0  0  0  0  0  0  0  0  0
   -1.2990   -5.2500    0.0000 C   0  0  0  0  0  0  0  0  0  0  0  0
  1  2  3  0
  2  3  1  0
  3  4  1  0
  3  5  1  0
  3  6  1  0
  6  7  1  0
M  END
>  <Title>  (871) 
idABFOgen10

$$$$

     RDKit          2D

 12 13  0  0  0  0  0  0  0  0999 V2000
   -4.5000   -2.5981    0.0000 C   0  0  0  0  0  0  0  0  0  0  0  0
   -3.0000   -2.5981    0.0000 C   0  0  0  0  0  0  0  0  0  0  0  0
   -1.5000   -2.5981    0.0000 C   0  0  0  0  0  0  0  0  0  0  0  0
   -0.7500   -3.8971    0.0000 C   0  0  0  0  0  0  0  0  0  0  0  0
    0.7500   -3.8971    0.0000 C   0  0  0  0  0  0  0  0  0  0  0  0
    1.5000   -2.5981    0.0000 C   0  0  0  0  0  0  0  0  0  0  0  0
    0.7500   -1.2990    0.0000 C   0  0  0  0  0  0  0  0  0  0  0  0
    1.5000    0.0000    0.0000 C   0  0  0  0  0  0  0  0  0  0  0  0
    0.7500    1.2990    0.0000 C   0  0  0  0  0  0  0  0  0  0  0  0
   -0.7500    1.2990    0.0000 C   0  0  0  0  0  0  0  0  0  0  0  0
   -1.5000    0.0000    0.0000 C   0  0  0  0  0  0  0  0  0  0  0  0
   -0.7500   -1.2990    0.0000 C   0  0  0  0  0  0  0  0  0  0  0  0
  1  2  3  0
  2  3  1  0
  3  4  1  0
  4  5  1  0
  5  6  1  0
  6  7  1  0
  7  8  2  0
  8  9  1  0
  9 10  2  0
 10 11  1  0
 11 12  2  0
 12  3  1  0
 12  7  1  0
M  END
>  <Title>  (872) 
idABFPgen10

$$$$

     RDKit          2D

 24 25  0  0  0  0  0  0  0  0999 V2000
    3.0000    0.0000    0.0000 C   0  0  0  0  0  0  0  0  0  0  0  0
    1.5000    0.0000    0.0000 C   0  0  0  0  0  0  0  0  0  0  0  0
    0.7500   -1.2990    0.0000 C   0  0  0  0  0  0  0  0  0  0  0  0
   -0.7500   -1.2990    0.0000 C   0  0  0  0  0  0  0  0  0  0  0  0
   -1.5000   -2.5981    0.0000 C   0  0  0  0  0  0  0  0  0  0  0  0
   -1.5000    0.0000    0.0000 N   0  0  0  0  0  0  0  0  0  0  0  0
   -3.0000    0.0000    0.0000 C   0  0  0  0  0  0  0  0  0  0  0  0
   -0.7500    1.2990    0.0000 C   0  0  0  0  0  0  0  0  0  0  0  0
   -1.5000    2.5981    0.0000 O   0  0  0  0  0  0  0  0  0  0  0  0
    0.7500    1.2990    0.0000 N   0  0  0  0  0  0  0  0  0  0  0  0
    1.5000    2.5981    0.0000 C   0  0  0  0  0  0  0  0  0  0  0  0
    3.0000    2.5981    0.0000 C   0  0  0  0  0  0  0  0  0  0  0  0
    3.7500    3.8971    0.0000 C   0  0  0  0  0  0  0  0  0  0  0  0
    3.0000    5.1962    0.0000 O   0  0  0  0  0  0  0  0  0  0  0  0
    5.2500    3.8971    0.0000 N   0  0  0  0  0  0  0  0  0  0  0  0
    6.0000    5.1962    0.0000 C   0  0  0  0  0  0  0  0  0  0  0  0
    7.5000    5.1962    0.0000 N   0  0  0  0  0  0  0  0  0  0  0  0
    8.2500    6.4952    0.0000 N   0  0  0  0  0  0  0  0  0  0  0  0
    7.5000    7.7942    0.0000 C   0  0  0  0  0  0  0  0  0  0  0  0
    6.0000    7.7942    0.0000 C   0  0  0  0  0  0  0  0  0  0  0  0
    5.2500    6.4952    0.0000 C   0  0  0  0  0  0  0  0  0  0  0  0
    3.7500    6.4952    0.0000 C   0  0  0  0  0  0  0  0  0  0  0  0
    3.0000    7.7942    0.0000 C   0  0  0  0  0  0  0  0  0  0  0  0
    1.5000    7.7942    0.0000 O   0  0  0  0  0  0  0  0  0  0  0  0
  1  2  1  0
  2  3  2  0
  3  4  1  0
  4  5  1  0
  4  6  1  0
  6  7  1  0
  6  8  1  0
  8  9  2  0
  8 10  1  0
 10 11  1  0
 11 12  1  0
 12 13  1  0
 13 14  2  0
 13 15  1  0
 15 16  1  0
 16 17  2  0
 17 18  1  0
 18 19  2  0
 19 20  1  0
 20 21  2  0
 21 22  1  0
 22 23  1  0
 23 24  2  0
 10  2  1  0
 21 16  1  0
M  END
>  <Title>  (873) 
idABFQgen10

$$$$

     RDKit          2D

 86 87  0  0  0  0  0  0  0  0999 V2000
   -2.4196    0.0746    0.0000 C   0  0  0  0  0  0  0  0  0  0  0  0
   -2.2455   -1.4153    0.0000 C   0  0  0  0  0  0  0  0  0  0  0  0
   -3.7275   -1.6471    0.0000 C   0  0  0  0  0  0  0  0  0  0  0  0
   -5.1870   -1.9930    0.0000 C   0  0  0  0  0  0  0  0  0  0  0  0
   -6.6154   -2.4510    0.0000 C   0  0  0  0  0  0  0  0  0  0  0  0
   -8.0040   -3.0183    0.0000 C   0  0  0  0  0  0  0  0  0  0  0  0
   -9.3444   -3.6915    0.0000 C   0  0  0  0  0  0  0  0  0  0  0  0
  -10.6287   -4.4665    0.0000 C   0  0  0  0  0  0  0  0  0  0  0  0
  -11.8490   -5.3388    0.0000 C   0  0  0  0  0  0  0  0  0  0  0  0
  -12.9981   -6.3029    0.0000 C   0  0  0  0  0  0  0  0  0  0  0  0
  -14.0690   -7.3533    0.0000 C   0  0  0  0  0  0  0  0  0  0  0  0
  -15.0553   -8.4834    0.0000 C   0  0  0  0  0  0  0  0  0  0  0  0
  -15.9510   -9.6866    0.0000 C   0  0  0  0  0  0  0  0  0  0  0  0
  -16.7508  -10.9556    0.0000 C   0  0  0  0  0  0  0  0  0  0  0  0
  -17.4499  -12.2827    0.0000 C   0  0  0  0  0  0  0  0  0  0  0  0
  -18.0440  -13.6600    0.0000 C   0  0  0  0  0  0  0  0  0  0  0  0
  -18.5296  -15.0793    0.0000 C   0  0  0  0  0  0  0  0  0  0  0  0
  -18.9038  -16.5319    0.0000 C   0  0  0  0  0  0  0  0  0  0  0  0
  -19.1642  -18.0091    0.0000 C   0  0  0  0  0  0  0  0  0  0  0  0
  -19.3095  -19.5020    0.0000 C   0  0  0  0  0  0  0  0  0  0  0  0
  -19.3385  -21.0017    0.0000 C   0  0  0  0  0  0  0  0  0  0  0  0
  -19.2513  -22.4992    0.0000 C   0  0  0  0  0  0  0  0  0  0  0  0
  -19.0483  -23.9854    0.0000 C   0  0  0  0  0  0  0  0  0  0  0  0
  -18.7308  -25.4514    0.0000 C   0  0  0  0  0  0  0  0  0  0  0  0
  -18.3006  -26.8884    0.0000 C   0  0  0  0  0  0  0  0  0  0  0  0
  -17.7603  -28.2877    0.0000 C   0  0  0  0  0  0  0  0  0  0  0  0
  -17.1132  -29.6410    0.0000 C   0  0  0  0  0  0  0  0  0  0  0  0
  -16.3632  -30.9400    0.0000 C   0  0  0  0  0  0  0  0  0  0  0  0
  -15.5148  -32.1770    0.0000 C   0  0  0  0  0  0  0  0  0  0  0  0
  -14.5731  -33.3446    0.0000 C   0  0  0  0  0  0  0  0  0  0  0  0
  -13.5437  -34.4356    0.0000 C   0  0  0  0  0  0  0  0  0  0  0  0
  -12.4329  -35.4436    0.0000 C   0  0  0  0  0  0  0  0  0  0  0  0
  -11.2473  -36.3625    0.0000 C   0  0  0  0  0  0  0  0  0  0  0  0
   -9.9941  -37.1868    0.0000 C   0  0  0  0  0  0  0  0  0  0  0  0
   -8.6808  -37.9115    0.0000 C   0  0  0  0  0  0  0  0  0  0  0  0
   -7.3152  -38.5322    0.0000 C   0  0  0  0  0  0  0  0  0  0  0  0
   -5.9057  -39.0452    0.0000 C   0  0  0  0  0  0  0  0  0  0  0  0
   -4.4606  -39.4475    0.0000 C   0  0  0  0  0  0  0  0  0  0  0  0
   -2.9887  -39.7365    0.0000 C   0  0  0  0  0  0  0  0  0  0  0  0
   -1.4989  -39.9107    0.0000 C   0  0  0  0  0  0  0  0  0  0  0  0
    0.0000  -39.9688    0.0000 C   0  0  0  0  0  0  0  0  0  0  0  0
    1.4989  -39.9107    0.0000 C   0  0  0  0  0  0  0  0  0  0  0  0
    2.9887  -39.7365    0.0000 C   0  0  0  0  0  0  0  0  0  0  0  0
    4.4606  -39.4475    0.0000 C   0  0  0  0  0  0  0  0  0  0  0  0
    5.9057  -39.0452    0.0000 C   0  0  0  0  0  0  0  0  0  0  0  0
    7.3152  -38.5322    0.0000 C   0  0  0  0  0  0  0  0  0  0  0  0
    8.6808  -37.9115    0.0000 C   0  0  0  0  0  0  0  0  0  0  0  0
    9.9941  -37.1868    0.0000 C   0  0  0  0  0  0  0  0  0  0  0  0
   11.2473  -36.3625    0.0000 C   0  0  0  0  0  0  0  0  0  0  0  0
   12.4329  -35.4436    0.0000 C   0  0  0  0  0  0  0  0  0  0  0  0
   13.5437  -34.4356    0.0000 C   0  0  0  0  0  0  0  0  0  0  0  0
   14.5731  -33.3446    0.0000 C   0  0  0  0  0  0  0  0  0  0  0  0
   15.5148  -32.1770    0.0000 C   0  0  0  0  0  0  0  0  0  0  0  0
   16.3632  -30.9400    0.0000 C   0  0  0  0  0  0  0  0  0  0  0  0
   17.1132  -29.6410    0.0000 C   0  0  0  0  0  0  0  0  0  0  0  0
   17.7603  -28.2877    0.0000 C   0  0  0  0  0  0  0  0  0  0  0  0
   18.3006  -26.8884    0.0000 C   0  0  0  0  0  0  0  0  0  0  0  0
   18.7308  -25.4514    0.0000 C   0  0  0  0  0  0  0  0  0  0  0  0
   19.0483  -23.9854    0.0000 C   0  0  0  0  0  0  0  0  0  0  0  0
   19.2513  -22.4992    0.0000 C   0  0  0  0  0  0  0  0  0  0  0  0
   19.3385  -21.0017    0.0000 C   0  0  0  0  0  0  0  0  0  0  0  0
   19.3095  -19.5020    0.0000 C   0  0  0  0  0  0  0  0  0  0  0  0
   19.1642  -18.0091    0.0000 C   0  0  0  0  0  0  0  0  0  0  0  0
   18.9038  -16.5319    0.0000 C   0  0  0  0  0  0  0  0  0  0  0  0
   18.5296  -15.0793    0.0000 C   0  0  0  0  0  0  0  0  0  0  0  0
   18.0440  -13.6600    0.0000 C   0  0  0  0  0  0  0  0  0  0  0  0
   17.4499  -12.2827    0.0000 C   0  0  0  0  0  0  0  0  0  0  0  0
   16.7508  -10.9556    0.0000 C   0  0  0  0  0  0  0  0  0  0  0  0
   15.9510   -9.6866    0.0000 C   0  0  0  0  0  0  0  0  0  0  0  0
   15.0553   -8.4834    0.0000 C   0  0  0  0  0  0  0  0  0  0  0  0
   14.0690   -7.3533    0.0000 C   0  0  0  0  0  0  0  0  0  0  0  0
   12.9981   -6.3029    0.0000 C   0  0  0  0  0  0  0  0  0  0  0  0
   11.8490   -5.3388    0.0000 C   0  0  0  0  0  0  0  0  0  0  0  0
   10.6287   -4.4665    0.0000 C   0  0  0  0  0  0  0  0  0  0  0  0
    9.3444   -3.6915    0.0000 C   0  0  0  0  0  0  0  0  0  0  0  0
    8.0040   -3.0183    0.0000 C   0  0  0  0  0  0  0  0  0  0  0  0
    6.6154   -2.4510    0.0000 C   0  0  0  0  0  0  0  0  0  0  0  0
    5.1870   -1.9930    0.0000 C   0  0  0  0  0  0  0  0  0  0  0  0
    3.7275   -1.6471    0.0000 C   0  0  0  0  0  0  0  0  0  0  0  0
    2.2455   -1.4153    0.0000 C   0  0  0  0  0  0  0  0  0  0  0  0
    0.7500   -1.2990    0.0000 C   0  0  0  0  0  0  0  0  0  0  0  0
    1.5000    0.0000    0.0000 C   0  0  0  0  0  0  0  0  0  0  0  0
    0.7500    1.2990    0.0000 C   0  0  0  0  0  0  0  0  0  0  0  0
   -0.7500    1.2990    0.0000 C   0  0  0  0  0  0  0  0  0  0  0  0
   -1.5000    0.0000    0.0000 C   0  0  0  0  0  0  0  0  0  0  0  0
   -0.7500   -1.2990    0.0000 C   0  0  0  0  0  0  0  0  0  0  0  0
  1  2  1  0
  2  3  1  0
  3  4  1  0
  4  5  1  0
  5  6  1  0
  6  7  1  0
  7  8  1  0
  8  9  1  0
  9 10  1  0
 10 11  1  0
 11 12  1  0
 12 13  1  0
 13 14  1  0
 14 15  1  0
 15 16  1  0
 16 17  1  0
 17 18  1  0
 18 19  1  0
 19 20  1  0
 20 21  1  0
 21 22  1  0
 22 23  1  0
 23 24  1  0
 24 25  1  0
 25 26  1  0
 26 27  1  0
 27 28  1  0
 28 29  1  0
 29 30  1  0
 30 31  1  0
 31 32  1  0
 32 33  1  0
 33 34  1  0
 34 35  1  0
 35 36  1  0
 36 37  1  0
 37 38  1  0
 38 39  1  0
 39 40  1  0
 40 41  1  0
 41 42  1  0
 42 43  1  0
 43 44  1  0
 44 45  1  0
 45 46  1  0
 46 47  1  0
 47 48  1  0
 48 49  1  0
 49 50  1  0
 50 51  1  0
 51 52  1  0
 52 53  1  0
 53 54  1  0
 54 55  1  0
 55 56  1  0
 56 57  1  0
 57 58  1  0
 58 59  1  0
 59 60  1  0
 60 61  1  0
 61 62  1  0
 62 63  1  0
 63 64  1  0
 64 65  1  0
 65 66  1  0
 66 67  1  0
 67 68  1  0
 68 69  1  0
 69 70  1  0
 70 71  1  0
 71 72  1  0
 72 73  1  0
 73 74  1  0
 74 75  1  0
 75 76  1  0
 76 77  1  0
 77 78  1  0
 78 79  1  0
 79 80  1  0
 80 81  1  0
 81 82  2  0
 82 83  1  0
 83 84  2  0
 84 85  1  0
 85 86  2  0
 86  2  1  0
 86 81  1  0
M  END
>  <Title>  (874) 
idABFRgen10

$$$$

     RDKit          2D

 10 11  0  0  0  0  0  0  0  0999 V2000
   -2.8713   -4.9204    0.0000 C   0  0  0  0  0  0  0  0  0  0  0  0
   -1.8107   -3.8597    0.0000 C   0  0  0  0  0  0  0  0  0  0  0  0
   -0.7500   -2.7990    0.0000 C   0  0  0  0  0  0  0  0  0  0  0  0
    0.7500   -2.7990    0.0000 C   0  0  0  0  0  0  0  0  0  0  0  0
    0.7500   -1.2990    0.0000 C   0  0  0  0  0  0  0  0  0  0  0  0
    1.5000    0.0000    0.0000 C   0  0  0  0  0  0  0  0  0  0  0  0
    0.7500    1.2990    0.0000 C   0  0  0  0  0  0  0  0  0  0  0  0
   -0.7500    1.2990    0.0000 C   0  0  0  0  0  0  0  0  0  0  0  0
   -1.5000    0.0000    0.0000 C   0  0  0  0  0  0  0  0  0  0  0  0
   -0.7500   -1.2990    0.0000 C   0  0  0  0  0  0  0  0  0  0  0  0
  1  2  3  0
  2  3  1  0
  3  4  1  0
  4  5  1  0
  5  6  2  0
  6  7  1  0
  7  8  2  0
  8  9  1  0
  9 10  2  0
 10  3  1  0
 10  5  1  0
M  END
>  <Title>  (875) 
idABFSgen10

$$$$

     RDKit          2D

 10 11  0  0  0  0  0  0  0  0999 V2000
    1.5000    0.0000    0.0000 C   0  0  0  0  0  0  0  0  0  0  0  0
    0.7500   -1.2990    0.0000 C   0  0  0  0  0  0  0  0  0  0  0  0
   -0.7500   -1.2990    0.0000 C   0  0  0  0  0  0  0  0  0  0  0  0
   -1.5000   -2.5981    0.0000 C   0  0  0  0  0  0  0  0  0  0  0  0
   -3.0000   -2.5981    0.0000 C   0  0  0  0  0  0  0  0  0  0  0  0
   -3.7500   -1.2990    0.0000 C   0  0  0  0  0  0  0  0  0  0  0  0
   -3.0000    0.0000    0.0000 C   0  0  0  0  0  0  0  0  0  0  0  0
   -1.5000    0.0000    0.0000 C   0  0  0  0  0  0  0  0  0  0  0  0
   -0.7500    1.2990    0.0000 C   0  0  0  0  0  0  0  0  0  0  0  0
    0.7500    1.2990    0.0000 C   0  0  0  0  0  0  0  0  0  0  0  0
  1  2  2  0
  2  3  1  0
  3  4  2  0
  4  5  1  0
  5  6  2  0
  6  7  1  0
  7  8  2  0
  8  9  1  0
  9 10  1  0
 10  1  1  0
  8  3  1  0
M  END
>  <Title>  (876) 
idABFTgen10

$$$$

     RDKit          2D

 85 88  0  0  0  0  0  0  0  0999 V2000
   -8.6320   -1.8949    0.0000 C   0  0  0  0  0  0  0  0  0  0  0  0
   -7.9394   -3.2254    0.0000 C   0  0  0  0  0  0  0  0  0  0  0  0
   -9.2384   -3.9754    0.0000 C   0  0  0  0  0  0  0  0  0  0  0  0
  -10.4672   -4.8358    0.0000 C   0  0  0  0  0  0  0  0  0  0  0  0
  -11.6162   -5.8000    0.0000 C   0  0  0  0  0  0  0  0  0  0  0  0
  -12.6769   -6.8606    0.0000 C   0  0  0  0  0  0  0  0  0  0  0  0
  -13.6411   -8.0097    0.0000 C   0  0  0  0  0  0  0  0  0  0  0  0
  -14.5014   -9.2384    0.0000 C   0  0  0  0  0  0  0  0  0  0  0  0
  -15.2514  -10.5375    0.0000 C   0  0  0  0  0  0  0  0  0  0  0  0
  -15.8854  -11.8969    0.0000 C   0  0  0  0  0  0  0  0  0  0  0  0
  -16.3984  -13.3065    0.0000 C   0  0  0  0  0  0  0  0  0  0  0  0
  -16.7866  -14.7554    0.0000 C   0  0  0  0  0  0  0  0  0  0  0  0
  -17.0471  -16.2326    0.0000 C   0  0  0  0  0  0  0  0  0  0  0  0
  -17.1778  -17.7269    0.0000 C   0  0  0  0  0  0  0  0  0  0  0  0
  -17.1778  -19.2269    0.0000 C   0  0  0  0  0  0  0  0  0  0  0  0
  -17.0471  -20.7212    0.0000 C   0  0  0  0  0  0  0  0  0  0  0  0
  -16.7866  -22.1984    0.0000 C   0  0  0  0  0  0  0  0  0  0  0  0
  -16.3984  -23.6473    0.0000 C   0  0  0  0  0  0  0  0  0  0  0  0
  -15.8854  -25.0568    0.0000 C   0  0  0  0  0  0  0  0  0  0  0  0
  -15.2514  -26.4163    0.0000 C   0  0  0  0  0  0  0  0  0  0  0  0
  -14.5014  -27.7153    0.0000 C   0  0  0  0  0  0  0  0  0  0  0  0
  -13.6411  -28.9440    0.0000 C   0  0  0  0  0  0  0  0  0  0  0  0
  -12.6769  -30.0931    0.0000 C   0  0  0  0  0  0  0  0  0  0  0  0
  -11.6162  -31.1537    0.0000 C   0  0  0  0  0  0  0  0  0  0  0  0
  -10.4672  -32.1179    0.0000 C   0  0  0  0  0  0  0  0  0  0  0  0
   -9.2384  -32.9783    0.0000 C   0  0  0  0  0  0  0  0  0  0  0  0
   -7.9394  -33.7283    0.0000 C   0  0  0  0  0  0  0  0  0  0  0  0
   -6.5799  -34.3622    0.0000 C   0  0  0  0  0  0  0  0  0  0  0  0
   -5.1704  -34.8753    0.0000 C   0  0  0  0  0  0  0  0  0  0  0  0
   -3.7215  -35.2635    0.0000 C   0  0  0  0  0  0  0  0  0  0  0  0
   -2.2443  -35.5240    0.0000 C   0  0  0  0  0  0  0  0  0  0  0  0
   -0.7500  -35.6547    0.0000 C   0  0  0  0  0  0  0  0  0  0  0  0
    0.7500  -35.6547    0.0000 C   0  0  0  0  0  0  0  0  0  0  0  0
    2.2443  -35.5240    0.0000 C   0  0  0  0  0  0  0  0  0  0  0  0
    3.7215  -35.2635    0.0000 C   0  0  0  0  0  0  0  0  0  0  0  0
    5.1704  -34.8753    0.0000 C   0  0  0  0  0  0  0  0  0  0  0  0
    6.5799  -34.3622    0.0000 C   0  0  0  0  0  0  0  0  0  0  0  0
    7.9394  -33.7283    0.0000 C   0  0  0  0  0  0  0  0  0  0  0  0
    9.2384  -32.9783    0.0000 C   0  0  0  0  0  0  0  0  0  0  0  0
   10.4672  -32.1179    0.0000 C   0  0  0  0  0  0  0  0  0  0  0  0
   11.6162  -31.1537    0.0000 C   0  0  0  0  0  0  0  0  0  0  0  0
   12.6769  -30.0931    0.0000 C   0  0  0  0  0  0  0  0  0  0  0  0
   13.6411  -28.9440    0.0000 C   0  0  0  0  0  0  0  0  0  0  0  0
   14.5014  -27.7153    0.0000 C   0  0  0  0  0  0  0  0  0  0  0  0
   15.2514  -26.4163    0.0000 C   0  0  0  0  0  0  0  0  0  0  0  0
   15.8854  -25.0568    0.0000 C   0  0  0  0  0  0  0  0  0  0  0  0
   16.3984  -23.6473    0.0000 C   0  0  0  0  0  0  0  0  0  0  0  0
   16.7866  -22.1984    0.0000 C   0  0  0  0  0  0  0  0  0  0  0  0
   17.0471  -20.7212    0.0000 C   0  0  0  0  0  0  0  0  0  0  0  0
   17.1778  -19.2269    0.0000 C   0  0  0  0  0  0  0  0  0  0  0  0
   17.1778  -17.7269    0.0000 C   0  0  0  0  0  0  0  0  0  0  0  0
   17.0471  -16.2326    0.0000 C   0  0  0  0  0  0  0  0  0  0  0  0
   16.7866  -14.7554    0.0000 C   0  0  0  0  0  0  0  0  0  0  0  0
   16.3984  -13.3065    0.0000 C   0  0  0  0  0  0  0  0  0  0  0  0
   15.8854  -11.8969    0.0000 C   0  0  0  0  0  0  0  0  0  0  0  0
   15.2514  -10.5375    0.0000 C   0  0  0  0  0  0  0  0  0  0  0  0
   14.5014   -9.2384    0.0000 C   0  0  0  0  0  0  0  0  0  0  0  0
   13.6411   -8.0097    0.0000 C   0  0  0  0  0  0  0  0  0  0  0  0
   12.6769   -6.8606    0.0000 C   0  0  0  0  0  0  0  0  0  0  0  0
   11.6162   -5.8000    0.0000 C   0  0  0  0  0  0  0  0  0  0  0  0
   10.4672   -4.8358    0.0000 C   0  0  0  0  0  0  0  0  0  0  0  0
    9.2384   -3.9754    0.0000 C   0  0  0  0  0  0  0  0  0  0  0  0
    7.9394   -3.2254    0.0000 C   0  0  0  0  0  0  0  0  0  0  0  0
    6.5799   -2.5915    0.0000 C   0  0  0  0  0  0  0  0  0  0  0  0
    5.1704   -2.0785    0.0000 C   0  0  0  0  0  0  0  0  0  0  0  0
    3.7215   -1.6902    0.0000 C   0  0  0  0  0  0  0  0  0  0  0  0
    2.2443   -1.4298    0.0000 C   0  0  0  0  0  0  0  0  0  0  0  0
    0.7500   -1.2990    0.0000 C   0  0  0  0  0  0  0  0  0  0  0  0
    1.5000    0.0000    0.0000 C   0  0  0  0  0  0  0  0  0  0  0  0
    0.7500    1.2990    0.0000 C   0  0  0  0  0  0  0  0  0  0  0  0
   -0.7500    1.2990    0.0000 C   0  0  0  0  0  0  0  0  0  0  0  0
   -1.5000    0.0000    0.0000 C   0  0  0  0  0  0  0  0  0  0  0  0
   -0.7500   -1.2990    0.0000 C   0  0  0  0  0  0  0  0  0  0  0  0
   -2.2443   -1.4298    0.0000 C   0  0  0  0  0  0  0  0  0  0  0  0
   -1.2801   -2.5788    0.0000 C   0  0  0  0  0  0  0  0  0  0  0  0
   -1.7931   -3.9884    0.0000 C   0  0  0  0  0  0  0  0  0  0  0  0
   -3.2704   -4.2488    0.0000 C   0  0  0  0  0  0  0  0  0  0  0  0
   -4.2345   -3.0998    0.0000 C   0  0  0  0  0  0  0  0  0  0  0  0
   -3.7215   -1.6902    0.0000 C   0  0  0  0  0  0  0  0  0  0  0  0
   -5.1704   -2.0785    0.0000 C   0  0  0  0  0  0  0  0  0  0  0  0
   -4.9099   -0.6013    0.0000 C   0  0  0  0  0  0  0  0  0  0  0  0
   -6.0590    0.3629    0.0000 C   0  0  0  0  0  0  0  0  0  0  0  0
   -7.4685   -0.1501    0.0000 C   0  0  0  0  0  0  0  0  0  0  0  0
   -7.7290   -1.6273    0.0000 C   0  0  0  0  0  0  0  0  0  0  0  0
   -6.5799   -2.5915    0.0000 C   0  0  0  0  0  0  0  0  0  0  0  0
  1  2  1  0
  2  3  1  0
  3  4  1  0
  4  5  1  0
  5  6  1  0
  6  7  1  0
  7  8  1  0
  8  9  1  0
  9 10  1  0
 10 11  1  0
 11 12  1  0
 12 13  1  0
 13 14  1  0
 14 15  1  0
 15 16  1  0
 16 17  1  0
 17 18  1  0
 18 19  1  0
 19 20  1  0
 20 21  1  0
 21 22  1  0
 22 23  1  0
 23 24  1  0
 24 25  1  0
 25 26  1  0
 26 27  1  0
 27 28  1  0
 28 29  1  0
 29 30  1  0
 30 31  1  0
 31 32  1  0
 32 33  1  0
 33 34  1  0
 34 35  1  0
 35 36  1  0
 36 37  1  0
 37 38  1  0
 38 39  1  0
 39 40  1  0
 40 41  1  0
 41 42  1  0
 42 43  1  0
 43 44  1  0
 44 45  1  0
 45 46  1  0
 46 47  1  0
 47 48  1  0
 48 49  1  0
 49 50  1  0
 50 51  1  0
 51 52  1  0
 52 53  1  0
 53 54  1  0
 54 55  1  0
 55 56  1  0
 56 57  1  0
 57 58  1  0
 58 59  1  0
 59 60  1  0
 60 61  1  0
 61 62  1  0
 62 63  1  0
 63 64  1  0
 64 65  1  0
 65 66  1  0
 66 67  1  0
 67 68  1  0
 68 69  2  0
 69 70  1  0
 70 71  2  0
 71 72  1  0
 72 73  2  0
 73 74  1  0
 74 75  2  0
 75 76  1  0
 76 77  2  0
 77 78  1  0
 78 79  2  0
 79 80  1  0
 80 81  2  0
 81 82  1  0
 82 83  2  0
 83 84  1  0
 84 85  2  0
 85  2  1  0
 73 68  1  0
 79 74  1  0
 85 80  1  0
M  END
>  <Title>  (877) 
idABFUgen10

$$$$

     RDKit          2D

  5  4  0  0  0  0  0  0  0  0999 V2000
    0.0000    0.0000    0.0000 C   0  0  0  0  0  0  0  0  0  0  0  0
    1.2990    0.7500    0.0000 C   0  0  0  0  0  0  0  0  0  0  0  0
    2.5981    1.5000    0.0000 C   0  0  0  0  0  0  0  0  0  0  0  0
    2.0490   -0.5490    0.0000 C   0  0  0  0  0  0  0  0  0  0  0  0
    0.5490    2.0490    0.0000 C   0  0  0  0  0  0  0  0  0  0  0  0
  1  2  1  0
  2  3  1  0
  2  4  1  0
  2  5  1  0
M  END
>  <Title>  (878) 
idABFVgen10

$$$$

     RDKit          2D

 66 68  0  0  0  0  0  0  0  0999 V2000
   -5.6878   -0.8894    0.0000 C   0  0  0  0  0  0  0  0  0  0  0  0
   -5.1233   -2.2791    0.0000 C   0  0  0  0  0  0  0  0  0  0  0  0
   -6.4799   -2.9193    0.0000 C   0  0  0  0  0  0  0  0  0  0  0  0
   -7.7577   -3.7048    0.0000 C   0  0  0  0  0  0  0  0  0  0  0  0
   -8.9414   -4.6261    0.0000 C   0  0  0  0  0  0  0  0  0  0  0  0
  -10.0166   -5.6721    0.0000 C   0  0  0  0  0  0  0  0  0  0  0  0
  -10.9702   -6.8299    0.0000 C   0  0  0  0  0  0  0  0  0  0  0  0
  -11.7906   -8.0857    0.0000 C   0  0  0  0  0  0  0  0  0  0  0  0
  -12.4679   -9.4241    0.0000 C   0  0  0  0  0  0  0  0  0  0  0  0
  -12.9939  -10.8288    0.0000 C   0  0  0  0  0  0  0  0  0  0  0  0
  -13.3621  -12.2829    0.0000 C   0  0  0  0  0  0  0  0  0  0  0  0
  -13.5681  -13.7687    0.0000 C   0  0  0  0  0  0  0  0  0  0  0  0
  -13.6095  -15.2681    0.0000 C   0  0  0  0  0  0  0  0  0  0  0  0
  -13.4856  -16.7630    0.0000 C   0  0  0  0  0  0  0  0  0  0  0  0
  -13.1980  -18.2352    0.0000 C   0  0  0  0  0  0  0  0  0  0  0  0
  -12.7503  -19.6668    0.0000 C   0  0  0  0  0  0  0  0  0  0  0  0
  -12.1477  -21.0405    0.0000 C   0  0  0  0  0  0  0  0  0  0  0  0
  -11.3977  -22.3395    0.0000 C   0  0  0  0  0  0  0  0  0  0  0  0
  -10.5094  -23.5482    0.0000 C   0  0  0  0  0  0  0  0  0  0  0  0
   -9.4934  -24.6517    0.0000 C   0  0  0  0  0  0  0  0  0  0  0  0
   -8.3623  -25.6369    0.0000 C   0  0  0  0  0  0  0  0  0  0  0  0
   -7.1296  -26.4916    0.0000 C   0  0  0  0  0  0  0  0  0  0  0  0
   -5.8104  -27.2055    0.0000 C   0  0  0  0  0  0  0  0  0  0  0  0
   -4.4207  -27.7700    0.0000 C   0  0  0  0  0  0  0  0  0  0  0  0
   -2.9773  -28.1781    0.0000 C   0  0  0  0  0  0  0  0  0  0  0  0
   -1.4977  -28.4250    0.0000 C   0  0  0  0  0  0  0  0  0  0  0  0
    0.0000  -28.5076    0.0000 C   0  0  0  0  0  0  0  0  0  0  0  0
    1.4977  -28.4250    0.0000 C   0  0  0  0  0  0  0  0  0  0  0  0
    2.9773  -28.1781    0.0000 C   0  0  0  0  0  0  0  0  0  0  0  0
    4.4207  -27.7700    0.0000 C   0  0  0  0  0  0  0  0  0  0  0  0
    5.8104  -27.2055    0.0000 C   0  0  0  0  0  0  0  0  0  0  0  0
    7.1296  -26.4916    0.0000 C   0  0  0  0  0  0  0  0  0  0  0  0
    8.3623  -25.6369    0.0000 C   0  0  0  0  0  0  0  0  0  0  0  0
    9.4934  -24.6517    0.0000 C   0  0  0  0  0  0  0  0  0  0  0  0
   10.5094  -23.5482    0.0000 C   0  0  0  0  0  0  0  0  0  0  0  0
   11.3977  -22.3395    0.0000 C   0  0  0  0  0  0  0  0  0  0  0  0
   12.1477  -21.0405    0.0000 C   0  0  0  0  0  0  0  0  0  0  0  0
   12.7503  -19.6668    0.0000 C   0  0  0  0  0  0  0  0  0  0  0  0
   13.1980  -18.2352    0.0000 C   0  0  0  0  0  0  0  0  0  0  0  0
   13.4856  -16.7630    0.0000 C   0  0  0  0  0  0  0  0  0  0  0  0
   13.6095  -15.2681    0.0000 C   0  0  0  0  0  0  0  0  0  0  0  0
   13.5681  -13.7687    0.0000 C   0  0  0  0  0  0  0  0  0  0  0  0
   13.3621  -12.2829    0.0000 C   0  0  0  0  0  0  0  0  0  0  0  0
   12.9939  -10.8288    0.0000 C   0  0  0  0  0  0  0  0  0  0  0  0
   12.4679   -9.4241    0.0000 C   0  0  0  0  0  0  0  0  0  0  0  0
   11.7906   -8.0857    0.0000 C   0  0  0  0  0  0  0  0  0  0  0  0
   10.9702   -6.8299    0.0000 C   0  0  0  0  0  0  0  0  0  0  0  0
   10.0166   -5.6721    0.0000 C   0  0  0  0  0  0  0  0  0  0  0  0
    8.9414   -4.6261    0.0000 C   0  0  0  0  0  0  0  0  0  0  0  0
    7.7577   -3.7048    0.0000 C   0  0  0  0  0  0  0  0  0  0  0  0
    6.4799   -2.9193    0.0000 C   0  0  0  0  0  0  0  0  0  0  0  0
    5.1233   -2.2791    0.0000 C   0  0  0  0  0  0  0  0  0  0  0  0
    3.7046   -1.7921    0.0000 C   0  0  0  0  0  0  0  0  0  0  0  0
    2.2409   -1.4641    0.0000 C   0  0  0  0  0  0  0  0  0  0  0  0
    0.7500   -1.2990    0.0000 C   0  0  0  0  0  0  0  0  0  0  0  0
    1.5000    0.0000    0.0000 C   0  0  0  0  0  0  0  0  0  0  0  0
    0.7500    1.2990    0.0000 C   0  0  0  0  0  0  0  0  0  0  0  0
   -0.7500    1.2990    0.0000 C   0  0  0  0  0  0  0  0  0  0  0  0
   -1.5000    0.0000    0.0000 C   0  0  0  0  0  0  0  0  0  0  0  0
   -0.7500   -1.2990    0.0000 C   0  0  0  0  0  0  0  0  0  0  0  0
   -2.2409   -1.4641    0.0000 C   0  0  0  0  0  0  0  0  0  0  0  0
   -1.2250   -2.5676    0.0000 C   0  0  0  0  0  0  0  0  0  0  0  0
   -1.6727   -3.9992    0.0000 C   0  0  0  0  0  0  0  0  0  0  0  0
   -3.1364   -4.3273    0.0000 C   0  0  0  0  0  0  0  0  0  0  0  0
   -4.1524   -3.2237    0.0000 C   0  0  0  0  0  0  0  0  0  0  0  0
   -3.7046   -1.7921    0.0000 C   0  0  0  0  0  0  0  0  0  0  0  0
  1  2  1  0
  2  3  1  0
  3  4  1  0
  4  5  1  0
  5  6  1  0
  6  7  1  0
  7  8  1  0
  8  9  1  0
  9 10  1  0
 10 11  1  0
 11 12  1  0
 12 13  1  0
 13 14  1  0
 14 15  1  0
 15 16  1  0
 16 17  1  0
 17 18  1  0
 18 19  1  0
 19 20  1  0
 20 21  1  0
 21 22  1  0
 22 23  1  0
 23 24  1  0
 24 25  1  0
 25 26  1  0
 26 27  1  0
 27 28  1  0
 28 29  1  0
 29 30  1  0
 30 31  1  0
 31 32  1  0
 32 33  1  0
 33 34  1  0
 34 35  1  0
 35 36  1  0
 36 37  1  0
 37 38  1  0
 38 39  1  0
 39 40  1  0
 40 41  1  0
 41 42  1  0
 42 43  1  0
 43 44  1  0
 44 45  1  0
 45 46  1  0
 46 47  1  0
 47 48  1  0
 48 49  1  0
 49 50  1  0
 50 51  1  0
 51 52  1  0
 52 53  1  0
 53 54  1  0
 54 55  1  0
 55 56  1  0
 56 57  1  0
 57 58  2  0
 58 59  1  0
 59 60  2  0
 60 61  1  0
 61 62  2  0
 62 63  1  0
 63 64  2  0
 64 65  1  0
 65 66  2  0
 66  2  1  0
 60 55  1  0
 66 61  1  0
M  END
>  <Title>  (879) 
idABFWgen10

$$$$

     RDKit          2D

 81 85  0  0  0  0  0  0  0  0999 V2000
   -8.6303   -2.1307    0.0000 C   0  0  0  0  0  0  0  0  0  0  0  0
   -7.8699   -3.4236    0.0000 C   0  0  0  0  0  0  0  0  0  0  0  0
   -9.1246   -4.2457    0.0000 C   0  0  0  0  0  0  0  0  0  0  0  0
  -10.2941   -5.1849    0.0000 C   0  0  0  0  0  0  0  0  0  0  0  0
  -11.3675   -6.2327    0.0000 C   0  0  0  0  0  0  0  0  0  0  0  0
  -12.3347   -7.3792    0.0000 C   0  0  0  0  0  0  0  0  0  0  0  0
  -13.1868   -8.6137    0.0000 C   0  0  0  0  0  0  0  0  0  0  0  0
  -13.9158   -9.9246    0.0000 C   0  0  0  0  0  0  0  0  0  0  0  0
  -14.5149  -11.2998    0.0000 C   0  0  0  0  0  0  0  0  0  0  0  0
  -14.9784  -12.7264    0.0000 C   0  0  0  0  0  0  0  0  0  0  0  0
  -15.3021  -14.1910    0.0000 C   0  0  0  0  0  0  0  0  0  0  0  0
  -15.4829  -15.6801    0.0000 C   0  0  0  0  0  0  0  0  0  0  0  0
  -15.5191  -17.1797    0.0000 C   0  0  0  0  0  0  0  0  0  0  0  0
  -15.4105  -18.6757    0.0000 C   0  0  0  0  0  0  0  0  0  0  0  0
  -15.1579  -20.1543    0.0000 C   0  0  0  0  0  0  0  0  0  0  0  0
  -14.7639  -21.6016    0.0000 C   0  0  0  0  0  0  0  0  0  0  0  0
  -14.2320  -23.0042    0.0000 C   0  0  0  0  0  0  0  0  0  0  0  0
  -13.5672  -24.3488    0.0000 C   0  0  0  0  0  0  0  0  0  0  0  0
  -12.7757  -25.6230    0.0000 C   0  0  0  0  0  0  0  0  0  0  0  0
  -11.8650  -26.8149    0.0000 C   0  0  0  0  0  0  0  0  0  0  0  0
  -10.8434  -27.9133    0.0000 C   0  0  0  0  0  0  0  0  0  0  0  0
   -9.7207  -28.9080    0.0000 C   0  0  0  0  0  0  0  0  0  0  0  0
   -8.5072  -29.7896    0.0000 C   0  0  0  0  0  0  0  0  0  0  0  0
   -7.2142  -30.5501    0.0000 C   0  0  0  0  0  0  0  0  0  0  0  0
   -5.8539  -31.1822    0.0000 C   0  0  0  0  0  0  0  0  0  0  0  0
   -4.4389  -31.6800    0.0000 C   0  0  0  0  0  0  0  0  0  0  0  0
   -2.9825  -32.0390    0.0000 C   0  0  0  0  0  0  0  0  0  0  0  0
   -1.4982  -32.2557    0.0000 C   0  0  0  0  0  0  0  0  0  0  0  0
   -0.0000  -32.3282    0.0000 C   0  0  0  0  0  0  0  0  0  0  0  0
    1.4982  -32.2557    0.0000 C   0  0  0  0  0  0  0  0  0  0  0  0
    2.9825  -32.0390    0.0000 C   0  0  0  0  0  0  0  0  0  0  0  0
    4.4389  -31.6800    0.0000 C   0  0  0  0  0  0  0  0  0  0  0  0
    5.8539  -31.1822    0.0000 C   0  0  0  0  0  0  0  0  0  0  0  0
    7.2142  -30.5501    0.0000 C   0  0  0  0  0  0  0  0  0  0  0  0
    8.5072  -29.7896    0.0000 C   0  0  0  0  0  0  0  0  0  0  0  0
    9.7207  -28.9080    0.0000 C   0  0  0  0  0  0  0  0  0  0  0  0
   10.8434  -27.9133    0.0000 C   0  0  0  0  0  0  0  0  0  0  0  0
   11.8650  -26.8149    0.0000 C   0  0  0  0  0  0  0  0  0  0  0  0
   12.7757  -25.6230    0.0000 C   0  0  0  0  0  0  0  0  0  0  0  0
   13.5672  -24.3488    0.0000 C   0  0  0  0  0  0  0  0  0  0  0  0
   14.2320  -23.0042    0.0000 C   0  0  0  0  0  0  0  0  0  0  0  0
   14.7639  -21.6016    0.0000 C   0  0  0  0  0  0  0  0  0  0  0  0
   15.1579  -20.1543    0.0000 C   0  0  0  0  0  0  0  0  0  0  0  0
   15.4105  -18.6757    0.0000 C   0  0  0  0  0  0  0  0  0  0  0  0
   15.5191  -17.1797    0.0000 C   0  0  0  0  0  0  0  0  0  0  0  0
   15.4829  -15.6801    0.0000 C   0  0  0  0  0  0  0  0  0  0  0  0
   15.3021  -14.1910    0.0000 C   0  0  0  0  0  0  0  0  0  0  0  0
   14.9784  -12.7264    0.0000 C   0  0  0  0  0  0  0  0  0  0  0  0
   14.5149  -11.2998    0.0000 C   0  0  0  0  0  0  0  0  0  0  0  0
   13.9158   -9.9246    0.0000 C   0  0  0  0  0  0  0  0  0  0  0  0
   13.1868   -8.6137    0.0000 C   0  0  0  0  0  0  0  0  0  0  0  0
   12.3347   -7.3792    0.0000 C   0  0  0  0  0  0  0  0  0  0  0  0
   11.3675   -6.2327    0.0000 C   0  0  0  0  0  0  0  0  0  0  0  0
   10.2941   -5.1849    0.0000 C   0  0  0  0  0  0  0  0  0  0  0  0
    9.1246   -4.2457    0.0000 C   0  0  0  0  0  0  0  0  0  0  0  0
    7.8699   -3.4236    0.0000 C   0  0  0  0  0  0  0  0  0  0  0  0
    6.5417   -2.7266    0.0000 C   0  0  0  0  0  0  0  0  0  0  0  0
    5.1524   -2.1609    0.0000 C   0  0  0  0  0  0  0  0  0  0  0  0
    3.7151   -1.7320    0.0000 C   0  0  0  0  0  0  0  0  0  0  0  0
    3.8959   -3.2211    0.0000 C   0  0  0  0  0  0  0  0  0  0  0  0
    2.5355   -3.8532    0.0000 C   0  0  0  0  0  0  0  0  0  0  0  0
    1.5140   -2.7548    0.0000 C   0  0  0  0  0  0  0  0  0  0  0  0
    2.2430   -1.4438    0.0000 C   0  0  0  0  0  0  0  0  0  0  0  0
    0.7500   -1.2990    0.0000 C   0  0  0  0  0  0  0  0  0  0  0  0
    1.5000    0.0000    0.0000 C   0  0  0  0  0  0  0  0  0  0  0  0
    0.7500    1.2990    0.0000 C   0  0  0  0  0  0  0  0  0  0  0  0
   -0.7500    1.2990    0.0000 C   0  0  0  0  0  0  0  0  0  0  0  0
   -1.5000    0.0000    0.0000 C   0  0  0  0  0  0  0  0  0  0  0  0
   -0.7500   -1.2990    0.0000 C   0  0  0  0  0  0  0  0  0  0  0  0
   -2.2430   -1.4438    0.0000 C   0  0  0  0  0  0  0  0  0  0  0  0
   -1.2574   -2.5746    0.0000 C   0  0  0  0  0  0  0  0  0  0  0  0
   -1.7438   -3.9935    0.0000 C   0  0  0  0  0  0  0  0  0  0  0  0
   -3.2159   -4.2817    0.0000 C   0  0  0  0  0  0  0  0  0  0  0  0
   -4.2015   -3.1509    0.0000 C   0  0  0  0  0  0  0  0  0  0  0  0
   -3.7151   -1.7320    0.0000 C   0  0  0  0  0  0  0  0  0  0  0  0
   -5.1524   -2.1609    0.0000 C   0  0  0  0  0  0  0  0  0  0  0  0
   -4.9477   -0.6750    0.0000 C   0  0  0  0  0  0  0  0  0  0  0  0
   -6.1321    0.2454    0.0000 C   0  0  0  0  0  0  0  0  0  0  0  0
   -7.5214   -0.3203    0.0000 C   0  0  0  0  0  0  0  0  0  0  0  0
   -7.7262   -1.8062    0.0000 C   0  0  0  0  0  0  0  0  0  0  0  0
   -6.5417   -2.7266    0.0000 C   0  0  0  0  0  0  0  0  0  0  0  0
  1  2  1  0
  2  3  1  0
  3  4  1  0
  4  5  1  0
  5  6  1  0
  6  7  1  0
  7  8  1  0
  8  9  1  0
  9 10  1  0
 10 11  1  0
 11 12  1  0
 12 13  2  0
 13 14  1  0
 14 15  2  0
 15 16  1  0
 16 17  2  0
 17 18  1  0
 18 19  2  0
 19 20  1  0
 20 21  2  0
 21 22  1  0
 22 23  2  0
 23 24  1  0
 24 25  2  0
 25 26  1  0
 26 27  2  0
 27 28  1  0
 28 29  2  0
 29 30  1  0
 30 31  2  0
 31 32  1  0
 32 33  2  0
 33 34  1  0
 34 35  2  0
 35 36  1  0
 36 37  2  0
 37 38  1  0
 38 39  2  0
 39 40  1  0
 40 41  2  0
 41 42  1  0
 42 43  2  0
 43 44  1  0
 44 45  2  0
 45 46  1  0
 46 47  2  0
 47 48  1  0
 48 49  2  0
 49 50  1  0
 50 51  2  0
 51 52  1  0
 52 53  2  0
 53 54  1  0
 54 55  2  0
 55 56  1  0
 56 57  2  0
 57 58  1  0
 58 59  2  0
 59 60  1  0
 60 61  2  0
 61 62  1  0
 62 63  2  0
 63 64  1  0
 64 65  2  0
 65 66  1  0
 66 67  2  0
 67 68  1  0
 68 69  2  0
 69 70  1  0
 70 71  2  0
 71 72  1  0
 72 73  2  0
 73 74  1  0
 74 75  2  0
 75 76  1  0
 76 77  2  0
 77 78  1  0
 78 79  2  0
 79 80  1  0
 80 81  2  0
 81  2  1  0
 63 59  1  0
 69 64  1  0
 75 70  1  0
 81 76  1  0
M  END
>  <Title>  (880) 
idABFXgen10

$$$$

     RDKit          2D

 19 20  0  0  0  0  0  0  0  0999 V2000
    7.5000    0.0000    0.0000 C   0  0  0  0  0  0  0  0  0  0  0  0
    6.0000    0.0000    0.0000 C   0  0  0  0  0  0  0  0  0  0  0  0
    4.5000    0.0000    0.0000 C   0  0  0  0  0  0  0  0  0  0  0  0
    3.0000    0.0000    0.0000 C   0  0  0  0  0  0  0  0  0  0  0  0
    1.5000    0.0000    0.0000 C   0  0  0  0  0  0  0  0  0  0  0  0
    0.7500   -1.2990    0.0000 C   0  0  0  0  0  0  0  0  0  0  0  0
   -0.7500   -1.2990    0.0000 C   0  0  0  0  0  0  0  0  0  0  0  0
   -1.5000    0.0000    0.0000 C   0  0  0  0  0  0  0  0  0  0  0  0
   -0.7500    1.2990    0.0000 C   0  0  0  0  0  0  0  0  0  0  0  0
    0.7500    1.2990    0.0000 C   0  0  0  0  0  0  0  0  0  0  0  0
    1.5000    2.5981    0.0000 C   0  0  0  0  0  0  0  0  0  0  0  0
    3.0000    2.5981    0.0000 O   0  0  0  0  0  0  0  0  0  0  0  0
    0.7500    3.8971    0.0000 N   0  0  0  0  0  0  0  0  0  0  0  0
    1.5000    5.1962    0.0000 C   0  0  0  0  0  0  0  0  0  0  0  0
    3.0000    5.1962    0.0000 C   0  0  0  0  0  0  0  0  0  0  0  0
    3.7500    6.4952    0.0000 C   0  0  0  0  0  0  0  0  0  0  0  0
    3.0000    7.7942    0.0000 C   0  0  0  0  0  0  0  0  0  0  0  0
    1.5000    7.7942    0.0000 N   0  0  0  0  0  0  0  0  0  0  0  0
    0.7500    6.4952    0.0000 N   0  0  0  0  0  0  0  0  0  0  0  0
  1  2  3  0
  2  3  1  0
  3  4  3  0
  4  5  1  0
  5  6  2  0
  6  7  1  0
  7  8  2  0
  8  9  1  0
  9 10  2  0
 10 11  1  0
 11 12  2  0
 11 13  1  0
 13 14  1  0
 14 15  2  0
 15 16  1  0
 16 17  2  0
 17 18  1  0
 18 19  2  0
 10  5  1  0
 19 14  1  0
M  END
>  <Title>  (881) 
idABFYgen10

$$$$

     RDKit          2D

 55 63  0  0  0  0  0  0  0  0999 V2000
    5.8191   -5.5525    0.0000 C   0  0  0  0  0  0  0  0  0  0  0  0
    4.3191   -5.5525    0.0000 C   0  0  0  0  0  0  0  0  0  0  0  0
    4.0586   -4.0753    0.0000 C   0  0  0  0  0  0  0  0  0  0  0  0
    3.3086   -2.7762    0.0000 C   0  0  0  0  0  0  0  0  0  0  0  0
    2.1595   -1.8121    0.0000 C   0  0  0  0  0  0  0  0  0  0  0  0
    2.9095   -0.5130    0.0000 C   0  0  0  0  0  0  0  0  0  0  0  0
    2.1595    0.7860    0.0000 O   0  0  0  0  0  0  0  0  0  0  0  0
    4.4095   -0.5130    0.0000 N   0  0  0  0  0  0  0  0  0  0  0  0
    5.1595    0.7860    0.0000 C   0  0  0  0  0  0  0  0  0  0  0  0
    6.6595    0.7860    0.0000 N   0  0  0  0  0  0  0  0  0  0  0  0
    7.4095    2.0850    0.0000 N   0  0  0  0  0  0  0  0  0  0  0  0
    6.6595    3.3841    0.0000 N   0  0  0  0  0  0  0  0  0  0  0  0
    5.1595    3.3841    0.0000 N   0  0  0  0  0  0  0  0  0  0  0  0
    4.4095    2.0850    0.0000 N   0  0  0  0  0  0  0  0  0  0  0  0
    0.7500   -1.2990    0.0000 C   0  0  0  0  0  0  0  0  0  0  0  0
    1.5000    0.0000    0.0000 C   0  0  0  0  0  0  0  0  0  0  0  0
    0.7500    1.2990    0.0000 C   0  0  0  0  0  0  0  0  0  0  0  0
   -0.7500    1.2990    0.0000 C   0  0  0  0  0  0  0  0  0  0  0  0
   -1.5000    0.0000    0.0000 C   0  0  0  0  0  0  0  0  0  0  0  0
   -0.7500   -1.2990    0.0000 C   0  0  0  0  0  0  0  0  0  0  0  0
   -2.1595   -1.8121    0.0000 C   0  0  0  0  0  0  0  0  0  0  0  0
   -2.7214   -0.4213    0.0000 C   0  0  0  0  0  0  0  0  0  0  0  0
   -4.2178   -0.5259    0.0000 C   0  0  0  0  0  0  0  0  0  0  0  0
   -4.5807   -1.9814    0.0000 C   0  0  0  0  0  0  0  0  0  0  0  0
   -3.3086   -2.7762    0.0000 C   0  0  0  0  0  0  0  0  0  0  0  0
   -4.0586   -4.0753    0.0000 C   0  0  0  0  0  0  0  0  0  0  0  0
   -5.2077   -3.1111    0.0000 C   0  0  0  0  0  0  0  0  0  0  0  0
   -6.6172   -3.6241    0.0000 C   0  0  0  0  0  0  0  0  0  0  0  0
   -6.8777   -5.1013    0.0000 C   0  0  0  0  0  0  0  0  0  0  0  0
   -5.7286   -6.0655    0.0000 C   0  0  0  0  0  0  0  0  0  0  0  0
   -4.3191   -5.5525    0.0000 C   0  0  0  0  0  0  0  0  0  0  0  0
   -4.0586   -7.0297    0.0000 C   0  0  0  0  0  0  0  0  0  0  0  0
   -5.5586   -7.0297    0.0000 C   0  0  0  0  0  0  0  0  0  0  0  0
   -6.3086   -8.3287    0.0000 C   0  0  0  0  0  0  0  0  0  0  0  0
   -5.5586   -9.6278    0.0000 C   0  0  0  0  0  0  0  0  0  0  0  0
   -4.0586   -9.6278    0.0000 C   0  0  0  0  0  0  0  0  0  0  0  0
   -3.3086   -8.3287    0.0000 C   0  0  0  0  0  0  0  0  0  0  0  0
   -2.1595   -9.2929    0.0000 C   0  0  0  0  0  0  0  0  0  0  0  0
   -3.3086  -10.2571    0.0000 C   0  0  0  0  0  0  0  0  0  0  0  0
   -3.0481  -11.7343    0.0000 C   0  0  0  0  0  0  0  0  0  0  0  0
   -1.6386  -12.2474    0.0000 C   0  0  0  0  0  0  0  0  0  0  0  0
   -0.4895  -11.2832    0.0000 C   0  0  0  0  0  0  0  0  0  0  0  0
   -0.7500   -9.8060    0.0000 C   0  0  0  0  0  0  0  0  0  0  0  0
    0.7500   -9.8060    0.0000 C   0  0  0  0  0  0  0  0  0  0  0  0
    0.4895  -11.2832    0.0000 C   0  0  0  0  0  0  0  0  0  0  0  0
    1.6386  -12.2474    0.0000 C   0  0  0  0  0  0  0  0  0  0  0  0
    3.0481  -11.7343    0.0000 C   0  0  0  0  0  0  0  0  0  0  0  0
    3.3086  -10.2571    0.0000 C   0  0  0  0  0  0  0  0  0  0  0  0
    2.1595   -9.2929    0.0000 C   0  0  0  0  0  0  0  0  0  0  0  0
    3.3086   -8.3287    0.0000 C   0  0  0  0  0  0  0  0  0  0  0  0
    4.0586   -9.6278    0.0000 C   0  0  0  0  0  0  0  0  0  0  0  0
    5.5586   -9.6278    0.0000 C   0  0  0  0  0  0  0  0  0  0  0  0
    6.3086   -8.3287    0.0000 C   0  0  0  0  0  0  0  0  0  0  0  0
    5.5586   -7.0297    0.0000 C   0  0  0  0  0  0  0  0  0  0  0  0
    4.0586   -7.0297    0.0000 C   0  0  0  0  0  0  0  0  0  0  0  0
  1  2  1  0
  2  3  1  0
  3  4  2  0
  4  5  1  0
  5  6  1  0
  6  7  2  0
  6  8  1  0
  8  9  1  0
  9 10  2  0
 10 11  1  0
 11 12  2  0
 12 13  1  0
 13 14  2  0
  5 15  1  0
 15 16  2  0
 16 17  1  0
 17 18  2  0
 18 19  1  0
 19 20  2  0
 20 21  1  0
 21 22  2  0
 22 23  1  0
 23 24  2  0
 24 25  1  0
 25 26  1  0
 26 27  2  0
 27 28  1  0
 28 29  2  0
 29 30  1  0
 30 31  2  0
 31 32  1  0
 32 33  2  0
 33 34  1  0
 34 35  2  0
 35 36  1  0
 36 37  2  0
 37 38  1  0
 38 39  2  0
 39 40  1  0
 40 41  2  0
 41 42  1  0
 42 43  2  0
 43 44  1  0
 44 45  2  0
 45 46  1  0
 46 47  2  0
 47 48  1  0
 48 49  2  0
 49 50  1  0
 50 51  2  0
 51 52  1  0
 52 53  2  0
 53 54  1  0
 54 55  2  0
 55  2  1  0
 14  9  1  0
 20 15  1  0
 25 21  1  0
 31 26  1  0
 37 32  1  0
 43 38  1  0
 49 44  1  0
 55 50  1  0
M  END
>  <Title>  (882) 
idABFZgen10

$$$$

     RDKit          2D

 19 19  0  0  0  0  0  0  0  0999 V2000
   16.5000    0.0000    0.0000 C   0  0  0  0  0  0  0  0  0  0  0  0
   15.0000    0.0000    0.0000 C   0  0  0  0  0  0  0  0  0  0  0  0
   13.5000    0.0000    0.0000 C   0  0  0  0  0  0  0  0  0  0  0  0
   12.0000    0.0000    0.0000 C   0  0  0  0  0  0  0  0  0  0  0  0
   10.5000    0.0000    0.0000 C   0  0  0  0  0  0  0  0  0  0  0  0
    9.0000    0.0000    0.0000 C   0  0  0  0  0  0  0  0  0  0  0  0
    7.5000    0.0000    0.0000 C   0  0  0  0  0  0  0  0  0  0  0  0
    6.0000    0.0000    0.0000 C   0  0  0  0  0  0  0  0  0  0  0  0
    4.5000    0.0000    0.0000 C   0  0  0  0  0  0  0  0  0  0  0  0
    3.0000    0.0000    0.0000 C   0  0  0  0  0  0  0  0  0  0  0  0
    1.5000    0.0000    0.0000 C   0  0  0  0  0  0  0  0  0  0  0  0
    0.7500   -1.2990    0.0000 C   0  0  0  0  0  0  0  0  0  0  0  0
   -0.7500   -1.2990    0.0000 C   0  0  0  0  0  0  0  0  0  0  0  0
   -1.5000   -2.5981    0.0000 C   0  0  0  0  0  0  0  0  0  0  0  0
   -1.5000    0.0000    0.0000 N   0  0  0  0  0  0  0  0  0  0  0  0
   -3.0000    0.0000    0.0000 C   0  0  0  0  0  0  0  0  0  0  0  0
   -0.7500    1.2990    0.0000 C   0  0  0  0  0  0  0  0  0  0  0  0
   -1.5000    2.5981    0.0000 C   0  0  0  0  0  0  0  0  0  0  0  0
    0.7500    1.2990    0.0000 C   0  0  0  0  0  0  0  0  0  0  0  0
  1  2  3  0
  2  3  1  0
  3  4  3  0
  4  5  1  0
  5  6  3  0
  6  7  1  0
  7  8  3  0
  8  9  1  0
  9 10  3  0
 10 11  1  0
 11 12  2  0
 12 13  1  0
 13 14  1  0
 13 15  1  0
 15 16  1  0
 15 17  1  0
 17 18  1  0
 17 19  1  0
 19 11  1  0
M  END
>  <Title>  (883) 
idABGAgen10

$$$$

     RDKit          2D

 14 14  0  0  0  0  0  0  0  0999 V2000
   10.5000    0.0000    0.0000 C   0  0  0  0  0  0  0  0  0  0  0  0
    9.0000    0.0000    0.0000 C   0  0  0  0  0  0  0  0  0  0  0  0
    7.5000    0.0000    0.0000 C   0  0  0  0  0  0  0  0  0  0  0  0
    6.0000    0.0000    0.0000 C   0  0  0  0  0  0  0  0  0  0  0  0
    4.5000    0.0000    0.0000 C   0  0  0  0  0  0  0  0  0  0  0  0
    3.0000    0.0000    0.0000 C   0  0  0  0  0  0  0  0  0  0  0  0
    1.5000    0.0000    0.0000 C   0  0  0  0  0  0  0  0  0  0  0  0
    0.7500   -1.2990    0.0000 C   0  0  0  0  0  0  0  0  0  0  0  0
   -0.7500   -1.2990    0.0000 C   0  0  0  0  0  0  0  0  0  0  0  0
   -1.5000    0.0000    0.0000 C   0  0  0  0  0  0  0  0  0  0  0  0
   -0.7500    1.2990    0.0000 C   0  0  0  0  0  0  0  0  0  0  0  0
    0.7500    1.2990    0.0000 C   0  0  0  0  0  0  0  0  0  0  0  0
    1.5000    2.5981    0.0000 C   0  0  0  0  0  0  0  0  0  0  0  0
    2.2500    3.8971    0.0000 N   0  0  0  0  0  0  0  0  0  0  0  0
  1  2  3  0
  2  3  1  0
  3  4  3  0
  4  5  1  0
  5  6  3  0
  6  7  1  0
  7  8  2  0
  8  9  1  0
  9 10  2  0
 10 11  1  0
 11 12  2  0
 12 13  1  0
 13 14  3  0
 12  7  1  0
M  END
>  <Title>  (884) 
idABGBgen10

$$$$

     RDKit          2D

 92 93  0  0  0  0  0  0  0  0999 V2000
   -0.6128    3.5994    0.0000 O   0  0  0  0  0  0  0  0  0  0  0  0
    0.8768    3.7765    0.0000 C   0  0  0  0  0  0  0  0  0  0  0  0
    0.0700    5.0411    0.0000 C   0  0  0  0  0  0  0  0  0  0  0  0
   -0.6351    6.3650    0.0000 C   0  0  0  0  0  0  0  0  0  0  0  0
   -1.2342    7.7402    0.0000 C   0  0  0  0  0  0  0  0  0  0  0  0
   -1.7235    9.1582    0.0000 C   0  0  0  0  0  0  0  0  0  0  0  0
   -2.1000   10.6101    0.0000 C   0  0  0  0  0  0  0  0  0  0  0  0
   -2.3615   12.0872    0.0000 C   0  0  0  0  0  0  0  0  0  0  0  0
   -2.5063   13.5802    0.0000 C   0  0  0  0  0  0  0  0  0  0  0  0
   -2.5335   15.0799    0.0000 C   0  0  0  0  0  0  0  0  0  0  0  0
   -2.4429   16.5772    0.0000 C   0  0  0  0  0  0  0  0  0  0  0  0
   -2.2351   18.0627    0.0000 C   0  0  0  0  0  0  0  0  0  0  0  0
   -1.9115   19.5274    0.0000 C   0  0  0  0  0  0  0  0  0  0  0  0
   -1.4739   20.9621    0.0000 C   0  0  0  0  0  0  0  0  0  0  0  0
   -0.9250   22.3581    0.0000 C   0  0  0  0  0  0  0  0  0  0  0  0
   -0.2684   23.7068    0.0000 C   0  0  0  0  0  0  0  0  0  0  0  0
    0.4920   24.9997    0.0000 C   0  0  0  0  0  0  0  0  0  0  0  0
    1.3516   26.2290    0.0000 C   0  0  0  0  0  0  0  0  0  0  0  0
    2.3049   27.3871    0.0000 C   0  0  0  0  0  0  0  0  0  0  0  0
    3.3462   28.4668    0.0000 C   0  0  0  0  0  0  0  0  0  0  0  0
    4.4690   29.4615    0.0000 C   0  0  0  0  0  0  0  0  0  0  0  0
    5.6663   30.3650    0.0000 C   0  0  0  0  0  0  0  0  0  0  0  0
    6.9309   31.1718    0.0000 C   0  0  0  0  0  0  0  0  0  0  0  0
    8.2548   31.8769    0.0000 C   0  0  0  0  0  0  0  0  0  0  0  0
    9.6300   32.4760    0.0000 C   0  0  0  0  0  0  0  0  0  0  0  0
   11.0479   32.9653    0.0000 C   0  0  0  0  0  0  0  0  0  0  0  0
   12.4999   33.3418    0.0000 C   0  0  0  0  0  0  0  0  0  0  0  0
   13.9769   33.6033    0.0000 C   0  0  0  0  0  0  0  0  0  0  0  0
   15.4699   33.7480    0.0000 C   0  0  0  0  0  0  0  0  0  0  0  0
   16.9697   33.7752    0.0000 C   0  0  0  0  0  0  0  0  0  0  0  0
   18.4670   33.6847    0.0000 C   0  0  0  0  0  0  0  0  0  0  0  0
   19.9525   33.4769    0.0000 C   0  0  0  0  0  0  0  0  0  0  0  0
   21.4172   33.1532    0.0000 C   0  0  0  0  0  0  0  0  0  0  0  0
   22.8519   32.7156    0.0000 C   0  0  0  0  0  0  0  0  0  0  0  0
   24.2479   32.1668    0.0000 C   0  0  0  0  0  0  0  0  0  0  0  0
   25.5965   31.5102    0.0000 C   0  0  0  0  0  0  0  0  0  0  0  0
   26.8895   30.7497    0.0000 C   0  0  0  0  0  0  0  0  0  0  0  0
   28.1188   29.8902    0.0000 C   0  0  0  0  0  0  0  0  0  0  0  0
   29.2769   28.9368    0.0000 C   0  0  0  0  0  0  0  0  0  0  0  0
   30.3566   27.8956    0.0000 C   0  0  0  0  0  0  0  0  0  0  0  0
   31.3513   26.7728    0.0000 C   0  0  0  0  0  0  0  0  0  0  0  0
   32.2548   25.5755    0.0000 C   0  0  0  0  0  0  0  0  0  0  0  0
   33.0616   24.3109    0.0000 C   0  0  0  0  0  0  0  0  0  0  0  0
   33.7667   22.9870    0.0000 C   0  0  0  0  0  0  0  0  0  0  0  0
   34.3657   21.6118    0.0000 C   0  0  0  0  0  0  0  0  0  0  0  0
   34.8550   20.1938    0.0000 C   0  0  0  0  0  0  0  0  0  0  0  0
   35.2316   18.7419    0.0000 C   0  0  0  0  0  0  0  0  0  0  0  0
   35.4930   17.2648    0.0000 C   0  0  0  0  0  0  0  0  0  0  0  0
   35.6378   15.7718    0.0000 C   0  0  0  0  0  0  0  0  0  0  0  0
   35.6650   14.2721    0.0000 C   0  0  0  0  0  0  0  0  0  0  0  0
   35.5744   12.7748    0.0000 C   0  0  0  0  0  0  0  0  0  0  0  0
   35.3667   11.2893    0.0000 C   0  0  0  0  0  0  0  0  0  0  0  0
   35.0430    9.8246    0.0000 C   0  0  0  0  0  0  0  0  0  0  0  0
   34.6054    8.3899    0.0000 C   0  0  0  0  0  0  0  0  0  0  0  0
   34.0566    6.9939    0.0000 C   0  0  0  0  0  0  0  0  0  0  0  0
   33.3999    5.6452    0.0000 C   0  0  0  0  0  0  0  0  0  0  0  0
   32.6395    4.3523    0.0000 C   0  0  0  0  0  0  0  0  0  0  0  0
   31.7800    3.1230    0.0000 C   0  0  0  0  0  0  0  0  0  0  0  0
   30.8266    1.9649    0.0000 C   0  0  0  0  0  0  0  0  0  0  0  0
   29.7854    0.8852    0.0000 C   0  0  0  0  0  0  0  0  0  0  0  0
   28.6626   -0.1095    0.0000 C   0  0  0  0  0  0  0  0  0  0  0  0
   27.4652   -1.0130    0.0000 C   0  0  0  0  0  0  0  0  0  0  0  0
   26.2007   -1.8198    0.0000 C   0  0  0  0  0  0  0  0  0  0  0  0
   24.8767   -2.5249    0.0000 C   0  0  0  0  0  0  0  0  0  0  0  0
   23.5016   -3.1240    0.0000 C   0  0  0  0  0  0  0  0  0  0  0  0
   22.0836   -3.6133    0.0000 C   0  0  0  0  0  0  0  0  0  0  0  0
   20.6316   -3.9898    0.0000 C   0  0  0  0  0  0  0  0  0  0  0  0
   19.1546   -4.2513    0.0000 C   0  0  0  0  0  0  0  0  0  0  0  0
   17.6616   -4.3961    0.0000 C   0  0  0  0  0  0  0  0  0  0  0  0
   16.1619   -4.4232    0.0000 C   0  0  0  0  0  0  0  0  0  0  0  0
   14.6646   -4.3327    0.0000 C   0  0  0  0  0  0  0  0  0  0  0  0
   13.1790   -4.1249    0.0000 C   0  0  0  0  0  0  0  0  0  0  0  0
   11.7144   -3.8012    0.0000 C   0  0  0  0  0  0  0  0  0  0  0  0
   10.2796   -3.3636    0.0000 C   0  0  0  0  0  0  0  0  0  0  0  0
    8.8836   -2.8148    0.0000 C   0  0  0  0  0  0  0  0  0  0  0  0
    7.5350   -2.1582    0.0000 C   0  0  0  0  0  0  0  0  0  0  0  0
    6.2421   -1.3977    0.0000 C   0  0  0  0  0  0  0  0  0  0  0  0
    5.0127   -0.5382    0.0000 C   0  0  0  0  0  0  0  0  0  0  0  0
    3.8547    0.4151    0.0000 C   0  0  0  0  0  0  0  0  0  0  0  0
    2.7750    1.4564    0.0000 C   0  0  0  0  0  0  0  0  0  0  0  0
    3.1339    0.0000    0.0000 C   0  0  0  0  0  0  0  0  0  0  0  0
    2.7750   -1.4564    0.0000 C   0  0  0  0  0  0  0  0  0  0  0  0
    1.7803   -2.5792    0.0000 C   0  0  0  0  0  0  0  0  0  0  0  0
    0.3778   -3.1111    0.0000 C   0  0  0  0  0  0  0  0  0  0  0  0
   -1.1113   -2.9303    0.0000 C   0  0  0  0  0  0  0  0  0  0  0  0
   -2.3458   -2.0782    0.0000 C   0  0  0  0  0  0  0  0  0  0  0  0
   -3.0429   -0.7500    0.0000 C   0  0  0  0  0  0  0  0  0  0  0  0
   -3.0429    0.7500    0.0000 C   0  0  0  0  0  0  0  0  0  0  0  0
   -2.3458    2.0782    0.0000 C   0  0  0  0  0  0  0  0  0  0  0  0
   -1.1113    2.9303    0.0000 C   0  0  0  0  0  0  0  0  0  0  0  0
    0.3778    3.1111    0.0000 C   0  0  0  0  0  0  0  0  0  0  0  0
    1.7803    2.5792    0.0000 C   0  0  0  0  0  0  0  0  0  0  0  0
  1  2  1  0
  2  3  2  0
  3  4  1  0
  4  5  1  0
  5  6  1  0
  6  7  1  0
  7  8  1  0
  8  9  1  0
  9 10  1  0
 10 11  1  0
 11 12  1  0
 12 13  1  0
 13 14  1  0
 14 15  1  0
 15 16  1  0
 16 17  1  0
 17 18  1  0
 18 19  1  0
 19 20  1  0
 20 21  1  0
 21 22  1  0
 22 23  1  0
 23 24  1  0
 24 25  1  0
 25 26  1  0
 26 27  1  0
 27 28  1  0
 28 29  1  0
 29 30  1  0
 30 31  1  0
 31 32  1  0
 32 33  1  0
 33 34  1  0
 34 35  1  0
 35 36  1  0
 36 37  1  0
 37 38  1  0
 38 39  1  0
 39 40  1  0
 40 41  1  0
 41 42  1  0
 42 43  1  0
 43 44  1  0
 44 45  1  0
 45 46  1  0
 46 47  1  0
 47 48  1  0
 48 49  1  0
 49 50  1  0
 50 51  1  0
 51 52  1  0
 52 53  1  0
 53 54  1  0
 54 55  1  0
 55 56  1  0
 56 57  1  0
 57 58  1  0
 58 59  1  0
 59 60  1  0
 60 61  1  0
 61 62  1  0
 62 63  1  0
 63 64  1  0
 64 65  1  0
 65 66  1  0
 66 67  1  0
 67 68  1  0
 68 69  1  0
 69 70  1  0
 70 71  1  0
 71 72  2  0
 72 73  1  0
 73 74  2  0
 74 75  1  0
 75 76  2  0
 76 77  1  0
 77 78  2  0
 78 79  1  0
 79 80  2  0
 80 81  1  0
 81 82  1  0
 82 83  1  0
 83 84  1  0
 84 85  1  0
 85 86  1  0
 86 87  1  0
 87 88  2  0
 88 89  1  0
 89 90  2  0
 90 91  1  0
 91 92  2  0
 92  2  1  0
 92 80  1  0
M  END
>  <Title>  (885) 
idABGCgen10

$$$$

     RDKit          2D

 44 50  0  0  0  0  0  0  0  0999 V2000
    3.7201  -10.5731    0.0000 C   0  0  0  0  0  0  0  0  0  0  0  0
    2.7988   -9.3894    0.0000 C   0  0  0  0  0  0  0  0  0  0  0  0
    3.8147   -8.2858    0.0000 C   0  0  0  0  0  0  0  0  0  0  0  0
    4.4172   -6.9121    0.0000 C   0  0  0  0  0  0  0  0  0  0  0  0
    4.5411   -5.4173    0.0000 C   0  0  0  0  0  0  0  0  0  0  0  0
    4.1729   -3.9632    0.0000 C   0  0  0  0  0  0  0  0  0  0  0  0
    3.3524   -2.7074    0.0000 C   0  0  0  0  0  0  0  0  0  0  0  0
    2.1687   -1.7861    0.0000 C   0  0  0  0  0  0  0  0  0  0  0  0
    0.7500   -1.2990    0.0000 C   0  0  0  0  0  0  0  0  0  0  0  0
    1.5000    0.0000    0.0000 C   0  0  0  0  0  0  0  0  0  0  0  0
    0.7500    1.2990    0.0000 C   0  0  0  0  0  0  0  0  0  0  0  0
   -0.7500    1.2990    0.0000 C   0  0  0  0  0  0  0  0  0  0  0  0
   -1.5000    0.0000    0.0000 C   0  0  0  0  0  0  0  0  0  0  0  0
   -0.7500   -1.2990    0.0000 C   0  0  0  0  0  0  0  0  0  0  0  0
   -2.1687   -1.7861    0.0000 C   0  0  0  0  0  0  0  0  0  0  0  0
   -2.3748   -0.3003    0.0000 C   0  0  0  0  0  0  0  0  0  0  0  0
   -3.7645    0.2642    0.0000 C   0  0  0  0  0  0  0  0  0  0  0  0
   -4.9482   -0.6572    0.0000 C   0  0  0  0  0  0  0  0  0  0  0  0
   -4.7422   -2.1429    0.0000 C   0  0  0  0  0  0  0  0  0  0  0  0
   -3.3524   -2.7074    0.0000 C   0  0  0  0  0  0  0  0  0  0  0  0
   -4.1729   -3.9632    0.0000 C   0  0  0  0  0  0  0  0  0  0  0  0
   -5.2480   -2.9172    0.0000 C   0  0  0  0  0  0  0  0  0  0  0  0
   -6.6914   -3.3254    0.0000 C   0  0  0  0  0  0  0  0  0  0  0  0
   -7.0597   -4.7795    0.0000 C   0  0  0  0  0  0  0  0  0  0  0  0
   -5.9845   -5.8254    0.0000 C   0  0  0  0  0  0  0  0  0  0  0  0
   -4.5411   -5.4173    0.0000 C   0  0  0  0  0  0  0  0  0  0  0  0
   -4.4172   -6.9121    0.0000 C   0  0  0  0  0  0  0  0  0  0  0  0
   -5.9081   -6.7471    0.0000 C   0  0  0  0  0  0  0  0  0  0  0  0
   -6.7965   -7.9558    0.0000 C   0  0  0  0  0  0  0  0  0  0  0  0
   -6.1939   -9.3294    0.0000 C   0  0  0  0  0  0  0  0  0  0  0  0
   -4.7030   -9.4944    0.0000 C   0  0  0  0  0  0  0  0  0  0  0  0
   -3.8147   -8.2858    0.0000 C   0  0  0  0  0  0  0  0  0  0  0  0
   -2.7988   -9.3894    0.0000 C   0  0  0  0  0  0  0  0  0  0  0  0
   -4.0766  -10.1749    0.0000 C   0  0  0  0  0  0  0  0  0  0  0  0
   -4.0353  -11.6743    0.0000 C   0  0  0  0  0  0  0  0  0  0  0  0
   -2.7161  -12.3882    0.0000 C   0  0  0  0  0  0  0  0  0  0  0  0
   -1.4382  -11.6027    0.0000 C   0  0  0  0  0  0  0  0  0  0  0  0
   -1.4795  -10.1033    0.0000 C   0  0  0  0  0  0  0  0  0  0  0  0
   -0.0000  -10.3502    0.0000 C   0  0  0  0  0  0  0  0  0  0  0  0
   -0.5260  -11.7550    0.0000 C   0  0  0  0  0  0  0  0  0  0  0  0
    0.4276  -12.9128    0.0000 C   0  0  0  0  0  0  0  0  0  0  0  0
    1.9072  -12.6659    0.0000 C   0  0  0  0  0  0  0  0  0  0  0  0
    2.4331  -11.2612    0.0000 C   0  0  0  0  0  0  0  0  0  0  0  0
    1.4795  -10.1033    0.0000 C   0  0  0  0  0  0  0  0  0  0  0  0
  1  2  1  0
  2  3  1  0
  3  4  1  0
  4  5  1  0
  5  6  2  0
  6  7  1  0
  7  8  2  0
  8  9  1  0
  9 10  2  0
 10 11  1  0
 11 12  2  0
 12 13  1  0
 13 14  2  0
 14 15  1  0
 15 16  2  0
 16 17  1  0
 17 18  2  0
 18 19  1  0
 19 20  2  0
 20 21  1  0
 21 22  2  0
 22 23  1  0
 23 24  2  0
 24 25  1  0
 25 26  2  0
 26 27  1  0
 27 28  2  0
 28 29  1  0
 29 30  2  0
 30 31  1  0
 31 32  2  0
 32 33  1  0
 33 34  2  0
 34 35  1  0
 35 36  2  0
 36 37  1  0
 37 38  2  0
 38 39  1  0
 39 40  2  0
 40 41  1  0
 41 42  2  0
 42 43  1  0
 43 44  2  0
 44  2  1  0
 14  9  1  0
 20 15  1  0
 26 21  1  0
 32 27  1  0
 38 33  1  0
 44 39  1  0
M  END
>  <Title>  (886) 
idABGDgen10

$$$$

     RDKit          2D

 12 12  0  0  0  0  0  0  0  0999 V2000
    7.5000    0.0000    0.0000 C   0  0  0  0  0  0  0  0  0  0  0  0
    6.0000    0.0000    0.0000 C   0  0  0  0  0  0  0  0  0  0  0  0
    4.5000    0.0000    0.0000 C   0  0  0  0  0  0  0  0  0  0  0  0
    3.0000    0.0000    0.0000 C   0  0  0  0  0  0  0  0  0  0  0  0
    1.5000    0.0000    0.0000 C   0  0  0  0  0  0  0  0  0  0  0  0
    0.7500   -1.2990    0.0000 C   0  0  0  0  0  0  0  0  0  0  0  0
   -0.7500   -1.2990    0.0000 C   0  0  0  0  0  0  0  0  0  0  0  0
   -1.5000    0.0000    0.0000 C   0  0  0  0  0  0  0  0  0  0  0  0
   -0.7500    1.2990    0.0000 C   0  0  0  0  0  0  0  0  0  0  0  0
   -1.5000    2.5981    0.0000 O   0  0  0  0  0  0  0  0  0  0  0  0
   -0.7500    3.8971    0.0000 C   0  0  0  0  0  0  0  0  0  0  0  0
    0.7500    1.2990    0.0000 C   0  0  0  0  0  0  0  0  0  0  0  0
  1  2  3  0
  2  3  1  0
  3  4  3  0
  4  5  1  0
  5  6  1  0
  6  7  2  0
  7  8  1  0
  8  9  2  0
  9 10  1  0
 10 11  1  0
  9 12  1  0
 12  5  1  0
M  END
>  <Title>  (887) 
idABGEgen10

$$$$

     RDKit          2D

 12 12  0  0  0  0  0  0  0  0999 V2000
    5.2500   -1.2990    0.0000 C   0  0  0  0  0  0  0  0  0  0  0  0
    3.7500   -1.2990    0.0000 C   0  0  0  0  0  0  0  0  0  0  0  0
    3.0000    0.0000    0.0000 C   0  0  0  0  0  0  0  0  0  0  0  0
    3.7500    1.2990    0.0000 C   0  0  0  0  0  0  0  0  0  0  0  0
    5.2500    1.2990    0.0000 O   0  0  0  0  0  0  0  0  0  0  0  0
    1.5000    0.0000    0.0000 C   0  0  0  0  0  0  0  0  0  0  0  0
    0.7500   -1.2990    0.0000 C   0  0  0  0  0  0  0  0  0  0  0  0
   -0.7500   -1.2990    0.0000 C   0  0  0  0  0  0  0  0  0  0  0  0
   -1.5000    0.0000    0.0000 C   0  0  0  0  0  0  0  0  0  0  0  0
   -0.7500    1.2990    0.0000 C   0  0  0  0  0  0  0  0  0  0  0  0
    0.7500    1.2990    0.0000 C   0  0  0  0  0  0  0  0  0  0  0  0
    1.5000    2.5981    0.0000 C   0  0  0  0  0  0  0  0  0  0  0  0
  1  2  2  0
  2  3  1  0
  3  4  1  0
  4  5  1  0
  3  6  1  0
  6  7  2  0
  7  8  1  0
  8  9  2  0
  9 10  1  0
 10 11  2  0
 11 12  1  0
 11  6  1  0
M  END
>  <Title>  (888) 
idABGFgen10

$$$$

     RDKit          2D

 29 32  0  0  0  0  0  0  0  0999 V2000
  -11.4549    6.6897    0.0000 C   0  0  0  0  0  0  0  0  0  0  0  0
  -10.1448    5.9592    0.0000 C   0  0  0  0  0  0  0  0  0  0  0  0
   -8.8347    5.2288    0.0000 C   0  0  0  0  0  0  0  0  0  0  0  0
   -8.8123    3.7289    0.0000 N   0  0  0  0  0  0  0  0  0  0  0  0
  -10.0999    2.9596    0.0000 C   0  0  0  0  0  0  0  0  0  0  0  0
   -7.5022    2.9984    0.0000 C   0  0  0  0  0  0  0  0  0  0  0  0
   -7.4797    1.4986    0.0000 O   0  0  0  0  0  0  0  0  0  0  0  0
   -6.2145    3.7678    0.0000 C   0  0  0  0  0  0  0  0  0  0  0  0
   -6.2369    5.2676    0.0000 C   0  0  0  0  0  0  0  0  0  0  0  0
   -4.9492    6.0370    0.0000 C   0  0  0  0  0  0  0  0  0  0  0  0
   -3.6391    5.3065    0.0000 C   0  0  0  0  0  0  0  0  0  0  0  0
   -3.6167    3.8067    0.0000 C   0  0  0  0  0  0  0  0  0  0  0  0
   -4.9044    3.0373    0.0000 C   0  0  0  0  0  0  0  0  0  0  0  0
   -4.8819    1.5375    0.0000 C   0  0  0  0  0  0  0  0  0  0  0  0
   -6.1696    0.7681    0.0000 C   0  0  0  0  0  0  0  0  0  0  0  0
   -6.1472   -0.7317    0.0000 C   0  0  0  0  0  0  0  0  0  0  0  0
   -4.8371   -1.4622    0.0000 C   0  0  0  0  0  0  0  0  0  0  0  0
   -3.5494   -0.6928    0.0000 C   0  0  0  0  0  0  0  0  0  0  0  0
   -3.5718    0.8070    0.0000 C   0  0  0  0  0  0  0  0  0  0  0  0
   -2.2841    1.5763    0.0000 C   0  0  0  0  0  0  0  0  0  0  0  0
   -2.4186    3.0703    0.0000 C   0  0  0  0  0  0  0  0  0  0  0  0
   -1.3344    4.1069    0.0000 C   0  0  0  0  0  0  0  0  0  0  0  0
    0.1520    3.9056    0.0000 C   0  0  0  0  0  0  0  0  0  0  0  0
    0.9214    2.6179    0.0000 C   0  0  0  0  0  0  0  0  0  0  0  0
    0.3943    1.2135    0.0000 C   0  0  0  0  0  0  0  0  0  0  0  0
    1.2760    0.0000    0.0000 O   0  0  0  0  0  0  0  0  0  0  0  0
    0.3943   -1.2135    0.0000 C   0  0  0  0  0  0  0  0  0  0  0  0
   -1.0323   -0.7500    0.0000 C   0  0  0  0  0  0  0  0  0  0  0  0
   -1.0323    0.7500    0.0000 C   0  0  0  0  0  0  0  0  0  0  0  0
  1  2  3  0
  2  3  1  0
  3  4  1  0
  4  5  1  0
  4  6  1  0
  6  7  2  0
  6  8  1  0
  8  9  2  0
  9 10  1  0
 10 11  2  0
 11 12  1  0
 12 13  2  0
 13 14  1  0
 14 15  2  0
 15 16  1  0
 16 17  2  0
 17 18  1  0
 18 19  2  0
 19 20  1  0
 20 21  2  0
 21 22  1  0
 22 23  2  0
 23 24  1  0
 24 25  2  0
 25 26  1  0
 26 27  1  0
 27 28  1  0
 28 29  2  0
 13  8  1  0
 19 14  1  0
 29 20  1  0
 29 25  1  0
M  END
>  <Title>  (889) 
idABGGgen10

$$$$

     RDKit          2D

118118  0  0  0  0  0  0  0  0999 V2000
   28.1738    0.0000    0.0000 C   0  0  0  0  0  0  0  0  0  0  0  0
   28.1338   -1.4995    0.0000 C   0  0  0  0  0  0  0  0  0  0  0  0
   28.0141   -2.9947    0.0000 C   0  0  0  0  0  0  0  0  0  0  0  0
   27.8151   -4.4814    0.0000 C   0  0  0  0  0  0  0  0  0  0  0  0
   27.5371   -5.9554    0.0000 C   0  0  0  0  0  0  0  0  0  0  0  0
   27.1811   -7.4126    0.0000 C   0  0  0  0  0  0  0  0  0  0  0  0
   26.7481   -8.8487    0.0000 C   0  0  0  0  0  0  0  0  0  0  0  0
   26.2392  -10.2598    0.0000 C   0  0  0  0  0  0  0  0  0  0  0  0
   25.6560  -11.6417    0.0000 C   0  0  0  0  0  0  0  0  0  0  0  0
   25.0000  -12.9907    0.0000 C   0  0  0  0  0  0  0  0  0  0  0  0
   24.2732  -14.3029    0.0000 C   0  0  0  0  0  0  0  0  0  0  0  0
   23.4776  -15.5745    0.0000 C   0  0  0  0  0  0  0  0  0  0  0  0
   22.6154  -16.8019    0.0000 C   0  0  0  0  0  0  0  0  0  0  0  0
   21.6891  -17.9817    0.0000 C   0  0  0  0  0  0  0  0  0  0  0  0
   20.7013  -19.1106    0.0000 C   0  0  0  0  0  0  0  0  0  0  0  0
   19.6549  -20.1853    0.0000 C   0  0  0  0  0  0  0  0  0  0  0  0
   18.5527  -21.2027    0.0000 C   0  0  0  0  0  0  0  0  0  0  0  0
   17.3980  -22.1601    0.0000 C   0  0  0  0  0  0  0  0  0  0  0  0
   16.1939  -23.0547    0.0000 C   0  0  0  0  0  0  0  0  0  0  0  0
   14.9439  -23.8839    0.0000 C   0  0  0  0  0  0  0  0  0  0  0  0
   13.6516  -24.6454    0.0000 C   0  0  0  0  0  0  0  0  0  0  0  0
   12.3206  -25.3370    0.0000 C   0  0  0  0  0  0  0  0  0  0  0  0
   10.9546  -25.9568    0.0000 C   0  0  0  0  0  0  0  0  0  0  0  0
    9.5576  -26.5031    0.0000 C   0  0  0  0  0  0  0  0  0  0  0  0
    8.1335  -26.9742    0.0000 C   0  0  0  0  0  0  0  0  0  0  0  0
    6.6864  -27.3688    0.0000 C   0  0  0  0  0  0  0  0  0  0  0  0
    5.2203  -27.6859    0.0000 C   0  0  0  0  0  0  0  0  0  0  0  0
    3.7394  -27.9245    0.0000 C   0  0  0  0  0  0  0  0  0  0  0  0
    2.2479  -28.0839    0.0000 C   0  0  0  0  0  0  0  0  0  0  0  0
    0.7500  -28.1638    0.0000 C   0  0  0  0  0  0  0  0  0  0  0  0
   -0.7500  -28.1638    0.0000 C   0  0  0  0  0  0  0  0  0  0  0  0
   -2.2479  -28.0839    0.0000 C   0  0  0  0  0  0  0  0  0  0  0  0
   -3.7394  -27.9245    0.0000 C   0  0  0  0  0  0  0  0  0  0  0  0
   -5.2203  -27.6859    0.0000 C   0  0  0  0  0  0  0  0  0  0  0  0
   -6.6864  -27.3688    0.0000 C   0  0  0  0  0  0  0  0  0  0  0  0
   -8.1335  -26.9742    0.0000 C   0  0  0  0  0  0  0  0  0  0  0  0
   -9.5576  -26.5031    0.0000 C   0  0  0  0  0  0  0  0  0  0  0  0
  -10.9546  -25.9568    0.0000 C   0  0  0  0  0  0  0  0  0  0  0  0
  -12.3206  -25.3370    0.0000 C   0  0  0  0  0  0  0  0  0  0  0  0
  -13.6516  -24.6454    0.0000 C   0  0  0  0  0  0  0  0  0  0  0  0
  -14.9439  -23.8839    0.0000 C   0  0  0  0  0  0  0  0  0  0  0  0
  -16.1939  -23.0547    0.0000 C   0  0  0  0  0  0  0  0  0  0  0  0
  -17.3980  -22.1601    0.0000 C   0  0  0  0  0  0  0  0  0  0  0  0
  -18.5527  -21.2027    0.0000 C   0  0  0  0  0  0  0  0  0  0  0  0
  -19.6549  -20.1853    0.0000 C   0  0  0  0  0  0  0  0  0  0  0  0
  -20.7013  -19.1106    0.0000 C   0  0  0  0  0  0  0  0  0  0  0  0
  -21.6891  -17.9817    0.0000 C   0  0  0  0  0  0  0  0  0  0  0  0
  -22.6154  -16.8019    0.0000 C   0  0  0  0  0  0  0  0  0  0  0  0
  -23.4776  -15.5745    0.0000 C   0  0  0  0  0  0  0  0  0  0  0  0
  -24.2732  -14.3029    0.0000 C   0  0  0  0  0  0  0  0  0  0  0  0
  -25.0000  -12.9907    0.0000 C   0  0  0  0  0  0  0  0  0  0  0  0
  -25.6560  -11.6417    0.0000 C   0  0  0  0  0  0  0  0  0  0  0  0
  -26.2392  -10.2598    0.0000 C   0  0  0  0  0  0  0  0  0  0  0  0
  -26.7481   -8.8487    0.0000 C   0  0  0  0  0  0  0  0  0  0  0  0
  -27.1811   -7.4126    0.0000 C   0  0  0  0  0  0  0  0  0  0  0  0
  -27.5371   -5.9554    0.0000 C   0  0  0  0  0  0  0  0  0  0  0  0
  -27.8151   -4.4814    0.0000 C   0  0  0  0  0  0  0  0  0  0  0  0
  -28.0141   -2.9947    0.0000 C   0  0  0  0  0  0  0  0  0  0  0  0
  -28.1338   -1.4995    0.0000 C   0  0  0  0  0  0  0  0  0  0  0  0
  -28.1738    0.0000    0.0000 C   0  0  0  0  0  0  0  0  0  0  0  0
  -28.1338    1.4995    0.0000 C   0  0  0  0  0  0  0  0  0  0  0  0
  -28.0141    2.9947    0.0000 C   0  0  0  0  0  0  0  0  0  0  0  0
  -27.8151    4.4814    0.0000 C   0  0  0  0  0  0  0  0  0  0  0  0
  -27.5371    5.9554    0.0000 C   0  0  0  0  0  0  0  0  0  0  0  0
  -27.1811    7.4126    0.0000 C   0  0  0  0  0  0  0  0  0  0  0  0
  -26.7481    8.8487    0.0000 C   0  0  0  0  0  0  0  0  0  0  0  0
  -26.2392   10.2598    0.0000 C   0  0  0  0  0  0  0  0  0  0  0  0
  -25.6560   11.6417    0.0000 C   0  0  0  0  0  0  0  0  0  0  0  0
  -25.0000   12.9907    0.0000 C   0  0  0  0  0  0  0  0  0  0  0  0
  -24.2732   14.3029    0.0000 C   0  0  0  0  0  0  0  0  0  0  0  0
  -23.4776   15.5745    0.0000 C   0  0  0  0  0  0  0  0  0  0  0  0
  -22.6154   16.8019    0.0000 C   0  0  0  0  0  0  0  0  0  0  0  0
  -21.6891   17.9817    0.0000 C   0  0  0  0  0  0  0  0  0  0  0  0
  -20.7013   19.1106    0.0000 C   0  0  0  0  0  0  0  0  0  0  0  0
  -19.6549   20.1853    0.0000 C   0  0  0  0  0  0  0  0  0  0  0  0
  -18.5527   21.2027    0.0000 C   0  0  0  0  0  0  0  0  0  0  0  0
  -17.3980   22.1601    0.0000 C   0  0  0  0  0  0  0  0  0  0  0  0
  -16.1939   23.0547    0.0000 C   0  0  0  0  0  0  0  0  0  0  0  0
  -14.9439   23.8839    0.0000 C   0  0  0  0  0  0  0  0  0  0  0  0
  -13.6516   24.6454    0.0000 C   0  0  0  0  0  0  0  0  0  0  0  0
  -12.3206   25.3370    0.0000 C   0  0  0  0  0  0  0  0  0  0  0  0
  -10.9546   25.9568    0.0000 C   0  0  0  0  0  0  0  0  0  0  0  0
   -9.5576   26.5031    0.0000 C   0  0  0  0  0  0  0  0  0  0  0  0
   -8.1335   26.9742    0.0000 C   0  0  0  0  0  0  0  0  0  0  0  0
   -6.6864   27.3688    0.0000 C   0  0  0  0  0  0  0  0  0  0  0  0
   -5.2203   27.6859    0.0000 C   0  0  0  0  0  0  0  0  0  0  0  0
   -3.7394   27.9245    0.0000 C   0  0  0  0  0  0  0  0  0  0  0  0
   -2.2479   28.0839    0.0000 C   0  0  0  0  0  0  0  0  0  0  0  0
   -0.7500   28.1638    0.0000 C   0  0  0  0  0  0  0  0  0  0  0  0
    0.7500   28.1638    0.0000 C   0  0  0  0  0  0  0  0  0  0  0  0
    2.2479   28.0839    0.0000 C   0  0  0  0  0  0  0  0  0  0  0  0
    3.7394   27.9245    0.0000 C   0  0  0  0  0  0  0  0  0  0  0  0
    5.2203   27.6859    0.0000 C   0  0  0  0  0  0  0  0  0  0  0  0
    6.6864   27.3688    0.0000 C   0  0  0  0  0  0  0  0  0  0  0  0
    8.1335   26.9742    0.0000 C   0  0  0  0  0  0  0  0  0  0  0  0
    9.5576   26.5031    0.0000 C   0  0  0  0  0  0  0  0  0  0  0  0
   10.9546   25.9568    0.0000 C   0  0  0  0  0  0  0  0  0  0  0  0
   12.3206   25.3370    0.0000 C   0  0  0  0  0  0  0  0  0  0  0  0
   13.6516   24.6454    0.0000 C   0  0  0  0  0  0  0  0  0  0  0  0
   14.9439   23.8839    0.0000 C   0  0  0  0  0  0  0  0  0  0  0  0
   16.1939   23.0547    0.0000 C   0  0  0  0  0  0  0  0  0  0  0  0
   17.3980   22.1601    0.0000 C   0  0  0  0  0  0  0  0  0  0  0  0
   18.5527   21.2027    0.0000 C   0  0  0  0  0  0  0  0  0  0  0  0
   19.6549   20.1853    0.0000 C   0  0  0  0  0  0  0  0  0  0  0  0
   20.7013   19.1106    0.0000 C   0  0  0  0  0  0  0  0  0  0  0  0
   21.6891   17.9817    0.0000 C   0  0  0  0  0  0  0  0  0  0  0  0
   22.6154   16.8019    0.0000 C   0  0  0  0  0  0  0  0  0  0  0  0
   23.4776   15.5745    0.0000 C   0  0  0  0  0  0  0  0  0  0  0  0
   24.2732   14.3029    0.0000 C   0  0  0  0  0  0  0  0  0  0  0  0
   25.0000   12.9907    0.0000 C   0  0  0  0  0  0  0  0  0  0  0  0
   25.6560   11.6417    0.0000 C   0  0  0  0  0  0  0  0  0  0  0  0
   26.2392   10.2598    0.0000 C   0  0  0  0  0  0  0  0  0  0  0  0
   26.7481    8.8487    0.0000 C   0  0  0  0  0  0  0  0  0  0  0  0
   27.1811    7.4126    0.0000 C   0  0  0  0  0  0  0  0  0  0  0  0
   27.5371    5.9554    0.0000 C   0  0  0  0  0  0  0  0  0  0  0  0
   27.8151    4.4814    0.0000 C   0  0  0  0  0  0  0  0  0  0  0  0
   28.0141    2.9947    0.0000 C   0  0  0  0  0  0  0  0  0  0  0  0
   28.1338    1.4995    0.0000 C   0  0  0  0  0  0  0  0  0  0  0  0
  1  2  1  0
  2  3  1  0
  3  4  1  0
  4  5  1  0
  5  6  1  0
  6  7  1  0
  7  8  1  0
  8  9  1  0
  9 10  1  0
 10 11  1  0
 11 12  1  0
 12 13  1  0
 13 14  1  0
 14 15  1  0
 15 16  1  0
 16 17  1  0
 17 18  1  0
 18 19  1  0
 19 20  1  0
 20 21  1  0
 21 22  1  0
 22 23  1  0
 23 24  1  0
 24 25  1  0
 25 26  1  0
 26 27  1  0
 27 28  1  0
 28 29  1  0
 29 30  1  0
 30 31  1  0
 31 32  1  0
 32 33  1  0
 33 34  1  0
 34 35  1  0
 35 36  1  0
 36 37  1  0
 37 38  1  0
 38 39  1  0
 39 40  1  0
 40 41  1  0
 41 42  1  0
 42 43  1  0
 43 44  1  0
 44 45  1  0
 45 46  1  0
 46 47  1  0
 47 48  1  0
 48 49  1  0
 49 50  1  0
 50 51  1  0
 51 52  1  0
 52 53  1  0
 53 54  1  0
 54 55  1  0
 55 56  1  0
 56 57  1  0
 57 58  1  0
 58 59  1  0
 59 60  1  0
 60 61  1  0
 61 62  1  0
 62 63  1  0
 63 64  1  0
 64 65  1  0
 65 66  1  0
 66 67  1  0
 67 68  1  0
 68 69  1  0
 69 70  1  0
 70 71  1  0
 71 72  1  0
 72 73  1  0
 73 74  1  0
 74 75  1  0
 75 76  1  0
 76 77  1  0
 77 78  1  0
 78 79  1  0
 79 80  1  0
 80 81  1  0
 81 82  1  0
 82 83  1  0
 83 84  1  0
 84 85  1  0
 85 86  1  0
 86 87  1  0
 87 88  1  0
 88 89  1  0
 89 90  1  0
 90 91  1  0
 91 92  1  0
 92 93  1  0
 93 94  1  0
 94 95  1  0
 95 96  1  0
 96 97  1  0
 97 98  1  0
 98 99  1  0
 99100  1  0
100101  1  0
101102  1  0
102103  1  0
103104  1  0
104105  1  0
105106  1  0
106107  1  0
107108  1  0
108109  1  0
109110  1  0
110111  1  0
111112  1  0
112113  1  0
113114  1  0
114115  1  0
115116  1  0
116117  1  0
117118  1  0
118  1  1  0
M  END
>  <Title>  (890) 
idABGHgen10

$$$$

     RDKit          2D

  7  7  0  0  0  0  0  0  0  0999 V2000
    3.0000    0.0000    0.0000 O   0  0  0  0  0  0  0  0  0  0  0  0
    1.5000    0.0000    0.0000 C   0  0  0  0  0  0  0  0  0  0  0  0
    0.7500   -1.2990    0.0000 C   0  0  0  0  0  0  0  0  0  0  0  0
   -0.7500   -1.2990    0.0000 C   0  0  0  0  0  0  0  0  0  0  0  0
   -1.5000    0.0000    0.0000 C   0  0  0  0  0  0  0  0  0  0  0  0
   -0.7500    1.2990    0.0000 C   0  0  0  0  0  0  0  0  0  0  0  0
    0.7500    1.2990    0.0000 C   0  0  0  0  0  0  0  0  0  0  0  0
  1  2  1  0
  2  3  1  0
  3  4  1  0
  4  5  2  0
  5  6  1  0
  6  7  1  0
  7  2  1  0
M  END
>  <Title>  (891) 
idABGIgen10

$$$$

     RDKit          2D

 10  9  0  0  0  0  0  0  0  0999 V2000
    0.0000    0.0000    0.0000 C   0  0  0  0  0  0  0  0  0  0  0  0
   -0.0000   -1.5000    0.0000 C   0  0  0  0  0  0  0  0  0  0  0  0
   -0.0000   -3.0000    0.0000 C   0  0  0  0  0  0  0  0  0  0  0  0
   -0.0000   -4.5000    0.0000 C   0  0  0  0  0  0  0  0  0  0  0  0
   -0.0000   -6.0000    0.0000 C   0  0  0  0  0  0  0  0  0  0  0  0
   -0.0000   -7.5000    0.0000 C   0  0  0  0  0  0  0  0  0  0  0  0
   -0.0000   -9.0000    0.0000 C   0  0  0  0  0  0  0  0  0  0  0  0
   -0.0000  -10.5000    0.0000 C   0  0  0  0  0  0  0  0  0  0  0  0
   -0.0000  -12.0000    0.0000 C   0  0  0  0  0  0  0  0  0  0  0  0
    1.2990  -12.7500    0.0000 C   0  0  0  0  0  0  0  0  0  0  0  0
  1  2  3  0
  2  3  1  0
  3  4  3  0
  4  5  1  0
  5  6  3  0
  6  7  1  0
  7  8  3  0
  8  9  1  0
  9 10  1  0
M  END
>  <Title>  (892) 
idABGJgen10

$$$$

     RDKit          2D

 98 99  0  0  0  0  0  0  0  0999 V2000
   -2.3983    0.0920    0.0000 C   0  0  0  0  0  0  0  0  0  0  0  0
   -2.2466   -1.4003    0.0000 C   0  0  0  0  0  0  0  0  0  0  0  0
   -3.7329   -1.6024    0.0000 C   0  0  0  0  0  0  0  0  0  0  0  0
   -5.2022   -1.9043    0.0000 C   0  0  0  0  0  0  0  0  0  0  0  0
   -6.6478   -2.3048    0.0000 C   0  0  0  0  0  0  0  0  0  0  0  0
   -8.0630   -2.8019    0.0000 C   0  0  0  0  0  0  0  0  0  0  0  0
   -9.4414   -3.3934    0.0000 C   0  0  0  0  0  0  0  0  0  0  0  0
  -10.7768   -4.0767    0.0000 C   0  0  0  0  0  0  0  0  0  0  0  0
  -12.0630   -4.8485    0.0000 C   0  0  0  0  0  0  0  0  0  0  0  0
  -13.2941   -5.7054    0.0000 C   0  0  0  0  0  0  0  0  0  0  0  0
  -14.4646   -6.6435    0.0000 C   0  0  0  0  0  0  0  0  0  0  0  0
  -15.5691   -7.6584    0.0000 C   0  0  0  0  0  0  0  0  0  0  0  0
  -16.6025   -8.7456    0.0000 C   0  0  0  0  0  0  0  0  0  0  0  0
  -17.5602   -9.9001    0.0000 C   0  0  0  0  0  0  0  0  0  0  0  0
  -18.4378  -11.1166    0.0000 C   0  0  0  0  0  0  0  0  0  0  0  0
  -19.2313  -12.3895    0.0000 C   0  0  0  0  0  0  0  0  0  0  0  0
  -19.9370  -13.7132    0.0000 C   0  0  0  0  0  0  0  0  0  0  0  0
  -20.5517  -15.0814    0.0000 C   0  0  0  0  0  0  0  0  0  0  0  0
  -21.0726  -16.4880    0.0000 C   0  0  0  0  0  0  0  0  0  0  0  0
  -21.4974  -17.9266    0.0000 C   0  0  0  0  0  0  0  0  0  0  0  0
  -21.8242  -19.3906    0.0000 C   0  0  0  0  0  0  0  0  0  0  0  0
  -22.0513  -20.8733    0.0000 C   0  0  0  0  0  0  0  0  0  0  0  0
  -22.1778  -22.3680    0.0000 C   0  0  0  0  0  0  0  0  0  0  0  0
  -22.2032  -23.8678    0.0000 C   0  0  0  0  0  0  0  0  0  0  0  0
  -22.1272  -25.3658    0.0000 C   0  0  0  0  0  0  0  0  0  0  0  0
  -21.9503  -26.8554    0.0000 C   0  0  0  0  0  0  0  0  0  0  0  0
  -21.6732  -28.3295    0.0000 C   0  0  0  0  0  0  0  0  0  0  0  0
  -21.2972  -29.7817    0.0000 C   0  0  0  0  0  0  0  0  0  0  0  0
  -20.8240  -31.2051    0.0000 C   0  0  0  0  0  0  0  0  0  0  0  0
  -20.2559  -32.5933    0.0000 C   0  0  0  0  0  0  0  0  0  0  0  0
  -19.5953  -33.9400    0.0000 C   0  0  0  0  0  0  0  0  0  0  0  0
  -18.8453  -35.2391    0.0000 C   0  0  0  0  0  0  0  0  0  0  0  0
  -18.0093  -36.4845    0.0000 C   0  0  0  0  0  0  0  0  0  0  0  0
  -17.0911  -37.6707    0.0000 C   0  0  0  0  0  0  0  0  0  0  0  0
  -16.0950  -38.7921    0.0000 C   0  0  0  0  0  0  0  0  0  0  0  0
  -15.0254  -39.8438    0.0000 C   0  0  0  0  0  0  0  0  0  0  0  0
  -13.8873  -40.8209    0.0000 C   0  0  0  0  0  0  0  0  0  0  0  0
  -12.6858  -41.7189    0.0000 C   0  0  0  0  0  0  0  0  0  0  0  0
  -11.4264  -42.5337    0.0000 C   0  0  0  0  0  0  0  0  0  0  0  0
  -10.1149  -43.2616    0.0000 C   0  0  0  0  0  0  0  0  0  0  0  0
   -8.7572  -43.8994    0.0000 C   0  0  0  0  0  0  0  0  0  0  0  0
   -7.3596  -44.4440    0.0000 C   0  0  0  0  0  0  0  0  0  0  0  0
   -5.9284  -44.8931    0.0000 C   0  0  0  0  0  0  0  0  0  0  0  0
   -4.4701  -45.2445    0.0000 C   0  0  0  0  0  0  0  0  0  0  0  0
   -2.9914  -45.4966    0.0000 C   0  0  0  0  0  0  0  0  0  0  0  0
   -1.4991  -45.6484    0.0000 C   0  0  0  0  0  0  0  0  0  0  0  0
    0.0000  -45.6990    0.0000 C   0  0  0  0  0  0  0  0  0  0  0  0
    1.4991  -45.6484    0.0000 C   0  0  0  0  0  0  0  0  0  0  0  0
    2.9914  -45.4966    0.0000 C   0  0  0  0  0  0  0  0  0  0  0  0
    4.4701  -45.2445    0.0000 C   0  0  0  0  0  0  0  0  0  0  0  0
    5.9284  -44.8931    0.0000 C   0  0  0  0  0  0  0  0  0  0  0  0
    7.3596  -44.4440    0.0000 C   0  0  0  0  0  0  0  0  0  0  0  0
    8.7572  -43.8994    0.0000 C   0  0  0  0  0  0  0  0  0  0  0  0
   10.1149  -43.2616    0.0000 C   0  0  0  0  0  0  0  0  0  0  0  0
   11.4264  -42.5337    0.0000 C   0  0  0  0  0  0  0  0  0  0  0  0
   12.6858  -41.7189    0.0000 C   0  0  0  0  0  0  0  0  0  0  0  0
   13.8873  -40.8209    0.0000 C   0  0  0  0  0  0  0  0  0  0  0  0
   15.0254  -39.8438    0.0000 C   0  0  0  0  0  0  0  0  0  0  0  0
   16.0950  -38.7921    0.0000 C   0  0  0  0  0  0  0  0  0  0  0  0
   17.0911  -37.6707    0.0000 C   0  0  0  0  0  0  0  0  0  0  0  0
   18.0093  -36.4845    0.0000 C   0  0  0  0  0  0  0  0  0  0  0  0
   18.8453  -35.2391    0.0000 C   0  0  0  0  0  0  0  0  0  0  0  0
   19.5953  -33.9400    0.0000 C   0  0  0  0  0  0  0  0  0  0  0  0
   20.2559  -32.5933    0.0000 C   0  0  0  0  0  0  0  0  0  0  0  0
   20.8240  -31.2051    0.0000 C   0  0  0  0  0  0  0  0  0  0  0  0
   21.2972  -29.7817    0.0000 C   0  0  0  0  0  0  0  0  0  0  0  0
   21.6732  -28.3295    0.0000 C   0  0  0  0  0  0  0  0  0  0  0  0
   21.9503  -26.8554    0.0000 C   0  0  0  0  0  0  0  0  0  0  0  0
   22.1272  -25.3658    0.0000 C   0  0  0  0  0  0  0  0  0  0  0  0
   22.2032  -23.8678    0.0000 C   0  0  0  0  0  0  0  0  0  0  0  0
   22.1778  -22.3680    0.0000 C   0  0  0  0  0  0  0  0  0  0  0  0
   22.0513  -20.8733    0.0000 C   0  0  0  0  0  0  0  0  0  0  0  0
   21.8242  -19.3906    0.0000 C   0  0  0  0  0  0  0  0  0  0  0  0
   21.4974  -17.9266    0.0000 C   0  0  0  0  0  0  0  0  0  0  0  0
   21.0726  -16.4880    0.0000 C   0  0  0  0  0  0  0  0  0  0  0  0
   20.5517  -15.0814    0.0000 C   0  0  0  0  0  0  0  0  0  0  0  0
   19.9370  -13.7132    0.0000 C   0  0  0  0  0  0  0  0  0  0  0  0
   19.2313  -12.3895    0.0000 C   0  0  0  0  0  0  0  0  0  0  0  0
   18.4378  -11.1166    0.0000 C   0  0  0  0  0  0  0  0  0  0  0  0
   17.5602   -9.9001    0.0000 C   0  0  0  0  0  0  0  0  0  0  0  0
   16.6025   -8.7456    0.0000 C   0  0  0  0  0  0  0  0  0  0  0  0
   15.5691   -7.6584    0.0000 C   0  0  0  0  0  0  0  0  0  0  0  0
   14.4646   -6.6435    0.0000 C   0  0  0  0  0  0  0  0  0  0  0  0
   13.2941   -5.7054    0.0000 C   0  0  0  0  0  0  0  0  0  0  0  0
   12.0630   -4.8485    0.0000 C   0  0  0  0  0  0  0  0  0  0  0  0
   10.7768   -4.0767    0.0000 C   0  0  0  0  0  0  0  0  0  0  0  0
    9.4414   -3.3934    0.0000 C   0  0  0  0  0  0  0  0  0  0  0  0
    8.0630   -2.8019    0.0000 C   0  0  0  0  0  0  0  0  0  0  0  0
    6.6478   -2.3048    0.0000 C   0  0  0  0  0  0  0  0  0  0  0  0
    5.2022   -1.9043    0.0000 C   0  0  0  0  0  0  0  0  0  0  0  0
    3.7329   -1.6024    0.0000 C   0  0  0  0  0  0  0  0  0  0  0  0
    2.2466   -1.4003    0.0000 C   0  0  0  0  0  0  0  0  0  0  0  0
    0.7500   -1.2990    0.0000 C   0  0  0  0  0  0  0  0  0  0  0  0
    1.5000    0.0000    0.0000 C   0  0  0  0  0  0  0  0  0  0  0  0
    0.7500    1.2990    0.0000 C   0  0  0  0  0  0  0  0  0  0  0  0
   -0.7500    1.2990    0.0000 C   0  0  0  0  0  0  0  0  0  0  0  0
   -1.5000    0.0000    0.0000 C   0  0  0  0  0  0  0  0  0  0  0  0
   -0.7500   -1.2990    0.0000 C   0  0  0  0  0  0  0  0  0  0  0  0
  1  2  1  0
  2  3  1  0
  3  4  1  0
  4  5  1  0
  5  6  1  0
  6  7  1  0
  7  8  1  0
  8  9  1  0
  9 10  1  0
 10 11  1  0
 11 12  1  0
 12 13  1  0
 13 14  1  0
 14 15  1  0
 15 16  1  0
 16 17  1  0
 17 18  1  0
 18 19  1  0
 19 20  1  0
 20 21  1  0
 21 22  1  0
 22 23  1  0
 23 24  1  0
 24 25  1  0
 25 26  1  0
 26 27  1  0
 27 28  1  0
 28 29  1  0
 29 30  1  0
 30 31  1  0
 31 32  1  0
 32 33  1  0
 33 34  1  0
 34 35  1  0
 35 36  1  0
 36 37  1  0
 37 38  1  0
 38 39  1  0
 39 40  1  0
 40 41  1  0
 41 42  1  0
 42 43  1  0
 43 44  1  0
 44 45  1  0
 45 46  1  0
 46 47  1  0
 47 48  1  0
 48 49  1  0
 49 50  1  0
 50 51  1  0
 51 52  1  0
 52 53  1  0
 53 54  1  0
 54 55  1  0
 55 56  1  0
 56 57  1  0
 57 58  1  0
 58 59  1  0
 59 60  1  0
 60 61  1  0
 61 62  1  0
 62 63  1  0
 63 64  1  0
 64 65  1  0
 65 66  1  0
 66 67  1  0
 67 68  1  0
 68 69  1  0
 69 70  1  0
 70 71  1  0
 71 72  1  0
 72 73  1  0
 73 74  1  0
 74 75  1  0
 75 76  1  0
 76 77  1  0
 77 78  1  0
 78 79  1  0
 79 80  1  0
 80 81  1  0
 81 82  1  0
 82 83  1  0
 83 84  1  0
 84 85  1  0
 85 86  1  0
 86 87  1  0
 87 88  1  0
 88 89  1  0
 89 90  1  0
 90 91  1  0
 91 92  1  0
 92 93  1  0
 93 94  1  0
 94 95  1  0
 95 96  1  0
 96 97  1  0
 97 98  2  0
 98  2  1  0
 98 93  1  0
M  END
>  <Title>  (893) 
idABGKgen10

$$$$

     RDKit          2D

  7  7  0  0  0  0  0  0  0  0999 V2000
    2.7760    0.0000    0.0000 C   0  0  0  0  0  0  0  0  0  0  0  0
    1.2760    0.0000    0.0000 C   0  0  0  0  0  0  0  0  0  0  0  0
    0.3943    1.2135    0.0000 C   0  0  0  0  0  0  0  0  0  0  0  0
   -1.0323    0.7500    0.0000 C   0  0  0  0  0  0  0  0  0  0  0  0
   -1.0323   -0.7500    0.0000 C   0  0  0  0  0  0  0  0  0  0  0  0
    0.3943   -1.2135    0.0000 C   0  0  0  0  0  0  0  0  0  0  0  0
    0.8578   -2.6401    0.0000 C   0  0  0  0  0  0  0  0  0  0  0  0
  1  2  1  0
  2  3  1  0
  3  4  1  0
  4  5  1  0
  5  6  1  0
  6  7  1  0
  6  2  1  0
M  END
>  <Title>  (894) 
idABGLgen10

$$$$

     RDKit          2D

 12 12  0  0  0  0  0  0  0  0999 V2000
    9.7500   -1.2990    0.0000 C   0  0  0  0  0  0  0  0  0  0  0  0
    8.2500   -1.2990    0.0000 C   0  0  0  0  0  0  0  0  0  0  0  0
    6.7500   -1.2990    0.0000 C   0  0  0  0  0  0  0  0  0  0  0  0
    5.2500   -1.2990    0.0000 C   0  0  0  0  0  0  0  0  0  0  0  0
    3.7500   -1.2990    0.0000 C   0  0  0  0  0  0  0  0  0  0  0  0
    3.0000    0.0000    0.0000 C   0  0  0  0  0  0  0  0  0  0  0  0
    1.5000    0.0000    0.0000 C   0  0  0  0  0  0  0  0  0  0  0  0
    0.7500   -1.2990    0.0000 C   0  0  0  0  0  0  0  0  0  0  0  0
   -0.7500   -1.2990    0.0000 C   0  0  0  0  0  0  0  0  0  0  0  0
   -1.5000    0.0000    0.0000 C   0  0  0  0  0  0  0  0  0  0  0  0
   -0.7500    1.2990    0.0000 C   0  0  0  0  0  0  0  0  0  0  0  0
    0.7500    1.2990    0.0000 C   0  0  0  0  0  0  0  0  0  0  0  0
  1  2  3  0
  2  3  1  0
  3  4  3  0
  4  5  1  0
  5  6  2  3
  6  7  1  0
  7  8  2  0
  8  9  1  0
  9 10  2  0
 10 11  1  0
 11 12  2  0
 12  7  1  0
M  END
>  <Title>  (895) 
idABGMgen10

$$$$

     RDKit          2D

 81 82  0  0  0  0  0  0  0  0999 V2000
    5.4764   -4.2848    0.0000 C   0  0  0  0  0  0  0  0  0  0  0  0
    6.2666   -4.3904    0.0000 C   0  0  0  0  0  0  0  0  0  0  0  0
    6.1579   -5.8865    0.0000 C   0  0  0  0  0  0  0  0  0  0  0  0
    6.2304   -7.3847    0.0000 C   0  0  0  0  0  0  0  0  0  0  0  0
    6.4829   -8.8633    0.0000 C   0  0  0  0  0  0  0  0  0  0  0  0
    6.9118  -10.3007    0.0000 C   0  0  0  0  0  0  0  0  0  0  0  0
    7.5109  -11.6759    0.0000 C   0  0  0  0  0  0  0  0  0  0  0  0
    8.2713  -12.9688    0.0000 C   0  0  0  0  0  0  0  0  0  0  0  0
    9.1821  -14.1607    0.0000 C   0  0  0  0  0  0  0  0  0  0  0  0
   10.2298  -15.2341    0.0000 C   0  0  0  0  0  0  0  0  0  0  0  0
   11.3994  -16.1734    0.0000 C   0  0  0  0  0  0  0  0  0  0  0  0
   12.6736  -16.9648    0.0000 C   0  0  0  0  0  0  0  0  0  0  0  0
   14.0339  -17.5969    0.0000 C   0  0  0  0  0  0  0  0  0  0  0  0
   15.4605  -18.0605    0.0000 C   0  0  0  0  0  0  0  0  0  0  0  0
   16.9325  -18.3487    0.0000 C   0  0  0  0  0  0  0  0  0  0  0  0
   18.4286  -18.4573    0.0000 C   0  0  0  0  0  0  0  0  0  0  0  0
   19.9268  -18.3848    0.0000 C   0  0  0  0  0  0  0  0  0  0  0  0
   21.4054  -18.1323    0.0000 C   0  0  0  0  0  0  0  0  0  0  0  0
   22.8428  -17.7034    0.0000 C   0  0  0  0  0  0  0  0  0  0  0  0
   24.2180  -17.1043    0.0000 C   0  0  0  0  0  0  0  0  0  0  0  0
   25.5109  -16.3439    0.0000 C   0  0  0  0  0  0  0  0  0  0  0  0
   26.7028  -15.4331    0.0000 C   0  0  0  0  0  0  0  0  0  0  0  0
   27.7762  -14.3854    0.0000 C   0  0  0  0  0  0  0  0  0  0  0  0
   28.7155  -13.2159    0.0000 C   0  0  0  0  0  0  0  0  0  0  0  0
   29.5069  -11.9417    0.0000 C   0  0  0  0  0  0  0  0  0  0  0  0
   30.1390  -10.5814    0.0000 C   0  0  0  0  0  0  0  0  0  0  0  0
   30.6025   -9.1548    0.0000 C   0  0  0  0  0  0  0  0  0  0  0  0
   30.8907   -7.6827    0.0000 C   0  0  0  0  0  0  0  0  0  0  0  0
   30.9994   -6.1867    0.0000 C   0  0  0  0  0  0  0  0  0  0  0  0
   30.9269   -4.6884    0.0000 C   0  0  0  0  0  0  0  0  0  0  0  0
   30.6744   -3.2098    0.0000 C   0  0  0  0  0  0  0  0  0  0  0  0
   30.2455   -1.7725    0.0000 C   0  0  0  0  0  0  0  0  0  0  0  0
   29.6464   -0.3973    0.0000 C   0  0  0  0  0  0  0  0  0  0  0  0
   28.8860    0.8957    0.0000 C   0  0  0  0  0  0  0  0  0  0  0  0
   27.9752    2.0876    0.0000 C   0  0  0  0  0  0  0  0  0  0  0  0
   26.9275    3.1610    0.0000 C   0  0  0  0  0  0  0  0  0  0  0  0
   25.7580    4.1002    0.0000 C   0  0  0  0  0  0  0  0  0  0  0  0
   24.4838    4.8917    0.0000 C   0  0  0  0  0  0  0  0  0  0  0  0
   23.1234    5.5238    0.0000 C   0  0  0  0  0  0  0  0  0  0  0  0
   21.6969    5.9873    0.0000 C   0  0  0  0  0  0  0  0  0  0  0  0
   20.2248    6.2755    0.0000 C   0  0  0  0  0  0  0  0  0  0  0  0
   18.7287    6.3842    0.0000 C   0  0  0  0  0  0  0  0  0  0  0  0
   17.2305    6.3117    0.0000 C   0  0  0  0  0  0  0  0  0  0  0  0
   15.7519    6.0592    0.0000 C   0  0  0  0  0  0  0  0  0  0  0  0
   14.3145    5.6302    0.0000 C   0  0  0  0  0  0  0  0  0  0  0  0
   12.9393    5.0312    0.0000 C   0  0  0  0  0  0  0  0  0  0  0  0
   11.6464    4.2708    0.0000 C   0  0  0  0  0  0  0  0  0  0  0  0
   10.4545    3.3600    0.0000 C   0  0  0  0  0  0  0  0  0  0  0  0
    9.3811    2.3122    0.0000 C   0  0  0  0  0  0  0  0  0  0  0  0
    8.4418    1.1427    0.0000 C   0  0  0  0  0  0  0  0  0  0  0  0
    7.6504   -0.1315    0.0000 C   0  0  0  0  0  0  0  0  0  0  0  0
    7.0183   -1.4918    0.0000 C   0  0  0  0  0  0  0  0  0  0  0  0
    6.4751   -0.0000    0.0000 C   0  0  0  0  0  0  0  0  0  0  0  0
    6.3336    1.3462    0.0000 C   0  0  0  0  0  0  0  0  0  0  0  0
    5.9153    2.6337    0.0000 C   0  0  0  0  0  0  0  0  0  0  0  0
    5.2384    3.8060    0.0000 C   0  0  0  0  0  0  0  0  0  0  0  0
    4.3327    4.8119    0.0000 C   0  0  0  0  0  0  0  0  0  0  0  0
    3.2375    5.6076    0.0000 C   0  0  0  0  0  0  0  0  0  0  0  0
    2.0009    6.1582    0.0000 C   0  0  0  0  0  0  0  0  0  0  0  0
    0.6768    6.4396    0.0000 C   0  0  0  0  0  0  0  0  0  0  0  0
   -0.6768    6.4396    0.0000 C   0  0  0  0  0  0  0  0  0  0  0  0
   -2.0009    6.1582    0.0000 C   0  0  0  0  0  0  0  0  0  0  0  0
   -3.2375    5.6076    0.0000 C   0  0  0  0  0  0  0  0  0  0  0  0
   -4.3327    4.8119    0.0000 C   0  0  0  0  0  0  0  0  0  0  0  0
   -5.2384    3.8060    0.0000 C   0  0  0  0  0  0  0  0  0  0  0  0
   -5.9153    2.6337    0.0000 C   0  0  0  0  0  0  0  0  0  0  0  0
   -6.3336    1.3462    0.0000 C   0  0  0  0  0  0  0  0  0  0  0  0
   -6.4751    0.0000    0.0000 C   0  0  0  0  0  0  0  0  0  0  0  0
   -6.3336   -1.3462    0.0000 C   0  0  0  0  0  0  0  0  0  0  0  0
   -5.9153   -2.6337    0.0000 C   0  0  0  0  0  0  0  0  0  0  0  0
   -5.2384   -3.8060    0.0000 C   0  0  0  0  0  0  0  0  0  0  0  0
   -4.3327   -4.8119    0.0000 C   0  0  0  0  0  0  0  0  0  0  0  0
   -3.2375   -5.6076    0.0000 C   0  0  0  0  0  0  0  0  0  0  0  0
   -2.0009   -6.1582    0.0000 C   0  0  0  0  0  0  0  0  0  0  0  0
   -0.6768   -6.4396    0.0000 C   0  0  0  0  0  0  0  0  0  0  0  0
    0.6768   -6.4396    0.0000 C   0  0  0  0  0  0  0  0  0  0  0  0
    2.0009   -6.1582    0.0000 C   0  0  0  0  0  0  0  0  0  0  0  0
    3.2375   -5.6076    0.0000 C   0  0  0  0  0  0  0  0  0  0  0  0
    4.3327   -4.8119    0.0000 C   0  0  0  0  0  0  0  0  0  0  0  0
    5.2384   -3.8060    0.0000 C   0  0  0  0  0  0  0  0  0  0  0  0
    6.5548   -2.9184    0.0000 C   0  0  0  0  0  0  0  0  0  0  0  0
  1  2  1  0
  2  3  1  0
  3  4  1  0
  4  5  1  0
  5  6  1  0
  6  7  1  0
  7  8  1  0
  8  9  1  0
  9 10  1  0
 10 11  1  0
 11 12  1  0
 12 13  1  0
 13 14  1  0
 14 15  1  0
 15 16  1  0
 16 17  1  0
 17 18  1  0
 18 19  1  0
 19 20  1  0
 20 21  1  0
 21 22  1  0
 22 23  1  0
 23 24  1  0
 24 25  1  0
 25 26  1  0
 26 27  1  0
 27 28  1  0
 28 29  1  0
 29 30  1  0
 30 31  1  0
 31 32  1  0
 32 33  1  0
 33 34  1  0
 34 35  1  0
 35 36  1  0
 36 37  1  0
 37 38  1  0
 38 39  1  0
 39 40  1  0
 40 41  1  0
 41 42  1  0
 42 43  1  0
 43 44  1  0
 44 45  1  0
 45 46  1  0
 46 47  1  0
 47 48  1  0
 48 49  1  0
 49 50  1  0
 50 51  1  0
 51 52  1  0
 52 53  1  0
 53 54  1  0
 54 55  1  0
 55 56  1  0
 56 57  1  0
 57 58  1  0
 58 59  1  0
 59 60  1  0
 60 61  1  0
 61 62  1  0
 62 63  1  0
 63 64  1  0
 64 65  1  0
 65 66  1  0
 66 67  1  0
 67 68  1  0
 68 69  1  0
 69 70  1  0
 70 71  2  0
 71 72  1  0
 72 73  2  0
 73 74  1  0
 74 75  2  0
 75 76  1  0
 76 77  2  0
 77 78  1  0
 78 79  2  0
 79 80  1  0
 80 81  2  0
 81  2  1  0
 81 52  1  0
M  END
>  <Title>  (896) 
idABGNgen10

$$$$

     RDKit          2D

 14 14  0  0  0  0  0  0  0  0999 V2000
   12.7500   -1.2990    0.0000 C   0  0  0  0  0  0  0  0  0  0  0  0
   11.2500   -1.2990    0.0000 C   0  0  0  0  0  0  0  0  0  0  0  0
    9.7500   -1.2990    0.0000 C   0  0  0  0  0  0  0  0  0  0  0  0
    8.2500   -1.2990    0.0000 C   0  0  0  0  0  0  0  0  0  0  0  0
    6.7500   -1.2990    0.0000 C   0  0  0  0  0  0  0  0  0  0  0  0
    5.2500   -1.2990    0.0000 C   0  0  0  0  0  0  0  0  0  0  0  0
    3.7500   -1.2990    0.0000 C   0  0  0  0  0  0  0  0  0  0  0  0
    3.0000    0.0000    0.0000 C   0  0  0  0  0  0  0  0  0  0  0  0
    1.5000    0.0000    0.0000 C   0  0  0  0  0  0  0  0  0  0  0  0
    0.7500   -1.2990    0.0000 C   0  0  0  0  0  0  0  0  0  0  0  0
   -0.7500   -1.2990    0.0000 C   0  0  0  0  0  0  0  0  0  0  0  0
   -1.5000    0.0000    0.0000 C   0  0  0  0  0  0  0  0  0  0  0  0
   -0.7500    1.2990    0.0000 C   0  0  0  0  0  0  0  0  0  0  0  0
    0.7500    1.2990    0.0000 C   0  0  0  0  0  0  0  0  0  0  0  0
  1  2  3  0
  2  3  1  0
  3  4  3  0
  4  5  1  0
  5  6  3  0
  6  7  1  0
  7  8  2  3
  8  9  1  0
  9 10  2  0
 10 11  1  0
 11 12  2  0
 12 13  1  0
 13 14  2  0
 14  9  1  0
M  END
>  <Title>  (897) 
idABGOgen10

$$$$

     RDKit          2D

 14 14  0  0  0  0  0  0  0  0999 V2000
    6.0000    2.5981    0.0000 C   0  0  0  0  0  0  0  0  0  0  0  0
    5.2500    1.2990    0.0000 C   0  0  0  0  0  0  0  0  0  0  0  0
    3.7500    1.2990    0.0000 N   0  0  0  0  0  0  0  0  0  0  0  0
    3.0000    0.0000    0.0000 C   0  0  0  0  0  0  0  0  0  0  0  0
    3.7500   -1.2990    0.0000 C   0  0  0  0  0  0  0  0  0  0  0  0
    5.2500   -1.2990    0.0000 O   0  0  0  0  0  0  0  0  0  0  0  0
    1.5000    0.0000    0.0000 C   0  0  0  0  0  0  0  0  0  0  0  0
    0.7500   -1.2990    0.0000 C   0  0  0  0  0  0  0  0  0  0  0  0
   -0.7500   -1.2990    0.0000 C   0  0  0  0  0  0  0  0  0  0  0  0
   -1.5000    0.0000    0.0000 C   0  0  0  0  0  0  0  0  0  0  0  0
   -3.0000    0.0000    0.0000 C   0  0  0  0  0  0  0  0  0  0  0  0
   -0.7500    1.2990    0.0000 C   0  0  0  0  0  0  0  0  0  0  0  0
   -1.5000    2.5981    0.0000 O   0  0  0  0  0  0  0  0  0  0  0  0
    0.7500    1.2990    0.0000 C   0  0  0  0  0  0  0  0  0  0  0  0
  1  2  1  0
  2  3  1  0
  3  4  1  0
  4  5  1  0
  5  6  1  0
  4  7  1  0
  7  8  2  0
  8  9  1  0
  9 10  2  0
 10 11  1  0
 10 12  1  0
 12 13  1  0
 12 14  1  0
 14  7  1  0
M  END
>  <Title>  (898) 
idABGPgen10

$$$$

     RDKit          2D

 50 57  0  0  0  0  0  0  0  0999 V2000
    5.2417   -6.1122    0.0000 C   0  0  0  0  0  0  0  0  0  0  0  0
    3.7705   -5.8195    0.0000 C   0  0  0  0  0  0  0  0  0  0  0  0
    3.7705   -4.3195    0.0000 C   0  0  0  0  0  0  0  0  0  0  0  0
    3.1965   -2.9337    0.0000 C   0  0  0  0  0  0  0  0  0  0  0  0
    2.1358   -1.8731    0.0000 C   0  0  0  0  0  0  0  0  0  0  0  0
    2.9692   -0.6259    0.0000 C   0  0  0  0  0  0  0  0  0  0  0  0
    2.3057    0.7195    0.0000 O   0  0  0  0  0  0  0  0  0  0  0  0
    4.4660   -0.7240    0.0000 N   0  0  0  0  0  0  0  0  0  0  0  0
    5.2993    0.5232    0.0000 C   0  0  0  0  0  0  0  0  0  0  0  0
    6.7961    0.4251    0.0000 N   0  0  0  0  0  0  0  0  0  0  0  0
    7.6295    1.6723    0.0000 N   0  0  0  0  0  0  0  0  0  0  0  0
    6.9660    3.0176    0.0000 N   0  0  0  0  0  0  0  0  0  0  0  0
    5.4692    3.1158    0.0000 N   0  0  0  0  0  0  0  0  0  0  0  0
    4.6359    1.8686    0.0000 N   0  0  0  0  0  0  0  0  0  0  0  0
    0.7500   -1.2990    0.0000 C   0  0  0  0  0  0  0  0  0  0  0  0
    1.5000    0.0000    0.0000 C   0  0  0  0  0  0  0  0  0  0  0  0
    0.7500    1.2990    0.0000 C   0  0  0  0  0  0  0  0  0  0  0  0
   -0.7500    1.2990    0.0000 C   0  0  0  0  0  0  0  0  0  0  0  0
   -1.5000    0.0000    0.0000 C   0  0  0  0  0  0  0  0  0  0  0  0
   -0.7500   -1.2990    0.0000 C   0  0  0  0  0  0  0  0  0  0  0  0
   -2.1358   -1.8731    0.0000 C   0  0  0  0  0  0  0  0  0  0  0  0
   -2.5240   -0.4242    0.0000 C   0  0  0  0  0  0  0  0  0  0  0  0
   -3.9729   -0.0359    0.0000 C   0  0  0  0  0  0  0  0  0  0  0  0
   -5.0336   -1.0966    0.0000 C   0  0  0  0  0  0  0  0  0  0  0  0
   -4.6454   -2.5455    0.0000 C   0  0  0  0  0  0  0  0  0  0  0  0
   -3.1965   -2.9337    0.0000 C   0  0  0  0  0  0  0  0  0  0  0  0
   -3.7705   -4.3195    0.0000 C   0  0  0  0  0  0  0  0  0  0  0  0
   -5.0695   -3.5695    0.0000 C   0  0  0  0  0  0  0  0  0  0  0  0
   -6.3686   -4.3195    0.0000 C   0  0  0  0  0  0  0  0  0  0  0  0
   -6.3686   -5.8195    0.0000 C   0  0  0  0  0  0  0  0  0  0  0  0
   -5.0695   -6.5695    0.0000 C   0  0  0  0  0  0  0  0  0  0  0  0
   -3.7705   -5.8195    0.0000 C   0  0  0  0  0  0  0  0  0  0  0  0
   -3.1965   -7.2054    0.0000 C   0  0  0  0  0  0  0  0  0  0  0  0
   -4.6454   -7.5936    0.0000 C   0  0  0  0  0  0  0  0  0  0  0  0
   -5.0336   -9.0425    0.0000 C   0  0  0  0  0  0  0  0  0  0  0  0
   -3.9729  -10.1031    0.0000 C   0  0  0  0  0  0  0  0  0  0  0  0
   -2.5240   -9.7149    0.0000 C   0  0  0  0  0  0  0  0  0  0  0  0
   -2.1358   -8.2660    0.0000 C   0  0  0  0  0  0  0  0  0  0  0  0
   -0.7500   -8.8400    0.0000 C   0  0  0  0  0  0  0  0  0  0  0  0
   -1.5000  -10.1391    0.0000 C   0  0  0  0  0  0  0  0  0  0  0  0
   -0.7500  -11.4381    0.0000 C   0  0  0  0  0  0  0  0  0  0  0  0
    0.7500  -11.4381    0.0000 C   0  0  0  0  0  0  0  0  0  0  0  0
    1.5000  -10.1391    0.0000 C   0  0  0  0  0  0  0  0  0  0  0  0
    0.7500   -8.8400    0.0000 C   0  0  0  0  0  0  0  0  0  0  0  0
    2.1358   -8.2660    0.0000 C   0  0  0  0  0  0  0  0  0  0  0  0
    2.5240   -9.7149    0.0000 C   0  0  0  0  0  0  0  0  0  0  0  0
    3.9729  -10.1031    0.0000 C   0  0  0  0  0  0  0  0  0  0  0  0
    5.0336   -9.0425    0.0000 C   0  0  0  0  0  0  0  0  0  0  0  0
    4.6454   -7.5936    0.0000 C   0  0  0  0  0  0  0  0  0  0  0  0
    3.1965   -7.2054    0.0000 C   0  0  0  0  0  0  0  0  0  0  0  0
  1  2  1  0
  2  3  1  0
  3  4  1  0
  4  5  1  0
  5  6  1  0
  6  7  2  0
  6  8  1  0
  8  9  1  0
  9 10  2  0
 10 11  1  0
 11 12  2  0
 12 13  1  0
 13 14  2  0
  5 15  1  0
 15 16  2  0
 16 17  1  0
 17 18  2  0
 18 19  1  0
 19 20  2  0
 20 21  1  0
 21 22  2  0
 22 23  1  0
 23 24  2  0
 24 25  1  0
 25 26  2  0
 26 27  1  0
 27 28  2  0
 28 29  1  0
 29 30  2  0
 30 31  1  0
 31 32  2  0
 32 33  1  0
 33 34  2  0
 34 35  1  0
 35 36  2  0
 36 37  1  0
 37 38  2  0
 38 39  1  0
 39 40  2  0
 40 41  1  0
 41 42  2  0
 42 43  1  0
 43 44  2  0
 44 45  1  0
 45 46  2  0
 46 47  1  0
 47 48  2  0
 48 49  1  0
 49 50  2  0
 50  2  1  0
 14  9  1  0
 20 15  1  0
 26 21  1  0
 32 27  1  0
 38 33  1  0
 44 39  1  0
 50 45  1  0
M  END
>  <Title>  (899) 
idABGQgen10

$$$$

     RDKit          2D

 79 81  0  0  0  0  0  0  0  0999 V2000
   -4.7442   -3.2780    0.0000 C   0  0  0  0  0  0  0  0  0  0  0  0
   -3.7595   -4.4095    0.0000 C   0  0  0  0  0  0  0  0  0  0  0  0
   -4.8444   -5.4454    0.0000 C   0  0  0  0  0  0  0  0  0  0  0  0
   -5.8291   -6.5770    0.0000 C   0  0  0  0  0  0  0  0  0  0  0  0
   -6.7051   -7.7946    0.0000 C   0  0  0  0  0  0  0  0  0  0  0  0
   -7.4651   -9.0878    0.0000 C   0  0  0  0  0  0  0  0  0  0  0  0
   -8.1025  -10.4456    0.0000 C   0  0  0  0  0  0  0  0  0  0  0  0
   -8.6119  -11.8565    0.0000 C   0  0  0  0  0  0  0  0  0  0  0  0
   -8.9890  -13.3083    0.0000 C   0  0  0  0  0  0  0  0  0  0  0  0
   -9.2305  -14.7887    0.0000 C   0  0  0  0  0  0  0  0  0  0  0  0
   -9.3344  -16.2851    0.0000 C   0  0  0  0  0  0  0  0  0  0  0  0
   -9.2997  -17.7847    0.0000 C   0  0  0  0  0  0  0  0  0  0  0  0
   -9.1268  -19.2747    0.0000 C   0  0  0  0  0  0  0  0  0  0  0  0
   -8.8172  -20.7424    0.0000 C   0  0  0  0  0  0  0  0  0  0  0  0
   -8.3735  -22.1753    0.0000 C   0  0  0  0  0  0  0  0  0  0  0  0
   -7.7995  -23.5611    0.0000 C   0  0  0  0  0  0  0  0  0  0  0  0
   -7.1001  -24.8881    0.0000 C   0  0  0  0  0  0  0  0  0  0  0  0
   -6.2812  -26.1448    0.0000 C   0  0  0  0  0  0  0  0  0  0  0  0
   -5.3498  -27.3207    0.0000 C   0  0  0  0  0  0  0  0  0  0  0  0
   -4.3139  -28.4055    0.0000 C   0  0  0  0  0  0  0  0  0  0  0  0
   -3.1824  -29.3902    0.0000 C   0  0  0  0  0  0  0  0  0  0  0  0
   -1.9648  -30.2663    0.0000 C   0  0  0  0  0  0  0  0  0  0  0  0
   -0.6716  -31.0262    0.0000 C   0  0  0  0  0  0  0  0  0  0  0  0
    0.6863  -31.6637    0.0000 C   0  0  0  0  0  0  0  0  0  0  0  0
    2.0971  -32.1731    0.0000 C   0  0  0  0  0  0  0  0  0  0  0  0
    3.5490  -32.5501    0.0000 C   0  0  0  0  0  0  0  0  0  0  0  0
    5.0294  -32.7916    0.0000 C   0  0  0  0  0  0  0  0  0  0  0  0
    6.5258  -32.8955    0.0000 C   0  0  0  0  0  0  0  0  0  0  0  0
    8.0254  -32.8608    0.0000 C   0  0  0  0  0  0  0  0  0  0  0  0
    9.5154  -32.6880    0.0000 C   0  0  0  0  0  0  0  0  0  0  0  0
   10.9831  -32.3784    0.0000 C   0  0  0  0  0  0  0  0  0  0  0  0
   12.4160  -31.9347    0.0000 C   0  0  0  0  0  0  0  0  0  0  0  0
   13.8018  -31.3606    0.0000 C   0  0  0  0  0  0  0  0  0  0  0  0
   15.1287  -30.6612    0.0000 C   0  0  0  0  0  0  0  0  0  0  0  0
   16.3855  -29.8423    0.0000 C   0  0  0  0  0  0  0  0  0  0  0  0
   17.5613  -28.9109    0.0000 C   0  0  0  0  0  0  0  0  0  0  0  0
   18.6462  -27.8751    0.0000 C   0  0  0  0  0  0  0  0  0  0  0  0
   19.6309  -26.7435    0.0000 C   0  0  0  0  0  0  0  0  0  0  0  0
   20.5069  -25.5259    0.0000 C   0  0  0  0  0  0  0  0  0  0  0  0
   21.2669  -24.2327    0.0000 C   0  0  0  0  0  0  0  0  0  0  0  0
   21.9043  -22.8749    0.0000 C   0  0  0  0  0  0  0  0  0  0  0  0
   22.4137  -21.4640    0.0000 C   0  0  0  0  0  0  0  0  0  0  0  0
   22.7908  -20.0122    0.0000 C   0  0  0  0  0  0  0  0  0  0  0  0
   23.0323  -18.5317    0.0000 C   0  0  0  0  0  0  0  0  0  0  0  0
   23.1361  -17.0353    0.0000 C   0  0  0  0  0  0  0  0  0  0  0  0
   23.1015  -15.5357    0.0000 C   0  0  0  0  0  0  0  0  0  0  0  0
   22.9286  -14.0457    0.0000 C   0  0  0  0  0  0  0  0  0  0  0  0
   22.6190  -12.5780    0.0000 C   0  0  0  0  0  0  0  0  0  0  0  0
   22.1753  -11.1452    0.0000 C   0  0  0  0  0  0  0  0  0  0  0  0
   21.6013   -9.7593    0.0000 C   0  0  0  0  0  0  0  0  0  0  0  0
   20.9018   -8.4324    0.0000 C   0  0  0  0  0  0  0  0  0  0  0  0
   20.0830   -7.1757    0.0000 C   0  0  0  0  0  0  0  0  0  0  0  0
   19.1516   -5.9998    0.0000 C   0  0  0  0  0  0  0  0  0  0  0  0
   18.1157   -4.9149    0.0000 C   0  0  0  0  0  0  0  0  0  0  0  0
   16.9842   -3.9303    0.0000 C   0  0  0  0  0  0  0  0  0  0  0  0
   15.7666   -3.0542    0.0000 C   0  0  0  0  0  0  0  0  0  0  0  0
   14.4733   -2.2942    0.0000 C   0  0  0  0  0  0  0  0  0  0  0  0
   13.1155   -1.6568    0.0000 C   0  0  0  0  0  0  0  0  0  0  0  0
   11.7047   -1.1474    0.0000 C   0  0  0  0  0  0  0  0  0  0  0  0
   10.2528   -0.7704    0.0000 C   0  0  0  0  0  0  0  0  0  0  0  0
    8.7724   -0.5289    0.0000 C   0  0  0  0  0  0  0  0  0  0  0  0
    7.2760   -0.4250    0.0000 C   0  0  0  0  0  0  0  0  0  0  0  0
    5.7764   -0.4596    0.0000 C   0  0  0  0  0  0  0  0  0  0  0  0
    4.2864   -0.6325    0.0000 C   0  0  0  0  0  0  0  0  0  0  0  0
    2.8187   -0.9421    0.0000 C   0  0  0  0  0  0  0  0  0  0  0  0
    1.3858   -1.3858    0.0000 C   0  0  0  0  0  0  0  0  0  0  0  0
    1.9598    0.0000    0.0000 C   0  0  0  0  0  0  0  0  0  0  0  0
    1.3858    1.3858    0.0000 C   0  0  0  0  0  0  0  0  0  0  0  0
    0.0000    1.9598    0.0000 C   0  0  0  0  0  0  0  0  0  0  0  0
   -1.3858    1.3858    0.0000 C   0  0  0  0  0  0  0  0  0  0  0  0
   -1.9598    0.0000    0.0000 C   0  0  0  0  0  0  0  0  0  0  0  0
   -1.3858   -1.3858    0.0000 C   0  0  0  0  0  0  0  0  0  0  0  0
   -0.0000   -1.9598    0.0000 C   0  0  0  0  0  0  0  0  0  0  0  0
   -1.3269   -2.6593    0.0000 C   0  0  0  0  0  0  0  0  0  0  0  0
    0.0106   -3.3382    0.0000 C   0  0  0  0  0  0  0  0  0  0  0  0
    0.0914   -4.8360    0.0000 C   0  0  0  0  0  0  0  0  0  0  0  0
   -1.1653   -5.6549    0.0000 C   0  0  0  0  0  0  0  0  0  0  0  0
   -2.5029   -4.9760    0.0000 C   0  0  0  0  0  0  0  0  0  0  0  0
   -2.5837   -3.4782    0.0000 C   0  0  0  0  0  0  0  0  0  0  0  0
  1  2  1  0
  2  3  1  0
  3  4  2  0
  4  5  1  0
  5  6  1  0
  6  7  1  0
  7  8  1  0
  8  9  1  0
  9 10  1  0
 10 11  1  0
 11 12  1  0
 12 13  1  0
 13 14  1  0
 14 15  1  0
 15 16  1  0
 16 17  1  0
 17 18  1  0
 18 19  1  0
 19 20  1  0
 20 21  1  0
 21 22  1  0
 22 23  1  0
 23 24  1  0
 24 25  1  0
 25 26  1  0
 26 27  1  0
 27 28  1  0
 28 29  1  0
 29 30  1  0
 30 31  1  0
 31 32  1  0
 32 33  1  0
 33 34  1  0
 34 35  1  0
 35 36  1  0
 36 37  1  0
 37 38  1  0
 38 39  1  0
 39 40  1  0
 40 41  1  0
 41 42  1  0
 42 43  1  0
 43 44  1  0
 44 45  1  0
 45 46  1  0
 46 47  1  0
 47 48  1  0
 48 49  1  0
 49 50  1  0
 50 51  1  0
 51 52  1  0
 52 53  1  0
 53 54  1  0
 54 55  1  0
 55 56  1  0
 56 57  1  0
 57 58  1  0
 58 59  1  0
 59 60  1  0
 60 61  1  0
 61 62  1  0
 62 63  1  0
 63 64  1  0
 64 65  1  0
 65 66  1  0
 66 67  1  0
 67 68  1  0
 68 69  1  0
 69 70  1  0
 70 71  1  0
 71 72  1  0
 72 73  1  0
 73 74  1  0
 74 75  2  0
 75 76  1  0
 76 77  2  0
 77 78  1  0
 78 79  2  0
 79  2  1  0
 73 66  1  0
 79 74  1  0
M  END
>  <Title>  (900) 
idABGRgen10

$$$$

     RDKit          2D

  5  5  0  0  0  0  0  0  0  0999 V2000
    2.5607    0.0000    0.0000 C   0  0  0  0  0  0  0  0  0  0  0  0
    1.0607    0.0000    0.0000 N   0  0  0  0  0  0  0  0  0  0  0  0
   -0.0000   -1.0607    0.0000 C   0  0  0  0  0  0  0  0  0  0  0  0
   -1.0607    0.0000    0.0000 C   0  0  0  0  0  0  0  0  0  0  0  0
    0.0000    1.0607    0.0000 C   0  0  0  0  0  0  0  0  0  0  0  0
  1  2  1  0
  2  3  1  0
  3  4  2  0
  4  5  1  0
  5  2  1  0
M  END
>  <Title>  (901) 
idABGSgen10

$$$$

     RDKit          2D

 39 44  0  0  0  0  0  0  0  0999 V2000
    8.2183   -5.6591    0.0000 C   0  0  0  0  0  0  0  0  0  0  0  0
    6.9790   -6.5041    0.0000 C   0  0  0  0  0  0  0  0  0  0  0  0
    5.6275   -5.8532    0.0000 C   0  0  0  0  0  0  0  0  0  0  0  0
    5.5154   -4.3574    0.0000 O   0  0  0  0  0  0  0  0  0  0  0  0
    4.3881   -6.6982    0.0000 N   0  0  0  0  0  0  0  0  0  0  0  0
    3.0367   -6.0474    0.0000 C   0  0  0  0  0  0  0  0  0  0  0  0
    3.3705   -4.5850    0.0000 N   0  0  0  0  0  0  0  0  0  0  0  0
    3.0367   -3.1226    0.0000 N   0  0  0  0  0  0  0  0  0  0  0  0
    2.1015   -1.9499    0.0000 N   0  0  0  0  0  0  0  0  0  0  0  0
    0.7500   -1.2990    0.0000 N   0  0  0  0  0  0  0  0  0  0  0  0
    1.5000    0.0000    0.0000 C   0  0  0  0  0  0  0  0  0  0  0  0
    0.7500    1.2990    0.0000 C   0  0  0  0  0  0  0  0  0  0  0  0
   -0.7500    1.2990    0.0000 C   0  0  0  0  0  0  0  0  0  0  0  0
   -1.5000    0.0000    0.0000 C   0  0  0  0  0  0  0  0  0  0  0  0
   -0.7500   -1.2990    0.0000 C   0  0  0  0  0  0  0  0  0  0  0  0
   -2.1015   -1.9499    0.0000 C   0  0  0  0  0  0  0  0  0  0  0  0
   -2.6495   -0.5536    0.0000 C   0  0  0  0  0  0  0  0  0  0  0  0
   -4.1327   -0.3300    0.0000 C   0  0  0  0  0  0  0  0  0  0  0  0
   -5.0679   -1.5027    0.0000 C   0  0  0  0  0  0  0  0  0  0  0  0
   -4.5199   -2.8990    0.0000 C   0  0  0  0  0  0  0  0  0  0  0  0
   -3.0367   -3.1226    0.0000 C   0  0  0  0  0  0  0  0  0  0  0  0
   -3.3705   -4.5850    0.0000 C   0  0  0  0  0  0  0  0  0  0  0  0
   -4.8038   -4.1429    0.0000 C   0  0  0  0  0  0  0  0  0  0  0  0
   -5.9034   -5.1631    0.0000 C   0  0  0  0  0  0  0  0  0  0  0  0
   -5.5696   -6.6255    0.0000 C   0  0  0  0  0  0  0  0  0  0  0  0
   -4.1363   -7.0677    0.0000 C   0  0  0  0  0  0  0  0  0  0  0  0
   -3.0367   -6.0474    0.0000 C   0  0  0  0  0  0  0  0  0  0  0  0
   -2.1015   -7.2201    0.0000 C   0  0  0  0  0  0  0  0  0  0  0  0
   -3.3408   -8.0651    0.0000 C   0  0  0  0  0  0  0  0  0  0  0  0
   -3.2287   -9.5609    0.0000 C   0  0  0  0  0  0  0  0  0  0  0  0
   -1.8773  -10.2118    0.0000 C   0  0  0  0  0  0  0  0  0  0  0  0
   -0.6379   -9.3668    0.0000 C   0  0  0  0  0  0  0  0  0  0  0  0
   -0.7500   -7.8710    0.0000 C   0  0  0  0  0  0  0  0  0  0  0  0
    0.7500   -7.8710    0.0000 C   0  0  0  0  0  0  0  0  0  0  0  0
    0.6379   -9.3668    0.0000 C   0  0  0  0  0  0  0  0  0  0  0  0
    1.8773  -10.2118    0.0000 C   0  0  0  0  0  0  0  0  0  0  0  0
    3.2287   -9.5609    0.0000 C   0  0  0  0  0  0  0  0  0  0  0  0
    3.3408   -8.0651    0.0000 C   0  0  0  0  0  0  0  0  0  0  0  0
    2.1015   -7.2201    0.0000 C   0  0  0  0  0  0  0  0  0  0  0  0
  1  2  1  0
  2  3  1  0
  3  4  2  0
  3  5  1  0
  5  6  1  0
  6  7  2  0
  7  8  1  0
  8  9  2  0
  9 10  1  0
 10 11  1  0
 11 12  1  0
 12 13  2  0
 13 14  1  0
 14 15  2  0
 15 16  1  0
 16 17  2  0
 17 18  1  0
 18 19  2  0
 19 20  1  0
 20 21  2  0
 21 22  1  0
 22 23  2  0
 23 24  1  0
 24 25  2  0
 25 26  1  0
 26 27  2  0
 27 28  1  0
 28 29  2  0
 29 30  1  0
 30 31  2  0
 31 32  1  0
 32 33  2  0
 33 34  1  0
 34 35  2  0
 35 36  1  0
 36 37  2  0
 37 38  1  0
 38 39  2  0
 39  6  1  0
 15 10  1  0
 21 16  1  0
 27 22  1  0
 33 28  1  0
 39 34  1  0
M  END
>  <Title>  (902) 
idABGTgen10

$$$$

     RDKit          2D

 17 18  0  0  0  0  0  0  0  0999 V2000
   -6.5349   -7.9615    0.0000 C   0  0  0  0  0  0  0  0  0  0  0  0
   -5.1646   -7.3514    0.0000 C   0  0  0  0  0  0  0  0  0  0  0  0
   -3.7943   -6.7413    0.0000 C   0  0  0  0  0  0  0  0  0  0  0  0
   -2.4240   -6.1312    0.0000 C   0  0  0  0  0  0  0  0  0  0  0  0
   -1.0537   -5.5211    0.0000 C   0  0  0  0  0  0  0  0  0  0  0  0
    0.2454   -6.2711    0.0000 C   0  0  0  0  0  0  0  0  0  0  0  0
    1.3601   -5.2674    0.0000 C   0  0  0  0  0  0  0  0  0  0  0  0
    0.7500   -3.8971    0.0000 N   0  0  0  0  0  0  0  0  0  0  0  0
    1.5000   -2.5981    0.0000 C   0  0  0  0  0  0  0  0  0  0  0  0
    3.0000   -2.5981    0.0000 O   0  0  0  0  0  0  0  0  0  0  0  0
    0.7500   -1.2990    0.0000 C   0  0  0  0  0  0  0  0  0  0  0  0
    1.5000    0.0000    0.0000 C   0  0  0  0  0  0  0  0  0  0  0  0
    0.7500    1.2990    0.0000 C   0  0  0  0  0  0  0  0  0  0  0  0
   -0.7500    1.2990    0.0000 C   0  0  0  0  0  0  0  0  0  0  0  0
   -1.5000    0.0000    0.0000 C   0  0  0  0  0  0  0  0  0  0  0  0
   -0.7500   -1.2990    0.0000 C   0  0  0  0  0  0  0  0  0  0  0  0
   -0.7418   -4.0539    0.0000 C   0  0  0  0  0  0  0  0  0  0  0  0
  1  2  3  0
  2  3  1  0
  3  4  3  0
  4  5  1  0
  5  6  1  0
  6  7  1  0
  7  8  1  0
  8  9  1  0
  9 10  2  0
  9 11  1  0
 11 12  2  0
 12 13  1  0
 13 14  2  0
 14 15  1  0
 15 16  2  0
  8 17  1  0
 17  5  1  0
 16 11  1  0
M  END
>  <Title>  (903) 
idABGUgen10

$$$$

     RDKit          2D

 12 12  0  0  0  0  0  0  0  0999 V2000
    6.0000    5.1962    0.0000 C   0  0  0  0  0  0  0  0  0  0  0  0
    5.2500    3.8971    0.0000 C   0  0  0  0  0  0  0  0  0  0  0  0
    4.5000    2.5981    0.0000 C   0  0  0  0  0  0  0  0  0  0  0  0
    3.7500    1.2990    0.0000 C   0  0  0  0  0  0  0  0  0  0  0  0
    3.0000    0.0000    0.0000 C   0  0  0  0  0  0  0  0  0  0  0  0
    3.7500   -1.2990    0.0000 C   0  0  0  0  0  0  0  0  0  0  0  0
    1.5000    0.0000    0.0000 C   0  0  0  0  0  0  0  0  0  0  0  0
    0.7500   -1.2990    0.0000 C   0  0  0  0  0  0  0  0  0  0  0  0
   -0.7500   -1.2990    0.0000 C   0  0  0  0  0  0  0  0  0  0  0  0
   -1.5000    0.0000    0.0000 C   0  0  0  0  0  0  0  0  0  0  0  0
   -0.7500    1.2990    0.0000 C   0  0  0  0  0  0  0  0  0  0  0  0
    0.7500    1.2990    0.0000 C   0  0  0  0  0  0  0  0  0  0  0  0
  1  2  3  0
  2  3  1  0
  3  4  3  0
  4  5  1  0
  5  6  1  0
  5  7  1  0
  7  8  2  0
  8  9  1  0
  9 10  2  0
 10 11  1  0
 11 12  2  0
 12  7  1  0
M  END
>  <Title>  (904) 
idABGVgen10

$$$$

     RDKit          2D

  7  7  0  0  0  0  0  0  0  0999 V2000
    4.0607    0.0000    0.0000 C   0  0  0  0  0  0  0  0  0  0  0  0
    2.5607    0.0000    0.0000 C   0  0  0  0  0  0  0  0  0  0  0  0
    1.0607    0.0000    0.0000 C   0  0  0  0  0  0  0  0  0  0  0  0
   -0.0000   -1.0607    0.0000 C   0  0  0  0  0  0  0  0  0  0  0  0
   -1.0607    0.0000    0.0000 C   0  0  0  0  0  0  0  0  0  0  0  0
   -2.5607    0.0000    0.0000 C   0  0  0  0  0  0  0  0  0  0  0  0
    0.0000    1.0607    0.0000 C   0  0  0  0  0  0  0  0  0  0  0  0
  1  2  3  0
  2  3  1  0
  3  4  2  0
  4  5  1  0
  5  6  1  0
  5  7  2  0
  7  3  1  0
M  END
>  <Title>  (905) 
idABGWgen10

$$$$

     RDKit          2D

 30 32  0  0  0  0  0  0  0  0999 V2000
    3.0000    0.0000    0.0000 C   0  0  0  0  0  0  0  0  0  0  0  0
    1.5000    0.0000    0.0000 C   0  0  0  0  0  0  0  0  0  0  0  0
    0.7500   -1.2990    0.0000 C   0  0  0  0  0  0  0  0  0  0  0  0
   -0.7500   -1.2990    0.0000 C   0  0  0  0  0  0  0  0  0  0  0  0
   -1.5000    0.0000    0.0000 C   0  0  0  0  0  0  0  0  0  0  0  0
   -3.0000    0.0000    0.0000 N   0  0  0  0  0  0  0  0  0  0  0  0
   -3.7500    1.2990    0.0000 C   0  0  0  0  0  0  0  0  0  0  0  0
   -3.0000    2.5981    0.0000 O   0  0  0  0  0  0  0  0  0  0  0  0
   -5.2500    1.2990    0.0000 C   0  0  0  0  0  0  0  0  0  0  0  0
   -6.0000    2.5981    0.0000 C   0  0  0  0  0  0  0  0  0  0  0  0
   -7.5000    2.5981    0.0000 C   0  0  0  0  0  0  0  0  0  0  0  0
   -5.2500    3.8971    0.0000 N   0  0  0  0  0  0  0  0  0  0  0  0
   -6.0000    5.1962    0.0000 C   0  0  0  0  0  0  0  0  0  0  0  0
   -7.5000    5.1962    0.0000 O   0  0  0  0  0  0  0  0  0  0  0  0
   -5.2500    6.4952    0.0000 N   0  0  0  0  0  0  0  0  0  0  0  0
   -6.0000    7.7942    0.0000 C   0  0  0  0  0  0  0  0  0  0  0  0
   -5.2500    9.0933    0.0000 N   0  0  0  0  0  0  0  0  0  0  0  0
   -6.0000   10.3923    0.0000 N   0  0  0  0  0  0  0  0  0  0  0  0
   -7.5000   10.3923    0.0000 C   0  0  0  0  0  0  0  0  0  0  0  0
   -8.2500   11.6913    0.0000 N   0  0  0  0  0  0  0  0  0  0  0  0
   -7.5000   12.9904    0.0000 C   0  0  0  0  0  0  0  0  0  0  0  0
   -8.2500   14.2894    0.0000 C   0  0  0  0  0  0  0  0  0  0  0  0
   -9.7500   14.2894    0.0000 C   0  0  0  0  0  0  0  0  0  0  0  0
  -10.5000   12.9904    0.0000 C   0  0  0  0  0  0  0  0  0  0  0  0
   -9.7500   11.6913    0.0000 C   0  0  0  0  0  0  0  0  0  0  0  0
   -8.2500    9.0933    0.0000 C   0  0  0  0  0  0  0  0  0  0  0  0
   -7.5000    7.7942    0.0000 C   0  0  0  0  0  0  0  0  0  0  0  0
   -0.7500    1.2990    0.0000 N   0  0  0  0  0  0  0  0  0  0  0  0
    0.7500    1.2990    0.0000 C   0  0  0  0  0  0  0  0  0  0  0  0
    1.5000    2.5981    0.0000 C   0  0  0  0  0  0  0  0  0  0  0  0
  1  2  1  0
  2  3  2  0
  3  4  1  0
  4  5  2  0
  5  6  1  0
  6  7  1  0
  7  8  2  0
  7  9  1  0
  9 10  1  0
 10 11  1  0
 10 12  1  0
 12 13  1  0
 13 14  2  0
 13 15  1  0
 15 16  1  0
 16 17  2  0
 17 18  1  0
 18 19  2  0
 19 20  1  0
 20 21  1  0
 21 22  2  0
 22 23  1  0
 23 24  2  0
 24 25  1  0
 19 26  1  0
 26 27  1  0
  5 28  1  0
 28 29  1  0
 29 30  1  0
 29  2  1  0
 27 16  1  0
 25 20  1  0
M  END
>  <Title>  (906) 
idABGXgen10

$$$$

     RDKit          2D

 80 86  0  0  0  0  0  0  0  0999 V2000
  -14.2725   -6.8842    0.0000 C   0  0  0  0  0  0  0  0  0  0  0  0
  -12.9458   -7.5842    0.0000 C   0  0  0  0  0  0  0  0  0  0  0  0
  -11.6192   -8.2842    0.0000 C   0  0  0  0  0  0  0  0  0  0  0  0
  -12.2423   -9.6487    0.0000 C   0  0  0  0  0  0  0  0  0  0  0  0
  -12.7058  -11.0753    0.0000 C   0  0  0  0  0  0  0  0  0  0  0  0
  -13.0037  -12.5454    0.0000 C   0  0  0  0  0  0  0  0  0  0  0  0
  -13.1321  -14.0399    0.0000 C   0  0  0  0  0  0  0  0  0  0  0  0
  -13.0892  -15.5393    0.0000 C   0  0  0  0  0  0  0  0  0  0  0  0
  -12.8758  -17.0240    0.0000 C   0  0  0  0  0  0  0  0  0  0  0  0
  -12.4944  -18.4747    0.0000 C   0  0  0  0  0  0  0  0  0  0  0  0
  -11.9502  -19.8725    0.0000 C   0  0  0  0  0  0  0  0  0  0  0  0
  -11.2502  -21.1992    0.0000 C   0  0  0  0  0  0  0  0  0  0  0  0
  -10.4036  -22.4374    0.0000 C   0  0  0  0  0  0  0  0  0  0  0  0
   -9.4213  -23.5710    0.0000 C   0  0  0  0  0  0  0  0  0  0  0  0
   -8.3162  -24.5853    0.0000 C   0  0  0  0  0  0  0  0  0  0  0  0
   -7.1026  -25.4669    0.0000 C   0  0  0  0  0  0  0  0  0  0  0  0
   -5.7965  -26.2045    0.0000 C   0  0  0  0  0  0  0  0  0  0  0  0
   -4.4148  -26.7884    0.0000 C   0  0  0  0  0  0  0  0  0  0  0  0
   -2.9756  -27.2110    0.0000 C   0  0  0  0  0  0  0  0  0  0  0  0
   -1.4976  -27.4668    0.0000 C   0  0  0  0  0  0  0  0  0  0  0  0
   -0.0000  -27.5525    0.0000 C   0  0  0  0  0  0  0  0  0  0  0  0
    1.4976  -27.4668    0.0000 C   0  0  0  0  0  0  0  0  0  0  0  0
    2.9756  -27.2110    0.0000 C   0  0  0  0  0  0  0  0  0  0  0  0
    4.4148  -26.7884    0.0000 C   0  0  0  0  0  0  0  0  0  0  0  0
    5.7965  -26.2045    0.0000 C   0  0  0  0  0  0  0  0  0  0  0  0
    7.1026  -25.4669    0.0000 C   0  0  0  0  0  0  0  0  0  0  0  0
    8.3162  -24.5853    0.0000 C   0  0  0  0  0  0  0  0  0  0  0  0
    9.4213  -23.5710    0.0000 C   0  0  0  0  0  0  0  0  0  0  0  0
   10.4036  -22.4374    0.0000 C   0  0  0  0  0  0  0  0  0  0  0  0
   11.2502  -21.1992    0.0000 C   0  0  0  0  0  0  0  0  0  0  0  0
   11.9502  -19.8725    0.0000 C   0  0  0  0  0  0  0  0  0  0  0  0
   12.4944  -18.4747    0.0000 C   0  0  0  0  0  0  0  0  0  0  0  0
   12.8758  -17.0240    0.0000 C   0  0  0  0  0  0  0  0  0  0  0  0
   13.0892  -15.5393    0.0000 C   0  0  0  0  0  0  0  0  0  0  0  0
   13.1321  -14.0399    0.0000 C   0  0  0  0  0  0  0  0  0  0  0  0
   13.0037  -12.5454    0.0000 C   0  0  0  0  0  0  0  0  0  0  0  0
   12.7058  -11.0753    0.0000 C   0  0  0  0  0  0  0  0  0  0  0  0
   12.2423   -9.6487    0.0000 C   0  0  0  0  0  0  0  0  0  0  0  0
   11.6192   -8.2842    0.0000 C   0  0  0  0  0  0  0  0  0  0  0  0
   10.8446   -6.9997    0.0000 C   0  0  0  0  0  0  0  0  0  0  0  0
    9.9286   -5.8119    0.0000 C   0  0  0  0  0  0  0  0  0  0  0  0
    8.8832   -4.7362    0.0000 C   0  0  0  0  0  0  0  0  0  0  0  0
    7.7220   -3.7866    0.0000 C   0  0  0  0  0  0  0  0  0  0  0  0
    6.4601   -2.9757    0.0000 C   0  0  0  0  0  0  0  0  0  0  0  0
    5.1140   -2.3138    0.0000 C   0  0  0  0  0  0  0  0  0  0  0  0
    3.7012   -1.8098    0.0000 C   0  0  0  0  0  0  0  0  0  0  0  0
    3.8296   -3.3043    0.0000 C   0  0  0  0  0  0  0  0  0  0  0  0
    2.4479   -3.8882    0.0000 C   0  0  0  0  0  0  0  0  0  0  0  0
    1.4656   -2.7545    0.0000 C   0  0  0  0  0  0  0  0  0  0  0  0
    2.2402   -1.4700    0.0000 C   0  0  0  0  0  0  0  0  0  0  0  0
    0.7500   -1.2990    0.0000 C   0  0  0  0  0  0  0  0  0  0  0  0
    1.5000    0.0000    0.0000 C   0  0  0  0  0  0  0  0  0  0  0  0
    0.7500    1.2990    0.0000 C   0  0  0  0  0  0  0  0  0  0  0  0
   -0.7500    1.2990    0.0000 C   0  0  0  0  0  0  0  0  0  0  0  0
   -1.5000    0.0000    0.0000 C   0  0  0  0  0  0  0  0  0  0  0  0
   -0.7500   -1.2990    0.0000 C   0  0  0  0  0  0  0  0  0  0  0  0
   -2.2402   -1.4700    0.0000 C   0  0  0  0  0  0  0  0  0  0  0  0
   -1.2155   -2.5654    0.0000 C   0  0  0  0  0  0  0  0  0  0  0  0
   -1.6518   -4.0006    0.0000 C   0  0  0  0  0  0  0  0  0  0  0  0
   -3.1128   -4.3403    0.0000 C   0  0  0  0  0  0  0  0  0  0  0  0
   -4.1375   -3.2449    0.0000 C   0  0  0  0  0  0  0  0  0  0  0  0
   -3.7012   -1.8098    0.0000 C   0  0  0  0  0  0  0  0  0  0  0  0
   -5.1140   -2.3138    0.0000 C   0  0  0  0  0  0  0  0  0  0  0  0
   -5.0141   -0.8172    0.0000 C   0  0  0  0  0  0  0  0  0  0  0  0
   -6.2603    0.0177    0.0000 C   0  0  0  0  0  0  0  0  0  0  0  0
   -7.6064   -0.6442    0.0000 C   0  0  0  0  0  0  0  0  0  0  0  0
   -7.7063   -2.1408    0.0000 C   0  0  0  0  0  0  0  0  0  0  0  0
   -6.4601   -2.9757    0.0000 C   0  0  0  0  0  0  0  0  0  0  0  0
   -7.7220   -3.7866    0.0000 C   0  0  0  0  0  0  0  0  0  0  0  0
   -6.3191   -4.3175    0.0000 C   0  0  0  0  0  0  0  0  0  0  0  0
   -6.0774   -5.7979    0.0000 C   0  0  0  0  0  0  0  0  0  0  0  0
   -7.2386   -6.7474    0.0000 C   0  0  0  0  0  0  0  0  0  0  0  0
   -8.6415   -6.2166    0.0000 C   0  0  0  0  0  0  0  0  0  0  0  0
   -8.8832   -4.7362    0.0000 C   0  0  0  0  0  0  0  0  0  0  0  0
   -9.9286   -5.8119    0.0000 C   0  0  0  0  0  0  0  0  0  0  0  0
  -10.4993   -4.4247    0.0000 C   0  0  0  0  0  0  0  0  0  0  0  0
  -11.9860   -4.2253    0.0000 C   0  0  0  0  0  0  0  0  0  0  0  0
  -12.9020   -5.4132    0.0000 C   0  0  0  0  0  0  0  0  0  0  0  0
  -12.3313   -6.8004    0.0000 C   0  0  0  0  0  0  0  0  0  0  0  0
  -10.8446   -6.9997    0.0000 C   0  0  0  0  0  0  0  0  0  0  0  0
  1  2  3  0
  2  3  1  0
  3  4  1  0
  4  5  1  0
  5  6  1  0
  6  7  1  0
  7  8  1  0
  8  9  1  0
  9 10  1  0
 10 11  1  0
 11 12  1  0
 12 13  1  0
 13 14  1  0
 14 15  1  0
 15 16  1  0
 16 17  1  0
 17 18  1  0
 18 19  1  0
 19 20  1  0
 20 21  1  0
 21 22  2  0
 22 23  1  0
 23 24  2  0
 24 25  1  0
 25 26  2  0
 26 27  1  0
 27 28  2  0
 28 29  1  0
 29 30  2  0
 30 31  1  0
 31 32  2  0
 32 33  1  0
 33 34  2  0
 34 35  1  0
 35 36  2  0
 36 37  1  0
 37 38  2  0
 38 39  1  0
 39 40  2  0
 40 41  1  0
 41 42  2  0
 42 43  1  0
 43 44  2  0
 44 45  1  0
 45 46  2  0
 46 47  1  0
 47 48  2  0
 48 49  1  0
 49 50  2  0
 50 51  1  0
 51 52  2  0
 52 53  1  0
 53 54  2  0
 54 55  1  0
 55 56  2  0
 56 57  1  0
 57 58  2  0
 58 59  1  0
 59 60  2  0
 60 61  1  0
 61 62  2  0
 62 63  1  0
 63 64  2  0
 64 65  1  0
 65 66  2  0
 66 67  1  0
 67 68  2  0
 68 69  1  0
 69 70  2  0
 70 71  1  0
 71 72  2  0
 72 73  1  0
 73 74  2  0
 74 75  1  0
 75 76  2  0
 76 77  1  0
 77 78  2  0
 78 79  1  0
 79 80  2  0
 80  3  1  0
 50 46  1  0
 56 51  1  0
 62 57  1  0
 68 63  1  0
 74 69  1  0
 80 75  1  0
M  END
>  <Title>  (907) 
idABGYgen10

$$$$

     RDKit          2D

  9  9  0  0  0  0  0  0  0  0999 V2000
    5.0260   -1.2990    0.0000 C   0  0  0  0  0  0  0  0  0  0  0  0
    3.5260   -1.2990    0.0000 C   0  0  0  0  0  0  0  0  0  0  0  0
    2.7760   -2.5981    0.0000 O   0  0  0  0  0  0  0  0  0  0  0  0
    2.7760    0.0000    0.0000 C   0  0  0  0  0  0  0  0  0  0  0  0
    1.2760    0.0000    0.0000 C   0  0  0  0  0  0  0  0  0  0  0  0
    0.3943    1.2135    0.0000 C   0  0  0  0  0  0  0  0  0  0  0  0
   -1.0323    0.7500    0.0000 C   0  0  0  0  0  0  0  0  0  0  0  0
   -1.0323   -0.7500    0.0000 C   0  0  0  0  0  0  0  0  0  0  0  0
    0.3943   -1.2135    0.0000 C   0  0  0  0  0  0  0  0  0  0  0  0
  1  2  1  0
  2  3  2  0
  2  4  1  0
  4  5  1  0
  5  6  2  0
  6  7  1  0
  7  8  2  0
  8  9  1  0
  9  5  1  0
M  END
>  <Title>  (908) 
idABGZgen10

$$$$

     RDKit          2D

 72 76  0  0  0  0  0  0  0  0999 V2000
   -8.6083   -2.5217    0.0000 C   0  0  0  0  0  0  0  0  0  0  0  0
   -7.7403   -3.7451    0.0000 C   0  0  0  0  0  0  0  0  0  0  0  0
   -8.9131   -4.6803    0.0000 C   0  0  0  0  0  0  0  0  0  0  0  0
   -9.9737   -5.7410    0.0000 C   0  0  0  0  0  0  0  0  0  0  0  0
  -10.9090   -6.9137    0.0000 C   0  0  0  0  0  0  0  0  0  0  0  0
  -11.7070   -8.1838    0.0000 C   0  0  0  0  0  0  0  0  0  0  0  0
  -12.3578   -9.5352    0.0000 C   0  0  0  0  0  0  0  0  0  0  0  0
  -12.8533  -10.9511    0.0000 C   0  0  0  0  0  0  0  0  0  0  0  0
  -13.1870  -12.4135    0.0000 C   0  0  0  0  0  0  0  0  0  0  0  0
  -13.3550  -13.9040    0.0000 C   0  0  0  0  0  0  0  0  0  0  0  0
  -13.3550  -15.4040    0.0000 C   0  0  0  0  0  0  0  0  0  0  0  0
  -13.1870  -16.8946    0.0000 C   0  0  0  0  0  0  0  0  0  0  0  0
  -12.8533  -18.3570    0.0000 C   0  0  0  0  0  0  0  0  0  0  0  0
  -12.3578  -19.7728    0.0000 C   0  0  0  0  0  0  0  0  0  0  0  0
  -11.7070  -21.1243    0.0000 C   0  0  0  0  0  0  0  0  0  0  0  0
  -10.9090  -22.3944    0.0000 C   0  0  0  0  0  0  0  0  0  0  0  0
   -9.9737  -23.5671    0.0000 C   0  0  0  0  0  0  0  0  0  0  0  0
   -8.9131  -24.6278    0.0000 C   0  0  0  0  0  0  0  0  0  0  0  0
   -7.7403  -25.5630    0.0000 C   0  0  0  0  0  0  0  0  0  0  0  0
   -6.4702  -26.3610    0.0000 C   0  0  0  0  0  0  0  0  0  0  0  0
   -5.1188  -27.0119    0.0000 C   0  0  0  0  0  0  0  0  0  0  0  0
   -3.7030  -27.5073    0.0000 C   0  0  0  0  0  0  0  0  0  0  0  0
   -2.2406  -27.8411    0.0000 C   0  0  0  0  0  0  0  0  0  0  0  0
   -0.7500  -28.0090    0.0000 C   0  0  0  0  0  0  0  0  0  0  0  0
    0.7500  -28.0090    0.0000 C   0  0  0  0  0  0  0  0  0  0  0  0
    2.2406  -27.8411    0.0000 C   0  0  0  0  0  0  0  0  0  0  0  0
    3.7030  -27.5073    0.0000 C   0  0  0  0  0  0  0  0  0  0  0  0
    5.1188  -27.0119    0.0000 C   0  0  0  0  0  0  0  0  0  0  0  0
    6.4702  -26.3610    0.0000 C   0  0  0  0  0  0  0  0  0  0  0  0
    7.7403  -25.5630    0.0000 C   0  0  0  0  0  0  0  0  0  0  0  0
    8.9131  -24.6278    0.0000 C   0  0  0  0  0  0  0  0  0  0  0  0
    9.9737  -23.5671    0.0000 C   0  0  0  0  0  0  0  0  0  0  0  0
   10.9090  -22.3944    0.0000 C   0  0  0  0  0  0  0  0  0  0  0  0
   11.7070  -21.1243    0.0000 C   0  0  0  0  0  0  0  0  0  0  0  0
   12.3578  -19.7728    0.0000 C   0  0  0  0  0  0  0  0  0  0  0  0
   12.8533  -18.3570    0.0000 C   0  0  0  0  0  0  0  0  0  0  0  0
   13.1870  -16.8946    0.0000 C   0  0  0  0  0  0  0  0  0  0  0  0
   13.3550  -15.4040    0.0000 C   0  0  0  0  0  0  0  0  0  0  0  0
   13.3550  -13.9040    0.0000 C   0  0  0  0  0  0  0  0  0  0  0  0
   13.1870  -12.4135    0.0000 C   0  0  0  0  0  0  0  0  0  0  0  0
   12.8533  -10.9511    0.0000 C   0  0  0  0  0  0  0  0  0  0  0  0
   12.3578   -9.5352    0.0000 C   0  0  0  0  0  0  0  0  0  0  0  0
   11.7070   -8.1838    0.0000 C   0  0  0  0  0  0  0  0  0  0  0  0
   10.9090   -6.9137    0.0000 C   0  0  0  0  0  0  0  0  0  0  0  0
    9.9737   -5.7410    0.0000 C   0  0  0  0  0  0  0  0  0  0  0  0
    8.9131   -4.6803    0.0000 C   0  0  0  0  0  0  0  0  0  0  0  0
    7.7403   -3.7451    0.0000 C   0  0  0  0  0  0  0  0  0  0  0  0
    6.4702   -2.9470    0.0000 C   0  0  0  0  0  0  0  0  0  0  0  0
    5.1188   -2.2962    0.0000 C   0  0  0  0  0  0  0  0  0  0  0  0
    3.7030   -1.8008    0.0000 C   0  0  0  0  0  0  0  0  0  0  0  0
    3.8374   -3.2947    0.0000 C   0  0  0  0  0  0  0  0  0  0  0  0
    2.4581   -3.8843    0.0000 C   0  0  0  0  0  0  0  0  0  0  0  0
    1.4712   -2.7547    0.0000 C   0  0  0  0  0  0  0  0  0  0  0  0
    2.2406   -1.4670    0.0000 C   0  0  0  0  0  0  0  0  0  0  0  0
    0.7500   -1.2990    0.0000 C   0  0  0  0  0  0  0  0  0  0  0  0
    1.5000    0.0000    0.0000 C   0  0  0  0  0  0  0  0  0  0  0  0
    0.7500    1.2990    0.0000 C   0  0  0  0  0  0  0  0  0  0  0  0
   -0.7500    1.2990    0.0000 C   0  0  0  0  0  0  0  0  0  0  0  0
   -1.5000    0.0000    0.0000 C   0  0  0  0  0  0  0  0  0  0  0  0
   -0.7500   -1.2990    0.0000 C   0  0  0  0  0  0  0  0  0  0  0  0
   -2.2406   -1.4670    0.0000 C   0  0  0  0  0  0  0  0  0  0  0  0
   -1.2203   -2.5666    0.0000 C   0  0  0  0  0  0  0  0  0  0  0  0
   -1.6624   -3.9999    0.0000 C   0  0  0  0  0  0  0  0  0  0  0  0
   -3.1248   -4.3337    0.0000 C   0  0  0  0  0  0  0  0  0  0  0  0
   -4.1451   -3.2341    0.0000 C   0  0  0  0  0  0  0  0  0  0  0  0
   -3.7030   -1.8008    0.0000 C   0  0  0  0  0  0  0  0  0  0  0  0
   -5.1188   -2.2962    0.0000 C   0  0  0  0  0  0  0  0  0  0  0  0
   -5.0067   -0.8004    0.0000 C   0  0  0  0  0  0  0  0  0  0  0  0
   -6.2460    0.0446    0.0000 C   0  0  0  0  0  0  0  0  0  0  0  0
   -7.5975   -0.6062    0.0000 C   0  0  0  0  0  0  0  0  0  0  0  0
   -7.7096   -2.1020    0.0000 C   0  0  0  0  0  0  0  0  0  0  0  0
   -6.4702   -2.9470    0.0000 C   0  0  0  0  0  0  0  0  0  0  0  0
  1  2  1  0
  2  3  1  0
  3  4  1  0
  4  5  1  0
  5  6  1  0
  6  7  1  0
  7  8  1  0
  8  9  1  0
  9 10  1  0
 10 11  1  0
 11 12  1  0
 12 13  1  0
 13 14  1  0
 14 15  1  0
 15 16  1  0
 16 17  1  0
 17 18  1  0
 18 19  1  0
 19 20  1  0
 20 21  1  0
 21 22  1  0
 22 23  1  0
 23 24  1  0
 24 25  1  0
 25 26  1  0
 26 27  1  0
 27 28  1  0
 28 29  1  0
 29 30  1  0
 30 31  1  0
 31 32  2  0
 32 33  1  0
 33 34  2  0
 34 35  1  0
 35 36  2  0
 36 37  1  0
 37 38  2  0
 38 39  1  0
 39 40  2  0
 40 41  1  0
 41 42  2  0
 42 43  1  0
 43 44  2  0
 44 45  1  0
 45 46  2  0
 46 47  1  0
 47 48  2  0
 48 49  1  0
 49 50  2  0
 50 51  1  0
 51 52  2  0
 52 53  1  0
 53 54  2  0
 54 55  1  0
 55 56  2  0
 56 57  1  0
 57 58  2  0
 58 59  1  0
 59 60  2  0
 60 61  1  0
 61 62  2  0
 62 63  1  0
 63 64  2  0
 64 65  1  0
 65 66  2  0
 66 67  1  0
 67 68  2  0
 68 69  1  0
 69 70  2  0
 70 71  1  0
 71 72  2  0
 72  2  1  0
 54 50  1  0
 60 55  1  0
 66 61  1  0
 72 67  1  0
M  END
>  <Title>  (909) 
idABHAgen10

$$$$

     RDKit          2D

 17 17  0  0  0  0  0  0  0  0999 V2000
   10.5000    0.0000    0.0000 C   0  0  0  0  0  0  0  0  0  0  0  0
    9.0000    0.0000    0.0000 C   0  0  0  0  0  0  0  0  0  0  0  0
    7.5000    0.0000    0.0000 C   0  0  0  0  0  0  0  0  0  0  0  0
    6.0000    0.0000    0.0000 C   0  0  0  0  0  0  0  0  0  0  0  0
    4.5000    0.0000    0.0000 C   0  0  0  0  0  0  0  0  0  0  0  0
    3.0000    0.0000    0.0000 C   0  0  0  0  0  0  0  0  0  0  0  0
    1.5000    0.0000    0.0000 C   0  0  0  0  0  0  0  0  0  0  0  0
    0.7500   -1.2990    0.0000 C   0  0  0  0  0  0  0  0  0  0  0  0
   -0.7500   -1.2990    0.0000 C   0  0  0  0  0  0  0  0  0  0  0  0
   -1.5000    0.0000    0.0000 C   0  0  0  0  0  0  0  0  0  0  0  0
   -0.7500    1.2990    0.0000 C   0  0  0  0  0  0  0  0  0  0  0  0
    0.7500    1.2990    0.0000 C   0  0  0  0  0  0  0  0  0  0  0  0
    1.5000    2.5981    0.0000 C   0  0  0  0  0  0  0  0  0  0  0  0
    3.0000    2.5981    0.0000 O   0  0  0  0  0  0  0  0  0  0  0  0
    0.7500    3.8971    0.0000 O   0  0  0  0  0  0  0  0  0  0  0  0
    1.5000    5.1962    0.0000 C   0  0  0  0  0  0  0  0  0  0  0  0
    0.7500    6.4952    0.0000 C   0  0  0  0  0  0  0  0  0  0  0  0
  1  2  3  0
  2  3  1  0
  3  4  3  0
  4  5  1  0
  5  6  3  0
  6  7  1  0
  7  8  2  0
  8  9  1  0
  9 10  2  0
 10 11  1  0
 11 12  2  0
 12 13  1  0
 13 14  2  0
 13 15  1  0
 15 16  1  0
 16 17  1  0
 12  7  1  0
M  END
>  <Title>  (910) 
idABHBgen10

$$$$

     RDKit          2D

 12 12  0  0  0  0  0  0  0  0999 V2000
    4.5000   -2.5981    0.0000 C   0  0  0  0  0  0  0  0  0  0  0  0
    3.7500   -1.2990    0.0000 C   0  0  0  0  0  0  0  0  0  0  0  0
    3.0000    0.0000    0.0000 C   0  0  0  0  0  0  0  0  0  0  0  0
    3.7500    1.2990    0.0000 O   0  0  0  0  0  0  0  0  0  0  0  0
    1.5000    0.0000    0.0000 C   0  0  0  0  0  0  0  0  0  0  0  0
    0.7500   -1.2990    0.0000 C   0  0  0  0  0  0  0  0  0  0  0  0
   -0.7500   -1.2990    0.0000 C   0  0  0  0  0  0  0  0  0  0  0  0
   -1.5000    0.0000    0.0000 C   0  0  0  0  0  0  0  0  0  0  0  0
   -3.0000    0.0000    0.0000 C   0  0  0  0  0  0  0  0  0  0  0  0
   -4.5000    0.0000    0.0000 N   0  0  0  0  0  0  0  0  0  0  0  0
   -0.7500    1.2990    0.0000 C   0  0  0  0  0  0  0  0  0  0  0  0
    0.7500    1.2990    0.0000 C   0  0  0  0  0  0  0  0  0  0  0  0
  1  2  3  0
  2  3  1  0
  3  4  2  0
  3  5  1  0
  5  6  2  0
  6  7  1  0
  7  8  2  0
  8  9  1  0
  9 10  3  0
  8 11  1  0
 11 12  2  0
 12  5  1  0
M  END
>  <Title>  (911) 
idABHCgen10

$$$$

     RDKit          2D

  5  4  0  0  0  0  0  0  0  0999 V2000
    0.0000    0.0000    0.0000 C   0  0  0  0  0  0  0  0  0  0  0  0
    1.2990    0.7500    0.0000 C   0  0  0  0  0  0  0  0  0  0  0  0
    2.5981   -0.0000    0.0000 C   0  0  0  0  0  0  0  0  0  0  0  0
    3.8971    0.7500    0.0000 O   0  0  0  0  0  0  0  0  0  0  0  0
    5.1962   -0.0000    0.0000 C   0  0  0  0  0  0  0  0  0  0  0  0
  1  2  1  0
  2  3  1  0
  3  4  1  0
  4  5  1  0
M  END
>  <Title>  (912) 
idABHDgen10

$$$$

     RDKit          2D

 12 12  0  0  0  0  0  0  0  0999 V2000
    4.2098   -1.2990    0.0000 C   0  0  0  0  0  0  0  0  0  0  0  0
    3.4598   -0.0000    0.0000 O   0  0  0  0  0  0  0  0  0  0  0  0
    1.9598    0.0000    0.0000 C   0  0  0  0  0  0  0  0  0  0  0  0
    1.3858   -1.3858    0.0000 C   0  0  0  0  0  0  0  0  0  0  0  0
   -0.0000   -1.9598    0.0000 C   0  0  0  0  0  0  0  0  0  0  0  0
   -0.0000   -3.4598    0.0000 C   0  0  0  0  0  0  0  0  0  0  0  0
   -1.3858   -1.3858    0.0000 C   0  0  0  0  0  0  0  0  0  0  0  0
   -1.9598    0.0000    0.0000 C   0  0  0  0  0  0  0  0  0  0  0  0
   -3.4598    0.0000    0.0000 C   0  0  0  0  0  0  0  0  0  0  0  0
   -1.3858    1.3858    0.0000 N   0  0  0  0  0  0  0  0  0  0  0  0
    0.0000    1.9598    0.0000 C   0  0  0  0  0  0  0  0  0  0  0  0
    1.3858    1.3858    0.0000 C   0  0  0  0  0  0  0  0  0  0  0  0
  1  2  1  0
  2  3  1  0
  3  4  1  0
  4  5  2  0
  5  6  1  0
  5  7  1  0
  7  8  2  0
  8  9  1  0
  8 10  1  0
 10 11  2  0
 11 12  1  0
 12  3  1  0
M  END
>  <Title>  (913) 
idABHEgen10

$$$$

     RDKit          2D

 69 74  0  0  0  0  0  0  0  0999 V2000
    3.6632   16.0256    0.0000 C   0  0  0  0  0  0  0  0  0  0  0  0
    4.5930   14.8486    0.0000 C   0  0  0  0  0  0  0  0  0  0  0  0
    5.8410   15.6807    0.0000 C   0  0  0  0  0  0  0  0  0  0  0  0
    7.2064   16.3018    0.0000 C   0  0  0  0  0  0  0  0  0  0  0  0
    8.6537   16.6959    0.0000 C   0  0  0  0  0  0  0  0  0  0  0  0
   10.1455   16.8527    0.0000 C   0  0  0  0  0  0  0  0  0  0  0  0
   11.6431   16.7681    0.0000 C   0  0  0  0  0  0  0  0  0  0  0  0
   13.1078   16.4445    0.0000 C   0  0  0  0  0  0  0  0  0  0  0  0
   14.5015   15.8900    0.0000 C   0  0  0  0  0  0  0  0  0  0  0  0
   15.7883   15.1192    0.0000 C   0  0  0  0  0  0  0  0  0  0  0  0
   16.9348   14.1519    0.0000 C   0  0  0  0  0  0  0  0  0  0  0  0
   17.9113   13.0133    0.0000 C   0  0  0  0  0  0  0  0  0  0  0  0
   18.6924   11.7328    0.0000 C   0  0  0  0  0  0  0  0  0  0  0  0
   19.2581   10.3435    0.0000 C   0  0  0  0  0  0  0  0  0  0  0  0
   19.5935    8.8815    0.0000 C   0  0  0  0  0  0  0  0  0  0  0  0
   19.6901    7.3846    0.0000 C   0  0  0  0  0  0  0  0  0  0  0  0
   19.5454    5.8916    0.0000 C   0  0  0  0  0  0  0  0  0  0  0  0
   19.1630    4.4412    0.0000 C   0  0  0  0  0  0  0  0  0  0  0  0
   18.5529    3.0708    0.0000 C   0  0  0  0  0  0  0  0  0  0  0  0
   17.7308    1.8161    0.0000 C   0  0  0  0  0  0  0  0  0  0  0  0
   16.7182    0.7095    0.0000 C   0  0  0  0  0  0  0  0  0  0  0  0
   15.5412   -0.2203    0.0000 C   0  0  0  0  0  0  0  0  0  0  0  0
   14.2302   -0.9493    0.0000 C   0  0  0  0  0  0  0  0  0  0  0  0
   12.8193   -1.4585    0.0000 C   0  0  0  0  0  0  0  0  0  0  0  0
   11.3450   -1.7348    0.0000 C   0  0  0  0  0  0  0  0  0  0  0  0
    9.8454   -1.7711    0.0000 C   0  0  0  0  0  0  0  0  0  0  0  0
    8.3595   -1.5663    0.0000 C   0  0  0  0  0  0  0  0  0  0  0  0
    6.9256   -1.1258    0.0000 C   0  0  0  0  0  0  0  0  0  0  0  0
    5.5809   -0.4610    0.0000 C   0  0  0  0  0  0  0  0  0  0  0  0
    4.3604    0.4108    0.0000 C   0  0  0  0  0  0  0  0  0  0  0  0
    3.2954    1.4672    0.0000 C   0  0  0  0  0  0  0  0  0  0  0  0
    3.6073    0.0000    0.0000 C   0  0  0  0  0  0  0  0  0  0  0  0
    3.2954   -1.4672    0.0000 C   0  0  0  0  0  0  0  0  0  0  0  0
    2.4138   -2.6807    0.0000 C   0  0  0  0  0  0  0  0  0  0  0  0
    1.1147   -3.4307    0.0000 C   0  0  0  0  0  0  0  0  0  0  0  0
   -0.3771   -3.5875    0.0000 C   0  0  0  0  0  0  0  0  0  0  0  0
   -1.8037   -3.1240    0.0000 C   0  0  0  0  0  0  0  0  0  0  0  0
   -2.9184   -2.1203    0.0000 C   0  0  0  0  0  0  0  0  0  0  0  0
   -3.5285   -0.7500    0.0000 C   0  0  0  0  0  0  0  0  0  0  0  0
   -3.5285    0.7500    0.0000 C   0  0  0  0  0  0  0  0  0  0  0  0
   -2.9184    2.1203    0.0000 C   0  0  0  0  0  0  0  0  0  0  0  0
   -1.8037    3.1240    0.0000 C   0  0  0  0  0  0  0  0  0  0  0  0
   -0.3771    3.5875    0.0000 C   0  0  0  0  0  0  0  0  0  0  0  0
    1.1147    3.4307    0.0000 C   0  0  0  0  0  0  0  0  0  0  0  0
    2.4138    2.6807    0.0000 C   0  0  0  0  0  0  0  0  0  0  0  0
    1.7382    4.0200    0.0000 C   0  0  0  0  0  0  0  0  0  0  0  0
    3.2028    3.6963    0.0000 C   0  0  0  0  0  0  0  0  0  0  0  0
    4.2155    4.8029    0.0000 C   0  0  0  0  0  0  0  0  0  0  0  0
    3.7634    6.2332    0.0000 C   0  0  0  0  0  0  0  0  0  0  0  0
    2.2988    6.5569    0.0000 C   0  0  0  0  0  0  0  0  0  0  0  0
    1.2861    5.4503    0.0000 C   0  0  0  0  0  0  0  0  0  0  0  0
    1.0694    6.9345    0.0000 C   0  0  0  0  0  0  0  0  0  0  0  0
   -0.2415    6.2055    0.0000 C   0  0  0  0  0  0  0  0  0  0  0  0
   -1.5283    6.9764    0.0000 C   0  0  0  0  0  0  0  0  0  0  0  0
   -1.5042    8.4762    0.0000 C   0  0  0  0  0  0  0  0  0  0  0  0
   -0.1932    9.2052    0.0000 C   0  0  0  0  0  0  0  0  0  0  0  0
    1.0936    8.4343    0.0000 C   0  0  0  0  0  0  0  0  0  0  0  0
    1.3580    9.9108    0.0000 C   0  0  0  0  0  0  0  0  0  0  0  0
    0.1160   10.2948    0.0000 C   0  0  0  0  0  0  0  0  0  0  0  0
   -0.4048   10.9021    0.0000 C   0  0  0  0  0  0  0  0  0  0  0  0
   -0.1392   11.6568    0.0000 C   0  0  0  0  0  0  0  0  0  0  0  0
    0.6471   11.8041    0.0000 C   0  0  0  0  0  0  0  0  0  0  0  0
    1.8559   11.3258    0.0000 C   0  0  0  0  0  0  0  0  0  0  0  0
    2.5743   12.6426    0.0000 C   0  0  0  0  0  0  0  0  0  0  0  0
    1.0883   12.8474    0.0000 C   0  0  0  0  0  0  0  0  0  0  0  0
    0.5227   14.2366    0.0000 C   0  0  0  0  0  0  0  0  0  0  0  0
    1.4430   15.4211    0.0000 C   0  0  0  0  0  0  0  0  0  0  0  0
    2.9289   15.2163    0.0000 C   0  0  0  0  0  0  0  0  0  0  0  0
    3.4946   13.8271    0.0000 C   0  0  0  0  0  0  0  0  0  0  0  0
  1  2  1  0
  2  3  1  0
  3  4  2  0
  4  5  1  0
  5  6  1  0
  6  7  1  0
  7  8  1  0
  8  9  1  0
  9 10  1  0
 10 11  1  0
 11 12  1  0
 12 13  1  0
 13 14  1  0
 14 15  1  0
 15 16  1  0
 16 17  1  0
 17 18  1  0
 18 19  1  0
 19 20  1  0
 20 21  1  0
 21 22  1  0
 22 23  1  0
 23 24  1  0
 24 25  1  0
 25 26  1  0
 26 27  1  0
 27 28  1  0
 28 29  1  0
 29 30  1  0
 30 31  1  0
 31 32  1  0
 32 33  1  0
 33 34  1  0
 34 35  1  0
 35 36  1  0
 36 37  1  0
 37 38  1  0
 38 39  1  0
 39 40  1  0
 40 41  1  0
 41 42  1  0
 42 43  1  0
 43 44  1  0
 44 45  1  0
 45 46  1  0
 46 47  2  0
 47 48  1  0
 48 49  2  0
 49 50  1  0
 50 51  2  0
 51 52  1  0
 52 53  2  0
 53 54  1  0
 54 55  2  0
 55 56  1  0
 56 57  2  0
 57 58  1  0
 58 59  2  0
 59 60  1  0
 60 61  2  0
 61 62  1  0
 62 63  2  0
 63 64  1  0
 64 65  2  0
 65 66  1  0
 66 67  2  0
 67 68  1  0
 68 69  2  0
 69  2  1  0
 45 31  1  0
 51 46  1  0
 57 52  1  0
 63 58  1  0
 69 64  1  0
M  END
>  <Title>  (914) 
idABHFgen10

$$$$

     RDKit          2D

 10 10  0  0  0  0  0  0  0  0999 V2000
    5.7760   -2.5981    0.0000 C   0  0  0  0  0  0  0  0  0  0  0  0
    5.0260   -1.2990    0.0000 C   0  0  0  0  0  0  0  0  0  0  0  0
    3.5260   -1.2990    0.0000 C   0  0  0  0  0  0  0  0  0  0  0  0
    2.7760   -2.5981    0.0000 O   0  0  0  0  0  0  0  0  0  0  0  0
    2.7760    0.0000    0.0000 N   0  0  0  0  0  0  0  0  0  0  0  0
    1.2760    0.0000    0.0000 C   0  0  0  0  0  0  0  0  0  0  0  0
    0.3943    1.2135    0.0000 C   0  0  0  0  0  0  0  0  0  0  0  0
   -1.0323    0.7500    0.0000 C   0  0  0  0  0  0  0  0  0  0  0  0
   -1.0323   -0.7500    0.0000 C   0  0  0  0  0  0  0  0  0  0  0  0
    0.3943   -1.2135    0.0000 C   0  0  0  0  0  0  0  0  0  0  0  0
  1  2  2  0
  2  3  1  0
  3  4  2  0
  3  5  1  0
  5  6  1  0
  6  7  2  0
  7  8  1  0
  8  9  2  0
  9 10  1  0
 10  6  1  0
M  END
>  <Title>  (915) 
idABHGgen10

$$$$

     RDKit          2D

 11 12  0  0  0  0  0  0  0  0999 V2000
   -3.0000   -2.5981    0.0000 C   0  0  0  0  0  0  0  0  0  0  0  0
   -1.5000   -2.5981    0.0000 C   0  0  0  0  0  0  0  0  0  0  0  0
   -0.7500   -3.8971    0.0000 N   0  0  0  0  0  0  0  0  0  0  0  0
    0.7500   -3.8971    0.0000 N   0  0  0  0  0  0  0  0  0  0  0  0
    1.5000   -2.5981    0.0000 N   0  0  0  0  0  0  0  0  0  0  0  0
    0.7500   -1.2990    0.0000 N   0  0  0  0  0  0  0  0  0  0  0  0
    1.5000    0.0000    0.0000 C   0  0  0  0  0  0  0  0  0  0  0  0
    0.7500    1.2990    0.0000 C   0  0  0  0  0  0  0  0  0  0  0  0
   -0.7500    1.2990    0.0000 C   0  0  0  0  0  0  0  0  0  0  0  0
   -1.5000    0.0000    0.0000 C   0  0  0  0  0  0  0  0  0  0  0  0
   -0.7500   -1.2990    0.0000 C   0  0  0  0  0  0  0  0  0  0  0  0
  1  2  1  0
  2  3  2  0
  3  4  1  0
  4  5  2  0
  5  6  1  0
  6  7  1  0
  7  8  1  0
  8  9  2  0
  9 10  1  0
 10 11  2  0
 11  2  1  0
 11  6  1  0
M  END
>  <Title>  (916) 
idABHHgen10

$$$$

     RDKit          2D

  6  6  0  0  0  0  0  0  0  0999 V2000
    2.7760    0.0000    0.0000 C   0  0  0  0  0  0  0  0  0  0  0  0
    1.2760    0.0000    0.0000 C   0  0  0  0  0  0  0  0  0  0  0  0
    0.3943    1.2135    0.0000 C   0  0  0  0  0  0  0  0  0  0  0  0
   -1.0323    0.7500    0.0000 C   0  0  0  0  0  0  0  0  0  0  0  0
   -1.0323   -0.7500    0.0000 C   0  0  0  0  0  0  0  0  0  0  0  0
    0.3943   -1.2135    0.0000 N   0  0  0  0  0  0  0  0  0  0  0  0
  1  2  1  0
  2  3  2  0
  3  4  1  0
  4  5  1  0
  5  6  2  0
  6  2  1  0
M  END
>  <Title>  (917) 
idABHIgen10

$$$$

     RDKit          2D

 34 36  0  0  0  0  0  0  0  0999 V2000
    6.0567    0.0000    0.0000 C   0  0  0  0  0  0  0  0  0  0  0  0
    4.5567    0.0000    0.0000 C   0  0  0  0  0  0  0  0  0  0  0  0
    4.3098    1.4795    0.0000 C   0  0  0  0  0  0  0  0  0  0  0  0
    3.5958    2.7988    0.0000 C   0  0  0  0  0  0  0  0  0  0  0  0
    2.4923    3.8147    0.0000 C   0  0  0  0  0  0  0  0  0  0  0  0
    1.1186    4.4172    0.0000 C   0  0  0  0  0  0  0  0  0  0  0  0
   -0.3763    4.5411    0.0000 C   0  0  0  0  0  0  0  0  0  0  0  0
   -1.8304    4.1729    0.0000 C   0  0  0  0  0  0  0  0  0  0  0  0
   -3.0861    3.3524    0.0000 C   0  0  0  0  0  0  0  0  0  0  0  0
   -4.0075    2.1687    0.0000 C   0  0  0  0  0  0  0  0  0  0  0  0
   -4.4945    0.7500    0.0000 C   0  0  0  0  0  0  0  0  0  0  0  0
   -4.4945   -0.7500    0.0000 C   0  0  0  0  0  0  0  0  0  0  0  0
   -4.0075   -2.1687    0.0000 C   0  0  0  0  0  0  0  0  0  0  0  0
   -3.0861   -3.3524    0.0000 C   0  0  0  0  0  0  0  0  0  0  0  0
   -1.8304   -4.1729    0.0000 C   0  0  0  0  0  0  0  0  0  0  0  0
   -0.3763   -4.5411    0.0000 C   0  0  0  0  0  0  0  0  0  0  0  0
    1.1186   -4.4172    0.0000 C   0  0  0  0  0  0  0  0  0  0  0  0
    2.4923   -3.8147    0.0000 C   0  0  0  0  0  0  0  0  0  0  0  0
    3.5958   -2.7988    0.0000 C   0  0  0  0  0  0  0  0  0  0  0  0
    4.3098   -1.4795    0.0000 C   0  0  0  0  0  0  0  0  0  0  0  0
    5.7285   -1.9666    0.0000 C   0  0  0  0  0  0  0  0  0  0  0  0
    6.8596   -0.9815    0.0000 O   0  0  0  0  0  0  0  0  0  0  0  0
    6.0161   -3.4388    0.0000 N   0  0  0  0  0  0  0  0  0  0  0  0
    7.4348   -3.9258    0.0000 C   0  0  0  0  0  0  0  0  0  0  0  0
    8.6627   -3.0643    0.0000 N   0  0  0  0  0  0  0  0  0  0  0  0
    9.8615   -3.9659    0.0000 N   0  0  0  0  0  0  0  0  0  0  0  0
    9.3744   -5.3847    0.0000 N   0  0  0  0  0  0  0  0  0  0  0  0
    7.8747   -5.3599    0.0000 N   0  0  0  0  0  0  0  0  0  0  0  0
    6.9730   -6.5587    0.0000 N   0  0  0  0  0  0  0  0  0  0  0  0
    5.4840   -6.3772    0.0000 C   0  0  0  0  0  0  0  0  0  0  0  0
    4.5824   -7.5760    0.0000 C   0  0  0  0  0  0  0  0  0  0  0  0
    5.1698   -8.9562    0.0000 C   0  0  0  0  0  0  0  0  0  0  0  0
    6.6588   -9.1377    0.0000 C   0  0  0  0  0  0  0  0  0  0  0  0
    7.5604   -7.9389    0.0000 C   0  0  0  0  0  0  0  0  0  0  0  0
  1  2  1  0
  2  3  2  0
  3  4  1  0
  4  5  1  0
  5  6  2  0
  6  7  1  0
  7  8  2  0
  8  9  1  0
  9 10  2  0
 10 11  1  0
 11 12  2  0
 12 13  1  0
 13 14  2  0
 14 15  1  0
 15 16  2  0
 16 17  1  0
 17 18  2  0
 18 19  1  0
 19 20  2  0
 20 21  1  0
 21 22  2  0
 21 23  1  0
 23 24  1  0
 24 25  2  0
 25 26  1  0
 26 27  2  0
 27 28  1  0
 28 29  1  0
 29 30  1  0
 30 31  1  0
 31 32  1  0
 32 33  1  0
 33 34  1  0
 20  2  1  0
 28 24  1  0
 34 29  1  0
M  END
>  <Title>  (918) 
idABHJgen10

$$$$

     RDKit          2D

  7  7  0  0  0  0  0  0  0  0999 V2000
    3.0000    0.0000    0.0000 O   0  0  0  0  0  0  0  0  0  0  0  0
    1.5000    0.0000    0.0000 C   0  0  0  0  0  0  0  0  0  0  0  0
    0.7500   -1.2990    0.0000 N   0  0  0  0  0  0  0  0  0  0  0  0
   -0.7500   -1.2990    0.0000 C   0  0  0  0  0  0  0  0  0  0  0  0
   -1.5000    0.0000    0.0000 C   0  0  0  0  0  0  0  0  0  0  0  0
   -0.7500    1.2990    0.0000 C   0  0  0  0  0  0  0  0  0  0  0  0
    0.7500    1.2990    0.0000 C   0  0  0  0  0  0  0  0  0  0  0  0
  1  2  1  0
  2  3  2  0
  3  4  1  0
  4  5  1  0
  5  6  2  0
  6  7  1  0
  7  2  1  0
M  END
>  <Title>  (919) 
idABHKgen10

$$$$

     RDKit          2D

 15 15  0  0  0  0  0  0  0  0999 V2000
   13.5000    0.0000    0.0000 C   0  0  0  0  0  0  0  0  0  0  0  0
   12.0000    0.0000    0.0000 C   0  0  0  0  0  0  0  0  0  0  0  0
   10.5000    0.0000    0.0000 C   0  0  0  0  0  0  0  0  0  0  0  0
    9.0000    0.0000    0.0000 C   0  0  0  0  0  0  0  0  0  0  0  0
    7.5000    0.0000    0.0000 C   0  0  0  0  0  0  0  0  0  0  0  0
    6.0000    0.0000    0.0000 C   0  0  0  0  0  0  0  0  0  0  0  0
    4.5000    0.0000    0.0000 C   0  0  0  0  0  0  0  0  0  0  0  0
    3.0000    0.0000    0.0000 C   0  0  0  0  0  0  0  0  0  0  0  0
    1.5000    0.0000    0.0000 C   0  0  0  0  0  0  0  0  0  0  0  0
    0.7500   -1.2990    0.0000 C   0  0  0  0  0  0  0  0  0  0  0  0
   -0.7500   -1.2990    0.0000 C   0  0  0  0  0  0  0  0  0  0  0  0
   -1.5000   -2.5981    0.0000 C   0  0  0  0  0  0  0  0  0  0  0  0
   -1.5000    0.0000    0.0000 C   0  0  0  0  0  0  0  0  0  0  0  0
   -0.7500    1.2990    0.0000 C   0  0  0  0  0  0  0  0  0  0  0  0
    0.7500    1.2990    0.0000 N   0  0  0  0  0  0  0  0  0  0  0  0
  1  2  3  0
  2  3  1  0
  3  4  3  0
  4  5  1  0
  5  6  3  0
  6  7  1  0
  7  8  3  0
  8  9  1  0
  9 10  2  0
 10 11  1  0
 11 12  1  0
 11 13  2  0
 13 14  1  0
 14 15  2  0
 15  9  1  0
M  END
>  <Title>  (920) 
idABHLgen10

$$$$

     RDKit          2D

  9  9  0  0  0  0  0  0  0  0999 V2000
    3.7500   -1.2990    0.0000 C   0  0  0  0  0  0  0  0  0  0  0  0
    3.0000    0.0000    0.0000 C   0  0  0  0  0  0  0  0  0  0  0  0
    1.5000    0.0000    0.0000 C   0  0  0  0  0  0  0  0  0  0  0  0
    0.7500   -1.2990    0.0000 C   0  0  0  0  0  0  0  0  0  0  0  0
   -0.7500   -1.2990    0.0000 C   0  0  0  0  0  0  0  0  0  0  0  0
   -1.5000    0.0000    0.0000 C   0  0  0  0  0  0  0  0  0  0  0  0
   -0.7500    1.2990    0.0000 C   0  0  0  0  0  0  0  0  0  0  0  0
   -1.5000    2.5981    0.0000 C   0  0  0  0  0  0  0  0  0  0  0  0
    0.7500    1.2990    0.0000 C   0  0  0  0  0  0  0  0  0  0  0  0
  1  2  2  0
  2  3  1  0
  3  4  2  0
  4  5  1  0
  5  6  2  0
  6  7  1  0
  7  8  1  0
  7  9  2  0
  9  3  1  0
M  END
>  <Title>  (921) 
idABHMgen10

$$$$

     RDKit          2D

  8  8  0  0  0  0  0  0  0  0999 V2000
    4.5000    0.0000    0.0000 C   0  0  0  0  0  0  0  0  0  0  0  0
    3.0000    0.0000    0.0000 C   0  0  0  0  0  0  0  0  0  0  0  0
    1.5000    0.0000    0.0000 C   0  0  0  0  0  0  0  0  0  0  0  0
    0.7500   -1.2990    0.0000 C   0  0  0  0  0  0  0  0  0  0  0  0
   -0.7500   -1.2990    0.0000 C   0  0  0  0  0  0  0  0  0  0  0  0
   -1.5000    0.0000    0.0000 C   0  0  0  0  0  0  0  0  0  0  0  0
   -0.7500    1.2990    0.0000 C   0  0  0  0  0  0  0  0  0  0  0  0
    0.7500    1.2990    0.0000 C   0  0  0  0  0  0  0  0  0  0  0  0
  1  2  3  0
  2  3  1  0
  3  4  1  0
  4  5  1  0
  5  6  2  0
  6  7  1  0
  7  8  1  0
  8  3  1  0
M  END
>  <Title>  (922) 
idABHNgen10

$$$$

     RDKit          2D

  8  8  0  0  0  0  0  0  0  0999 V2000
    3.0000    0.0000    0.0000 C   0  0  0  0  0  0  0  0  0  0  0  0
    1.5000    0.0000    0.0000 C   0  0  0  0  0  0  0  0  0  0  0  0
    0.7500   -1.2990    0.0000 C   0  0  0  0  0  0  0  0  0  0  0  0
   -0.7500   -1.2990    0.0000 C   0  0  0  0  0  0  0  0  0  0  0  0
   -1.5000    0.0000    0.0000 C   0  0  0  0  0  0  0  0  0  0  0  0
   -0.7500    1.2990    0.0000 C   0  0  0  0  0  0  0  0  0  0  0  0
    0.7500    1.2990    0.0000 C   0  0  0  0  0  0  0  0  0  0  0  0
    1.5000    2.5981    0.0000 O   0  0  0  0  0  0  0  0  0  0  0  0
  1  2  1  0
  2  3  2  0
  3  4  1  0
  4  5  1  0
  5  6  1  0
  6  7  2  0
  7  8  1  0
  7  2  1  0
M  END
>  <Title>  (923) 
idABHOgen10

$$$$

     RDKit          2D

 12 12  0  0  0  0  0  0  0  0999 V2000
    5.2500   -1.2990    0.0000 C   0  0  0  0  0  0  0  0  0  0  0  0
    3.7500   -1.2990    0.0000 C   0  0  0  0  0  0  0  0  0  0  0  0
    3.0000   -2.5981    0.0000 O   0  0  0  0  0  0  0  0  0  0  0  0
    3.0000    0.0000    0.0000 N   0  0  0  0  0  0  0  0  0  0  0  0
    1.5000    0.0000    0.0000 C   0  0  0  0  0  0  0  0  0  0  0  0
    0.7500   -1.2990    0.0000 C   0  0  0  0  0  0  0  0  0  0  0  0
   -0.7500   -1.2990    0.0000 C   0  0  0  0  0  0  0  0  0  0  0  0
   -1.5000    0.0000    0.0000 C   0  0  0  0  0  0  0  0  0  0  0  0
   -0.7500    1.2990    0.0000 C   0  0  0  0  0  0  0  0  0  0  0  0
   -1.5000    2.5981    0.0000 O   0  0  0  0  0  0  0  0  0  0  0  0
    0.7500    1.2990    0.0000 C   0  0  0  0  0  0  0  0  0  0  0  0
    1.5000    2.5981    0.0000 O   0  0  0  0  0  0  0  0  0  0  0  0
  1  2  1  0
  2  3  2  0
  2  4  1  0
  4  5  1  0
  5  6  2  0
  6  7  1  0
  7  8  1  0
  8  9  2  0
  9 10  1  0
  9 11  1  0
 11 12  1  0
 11  5  1  0
M  END
>  <Title>  (924) 
idABHPgen10

$$$$

     RDKit          2D

106107  0  0  0  0  0  0  0  0999 V2000
   12.1760   -4.4881    0.0000 C   0  0  0  0  0  0  0  0  0  0  0  0
   12.9730   -4.4749    0.0000 C   0  0  0  0  0  0  0  0  0  0  0  0
   13.0901   -5.9703    0.0000 C   0  0  0  0  0  0  0  0  0  0  0  0
   13.3900   -7.4401    0.0000 C   0  0  0  0  0  0  0  0  0  0  0  0
   13.8682   -8.8618    0.0000 C   0  0  0  0  0  0  0  0  0  0  0  0
   14.5176  -10.2139    0.0000 C   0  0  0  0  0  0  0  0  0  0  0  0
   15.3282  -11.4761    0.0000 C   0  0  0  0  0  0  0  0  0  0  0  0
   16.2877  -12.6290    0.0000 C   0  0  0  0  0  0  0  0  0  0  0  0
   17.3816  -13.6553    0.0000 C   0  0  0  0  0  0  0  0  0  0  0  0
   18.5934  -14.5394    0.0000 C   0  0  0  0  0  0  0  0  0  0  0  0
   19.9047  -15.2678    0.0000 C   0  0  0  0  0  0  0  0  0  0  0  0
   21.2955  -15.8297    0.0000 C   0  0  0  0  0  0  0  0  0  0  0  0
   22.7448  -16.2163    0.0000 C   0  0  0  0  0  0  0  0  0  0  0  0
   24.2306  -16.4219    0.0000 C   0  0  0  0  0  0  0  0  0  0  0  0
   25.7305  -16.4433    0.0000 C   0  0  0  0  0  0  0  0  0  0  0  0
   27.2216  -16.2803    0.0000 C   0  0  0  0  0  0  0  0  0  0  0  0
   28.6814  -15.9353    0.0000 C   0  0  0  0  0  0  0  0  0  0  0  0
   30.0877  -15.4135    0.0000 C   0  0  0  0  0  0  0  0  0  0  0  0
   31.4192  -14.7228    0.0000 C   0  0  0  0  0  0  0  0  0  0  0  0
   32.6558  -13.8737    0.0000 C   0  0  0  0  0  0  0  0  0  0  0  0
   33.7786  -12.8792    0.0000 C   0  0  0  0  0  0  0  0  0  0  0  0
   34.7707  -11.7541    0.0000 C   0  0  0  0  0  0  0  0  0  0  0  0
   35.6171  -10.5157    0.0000 C   0  0  0  0  0  0  0  0  0  0  0  0
   36.3048   -9.1826    0.0000 C   0  0  0  0  0  0  0  0  0  0  0  0
   36.8235   -7.7752    0.0000 C   0  0  0  0  0  0  0  0  0  0  0  0
   37.1654   -6.3146    0.0000 C   0  0  0  0  0  0  0  0  0  0  0  0
   37.3251   -4.8232    0.0000 C   0  0  0  0  0  0  0  0  0  0  0  0
   37.3004   -3.3234    0.0000 C   0  0  0  0  0  0  0  0  0  0  0  0
   37.0915   -1.8380    0.0000 C   0  0  0  0  0  0  0  0  0  0  0  0
   36.7017   -0.3895    0.0000 C   0  0  0  0  0  0  0  0  0  0  0  0
   36.1368    1.0000    0.0000 C   0  0  0  0  0  0  0  0  0  0  0  0
   35.4055    2.3097    0.0000 C   0  0  0  0  0  0  0  0  0  0  0  0
   34.5187    3.5195    0.0000 C   0  0  0  0  0  0  0  0  0  0  0  0
   33.4900    4.6112    0.0000 C   0  0  0  0  0  0  0  0  0  0  0  0
   32.3350    5.5682    0.0000 C   0  0  0  0  0  0  0  0  0  0  0  0
   31.0711    6.3760    0.0000 C   0  0  0  0  0  0  0  0  0  0  0  0
   29.7175    7.0224    0.0000 C   0  0  0  0  0  0  0  0  0  0  0  0
   28.2947    7.4975    0.0000 C   0  0  0  0  0  0  0  0  0  0  0  0
   26.8243    7.7942    0.0000 C   0  0  0  0  0  0  0  0  0  0  0  0
   25.3286    7.9079    0.0000 C   0  0  0  0  0  0  0  0  0  0  0  0
   23.8303    7.8370    0.0000 C   0  0  0  0  0  0  0  0  0  0  0  0
   22.3521    7.5825    0.0000 C   0  0  0  0  0  0  0  0  0  0  0  0
   20.9163    7.1482    0.0000 C   0  0  0  0  0  0  0  0  0  0  0  0
   19.5448    6.5408    0.0000 C   0  0  0  0  0  0  0  0  0  0  0  0
   18.2583    5.7695    0.0000 C   0  0  0  0  0  0  0  0  0  0  0  0
   17.0763    4.8459    0.0000 C   0  0  0  0  0  0  0  0  0  0  0  0
   16.0169    3.7841    0.0000 C   0  0  0  0  0  0  0  0  0  0  0  0
   15.0959    2.6001    0.0000 C   0  0  0  0  0  0  0  0  0  0  0  0
   14.3274    1.3119    0.0000 C   0  0  0  0  0  0  0  0  0  0  0  0
   13.7230   -0.0609    0.0000 C   0  0  0  0  0  0  0  0  0  0  0  0
   13.2919   -1.4976    0.0000 C   0  0  0  0  0  0  0  0  0  0  0  0
   12.6760   -0.0000    0.0000 C   0  0  0  0  0  0  0  0  0  0  0  0
   12.5963    1.4193    0.0000 C   0  0  0  0  0  0  0  0  0  0  0  0
   12.3582    2.8207    0.0000 C   0  0  0  0  0  0  0  0  0  0  0  0
   11.9647    4.1866    0.0000 C   0  0  0  0  0  0  0  0  0  0  0  0
   11.4207    5.4999    0.0000 C   0  0  0  0  0  0  0  0  0  0  0  0
   10.7331    6.7441    0.0000 C   0  0  0  0  0  0  0  0  0  0  0  0
    9.9105    7.9034    0.0000 C   0  0  0  0  0  0  0  0  0  0  0  0
    8.9633    8.9633    0.0000 C   0  0  0  0  0  0  0  0  0  0  0  0
    7.9034    9.9105    0.0000 C   0  0  0  0  0  0  0  0  0  0  0  0
    6.7441   10.7331    0.0000 C   0  0  0  0  0  0  0  0  0  0  0  0
    5.4999   11.4207    0.0000 C   0  0  0  0  0  0  0  0  0  0  0  0
    4.1866   11.9647    0.0000 C   0  0  0  0  0  0  0  0  0  0  0  0
    2.8207   12.3582    0.0000 C   0  0  0  0  0  0  0  0  0  0  0  0
    1.4193   12.5963    0.0000 C   0  0  0  0  0  0  0  0  0  0  0  0
   -0.0000   12.6760    0.0000 C   0  0  0  0  0  0  0  0  0  0  0  0
   -1.4193   12.5963    0.0000 C   0  0  0  0  0  0  0  0  0  0  0  0
   -2.8207   12.3582    0.0000 C   0  0  0  0  0  0  0  0  0  0  0  0
   -4.1866   11.9647    0.0000 C   0  0  0  0  0  0  0  0  0  0  0  0
   -5.4999   11.4207    0.0000 C   0  0  0  0  0  0  0  0  0  0  0  0
   -6.7441   10.7331    0.0000 C   0  0  0  0  0  0  0  0  0  0  0  0
   -7.9034    9.9105    0.0000 C   0  0  0  0  0  0  0  0  0  0  0  0
   -8.9633    8.9633    0.0000 C   0  0  0  0  0  0  0  0  0  0  0  0
   -9.9105    7.9034    0.0000 C   0  0  0  0  0  0  0  0  0  0  0  0
  -10.7331    6.7441    0.0000 C   0  0  0  0  0  0  0  0  0  0  0  0
  -11.4207    5.4999    0.0000 C   0  0  0  0  0  0  0  0  0  0  0  0
  -11.9647    4.1866    0.0000 C   0  0  0  0  0  0  0  0  0  0  0  0
  -12.3582    2.8207    0.0000 C   0  0  0  0  0  0  0  0  0  0  0  0
  -12.5963    1.4193    0.0000 C   0  0  0  0  0  0  0  0  0  0  0  0
  -12.6760    0.0000    0.0000 C   0  0  0  0  0  0  0  0  0  0  0  0
  -12.5963   -1.4193    0.0000 C   0  0  0  0  0  0  0  0  0  0  0  0
  -12.3582   -2.8207    0.0000 C   0  0  0  0  0  0  0  0  0  0  0  0
  -11.9647   -4.1866    0.0000 C   0  0  0  0  0  0  0  0  0  0  0  0
  -11.4207   -5.4999    0.0000 C   0  0  0  0  0  0  0  0  0  0  0  0
  -10.7331   -6.7441    0.0000 C   0  0  0  0  0  0  0  0  0  0  0  0
   -9.9105   -7.9034    0.0000 C   0  0  0  0  0  0  0  0  0  0  0  0
   -8.9633   -8.9633    0.0000 C   0  0  0  0  0  0  0  0  0  0  0  0
   -7.9034   -9.9105    0.0000 C   0  0  0  0  0  0  0  0  0  0  0  0
   -6.7441  -10.7331    0.0000 C   0  0  0  0  0  0  0  0  0  0  0  0
   -5.4999  -11.4207    0.0000 C   0  0  0  0  0  0  0  0  0  0  0  0
   -4.1866  -11.9647    0.0000 C   0  0  0  0  0  0  0  0  0  0  0  0
   -2.8207  -12.3582    0.0000 C   0  0  0  0  0  0  0  0  0  0  0  0
   -1.4193  -12.5963    0.0000 C   0  0  0  0  0  0  0  0  0  0  0  0
   -0.0000  -12.6760    0.0000 C   0  0  0  0  0  0  0  0  0  0  0  0
    1.4193  -12.5963    0.0000 C   0  0  0  0  0  0  0  0  0  0  0  0
    2.8207  -12.3582    0.0000 C   0  0  0  0  0  0  0  0  0  0  0  0
    4.1866  -11.9647    0.0000 C   0  0  0  0  0  0  0  0  0  0  0  0
    5.4999  -11.4207    0.0000 C   0  0  0  0  0  0  0  0  0  0  0  0
    6.7441  -10.7331    0.0000 C   0  0  0  0  0  0  0  0  0  0  0  0
    7.9034   -9.9105    0.0000 C   0  0  0  0  0  0  0  0  0  0  0  0
    8.9633   -8.9633    0.0000 C   0  0  0  0  0  0  0  0  0  0  0  0
    9.9105   -7.9034    0.0000 C   0  0  0  0  0  0  0  0  0  0  0  0
   10.7331   -6.7441    0.0000 C   0  0  0  0  0  0  0  0  0  0  0  0
   11.4207   -5.4999    0.0000 C   0  0  0  0  0  0  0  0  0  0  0  0
   11.9647   -4.1866    0.0000 C   0  0  0  0  0  0  0  0  0  0  0  0
   13.0407   -2.9764    0.0000 C   0  0  0  0  0  0  0  0  0  0  0  0
  1  2  1  0
  2  3  1  0
  3  4  1  0
  4  5  1  0
  5  6  1  0
  6  7  1  0
  7  8  1  0
  8  9  2  0
  9 10  1  0
 10 11  2  0
 11 12  1  0
 12 13  2  0
 13 14  1  0
 14 15  1  0
 15 16  1  0
 16 17  1  0
 17 18  1  0
 18 19  1  0
 19 20  1  0
 20 21  1  0
 21 22  1  0
 22 23  1  0
 23 24  1  0
 24 25  1  0
 25 26  1  0
 26 27  1  0
 27 28  1  0
 28 29  1  0
 29 30  1  0
 30 31  1  0
 31 32  1  0
 32 33  1  0
 33 34  1  0
 34 35  1  0
 35 36  1  0
 36 37  1  0
 37 38  1  0
 38 39  1  0
 39 40  1  0
 40 41  1  0
 41 42  1  0
 42 43  1  0
 43 44  1  0
 44 45  1  0
 45 46  1  0
 46 47  1  0
 47 48  1  0
 48 49  1  0
 49 50  1  0
 50 51  1  0
 51 52  1  0
 52 53  1  0
 53 54  1  0
 54 55  1  0
 55 56  1  0
 56 57  1  0
 57 58  1  0
 58 59  1  0
 59 60  1  0
 60 61  1  0
 61 62  1  0
 62 63  1  0
 63 64  1  0
 64 65  1  0
 65 66  1  0
 66 67  1  0
 67 68  1  0
 68 69  1  0
 69 70  1  0
 70 71  1  0
 71 72  1  0
 72 73  1  0
 73 74  1  0
 74 75  1  0
 75 76  1  0
 76 77  1  0
 77 78  1  0
 78 79  1  0
 79 80  1  0
 80 81  1  0
 81 82  1  0
 82 83  1  0
 83 84  1  0
 84 85  1  0
 85 86  1  0
 86 87  1  0
 87 88  2  0
 88 89  1  0
 89 90  2  0
 90 91  1  0
 91 92  2  0
 92 93  1  0
 93 94  2  0
 94 95  1  0
 95 96  2  0
 96 97  1  0
 97 98  2  0
 98 99  1  0
 99100  2  0
100101  1  0
101102  2  0
102103  1  0
103104  2  0
104105  1  0
105106  2  0
106  2  1  0
106 51  1  0
M  END
>  <Title>  (925) 
idABHQgen10

$$$$

     RDKit          2D

 20 22  0  0  0  0  0  0  0  0999 V2000
    7.6104    2.8717    0.0000 C   0  0  0  0  0  0  0  0  0  0  0  0
    7.4536    1.3799    0.0000 C   0  0  0  0  0  0  0  0  0  0  0  0
    6.1545    0.6299    0.0000 C   0  0  0  0  0  0  0  0  0  0  0  0
    6.4664   -0.8373    0.0000 C   0  0  0  0  0  0  0  0  0  0  0  0
    5.4627   -1.9520    0.0000 C   0  0  0  0  0  0  0  0  0  0  0  0
    5.9262   -3.3786    0.0000 O   0  0  0  0  0  0  0  0  0  0  0  0
    3.9955   -1.6402    0.0000 N   0  0  0  0  0  0  0  0  0  0  0  0
    2.9918   -2.7549    0.0000 C   0  0  0  0  0  0  0  0  0  0  0  0
    3.3037   -4.2221    0.0000 N   0  0  0  0  0  0  0  0  0  0  0  0
    2.0046   -4.9721    0.0000 N   0  0  0  0  0  0  0  0  0  0  0  0
    0.8899   -3.9684    0.0000 N   0  0  0  0  0  0  0  0  0  0  0  0
    1.5000   -2.5981    0.0000 N   0  0  0  0  0  0  0  0  0  0  0  0
    0.7500   -1.2990    0.0000 C   0  0  0  0  0  0  0  0  0  0  0  0
    1.5000    0.0000    0.0000 C   0  0  0  0  0  0  0  0  0  0  0  0
    0.7500    1.2990    0.0000 C   0  0  0  0  0  0  0  0  0  0  0  0
   -0.7500    1.2990    0.0000 C   0  0  0  0  0  0  0  0  0  0  0  0
   -1.5000    0.0000    0.0000 C   0  0  0  0  0  0  0  0  0  0  0  0
   -0.7500   -1.2990    0.0000 C   0  0  0  0  0  0  0  0  0  0  0  0
    7.9582   -0.9941    0.0000 C   0  0  0  0  0  0  0  0  0  0  0  0
    8.5683    0.3762    0.0000 C   0  0  0  0  0  0  0  0  0  0  0  0
  1  2  1  0
  2  3  1  0
  3  4  2  0
  4  5  1  0
  5  6  2  0
  5  7  1  0
  7  8  1  0
  8  9  2  0
  9 10  1  0
 10 11  2  0
 11 12  1  0
 12 13  1  0
 13 14  2  0
 14 15  1  0
 15 16  2  0
 16 17  1  0
 17 18  2  0
  4 19  1  0
 19 20  1  0
 20  2  1  0
 12  8  1  0
 18 13  1  0
M  END
>  <Title>  (926) 
idABHRgen10

$$$$

     RDKit          2D

 33 37  0  0  0  0  0  0  0  0999 V2000
   -0.0000   -8.0154    0.0000 C   0  0  0  0  0  0  0  0  0  0  0  0
   -0.0000   -6.5154    0.0000 C   0  0  0  0  0  0  0  0  0  0  0  0
    1.4392   -6.0928    0.0000 C   0  0  0  0  0  0  0  0  0  0  0  0
    2.4215   -4.9592    0.0000 C   0  0  0  0  0  0  0  0  0  0  0  0
    2.6350   -3.4744    0.0000 C   0  0  0  0  0  0  0  0  0  0  0  0
    2.0119   -2.1100    0.0000 C   0  0  0  0  0  0  0  0  0  0  0  0
    3.1455   -1.1277    0.0000 C   0  0  0  0  0  0  0  0  0  0  0  0
    2.8616    0.3452    0.0000 O   0  0  0  0  0  0  0  0  0  0  0  0
    4.5630   -1.6183    0.0000 N   0  0  0  0  0  0  0  0  0  0  0  0
    5.6966   -0.6360    0.0000 C   0  0  0  0  0  0  0  0  0  0  0  0
    7.1141   -1.1266    0.0000 N   0  0  0  0  0  0  0  0  0  0  0  0
    8.2478   -0.1443    0.0000 N   0  0  0  0  0  0  0  0  0  0  0  0
    7.9639    1.3286    0.0000 N   0  0  0  0  0  0  0  0  0  0  0  0
    6.5464    1.8192    0.0000 N   0  0  0  0  0  0  0  0  0  0  0  0
    5.4128    0.8369    0.0000 N   0  0  0  0  0  0  0  0  0  0  0  0
    0.7500   -1.2990    0.0000 C   0  0  0  0  0  0  0  0  0  0  0  0
    1.5000    0.0000    0.0000 C   0  0  0  0  0  0  0  0  0  0  0  0
    0.7500    1.2990    0.0000 C   0  0  0  0  0  0  0  0  0  0  0  0
   -0.7500    1.2990    0.0000 C   0  0  0  0  0  0  0  0  0  0  0  0
   -1.5000    0.0000    0.0000 C   0  0  0  0  0  0  0  0  0  0  0  0
   -0.7500   -1.2990    0.0000 C   0  0  0  0  0  0  0  0  0  0  0  0
   -2.0119   -2.1100    0.0000 C   0  0  0  0  0  0  0  0  0  0  0  0
   -2.8820   -0.8881    0.0000 C   0  0  0  0  0  0  0  0  0  0  0  0
   -4.3752   -1.0307    0.0000 C   0  0  0  0  0  0  0  0  0  0  0  0
   -4.9983   -2.3952    0.0000 C   0  0  0  0  0  0  0  0  0  0  0  0
   -4.1282   -3.6170    0.0000 C   0  0  0  0  0  0  0  0  0  0  0  0
   -2.6350   -3.4744    0.0000 C   0  0  0  0  0  0  0  0  0  0  0  0
   -2.4215   -4.9592    0.0000 C   0  0  0  0  0  0  0  0  0  0  0  0
   -3.8944   -5.2431    0.0000 C   0  0  0  0  0  0  0  0  0  0  0  0
   -4.3850   -6.6606    0.0000 C   0  0  0  0  0  0  0  0  0  0  0  0
   -3.4027   -7.7942    0.0000 C   0  0  0  0  0  0  0  0  0  0  0  0
   -1.9298   -7.5103    0.0000 C   0  0  0  0  0  0  0  0  0  0  0  0
   -1.4392   -6.0928    0.0000 C   0  0  0  0  0  0  0  0  0  0  0  0
  1  2  1  0
  2  3  2  0
  3  4  1  0
  4  5  1  0
  5  6  2  0
  6  7  1  0
  7  8  2  0
  7  9  1  0
  9 10  1  0
 10 11  2  0
 11 12  1  0
 12 13  2  0
 13 14  1  0
 14 15  2  0
  6 16  1  0
 16 17  2  0
 17 18  1  0
 18 19  2  0
 19 20  1  0
 20 21  2  0
 21 22  1  0
 22 23  2  0
 23 24  1  0
 24 25  2  0
 25 26  1  0
 26 27  2  0
 27 28  1  0
 28 29  2  0
 29 30  1  0
 30 31  2  0
 31 32  1  0
 32 33  2  0
 33  2  1  0
 15 10  1  0
 21 16  1  0
 27 22  1  0
 33 28  1  0
M  END
>  <Title>  (927) 
idABHSgen10

$$$$

     RDKit          2D

 11 10  0  0  0  0  0  0  0  0999 V2000
    0.0000    0.0000    0.0000 C   0  0  0  0  0  0  0  0  0  0  0  0
   -0.0000   -1.5000    0.0000 C   0  0  0  0  0  0  0  0  0  0  0  0
   -0.0000   -3.0000    0.0000 C   0  0  0  0  0  0  0  0  0  0  0  0
   -0.0000   -4.5000    0.0000 C   0  0  0  0  0  0  0  0  0  0  0  0
   -0.0000   -6.0000    0.0000 C   0  0  0  0  0  0  0  0  0  0  0  0
    1.2990   -6.7500    0.0000 C   0  0  0  0  0  0  0  0  0  0  0  0
    1.2990   -8.2500    0.0000 C   0  0  0  0  0  0  0  0  0  0  0  0
    1.2990   -9.7500    0.0000 C   0  0  0  0  0  0  0  0  0  0  0  0
    1.2990  -11.2500    0.0000 C   0  0  0  0  0  0  0  0  0  0  0  0
    2.5981  -12.0000    0.0000 C   0  0  0  0  0  0  0  0  0  0  0  0
    2.5981  -13.5000    0.0000 C   0  0  0  0  0  0  0  0  0  0  0  0
  1  2  3  0
  2  3  1  0
  3  4  3  0
  4  5  1  0
  5  6  1  0
  6  7  1  0
  7  8  3  0
  8  9  1  0
  9 10  2  3
 10 11  1  0
M  END
>  <Title>  (928) 
idABHTgen10

$$$$

     RDKit          2D

  8  8  0  0  0  0  0  0  0  0999 V2000
    3.0000    0.0000    0.0000 C   0  0  0  0  0  0  0  0  0  0  0  0
    1.5000    0.0000    0.0000 C   0  0  0  0  0  0  0  0  0  0  0  0
    0.7500   -1.2990    0.0000 C   0  0  0  0  0  0  0  0  0  0  0  0
   -0.7500   -1.2990    0.0000 C   0  0  0  0  0  0  0  0  0  0  0  0
   -1.5000    0.0000    0.0000 C   0  0  0  0  0  0  0  0  0  0  0  0
   -0.7500    1.2990    0.0000 C   0  0  0  0  0  0  0  0  0  0  0  0
   -1.5000    2.5981    0.0000 C   0  0  0  0  0  0  0  0  0  0  0  0
    0.7500    1.2990    0.0000 N   0  0  0  0  0  0  0  0  0  0  0  0
  1  2  1  0
  2  3  1  0
  3  4  1  0
  4  5  1  0
  5  6  1  0
  6  7  1  0
  6  8  1  0
  8  2  1  0
M  END
>  <Title>  (929) 
idABHUgen10

$$$$

     RDKit          2D

 90 92  0  0  0  0  0  0  0  0999 V2000
   -2.4176    0.0762    0.0000 C   0  0  0  0  0  0  0  0  0  0  0  0
   -2.2456   -1.4139    0.0000 C   0  0  0  0  0  0  0  0  0  0  0  0
   -3.7280   -1.6428    0.0000 C   0  0  0  0  0  0  0  0  0  0  0  0
   -5.1886   -1.9846    0.0000 C   0  0  0  0  0  0  0  0  0  0  0  0
   -6.6187   -2.4372    0.0000 C   0  0  0  0  0  0  0  0  0  0  0  0
   -8.0099   -2.9979    0.0000 C   0  0  0  0  0  0  0  0  0  0  0  0
   -9.3542   -3.6635    0.0000 C   0  0  0  0  0  0  0  0  0  0  0  0
  -10.6435   -4.4300    0.0000 C   0  0  0  0  0  0  0  0  0  0  0  0
  -11.8704   -5.2930    0.0000 C   0  0  0  0  0  0  0  0  0  0  0  0
  -13.0276   -6.2474    0.0000 C   0  0  0  0  0  0  0  0  0  0  0  0
  -14.1084   -7.2875    0.0000 C   0  0  0  0  0  0  0  0  0  0  0  0
  -15.1064   -8.4074    0.0000 C   0  0  0  0  0  0  0  0  0  0  0  0
  -16.0158   -9.6003    0.0000 C   0  0  0  0  0  0  0  0  0  0  0  0
  -16.8311  -10.8593    0.0000 C   0  0  0  0  0  0  0  0  0  0  0  0
  -17.5477  -12.1771    0.0000 C   0  0  0  0  0  0  0  0  0  0  0  0
  -18.1613  -13.5459    0.0000 C   0  0  0  0  0  0  0  0  0  0  0  0
  -18.6683  -14.9576    0.0000 C   0  0  0  0  0  0  0  0  0  0  0  0
  -19.0658  -16.4040    0.0000 C   0  0  0  0  0  0  0  0  0  0  0  0
  -19.3514  -17.8765    0.0000 C   0  0  0  0  0  0  0  0  0  0  0  0
  -19.5234  -19.3666    0.0000 C   0  0  0  0  0  0  0  0  0  0  0  0
  -19.5808  -20.8655    0.0000 C   0  0  0  0  0  0  0  0  0  0  0  0
  -19.5234  -22.3644    0.0000 C   0  0  0  0  0  0  0  0  0  0  0  0
  -19.3514  -23.8545    0.0000 C   0  0  0  0  0  0  0  0  0  0  0  0
  -19.0658  -25.3271    0.0000 C   0  0  0  0  0  0  0  0  0  0  0  0
  -18.6683  -26.7735    0.0000 C   0  0  0  0  0  0  0  0  0  0  0  0
  -18.1613  -28.1852    0.0000 C   0  0  0  0  0  0  0  0  0  0  0  0
  -17.5477  -29.5539    0.0000 C   0  0  0  0  0  0  0  0  0  0  0  0
  -16.8311  -30.8717    0.0000 C   0  0  0  0  0  0  0  0  0  0  0  0
  -16.0158  -32.1307    0.0000 C   0  0  0  0  0  0  0  0  0  0  0  0
  -15.1064  -33.3237    0.0000 C   0  0  0  0  0  0  0  0  0  0  0  0
  -14.1084  -34.4435    0.0000 C   0  0  0  0  0  0  0  0  0  0  0  0
  -13.0276  -35.4837    0.0000 C   0  0  0  0  0  0  0  0  0  0  0  0
  -11.8704  -36.4380    0.0000 C   0  0  0  0  0  0  0  0  0  0  0  0
  -10.6435  -37.3010    0.0000 C   0  0  0  0  0  0  0  0  0  0  0  0
   -9.3542  -38.0675    0.0000 C   0  0  0  0  0  0  0  0  0  0  0  0
   -8.0099  -38.7331    0.0000 C   0  0  0  0  0  0  0  0  0  0  0  0
   -6.6187  -39.2938    0.0000 C   0  0  0  0  0  0  0  0  0  0  0  0
   -5.1886  -39.7464    0.0000 C   0  0  0  0  0  0  0  0  0  0  0  0
   -3.7280  -40.0882    0.0000 C   0  0  0  0  0  0  0  0  0  0  0  0
   -2.2456  -40.3172    0.0000 C   0  0  0  0  0  0  0  0  0  0  0  0
   -0.7500  -40.4320    0.0000 C   0  0  0  0  0  0  0  0  0  0  0  0
    0.7500  -40.4320    0.0000 C   0  0  0  0  0  0  0  0  0  0  0  0
    2.2456  -40.3172    0.0000 C   0  0  0  0  0  0  0  0  0  0  0  0
    3.7280  -40.0882    0.0000 C   0  0  0  0  0  0  0  0  0  0  0  0
    5.1886  -39.7464    0.0000 C   0  0  0  0  0  0  0  0  0  0  0  0
    6.6187  -39.2938    0.0000 C   0  0  0  0  0  0  0  0  0  0  0  0
    8.0099  -38.7331    0.0000 C   0  0  0  0  0  0  0  0  0  0  0  0
    9.3542  -38.0675    0.0000 C   0  0  0  0  0  0  0  0  0  0  0  0
   10.6435  -37.3010    0.0000 C   0  0  0  0  0  0  0  0  0  0  0  0
   11.8704  -36.4380    0.0000 C   0  0  0  0  0  0  0  0  0  0  0  0
   13.0276  -35.4837    0.0000 C   0  0  0  0  0  0  0  0  0  0  0  0
   14.1084  -34.4435    0.0000 C   0  0  0  0  0  0  0  0  0  0  0  0
   15.1064  -33.3237    0.0000 C   0  0  0  0  0  0  0  0  0  0  0  0
   16.0158  -32.1307    0.0000 C   0  0  0  0  0  0  0  0  0  0  0  0
   16.8311  -30.8717    0.0000 C   0  0  0  0  0  0  0  0  0  0  0  0
   17.5477  -29.5539    0.0000 C   0  0  0  0  0  0  0  0  0  0  0  0
   18.1613  -28.1852    0.0000 C   0  0  0  0  0  0  0  0  0  0  0  0
   18.6683  -26.7735    0.0000 C   0  0  0  0  0  0  0  0  0  0  0  0
   19.0658  -25.3271    0.0000 C   0  0  0  0  0  0  0  0  0  0  0  0
   19.3514  -23.8545    0.0000 C   0  0  0  0  0  0  0  0  0  0  0  0
   19.5234  -22.3644    0.0000 C   0  0  0  0  0  0  0  0  0  0  0  0
   19.5808  -20.8655    0.0000 C   0  0  0  0  0  0  0  0  0  0  0  0
   19.5234  -19.3666    0.0000 C   0  0  0  0  0  0  0  0  0  0  0  0
   19.3514  -17.8765    0.0000 C   0  0  0  0  0  0  0  0  0  0  0  0
   19.0658  -16.4040    0.0000 C   0  0  0  0  0  0  0  0  0  0  0  0
   18.6683  -14.9576    0.0000 C   0  0  0  0  0  0  0  0  0  0  0  0
   18.1613  -13.5459    0.0000 C   0  0  0  0  0  0  0  0  0  0  0  0
   17.5477  -12.1771    0.0000 C   0  0  0  0  0  0  0  0  0  0  0  0
   16.8311  -10.8593    0.0000 C   0  0  0  0  0  0  0  0  0  0  0  0
   16.0158   -9.6003    0.0000 C   0  0  0  0  0  0  0  0  0  0  0  0
   15.1064   -8.4074    0.0000 C   0  0  0  0  0  0  0  0  0  0  0  0
   14.1084   -7.2875    0.0000 C   0  0  0  0  0  0  0  0  0  0  0  0
   13.0276   -6.2474    0.0000 C   0  0  0  0  0  0  0  0  0  0  0  0
   11.8704   -5.2930    0.0000 C   0  0  0  0  0  0  0  0  0  0  0  0
   10.6435   -4.4300    0.0000 C   0  0  0  0  0  0  0  0  0  0  0  0
    9.3542   -3.6635    0.0000 C   0  0  0  0  0  0  0  0  0  0  0  0
    8.0099   -2.9979    0.0000 C   0  0  0  0  0  0  0  0  0  0  0  0
    6.6187   -2.4372    0.0000 C   0  0  0  0  0  0  0  0  0  0  0  0
    5.1886   -1.9846    0.0000 C   0  0  0  0  0  0  0  0  0  0  0  0
    3.7280   -1.6428    0.0000 C   0  0  0  0  0  0  0  0  0  0  0  0
    3.9683   -3.1235    0.0000 C   0  0  0  0  0  0  0  0  0  0  0  0
    2.6345   -3.8096    0.0000 C   0  0  0  0  0  0  0  0  0  0  0  0
    1.5697   -2.7530    0.0000 C   0  0  0  0  0  0  0  0  0  0  0  0
    2.2456   -1.4139    0.0000 C   0  0  0  0  0  0  0  0  0  0  0  0
    0.7500   -1.2990    0.0000 C   0  0  0  0  0  0  0  0  0  0  0  0
    1.5000    0.0000    0.0000 C   0  0  0  0  0  0  0  0  0  0  0  0
    0.7500    1.2990    0.0000 C   0  0  0  0  0  0  0  0  0  0  0  0
   -0.7500    1.2990    0.0000 C   0  0  0  0  0  0  0  0  0  0  0  0
   -1.5000    0.0000    0.0000 C   0  0  0  0  0  0  0  0  0  0  0  0
   -0.7500   -1.2990    0.0000 C   0  0  0  0  0  0  0  0  0  0  0  0
  1  2  1  0
  2  3  1  0
  3  4  2  0
  4  5  1  0
  5  6  1  0
  6  7  1  0
  7  8  1  0
  8  9  1  0
  9 10  1  0
 10 11  1  0
 11 12  1  0
 12 13  1  0
 13 14  1  0
 14 15  1  0
 15 16  1  0
 16 17  1  0
 17 18  1  0
 18 19  1  0
 19 20  1  0
 20 21  1  0
 21 22  1  0
 22 23  1  0
 23 24  1  0
 24 25  1  0
 25 26  1  0
 26 27  1  0
 27 28  1  0
 28 29  1  0
 29 30  1  0
 30 31  1  0
 31 32  1  0
 32 33  1  0
 33 34  1  0
 34 35  1  0
 35 36  1  0
 36 37  1  0
 37 38  1  0
 38 39  1  0
 39 40  1  0
 40 41  1  0
 41 42  1  0
 42 43  1  0
 43 44  1  0
 44 45  1  0
 45 46  1  0
 46 47  1  0
 47 48  1  0
 48 49  1  0
 49 50  1  0
 50 51  1  0
 51 52  1  0
 52 53  1  0
 53 54  1  0
 54 55  1  0
 55 56  1  0
 56 57  1  0
 57 58  1  0
 58 59  1  0
 59 60  1  0
 60 61  1  0
 61 62  1  0
 62 63  1  0
 63 64  1  0
 64 65  1  0
 65 66  1  0
 66 67  1  0
 67 68  1  0
 68 69  1  0
 69 70  1  0
 70 71  1  0
 71 72  1  0
 72 73  1  0
 73 74  1  0
 74 75  1  0
 75 76  1  0
 76 77  1  0
 77 78  1  0
 78 79  1  0
 79 80  1  0
 80 81  1  0
 81 82  2  0
 82 83  1  0
 83 84  2  0
 84 85  1  0
 85 86  2  0
 86 87  1  0
 87 88  2  0
 88 89  1  0
 89 90  2  0
 90  2  1  0
 84 80  1  0
 90 85  1  0
M  END
>  <Title>  (930) 
idABHVgen10

$$$$

     RDKit          2D

 76 77  0  0  0  0  0  0  0  0999 V2000
   -2.2205   -1.0623    0.0000 C   0  0  0  0  0  0  0  0  0  0  0  0
   -2.4938    0.4126    0.0000 C   0  0  0  0  0  0  0  0  0  0  0  0
   -3.9792    0.2038    0.0000 C   0  0  0  0  0  0  0  0  0  0  0  0
   -5.4772    0.1253    0.0000 C   0  0  0  0  0  0  0  0  0  0  0  0
   -6.9763    0.1777    0.0000 C   0  0  0  0  0  0  0  0  0  0  0  0
   -8.4651    0.3605    0.0000 C   0  0  0  0  0  0  0  0  0  0  0  0
   -9.9323    0.6723    0.0000 C   0  0  0  0  0  0  0  0  0  0  0  0
  -11.3668    1.1109    0.0000 C   0  0  0  0  0  0  0  0  0  0  0  0
  -12.7575    1.6728    0.0000 C   0  0  0  0  0  0  0  0  0  0  0  0
  -14.0941    2.3538    0.0000 C   0  0  0  0  0  0  0  0  0  0  0  0
  -15.3661    3.1487    0.0000 C   0  0  0  0  0  0  0  0  0  0  0  0
  -16.5641    4.0514    0.0000 C   0  0  0  0  0  0  0  0  0  0  0  0
  -17.6788    5.0551    0.0000 C   0  0  0  0  0  0  0  0  0  0  0  0
  -18.7018    6.1521    0.0000 C   0  0  0  0  0  0  0  0  0  0  0  0
  -19.6253    7.3341    0.0000 C   0  0  0  0  0  0  0  0  0  0  0  0
  -20.4422    8.5921    0.0000 C   0  0  0  0  0  0  0  0  0  0  0  0
  -21.1465    9.9166    0.0000 C   0  0  0  0  0  0  0  0  0  0  0  0
  -21.7326   11.2973    0.0000 C   0  0  0  0  0  0  0  0  0  0  0  0
  -22.1961   12.7239    0.0000 C   0  0  0  0  0  0  0  0  0  0  0  0
  -22.5335   14.1855    0.0000 C   0  0  0  0  0  0  0  0  0  0  0  0
  -22.7423   15.6709    0.0000 C   0  0  0  0  0  0  0  0  0  0  0  0
  -22.8208   17.1688    0.0000 C   0  0  0  0  0  0  0  0  0  0  0  0
  -22.7684   18.6679    0.0000 C   0  0  0  0  0  0  0  0  0  0  0  0
  -22.5856   20.1567    0.0000 C   0  0  0  0  0  0  0  0  0  0  0  0
  -22.2737   21.6239    0.0000 C   0  0  0  0  0  0  0  0  0  0  0  0
  -21.8352   23.0584    0.0000 C   0  0  0  0  0  0  0  0  0  0  0  0
  -21.2733   24.4492    0.0000 C   0  0  0  0  0  0  0  0  0  0  0  0
  -20.5923   25.7857    0.0000 C   0  0  0  0  0  0  0  0  0  0  0  0
  -19.7974   27.0577    0.0000 C   0  0  0  0  0  0  0  0  0  0  0  0
  -18.8947   28.2557    0.0000 C   0  0  0  0  0  0  0  0  0  0  0  0
  -17.8910   29.3704    0.0000 C   0  0  0  0  0  0  0  0  0  0  0  0
  -16.7940   30.3934    0.0000 C   0  0  0  0  0  0  0  0  0  0  0  0
  -15.6120   31.3169    0.0000 C   0  0  0  0  0  0  0  0  0  0  0  0
  -14.3539   32.1339    0.0000 C   0  0  0  0  0  0  0  0  0  0  0  0
  -13.0295   32.8381    0.0000 C   0  0  0  0  0  0  0  0  0  0  0  0
  -11.6488   33.4242    0.0000 C   0  0  0  0  0  0  0  0  0  0  0  0
  -10.2222   33.8877    0.0000 C   0  0  0  0  0  0  0  0  0  0  0  0
   -8.7606   34.2251    0.0000 C   0  0  0  0  0  0  0  0  0  0  0  0
   -7.2752   34.4339    0.0000 C   0  0  0  0  0  0  0  0  0  0  0  0
   -5.7773   34.5124    0.0000 C   0  0  0  0  0  0  0  0  0  0  0  0
   -4.2782   34.4600    0.0000 C   0  0  0  0  0  0  0  0  0  0  0  0
   -2.7894   34.2772    0.0000 C   0  0  0  0  0  0  0  0  0  0  0  0
   -1.3222   33.9654    0.0000 C   0  0  0  0  0  0  0  0  0  0  0  0
    0.1123   33.5268    0.0000 C   0  0  0  0  0  0  0  0  0  0  0  0
    1.5031   32.9649    0.0000 C   0  0  0  0  0  0  0  0  0  0  0  0
    2.8396   32.2839    0.0000 C   0  0  0  0  0  0  0  0  0  0  0  0
    4.1117   31.4890    0.0000 C   0  0  0  0  0  0  0  0  0  0  0  0
    5.3096   30.5863    0.0000 C   0  0  0  0  0  0  0  0  0  0  0  0
    6.4243   29.5826    0.0000 C   0  0  0  0  0  0  0  0  0  0  0  0
    7.4473   28.4856    0.0000 C   0  0  0  0  0  0  0  0  0  0  0  0
    8.3708   27.3036    0.0000 C   0  0  0  0  0  0  0  0  0  0  0  0
    9.1878   26.0456    0.0000 C   0  0  0  0  0  0  0  0  0  0  0  0
    9.8920   24.7211    0.0000 C   0  0  0  0  0  0  0  0  0  0  0  0
   10.4781   23.3404    0.0000 C   0  0  0  0  0  0  0  0  0  0  0  0
   10.9416   21.9138    0.0000 C   0  0  0  0  0  0  0  0  0  0  0  0
   11.2790   20.4522    0.0000 C   0  0  0  0  0  0  0  0  0  0  0  0
   11.4878   18.9668    0.0000 C   0  0  0  0  0  0  0  0  0  0  0  0
   11.5663   17.4689    0.0000 C   0  0  0  0  0  0  0  0  0  0  0  0
   11.5140   15.9698    0.0000 C   0  0  0  0  0  0  0  0  0  0  0  0
   11.3311   14.4810    0.0000 C   0  0  0  0  0  0  0  0  0  0  0  0
   11.0193   13.0138    0.0000 C   0  0  0  0  0  0  0  0  0  0  0  0
   10.5807   11.5793    0.0000 C   0  0  0  0  0  0  0  0  0  0  0  0
   10.0188   10.1885    0.0000 C   0  0  0  0  0  0  0  0  0  0  0  0
    9.3378    8.8520    0.0000 C   0  0  0  0  0  0  0  0  0  0  0  0
    8.5429    7.5799    0.0000 C   0  0  0  0  0  0  0  0  0  0  0  0
    7.6402    6.3820    0.0000 C   0  0  0  0  0  0  0  0  0  0  0  0
    6.6365    5.2673    0.0000 C   0  0  0  0  0  0  0  0  0  0  0  0
    5.5395    4.2443    0.0000 C   0  0  0  0  0  0  0  0  0  0  0  0
    4.3575    3.3208    0.0000 C   0  0  0  0  0  0  0  0  0  0  0  0
    3.0995    2.5038    0.0000 C   0  0  0  0  0  0  0  0  0  0  0  0
    1.7751    1.7996    0.0000 C   0  0  0  0  0  0  0  0  0  0  0  0
    0.3943    1.2135    0.0000 C   0  0  0  0  0  0  0  0  0  0  0  0
    1.2760    0.0000    0.0000 C   0  0  0  0  0  0  0  0  0  0  0  0
    0.3943   -1.2135    0.0000 C   0  0  0  0  0  0  0  0  0  0  0  0
   -1.0323   -0.7500    0.0000 C   0  0  0  0  0  0  0  0  0  0  0  0
   -1.0323    0.7500    0.0000 C   0  0  0  0  0  0  0  0  0  0  0  0
  1  2  1  0
  2  3  1  0
  3  4  2  0
  4  5  1  0
  5  6  2  0
  6  7  1  0
  7  8  2  0
  8  9  1  0
  9 10  2  0
 10 11  1  0
 11 12  2  0
 12 13  1  0
 13 14  2  0
 14 15  1  0
 15 16  2  0
 16 17  1  0
 17 18  2  0
 18 19  1  0
 19 20  2  0
 20 21  1  0
 21 22  2  0
 22 23  1  0
 23 24  2  0
 24 25  1  0
 25 26  2  0
 26 27  1  0
 27 28  2  0
 28 29  1  0
 29 30  2  0
 30 31  1  0
 31 32  2  0
 32 33  1  0
 33 34  2  0
 34 35  1  0
 35 36  2  0
 36 37  1  0
 37 38  2  0
 38 39  1  0
 39 40  2  0
 40 41  1  0
 41 42  2  0
 42 43  1  0
 43 44  2  0
 44 45  1  0
 45 46  2  0
 46 47  1  0
 47 48  2  0
 48 49  1  0
 49 50  2  0
 50 51  1  0
 51 52  2  0
 52 53  1  0
 53 54  2  0
 54 55  1  0
 55 56  2  0
 56 57  1  0
 57 58  2  0
 58 59  1  0
 59 60  2  0
 60 61  1  0
 61 62  2  0
 62 63  1  0
 63 64  2  0
 64 65  1  0
 65 66  2  0
 66 67  1  0
 67 68  2  0
 68 69  1  0
 69 70  2  0
 70 71  1  0
 71 72  2  0
 72 73  1  0
 73 74  2  0
 74 75  1  0
 75 76  2  0
 76  2  1  0
 76 72  1  0
M  END
>  <Title>  (931) 
idABHWgen10

$$$$

     RDKit          2D

 11 11  0  0  0  0  0  0  0  0999 V2000
    7.5000    0.0000    0.0000 C   0  0  0  0  0  0  0  0  0  0  0  0
    6.0000    0.0000    0.0000 C   0  0  0  0  0  0  0  0  0  0  0  0
    4.5000    0.0000    0.0000 C   0  0  0  0  0  0  0  0  0  0  0  0
    3.0000    0.0000    0.0000 C   0  0  0  0  0  0  0  0  0  0  0  0
    1.5000    0.0000    0.0000 C   0  0  0  0  0  0  0  0  0  0  0  0
    0.7500   -1.2990    0.0000 C   0  0  0  0  0  0  0  0  0  0  0  0
   -0.7500   -1.2990    0.0000 C   0  0  0  0  0  0  0  0  0  0  0  0
   -1.5000    0.0000    0.0000 C   0  0  0  0  0  0  0  0  0  0  0  0
   -0.7500    1.2990    0.0000 C   0  0  0  0  0  0  0  0  0  0  0  0
    0.7500    1.2990    0.0000 C   0  0  0  0  0  0  0  0  0  0  0  0
    1.5000    2.5981    0.0000 O   0  0  0  0  0  0  0  0  0  0  0  0
  1  2  3  0
  2  3  1  0
  3  4  3  0
  4  5  1  0
  5  6  2  0
  6  7  1  0
  7  8  2  0
  8  9  1  0
  9 10  2  0
 10 11  1  0
 10  5  1  0
M  END
>  <Title>  (932) 
idABHXgen10

$$$$

     RDKit          2D

 73 74  0  0  0  0  0  0  0  0999 V2000
   17.9782    0.0000    0.0000 C   0  0  0  0  0  0  0  0  0  0  0  0
   16.4782    0.0000    0.0000 C   0  0  0  0  0  0  0  0  0  0  0  0
   16.4100    1.4984    0.0000 C   0  0  0  0  0  0  0  0  0  0  0  0
   16.2057    2.9845    0.0000 C   0  0  0  0  0  0  0  0  0  0  0  0
   15.8672    4.4458    0.0000 C   0  0  0  0  0  0  0  0  0  0  0  0
   15.3972    5.8702    0.0000 C   0  0  0  0  0  0  0  0  0  0  0  0
   14.7996    7.2460    0.0000 C   0  0  0  0  0  0  0  0  0  0  0  0
   14.0793    8.5618    0.0000 C   0  0  0  0  0  0  0  0  0  0  0  0
   13.2424    9.8067    0.0000 C   0  0  0  0  0  0  0  0  0  0  0  0
   12.2958   10.9702    0.0000 C   0  0  0  0  0  0  0  0  0  0  0  0
   11.2473   12.0429    0.0000 C   0  0  0  0  0  0  0  0  0  0  0  0
   10.1056   13.0158    0.0000 C   0  0  0  0  0  0  0  0  0  0  0  0
    8.8801   13.8808    0.0000 C   0  0  0  0  0  0  0  0  0  0  0  0
    7.5811   14.6308    0.0000 C   0  0  0  0  0  0  0  0  0  0  0  0
    6.2192   15.2595    0.0000 C   0  0  0  0  0  0  0  0  0  0  0  0
    4.8058   15.7619    0.0000 C   0  0  0  0  0  0  0  0  0  0  0  0
    3.3526   16.1336    0.0000 C   0  0  0  0  0  0  0  0  0  0  0  0
    1.8716   16.3716    0.0000 C   0  0  0  0  0  0  0  0  0  0  0  0
    0.3751   16.4740    0.0000 C   0  0  0  0  0  0  0  0  0  0  0  0
   -1.1245   16.4398    0.0000 C   0  0  0  0  0  0  0  0  0  0  0  0
   -2.6148   16.2694    0.0000 C   0  0  0  0  0  0  0  0  0  0  0  0
   -4.0834   15.9643    0.0000 C   0  0  0  0  0  0  0  0  0  0  0  0
   -5.5182   15.5268    0.0000 C   0  0  0  0  0  0  0  0  0  0  0  0
   -6.9073   14.9607    0.0000 C   0  0  0  0  0  0  0  0  0  0  0  0
   -8.2391   14.2706    0.0000 C   0  0  0  0  0  0  0  0  0  0  0  0
   -9.5027   13.4622    0.0000 C   0  0  0  0  0  0  0  0  0  0  0  0
  -10.6875   12.5423    0.0000 C   0  0  0  0  0  0  0  0  0  0  0  0
  -11.7837   11.5185    0.0000 C   0  0  0  0  0  0  0  0  0  0  0  0
  -12.7823   10.3992    0.0000 C   0  0  0  0  0  0  0  0  0  0  0  0
  -13.6750    9.1938    0.0000 C   0  0  0  0  0  0  0  0  0  0  0  0
  -14.4544    7.9121    0.0000 C   0  0  0  0  0  0  0  0  0  0  0  0
  -15.1140    6.5649    0.0000 C   0  0  0  0  0  0  0  0  0  0  0  0
  -15.6484    5.1634    0.0000 C   0  0  0  0  0  0  0  0  0  0  0  0
  -16.0531    3.7190    0.0000 C   0  0  0  0  0  0  0  0  0  0  0  0
  -16.3248    2.2438    0.0000 C   0  0  0  0  0  0  0  0  0  0  0  0
  -16.4612    0.7500    0.0000 C   0  0  0  0  0  0  0  0  0  0  0  0
  -16.4612   -0.7500    0.0000 C   0  0  0  0  0  0  0  0  0  0  0  0
  -16.3248   -2.2438    0.0000 C   0  0  0  0  0  0  0  0  0  0  0  0
  -16.0531   -3.7190    0.0000 C   0  0  0  0  0  0  0  0  0  0  0  0
  -15.6484   -5.1634    0.0000 C   0  0  0  0  0  0  0  0  0  0  0  0
  -15.1140   -6.5649    0.0000 C   0  0  0  0  0  0  0  0  0  0  0  0
  -14.4544   -7.9121    0.0000 C   0  0  0  0  0  0  0  0  0  0  0  0
  -13.6750   -9.1938    0.0000 C   0  0  0  0  0  0  0  0  0  0  0  0
  -12.7823  -10.3992    0.0000 C   0  0  0  0  0  0  0  0  0  0  0  0
  -11.7837  -11.5185    0.0000 C   0  0  0  0  0  0  0  0  0  0  0  0
  -10.6875  -12.5423    0.0000 C   0  0  0  0  0  0  0  0  0  0  0  0
   -9.5027  -13.4622    0.0000 C   0  0  0  0  0  0  0  0  0  0  0  0
   -8.2391  -14.2706    0.0000 C   0  0  0  0  0  0  0  0  0  0  0  0
   -6.9073  -14.9607    0.0000 C   0  0  0  0  0  0  0  0  0  0  0  0
   -5.5182  -15.5268    0.0000 C   0  0  0  0  0  0  0  0  0  0  0  0
   -4.0834  -15.9643    0.0000 C   0  0  0  0  0  0  0  0  0  0  0  0
   -2.6148  -16.2694    0.0000 C   0  0  0  0  0  0  0  0  0  0  0  0
   -1.1245  -16.4398    0.0000 C   0  0  0  0  0  0  0  0  0  0  0  0
    0.3751  -16.4740    0.0000 C   0  0  0  0  0  0  0  0  0  0  0  0
    1.8716  -16.3716    0.0000 C   0  0  0  0  0  0  0  0  0  0  0  0
    3.3526  -16.1336    0.0000 C   0  0  0  0  0  0  0  0  0  0  0  0
    4.8058  -15.7619    0.0000 C   0  0  0  0  0  0  0  0  0  0  0  0
    6.2192  -15.2595    0.0000 C   0  0  0  0  0  0  0  0  0  0  0  0
    7.5811  -14.6308    0.0000 C   0  0  0  0  0  0  0  0  0  0  0  0
    8.8801  -13.8808    0.0000 C   0  0  0  0  0  0  0  0  0  0  0  0
   10.1056  -13.0158    0.0000 C   0  0  0  0  0  0  0  0  0  0  0  0
   11.2473  -12.0429    0.0000 C   0  0  0  0  0  0  0  0  0  0  0  0
   12.2958  -10.9702    0.0000 C   0  0  0  0  0  0  0  0  0  0  0  0
   13.2424   -9.8067    0.0000 C   0  0  0  0  0  0  0  0  0  0  0  0
   14.4872  -10.6436    0.0000 C   0  0  0  0  0  0  0  0  0  0  0  0
   14.7757  -12.1156    0.0000 O   0  0  0  0  0  0  0  0  0  0  0  0
   15.3241   -9.3987    0.0000 N   0  0  0  0  0  0  0  0  0  0  0  0
   14.0793   -8.5618    0.0000 C   0  0  0  0  0  0  0  0  0  0  0  0
   14.7996   -7.2460    0.0000 N   0  0  0  0  0  0  0  0  0  0  0  0
   15.3972   -5.8702    0.0000 N   0  0  0  0  0  0  0  0  0  0  0  0
   15.8672   -4.4458    0.0000 N   0  0  0  0  0  0  0  0  0  0  0  0
   16.2057   -2.9845    0.0000 N   0  0  0  0  0  0  0  0  0  0  0  0
   16.4100   -1.4984    0.0000 N   0  0  0  0  0  0  0  0  0  0  0  0
  1  2  1  0
  2  3  1  0
  3  4  2  0
  4  5  1  0
  5  6  1  0
  6  7  1  0
  7  8  1  0
  8  9  1  0
  9 10  1  0
 10 11  1  0
 11 12  1  0
 12 13  1  0
 13 14  1  0
 14 15  1  0
 15 16  1  0
 16 17  1  0
 17 18  1  0
 18 19  1  0
 19 20  1  0
 20 21  1  0
 21 22  1  0
 22 23  1  0
 23 24  1  0
 24 25  1  0
 25 26  1  0
 26 27  1  0
 27 28  1  0
 28 29  1  0
 29 30  1  0
 30 31  1  0
 31 32  1  0
 32 33  1  0
 33 34  1  0
 34 35  1  0
 35 36  1  0
 36 37  1  0
 37 38  1  0
 38 39  1  0
 39 40  1  0
 40 41  1  0
 41 42  1  0
 42 43  1  0
 43 44  1  0
 44 45  1  0
 45 46  1  0
 46 47  1  0
 47 48  1  0
 48 49  1  0
 49 50  1  0
 50 51  1  0
 51 52  2  0
 52 53  1  0
 53 54  2  0
 54 55  1  0
 55 56  2  0
 56 57  1  0
 57 58  2  0
 58 59  1  0
 59 60  2  0
 60 61  1  0
 61 62  2  0
 62 63  1  0
 63 64  2  0
 64 65  1  0
 65 66  2  0
 65 67  1  0
 67 68  1  0
 68 69  2  0
 69 70  1  0
 70 71  2  0
 71 72  1  0
 72 73  2  0
 73  2  1  0
 68 64  1  0
M  END
>  <Title>  (933) 
idABHYgen10

$$$$

     RDKit          2D

 77 78  0  0  0  0  0  0  0  0999 V2000
   -2.2174   -1.0636    0.0000 C   0  0  0  0  0  0  0  0  0  0  0  0
   -2.4934    0.4108    0.0000 C   0  0  0  0  0  0  0  0  0  0  0  0
   -3.9783    0.1985    0.0000 C   0  0  0  0  0  0  0  0  0  0  0  0
   -5.4760    0.1146    0.0000 C   0  0  0  0  0  0  0  0  0  0  0  0
   -6.9753    0.1598    0.0000 C   0  0  0  0  0  0  0  0  0  0  0  0
   -8.4652    0.3337    0.0000 C   0  0  0  0  0  0  0  0  0  0  0  0
   -9.9346    0.6351    0.0000 C   0  0  0  0  0  0  0  0  0  0  0  0
  -11.3727    1.0616    0.0000 C   0  0  0  0  0  0  0  0  0  0  0  0
  -12.7688    1.6102    0.0000 C   0  0  0  0  0  0  0  0  0  0  0  0
  -14.1125    2.2767    0.0000 C   0  0  0  0  0  0  0  0  0  0  0  0
  -15.3940    3.0564    0.0000 C   0  0  0  0  0  0  0  0  0  0  0  0
  -16.6037    3.9433    0.0000 C   0  0  0  0  0  0  0  0  0  0  0  0
  -17.7327    4.9309    0.0000 C   0  0  0  0  0  0  0  0  0  0  0  0
  -18.7727    6.0119    0.0000 C   0  0  0  0  0  0  0  0  0  0  0  0
  -19.7158    7.1783    0.0000 C   0  0  0  0  0  0  0  0  0  0  0  0
  -20.5552    8.4214    0.0000 C   0  0  0  0  0  0  0  0  0  0  0  0
  -21.2846    9.7321    0.0000 C   0  0  0  0  0  0  0  0  0  0  0  0
  -21.8986   11.1007    0.0000 C   0  0  0  0  0  0  0  0  0  0  0  0
  -22.3927   12.5170    0.0000 C   0  0  0  0  0  0  0  0  0  0  0  0
  -22.7633   13.9705    0.0000 C   0  0  0  0  0  0  0  0  0  0  0  0
  -23.0075   15.4505    0.0000 C   0  0  0  0  0  0  0  0  0  0  0  0
  -23.1236   16.9460    0.0000 C   0  0  0  0  0  0  0  0  0  0  0  0
  -23.1107   18.4459    0.0000 C   0  0  0  0  0  0  0  0  0  0  0  0
  -22.9689   19.9392    0.0000 C   0  0  0  0  0  0  0  0  0  0  0  0
  -22.6992   21.4148    0.0000 C   0  0  0  0  0  0  0  0  0  0  0  0
  -22.3037   22.8617    0.0000 C   0  0  0  0  0  0  0  0  0  0  0  0
  -21.7853   24.2692    0.0000 C   0  0  0  0  0  0  0  0  0  0  0  0
  -21.1478   25.6270    0.0000 C   0  0  0  0  0  0  0  0  0  0  0  0
  -20.3959   26.9250    0.0000 C   0  0  0  0  0  0  0  0  0  0  0  0
  -19.5353   28.1535    0.0000 C   0  0  0  0  0  0  0  0  0  0  0  0
  -18.5722   29.3035    0.0000 C   0  0  0  0  0  0  0  0  0  0  0  0
  -17.5138   30.3664    0.0000 C   0  0  0  0  0  0  0  0  0  0  0  0
  -16.3680   31.3345    0.0000 C   0  0  0  0  0  0  0  0  0  0  0  0
  -15.1432   32.2004    0.0000 C   0  0  0  0  0  0  0  0  0  0  0  0
  -13.8485   32.9578    0.0000 C   0  0  0  0  0  0  0  0  0  0  0  0
  -12.4934   33.6012    0.0000 C   0  0  0  0  0  0  0  0  0  0  0  0
  -11.0881   34.1257    0.0000 C   0  0  0  0  0  0  0  0  0  0  0  0
   -9.6429   34.5274    0.0000 C   0  0  0  0  0  0  0  0  0  0  0  0
   -8.1685   34.8034    0.0000 C   0  0  0  0  0  0  0  0  0  0  0  0
   -6.6758   34.9516    0.0000 C   0  0  0  0  0  0  0  0  0  0  0  0
   -5.1760   34.9710    0.0000 C   0  0  0  0  0  0  0  0  0  0  0  0
   -3.6800   34.8613    0.0000 C   0  0  0  0  0  0  0  0  0  0  0  0
   -2.1990   34.6235    0.0000 C   0  0  0  0  0  0  0  0  0  0  0  0
   -0.7439   34.2592    0.0000 C   0  0  0  0  0  0  0  0  0  0  0  0
    0.6745   33.7712    0.0000 C   0  0  0  0  0  0  0  0  0  0  0  0
    2.0457   33.1631    0.0000 C   0  0  0  0  0  0  0  0  0  0  0  0
    3.3596   32.4393    0.0000 C   0  0  0  0  0  0  0  0  0  0  0  0
    4.6063   31.6053    0.0000 C   0  0  0  0  0  0  0  0  0  0  0  0
    5.7768   30.6672    0.0000 C   0  0  0  0  0  0  0  0  0  0  0  0
    6.8622   29.6319    0.0000 C   0  0  0  0  0  0  0  0  0  0  0  0
    7.8547   28.5072    0.0000 C   0  0  0  0  0  0  0  0  0  0  0  0
    8.7468   27.3013    0.0000 C   0  0  0  0  0  0  0  0  0  0  0  0
    9.5319   26.0232    0.0000 C   0  0  0  0  0  0  0  0  0  0  0  0
   10.2042   24.6823    0.0000 C   0  0  0  0  0  0  0  0  0  0  0  0
   10.7588   23.2886    0.0000 C   0  0  0  0  0  0  0  0  0  0  0  0
   11.1915   21.8523    0.0000 C   0  0  0  0  0  0  0  0  0  0  0  0
   11.4992   20.3842    0.0000 C   0  0  0  0  0  0  0  0  0  0  0  0
   11.6795   18.8951    0.0000 C   0  0  0  0  0  0  0  0  0  0  0  0
   11.7311   17.3960    0.0000 C   0  0  0  0  0  0  0  0  0  0  0  0
   11.6537   15.8980    0.0000 C   0  0  0  0  0  0  0  0  0  0  0  0
   11.4478   14.4122    0.0000 C   0  0  0  0  0  0  0  0  0  0  0  0
   11.1149   12.9496    0.0000 C   0  0  0  0  0  0  0  0  0  0  0  0
   10.6575   11.5210    0.0000 C   0  0  0  0  0  0  0  0  0  0  0  0
   10.0790   10.1371    0.0000 C   0  0  0  0  0  0  0  0  0  0  0  0
    9.3837    8.8080    0.0000 C   0  0  0  0  0  0  0  0  0  0  0  0
    8.5767    7.5436    0.0000 C   0  0  0  0  0  0  0  0  0  0  0  0
    7.6640    6.3532    0.0000 C   0  0  0  0  0  0  0  0  0  0  0  0
    6.6523    5.2457    0.0000 C   0  0  0  0  0  0  0  0  0  0  0  0
    5.5492    4.2293    0.0000 C   0  0  0  0  0  0  0  0  0  0  0  0
    4.3628    3.3115    0.0000 C   0  0  0  0  0  0  0  0  0  0  0  0
    3.1019    2.4990    0.0000 C   0  0  0  0  0  0  0  0  0  0  0  0
    1.7758    1.7980    0.0000 C   0  0  0  0  0  0  0  0  0  0  0  0
    0.3943    1.2135    0.0000 C   0  0  0  0  0  0  0  0  0  0  0  0
    1.2760    0.0000    0.0000 C   0  0  0  0  0  0  0  0  0  0  0  0
    0.3943   -1.2135    0.0000 C   0  0  0  0  0  0  0  0  0  0  0  0
   -1.0323   -0.7500    0.0000 C   0  0  0  0  0  0  0  0  0  0  0  0
   -1.0323    0.7500    0.0000 C   0  0  0  0  0  0  0  0  0  0  0  0
  1  2  1  0
  2  3  1  0
  3  4  1  0
  4  5  2  0
  5  6  1  0
  6  7  2  0
  7  8  1  0
  8  9  2  0
  9 10  1  0
 10 11  2  0
 11 12  1  0
 12 13  2  0
 13 14  1  0
 14 15  2  0
 15 16  1  0
 16 17  2  0
 17 18  1  0
 18 19  2  0
 19 20  1  0
 20 21  2  0
 21 22  1  0
 22 23  2  0
 23 24  1  0
 24 25  2  0
 25 26  1  0
 26 27  2  0
 27 28  1  0
 28 29  2  0
 29 30  1  0
 30 31  2  0
 31 32  1  0
 32 33  2  0
 33 34  1  0
 34 35  2  0
 35 36  1  0
 36 37  2  0
 37 38  1  0
 38 39  2  0
 39 40  1  0
 40 41  2  0
 41 42  1  0
 42 43  2  0
 43 44  1  0
 44 45  2  0
 45 46  1  0
 46 47  2  0
 47 48  1  0
 48 49  2  0
 49 50  1  0
 50 51  2  0
 51 52  1  0
 52 53  2  0
 53 54  1  0
 54 55  2  0
 55 56  1  0
 56 57  2  0
 57 58  1  0
 58 59  2  0
 59 60  1  0
 60 61  2  0
 61 62  1  0
 62 63  2  0
 63 64  1  0
 64 65  2  0
 65 66  1  0
 66 67  2  0
 67 68  1  0
 68 69  2  0
 69 70  1  0
 70 71  2  0
 71 72  1  0
 72 73  2  0
 73 74  1  0
 74 75  2  0
 75 76  1  0
 76 77  2  0
 77  2  1  0
 77 73  1  0
M  END
>  <Title>  (934) 
idABHZgen10

$$$$

     RDKit          2D

 14 14  0  0  0  0  0  0  0  0999 V2000
   12.7500   -1.2990    0.0000 C   0  0  0  0  0  0  0  0  0  0  0  0
   12.0000    0.0000    0.0000 C   0  0  0  0  0  0  0  0  0  0  0  0
   10.5000    0.0000    0.0000 C   0  0  0  0  0  0  0  0  0  0  0  0
    9.0000    0.0000    0.0000 C   0  0  0  0  0  0  0  0  0  0  0  0
    7.5000    0.0000    0.0000 C   0  0  0  0  0  0  0  0  0  0  0  0
    6.0000    0.0000    0.0000 C   0  0  0  0  0  0  0  0  0  0  0  0
    4.5000    0.0000    0.0000 C   0  0  0  0  0  0  0  0  0  0  0  0
    3.0000    0.0000    0.0000 C   0  0  0  0  0  0  0  0  0  0  0  0
    1.5000    0.0000    0.0000 C   0  0  0  0  0  0  0  0  0  0  0  0
    0.7500   -1.2990    0.0000 C   0  0  0  0  0  0  0  0  0  0  0  0
   -0.7500   -1.2990    0.0000 C   0  0  0  0  0  0  0  0  0  0  0  0
   -1.5000    0.0000    0.0000 C   0  0  0  0  0  0  0  0  0  0  0  0
   -0.7500    1.2990    0.0000 C   0  0  0  0  0  0  0  0  0  0  0  0
    0.7500    1.2990    0.0000 C   0  0  0  0  0  0  0  0  0  0  0  0
  1  2  2  0
  2  3  1  0
  3  4  3  0
  4  5  1  0
  5  6  3  0
  6  7  1  0
  7  8  3  0
  8  9  1  0
  9 10  2  0
 10 11  1  0
 11 12  2  0
 12 13  1  0
 13 14  2  0
 14  9  1  0
M  END
>  <Title>  (935) 
idABIAgen10

$$$$

     RDKit          2D

 11 11  0  0  0  0  0  0  0  0999 V2000
    3.9271    0.0000    0.0000 C   0  0  0  0  0  0  0  0  0  0  0  0
    2.4271    0.0000    0.0000 C   0  0  0  0  0  0  0  0  0  0  0  0
    1.9635   -1.4266    0.0000 C   0  0  0  0  0  0  0  0  0  0  0  0
    0.7500   -2.3083    0.0000 C   0  0  0  0  0  0  0  0  0  0  0  0
   -0.7500   -2.3083    0.0000 C   0  0  0  0  0  0  0  0  0  0  0  0
   -1.9635   -1.4266    0.0000 C   0  0  0  0  0  0  0  0  0  0  0  0
   -2.4271    0.0000    0.0000 C   0  0  0  0  0  0  0  0  0  0  0  0
   -1.9635    1.4266    0.0000 C   0  0  0  0  0  0  0  0  0  0  0  0
   -0.7500    2.3083    0.0000 C   0  0  0  0  0  0  0  0  0  0  0  0
    0.7500    2.3083    0.0000 C   0  0  0  0  0  0  0  0  0  0  0  0
    1.9635    1.4266    0.0000 N   0  0  0  0  0  0  0  0  0  0  0  0
  1  2  1  0
  2  3  2  0
  3  4  1  0
  4  5  2  0
  5  6  1  0
  6  7  2  0
  7  8  1  0
  8  9  2  0
  9 10  1  0
 10 11  2  0
 11  2  1  0
M  END
>  <Title>  (936) 
idABIBgen10

$$$$

     RDKit          2D

  8  8  0  0  0  0  0  0  0  0999 V2000
    3.7500   -1.2990    0.0000 C   0  0  0  0  0  0  0  0  0  0  0  0
    3.0000    0.0000    0.0000 C   0  0  0  0  0  0  0  0  0  0  0  0
    1.5000    0.0000    0.0000 C   0  0  0  0  0  0  0  0  0  0  0  0
    0.7500   -1.2990    0.0000 C   0  0  0  0  0  0  0  0  0  0  0  0
   -0.7500   -1.2990    0.0000 C   0  0  0  0  0  0  0  0  0  0  0  0
   -1.5000    0.0000    0.0000 C   0  0  0  0  0  0  0  0  0  0  0  0
   -0.7500    1.2990    0.0000 C   0  0  0  0  0  0  0  0  0  0  0  0
    0.7500    1.2990    0.0000 C   0  0  0  0  0  0  0  0  0  0  0  0
  1  2  1  0
  2  3  1  0
  3  4  2  0
  4  5  1  0
  5  6  2  0
  6  7  1  0
  7  8  2  0
  8  3  1  0
M  END
>  <Title>  (937) 
idABICgen10

$$$$

     RDKit          2D

 65 68  0  0  0  0  0  0  0  0999 V2000
   -5.7083   -0.9784    0.0000 C   0  0  0  0  0  0  0  0  0  0  0  0
   -5.1036   -2.3511    0.0000 C   0  0  0  0  0  0  0  0  0  0  0  0
   -6.4381   -3.0360    0.0000 C   0  0  0  0  0  0  0  0  0  0  0  0
   -7.6822   -3.8740    0.0000 C   0  0  0  0  0  0  0  0  0  0  0  0
   -8.8185   -4.8532    0.0000 C   0  0  0  0  0  0  0  0  0  0  0  0
   -9.8310   -5.9600    0.0000 C   0  0  0  0  0  0  0  0  0  0  0  0
  -10.7054   -7.1787    0.0000 C   0  0  0  0  0  0  0  0  0  0  0  0
  -11.4296   -8.4923    0.0000 C   0  0  0  0  0  0  0  0  0  0  0  0
  -11.9934   -9.8823    0.0000 C   0  0  0  0  0  0  0  0  0  0  0  0
  -12.3888  -11.3293    0.0000 C   0  0  0  0  0  0  0  0  0  0  0  0
  -12.6102  -12.8129    0.0000 C   0  0  0  0  0  0  0  0  0  0  0  0
  -12.6547  -14.3122    0.0000 C   0  0  0  0  0  0  0  0  0  0  0  0
  -12.5215  -15.8063    0.0000 C   0  0  0  0  0  0  0  0  0  0  0  0
  -12.2125  -17.2741    0.0000 C   0  0  0  0  0  0  0  0  0  0  0  0
  -11.7321  -18.6951    0.0000 C   0  0  0  0  0  0  0  0  0  0  0  0
  -11.0870  -20.0493    0.0000 C   0  0  0  0  0  0  0  0  0  0  0  0
  -10.2863  -21.3177    0.0000 C   0  0  0  0  0  0  0  0  0  0  0  0
   -9.3411  -22.4825    0.0000 C   0  0  0  0  0  0  0  0  0  0  0  0
   -8.2649  -23.5273    0.0000 C   0  0  0  0  0  0  0  0  0  0  0  0
   -7.0726  -24.4375    0.0000 C   0  0  0  0  0  0  0  0  0  0  0  0
   -5.7810  -25.2003    0.0000 C   0  0  0  0  0  0  0  0  0  0  0  0
   -4.4083  -25.8050    0.0000 C   0  0  0  0  0  0  0  0  0  0  0  0
   -2.9737  -26.2431    0.0000 C   0  0  0  0  0  0  0  0  0  0  0  0
   -1.4974  -26.5084    0.0000 C   0  0  0  0  0  0  0  0  0  0  0  0
    0.0000  -26.5973    0.0000 C   0  0  0  0  0  0  0  0  0  0  0  0
    1.4974  -26.5084    0.0000 C   0  0  0  0  0  0  0  0  0  0  0  0
    2.9737  -26.2431    0.0000 C   0  0  0  0  0  0  0  0  0  0  0  0
    4.4083  -25.8050    0.0000 C   0  0  0  0  0  0  0  0  0  0  0  0
    5.7810  -25.2003    0.0000 C   0  0  0  0  0  0  0  0  0  0  0  0
    7.0726  -24.4375    0.0000 C   0  0  0  0  0  0  0  0  0  0  0  0
    8.2649  -23.5273    0.0000 C   0  0  0  0  0  0  0  0  0  0  0  0
    9.3411  -22.4825    0.0000 C   0  0  0  0  0  0  0  0  0  0  0  0
   10.2863  -21.3177    0.0000 C   0  0  0  0  0  0  0  0  0  0  0  0
   11.0870  -20.0493    0.0000 C   0  0  0  0  0  0  0  0  0  0  0  0
   11.7321  -18.6951    0.0000 C   0  0  0  0  0  0  0  0  0  0  0  0
   12.2125  -17.2741    0.0000 C   0  0  0  0  0  0  0  0  0  0  0  0
   12.5215  -15.8063    0.0000 C   0  0  0  0  0  0  0  0  0  0  0  0
   12.6547  -14.3122    0.0000 C   0  0  0  0  0  0  0  0  0  0  0  0
   12.6102  -12.8129    0.0000 C   0  0  0  0  0  0  0  0  0  0  0  0
   12.3888  -11.3293    0.0000 C   0  0  0  0  0  0  0  0  0  0  0  0
   11.9934   -9.8823    0.0000 C   0  0  0  0  0  0  0  0  0  0  0  0
   11.4296   -8.4923    0.0000 C   0  0  0  0  0  0  0  0  0  0  0  0
   10.7054   -7.1787    0.0000 C   0  0  0  0  0  0  0  0  0  0  0  0
    9.8310   -5.9600    0.0000 C   0  0  0  0  0  0  0  0  0  0  0  0
    8.8185   -4.8532    0.0000 C   0  0  0  0  0  0  0  0  0  0  0  0
    7.6822   -3.8740    0.0000 C   0  0  0  0  0  0  0  0  0  0  0  0
    6.4381   -3.0360    0.0000 C   0  0  0  0  0  0  0  0  0  0  0  0
    5.1036   -2.3511    0.0000 C   0  0  0  0  0  0  0  0  0  0  0  0
    3.6975   -1.8288    0.0000 C   0  0  0  0  0  0  0  0  0  0  0  0
    3.8130   -3.3243    0.0000 C   0  0  0  0  0  0  0  0  0  0  0  0
    2.4263   -3.8963    0.0000 C   0  0  0  0  0  0  0  0  0  0  0  0
    1.4538   -2.7542    0.0000 C   0  0  0  0  0  0  0  0  0  0  0  0
    2.2395   -1.4764    0.0000 C   0  0  0  0  0  0  0  0  0  0  0  0
    0.7500   -1.2990    0.0000 C   0  0  0  0  0  0  0  0  0  0  0  0
    1.5000    0.0000    0.0000 C   0  0  0  0  0  0  0  0  0  0  0  0
    0.7500    1.2990    0.0000 C   0  0  0  0  0  0  0  0  0  0  0  0
   -0.7500    1.2990    0.0000 C   0  0  0  0  0  0  0  0  0  0  0  0
   -1.5000    0.0000    0.0000 C   0  0  0  0  0  0  0  0  0  0  0  0
   -0.7500   -1.2990    0.0000 C   0  0  0  0  0  0  0  0  0  0  0  0
   -2.2395   -1.4764    0.0000 C   0  0  0  0  0  0  0  0  0  0  0  0
   -1.2053   -2.5630    0.0000 C   0  0  0  0  0  0  0  0  0  0  0  0
   -1.6292   -4.0018    0.0000 C   0  0  0  0  0  0  0  0  0  0  0  0
   -3.0873   -4.3542    0.0000 C   0  0  0  0  0  0  0  0  0  0  0  0
   -4.1214   -3.2676    0.0000 C   0  0  0  0  0  0  0  0  0  0  0  0
   -3.6975   -1.8288    0.0000 C   0  0  0  0  0  0  0  0  0  0  0  0
  1  2  1  0
  2  3  2  0
  3  4  1  0
  4  5  2  0
  5  6  1  0
  6  7  2  0
  7  8  1  0
  8  9  2  0
  9 10  1  0
 10 11  2  0
 11 12  1  0
 12 13  2  0
 13 14  1  0
 14 15  2  0
 15 16  1  0
 16 17  2  0
 17 18  1  0
 18 19  2  0
 19 20  1  0
 20 21  2  0
 21 22  1  0
 22 23  2  0
 23 24  1  0
 24 25  2  0
 25 26  1  0
 26 27  2  0
 27 28  1  0
 28 29  2  0
 29 30  1  0
 30 31  2  0
 31 32  1  0
 32 33  2  0
 33 34  1  0
 34 35  2  0
 35 36  1  0
 36 37  2  0
 37 38  1  0
 38 39  2  0
 39 40  1  0
 40 41  2  0
 41 42  1  0
 42 43  2  0
 43 44  1  0
 44 45  2  0
 45 46  1  0
 46 47  2  0
 47 48  1  0
 48 49  2  0
 49 50  1  0
 50 51  2  0
 51 52  1  0
 52 53  2  0
 53 54  1  0
 54 55  2  0
 55 56  1  0
 56 57  2  0
 57 58  1  0
 58 59  2  0
 59 60  1  0
 60 61  2  0
 61 62  1  0
 62 63  2  0
 63 64  1  0
 64 65  2  0
 65  2  1  0
 53 49  1  0
 59 54  1  0
 65 60  1  0
M  END
>  <Title>  (938) 
idABIDgen10

$$$$

     RDKit          2D

 12 12  0  0  0  0  0  0  0  0999 V2000
   10.2760   -0.0000    0.0000 C   0  0  0  0  0  0  0  0  0  0  0  0
    8.7760   -0.0000    0.0000 C   0  0  0  0  0  0  0  0  0  0  0  0
    7.2760   -0.0000    0.0000 C   0  0  0  0  0  0  0  0  0  0  0  0
    5.7760   -0.0000    0.0000 C   0  0  0  0  0  0  0  0  0  0  0  0
    4.2760   -0.0000    0.0000 C   0  0  0  0  0  0  0  0  0  0  0  0
    2.7760    0.0000    0.0000 C   0  0  0  0  0  0  0  0  0  0  0  0
    1.2760    0.0000    0.0000 C   0  0  0  0  0  0  0  0  0  0  0  0
    0.3943    1.2135    0.0000 C   0  0  0  0  0  0  0  0  0  0  0  0
   -1.0323    0.7500    0.0000 C   0  0  0  0  0  0  0  0  0  0  0  0
   -1.0323   -0.7500    0.0000 C   0  0  0  0  0  0  0  0  0  0  0  0
   -2.2458   -1.6317    0.0000 C   0  0  0  0  0  0  0  0  0  0  0  0
    0.3943   -1.2135    0.0000 C   0  0  0  0  0  0  0  0  0  0  0  0
  1  2  3  0
  2  3  1  0
  3  4  3  0
  4  5  1  0
  5  6  3  0
  6  7  1  0
  7  8  2  0
  8  9  1  0
  9 10  2  0
 10 11  1  0
 10 12  1  0
 12  7  1  0
M  END
>  <Title>  (939) 
idABIEgen10

$$$$

     RDKit          2D

 10 10  0  0  0  0  0  0  0  0999 V2000
    4.5000    0.0000    0.0000 C   0  0  0  0  0  0  0  0  0  0  0  0
    3.0000    0.0000    0.0000 C   0  0  0  0  0  0  0  0  0  0  0  0
    1.5000    0.0000    0.0000 C   0  0  0  0  0  0  0  0  0  0  0  0
    0.7500   -1.2990    0.0000 C   0  0  0  0  0  0  0  0  0  0  0  0
   -0.7500   -1.2990    0.0000 C   0  0  0  0  0  0  0  0  0  0  0  0
   -1.5000    0.0000    0.0000 C   0  0  0  0  0  0  0  0  0  0  0  0
   -3.0000    0.0000    0.0000 C   0  0  0  0  0  0  0  0  0  0  0  0
   -0.7500    1.2990    0.0000 C   0  0  0  0  0  0  0  0  0  0  0  0
   -1.5000    2.5981    0.0000 C   0  0  0  0  0  0  0  0  0  0  0  0
    0.7500    1.2990    0.0000 N   0  0  0  0  0  0  0  0  0  0  0  0
  1  2  3  0
  2  3  1  0
  3  4  1  0
  4  5  2  0
  5  6  1  0
  6  7  1  0
  6  8  2  0
  8  9  1  0
  8 10  1  0
 10  3  1  0
M  END
>  <Title>  (940) 
idABIFgen10

$$$$

     RDKit          2D

 67 67  0  0  0  0  0  0  0  0999 V2000
   16.0009    0.0000    0.0000 C   0  0  0  0  0  0  0  0  0  0  0  0
   15.9306    1.4984    0.0000 C   0  0  0  0  0  0  0  0  0  0  0  0
   15.7203    2.9835    0.0000 C   0  0  0  0  0  0  0  0  0  0  0  0
   15.3719    4.4425    0.0000 C   0  0  0  0  0  0  0  0  0  0  0  0
   14.8883    5.8624    0.0000 C   0  0  0  0  0  0  0  0  0  0  0  0
   14.2739    7.2308    0.0000 C   0  0  0  0  0  0  0  0  0  0  0  0
   13.5341    8.5357    0.0000 C   0  0  0  0  0  0  0  0  0  0  0  0
   12.6753    9.7655    0.0000 C   0  0  0  0  0  0  0  0  0  0  0  0
   11.7052   10.9096    0.0000 C   0  0  0  0  0  0  0  0  0  0  0  0
   10.6322   11.9577    0.0000 C   0  0  0  0  0  0  0  0  0  0  0  0
    9.4657   12.9008    0.0000 C   0  0  0  0  0  0  0  0  0  0  0  0
    8.2161   13.7305    0.0000 C   0  0  0  0  0  0  0  0  0  0  0  0
    6.8942   14.4395    0.0000 C   0  0  0  0  0  0  0  0  0  0  0  0
    5.5118   15.0217    0.0000 C   0  0  0  0  0  0  0  0  0  0  0  0
    4.0809   15.4718    0.0000 C   0  0  0  0  0  0  0  0  0  0  0  0
    2.6142   15.7859    0.0000 C   0  0  0  0  0  0  0  0  0  0  0  0
    1.1245   15.9614    0.0000 C   0  0  0  0  0  0  0  0  0  0  0  0
   -0.3751   15.9965    0.0000 C   0  0  0  0  0  0  0  0  0  0  0  0
   -1.8714   15.8911    0.0000 C   0  0  0  0  0  0  0  0  0  0  0  0
   -3.3512   15.6461    0.0000 C   0  0  0  0  0  0  0  0  0  0  0  0
   -4.8016   15.2635    0.0000 C   0  0  0  0  0  0  0  0  0  0  0  0
   -6.2098   14.7468    0.0000 C   0  0  0  0  0  0  0  0  0  0  0  0
   -7.5635   14.1005    0.0000 C   0  0  0  0  0  0  0  0  0  0  0  0
   -8.8506   13.3303    0.0000 C   0  0  0  0  0  0  0  0  0  0  0  0
  -10.0600   12.4429    0.0000 C   0  0  0  0  0  0  0  0  0  0  0  0
  -11.1810   11.4462    0.0000 C   0  0  0  0  0  0  0  0  0  0  0  0
  -12.2037   10.3489    0.0000 C   0  0  0  0  0  0  0  0  0  0  0  0
  -13.1191    9.1607    0.0000 C   0  0  0  0  0  0  0  0  0  0  0  0
  -13.9193    7.8919    0.0000 C   0  0  0  0  0  0  0  0  0  0  0  0
  -14.5972    6.5538    0.0000 C   0  0  0  0  0  0  0  0  0  0  0  0
  -15.1467    5.1581    0.0000 C   0  0  0  0  0  0  0  0  0  0  0  0
  -15.5632    3.7171    0.0000 C   0  0  0  0  0  0  0  0  0  0  0  0
  -15.8429    2.2434    0.0000 C   0  0  0  0  0  0  0  0  0  0  0  0
  -15.9833    0.7500    0.0000 C   0  0  0  0  0  0  0  0  0  0  0  0
  -15.9833   -0.7500    0.0000 C   0  0  0  0  0  0  0  0  0  0  0  0
  -15.8429   -2.2434    0.0000 C   0  0  0  0  0  0  0  0  0  0  0  0
  -15.5632   -3.7171    0.0000 C   0  0  0  0  0  0  0  0  0  0  0  0
  -15.1467   -5.1581    0.0000 C   0  0  0  0  0  0  0  0  0  0  0  0
  -14.5972   -6.5538    0.0000 C   0  0  0  0  0  0  0  0  0  0  0  0
  -13.9193   -7.8919    0.0000 C   0  0  0  0  0  0  0  0  0  0  0  0
  -13.1191   -9.1607    0.0000 C   0  0  0  0  0  0  0  0  0  0  0  0
  -12.2037  -10.3489    0.0000 C   0  0  0  0  0  0  0  0  0  0  0  0
  -11.1810  -11.4462    0.0000 C   0  0  0  0  0  0  0  0  0  0  0  0
  -10.0600  -12.4429    0.0000 C   0  0  0  0  0  0  0  0  0  0  0  0
   -8.8506  -13.3303    0.0000 C   0  0  0  0  0  0  0  0  0  0  0  0
   -7.5635  -14.1005    0.0000 C   0  0  0  0  0  0  0  0  0  0  0  0
   -6.2098  -14.7468    0.0000 C   0  0  0  0  0  0  0  0  0  0  0  0
   -4.8016  -15.2635    0.0000 C   0  0  0  0  0  0  0  0  0  0  0  0
   -3.3512  -15.6461    0.0000 C   0  0  0  0  0  0  0  0  0  0  0  0
   -1.8714  -15.8911    0.0000 C   0  0  0  0  0  0  0  0  0  0  0  0
   -0.3751  -15.9965    0.0000 C   0  0  0  0  0  0  0  0  0  0  0  0
    1.1245  -15.9614    0.0000 C   0  0  0  0  0  0  0  0  0  0  0  0
    2.6142  -15.7859    0.0000 C   0  0  0  0  0  0  0  0  0  0  0  0
    4.0809  -15.4718    0.0000 C   0  0  0  0  0  0  0  0  0  0  0  0
    5.5118  -15.0217    0.0000 C   0  0  0  0  0  0  0  0  0  0  0  0
    6.8942  -14.4395    0.0000 C   0  0  0  0  0  0  0  0  0  0  0  0
    8.2161  -13.7305    0.0000 C   0  0  0  0  0  0  0  0  0  0  0  0
    9.4657  -12.9008    0.0000 C   0  0  0  0  0  0  0  0  0  0  0  0
   10.6322  -11.9577    0.0000 C   0  0  0  0  0  0  0  0  0  0  0  0
   11.7052  -10.9096    0.0000 C   0  0  0  0  0  0  0  0  0  0  0  0
   12.6753   -9.7655    0.0000 C   0  0  0  0  0  0  0  0  0  0  0  0
   13.5341   -8.5357    0.0000 C   0  0  0  0  0  0  0  0  0  0  0  0
   14.2739   -7.2308    0.0000 C   0  0  0  0  0  0  0  0  0  0  0  0
   14.8883   -5.8624    0.0000 C   0  0  0  0  0  0  0  0  0  0  0  0
   15.3719   -4.4425    0.0000 C   0  0  0  0  0  0  0  0  0  0  0  0
   15.7203   -2.9835    0.0000 C   0  0  0  0  0  0  0  0  0  0  0  0
   15.9306   -1.4984    0.0000 C   0  0  0  0  0  0  0  0  0  0  0  0
  1  2  2  0
  2  3  1  0
  3  4  1  0
  4  5  1  0
  5  6  1  0
  6  7  1  0
  7  8  1  0
  8  9  1  0
  9 10  1  0
 10 11  1  0
 11 12  1  0
 12 13  1  0
 13 14  1  0
 14 15  1  0
 15 16  1  0
 16 17  1  0
 17 18  1  0
 18 19  1  0
 19 20  1  0
 20 21  1  0
 21 22  1  0
 22 23  1  0
 23 24  1  0
 24 25  1  0
 25 26  1  0
 26 27  1  0
 27 28  1  0
 28 29  1  0
 29 30  1  0
 30 31  1  0
 31 32  1  0
 32 33  1  0
 33 34  1  0
 34 35  1  0
 35 36  1  0
 36 37  1  0
 37 38  1  0
 38 39  1  0
 39 40  1  0
 40 41  1  0
 41 42  1  0
 42 43  1  0
 43 44  1  0
 44 45  1  0
 45 46  1  0
 46 47  1  0
 47 48  1  0
 48 49  1  0
 49 50  1  0
 50 51  1  0
 51 52  1  0
 52 53  1  0
 53 54  1  0
 54 55  1  0
 55 56  1  0
 56 57  1  0
 57 58  1  0
 58 59  1  0
 59 60  1  0
 60 61  1  0
 61 62  1  0
 62 63  1  0
 63 64  1  0
 64 65  1  0
 65 66  1  0
 66 67  1  0
 67  1  1  0
M  END
>  <Title>  (941) 
idABIGgen10

$$$$

     RDKit          2D

  8  8  0  0  0  0  0  0  0  0999 V2000
    3.7500   -1.2990    0.0000 C   0  0  0  0  0  0  0  0  0  0  0  0
    3.0000    0.0000    0.0000 C   0  0  0  0  0  0  0  0  0  0  0  0
    1.5000    0.0000    0.0000 C   0  0  0  0  0  0  0  0  0  0  0  0
    0.7500   -1.2990    0.0000 C   0  0  0  0  0  0  0  0  0  0  0  0
   -0.7500   -1.2990    0.0000 C   0  0  0  0  0  0  0  0  0  0  0  0
   -1.5000    0.0000    0.0000 C   0  0  0  0  0  0  0  0  0  0  0  0
   -0.7500    1.2990    0.0000 C   0  0  0  0  0  0  0  0  0  0  0  0
    0.7500    1.2990    0.0000 N   0  0  0  0  0  0  0  0  0  0  0  0
  1  2  1  0
  2  3  1  0
  3  4  2  0
  4  5  1  0
  5  6  2  0
  6  7  1  0
  7  8  2  0
  8  3  1  0
M  END
>  <Title>  (942) 
idABIHgen10

$$$$

     RDKit          2D

 79 79  0  0  0  0  0  0  0  0999 V2000
   20.1262    0.0000    0.0000 O   0  0  0  0  0  0  0  0  0  0  0  0
   18.6262    0.0000    0.0000 C   0  0  0  0  0  0  0  0  0  0  0  0
   18.5658   -1.4988    0.0000 C   0  0  0  0  0  0  0  0  0  0  0  0
   18.3850   -2.9878    0.0000 C   0  0  0  0  0  0  0  0  0  0  0  0
   18.0849   -4.4575    0.0000 C   0  0  0  0  0  0  0  0  0  0  0  0
   17.6676   -5.8983    0.0000 C   0  0  0  0  0  0  0  0  0  0  0  0
   17.1357   -7.3008    0.0000 C   0  0  0  0  0  0  0  0  0  0  0  0
   16.4926   -8.6560    0.0000 C   0  0  0  0  0  0  0  0  0  0  0  0
   15.7426   -9.9550    0.0000 C   0  0  0  0  0  0  0  0  0  0  0  0
   14.8906  -11.1895    0.0000 C   0  0  0  0  0  0  0  0  0  0  0  0
   13.9419  -12.3514    0.0000 C   0  0  0  0  0  0  0  0  0  0  0  0
   12.9028  -13.4332    0.0000 C   0  0  0  0  0  0  0  0  0  0  0  0
   11.7800  -14.4279    0.0000 C   0  0  0  0  0  0  0  0  0  0  0  0
   10.5809  -15.3290    0.0000 C   0  0  0  0  0  0  0  0  0  0  0  0
    9.3131  -16.1307    0.0000 C   0  0  0  0  0  0  0  0  0  0  0  0
    7.9849  -16.8278    0.0000 C   0  0  0  0  0  0  0  0  0  0  0  0
    6.6049  -17.4158    0.0000 C   0  0  0  0  0  0  0  0  0  0  0  0
    5.1821  -17.8908    0.0000 C   0  0  0  0  0  0  0  0  0  0  0  0
    3.7257  -18.2497    0.0000 C   0  0  0  0  0  0  0  0  0  0  0  0
    2.2451  -18.4904    0.0000 C   0  0  0  0  0  0  0  0  0  0  0  0
    0.7500  -18.6111    0.0000 C   0  0  0  0  0  0  0  0  0  0  0  0
   -0.7500  -18.6111    0.0000 C   0  0  0  0  0  0  0  0  0  0  0  0
   -2.2451  -18.4904    0.0000 C   0  0  0  0  0  0  0  0  0  0  0  0
   -3.7257  -18.2497    0.0000 C   0  0  0  0  0  0  0  0  0  0  0  0
   -5.1821  -17.8908    0.0000 C   0  0  0  0  0  0  0  0  0  0  0  0
   -6.6049  -17.4158    0.0000 C   0  0  0  0  0  0  0  0  0  0  0  0
   -7.9849  -16.8278    0.0000 C   0  0  0  0  0  0  0  0  0  0  0  0
   -9.3131  -16.1307    0.0000 C   0  0  0  0  0  0  0  0  0  0  0  0
  -10.5809  -15.3290    0.0000 C   0  0  0  0  0  0  0  0  0  0  0  0
  -11.7800  -14.4279    0.0000 C   0  0  0  0  0  0  0  0  0  0  0  0
  -12.9028  -13.4332    0.0000 C   0  0  0  0  0  0  0  0  0  0  0  0
  -13.9419  -12.3514    0.0000 C   0  0  0  0  0  0  0  0  0  0  0  0
  -14.8906  -11.1895    0.0000 C   0  0  0  0  0  0  0  0  0  0  0  0
  -15.7426   -9.9550    0.0000 C   0  0  0  0  0  0  0  0  0  0  0  0
  -16.4926   -8.6560    0.0000 C   0  0  0  0  0  0  0  0  0  0  0  0
  -17.1357   -7.3008    0.0000 C   0  0  0  0  0  0  0  0  0  0  0  0
  -17.6676   -5.8983    0.0000 C   0  0  0  0  0  0  0  0  0  0  0  0
  -18.0849   -4.4575    0.0000 C   0  0  0  0  0  0  0  0  0  0  0  0
  -18.3850   -2.9878    0.0000 C   0  0  0  0  0  0  0  0  0  0  0  0
  -18.5658   -1.4988    0.0000 C   0  0  0  0  0  0  0  0  0  0  0  0
  -18.6262    0.0000    0.0000 C   0  0  0  0  0  0  0  0  0  0  0  0
  -18.5658    1.4988    0.0000 C   0  0  0  0  0  0  0  0  0  0  0  0
  -18.3850    2.9878    0.0000 C   0  0  0  0  0  0  0  0  0  0  0  0
  -18.0849    4.4575    0.0000 C   0  0  0  0  0  0  0  0  0  0  0  0
  -17.6676    5.8983    0.0000 C   0  0  0  0  0  0  0  0  0  0  0  0
  -17.1357    7.3008    0.0000 C   0  0  0  0  0  0  0  0  0  0  0  0
  -16.4926    8.6560    0.0000 C   0  0  0  0  0  0  0  0  0  0  0  0
  -15.7426    9.9550    0.0000 C   0  0  0  0  0  0  0  0  0  0  0  0
  -14.8906   11.1895    0.0000 C   0  0  0  0  0  0  0  0  0  0  0  0
  -13.9419   12.3514    0.0000 C   0  0  0  0  0  0  0  0  0  0  0  0
  -12.9028   13.4332    0.0000 C   0  0  0  0  0  0  0  0  0  0  0  0
  -11.7800   14.4279    0.0000 C   0  0  0  0  0  0  0  0  0  0  0  0
  -10.5809   15.3290    0.0000 C   0  0  0  0  0  0  0  0  0  0  0  0
   -9.3131   16.1307    0.0000 C   0  0  0  0  0  0  0  0  0  0  0  0
   -7.9849   16.8278    0.0000 C   0  0  0  0  0  0  0  0  0  0  0  0
   -6.6049   17.4158    0.0000 C   0  0  0  0  0  0  0  0  0  0  0  0
   -5.1821   17.8908    0.0000 C   0  0  0  0  0  0  0  0  0  0  0  0
   -3.7257   18.2497    0.0000 C   0  0  0  0  0  0  0  0  0  0  0  0
   -2.2451   18.4904    0.0000 C   0  0  0  0  0  0  0  0  0  0  0  0
   -0.7500   18.6111    0.0000 C   0  0  0  0  0  0  0  0  0  0  0  0
    0.7500   18.6111    0.0000 C   0  0  0  0  0  0  0  0  0  0  0  0
    2.2451   18.4904    0.0000 C   0  0  0  0  0  0  0  0  0  0  0  0
    3.7257   18.2497    0.0000 C   0  0  0  0  0  0  0  0  0  0  0  0
    5.1821   17.8908    0.0000 C   0  0  0  0  0  0  0  0  0  0  0  0
    6.6049   17.4158    0.0000 C   0  0  0  0  0  0  0  0  0  0  0  0
    7.9849   16.8278    0.0000 C   0  0  0  0  0  0  0  0  0  0  0  0
    9.3131   16.1307    0.0000 C   0  0  0  0  0  0  0  0  0  0  0  0
   10.5809   15.3290    0.0000 C   0  0  0  0  0  0  0  0  0  0  0  0
   11.7800   14.4279    0.0000 C   0  0  0  0  0  0  0  0  0  0  0  0
   12.9028   13.4332    0.0000 C   0  0  0  0  0  0  0  0  0  0  0  0
   13.9419   12.3514    0.0000 C   0  0  0  0  0  0  0  0  0  0  0  0
   14.8906   11.1895    0.0000 C   0  0  0  0  0  0  0  0  0  0  0  0
   15.7426    9.9550    0.0000 C   0  0  0  0  0  0  0  0  0  0  0  0
   16.4926    8.6560    0.0000 C   0  0  0  0  0  0  0  0  0  0  0  0
   17.1357    7.3008    0.0000 C   0  0  0  0  0  0  0  0  0  0  0  0
   17.6676    5.8983    0.0000 C   0  0  0  0  0  0  0  0  0  0  0  0
   18.0849    4.4575    0.0000 C   0  0  0  0  0  0  0  0  0  0  0  0
   18.3850    2.9878    0.0000 C   0  0  0  0  0  0  0  0  0  0  0  0
   18.5658    1.4988    0.0000 C   0  0  0  0  0  0  0  0  0  0  0  0
  1  2  1  0
  2  3  1  0
  3  4  2  0
  4  5  1  0
  5  6  1  0
  6  7  1  0
  7  8  1  0
  8  9  1  0
  9 10  1  0
 10 11  1  0
 11 12  1  0
 12 13  1  0
 13 14  1  0
 14 15  1  0
 15 16  1  0
 16 17  1  0
 17 18  1  0
 18 19  1  0
 19 20  1  0
 20 21  1  0
 21 22  1  0
 22 23  1  0
 23 24  1  0
 24 25  1  0
 25 26  1  0
 26 27  1  0
 27 28  1  0
 28 29  1  0
 29 30  1  0
 30 31  1  0
 31 32  1  0
 32 33  1  0
 33 34  1  0
 34 35  1  0
 35 36  1  0
 36 37  1  0
 37 38  1  0
 38 39  1  0
 39 40  1  0
 40 41  1  0
 41 42  1  0
 42 43  1  0
 43 44  1  0
 44 45  1  0
 45 46  1  0
 46 47  1  0
 47 48  1  0
 48 49  1  0
 49 50  1  0
 50 51  1  0
 51 52  1  0
 52 53  1  0
 53 54  1  0
 54 55  1  0
 55 56  1  0
 56 57  1  0
 57 58  1  0
 58 59  1  0
 59 60  1  0
 60 61  1  0
 61 62  1  0
 62 63  1  0
 63 64  1  0
 64 65  1  0
 65 66  1  0
 66 67  1  0
 67 68  1  0
 68 69  1  0
 69 70  1  0
 70 71  1  0
 71 72  1  0
 72 73  1  0
 73 74  1  0
 74 75  1  0
 75 76  1  0
 76 77  1  0
 77 78  1  0
 78 79  1  0
 79  2  1  0
M  END
>  <Title>  (943) 
idABIIgen10

$$$$

     RDKit          2D

 13 13  0  0  0  0  0  0  0  0999 V2000
    6.0000   -5.1962    0.0000 C   0  0  0  0  0  0  0  0  0  0  0  0
    5.2500   -3.8971    0.0000 C   0  0  0  0  0  0  0  0  0  0  0  0
    4.5000   -2.5981    0.0000 C   0  0  0  0  0  0  0  0  0  0  0  0
    3.7500   -1.2990    0.0000 C   0  0  0  0  0  0  0  0  0  0  0  0
    3.0000    0.0000    0.0000 C   0  0  0  0  0  0  0  0  0  0  0  0
    1.5000    0.0000    0.0000 C   0  0  0  0  0  0  0  0  0  0  0  0
    0.7500   -1.2990    0.0000 C   0  0  0  0  0  0  0  0  0  0  0  0
   -0.7500   -1.2990    0.0000 C   0  0  0  0  0  0  0  0  0  0  0  0
   -1.5000    0.0000    0.0000 C   0  0  0  0  0  0  0  0  0  0  0  0
   -3.0000    0.0000    0.0000 C   0  0  0  0  0  0  0  0  0  0  0  0
   -4.5000    0.0000    0.0000 C   0  0  0  0  0  0  0  0  0  0  0  0
   -0.7500    1.2990    0.0000 C   0  0  0  0  0  0  0  0  0  0  0  0
    0.7500    1.2990    0.0000 C   0  0  0  0  0  0  0  0  0  0  0  0
  1  2  3  0
  2  3  1  0
  3  4  3  0
  4  5  1  0
  5  6  1  0
  6  7  2  0
  7  8  1  0
  8  9  2  0
  9 10  1  0
 10 11  3  0
  9 12  1  0
 12 13  2  0
 13  6  1  0
M  END
>  <Title>  (944) 
idABIJgen10

$$$$

     RDKit          2D

 20 21  0  0  0  0  0  0  0  0999 V2000
    6.5472    5.7028    0.0000 C   0  0  0  0  0  0  0  0  0  0  0  0
    5.2627    4.9282    0.0000 C   0  0  0  0  0  0  0  0  0  0  0  0
    5.6024    3.4672    0.0000 N   0  0  0  0  0  0  0  0  0  0  0  0
    5.0185    2.0855    0.0000 N   0  0  0  0  0  0  0  0  0  0  0  0
    3.7340    1.3109    0.0000 N   0  0  0  0  0  0  0  0  0  0  0  0
    2.2395    1.4392    0.0000 N   0  0  0  0  0  0  0  0  0  0  0  0
    2.6621    0.0000    0.0000 C   0  0  0  0  0  0  0  0  0  0  0  0
    2.2395   -1.4392    0.0000 C   0  0  0  0  0  0  0  0  0  0  0  0
    1.1059   -2.4215    0.0000 C   0  0  0  0  0  0  0  0  0  0  0  0
   -0.3789   -2.6350    0.0000 C   0  0  0  0  0  0  0  0  0  0  0  0
   -1.7433   -2.0119    0.0000 C   0  0  0  0  0  0  0  0  0  0  0  0
   -2.5543   -0.7500    0.0000 C   0  0  0  0  0  0  0  0  0  0  0  0
   -2.5543    0.7500    0.0000 C   0  0  0  0  0  0  0  0  0  0  0  0
   -1.7433    2.0119    0.0000 C   0  0  0  0  0  0  0  0  0  0  0  0
   -0.3789    2.6350    0.0000 C   0  0  0  0  0  0  0  0  0  0  0  0
    1.1059    2.4215    0.0000 C   0  0  0  0  0  0  0  0  0  0  0  0
    0.7661    3.8825    0.0000 C   0  0  0  0  0  0  0  0  0  0  0  0
    1.3500    5.2642    0.0000 C   0  0  0  0  0  0  0  0  0  0  0  0
    2.6346    6.0388    0.0000 C   0  0  0  0  0  0  0  0  0  0  0  0
    4.1291    5.9105    0.0000 C   0  0  0  0  0  0  0  0  0  0  0  0
  1  2  1  0
  2  3  2  0
  3  4  1  0
  4  5  2  0
  5  6  1  0
  6  7  1  0
  7  8  1  0
  8  9  2  0
  9 10  1  0
 10 11  2  0
 11 12  1  0
 12 13  2  0
 13 14  1  0
 14 15  2  0
 15 16  1  0
 16 17  2  0
 17 18  1  0
 18 19  2  0
 19 20  1  0
 20  2  1  0
 16  6  1  0
M  END
>  <Title>  (945) 
idABIKgen10

$$$$

     RDKit          2D

 68 70  0  0  0  0  0  0  0  0999 V2000
   -2.4764    0.0257    0.0000 C   0  0  0  0  0  0  0  0  0  0  0  0
   -2.2418   -1.4558    0.0000 C   0  0  0  0  0  0  0  0  0  0  0  0
   -3.7090   -1.7677    0.0000 C   0  0  0  0  0  0  0  0  0  0  0  0
   -5.1356   -2.2312    0.0000 C   0  0  0  0  0  0  0  0  0  0  0  0
   -6.5059   -2.8413    0.0000 C   0  0  0  0  0  0  0  0  0  0  0  0
   -7.8049   -3.5913    0.0000 C   0  0  0  0  0  0  0  0  0  0  0  0
   -9.0185   -4.4730    0.0000 C   0  0  0  0  0  0  0  0  0  0  0  0
  -10.1332   -5.4767    0.0000 C   0  0  0  0  0  0  0  0  0  0  0  0
  -11.1369   -6.5914    0.0000 C   0  0  0  0  0  0  0  0  0  0  0  0
  -12.0186   -7.8049    0.0000 C   0  0  0  0  0  0  0  0  0  0  0  0
  -12.7686   -9.1040    0.0000 C   0  0  0  0  0  0  0  0  0  0  0  0
  -13.3787  -10.4743    0.0000 C   0  0  0  0  0  0  0  0  0  0  0  0
  -13.8422  -11.9009    0.0000 C   0  0  0  0  0  0  0  0  0  0  0  0
  -14.1541  -13.3681    0.0000 C   0  0  0  0  0  0  0  0  0  0  0  0
  -14.3109  -14.8599    0.0000 C   0  0  0  0  0  0  0  0  0  0  0  0
  -14.3109  -16.3599    0.0000 C   0  0  0  0  0  0  0  0  0  0  0  0
  -14.1541  -17.8517    0.0000 C   0  0  0  0  0  0  0  0  0  0  0  0
  -13.8422  -19.3189    0.0000 C   0  0  0  0  0  0  0  0  0  0  0  0
  -13.3787  -20.7455    0.0000 C   0  0  0  0  0  0  0  0  0  0  0  0
  -12.7686  -22.1158    0.0000 C   0  0  0  0  0  0  0  0  0  0  0  0
  -12.0186  -23.4148    0.0000 C   0  0  0  0  0  0  0  0  0  0  0  0
  -11.1369  -24.6284    0.0000 C   0  0  0  0  0  0  0  0  0  0  0  0
  -10.1332  -25.7431    0.0000 C   0  0  0  0  0  0  0  0  0  0  0  0
   -9.0185  -26.7468    0.0000 C   0  0  0  0  0  0  0  0  0  0  0  0
   -7.8049  -27.6285    0.0000 C   0  0  0  0  0  0  0  0  0  0  0  0
   -6.5059  -28.3785    0.0000 C   0  0  0  0  0  0  0  0  0  0  0  0
   -5.1356  -28.9886    0.0000 C   0  0  0  0  0  0  0  0  0  0  0  0
   -3.7090  -29.4521    0.0000 C   0  0  0  0  0  0  0  0  0  0  0  0
   -2.2418  -29.7640    0.0000 C   0  0  0  0  0  0  0  0  0  0  0  0
   -0.7500  -29.9207    0.0000 C   0  0  0  0  0  0  0  0  0  0  0  0
    0.7500  -29.9207    0.0000 C   0  0  0  0  0  0  0  0  0  0  0  0
    2.2418  -29.7640    0.0000 C   0  0  0  0  0  0  0  0  0  0  0  0
    3.7090  -29.4521    0.0000 C   0  0  0  0  0  0  0  0  0  0  0  0
    5.1356  -28.9886    0.0000 C   0  0  0  0  0  0  0  0  0  0  0  0
    6.5059  -28.3785    0.0000 C   0  0  0  0  0  0  0  0  0  0  0  0
    7.8049  -27.6285    0.0000 C   0  0  0  0  0  0  0  0  0  0  0  0
    9.0185  -26.7468    0.0000 C   0  0  0  0  0  0  0  0  0  0  0  0
   10.1332  -25.7431    0.0000 C   0  0  0  0  0  0  0  0  0  0  0  0
   11.1369  -24.6284    0.0000 C   0  0  0  0  0  0  0  0  0  0  0  0
   12.0186  -23.4148    0.0000 C   0  0  0  0  0  0  0  0  0  0  0  0
   12.7686  -22.1158    0.0000 C   0  0  0  0  0  0  0  0  0  0  0  0
   13.3787  -20.7455    0.0000 C   0  0  0  0  0  0  0  0  0  0  0  0
   13.8422  -19.3189    0.0000 C   0  0  0  0  0  0  0  0  0  0  0  0
   14.1541  -17.8517    0.0000 C   0  0  0  0  0  0  0  0  0  0  0  0
   14.3109  -16.3599    0.0000 C   0  0  0  0  0  0  0  0  0  0  0  0
   14.3109  -14.8599    0.0000 C   0  0  0  0  0  0  0  0  0  0  0  0
   14.1541  -13.3681    0.0000 C   0  0  0  0  0  0  0  0  0  0  0  0
   13.8422  -11.9009    0.0000 C   0  0  0  0  0  0  0  0  0  0  0  0
   13.3787  -10.4743    0.0000 C   0  0  0  0  0  0  0  0  0  0  0  0
   12.7686   -9.1040    0.0000 C   0  0  0  0  0  0  0  0  0  0  0  0
   12.0186   -7.8049    0.0000 C   0  0  0  0  0  0  0  0  0  0  0  0
   11.1369   -6.5914    0.0000 C   0  0  0  0  0  0  0  0  0  0  0  0
   10.1332   -5.4767    0.0000 C   0  0  0  0  0  0  0  0  0  0  0  0
    9.0185   -4.4730    0.0000 C   0  0  0  0  0  0  0  0  0  0  0  0
    7.8049   -3.5913    0.0000 C   0  0  0  0  0  0  0  0  0  0  0  0
    6.5059   -2.8413    0.0000 C   0  0  0  0  0  0  0  0  0  0  0  0
    5.1356   -2.2312    0.0000 C   0  0  0  0  0  0  0  0  0  0  0  0
    3.7090   -1.7677    0.0000 C   0  0  0  0  0  0  0  0  0  0  0  0
    3.8658   -3.2595    0.0000 C   0  0  0  0  0  0  0  0  0  0  0  0
    2.4955   -3.8696    0.0000 C   0  0  0  0  0  0  0  0  0  0  0  0
    1.4918   -2.7549    0.0000 C   0  0  0  0  0  0  0  0  0  0  0  0
    2.2418   -1.4558    0.0000 C   0  0  0  0  0  0  0  0  0  0  0  0
    0.7500   -1.2990    0.0000 C   0  0  0  0  0  0  0  0  0  0  0  0
    1.5000    0.0000    0.0000 C   0  0  0  0  0  0  0  0  0  0  0  0
    0.7500    1.2990    0.0000 C   0  0  0  0  0  0  0  0  0  0  0  0
   -0.7500    1.2990    0.0000 C   0  0  0  0  0  0  0  0  0  0  0  0
   -1.5000    0.0000    0.0000 C   0  0  0  0  0  0  0  0  0  0  0  0
   -0.7500   -1.2990    0.0000 C   0  0  0  0  0  0  0  0  0  0  0  0
  1  2  1  0
  2  3  2  0
  3  4  1  0
  4  5  1  0
  5  6  2  0
  6  7  1  0
  7  8  2  0
  8  9  1  0
  9 10  2  0
 10 11  1  0
 11 12  2  0
 12 13  1  0
 13 14  2  0
 14 15  1  0
 15 16  2  0
 16 17  1  0
 17 18  2  0
 18 19  1  0
 19 20  2  0
 20 21  1  0
 21 22  2  0
 22 23  1  0
 23 24  2  0
 24 25  1  0
 25 26  2  0
 26 27  1  0
 27 28  2  0
 28 29  1  0
 29 30  2  0
 30 31  1  0
 31 32  2  0
 32 33  1  0
 33 34  2  0
 34 35  1  0
 35 36  2  0
 36 37  1  0
 37 38  2  0
 38 39  1  0
 39 40  2  0
 40 41  1  0
 41 42  2  0
 42 43  1  0
 43 44  2  0
 44 45  1  0
 45 46  2  0
 46 47  1  0
 47 48  2  0
 48 49  1  0
 49 50  2  0
 50 51  1  0
 51 52  2  0
 52 53  1  0
 53 54  2  0
 54 55  1  0
 55 56  2  0
 56 57  1  0
 57 58  2  0
 58 59  1  0
 59 60  2  0
 60 61  1  0
 61 62  2  0
 62 63  1  0
 63 64  2  0
 64 65  1  0
 65 66  2  0
 66 67  1  0
 67 68  2  0
 68  2  1  0
 62 58  1  0
 68 63  1  0
M  END
>  <Title>  (946) 
idABILgen10

$$$$

     RDKit          2D

 15 15  0  0  0  0  0  0  0  0999 V2000
   16.2760   -0.0000    0.0000 C   0  0  0  0  0  0  0  0  0  0  0  0
   14.7760   -0.0000    0.0000 C   0  0  0  0  0  0  0  0  0  0  0  0
   13.2760   -0.0000    0.0000 C   0  0  0  0  0  0  0  0  0  0  0  0
   11.7760   -0.0000    0.0000 C   0  0  0  0  0  0  0  0  0  0  0  0
   10.2760   -0.0000    0.0000 C   0  0  0  0  0  0  0  0  0  0  0  0
    8.7760   -0.0000    0.0000 C   0  0  0  0  0  0  0  0  0  0  0  0
    7.2760   -0.0000    0.0000 C   0  0  0  0  0  0  0  0  0  0  0  0
    5.7760   -0.0000    0.0000 C   0  0  0  0  0  0  0  0  0  0  0  0
    4.2760   -0.0000    0.0000 C   0  0  0  0  0  0  0  0  0  0  0  0
    2.7760    0.0000    0.0000 C   0  0  0  0  0  0  0  0  0  0  0  0
    1.2760    0.0000    0.0000 C   0  0  0  0  0  0  0  0  0  0  0  0
    0.3943    1.2135    0.0000 C   0  0  0  0  0  0  0  0  0  0  0  0
   -1.0323    0.7500    0.0000 C   0  0  0  0  0  0  0  0  0  0  0  0
   -1.0323   -0.7500    0.0000 C   0  0  0  0  0  0  0  0  0  0  0  0
    0.3943   -1.2135    0.0000 C   0  0  0  0  0  0  0  0  0  0  0  0
  1  2  3  0
  2  3  1  0
  3  4  3  0
  4  5  1  0
  5  6  3  0
  6  7  1  0
  7  8  3  0
  8  9  1  0
  9 10  3  0
 10 11  1  0
 11 12  2  0
 12 13  1  0
 13 14  2  0
 14 15  1  0
 15 11  1  0
M  END
>  <Title>  (947) 
idABIMgen10

$$$$

     RDKit          2D

 13 13  0  0  0  0  0  0  0  0999 V2000
    9.0000   -5.1962    0.0000 C   0  0  0  0  0  0  0  0  0  0  0  0
    8.2500   -3.8971    0.0000 C   0  0  0  0  0  0  0  0  0  0  0  0
    7.5000   -2.5981    0.0000 C   0  0  0  0  0  0  0  0  0  0  0  0
    6.0000   -2.5981    0.0000 C   0  0  0  0  0  0  0  0  0  0  0  0
    5.2500   -1.2990    0.0000 C   0  0  0  0  0  0  0  0  0  0  0  0
    3.7500   -1.2990    0.0000 C   0  0  0  0  0  0  0  0  0  0  0  0
    3.0000    0.0000    0.0000 C   0  0  0  0  0  0  0  0  0  0  0  0
    1.5000    0.0000    0.0000 C   0  0  0  0  0  0  0  0  0  0  0  0
    0.7500   -1.2990    0.0000 C   0  0  0  0  0  0  0  0  0  0  0  0
   -0.7500   -1.2990    0.0000 C   0  0  0  0  0  0  0  0  0  0  0  0
   -1.5000    0.0000    0.0000 C   0  0  0  0  0  0  0  0  0  0  0  0
   -0.7500    1.2990    0.0000 C   0  0  0  0  0  0  0  0  0  0  0  0
    0.7500    1.2990    0.0000 C   0  0  0  0  0  0  0  0  0  0  0  0
  1  2  3  0
  2  3  1  0
  3  4  1  0
  4  5  1  0
  5  6  1  0
  6  7  1  0
  7  8  1  0
  8  9  2  0
  9 10  1  0
 10 11  2  0
 11 12  1  0
 12 13  2  0
 13  8  1  0
M  END
>  <Title>  (948) 
idABINgen10

$$$$

     RDKit          2D

 15 17  0  0  0  0  0  0  0  0999 V2000
   -6.1865    0.0000    0.0000 C   0  0  0  0  0  0  0  0  0  0  0  0
   -4.6865    0.0000    0.0000 C   0  0  0  0  0  0  0  0  0  0  0  0
   -4.1734    1.4095    0.0000 C   0  0  0  0  0  0  0  0  0  0  0  0
   -2.8744    2.1595    0.0000 C   0  0  0  0  0  0  0  0  0  0  0  0
   -1.3972    1.8991    0.0000 C   0  0  0  0  0  0  0  0  0  0  0  0
   -0.4330    0.7500    0.0000 C   0  0  0  0  0  0  0  0  0  0  0  0
    0.8660    0.0000    0.0000 C   0  0  0  0  0  0  0  0  0  0  0  0
    2.3660    0.0000    0.0000 O   0  0  0  0  0  0  0  0  0  0  0  0
   -0.4330   -0.7500    0.0000 C   0  0  0  0  0  0  0  0  0  0  0  0
   -1.3972   -1.8991    0.0000 C   0  0  0  0  0  0  0  0  0  0  0  0
   -2.8744   -2.1595    0.0000 C   0  0  0  0  0  0  0  0  0  0  0  0
   -3.1349   -3.6368    0.0000 O   0  0  0  0  0  0  0  0  0  0  0  0
   -4.1734   -1.4095    0.0000 N   0  0  0  0  0  0  0  0  0  0  0  0
   -2.6962   -1.1491    0.0000 C   0  0  0  0  0  0  0  0  0  0  0  0
   -2.4358    0.3281    0.0000 O   0  0  0  0  0  0  0  0  0  0  0  0
  1  2  1  0
  2  3  2  0
  3  4  1  0
  4  5  1  0
  5  6  2  0
  6  7  1  0
  7  8  2  0
  7  9  1  0
  9 10  2  0
 10 11  1  0
 11 12  2  0
 11 13  1  0
 13 14  1  0
 14 15  2  0
 13  2  1  0
  9  6  1  0
 14 10  1  0
M  END
>  <Title>  (949) 
idABIOgen10

$$$$

     RDKit          2D

  9  9  0  0  0  0  0  0  0  0999 V2000
    4.2760   -0.0000    0.0000 C   0  0  0  0  0  0  0  0  0  0  0  0
    2.7760    0.0000    0.0000 C   0  0  0  0  0  0  0  0  0  0  0  0
    1.2760    0.0000    0.0000 C   0  0  0  0  0  0  0  0  0  0  0  0
    0.3943    1.2135    0.0000 C   0  0  0  0  0  0  0  0  0  0  0  0
   -1.0323    0.7500    0.0000 C   0  0  0  0  0  0  0  0  0  0  0  0
   -2.2458    1.6317    0.0000 C   0  0  0  0  0  0  0  0  0  0  0  0
   -1.0323   -0.7500    0.0000 C   0  0  0  0  0  0  0  0  0  0  0  0
   -2.2458   -1.6317    0.0000 C   0  0  0  0  0  0  0  0  0  0  0  0
    0.3943   -1.2135    0.0000 N   0  0  0  0  0  0  0  0  0  0  0  0
  1  2  3  0
  2  3  1  0
  3  4  2  0
  4  5  1  0
  5  6  1  0
  5  7  1  0
  7  8  1  0
  7  9  2  0
  9  3  1  0
M  END
>  <Title>  (950) 
idABIPgen10

$$$$

     RDKit          2D

 61 70  0  0  0  0  0  0  0  0999 V2000
    5.8191   -5.5525    0.0000 C   0  0  0  0  0  0  0  0  0  0  0  0
    4.3191   -5.5525    0.0000 C   0  0  0  0  0  0  0  0  0  0  0  0
    4.0586   -4.0753    0.0000 C   0  0  0  0  0  0  0  0  0  0  0  0
    3.3086   -2.7762    0.0000 C   0  0  0  0  0  0  0  0  0  0  0  0
    2.1595   -1.8121    0.0000 C   0  0  0  0  0  0  0  0  0  0  0  0
    2.9095   -0.5130    0.0000 C   0  0  0  0  0  0  0  0  0  0  0  0
    2.1595    0.7860    0.0000 O   0  0  0  0  0  0  0  0  0  0  0  0
    4.4095   -0.5130    0.0000 N   0  0  0  0  0  0  0  0  0  0  0  0
    5.1595    0.7860    0.0000 C   0  0  0  0  0  0  0  0  0  0  0  0
    4.5494    2.1563    0.0000 N   0  0  0  0  0  0  0  0  0  0  0  0
    5.6642    3.1600    0.0000 N   0  0  0  0  0  0  0  0  0  0  0  0
    6.9632    2.4100    0.0000 N   0  0  0  0  0  0  0  0  0  0  0  0
    6.6513    0.9428    0.0000 N   0  0  0  0  0  0  0  0  0  0  0  0
    7.6550   -0.1719    0.0000 C   0  0  0  0  0  0  0  0  0  0  0  0
    7.1915   -1.5985    0.0000 C   0  0  0  0  0  0  0  0  0  0  0  0
    8.1952   -2.7132    0.0000 N   0  0  0  0  0  0  0  0  0  0  0  0
    9.6624   -2.4014    0.0000 N   0  0  0  0  0  0  0  0  0  0  0  0
   10.1259   -0.9748    0.0000 N   0  0  0  0  0  0  0  0  0  0  0  0
    9.1222    0.1400    0.0000 N   0  0  0  0  0  0  0  0  0  0  0  0
    0.7500   -1.2990    0.0000 C   0  0  0  0  0  0  0  0  0  0  0  0
    1.5000    0.0000    0.0000 C   0  0  0  0  0  0  0  0  0  0  0  0
    0.7500    1.2990    0.0000 C   0  0  0  0  0  0  0  0  0  0  0  0
   -0.7500    1.2990    0.0000 C   0  0  0  0  0  0  0  0  0  0  0  0
   -1.5000    0.0000    0.0000 C   0  0  0  0  0  0  0  0  0  0  0  0
   -0.7500   -1.2990    0.0000 C   0  0  0  0  0  0  0  0  0  0  0  0
   -2.1595   -1.8121    0.0000 C   0  0  0  0  0  0  0  0  0  0  0  0
   -2.4200   -0.3349    0.0000 C   0  0  0  0  0  0  0  0  0  0  0  0
   -3.8296    0.1782    0.0000 C   0  0  0  0  0  0  0  0  0  0  0  0
   -4.9786   -0.7860    0.0000 C   0  0  0  0  0  0  0  0  0  0  0  0
   -4.7181   -2.2632    0.0000 C   0  0  0  0  0  0  0  0  0  0  0  0
   -3.3086   -2.7762    0.0000 C   0  0  0  0  0  0  0  0  0  0  0  0
   -4.0586   -4.0753    0.0000 C   0  0  0  0  0  0  0  0  0  0  0  0
   -5.2077   -3.1111    0.0000 C   0  0  0  0  0  0  0  0  0  0  0  0
   -6.6172   -3.6241    0.0000 C   0  0  0  0  0  0  0  0  0  0  0  0
   -6.8777   -5.1013    0.0000 C   0  0  0  0  0  0  0  0  0  0  0  0
   -5.7286   -6.0655    0.0000 C   0  0  0  0  0  0  0  0  0  0  0  0
   -4.3191   -5.5525    0.0000 C   0  0  0  0  0  0  0  0  0  0  0  0
   -4.0586   -7.0297    0.0000 C   0  0  0  0  0  0  0  0  0  0  0  0
   -5.5586   -7.0297    0.0000 C   0  0  0  0  0  0  0  0  0  0  0  0
   -6.3086   -8.3287    0.0000 C   0  0  0  0  0  0  0  0  0  0  0  0
   -5.5586   -9.6278    0.0000 C   0  0  0  0  0  0  0  0  0  0  0  0
   -4.0586   -9.6278    0.0000 C   0  0  0  0  0  0  0  0  0  0  0  0
   -3.3086   -8.3287    0.0000 C   0  0  0  0  0  0  0  0  0  0  0  0
   -2.1595   -9.2929    0.0000 C   0  0  0  0  0  0  0  0  0  0  0  0
   -3.3086  -10.2571    0.0000 C   0  0  0  0  0  0  0  0  0  0  0  0
   -3.0481  -11.7343    0.0000 C   0  0  0  0  0  0  0  0  0  0  0  0
   -1.6386  -12.2474    0.0000 C   0  0  0  0  0  0  0  0  0  0  0  0
   -0.4895  -11.2832    0.0000 C   0  0  0  0  0  0  0  0  0  0  0  0
   -0.7500   -9.8060    0.0000 C   0  0  0  0  0  0  0  0  0  0  0  0
    0.7500   -9.8060    0.0000 C   0  0  0  0  0  0  0  0  0  0  0  0
    0.4895  -11.2832    0.0000 C   0  0  0  0  0  0  0  0  0  0  0  0
    1.6386  -12.2474    0.0000 C   0  0  0  0  0  0  0  0  0  0  0  0
    3.0481  -11.7343    0.0000 C   0  0  0  0  0  0  0  0  0  0  0  0
    3.3086  -10.2571    0.0000 C   0  0  0  0  0  0  0  0  0  0  0  0
    2.1595   -9.2929    0.0000 C   0  0  0  0  0  0  0  0  0  0  0  0
    3.3086   -8.3287    0.0000 C   0  0  0  0  0  0  0  0  0  0  0  0
    4.0586   -9.6278    0.0000 C   0  0  0  0  0  0  0  0  0  0  0  0
    5.5586   -9.6278    0.0000 C   0  0  0  0  0  0  0  0  0  0  0  0
    6.3086   -8.3287    0.0000 C   0  0  0  0  0  0  0  0  0  0  0  0
    5.5586   -7.0297    0.0000 C   0  0  0  0  0  0  0  0  0  0  0  0
    4.0586   -7.0297    0.0000 C   0  0  0  0  0  0  0  0  0  0  0  0
  1  2  1  0
  2  3  1  0
  3  4  2  0
  4  5  1  0
  5  6  1  0
  6  7  2  0
  6  8  1  0
  8  9  1  0
  9 10  2  0
 10 11  1  0
 11 12  2  0
 12 13  1  0
 13 14  1  0
 14 15  2  0
 15 16  1  0
 16 17  2  0
 17 18  1  0
 18 19  2  0
  5 20  1  0
 20 21  2  0
 21 22  1  0
 22 23  2  0
 23 24  1  0
 24 25  2  0
 25 26  1  0
 26 27  2  0
 27 28  1  0
 28 29  2  0
 29 30  1  0
 30 31  2  0
 31 32  1  0
 32 33  2  0
 33 34  1  0
 34 35  2  0
 35 36  1  0
 36 37  2  0
 37 38  1  0
 38 39  2  0
 39 40  1  0
 40 41  2  0
 41 42  1  0
 42 43  2  0
 43 44  1  0
 44 45  2  0
 45 46  1  0
 46 47  2  0
 47 48  1  0
 48 49  2  0
 49 50  1  0
 50 51  2  0
 51 52  1  0
 52 53  2  0
 53 54  1  0
 54 55  2  0
 55 56  1  0
 56 57  2  0
 57 58  1  0
 58 59  2  0
 59 60  1  0
 60 61  2  0
 61  2  1  0
 13  9  1  0
 19 14  1  0
 25 20  1  0
 31 26  1  0
 37 32  1  0
 43 38  1  0
 49 44  1  0
 55 50  1  0
 61 56  1  0
M  END
>  <Title>  (951) 
idABIQgen10

$$$$

     RDKit          2D

113115  0  0  0  0  0  0  0  0999 V2000
   -3.6512   -4.3927    0.0000 C   0  0  0  0  0  0  0  0  0  0  0  0
   -2.5260   -5.3847    0.0000 C   0  0  0  0  0  0  0  0  0  0  0  0
   -3.4822   -6.5404    0.0000 C   0  0  0  0  0  0  0  0  0  0  0  0
   -4.3639   -7.7540    0.0000 C   0  0  0  0  0  0  0  0  0  0  0  0
   -5.1676   -9.0205    0.0000 C   0  0  0  0  0  0  0  0  0  0  0  0
   -5.8902  -10.3349    0.0000 C   0  0  0  0  0  0  0  0  0  0  0  0
   -6.5289  -11.6922    0.0000 C   0  0  0  0  0  0  0  0  0  0  0  0
   -7.0811  -13.0868    0.0000 C   0  0  0  0  0  0  0  0  0  0  0  0
   -7.5446  -14.5134    0.0000 C   0  0  0  0  0  0  0  0  0  0  0  0
   -7.9176  -15.9663    0.0000 C   0  0  0  0  0  0  0  0  0  0  0  0
   -8.1987  -17.4397    0.0000 C   0  0  0  0  0  0  0  0  0  0  0  0
   -8.3867  -18.9279    0.0000 C   0  0  0  0  0  0  0  0  0  0  0  0
   -8.4809  -20.4249    0.0000 C   0  0  0  0  0  0  0  0  0  0  0  0
   -8.4809  -21.9249    0.0000 C   0  0  0  0  0  0  0  0  0  0  0  0
   -8.3867  -23.4220    0.0000 C   0  0  0  0  0  0  0  0  0  0  0  0
   -8.1987  -24.9101    0.0000 C   0  0  0  0  0  0  0  0  0  0  0  0
   -7.9176  -26.3836    0.0000 C   0  0  0  0  0  0  0  0  0  0  0  0
   -7.5446  -27.8364    0.0000 C   0  0  0  0  0  0  0  0  0  0  0  0
   -7.0811  -29.2630    0.0000 C   0  0  0  0  0  0  0  0  0  0  0  0
   -6.5289  -30.6577    0.0000 C   0  0  0  0  0  0  0  0  0  0  0  0
   -5.8902  -32.0149    0.0000 C   0  0  0  0  0  0  0  0  0  0  0  0
   -5.1676  -33.3294    0.0000 C   0  0  0  0  0  0  0  0  0  0  0  0
   -4.3639  -34.5959    0.0000 C   0  0  0  0  0  0  0  0  0  0  0  0
   -3.4822  -35.8094    0.0000 C   0  0  0  0  0  0  0  0  0  0  0  0
   -2.5260  -36.9652    0.0000 C   0  0  0  0  0  0  0  0  0  0  0  0
   -1.4992  -38.0586    0.0000 C   0  0  0  0  0  0  0  0  0  0  0  0
   -0.4058  -39.0855    0.0000 C   0  0  0  0  0  0  0  0  0  0  0  0
    0.7500  -40.0416    0.0000 C   0  0  0  0  0  0  0  0  0  0  0  0
    1.9635  -40.9233    0.0000 C   0  0  0  0  0  0  0  0  0  0  0  0
    3.2300  -41.7270    0.0000 C   0  0  0  0  0  0  0  0  0  0  0  0
    4.5445  -42.4496    0.0000 C   0  0  0  0  0  0  0  0  0  0  0  0
    5.9017  -43.0883    0.0000 C   0  0  0  0  0  0  0  0  0  0  0  0
    7.2964  -43.6405    0.0000 C   0  0  0  0  0  0  0  0  0  0  0  0
    8.7230  -44.1040    0.0000 C   0  0  0  0  0  0  0  0  0  0  0  0
   10.1758  -44.4771    0.0000 C   0  0  0  0  0  0  0  0  0  0  0  0
   11.6493  -44.7581    0.0000 C   0  0  0  0  0  0  0  0  0  0  0  0
   13.1374  -44.9461    0.0000 C   0  0  0  0  0  0  0  0  0  0  0  0
   14.6345  -45.0403    0.0000 C   0  0  0  0  0  0  0  0  0  0  0  0
   16.1345  -45.0403    0.0000 C   0  0  0  0  0  0  0  0  0  0  0  0
   17.6315  -44.9461    0.0000 C   0  0  0  0  0  0  0  0  0  0  0  0
   19.1197  -44.7581    0.0000 C   0  0  0  0  0  0  0  0  0  0  0  0
   20.5931  -44.4771    0.0000 C   0  0  0  0  0  0  0  0  0  0  0  0
   22.0460  -44.1040    0.0000 C   0  0  0  0  0  0  0  0  0  0  0  0
   23.4726  -43.6405    0.0000 C   0  0  0  0  0  0  0  0  0  0  0  0
   24.8673  -43.0883    0.0000 C   0  0  0  0  0  0  0  0  0  0  0  0
   26.2245  -42.4496    0.0000 C   0  0  0  0  0  0  0  0  0  0  0  0
   27.5390  -41.7270    0.0000 C   0  0  0  0  0  0  0  0  0  0  0  0
   28.8054  -40.9233    0.0000 C   0  0  0  0  0  0  0  0  0  0  0  0
   30.0190  -40.0416    0.0000 C   0  0  0  0  0  0  0  0  0  0  0  0
   31.1747  -39.0855    0.0000 C   0  0  0  0  0  0  0  0  0  0  0  0
   32.2682  -38.0586    0.0000 C   0  0  0  0  0  0  0  0  0  0  0  0
   33.2950  -36.9652    0.0000 C   0  0  0  0  0  0  0  0  0  0  0  0
   34.2511  -35.8094    0.0000 C   0  0  0  0  0  0  0  0  0  0  0  0
   35.1328  -34.5959    0.0000 C   0  0  0  0  0  0  0  0  0  0  0  0
   35.9366  -33.3294    0.0000 C   0  0  0  0  0  0  0  0  0  0  0  0
   36.6592  -32.0149    0.0000 C   0  0  0  0  0  0  0  0  0  0  0  0
   37.2979  -30.6577    0.0000 C   0  0  0  0  0  0  0  0  0  0  0  0
   37.8501  -29.2630    0.0000 C   0  0  0  0  0  0  0  0  0  0  0  0
   38.3136  -27.8364    0.0000 C   0  0  0  0  0  0  0  0  0  0  0  0
   38.6866  -26.3836    0.0000 C   0  0  0  0  0  0  0  0  0  0  0  0
   38.9677  -24.9101    0.0000 C   0  0  0  0  0  0  0  0  0  0  0  0
   39.1557  -23.4220    0.0000 C   0  0  0  0  0  0  0  0  0  0  0  0
   39.2499  -21.9249    0.0000 C   0  0  0  0  0  0  0  0  0  0  0  0
   39.2499  -20.4249    0.0000 C   0  0  0  0  0  0  0  0  0  0  0  0
   39.1557  -18.9279    0.0000 C   0  0  0  0  0  0  0  0  0  0  0  0
   38.9677  -17.4397    0.0000 C   0  0  0  0  0  0  0  0  0  0  0  0
   38.6866  -15.9663    0.0000 C   0  0  0  0  0  0  0  0  0  0  0  0
   38.3136  -14.5134    0.0000 C   0  0  0  0  0  0  0  0  0  0  0  0
   37.8501  -13.0868    0.0000 C   0  0  0  0  0  0  0  0  0  0  0  0
   37.2979  -11.6922    0.0000 C   0  0  0  0  0  0  0  0  0  0  0  0
   36.6592  -10.3349    0.0000 C   0  0  0  0  0  0  0  0  0  0  0  0
   35.9366   -9.0205    0.0000 C   0  0  0  0  0  0  0  0  0  0  0  0
   35.1328   -7.7540    0.0000 C   0  0  0  0  0  0  0  0  0  0  0  0
   34.2511   -6.5404    0.0000 C   0  0  0  0  0  0  0  0  0  0  0  0
   33.2950   -5.3847    0.0000 C   0  0  0  0  0  0  0  0  0  0  0  0
   32.2682   -4.2912    0.0000 C   0  0  0  0  0  0  0  0  0  0  0  0
   31.1747   -3.2644    0.0000 C   0  0  0  0  0  0  0  0  0  0  0  0
   30.0190   -2.3083    0.0000 C   0  0  0  0  0  0  0  0  0  0  0  0
   28.8054   -1.4266    0.0000 C   0  0  0  0  0  0  0  0  0  0  0  0
   27.5390   -0.6228    0.0000 C   0  0  0  0  0  0  0  0  0  0  0  0
   26.2245    0.0998    0.0000 C   0  0  0  0  0  0  0  0  0  0  0  0
   24.8673    0.7385    0.0000 C   0  0  0  0  0  0  0  0  0  0  0  0
   23.4726    1.2906    0.0000 C   0  0  0  0  0  0  0  0  0  0  0  0
   22.0460    1.7542    0.0000 C   0  0  0  0  0  0  0  0  0  0  0  0
   20.5931    2.1272    0.0000 C   0  0  0  0  0  0  0  0  0  0  0  0
   19.1197    2.4083    0.0000 C   0  0  0  0  0  0  0  0  0  0  0  0
   17.6315    2.5963    0.0000 C   0  0  0  0  0  0  0  0  0  0  0  0
   16.1345    2.6905    0.0000 C   0  0  0  0  0  0  0  0  0  0  0  0
   14.6345    2.6905    0.0000 C   0  0  0  0  0  0  0  0  0  0  0  0
   13.1374    2.5963    0.0000 C   0  0  0  0  0  0  0  0  0  0  0  0
   11.6493    2.4083    0.0000 C   0  0  0  0  0  0  0  0  0  0  0  0
   10.1758    2.1272    0.0000 C   0  0  0  0  0  0  0  0  0  0  0  0
    8.7230    1.7542    0.0000 C   0  0  0  0  0  0  0  0  0  0  0  0
    7.2964    1.2906    0.0000 C   0  0  0  0  0  0  0  0  0  0  0  0
    5.9017    0.7385    0.0000 C   0  0  0  0  0  0  0  0  0  0  0  0
    4.5445    0.0998    0.0000 C   0  0  0  0  0  0  0  0  0  0  0  0
    3.2300   -0.6228    0.0000 C   0  0  0  0  0  0  0  0  0  0  0  0
    1.9635   -1.4266    0.0000 C   0  0  0  0  0  0  0  0  0  0  0  0
    2.4271    0.0000    0.0000 C   0  0  0  0  0  0  0  0  0  0  0  0
    1.9635    1.4266    0.0000 C   0  0  0  0  0  0  0  0  0  0  0  0
    0.7500    2.3083    0.0000 C   0  0  0  0  0  0  0  0  0  0  0  0
   -0.7500    2.3083    0.0000 C   0  0  0  0  0  0  0  0  0  0  0  0
   -1.9635    1.4266    0.0000 C   0  0  0  0  0  0  0  0  0  0  0  0
   -2.4271    0.0000    0.0000 C   0  0  0  0  0  0  0  0  0  0  0  0
   -1.9635   -1.4266    0.0000 C   0  0  0  0  0  0  0  0  0  0  0  0
   -0.7500   -2.3083    0.0000 C   0  0  0  0  0  0  0  0  0  0  0  0
    0.7500   -2.3083    0.0000 C   0  0  0  0  0  0  0  0  0  0  0  0
   -0.4058   -3.2644    0.0000 C   0  0  0  0  0  0  0  0  0  0  0  0
    1.0302   -3.6979    0.0000 C   0  0  0  0  0  0  0  0  0  0  0  0
    1.3727   -5.1583    0.0000 C   0  0  0  0  0  0  0  0  0  0  0  0
    0.2793   -6.1851    0.0000 C   0  0  0  0  0  0  0  0  0  0  0  0
   -1.1567   -5.7516    0.0000 C   0  0  0  0  0  0  0  0  0  0  0  0
   -1.4992   -4.2912    0.0000 C   0  0  0  0  0  0  0  0  0  0  0  0
  1  2  1  0
  2  3  1  0
  3  4  1  0
  4  5  1  0
  5  6  1  0
  6  7  1  0
  7  8  1  0
  8  9  1  0
  9 10  1  0
 10 11  1  0
 11 12  1  0
 12 13  1  0
 13 14  1  0
 14 15  1  0
 15 16  1  0
 16 17  1  0
 17 18  1  0
 18 19  1  0
 19 20  1  0
 20 21  1  0
 21 22  1  0
 22 23  1  0
 23 24  1  0
 24 25  1  0
 25 26  1  0
 26 27  1  0
 27 28  1  0
 28 29  1  0
 29 30  1  0
 30 31  1  0
 31 32  1  0
 32 33  1  0
 33 34  1  0
 34 35  1  0
 35 36  1  0
 36 37  1  0
 37 38  1  0
 38 39  1  0
 39 40  1  0
 40 41  1  0
 41 42  1  0
 42 43  1  0
 43 44  1  0
 44 45  1  0
 45 46  1  0
 46 47  1  0
 47 48  1  0
 48 49  1  0
 49 50  1  0
 50 51  1  0
 51 52  1  0
 52 53  1  0
 53 54  1  0
 54 55  1  0
 55 56  1  0
 56 57  1  0
 57 58  1  0
 58 59  1  0
 59 60  1  0
 60 61  1  0
 61 62  1  0
 62 63  1  0
 63 64  1  0
 64 65  1  0
 65 66  1  0
 66 67  1  0
 67 68  1  0
 68 69  1  0
 69 70  1  0
 70 71  1  0
 71 72  1  0
 72 73  1  0
 73 74  1  0
 74 75  1  0
 75 76  1  0
 76 77  1  0
 77 78  1  0
 78 79  1  0
 79 80  1  0
 80 81  1  0
 81 82  1  0
 82 83  1  0
 83 84  1  0
 84 85  1  0
 85 86  1  0
 86 87  1  0
 87 88  1  0
 88 89  1  0
 89 90  1  0
 90 91  1  0
 91 92  1  0
 92 93  1  0
 93 94  1  0
 94 95  1  0
 95 96  1  0
 96 97  1  0
 97 98  1  0
 98 99  1  0
 99100  1  0
100101  1  0
101102  1  0
102103  2  0
103104  1  0
104105  2  0
105106  1  0
106107  2  0
107108  1  0
108109  2  0
109110  1  0
110111  2  0
111112  1  0
112113  2  0
113  2  1  0
107 98  1  0
113108  1  0
M  END
>  <Title>  (952) 
idABIRgen10

$$$$

     RDKit          2D

 19 21  0  0  0  0  0  0  0  0999 V2000
   -3.1455   -1.1277    0.0000 C   0  0  0  0  0  0  0  0  0  0  0  0
   -2.0119   -2.1100    0.0000 C   0  0  0  0  0  0  0  0  0  0  0  0
   -2.6350   -3.4744    0.0000 C   0  0  0  0  0  0  0  0  0  0  0  0
   -2.4215   -4.9592    0.0000 C   0  0  0  0  0  0  0  0  0  0  0  0
   -1.4392   -6.0928    0.0000 C   0  0  0  0  0  0  0  0  0  0  0  0
   -0.0000   -6.5154    0.0000 C   0  0  0  0  0  0  0  0  0  0  0  0
    0.4226   -7.9546    0.0000 C   0  0  0  0  0  0  0  0  0  0  0  0
   -0.2963   -9.2712    0.0000 O   0  0  0  0  0  0  0  0  0  0  0  0
    1.8618   -7.5320    0.0000 N   0  0  0  0  0  0  0  0  0  0  0  0
    1.4392   -6.0928    0.0000 C   0  0  0  0  0  0  0  0  0  0  0  0
    2.4215   -4.9592    0.0000 N   0  0  0  0  0  0  0  0  0  0  0  0
    2.6350   -3.4744    0.0000 N   0  0  0  0  0  0  0  0  0  0  0  0
    2.0119   -2.1100    0.0000 N   0  0  0  0  0  0  0  0  0  0  0  0
    0.7500   -1.2990    0.0000 N   0  0  0  0  0  0  0  0  0  0  0  0
    1.5000    0.0000    0.0000 C   0  0  0  0  0  0  0  0  0  0  0  0
    0.7500    1.2990    0.0000 C   0  0  0  0  0  0  0  0  0  0  0  0
   -0.7500    1.2990    0.0000 C   0  0  0  0  0  0  0  0  0  0  0  0
   -1.5000    0.0000    0.0000 C   0  0  0  0  0  0  0  0  0  0  0  0
   -0.7500   -1.2990    0.0000 C   0  0  0  0  0  0  0  0  0  0  0  0
  1  2  1  0
  2  3  2  0
  3  4  1  0
  4  5  1  0
  5  6  2  0
  6  7  1  0
  7  8  2  0
  7  9  1  0
  9 10  1  0
 10 11  2  0
 11 12  1  0
 12 13  2  0
 13 14  1  0
 14 15  1  0
 15 16  1  0
 16 17  2  0
 17 18  1  0
 18 19  2  0
 19  2  1  0
 10  6  1  0
 19 14  1  0
M  END
>  <Title>  (953) 
idABISgen10

$$$$

     RDKit          2D

 83 84  0  0  0  0  0  0  0  0999 V2000
   -2.2007   -1.0703    0.0000 C   0  0  0  0  0  0  0  0  0  0  0  0
   -2.4912    0.4013    0.0000 C   0  0  0  0  0  0  0  0  0  0  0  0
   -3.9732    0.1696    0.0000 C   0  0  0  0  0  0  0  0  0  0  0  0
   -5.4689    0.0563    0.0000 C   0  0  0  0  0  0  0  0  0  0  0  0
   -6.9689    0.0623    0.0000 C   0  0  0  0  0  0  0  0  0  0  0  0
   -8.4637    0.1874    0.0000 C   0  0  0  0  0  0  0  0  0  0  0  0
   -9.9438    0.4309    0.0000 C   0  0  0  0  0  0  0  0  0  0  0  0
  -11.3999    0.7912    0.0000 C   0  0  0  0  0  0  0  0  0  0  0  0
  -12.8227    1.2661    0.0000 C   0  0  0  0  0  0  0  0  0  0  0  0
  -14.2033    1.8525    0.0000 C   0  0  0  0  0  0  0  0  0  0  0  0
  -15.5330    2.5467    0.0000 C   0  0  0  0  0  0  0  0  0  0  0  0
  -16.8033    3.3444    0.0000 C   0  0  0  0  0  0  0  0  0  0  0  0
  -18.0062    4.2405    0.0000 C   0  0  0  0  0  0  0  0  0  0  0  0
  -19.1342    5.2293    0.0000 C   0  0  0  0  0  0  0  0  0  0  0  0
  -20.1800    6.3047    0.0000 C   0  0  0  0  0  0  0  0  0  0  0  0
  -21.1370    7.4597    0.0000 C   0  0  0  0  0  0  0  0  0  0  0  0
  -21.9993    8.6871    0.0000 C   0  0  0  0  0  0  0  0  0  0  0  0
  -22.7613    9.9791    0.0000 C   0  0  0  0  0  0  0  0  0  0  0  0
  -23.4183   11.3276    0.0000 C   0  0  0  0  0  0  0  0  0  0  0  0
  -23.9660   12.7240    0.0000 C   0  0  0  0  0  0  0  0  0  0  0  0
  -24.4011   14.1595    0.0000 C   0  0  0  0  0  0  0  0  0  0  0  0
  -24.7207   15.6250    0.0000 C   0  0  0  0  0  0  0  0  0  0  0  0
  -24.9229   17.1114    0.0000 C   0  0  0  0  0  0  0  0  0  0  0  0
  -25.0064   18.6090    0.0000 C   0  0  0  0  0  0  0  0  0  0  0  0
  -24.9706   20.1086    0.0000 C   0  0  0  0  0  0  0  0  0  0  0  0
  -24.8158   21.6006    0.0000 C   0  0  0  0  0  0  0  0  0  0  0  0
  -24.5429   23.0756    0.0000 C   0  0  0  0  0  0  0  0  0  0  0  0
  -24.1537   24.5242    0.0000 C   0  0  0  0  0  0  0  0  0  0  0  0
  -23.6507   25.9373    0.0000 C   0  0  0  0  0  0  0  0  0  0  0  0
  -23.0369   27.3060    0.0000 C   0  0  0  0  0  0  0  0  0  0  0  0
  -22.3164   28.6216    0.0000 C   0  0  0  0  0  0  0  0  0  0  0  0
  -21.4936   29.8758    0.0000 C   0  0  0  0  0  0  0  0  0  0  0  0
  -20.5738   31.0607    0.0000 C   0  0  0  0  0  0  0  0  0  0  0  0
  -19.5627   32.1687    0.0000 C   0  0  0  0  0  0  0  0  0  0  0  0
  -18.4668   33.1930    0.0000 C   0  0  0  0  0  0  0  0  0  0  0  0
  -17.2930   34.1269    0.0000 C   0  0  0  0  0  0  0  0  0  0  0  0
  -16.0487   34.9645    0.0000 C   0  0  0  0  0  0  0  0  0  0  0  0
  -14.7418   35.7007    0.0000 C   0  0  0  0  0  0  0  0  0  0  0  0
  -13.3805   36.3307    0.0000 C   0  0  0  0  0  0  0  0  0  0  0  0
  -11.9735   36.8506    0.0000 C   0  0  0  0  0  0  0  0  0  0  0  0
  -10.5296   37.2571    0.0000 C   0  0  0  0  0  0  0  0  0  0  0  0
   -9.0580   37.5475    0.0000 C   0  0  0  0  0  0  0  0  0  0  0  0
   -7.5680   37.7201    0.0000 C   0  0  0  0  0  0  0  0  0  0  0  0
   -6.0689   37.7738    0.0000 C   0  0  0  0  0  0  0  0  0  0  0  0
   -4.5704   37.7082    0.0000 C   0  0  0  0  0  0  0  0  0  0  0  0
   -3.0817   37.5237    0.0000 C   0  0  0  0  0  0  0  0  0  0  0  0
   -1.6125   37.2216    0.0000 C   0  0  0  0  0  0  0  0  0  0  0  0
   -0.1719   36.8037    0.0000 C   0  0  0  0  0  0  0  0  0  0  0  0
    1.2310   36.2726    0.0000 C   0  0  0  0  0  0  0  0  0  0  0  0
    2.5872   35.6318    0.0000 C   0  0  0  0  0  0  0  0  0  0  0  0
    3.8882   34.8853    0.0000 C   0  0  0  0  0  0  0  0  0  0  0  0
    5.1258   34.0377    0.0000 C   0  0  0  0  0  0  0  0  0  0  0  0
    6.2922   33.0945    0.0000 C   0  0  0  0  0  0  0  0  0  0  0  0
    7.3799   32.0616    0.0000 C   0  0  0  0  0  0  0  0  0  0  0  0
    8.3821   30.9456    0.0000 C   0  0  0  0  0  0  0  0  0  0  0  0
    9.2925   29.7534    0.0000 C   0  0  0  0  0  0  0  0  0  0  0  0
   10.1053   28.4927    0.0000 C   0  0  0  0  0  0  0  0  0  0  0  0
   10.8153   27.1714    0.0000 C   0  0  0  0  0  0  0  0  0  0  0  0
   11.4181   25.7979    0.0000 C   0  0  0  0  0  0  0  0  0  0  0  0
   11.9099   24.3808    0.0000 C   0  0  0  0  0  0  0  0  0  0  0  0
   12.2876   22.9291    0.0000 C   0  0  0  0  0  0  0  0  0  0  0  0
   12.5487   21.4520    0.0000 C   0  0  0  0  0  0  0  0  0  0  0  0
   12.6917   19.9588    0.0000 C   0  0  0  0  0  0  0  0  0  0  0  0
   12.7155   18.4590    0.0000 C   0  0  0  0  0  0  0  0  0  0  0  0
   12.6201   16.9621    0.0000 C   0  0  0  0  0  0  0  0  0  0  0  0
   12.4061   15.4774    0.0000 C   0  0  0  0  0  0  0  0  0  0  0  0
   12.0748   14.0144    0.0000 C   0  0  0  0  0  0  0  0  0  0  0  0
   11.6284   12.5824    0.0000 C   0  0  0  0  0  0  0  0  0  0  0  0
   11.0695   11.1904    0.0000 C   0  0  0  0  0  0  0  0  0  0  0  0
   10.4019    9.8472    0.0000 C   0  0  0  0  0  0  0  0  0  0  0  0
    9.6296    8.5613    0.0000 C   0  0  0  0  0  0  0  0  0  0  0  0
    8.7576    7.3408    0.0000 C   0  0  0  0  0  0  0  0  0  0  0  0
    7.7914    6.1934    0.0000 C   0  0  0  0  0  0  0  0  0  0  0  0
    6.7371    5.1265    0.0000 C   0  0  0  0  0  0  0  0  0  0  0  0
    5.6013    4.1466    0.0000 C   0  0  0  0  0  0  0  0  0  0  0  0
    4.3913    3.2601    0.0000 C   0  0  0  0  0  0  0  0  0  0  0  0
    3.1147    2.4726    0.0000 C   0  0  0  0  0  0  0  0  0  0  0  0
    1.7795    1.7889    0.0000 C   0  0  0  0  0  0  0  0  0  0  0  0
    0.3943    1.2135    0.0000 C   0  0  0  0  0  0  0  0  0  0  0  0
    1.2760    0.0000    0.0000 C   0  0  0  0  0  0  0  0  0  0  0  0
    0.3943   -1.2135    0.0000 C   0  0  0  0  0  0  0  0  0  0  0  0
   -1.0323   -0.7500    0.0000 C   0  0  0  0  0  0  0  0  0  0  0  0
   -1.0323    0.7500    0.0000 C   0  0  0  0  0  0  0  0  0  0  0  0
  1  2  1  0
  2  3  1  0
  3  4  1  0
  4  5  1  0
  5  6  1  0
  6  7  1  0
  7  8  1  0
  8  9  1  0
  9 10  1  0
 10 11  1  0
 11 12  1  0
 12 13  1  0
 13 14  1  0
 14 15  1  0
 15 16  1  0
 16 17  1  0
 17 18  1  0
 18 19  1  0
 19 20  1  0
 20 21  1  0
 21 22  1  0
 22 23  1  0
 23 24  1  0
 24 25  1  0
 25 26  1  0
 26 27  1  0
 27 28  1  0
 28 29  1  0
 29 30  1  0
 30 31  1  0
 31 32  1  0
 32 33  1  0
 33 34  1  0
 34 35  1  0
 35 36  1  0
 36 37  1  0
 37 38  1  0
 38 39  1  0
 39 40  1  0
 40 41  1  0
 41 42  1  0
 42 43  1  0
 43 44  1  0
 44 45  1  0
 45 46  1  0
 46 47  1  0
 47 48  1  0
 48 49  1  0
 49 50  1  0
 50 51  1  0
 51 52  1  0
 52 53  1  0
 53 54  1  0
 54 55  1  0
 55 56  1  0
 56 57  1  0
 57 58  1  0
 58 59  1  0
 59 60  1  0
 60 61  1  0
 61 62  1  0
 62 63  1  0
 63 64  1  0
 64 65  1  0
 65 66  1  0
 66 67  1  0
 67 68  1  0
 68 69  2  0
 69 70  1  0
 70 71  2  0
 71 72  1  0
 72 73  2  0
 73 74  1  0
 74 75  2  0
 75 76  1  0
 76 77  2  0
 77 78  1  0
 78 79  2  0
 79 80  1  0
 80 81  2  0
 81 82  1  0
 82 83  2  0
 83  2  1  0
 83 79  1  0
M  END
>  <Title>  (954) 
idABITgen10

$$$$

     RDKit          2D

 13 13  0  0  0  0  0  0  0  0999 V2000
    4.5000    0.0000    0.0000 C   0  0  0  0  0  0  0  0  0  0  0  0
    3.0000    0.0000    0.0000 C   0  0  0  0  0  0  0  0  0  0  0  0
    1.5000    0.0000    0.0000 C   0  0  0  0  0  0  0  0  0  0  0  0
    0.7500   -1.2990    0.0000 C   0  0  0  0  0  0  0  0  0  0  0  0
   -0.7500   -1.2990    0.0000 C   0  0  0  0  0  0  0  0  0  0  0  0
   -1.5000    0.0000    0.0000 C   0  0  0  0  0  0  0  0  0  0  0  0
   -0.7500    1.2990    0.0000 C   0  0  0  0  0  0  0  0  0  0  0  0
    0.7500    1.2990    0.0000 C   0  0  0  0  0  0  0  0  0  0  0  0
    1.5000    2.5981    0.0000 C   0  0  0  0  0  0  0  0  0  0  0  0
    2.2500    3.8971    0.0000 C   0  0  0  0  0  0  0  0  0  0  0  0
    3.0000    5.1962    0.0000 C   0  0  0  0  0  0  0  0  0  0  0  0
    2.2500    6.4952    0.0000 C   0  0  0  0  0  0  0  0  0  0  0  0
    3.0000    7.7942    0.0000 C   0  0  0  0  0  0  0  0  0  0  0  0
  1  2  3  0
  2  3  1  0
  3  4  1  0
  4  5  1  0
  5  6  2  0
  6  7  1  0
  7  8  2  0
  8  9  1  0
  9 10  3  0
 10 11  1  0
 11 12  2  3
 12 13  1  0
  8  3  1  0
M  END
>  <Title>  (955) 
idABIUgen10

$$$$

     RDKit          2D

 12 12  0  0  0  0  0  0  0  0999 V2000
    9.7500   -1.2990    0.0000 C   0  0  0  0  0  0  0  0  0  0  0  0
    9.0000    0.0000    0.0000 C   0  0  0  0  0  0  0  0  0  0  0  0
    7.5000    0.0000    0.0000 C   0  0  0  0  0  0  0  0  0  0  0  0
    6.0000    0.0000    0.0000 C   0  0  0  0  0  0  0  0  0  0  0  0
    4.5000    0.0000    0.0000 C   0  0  0  0  0  0  0  0  0  0  0  0
    3.0000    0.0000    0.0000 C   0  0  0  0  0  0  0  0  0  0  0  0
    1.5000    0.0000    0.0000 C   0  0  0  0  0  0  0  0  0  0  0  0
    0.7500   -1.2990    0.0000 C   0  0  0  0  0  0  0  0  0  0  0  0
   -0.7500   -1.2990    0.0000 C   0  0  0  0  0  0  0  0  0  0  0  0
   -1.5000    0.0000    0.0000 C   0  0  0  0  0  0  0  0  0  0  0  0
   -0.7500    1.2990    0.0000 C   0  0  0  0  0  0  0  0  0  0  0  0
    0.7500    1.2990    0.0000 C   0  0  0  0  0  0  0  0  0  0  0  0
  1  2  2  0
  2  3  1  0
  3  4  3  0
  4  5  1  0
  5  6  3  0
  6  7  1  0
  7  8  2  0
  8  9  1  0
  9 10  2  0
 10 11  1  0
 11 12  2  0
 12  7  1  0
M  END
>  <Title>  (956) 
idABIVgen10

$$$$

     RDKit          2D

 82 88  0  0  0  0  0  0  0  0999 V2000
  -14.3887   -6.5857    0.0000 C   0  0  0  0  0  0  0  0  0  0  0  0
  -13.0897   -7.3357    0.0000 C   0  0  0  0  0  0  0  0  0  0  0  0
  -11.7906   -8.0857    0.0000 C   0  0  0  0  0  0  0  0  0  0  0  0
  -12.4679   -9.4241    0.0000 C   0  0  0  0  0  0  0  0  0  0  0  0
  -12.9939  -10.8288    0.0000 C   0  0  0  0  0  0  0  0  0  0  0  0
  -13.3621  -12.2829    0.0000 C   0  0  0  0  0  0  0  0  0  0  0  0
  -13.5681  -13.7687    0.0000 C   0  0  0  0  0  0  0  0  0  0  0  0
  -13.6095  -15.2681    0.0000 C   0  0  0  0  0  0  0  0  0  0  0  0
  -13.4856  -16.7630    0.0000 C   0  0  0  0  0  0  0  0  0  0  0  0
  -13.1980  -18.2352    0.0000 C   0  0  0  0  0  0  0  0  0  0  0  0
  -12.7503  -19.6668    0.0000 C   0  0  0  0  0  0  0  0  0  0  0  0
  -12.1477  -21.0405    0.0000 C   0  0  0  0  0  0  0  0  0  0  0  0
  -11.3977  -22.3395    0.0000 C   0  0  0  0  0  0  0  0  0  0  0  0
  -10.5094  -23.5482    0.0000 C   0  0  0  0  0  0  0  0  0  0  0  0
   -9.4934  -24.6517    0.0000 C   0  0  0  0  0  0  0  0  0  0  0  0
   -8.3623  -25.6369    0.0000 C   0  0  0  0  0  0  0  0  0  0  0  0
   -7.1296  -26.4916    0.0000 C   0  0  0  0  0  0  0  0  0  0  0  0
   -5.8104  -27.2055    0.0000 C   0  0  0  0  0  0  0  0  0  0  0  0
   -4.4207  -27.7700    0.0000 C   0  0  0  0  0  0  0  0  0  0  0  0
   -2.9773  -28.1781    0.0000 C   0  0  0  0  0  0  0  0  0  0  0  0
   -1.4977  -28.4250    0.0000 C   0  0  0  0  0  0  0  0  0  0  0  0
    0.0000  -28.5076    0.0000 C   0  0  0  0  0  0  0  0  0  0  0  0
    1.4977  -28.4250    0.0000 C   0  0  0  0  0  0  0  0  0  0  0  0
    2.9773  -28.1781    0.0000 C   0  0  0  0  0  0  0  0  0  0  0  0
    4.4207  -27.7700    0.0000 C   0  0  0  0  0  0  0  0  0  0  0  0
    5.8104  -27.2055    0.0000 C   0  0  0  0  0  0  0  0  0  0  0  0
    7.1296  -26.4916    0.0000 C   0  0  0  0  0  0  0  0  0  0  0  0
    8.3623  -25.6369    0.0000 C   0  0  0  0  0  0  0  0  0  0  0  0
    9.4934  -24.6517    0.0000 C   0  0  0  0  0  0  0  0  0  0  0  0
   10.5094  -23.5482    0.0000 C   0  0  0  0  0  0  0  0  0  0  0  0
   11.3977  -22.3395    0.0000 C   0  0  0  0  0  0  0  0  0  0  0  0
   12.1477  -21.0405    0.0000 C   0  0  0  0  0  0  0  0  0  0  0  0
   12.7503  -19.6668    0.0000 C   0  0  0  0  0  0  0  0  0  0  0  0
   13.1980  -18.2352    0.0000 C   0  0  0  0  0  0  0  0  0  0  0  0
   13.4856  -16.7630    0.0000 C   0  0  0  0  0  0  0  0  0  0  0  0
   13.6095  -15.2681    0.0000 C   0  0  0  0  0  0  0  0  0  0  0  0
   13.5681  -13.7687    0.0000 C   0  0  0  0  0  0  0  0  0  0  0  0
   13.3621  -12.2829    0.0000 C   0  0  0  0  0  0  0  0  0  0  0  0
   12.9939  -10.8288    0.0000 C   0  0  0  0  0  0  0  0  0  0  0  0
   12.4679   -9.4241    0.0000 C   0  0  0  0  0  0  0  0  0  0  0  0
   11.7906   -8.0857    0.0000 C   0  0  0  0  0  0  0  0  0  0  0  0
   10.9702   -6.8299    0.0000 C   0  0  0  0  0  0  0  0  0  0  0  0
   10.0166   -5.6721    0.0000 C   0  0  0  0  0  0  0  0  0  0  0  0
    8.9414   -4.6261    0.0000 C   0  0  0  0  0  0  0  0  0  0  0  0
    7.7577   -3.7048    0.0000 C   0  0  0  0  0  0  0  0  0  0  0  0
    6.4799   -2.9193    0.0000 C   0  0  0  0  0  0  0  0  0  0  0  0
    5.1233   -2.2791    0.0000 C   0  0  0  0  0  0  0  0  0  0  0  0
    3.7046   -1.7921    0.0000 C   0  0  0  0  0  0  0  0  0  0  0  0
    3.8449   -3.2855    0.0000 C   0  0  0  0  0  0  0  0  0  0  0  0
    2.4680   -3.8805    0.0000 C   0  0  0  0  0  0  0  0  0  0  0  0
    1.4766   -2.7547    0.0000 C   0  0  0  0  0  0  0  0  0  0  0  0
    2.2409   -1.4641    0.0000 C   0  0  0  0  0  0  0  0  0  0  0  0
    0.7500   -1.2990    0.0000 C   0  0  0  0  0  0  0  0  0  0  0  0
    1.5000    0.0000    0.0000 C   0  0  0  0  0  0  0  0  0  0  0  0
    0.7500    1.2990    0.0000 C   0  0  0  0  0  0  0  0  0  0  0  0
   -0.7500    1.2990    0.0000 C   0  0  0  0  0  0  0  0  0  0  0  0
   -1.5000    0.0000    0.0000 C   0  0  0  0  0  0  0  0  0  0  0  0
   -0.7500   -1.2990    0.0000 C   0  0  0  0  0  0  0  0  0  0  0  0
   -2.2409   -1.4641    0.0000 C   0  0  0  0  0  0  0  0  0  0  0  0
   -1.2250   -2.5676    0.0000 C   0  0  0  0  0  0  0  0  0  0  0  0
   -1.6727   -3.9992    0.0000 C   0  0  0  0  0  0  0  0  0  0  0  0
   -3.1364   -4.3273    0.0000 C   0  0  0  0  0  0  0  0  0  0  0  0
   -4.1524   -3.2237    0.0000 C   0  0  0  0  0  0  0  0  0  0  0  0
   -3.7046   -1.7921    0.0000 C   0  0  0  0  0  0  0  0  0  0  0  0
   -5.1233   -2.2791    0.0000 C   0  0  0  0  0  0  0  0  0  0  0  0
   -4.9994   -0.7842    0.0000 C   0  0  0  0  0  0  0  0  0  0  0  0
   -6.2321    0.0705    0.0000 C   0  0  0  0  0  0  0  0  0  0  0  0
   -7.5886   -0.5697    0.0000 C   0  0  0  0  0  0  0  0  0  0  0  0
   -7.7125   -2.0646    0.0000 C   0  0  0  0  0  0  0  0  0  0  0  0
   -6.4799   -2.9193    0.0000 C   0  0  0  0  0  0  0  0  0  0  0  0
   -7.7577   -3.7048    0.0000 C   0  0  0  0  0  0  0  0  0  0  0  0
   -6.3680   -4.2693    0.0000 C   0  0  0  0  0  0  0  0  0  0  0  0
   -6.1620   -5.7550    0.0000 C   0  0  0  0  0  0  0  0  0  0  0  0
   -7.3457   -6.6764    0.0000 C   0  0  0  0  0  0  0  0  0  0  0  0
   -8.7354   -6.1119    0.0000 C   0  0  0  0  0  0  0  0  0  0  0  0
   -8.9414   -4.6261    0.0000 C   0  0  0  0  0  0  0  0  0  0  0  0
  -10.0166   -5.6721    0.0000 C   0  0  0  0  0  0  0  0  0  0  0  0
  -10.5426   -4.2673    0.0000 C   0  0  0  0  0  0  0  0  0  0  0  0
  -12.0221   -4.0204    0.0000 C   0  0  0  0  0  0  0  0  0  0  0  0
  -12.9757   -5.1783    0.0000 C   0  0  0  0  0  0  0  0  0  0  0  0
  -12.4497   -6.5830    0.0000 C   0  0  0  0  0  0  0  0  0  0  0  0
  -10.9702   -6.8299    0.0000 C   0  0  0  0  0  0  0  0  0  0  0  0
  1  2  3  0
  2  3  1  0
  3  4  1  0
  4  5  1  0
  5  6  1  0
  6  7  1  0
  7  8  1  0
  8  9  1  0
  9 10  1  0
 10 11  1  0
 11 12  1  0
 12 13  1  0
 13 14  1  0
 14 15  1  0
 15 16  1  0
 16 17  1  0
 17 18  1  0
 18 19  1  0
 19 20  1  0
 20 21  1  0
 21 22  1  0
 22 23  1  0
 23 24  1  0
 24 25  1  0
 25 26  1  0
 26 27  1  0
 27 28  1  0
 28 29  1  0
 29 30  1  0
 30 31  1  0
 31 32  1  0
 32 33  1  0
 33 34  1  0
 34 35  1  0
 35 36  1  0
 36 37  1  0
 37 38  1  0
 38 39  1  0
 39 40  1  0
 40 41  1  0
 41 42  2  0
 42 43  1  0
 43 44  2  0
 44 45  1  0
 45 46  2  0
 46 47  1  0
 47 48  2  0
 48 49  1  0
 49 50  2  0
 50 51  1  0
 51 52  2  0
 52 53  1  0
 53 54  2  0
 54 55  1  0
 55 56  2  0
 56 57  1  0
 57 58  2  0
 58 59  1  0
 59 60  2  0
 60 61  1  0
 61 62  2  0
 62 63  1  0
 63 64  2  0
 64 65  1  0
 65 66  2  0
 66 67  1  0
 67 68  2  0
 68 69  1  0
 69 70  2  0
 70 71  1  0
 71 72  2  0
 72 73  1  0
 73 74  2  0
 74 75  1  0
 75 76  2  0
 76 77  1  0
 77 78  2  0
 78 79  1  0
 79 80  2  0
 80 81  1  0
 81 82  2  0
 82  3  1  0
 52 48  1  0
 58 53  1  0
 64 59  1  0
 70 65  1  0
 76 71  1  0
 82 77  1  0
M  END
>  <Title>  (957) 
idABIWgen10

$$$$

     RDKit          2D

 10 10  0  0  0  0  0  0  0  0999 V2000
    6.5260   -1.2990    0.0000 C   0  0  0  0  0  0  0  0  0  0  0  0
    5.0260   -1.2990    0.0000 C   0  0  0  0  0  0  0  0  0  0  0  0
    3.5260   -1.2990    0.0000 C   0  0  0  0  0  0  0  0  0  0  0  0
    2.7760   -2.5981    0.0000 O   0  0  0  0  0  0  0  0  0  0  0  0
    2.7760    0.0000    0.0000 N   0  0  0  0  0  0  0  0  0  0  0  0
    1.2760    0.0000    0.0000 C   0  0  0  0  0  0  0  0  0  0  0  0
    0.3943    1.2135    0.0000 C   0  0  0  0  0  0  0  0  0  0  0  0
   -1.0323    0.7500    0.0000 C   0  0  0  0  0  0  0  0  0  0  0  0
   -1.0323   -0.7500    0.0000 C   0  0  0  0  0  0  0  0  0  0  0  0
    0.3943   -1.2135    0.0000 C   0  0  0  0  0  0  0  0  0  0  0  0
  1  2  3  0
  2  3  1  0
  3  4  2  0
  3  5  1  0
  5  6  1  0
  6  7  2  0
  7  8  1  0
  8  9  2  0
  9 10  1  0
 10  6  1  0
M  END
>  <Title>  (958) 
idABIXgen10

$$$$

     RDKit          2D

 16 17  0  0  0  0  0  0  0  0999 V2000
    4.5000   -2.5981    0.0000 C   0  0  0  0  0  0  0  0  0  0  0  0
    3.7500   -1.2990    0.0000 C   0  0  0  0  0  0  0  0  0  0  0  0
    3.0000    0.0000    0.0000 C   0  0  0  0  0  0  0  0  0  0  0  0
    1.5000    0.0000    0.0000 C   0  0  0  0  0  0  0  0  0  0  0  0
    0.7500   -1.2990    0.0000 C   0  0  0  0  0  0  0  0  0  0  0  0
   -0.7500   -1.2990    0.0000 C   0  0  0  0  0  0  0  0  0  0  0  0
   -1.5000   -2.5981    0.0000 C   0  0  0  0  0  0  0  0  0  0  0  0
   -1.5000    0.0000    0.0000 C   0  0  0  0  0  0  0  0  0  0  0  0
   -0.7500    1.2990    0.0000 C   0  0  0  0  0  0  0  0  0  0  0  0
    0.7500    1.2990    0.0000 C   0  0  0  0  0  0  0  0  0  0  0  0
    1.5000    2.5981    0.0000 C   0  0  0  0  0  0  0  0  0  0  0  0
    0.8899    3.9684    0.0000 C   0  0  0  0  0  0  0  0  0  0  0  0
    2.0046    4.9721    0.0000 C   0  0  0  0  0  0  0  0  0  0  0  0
    3.3037    4.2221    0.0000 C   0  0  0  0  0  0  0  0  0  0  0  0
    4.6740    4.8322    0.0000 C   0  0  0  0  0  0  0  0  0  0  0  0
    2.9918    2.7549    0.0000 N   0  0  0  0  0  0  0  0  0  0  0  0
  1  2  3  0
  2  3  1  0
  3  4  1  0
  4  5  2  0
  5  6  1  0
  6  7  1  0
  6  8  2  0
  8  9  1  0
  9 10  2  0
 10 11  1  0
 11 12  2  0
 12 13  1  0
 13 14  2  0
 14 15  1  0
 14 16  1  0
 10  4  1  0
 16 11  1  0
M  END
>  <Title>  (959) 
idABIYgen10

$$$$

     RDKit          2D

  9  9  0  0  0  0  0  0  0  0999 V2000
    5.2500   -1.2990    0.0000 C   0  0  0  0  0  0  0  0  0  0  0  0
    3.7500   -1.2990    0.0000 C   0  0  0  0  0  0  0  0  0  0  0  0
    3.0000    0.0000    0.0000 C   0  0  0  0  0  0  0  0  0  0  0  0
    1.5000    0.0000    0.0000 C   0  0  0  0  0  0  0  0  0  0  0  0
    0.7500   -1.2990    0.0000 C   0  0  0  0  0  0  0  0  0  0  0  0
   -0.7500   -1.2990    0.0000 C   0  0  0  0  0  0  0  0  0  0  0  0
   -1.5000    0.0000    0.0000 C   0  0  0  0  0  0  0  0  0  0  0  0
   -0.7500    1.2990    0.0000 C   0  0  0  0  0  0  0  0  0  0  0  0
    0.7500    1.2990    0.0000 C   0  0  0  0  0  0  0  0  0  0  0  0
  1  2  1  0
  2  3  1  0
  3  4  1  0
  4  5  2  0
  5  6  1  0
  6  7  1  0
  7  8  2  0
  8  9  1  0
  9  4  1  0
M  END
>  <Title>  (960) 
idABIZgen10

$$$$

     RDKit          2D

 83 84  0  0  0  0  0  0  0  0999 V2000
   -2.2007   -1.0703    0.0000 C   0  0  0  0  0  0  0  0  0  0  0  0
   -2.4912    0.4013    0.0000 C   0  0  0  0  0  0  0  0  0  0  0  0
   -3.9732    0.1696    0.0000 C   0  0  0  0  0  0  0  0  0  0  0  0
   -5.4689    0.0563    0.0000 C   0  0  0  0  0  0  0  0  0  0  0  0
   -6.9689    0.0623    0.0000 C   0  0  0  0  0  0  0  0  0  0  0  0
   -8.4637    0.1874    0.0000 C   0  0  0  0  0  0  0  0  0  0  0  0
   -9.9438    0.4309    0.0000 C   0  0  0  0  0  0  0  0  0  0  0  0
  -11.3999    0.7912    0.0000 C   0  0  0  0  0  0  0  0  0  0  0  0
  -12.8227    1.2661    0.0000 C   0  0  0  0  0  0  0  0  0  0  0  0
  -14.2033    1.8525    0.0000 C   0  0  0  0  0  0  0  0  0  0  0  0
  -15.5330    2.5467    0.0000 C   0  0  0  0  0  0  0  0  0  0  0  0
  -16.8033    3.3444    0.0000 C   0  0  0  0  0  0  0  0  0  0  0  0
  -18.0062    4.2405    0.0000 C   0  0  0  0  0  0  0  0  0  0  0  0
  -19.1342    5.2293    0.0000 C   0  0  0  0  0  0  0  0  0  0  0  0
  -20.1800    6.3047    0.0000 C   0  0  0  0  0  0  0  0  0  0  0  0
  -21.1370    7.4597    0.0000 C   0  0  0  0  0  0  0  0  0  0  0  0
  -21.9993    8.6871    0.0000 C   0  0  0  0  0  0  0  0  0  0  0  0
  -22.7613    9.9791    0.0000 C   0  0  0  0  0  0  0  0  0  0  0  0
  -23.4183   11.3276    0.0000 C   0  0  0  0  0  0  0  0  0  0  0  0
  -23.9660   12.7240    0.0000 C   0  0  0  0  0  0  0  0  0  0  0  0
  -24.4011   14.1595    0.0000 C   0  0  0  0  0  0  0  0  0  0  0  0
  -24.7207   15.6250    0.0000 C   0  0  0  0  0  0  0  0  0  0  0  0
  -24.9229   17.1114    0.0000 C   0  0  0  0  0  0  0  0  0  0  0  0
  -25.0064   18.6090    0.0000 C   0  0  0  0  0  0  0  0  0  0  0  0
  -24.9706   20.1086    0.0000 C   0  0  0  0  0  0  0  0  0  0  0  0
  -24.8158   21.6006    0.0000 C   0  0  0  0  0  0  0  0  0  0  0  0
  -24.5429   23.0756    0.0000 C   0  0  0  0  0  0  0  0  0  0  0  0
  -24.1537   24.5242    0.0000 C   0  0  0  0  0  0  0  0  0  0  0  0
  -23.6507   25.9373    0.0000 C   0  0  0  0  0  0  0  0  0  0  0  0
  -23.0369   27.3060    0.0000 C   0  0  0  0  0  0  0  0  0  0  0  0
  -22.3164   28.6216    0.0000 C   0  0  0  0  0  0  0  0  0  0  0  0
  -21.4936   29.8758    0.0000 C   0  0  0  0  0  0  0  0  0  0  0  0
  -20.5738   31.0607    0.0000 C   0  0  0  0  0  0  0  0  0  0  0  0
  -19.5627   32.1687    0.0000 C   0  0  0  0  0  0  0  0  0  0  0  0
  -18.4668   33.1930    0.0000 C   0  0  0  0  0  0  0  0  0  0  0  0
  -17.2930   34.1269    0.0000 C   0  0  0  0  0  0  0  0  0  0  0  0
  -16.0487   34.9645    0.0000 C   0  0  0  0  0  0  0  0  0  0  0  0
  -14.7418   35.7007    0.0000 C   0  0  0  0  0  0  0  0  0  0  0  0
  -13.3805   36.3307    0.0000 C   0  0  0  0  0  0  0  0  0  0  0  0
  -11.9735   36.8506    0.0000 C   0  0  0  0  0  0  0  0  0  0  0  0
  -10.5296   37.2571    0.0000 C   0  0  0  0  0  0  0  0  0  0  0  0
   -9.0580   37.5475    0.0000 C   0  0  0  0  0  0  0  0  0  0  0  0
   -7.5680   37.7201    0.0000 C   0  0  0  0  0  0  0  0  0  0  0  0
   -6.0689   37.7738    0.0000 C   0  0  0  0  0  0  0  0  0  0  0  0
   -4.5704   37.7082    0.0000 C   0  0  0  0  0  0  0  0  0  0  0  0
   -3.0817   37.5237    0.0000 C   0  0  0  0  0  0  0  0  0  0  0  0
   -1.6125   37.2216    0.0000 C   0  0  0  0  0  0  0  0  0  0  0  0
   -0.1719   36.8037    0.0000 C   0  0  0  0  0  0  0  0  0  0  0  0
    1.2310   36.2726    0.0000 C   0  0  0  0  0  0  0  0  0  0  0  0
    2.5872   35.6318    0.0000 C   0  0  0  0  0  0  0  0  0  0  0  0
    3.8882   34.8853    0.0000 C   0  0  0  0  0  0  0  0  0  0  0  0
    5.1258   34.0377    0.0000 C   0  0  0  0  0  0  0  0  0  0  0  0
    6.2922   33.0945    0.0000 C   0  0  0  0  0  0  0  0  0  0  0  0
    7.3799   32.0616    0.0000 C   0  0  0  0  0  0  0  0  0  0  0  0
    8.3821   30.9456    0.0000 C   0  0  0  0  0  0  0  0  0  0  0  0
    9.2925   29.7534    0.0000 C   0  0  0  0  0  0  0  0  0  0  0  0
   10.1053   28.4927    0.0000 C   0  0  0  0  0  0  0  0  0  0  0  0
   10.8153   27.1714    0.0000 C   0  0  0  0  0  0  0  0  0  0  0  0
   11.4181   25.7979    0.0000 C   0  0  0  0  0  0  0  0  0  0  0  0
   11.9099   24.3808    0.0000 C   0  0  0  0  0  0  0  0  0  0  0  0
   12.2876   22.9291    0.0000 C   0  0  0  0  0  0  0  0  0  0  0  0
   12.5487   21.4520    0.0000 C   0  0  0  0  0  0  0  0  0  0  0  0
   12.6917   19.9588    0.0000 C   0  0  0  0  0  0  0  0  0  0  0  0
   12.7155   18.4590    0.0000 C   0  0  0  0  0  0  0  0  0  0  0  0
   12.6201   16.9621    0.0000 C   0  0  0  0  0  0  0  0  0  0  0  0
   12.4061   15.4774    0.0000 C   0  0  0  0  0  0  0  0  0  0  0  0
   12.0748   14.0144    0.0000 C   0  0  0  0  0  0  0  0  0  0  0  0
   11.6284   12.5824    0.0000 C   0  0  0  0  0  0  0  0  0  0  0  0
   11.0695   11.1904    0.0000 C   0  0  0  0  0  0  0  0  0  0  0  0
   10.4019    9.8472    0.0000 C   0  0  0  0  0  0  0  0  0  0  0  0
    9.6296    8.5613    0.0000 C   0  0  0  0  0  0  0  0  0  0  0  0
    8.7576    7.3408    0.0000 C   0  0  0  0  0  0  0  0  0  0  0  0
    7.7914    6.1934    0.0000 C   0  0  0  0  0  0  0  0  0  0  0  0
    6.7371    5.1265    0.0000 C   0  0  0  0  0  0  0  0  0  0  0  0
    5.6013    4.1466    0.0000 C   0  0  0  0  0  0  0  0  0  0  0  0
    4.3913    3.2601    0.0000 C   0  0  0  0  0  0  0  0  0  0  0  0
    3.1147    2.4726    0.0000 C   0  0  0  0  0  0  0  0  0  0  0  0
    1.7795    1.7889    0.0000 C   0  0  0  0  0  0  0  0  0  0  0  0
    0.3943    1.2135    0.0000 C   0  0  0  0  0  0  0  0  0  0  0  0
    1.2760    0.0000    0.0000 C   0  0  0  0  0  0  0  0  0  0  0  0
    0.3943   -1.2135    0.0000 C   0  0  0  0  0  0  0  0  0  0  0  0
   -1.0323   -0.7500    0.0000 C   0  0  0  0  0  0  0  0  0  0  0  0
   -1.0323    0.7500    0.0000 C   0  0  0  0  0  0  0  0  0  0  0  0
  1  2  1  0
  2  3  1  0
  3  4  1  0
  4  5  1  0
  5  6  1  0
  6  7  1  0
  7  8  1  0
  8  9  1  0
  9 10  1  0
 10 11  1  0
 11 12  1  0
 12 13  1  0
 13 14  1  0
 14 15  1  0
 15 16  1  0
 16 17  1  0
 17 18  1  0
 18 19  1  0
 19 20  1  0
 20 21  1  0
 21 22  1  0
 22 23  1  0
 23 24  1  0
 24 25  1  0
 25 26  1  0
 26 27  2  0
 27 28  1  0
 28 29  2  0
 29 30  1  0
 30 31  2  0
 31 32  1  0
 32 33  2  0
 33 34  1  0
 34 35  2  0
 35 36  1  0
 36 37  2  0
 37 38  1  0
 38 39  2  0
 39 40  1  0
 40 41  2  0
 41 42  1  0
 42 43  2  0
 43 44  1  0
 44 45  2  0
 45 46  1  0
 46 47  2  0
 47 48  1  0
 48 49  2  0
 49 50  1  0
 50 51  2  0
 51 52  1  0
 52 53  2  0
 53 54  1  0
 54 55  2  0
 55 56  1  0
 56 57  2  0
 57 58  1  0
 58 59  2  0
 59 60  1  0
 60 61  2  0
 61 62  1  0
 62 63  2  0
 63 64  1  0
 64 65  2  0
 65 66  1  0
 66 67  2  0
 67 68  1  0
 68 69  2  0
 69 70  1  0
 70 71  2  0
 71 72  1  0
 72 73  2  0
 73 74  1  0
 74 75  2  0
 75 76  1  0
 76 77  2  0
 77 78  1  0
 78 79  2  0
 79 80  1  0
 80 81  2  0
 81 82  1  0
 82 83  2  0
 83  2  1  0
 83 79  1  0
M  END
>  <Title>  (961) 
idABJAgen10

$$$$

     RDKit          2D

  8  8  0  0  0  0  0  0  0  0999 V2000
    4.5000    0.0000    0.0000 C   0  0  0  0  0  0  0  0  0  0  0  0
    3.0000    0.0000    0.0000 C   0  0  0  0  0  0  0  0  0  0  0  0
    1.5000    0.0000    0.0000 C   0  0  0  0  0  0  0  0  0  0  0  0
    0.7500   -1.2990    0.0000 C   0  0  0  0  0  0  0  0  0  0  0  0
   -0.7500   -1.2990    0.0000 C   0  0  0  0  0  0  0  0  0  0  0  0
   -1.5000    0.0000    0.0000 C   0  0  0  0  0  0  0  0  0  0  0  0
   -0.7500    1.2990    0.0000 C   0  0  0  0  0  0  0  0  0  0  0  0
    0.7500    1.2990    0.0000 C   0  0  0  0  0  0  0  0  0  0  0  0
  1  2  3  0
  2  3  1  0
  3  4  2  0
  4  5  1  0
  5  6  2  0
  6  7  1  0
  7  8  2  0
  8  3  1  0
M  END
>  <Title>  (962) 
idABJBgen10

$$$$

     RDKit          2D

 13 13  0  0  0  0  0  0  0  0999 V2000
    9.7500   -1.2990    0.0000 C   0  0  0  0  0  0  0  0  0  0  0  0
    9.0000    0.0000    0.0000 C   0  0  0  0  0  0  0  0  0  0  0  0
    7.5000    0.0000    0.0000 C   0  0  0  0  0  0  0  0  0  0  0  0
    6.0000    0.0000    0.0000 C   0  0  0  0  0  0  0  0  0  0  0  0
    4.5000    0.0000    0.0000 C   0  0  0  0  0  0  0  0  0  0  0  0
    3.0000    0.0000    0.0000 C   0  0  0  0  0  0  0  0  0  0  0  0
    1.5000    0.0000    0.0000 C   0  0  0  0  0  0  0  0  0  0  0  0
    0.7500   -1.2990    0.0000 C   0  0  0  0  0  0  0  0  0  0  0  0
   -0.7500   -1.2990    0.0000 C   0  0  0  0  0  0  0  0  0  0  0  0
   -1.5000    0.0000    0.0000 C   0  0  0  0  0  0  0  0  0  0  0  0
   -0.7500    1.2990    0.0000 C   0  0  0  0  0  0  0  0  0  0  0  0
   -1.5000    2.5981    0.0000 C   0  0  0  0  0  0  0  0  0  0  0  0
    0.7500    1.2990    0.0000 C   0  0  0  0  0  0  0  0  0  0  0  0
  1  2  2  0
  2  3  1  0
  3  4  3  0
  4  5  1  0
  5  6  3  0
  6  7  1  0
  7  8  2  0
  8  9  1  0
  9 10  2  0
 10 11  1  0
 11 12  1  0
 11 13  2  0
 13  7  1  0
M  END
>  <Title>  (963) 
idABJCgen10

$$$$

     RDKit          2D

 10 11  0  0  0  0  0  0  0  0999 V2000
    1.5000    0.0000    0.0000 C   0  0  0  0  0  0  0  0  0  0  0  0
    0.7500   -1.2990    0.0000 C   0  0  0  0  0  0  0  0  0  0  0  0
   -0.7500   -1.2990    0.0000 C   0  0  0  0  0  0  0  0  0  0  0  0
   -1.5000    0.0000    0.0000 C   0  0  0  0  0  0  0  0  0  0  0  0
   -3.0000    0.0000    0.0000 C   0  0  0  0  0  0  0  0  0  0  0  0
   -4.0607    1.0607    0.0000 C   0  0  0  0  0  0  0  0  0  0  0  0
   -5.1213    0.0000    0.0000 C   0  0  0  0  0  0  0  0  0  0  0  0
   -4.0607   -1.0607    0.0000 C   0  0  0  0  0  0  0  0  0  0  0  0
   -0.7500    1.2990    0.0000 C   0  0  0  0  0  0  0  0  0  0  0  0
    0.7500    1.2990    0.0000 C   0  0  0  0  0  0  0  0  0  0  0  0
  1  2  2  0
  2  3  1  0
  3  4  2  0
  4  5  1  0
  5  6  2  0
  6  7  1  0
  7  8  1  0
  4  9  1  0
  9 10  2  0
 10  1  1  0
  8  5  1  0
M  END
>  <Title>  (964) 
idABJDgen10

$$$$

     RDKit          2D

111111  0  0  0  0  0  0  0  0999 V2000
   29.0254   -0.0000    0.0000 C   0  0  0  0  0  0  0  0  0  0  0  0
   27.5254    0.0000    0.0000 C   0  0  0  0  0  0  0  0  0  0  0  0
   26.0254    0.0000    0.0000 C   0  0  0  0  0  0  0  0  0  0  0  0
   25.9822    1.4994    0.0000 C   0  0  0  0  0  0  0  0  0  0  0  0
   25.8527    2.9938    0.0000 C   0  0  0  0  0  0  0  0  0  0  0  0
   25.6373    4.4782    0.0000 C   0  0  0  0  0  0  0  0  0  0  0  0
   25.3367    5.9478    0.0000 C   0  0  0  0  0  0  0  0  0  0  0  0
   24.9519    7.3976    0.0000 C   0  0  0  0  0  0  0  0  0  0  0  0
   24.4843    8.8229    0.0000 C   0  0  0  0  0  0  0  0  0  0  0  0
   23.9353   10.2188    0.0000 C   0  0  0  0  0  0  0  0  0  0  0  0
   23.3068   11.5808    0.0000 C   0  0  0  0  0  0  0  0  0  0  0  0
   22.6009   12.9043    0.0000 C   0  0  0  0  0  0  0  0  0  0  0  0
   21.8200   14.1850    0.0000 C   0  0  0  0  0  0  0  0  0  0  0  0
   20.9665   15.4185    0.0000 C   0  0  0  0  0  0  0  0  0  0  0  0
   20.0434   16.6008    0.0000 C   0  0  0  0  0  0  0  0  0  0  0  0
   19.0537   17.7280    0.0000 C   0  0  0  0  0  0  0  0  0  0  0  0
   18.0007   18.7962    0.0000 C   0  0  0  0  0  0  0  0  0  0  0  0
   16.8879   19.8021    0.0000 C   0  0  0  0  0  0  0  0  0  0  0  0
   15.7190   20.7421    0.0000 C   0  0  0  0  0  0  0  0  0  0  0  0
   14.4979   21.6133    0.0000 C   0  0  0  0  0  0  0  0  0  0  0  0
   13.2287   22.4126    0.0000 C   0  0  0  0  0  0  0  0  0  0  0  0
   11.9154   23.1375    0.0000 C   0  0  0  0  0  0  0  0  0  0  0  0
   10.5627   23.7856    0.0000 C   0  0  0  0  0  0  0  0  0  0  0  0
    9.1748   24.3546    0.0000 C   0  0  0  0  0  0  0  0  0  0  0  0
    7.7564   24.8427    0.0000 C   0  0  0  0  0  0  0  0  0  0  0  0
    6.3123   25.2483    0.0000 C   0  0  0  0  0  0  0  0  0  0  0  0
    4.8472   25.5701    0.0000 C   0  0  0  0  0  0  0  0  0  0  0  0
    3.3660   25.8068    0.0000 C   0  0  0  0  0  0  0  0  0  0  0  0
    1.8736   25.9579    0.0000 C   0  0  0  0  0  0  0  0  0  0  0  0
    0.3750   26.0227    0.0000 C   0  0  0  0  0  0  0  0  0  0  0  0
   -1.1248   26.0011    0.0000 C   0  0  0  0  0  0  0  0  0  0  0  0
   -2.6209   25.8931    0.0000 C   0  0  0  0  0  0  0  0  0  0  0  0
   -4.1083   25.6991    0.0000 C   0  0  0  0  0  0  0  0  0  0  0  0
   -5.5821   25.4198    0.0000 C   0  0  0  0  0  0  0  0  0  0  0  0
   -7.0373   25.0559    0.0000 C   0  0  0  0  0  0  0  0  0  0  0  0
   -8.4691   24.6089    0.0000 C   0  0  0  0  0  0  0  0  0  0  0  0
   -9.8728   24.0801    0.0000 C   0  0  0  0  0  0  0  0  0  0  0  0
  -11.2437   23.4713    0.0000 C   0  0  0  0  0  0  0  0  0  0  0  0
  -12.5773   22.7845    0.0000 C   0  0  0  0  0  0  0  0  0  0  0  0
  -13.8690   22.0221    0.0000 C   0  0  0  0  0  0  0  0  0  0  0  0
  -15.1147   21.1865    0.0000 C   0  0  0  0  0  0  0  0  0  0  0  0
  -16.3102   20.2805    0.0000 C   0  0  0  0  0  0  0  0  0  0  0  0
  -17.4515   19.3072    0.0000 C   0  0  0  0  0  0  0  0  0  0  0  0
  -18.5349   18.2697    0.0000 C   0  0  0  0  0  0  0  0  0  0  0  0
  -19.5567   17.1715    0.0000 C   0  0  0  0  0  0  0  0  0  0  0  0
  -20.5135   16.0163    0.0000 C   0  0  0  0  0  0  0  0  0  0  0  0
  -21.4021   14.8079    0.0000 C   0  0  0  0  0  0  0  0  0  0  0  0
  -22.2197   13.5503    0.0000 C   0  0  0  0  0  0  0  0  0  0  0  0
  -22.9634   12.2476    0.0000 C   0  0  0  0  0  0  0  0  0  0  0  0
  -23.6309   10.9043    0.0000 C   0  0  0  0  0  0  0  0  0  0  0  0
  -24.2199    9.5248    0.0000 C   0  0  0  0  0  0  0  0  0  0  0  0
  -24.7284    8.1136    0.0000 C   0  0  0  0  0  0  0  0  0  0  0  0
  -25.1547    6.6755    0.0000 C   0  0  0  0  0  0  0  0  0  0  0  0
  -25.4976    5.2152    0.0000 C   0  0  0  0  0  0  0  0  0  0  0  0
  -25.7557    3.7376    0.0000 C   0  0  0  0  0  0  0  0  0  0  0  0
  -25.9282    2.2475    0.0000 C   0  0  0  0  0  0  0  0  0  0  0  0
  -26.0146    0.7500    0.0000 C   0  0  0  0  0  0  0  0  0  0  0  0
  -26.0146   -0.7500    0.0000 C   0  0  0  0  0  0  0  0  0  0  0  0
  -25.9282   -2.2475    0.0000 C   0  0  0  0  0  0  0  0  0  0  0  0
  -25.7557   -3.7376    0.0000 C   0  0  0  0  0  0  0  0  0  0  0  0
  -25.4976   -5.2152    0.0000 C   0  0  0  0  0  0  0  0  0  0  0  0
  -25.1547   -6.6755    0.0000 C   0  0  0  0  0  0  0  0  0  0  0  0
  -24.7284   -8.1136    0.0000 C   0  0  0  0  0  0  0  0  0  0  0  0
  -24.2199   -9.5248    0.0000 C   0  0  0  0  0  0  0  0  0  0  0  0
  -23.6309  -10.9043    0.0000 C   0  0  0  0  0  0  0  0  0  0  0  0
  -22.9634  -12.2476    0.0000 C   0  0  0  0  0  0  0  0  0  0  0  0
  -22.2197  -13.5503    0.0000 C   0  0  0  0  0  0  0  0  0  0  0  0
  -21.4021  -14.8079    0.0000 C   0  0  0  0  0  0  0  0  0  0  0  0
  -20.5135  -16.0163    0.0000 C   0  0  0  0  0  0  0  0  0  0  0  0
  -19.5567  -17.1715    0.0000 C   0  0  0  0  0  0  0  0  0  0  0  0
  -18.5349  -18.2697    0.0000 C   0  0  0  0  0  0  0  0  0  0  0  0
  -17.4515  -19.3072    0.0000 C   0  0  0  0  0  0  0  0  0  0  0  0
  -16.3102  -20.2805    0.0000 C   0  0  0  0  0  0  0  0  0  0  0  0
  -15.1147  -21.1865    0.0000 C   0  0  0  0  0  0  0  0  0  0  0  0
  -13.8690  -22.0221    0.0000 C   0  0  0  0  0  0  0  0  0  0  0  0
  -12.5773  -22.7845    0.0000 C   0  0  0  0  0  0  0  0  0  0  0  0
  -11.2437  -23.4713    0.0000 C   0  0  0  0  0  0  0  0  0  0  0  0
   -9.8728  -24.0801    0.0000 C   0  0  0  0  0  0  0  0  0  0  0  0
   -8.4691  -24.6089    0.0000 C   0  0  0  0  0  0  0  0  0  0  0  0
   -7.0373  -25.0559    0.0000 C   0  0  0  0  0  0  0  0  0  0  0  0
   -5.5821  -25.4198    0.0000 C   0  0  0  0  0  0  0  0  0  0  0  0
   -4.1083  -25.6991    0.0000 C   0  0  0  0  0  0  0  0  0  0  0  0
   -2.6209  -25.8931    0.0000 C   0  0  0  0  0  0  0  0  0  0  0  0
   -1.1248  -26.0011    0.0000 C   0  0  0  0  0  0  0  0  0  0  0  0
    0.3750  -26.0227    0.0000 C   0  0  0  0  0  0  0  0  0  0  0  0
    1.8736  -25.9579    0.0000 C   0  0  0  0  0  0  0  0  0  0  0  0
    3.3660  -25.8068    0.0000 C   0  0  0  0  0  0  0  0  0  0  0  0
    4.8472  -25.5701    0.0000 C   0  0  0  0  0  0  0  0  0  0  0  0
    6.3123  -25.2483    0.0000 C   0  0  0  0  0  0  0  0  0  0  0  0
    7.7564  -24.8427    0.0000 C   0  0  0  0  0  0  0  0  0  0  0  0
    9.1748  -24.3546    0.0000 C   0  0  0  0  0  0  0  0  0  0  0  0
   10.5627  -23.7856    0.0000 C   0  0  0  0  0  0  0  0  0  0  0  0
   11.9154  -23.1375    0.0000 C   0  0  0  0  0  0  0  0  0  0  0  0
   13.2287  -22.4126    0.0000 C   0  0  0  0  0  0  0  0  0  0  0  0
   14.4979  -21.6133    0.0000 C   0  0  0  0  0  0  0  0  0  0  0  0
   15.7190  -20.7421    0.0000 C   0  0  0  0  0  0  0  0  0  0  0  0
   16.8879  -19.8021    0.0000 C   0  0  0  0  0  0  0  0  0  0  0  0
   18.0007  -18.7962    0.0000 C   0  0  0  0  0  0  0  0  0  0  0  0
   19.0537  -17.7280    0.0000 C   0  0  0  0  0  0  0  0  0  0  0  0
   20.0434  -16.6008    0.0000 C   0  0  0  0  0  0  0  0  0  0  0  0
   20.9665  -15.4185    0.0000 C   0  0  0  0  0  0  0  0  0  0  0  0
   21.8200  -14.1850    0.0000 C   0  0  0  0  0  0  0  0  0  0  0  0
   22.6009  -12.9043    0.0000 C   0  0  0  0  0  0  0  0  0  0  0  0
   23.3068  -11.5808    0.0000 C   0  0  0  0  0  0  0  0  0  0  0  0
   23.9353  -10.2188    0.0000 C   0  0  0  0  0  0  0  0  0  0  0  0
   24.4843   -8.8229    0.0000 C   0  0  0  0  0  0  0  0  0  0  0  0
   24.9519   -7.3976    0.0000 C   0  0  0  0  0  0  0  0  0  0  0  0
   25.3367   -5.9478    0.0000 C   0  0  0  0  0  0  0  0  0  0  0  0
   25.6373   -4.4782    0.0000 C   0  0  0  0  0  0  0  0  0  0  0  0
   25.8527   -2.9938    0.0000 C   0  0  0  0  0  0  0  0  0  0  0  0
   25.9822   -1.4994    0.0000 C   0  0  0  0  0  0  0  0  0  0  0  0
  1  2  3  0
  2  3  1  0
  3  4  1  0
  4  5  1  0
  5  6  1  0
  6  7  1  0
  7  8  1  0
  8  9  1  0
  9 10  1  0
 10 11  1  0
 11 12  1  0
 12 13  1  0
 13 14  1  0
 14 15  1  0
 15 16  1  0
 16 17  1  0
 17 18  1  0
 18 19  1  0
 19 20  1  0
 20 21  1  0
 21 22  1  0
 22 23  1  0
 23 24  1  0
 24 25  1  0
 25 26  1  0
 26 27  1  0
 27 28  1  0
 28 29  1  0
 29 30  1  0
 30 31  1  0
 31 32  1  0
 32 33  1  0
 33 34  1  0
 34 35  1  0
 35 36  1  0
 36 37  1  0
 37 38  1  0
 38 39  1  0
 39 40  1  0
 40 41  1  0
 41 42  1  0
 42 43  1  0
 43 44  1  0
 44 45  1  0
 45 46  1  0
 46 47  1  0
 47 48  1  0
 48 49  1  0
 49 50  1  0
 50 51  1  0
 51 52  1  0
 52 53  1  0
 53 54  1  0
 54 55  1  0
 55 56  1  0
 56 57  1  0
 57 58  1  0
 58 59  1  0
 59 60  1  0
 60 61  1  0
 61 62  1  0
 62 63  1  0
 63 64  1  0
 64 65  1  0
 65 66  1  0
 66 67  1  0
 67 68  1  0
 68 69  1  0
 69 70  1  0
 70 71  1  0
 71 72  1  0
 72 73  1  0
 73 74  1  0
 74 75  1  0
 75 76  1  0
 76 77  1  0
 77 78  1  0
 78 79  1  0
 79 80  1  0
 80 81  1  0
 81 82  1  0
 82 83  1  0
 83 84  1  0
 84 85  1  0
 85 86  1  0
 86 87  1  0
 87 88  1  0
 88 89  1  0
 89 90  1  0
 90 91  1  0
 91 92  1  0
 92 93  1  0
 93 94  1  0
 94 95  1  0
 95 96  1  0
 96 97  1  0
 97 98  1  0
 98 99  1  0
 99100  1  0
100101  1  0
101102  1  0
102103  1  0
103104  1  0
104105  1  0
105106  1  0
106107  1  0
107108  1  0
108109  1  0
109110  1  0
110111  1  0
111  3  1  0
M  END
>  <Title>  (965) 
idABJEgen10

$$$$

     RDKit          2D

  8  8  0  0  0  0  0  0  0  0999 V2000
    2.7760    0.0000    0.0000 C   0  0  0  0  0  0  0  0  0  0  0  0
    1.2760    0.0000    0.0000 C   0  0  0  0  0  0  0  0  0  0  0  0
    0.3943    1.2135    0.0000 C   0  0  0  0  0  0  0  0  0  0  0  0
   -1.0323    0.7500    0.0000 C   0  0  0  0  0  0  0  0  0  0  0  0
   -2.2458    1.6317    0.0000 C   0  0  0  0  0  0  0  0  0  0  0  0
   -1.0323   -0.7500    0.0000 C   0  0  0  0  0  0  0  0  0  0  0  0
   -2.2458   -1.6317    0.0000 C   0  0  0  0  0  0  0  0  0  0  0  0
    0.3943   -1.2135    0.0000 N   0  0  0  0  0  0  0  0  0  0  0  0
  1  2  1  0
  2  3  2  0
  3  4  1  0
  4  5  1  0
  4  6  2  0
  6  7  1  0
  6  8  1  0
  8  2  1  0
M  END
>  <Title>  (966) 
idABJFgen10

$$$$

     RDKit          2D

  4  3  0  0  0  0  0  0  0  0999 V2000
    0.0000    0.0000    0.0000 C   0  0  0  0  0  0  0  0  0  0  0  0
    1.2990    0.7500    0.0000 C   0  0  0  0  0  0  0  0  0  0  0  0
    2.5981   -0.0000    0.0000 C   0  0  0  0  0  0  0  0  0  0  0  0
    3.8971    0.7500    0.0000 C   0  0  0  0  0  0  0  0  0  0  0  0
  1  2  2  0
  2  3  1  0
  3  4  1  0
M  END
>  <Title>  (967) 
idABJGgen10

$$$$

     RDKit          2D

 10 11  0  0  0  0  0  0  0  0999 V2000
   -3.5736    1.2902    0.0000 C   0  0  0  0  0  0  0  0  0  0  0  0
   -2.1470    1.7537    0.0000 C   0  0  0  0  0  0  0  0  0  0  0  0
   -1.8351    3.2209    0.0000 C   0  0  0  0  0  0  0  0  0  0  0  0
   -0.4086    3.6844    0.0000 C   0  0  0  0  0  0  0  0  0  0  0  0
    0.7062    2.6807    0.0000 C   0  0  0  0  0  0  0  0  0  0  0  0
    0.3943    1.2135    0.0000 C   0  0  0  0  0  0  0  0  0  0  0  0
    1.2760    0.0000    0.0000 C   0  0  0  0  0  0  0  0  0  0  0  0
    0.3943   -1.2135    0.0000 C   0  0  0  0  0  0  0  0  0  0  0  0
   -1.0323   -0.7500    0.0000 C   0  0  0  0  0  0  0  0  0  0  0  0
   -1.0323    0.7500    0.0000 C   0  0  0  0  0  0  0  0  0  0  0  0
  1  2  1  0
  2  3  2  0
  3  4  1  0
  4  5  1  0
  5  6  2  0
  6  7  1  0
  7  8  2  0
  8  9  1  0
  9 10  2  0
 10  2  1  0
 10  6  1  0
M  END
>  <Title>  (968) 
idABJHgen10

$$$$

     RDKit          2D

 43 49  0  0  0  0  0  0  0  0999 V2000
    5.1881   -6.2804    0.0000 O   0  0  0  0  0  0  0  0  0  0  0  0
    4.6001   -4.9005    0.0000 C   0  0  0  0  0  0  0  0  0  0  0  0
    5.5013   -3.7013    0.0000 N   0  0  0  0  0  0  0  0  0  0  0  0
    6.9903   -3.8821    0.0000 C   0  0  0  0  0  0  0  0  0  0  0  0
    7.5783   -5.2621    0.0000 N   0  0  0  0  0  0  0  0  0  0  0  0
    9.0673   -5.4429    0.0000 N   0  0  0  0  0  0  0  0  0  0  0  0
    9.9685   -4.2437    0.0000 N   0  0  0  0  0  0  0  0  0  0  0  0
    9.3805   -2.8637    0.0000 N   0  0  0  0  0  0  0  0  0  0  0  0
    7.8914   -2.6829    0.0000 N   0  0  0  0  0  0  0  0  0  0  0  0
    3.1111   -4.7197    0.0000 C   0  0  0  0  0  0  0  0  0  0  0  0
    2.9303   -3.2306    0.0000 C   0  0  0  0  0  0  0  0  0  0  0  0
    2.0782   -1.9961    0.0000 C   0  0  0  0  0  0  0  0  0  0  0  0
    3.0729   -0.8734    0.0000 O   0  0  0  0  0  0  0  0  0  0  0  0
    0.7500   -1.2990    0.0000 C   0  0  0  0  0  0  0  0  0  0  0  0
    1.5000    0.0000    0.0000 C   0  0  0  0  0  0  0  0  0  0  0  0
    0.7500    1.2990    0.0000 C   0  0  0  0  0  0  0  0  0  0  0  0
   -0.7500    1.2990    0.0000 C   0  0  0  0  0  0  0  0  0  0  0  0
   -1.5000    0.0000    0.0000 C   0  0  0  0  0  0  0  0  0  0  0  0
   -0.7500   -1.2990    0.0000 C   0  0  0  0  0  0  0  0  0  0  0  0
   -2.0782   -1.9961    0.0000 C   0  0  0  0  0  0  0  0  0  0  0  0
   -2.7212   -0.6409    0.0000 C   0  0  0  0  0  0  0  0  0  0  0  0
   -4.2164   -0.5202    0.0000 C   0  0  0  0  0  0  0  0  0  0  0  0
   -5.0685   -1.7547    0.0000 C   0  0  0  0  0  0  0  0  0  0  0  0
   -4.4254   -3.1099    0.0000 C   0  0  0  0  0  0  0  0  0  0  0  0
   -2.9303   -3.2306    0.0000 C   0  0  0  0  0  0  0  0  0  0  0  0
   -3.1111   -4.7197    0.0000 C   0  0  0  0  0  0  0  0  0  0  0  0
   -4.5917   -4.4790    0.0000 C   0  0  0  0  0  0  0  0  0  0  0  0
   -5.5403   -5.6410    0.0000 C   0  0  0  0  0  0  0  0  0  0  0  0
   -5.0084   -7.0435    0.0000 C   0  0  0  0  0  0  0  0  0  0  0  0
   -3.5278   -7.2841    0.0000 C   0  0  0  0  0  0  0  0  0  0  0  0
   -2.5792   -6.1222    0.0000 C   0  0  0  0  0  0  0  0  0  0  0  0
   -1.4564   -7.1169    0.0000 C   0  0  0  0  0  0  0  0  0  0  0  0
   -2.4955   -8.1987    0.0000 C   0  0  0  0  0  0  0  0  0  0  0  0
   -2.0782   -9.6395    0.0000 C   0  0  0  0  0  0  0  0  0  0  0  0
   -0.6218   -9.9984    0.0000 C   0  0  0  0  0  0  0  0  0  0  0  0
    0.4173   -8.9166    0.0000 C   0  0  0  0  0  0  0  0  0  0  0  0
   -0.0000   -7.4758    0.0000 C   0  0  0  0  0  0  0  0  0  0  0  0
    1.4564   -7.1169    0.0000 C   0  0  0  0  0  0  0  0  0  0  0  0
    1.7565   -8.5866    0.0000 C   0  0  0  0  0  0  0  0  0  0  0  0
    3.1793   -9.0616    0.0000 C   0  0  0  0  0  0  0  0  0  0  0  0
    4.3020   -8.0669    0.0000 C   0  0  0  0  0  0  0  0  0  0  0  0
    4.0020   -6.5972    0.0000 C   0  0  0  0  0  0  0  0  0  0  0  0
    2.5792   -6.1222    0.0000 C   0  0  0  0  0  0  0  0  0  0  0  0
  1  2  2  0
  2  3  1  0
  3  4  1  0
  4  5  2  0
  5  6  1  0
  6  7  2  0
  7  8  1  0
  8  9  2  0
  2 10  1  0
 10 11  1  0
 11 12  2  0
 12 13  1  0
 12 14  1  0
 14 15  2  0
 15 16  1  0
 16 17  2  0
 17 18  1  0
 18 19  2  0
 19 20  1  0
 20 21  2  0
 21 22  1  0
 22 23  2  0
 23 24  1  0
 24 25  2  0
 25 26  1  0
 26 27  2  0
 27 28  1  0
 28 29  2  0
 29 30  1  0
 30 31  2  0
 31 32  1  0
 32 33  2  0
 33 34  1  0
 34 35  2  0
 35 36  1  0
 36 37  2  0
 37 38  1  0
 38 39  2  0
 39 40  1  0
 40 41  2  0
 41 42  1  0
 42 43  2  0
  9  4  1  0
 43 10  1  0
 19 14  1  0
 25 20  1  0
 31 26  1  0
 37 32  1  0
 43 38  1  0
M  END
>  <Title>  (969) 
idABJIgen10

$$$$

     RDKit          2D

  9  9  0  0  0  0  0  0  0  0999 V2000
    5.0260   -1.2990    0.0000 C   0  0  0  0  0  0  0  0  0  0  0  0
    3.5260   -1.2990    0.0000 C   0  0  0  0  0  0  0  0  0  0  0  0
    2.7760   -2.5981    0.0000 O   0  0  0  0  0  0  0  0  0  0  0  0
    2.7760    0.0000    0.0000 N   0  0  0  0  0  0  0  0  0  0  0  0
    1.2760    0.0000    0.0000 C   0  0  0  0  0  0  0  0  0  0  0  0
    0.3943    1.2135    0.0000 C   0  0  0  0  0  0  0  0  0  0  0  0
   -1.0323    0.7500    0.0000 C   0  0  0  0  0  0  0  0  0  0  0  0
   -1.0323   -0.7500    0.0000 C   0  0  0  0  0  0  0  0  0  0  0  0
    0.3943   -1.2135    0.0000 C   0  0  0  0  0  0  0  0  0  0  0  0
  1  2  1  0
  2  3  2  0
  2  4  1  0
  4  5  1  0
  5  6  2  0
  6  7  1  0
  7  8  2  0
  8  9  1  0
  9  5  1  0
M  END
>  <Title>  (970) 
idABJJgen10

$$$$

     RDKit          2D

 13 13  0  0  0  0  0  0  0  0999 V2000
    7.5000    0.0000    0.0000 C   0  0  0  0  0  0  0  0  0  0  0  0
    6.0000    0.0000    0.0000 C   0  0  0  0  0  0  0  0  0  0  0  0
    4.5000    0.0000    0.0000 C   0  0  0  0  0  0  0  0  0  0  0  0
    3.0000    0.0000    0.0000 C   0  0  0  0  0  0  0  0  0  0  0  0
    1.5000    0.0000    0.0000 C   0  0  0  0  0  0  0  0  0  0  0  0
    0.7500   -1.2990    0.0000 C   0  0  0  0  0  0  0  0  0  0  0  0
   -0.7500   -1.2990    0.0000 C   0  0  0  0  0  0  0  0  0  0  0  0
   -1.5000    0.0000    0.0000 C   0  0  0  0  0  0  0  0  0  0  0  0
   -3.0000    0.0000    0.0000 C   0  0  0  0  0  0  0  0  0  0  0  0
   -4.5000    0.0000    0.0000 N   0  0  0  0  0  0  0  0  0  0  0  0
   -0.7500    1.2990    0.0000 C   0  0  0  0  0  0  0  0  0  0  0  0
   -1.5000    2.5981    0.0000 C   0  0  0  0  0  0  0  0  0  0  0  0
    0.7500    1.2990    0.0000 C   0  0  0  0  0  0  0  0  0  0  0  0
  1  2  3  0
  2  3  1  0
  3  4  3  0
  4  5  1  0
  5  6  2  0
  6  7  1  0
  7  8  2  0
  8  9  1  0
  9 10  3  0
  8 11  1  0
 11 12  1  0
 11 13  2  0
 13  5  1  0
M  END
>  <Title>  (971) 
idABJKgen10

$$$$

     RDKit          2D

 15 15  0  0  0  0  0  0  0  0999 V2000
    9.7500   -9.0933    0.0000 C   0  0  0  0  0  0  0  0  0  0  0  0
    9.0000   -7.7942    0.0000 C   0  0  0  0  0  0  0  0  0  0  0  0
    8.2500   -6.4952    0.0000 C   0  0  0  0  0  0  0  0  0  0  0  0
    7.5000   -5.1962    0.0000 C   0  0  0  0  0  0  0  0  0  0  0  0
    6.7500   -3.8971    0.0000 C   0  0  0  0  0  0  0  0  0  0  0  0
    6.0000   -2.5981    0.0000 C   0  0  0  0  0  0  0  0  0  0  0  0
    5.2500   -1.2990    0.0000 C   0  0  0  0  0  0  0  0  0  0  0  0
    3.7500   -1.2990    0.0000 C   0  0  0  0  0  0  0  0  0  0  0  0
    3.0000    0.0000    0.0000 C   0  0  0  0  0  0  0  0  0  0  0  0
    1.5000    0.0000    0.0000 C   0  0  0  0  0  0  0  0  0  0  0  0
    0.7500   -1.2990    0.0000 C   0  0  0  0  0  0  0  0  0  0  0  0
   -0.7500   -1.2990    0.0000 C   0  0  0  0  0  0  0  0  0  0  0  0
   -1.5000    0.0000    0.0000 C   0  0  0  0  0  0  0  0  0  0  0  0
   -0.7500    1.2990    0.0000 C   0  0  0  0  0  0  0  0  0  0  0  0
    0.7500    1.2990    0.0000 C   0  0  0  0  0  0  0  0  0  0  0  0
  1  2  3  0
  2  3  1  0
  3  4  3  0
  4  5  1  0
  5  6  3  0
  6  7  1  0
  7  8  1  0
  8  9  1  0
  9 10  1  0
 10 11  2  0
 11 12  1  0
 12 13  2  0
 13 14  1  0
 14 15  2  0
 15 10  1  0
M  END
>  <Title>  (972) 
idABJLgen10

$$$$

     RDKit          2D

 10  9  0  0  0  0  0  0  0  0999 V2000
    0.0000    0.0000    0.0000 C   0  0  0  0  0  0  0  0  0  0  0  0
   -0.0000   -1.5000    0.0000 C   0  0  0  0  0  0  0  0  0  0  0  0
   -0.0000   -3.0000    0.0000 C   0  0  0  0  0  0  0  0  0  0  0  0
   -0.0000   -4.5000    0.0000 C   0  0  0  0  0  0  0  0  0  0  0  0
   -0.0000   -6.0000    0.0000 C   0  0  0  0  0  0  0  0  0  0  0  0
   -0.0000   -7.5000    0.0000 C   0  0  0  0  0  0  0  0  0  0  0  0
   -0.0000   -9.0000    0.0000 C   0  0  0  0  0  0  0  0  0  0  0  0
   -0.0000  -10.5000    0.0000 C   0  0  0  0  0  0  0  0  0  0  0  0
   -0.0000  -12.0000    0.0000 C   0  0  0  0  0  0  0  0  0  0  0  0
   -0.0000  -13.5000    0.0000 N   0  0  0  0  0  0  0  0  0  0  0  0
  1  2  3  0
  2  3  1  0
  3  4  3  0
  4  5  1  0
  5  6  3  0
  6  7  1  0
  7  8  3  0
  8  9  1  0
  9 10  3  0
M  END
>  <Title>  (973) 
idABJMgen10

$$$$

     RDKit          2D

 12 12  0  0  0  0  0  0  0  0999 V2000
    9.0000   -2.5981    0.0000 C   0  0  0  0  0  0  0  0  0  0  0  0
    7.5000   -2.5981    0.0000 C   0  0  0  0  0  0  0  0  0  0  0  0
    6.0000   -2.5981    0.0000 C   0  0  0  0  0  0  0  0  0  0  0  0
    5.2500   -1.2990    0.0000 C   0  0  0  0  0  0  0  0  0  0  0  0
    3.7500   -1.2990    0.0000 C   0  0  0  0  0  0  0  0  0  0  0  0
    3.0000    0.0000    0.0000 C   0  0  0  0  0  0  0  0  0  0  0  0
    1.5000    0.0000    0.0000 C   0  0  0  0  0  0  0  0  0  0  0  0
    0.7500   -1.2990    0.0000 C   0  0  0  0  0  0  0  0  0  0  0  0
   -0.7500   -1.2990    0.0000 C   0  0  0  0  0  0  0  0  0  0  0  0
   -1.5000    0.0000    0.0000 C   0  0  0  0  0  0  0  0  0  0  0  0
   -0.7500    1.2990    0.0000 C   0  0  0  0  0  0  0  0  0  0  0  0
    0.7500    1.2990    0.0000 C   0  0  0  0  0  0  0  0  0  0  0  0
  1  2  3  0
  2  3  1  0
  3  4  1  0
  4  5  1  0
  5  6  1  0
  6  7  1  0
  7  8  2  0
  8  9  1  0
  9 10  2  0
 10 11  1  0
 11 12  2  0
 12  7  1  0
M  END
>  <Title>  (974) 
idABJNgen10

$$$$

     RDKit          2D

 18 19  0  0  0  0  0  0  0  0999 V2000
    8.7718   -5.5288    0.0000 C   0  0  0  0  0  0  0  0  0  0  0  0
    7.5583   -4.6471    0.0000 C   0  0  0  0  0  0  0  0  0  0  0  0
    7.5583   -3.1471    0.0000 C   0  0  0  0  0  0  0  0  0  0  0  0
    6.1317   -2.6836    0.0000 C   0  0  0  0  0  0  0  0  0  0  0  0
    5.2500   -3.8971    0.0000 C   0  0  0  0  0  0  0  0  0  0  0  0
    3.7500   -3.8971    0.0000 C   0  0  0  0  0  0  0  0  0  0  0  0
    3.0000   -5.1962    0.0000 O   0  0  0  0  0  0  0  0  0  0  0  0
    3.0000   -2.5981    0.0000 N   0  0  0  0  0  0  0  0  0  0  0  0
    1.5000   -2.5981    0.0000 C   0  0  0  0  0  0  0  0  0  0  0  0
    0.7500   -3.8971    0.0000 C   0  0  0  0  0  0  0  0  0  0  0  0
    0.7500   -1.2990    0.0000 C   0  0  0  0  0  0  0  0  0  0  0  0
    1.5000    0.0000    0.0000 C   0  0  0  0  0  0  0  0  0  0  0  0
    0.7500    1.2990    0.0000 C   0  0  0  0  0  0  0  0  0  0  0  0
   -0.7500    1.2990    0.0000 C   0  0  0  0  0  0  0  0  0  0  0  0
   -1.5000    0.0000    0.0000 C   0  0  0  0  0  0  0  0  0  0  0  0
   -0.7500   -1.2990    0.0000 C   0  0  0  0  0  0  0  0  0  0  0  0
    6.1317   -5.1106    0.0000 C   0  0  0  0  0  0  0  0  0  0  0  0
    5.6682   -6.5372    0.0000 O   0  0  0  0  0  0  0  0  0  0  0  0
  1  2  1  0
  2  3  2  0
  3  4  1  0
  4  5  2  0
  5  6  1  0
  6  7  2  0
  6  8  1  0
  8  9  1  0
  9 10  1  0
  9 11  1  0
 11 12  2  0
 12 13  1  0
 13 14  2  0
 14 15  1  0
 15 16  2  0
  5 17  1  0
 17 18  2  0
 17  2  1  0
 16 11  1  0
M  END
>  <Title>  (975) 
idABJOgen10

$$$$

     RDKit          2D

 96 96  0  0  0  0  0  0  0  0999 V2000
   24.1837    0.0000    0.0000 O   0  0  0  0  0  0  0  0  0  0  0  0
   22.6837    0.0000    0.0000 C   0  0  0  0  0  0  0  0  0  0  0  0
   22.6341    1.4992    0.0000 C   0  0  0  0  0  0  0  0  0  0  0  0
   22.4856    2.9918    0.0000 C   0  0  0  0  0  0  0  0  0  0  0  0
   22.2387    4.4713    0.0000 C   0  0  0  0  0  0  0  0  0  0  0  0
   21.8945    5.9313    0.0000 C   0  0  0  0  0  0  0  0  0  0  0  0
   21.4546    7.3654    0.0000 C   0  0  0  0  0  0  0  0  0  0  0  0
   20.9210    8.7672    0.0000 C   0  0  0  0  0  0  0  0  0  0  0  0
   20.2958   10.1307    0.0000 C   0  0  0  0  0  0  0  0  0  0  0  0
   19.5819   11.4500    0.0000 C   0  0  0  0  0  0  0  0  0  0  0  0
   18.7823   12.7191    0.0000 C   0  0  0  0  0  0  0  0  0  0  0  0
   17.9006   13.9326    0.0000 C   0  0  0  0  0  0  0  0  0  0  0  0
   16.9407   15.0852    0.0000 C   0  0  0  0  0  0  0  0  0  0  0  0
   15.9067   16.1719    0.0000 C   0  0  0  0  0  0  0  0  0  0  0  0
   14.8031   17.1878    0.0000 C   0  0  0  0  0  0  0  0  0  0  0  0
   13.6348   18.1286    0.0000 C   0  0  0  0  0  0  0  0  0  0  0  0
   12.4068   18.9900    0.0000 C   0  0  0  0  0  0  0  0  0  0  0  0
   11.1246   19.7685    0.0000 C   0  0  0  0  0  0  0  0  0  0  0  0
    9.7938   20.4605    0.0000 C   0  0  0  0  0  0  0  0  0  0  0  0
    8.4201   21.0631    0.0000 C   0  0  0  0  0  0  0  0  0  0  0  0
    7.0097   21.5735    0.0000 C   0  0  0  0  0  0  0  0  0  0  0  0
    5.5685   21.9896    0.0000 C   0  0  0  0  0  0  0  0  0  0  0  0
    4.1030   22.3095    0.0000 C   0  0  0  0  0  0  0  0  0  0  0  0
    2.6196   22.5319    0.0000 C   0  0  0  0  0  0  0  0  0  0  0  0
    1.1247   22.6558    0.0000 C   0  0  0  0  0  0  0  0  0  0  0  0
   -0.3751   22.6806    0.0000 C   0  0  0  0  0  0  0  0  0  0  0  0
   -1.8732   22.6062    0.0000 C   0  0  0  0  0  0  0  0  0  0  0  0
   -3.3632   22.4330    0.0000 C   0  0  0  0  0  0  0  0  0  0  0  0
   -4.8384   22.1617    0.0000 C   0  0  0  0  0  0  0  0  0  0  0  0
   -6.2925   21.7935    0.0000 C   0  0  0  0  0  0  0  0  0  0  0  0
   -7.7191   21.3299    0.0000 C   0  0  0  0  0  0  0  0  0  0  0  0
   -9.1119   20.7731    0.0000 C   0  0  0  0  0  0  0  0  0  0  0  0
  -10.4649   20.1255    0.0000 C   0  0  0  0  0  0  0  0  0  0  0  0
  -11.7722   19.3899    0.0000 C   0  0  0  0  0  0  0  0  0  0  0  0
  -13.0279   18.5695    0.0000 C   0  0  0  0  0  0  0  0  0  0  0  0
  -14.2267   17.6678    0.0000 C   0  0  0  0  0  0  0  0  0  0  0  0
  -15.3633   16.6890    0.0000 C   0  0  0  0  0  0  0  0  0  0  0  0
  -16.4327   15.6371    0.0000 C   0  0  0  0  0  0  0  0  0  0  0  0
  -17.4302   14.5169    0.0000 C   0  0  0  0  0  0  0  0  0  0  0  0
  -18.3515   13.3332    0.0000 C   0  0  0  0  0  0  0  0  0  0  0  0
  -19.1926   12.0911    0.0000 C   0  0  0  0  0  0  0  0  0  0  0  0
  -19.9497   10.7963    0.0000 C   0  0  0  0  0  0  0  0  0  0  0  0
  -20.6196    9.4542    0.0000 C   0  0  0  0  0  0  0  0  0  0  0  0
  -21.1994    8.0707    0.0000 C   0  0  0  0  0  0  0  0  0  0  0  0
  -21.6864    6.6520    0.0000 C   0  0  0  0  0  0  0  0  0  0  0  0
  -22.0787    5.2042    0.0000 C   0  0  0  0  0  0  0  0  0  0  0  0
  -22.3743    3.7336    0.0000 C   0  0  0  0  0  0  0  0  0  0  0  0
  -22.5722    2.2467    0.0000 C   0  0  0  0  0  0  0  0  0  0  0  0
  -22.6713    0.7500    0.0000 C   0  0  0  0  0  0  0  0  0  0  0  0
  -22.6713   -0.7500    0.0000 C   0  0  0  0  0  0  0  0  0  0  0  0
  -22.5722   -2.2467    0.0000 C   0  0  0  0  0  0  0  0  0  0  0  0
  -22.3743   -3.7336    0.0000 C   0  0  0  0  0  0  0  0  0  0  0  0
  -22.0787   -5.2042    0.0000 C   0  0  0  0  0  0  0  0  0  0  0  0
  -21.6864   -6.6520    0.0000 C   0  0  0  0  0  0  0  0  0  0  0  0
  -21.1994   -8.0707    0.0000 C   0  0  0  0  0  0  0  0  0  0  0  0
  -20.6196   -9.4542    0.0000 C   0  0  0  0  0  0  0  0  0  0  0  0
  -19.9497  -10.7963    0.0000 C   0  0  0  0  0  0  0  0  0  0  0  0
  -19.1926  -12.0911    0.0000 C   0  0  0  0  0  0  0  0  0  0  0  0
  -18.3515  -13.3332    0.0000 C   0  0  0  0  0  0  0  0  0  0  0  0
  -17.4302  -14.5169    0.0000 C   0  0  0  0  0  0  0  0  0  0  0  0
  -16.4327  -15.6371    0.0000 C   0  0  0  0  0  0  0  0  0  0  0  0
  -15.3633  -16.6890    0.0000 C   0  0  0  0  0  0  0  0  0  0  0  0
  -14.2267  -17.6678    0.0000 C   0  0  0  0  0  0  0  0  0  0  0  0
  -13.0279  -18.5695    0.0000 C   0  0  0  0  0  0  0  0  0  0  0  0
  -11.7722  -19.3899    0.0000 C   0  0  0  0  0  0  0  0  0  0  0  0
  -10.4649  -20.1255    0.0000 C   0  0  0  0  0  0  0  0  0  0  0  0
   -9.1119  -20.7731    0.0000 C   0  0  0  0  0  0  0  0  0  0  0  0
   -7.7191  -21.3299    0.0000 C   0  0  0  0  0  0  0  0  0  0  0  0
   -6.2925  -21.7935    0.0000 C   0  0  0  0  0  0  0  0  0  0  0  0
   -4.8384  -22.1617    0.0000 C   0  0  0  0  0  0  0  0  0  0  0  0
   -3.3632  -22.4330    0.0000 C   0  0  0  0  0  0  0  0  0  0  0  0
   -1.8732  -22.6062    0.0000 C   0  0  0  0  0  0  0  0  0  0  0  0
   -0.3751  -22.6806    0.0000 C   0  0  0  0  0  0  0  0  0  0  0  0
    1.1247  -22.6558    0.0000 C   0  0  0  0  0  0  0  0  0  0  0  0
    2.6196  -22.5319    0.0000 C   0  0  0  0  0  0  0  0  0  0  0  0
    4.1030  -22.3095    0.0000 C   0  0  0  0  0  0  0  0  0  0  0  0
    5.5685  -21.9896    0.0000 C   0  0  0  0  0  0  0  0  0  0  0  0
    7.0097  -21.5735    0.0000 C   0  0  0  0  0  0  0  0  0  0  0  0
    8.4201  -21.0631    0.0000 C   0  0  0  0  0  0  0  0  0  0  0  0
    9.7938  -20.4605    0.0000 C   0  0  0  0  0  0  0  0  0  0  0  0
   11.1246  -19.7685    0.0000 C   0  0  0  0  0  0  0  0  0  0  0  0
   12.4068  -18.9900    0.0000 C   0  0  0  0  0  0  0  0  0  0  0  0
   13.6348  -18.1286    0.0000 C   0  0  0  0  0  0  0  0  0  0  0  0
   14.8031  -17.1878    0.0000 C   0  0  0  0  0  0  0  0  0  0  0  0
   15.9067  -16.1719    0.0000 C   0  0  0  0  0  0  0  0  0  0  0  0
   16.9407  -15.0852    0.0000 C   0  0  0  0  0  0  0  0  0  0  0  0
   17.9006  -13.9326    0.0000 C   0  0  0  0  0  0  0  0  0  0  0  0
   18.7823  -12.7191    0.0000 C   0  0  0  0  0  0  0  0  0  0  0  0
   19.5819  -11.4500    0.0000 C   0  0  0  0  0  0  0  0  0  0  0  0
   20.2958  -10.1307    0.0000 C   0  0  0  0  0  0  0  0  0  0  0  0
   20.9210   -8.7672    0.0000 C   0  0  0  0  0  0  0  0  0  0  0  0
   21.4546   -7.3654    0.0000 C   0  0  0  0  0  0  0  0  0  0  0  0
   21.8945   -5.9313    0.0000 C   0  0  0  0  0  0  0  0  0  0  0  0
   22.2387   -4.4713    0.0000 C   0  0  0  0  0  0  0  0  0  0  0  0
   22.4856   -2.9918    0.0000 C   0  0  0  0  0  0  0  0  0  0  0  0
   22.6341   -1.4992    0.0000 C   0  0  0  0  0  0  0  0  0  0  0  0
  1  2  1  0
  2  3  1  0
  3  4  1  0
  4  5  1  0
  5  6  1  0
  6  7  1  0
  7  8  1  0
  8  9  1  0
  9 10  1  0
 10 11  1  0
 11 12  1  0
 12 13  1  0
 13 14  1  0
 14 15  1  0
 15 16  1  0
 16 17  1  0
 17 18  1  0
 18 19  1  0
 19 20  1  0
 20 21  1  0
 21 22  1  0
 22 23  1  0
 23 24  1  0
 24 25  1  0
 25 26  1  0
 26 27  1  0
 27 28  1  0
 28 29  1  0
 29 30  1  0
 30 31  1  0
 31 32  1  0
 32 33  1  0
 33 34  1  0
 34 35  1  0
 35 36  1  0
 36 37  1  0
 37 38  1  0
 38 39  1  0
 39 40  1  0
 40 41  1  0
 41 42  1  0
 42 43  1  0
 43 44  1  0
 44 45  1  0
 45 46  1  0
 46 47  1  0
 47 48  1  0
 48 49  1  0
 49 50  1  0
 50 51  1  0
 51 52  1  0
 52 53  1  0
 53 54  1  0
 54 55  1  0
 55 56  1  0
 56 57  1  0
 57 58  1  0
 58 59  1  0
 59 60  1  0
 60 61  1  0
 61 62  1  0
 62 63  1  0
 63 64  1  0
 64 65  1  0
 65 66  1  0
 66 67  1  0
 67 68  1  0
 68 69  1  0
 69 70  1  0
 70 71  1  0
 71 72  1  0
 72 73  1  0
 73 74  1  0
 74 75  1  0
 75 76  1  0
 76 77  1  0
 77 78  1  0
 78 79  1  0
 79 80  1  0
 80 81  1  0
 81 82  1  0
 82 83  1  0
 83 84  1  0
 84 85  1  0
 85 86  1  0
 86 87  1  0
 87 88  1  0
 88 89  1  0
 89 90  1  0
 90 91  1  0
 91 92  1  0
 92 93  1  0
 93 94  1  0
 94 95  1  0
 95 96  1  0
 96  2  1  0
M  END
>  <Title>  (976) 
idABJPgen10

$$$$

     RDKit          2D

 12 13  0  0  0  0  0  0  0  0999 V2000
   -4.7084   -3.0832    0.0000 C   0  0  0  0  0  0  0  0  0  0  0  0
   -3.2595   -3.4715    0.0000 C   0  0  0  0  0  0  0  0  0  0  0  0
   -1.8107   -3.8597    0.0000 C   0  0  0  0  0  0  0  0  0  0  0  0
   -1.4224   -5.3086    0.0000 O   0  0  0  0  0  0  0  0  0  0  0  0
   -0.7500   -2.7990    0.0000 C   0  0  0  0  0  0  0  0  0  0  0  0
    0.7500   -2.7990    0.0000 C   0  0  0  0  0  0  0  0  0  0  0  0
    0.7500   -1.2990    0.0000 C   0  0  0  0  0  0  0  0  0  0  0  0
    1.5000    0.0000    0.0000 C   0  0  0  0  0  0  0  0  0  0  0  0
    0.7500    1.2990    0.0000 C   0  0  0  0  0  0  0  0  0  0  0  0
   -0.7500    1.2990    0.0000 C   0  0  0  0  0  0  0  0  0  0  0  0
   -1.5000    0.0000    0.0000 N   0  0  0  0  0  0  0  0  0  0  0  0
   -0.7500   -1.2990    0.0000 C   0  0  0  0  0  0  0  0  0  0  0  0
  1  2  3  0
  2  3  1  0
  3  4  2  0
  3  5  1  0
  5  6  2  0
  6  7  1  0
  7  8  2  0
  8  9  1  0
  9 10  2  0
 10 11  1  0
 11 12  2  0
 12  5  1  0
 12  7  1  0
M  END
>  <Title>  (977) 
idABJQgen10

$$$$

     RDKit          2D

 71 72  0  0  0  0  0  0  0  0999 V2000
   -2.2371   -1.0554    0.0000 C   0  0  0  0  0  0  0  0  0  0  0  0
   -2.4960    0.4221    0.0000 C   0  0  0  0  0  0  0  0  0  0  0  0
   -3.9840    0.2327    0.0000 C   0  0  0  0  0  0  0  0  0  0  0  0
   -5.4832    0.1835    0.0000 C   0  0  0  0  0  0  0  0  0  0  0  0
   -6.9804    0.2749    0.0000 C   0  0  0  0  0  0  0  0  0  0  0  0
   -8.4625    0.5060    0.0000 C   0  0  0  0  0  0  0  0  0  0  0  0
   -9.9164    0.8750    0.0000 C   0  0  0  0  0  0  0  0  0  0  0  0
  -11.3294    1.3785    0.0000 C   0  0  0  0  0  0  0  0  0  0  0  0
  -12.6890    2.0120    0.0000 C   0  0  0  0  0  0  0  0  0  0  0  0
  -13.9833    2.7701    0.0000 C   0  0  0  0  0  0  0  0  0  0  0  0
  -15.2010    3.6461    0.0000 C   0  0  0  0  0  0  0  0  0  0  0  0
  -16.3313    4.6323    0.0000 C   0  0  0  0  0  0  0  0  0  0  0  0
  -17.3642    5.7199    0.0000 C   0  0  0  0  0  0  0  0  0  0  0  0
  -18.2908    6.8995    0.0000 C   0  0  0  0  0  0  0  0  0  0  0  0
  -19.1028    8.1607    0.0000 C   0  0  0  0  0  0  0  0  0  0  0  0
  -19.7932    9.4924    0.0000 C   0  0  0  0  0  0  0  0  0  0  0  0
  -20.3558   10.8829    0.0000 C   0  0  0  0  0  0  0  0  0  0  0  0
  -20.7858   12.3199    0.0000 C   0  0  0  0  0  0  0  0  0  0  0  0
  -21.0793   13.7909    0.0000 C   0  0  0  0  0  0  0  0  0  0  0  0
  -21.2337   15.2830    0.0000 C   0  0  0  0  0  0  0  0  0  0  0  0
  -21.2478   16.7829    0.0000 C   0  0  0  0  0  0  0  0  0  0  0  0
  -21.1213   18.2776    0.0000 C   0  0  0  0  0  0  0  0  0  0  0  0
  -20.8555   19.7538    0.0000 C   0  0  0  0  0  0  0  0  0  0  0  0
  -20.4526   21.1987    0.0000 C   0  0  0  0  0  0  0  0  0  0  0  0
  -19.9161   22.5995    0.0000 C   0  0  0  0  0  0  0  0  0  0  0  0
  -19.2508   23.9439    0.0000 C   0  0  0  0  0  0  0  0  0  0  0  0
  -18.4626   25.2201    0.0000 C   0  0  0  0  0  0  0  0  0  0  0  0
  -17.5583   26.4169    0.0000 C   0  0  0  0  0  0  0  0  0  0  0  0
  -16.5459   27.5237    0.0000 C   0  0  0  0  0  0  0  0  0  0  0  0
  -15.4344   28.5309    0.0000 C   0  0  0  0  0  0  0  0  0  0  0  0
  -14.2334   29.4295    0.0000 C   0  0  0  0  0  0  0  0  0  0  0  0
  -12.9535   30.2118    0.0000 C   0  0  0  0  0  0  0  0  0  0  0  0
  -11.6060   30.8707    0.0000 C   0  0  0  0  0  0  0  0  0  0  0  0
  -10.2027   31.4006    0.0000 C   0  0  0  0  0  0  0  0  0  0  0  0
   -8.7559   31.7968    0.0000 C   0  0  0  0  0  0  0  0  0  0  0  0
   -7.2785   32.0557    0.0000 C   0  0  0  0  0  0  0  0  0  0  0  0
   -5.7832   32.1751    0.0000 C   0  0  0  0  0  0  0  0  0  0  0  0
   -4.2834   32.1540    0.0000 C   0  0  0  0  0  0  0  0  0  0  0  0
   -2.7921   31.9926    0.0000 C   0  0  0  0  0  0  0  0  0  0  0  0
   -1.3225   31.6922    0.0000 C   0  0  0  0  0  0  0  0  0  0  0  0
    0.1126   31.2555    0.0000 C   0  0  0  0  0  0  0  0  0  0  0  0
    1.5004   30.6864    0.0000 C   0  0  0  0  0  0  0  0  0  0  0  0
    2.8288   29.9898    0.0000 C   0  0  0  0  0  0  0  0  0  0  0  0
    4.0862   29.1718    0.0000 C   0  0  0  0  0  0  0  0  0  0  0  0
    5.2614   28.2397    0.0000 C   0  0  0  0  0  0  0  0  0  0  0  0
    6.3442   27.2017    0.0000 C   0  0  0  0  0  0  0  0  0  0  0  0
    7.3251   26.0668    0.0000 C   0  0  0  0  0  0  0  0  0  0  0  0
    8.1953   24.8451    0.0000 C   0  0  0  0  0  0  0  0  0  0  0  0
    8.9474   23.5472    0.0000 C   0  0  0  0  0  0  0  0  0  0  0  0
    9.5746   22.1846    0.0000 C   0  0  0  0  0  0  0  0  0  0  0  0
   10.0714   20.7693    0.0000 C   0  0  0  0  0  0  0  0  0  0  0  0
   10.4335   19.3137    0.0000 C   0  0  0  0  0  0  0  0  0  0  0  0
   10.6578   17.8305    0.0000 C   0  0  0  0  0  0  0  0  0  0  0  0
   10.7421   16.3329    0.0000 C   0  0  0  0  0  0  0  0  0  0  0  0
   10.6859   14.8339    0.0000 C   0  0  0  0  0  0  0  0  0  0  0  0
   10.4895   13.3468    0.0000 C   0  0  0  0  0  0  0  0  0  0  0  0
   10.1547   11.8847    0.0000 C   0  0  0  0  0  0  0  0  0  0  0  0
    9.6845   10.4603    0.0000 C   0  0  0  0  0  0  0  0  0  0  0  0
    9.0830    9.0862    0.0000 C   0  0  0  0  0  0  0  0  0  0  0  0
    8.3554    7.7744    0.0000 C   0  0  0  0  0  0  0  0  0  0  0  0
    7.5082    6.5366    0.0000 C   0  0  0  0  0  0  0  0  0  0  0  0
    6.5489    5.3835    0.0000 C   0  0  0  0  0  0  0  0  0  0  0  0
    5.4857    4.3253    0.0000 C   0  0  0  0  0  0  0  0  0  0  0  0
    4.3282    3.3714    0.0000 C   0  0  0  0  0  0  0  0  0  0  0  0
    3.0863    2.5300    0.0000 C   0  0  0  0  0  0  0  0  0  0  0  0
    1.7712    1.8086    0.0000 C   0  0  0  0  0  0  0  0  0  0  0  0
    0.3943    1.2135    0.0000 C   0  0  0  0  0  0  0  0  0  0  0  0
    1.2760    0.0000    0.0000 C   0  0  0  0  0  0  0  0  0  0  0  0
    0.3943   -1.2135    0.0000 C   0  0  0  0  0  0  0  0  0  0  0  0
   -1.0323   -0.7500    0.0000 C   0  0  0  0  0  0  0  0  0  0  0  0
   -1.0323    0.7500    0.0000 C   0  0  0  0  0  0  0  0  0  0  0  0
  1  2  1  0
  2  3  1  0
  3  4  1  0
  4  5  1  0
  5  6  1  0
  6  7  1  0
  7  8  1  0
  8  9  2  0
  9 10  1  0
 10 11  2  0
 11 12  1  0
 12 13  2  0
 13 14  1  0
 14 15  2  0
 15 16  1  0
 16 17  2  0
 17 18  1  0
 18 19  2  0
 19 20  1  0
 20 21  2  0
 21 22  1  0
 22 23  2  0
 23 24  1  0
 24 25  2  0
 25 26  1  0
 26 27  2  0
 27 28  1  0
 28 29  2  0
 29 30  1  0
 30 31  2  0
 31 32  1  0
 32 33  2  0
 33 34  1  0
 34 35  2  0
 35 36  1  0
 36 37  2  0
 37 38  1  0
 38 39  2  0
 39 40  1  0
 40 41  2  0
 41 42  1  0
 42 43  2  0
 43 44  1  0
 44 45  2  0
 45 46  1  0
 46 47  2  0
 47 48  1  0
 48 49  2  0
 49 50  1  0
 50 51  2  0
 51 52  1  0
 52 53  2  0
 53 54  1  0
 54 55  2  0
 55 56  1  0
 56 57  2  0
 57 58  1  0
 58 59  2  0
 59 60  1  0
 60 61  2  0
 61 62  1  0
 62 63  2  0
 63 64  1  0
 64 65  2  0
 65 66  1  0
 66 67  2  0
 67 68  1  0
 68 69  2  0
 69 70  1  0
 70 71  2  0
 71  2  1  0
 71 67  1  0
M  END
>  <Title>  (978) 
idABJRgen10

$$$$

     RDKit          2D

  7  7  0  0  0  0  0  0  0  0999 V2000
    3.0000    0.0000    0.0000 C   0  0  0  0  0  0  0  0  0  0  0  0
    1.5000    0.0000    0.0000 C   0  0  0  0  0  0  0  0  0  0  0  0
    0.7500   -1.2990    0.0000 C   0  0  0  0  0  0  0  0  0  0  0  0
   -0.7500   -1.2990    0.0000 C   0  0  0  0  0  0  0  0  0  0  0  0
   -1.5000    0.0000    0.0000 C   0  0  0  0  0  0  0  0  0  0  0  0
   -0.7500    1.2990    0.0000 C   0  0  0  0  0  0  0  0  0  0  0  0
    0.7500    1.2990    0.0000 C   0  0  0  0  0  0  0  0  0  0  0  0
  1  2  1  0
  2  3  2  0
  3  4  1  0
  4  5  1  0
  5  6  1  0
  6  7  2  0
  7  2  1  0
M  END
>  <Title>  (979) 
idABJSgen10

$$$$

     RDKit          2D

 55 56  0  0  0  0  0  0  0  0999 V2000
    6.6663    0.7308    0.0000 C   0  0  0  0  0  0  0  0  0  0  0  0
    8.3614   -0.6715    0.0000 C   0  0  0  0  0  0  0  0  0  0  0  0
    9.3269    0.2352    0.0000 C   0  0  0  0  0  0  0  0  0  0  0  0
   10.4876    0.8733    0.0000 C   0  0  0  0  0  0  0  0  0  0  0  0
   11.7705    1.2027    0.0000 C   0  0  0  0  0  0  0  0  0  0  0  0
   13.0951    1.2027    0.0000 C   0  0  0  0  0  0  0  0  0  0  0  0
   14.3780    0.8733    0.0000 C   0  0  0  0  0  0  0  0  0  0  0  0
   15.5387    0.2352    0.0000 C   0  0  0  0  0  0  0  0  0  0  0  0
   16.5042   -0.6715    0.0000 C   0  0  0  0  0  0  0  0  0  0  0  0
   17.2140   -1.7898    0.0000 C   0  0  0  0  0  0  0  0  0  0  0  0
   17.6233   -3.0495    0.0000 C   0  0  0  0  0  0  0  0  0  0  0  0
   17.7064   -4.3715    0.0000 C   0  0  0  0  0  0  0  0  0  0  0  0
   17.4582   -5.6725    0.0000 C   0  0  0  0  0  0  0  0  0  0  0  0
   16.8943   -6.8710    0.0000 C   0  0  0  0  0  0  0  0  0  0  0  0
   16.0500   -7.8916    0.0000 C   0  0  0  0  0  0  0  0  0  0  0  0
   14.9784   -8.6701    0.0000 C   0  0  0  0  0  0  0  0  0  0  0  0
   13.7469   -9.1577    0.0000 C   0  0  0  0  0  0  0  0  0  0  0  0
   12.4328   -9.3237    0.0000 C   0  0  0  0  0  0  0  0  0  0  0  0
   11.1187   -9.1577    0.0000 C   0  0  0  0  0  0  0  0  0  0  0  0
    9.8872   -8.6701    0.0000 C   0  0  0  0  0  0  0  0  0  0  0  0
    8.8156   -7.8916    0.0000 C   0  0  0  0  0  0  0  0  0  0  0  0
    7.9713   -6.8710    0.0000 C   0  0  0  0  0  0  0  0  0  0  0  0
    7.4074   -5.6725    0.0000 C   0  0  0  0  0  0  0  0  0  0  0  0
    7.1592   -4.3715    0.0000 C   0  0  0  0  0  0  0  0  0  0  0  0
    6.5548   -2.9184    0.0000 C   0  0  0  0  0  0  0  0  0  0  0  0
    7.0183   -1.4918    0.0000 C   0  0  0  0  0  0  0  0  0  0  0  0
    7.1751    0.0000    0.0000 C   0  0  0  0  0  0  0  0  0  0  0  0
    7.0183    1.4918    0.0000 C   0  0  0  0  0  0  0  0  0  0  0  0
    6.5548    2.9184    0.0000 C   0  0  0  0  0  0  0  0  0  0  0  0
    5.8048    4.2174    0.0000 C   0  0  0  0  0  0  0  0  0  0  0  0
    4.8011    5.3321    0.0000 C   0  0  0  0  0  0  0  0  0  0  0  0
    3.5875    6.2138    0.0000 C   0  0  0  0  0  0  0  0  0  0  0  0
    2.2172    6.8239    0.0000 C   0  0  0  0  0  0  0  0  0  0  0  0
    0.7500    7.1358    0.0000 C   0  0  0  0  0  0  0  0  0  0  0  0
   -0.7500    7.1358    0.0000 C   0  0  0  0  0  0  0  0  0  0  0  0
   -2.2172    6.8239    0.0000 C   0  0  0  0  0  0  0  0  0  0  0  0
   -3.5875    6.2138    0.0000 C   0  0  0  0  0  0  0  0  0  0  0  0
   -4.8011    5.3321    0.0000 C   0  0  0  0  0  0  0  0  0  0  0  0
   -5.8048    4.2174    0.0000 C   0  0  0  0  0  0  0  0  0  0  0  0
   -6.5548    2.9184    0.0000 C   0  0  0  0  0  0  0  0  0  0  0  0
   -7.0183    1.4918    0.0000 C   0  0  0  0  0  0  0  0  0  0  0  0
   -7.1751    0.0000    0.0000 C   0  0  0  0  0  0  0  0  0  0  0  0
   -7.0183   -1.4918    0.0000 C   0  0  0  0  0  0  0  0  0  0  0  0
   -6.5548   -2.9184    0.0000 C   0  0  0  0  0  0  0  0  0  0  0  0
   -5.8048   -4.2174    0.0000 C   0  0  0  0  0  0  0  0  0  0  0  0
   -4.8011   -5.3321    0.0000 C   0  0  0  0  0  0  0  0  0  0  0  0
   -3.5875   -6.2138    0.0000 C   0  0  0  0  0  0  0  0  0  0  0  0
   -2.2172   -6.8239    0.0000 C   0  0  0  0  0  0  0  0  0  0  0  0
   -0.7500   -7.1358    0.0000 C   0  0  0  0  0  0  0  0  0  0  0  0
    0.7500   -7.1358    0.0000 C   0  0  0  0  0  0  0  0  0  0  0  0
    2.2172   -6.8239    0.0000 C   0  0  0  0  0  0  0  0  0  0  0  0
    3.5875   -6.2138    0.0000 C   0  0  0  0  0  0  0  0  0  0  0  0
    4.8011   -5.3321    0.0000 C   0  0  0  0  0  0  0  0  0  0  0  0
    5.8048   -4.2174    0.0000 C   0  0  0  0  0  0  0  0  0  0  0  0
    6.6010   -4.7959    0.0000 C   0  0  0  0  0  0  0  0  0  0  0  0
  1  2  1  0
  2  3  2  0
  3  4  1  0
  4  5  2  0
  5  6  1  0
  6  7  2  0
  7  8  1  0
  8  9  2  0
  9 10  1  0
 10 11  2  0
 11 12  1  0
 12 13  2  0
 13 14  1  0
 14 15  2  0
 15 16  1  0
 16 17  2  0
 17 18  1  0
 18 19  2  0
 19 20  1  0
 20 21  2  0
 21 22  1  0
 22 23  2  0
 23 24  1  0
 24 25  2  0
 25 26  1  0
 26 27  2  0
 27 28  1  0
 28 29  2  0
 29 30  1  0
 30 31  2  0
 31 32  1  0
 32 33  2  0
 33 34  1  0
 34 35  2  0
 35 36  1  0
 36 37  2  0
 37 38  1  0
 38 39  2  0
 39 40  1  0
 40 41  2  0
 41 42  1  0
 42 43  2  0
 43 44  1  0
 44 45  2  0
 45 46  1  0
 46 47  2  0
 47 48  1  0
 48 49  2  0
 49 50  1  0
 50 51  2  0
 51 52  1  0
 52 53  2  0
 53 54  1  0
 54 55  1  0
 26  2  1  0
 54 25  1  0
M  END
>  <Title>  (980) 
idABJTgen10

$$$$

     RDKit          2D

  9  9  0  0  0  0  0  0  0  0999 V2000
    3.0000    0.0000    0.0000 C   0  0  0  0  0  0  0  0  0  0  0  0
    1.5000    0.0000    0.0000 C   0  0  0  0  0  0  0  0  0  0  0  0
    0.7500   -1.2990    0.0000 C   0  0  0  0  0  0  0  0  0  0  0  0
   -0.7500   -1.2990    0.0000 C   0  0  0  0  0  0  0  0  0  0  0  0
   -1.5000    0.0000    0.0000 C   0  0  0  0  0  0  0  0  0  0  0  0
   -0.7500    1.2990    0.0000 C   0  0  0  0  0  0  0  0  0  0  0  0
    0.7500    1.2990    0.0000 C   0  0  0  0  0  0  0  0  0  0  0  0
    1.5000    2.5981    0.0000 C   0  0  0  0  0  0  0  0  0  0  0  0
    2.2500    3.8971    0.0000 N   0  0  0  0  0  0  0  0  0  0  0  0
  1  2  1  0
  2  3  2  0
  3  4  1  0
  4  5  2  0
  5  6  1  0
  6  7  2  0
  7  8  1  0
  8  9  3  0
  7  2  1  0
M  END
>  <Title>  (981) 
idABJUgen10

$$$$

     RDKit          2D

 14 13  0  0  0  0  0  0  0  0999 V2000
    0.0000    0.0000    0.0000 C   0  0  0  0  0  0  0  0  0  0  0  0
   -0.0000   -1.5000    0.0000 C   0  0  0  0  0  0  0  0  0  0  0  0
   -0.0000   -3.0000    0.0000 C   0  0  0  0  0  0  0  0  0  0  0  0
   -0.0000   -4.5000    0.0000 C   0  0  0  0  0  0  0  0  0  0  0  0
   -0.0000   -6.0000    0.0000 C   0  0  0  0  0  0  0  0  0  0  0  0
   -0.0000   -7.5000    0.0000 C   0  0  0  0  0  0  0  0  0  0  0  0
   -0.0000   -9.0000    0.0000 C   0  0  0  0  0  0  0  0  0  0  0  0
    1.2990   -9.7500    0.0000 C   0  0  0  0  0  0  0  0  0  0  0  0
    1.2990  -11.2500    0.0000 C   0  0  0  0  0  0  0  0  0  0  0  0
    2.5981  -12.0000    0.0000 C   0  0  0  0  0  0  0  0  0  0  0  0
    2.5981  -13.5000    0.0000 C   0  0  0  0  0  0  0  0  0  0  0  0
    3.8971  -14.2500    0.0000 C   0  0  0  0  0  0  0  0  0  0  0  0
    3.8971  -15.7500    0.0000 C   0  0  0  0  0  0  0  0  0  0  0  0
    5.1962  -16.5000    0.0000 C   0  0  0  0  0  0  0  0  0  0  0  0
  1  2  3  0
  2  3  1  0
  3  4  3  0
  4  5  1  0
  5  6  3  0
  6  7  1  0
  7  8  1  0
  8  9  1  0
  9 10  1  0
 10 11  1  0
 11 12  1  0
 12 13  1  0
 13 14  1  0
M  END
>  <Title>  (982) 
idABJVgen10

$$$$

     RDKit          2D

 23 24  0  0  0  0  0  0  0  0999 V2000
    7.0764   10.9570    0.0000 C   0  0  0  0  0  0  0  0  0  0  0  0
    7.6244    9.5607    0.0000 C   0  0  0  0  0  0  0  0  0  0  0  0
    8.1724    8.1644    0.0000 C   0  0  0  0  0  0  0  0  0  0  0  0
    8.7204    6.7681    0.0000 C   0  0  0  0  0  0  0  0  0  0  0  0
    9.2684    5.3718    0.0000 C   0  0  0  0  0  0  0  0  0  0  0  0
   10.7517    5.1482    0.0000 C   0  0  0  0  0  0  0  0  0  0  0  0
   11.2997    3.7519    0.0000 C   0  0  0  0  0  0  0  0  0  0  0  0
   12.7829    3.5283    0.0000 C   0  0  0  0  0  0  0  0  0  0  0  0
   10.3644    2.5791    0.0000 C   0  0  0  0  0  0  0  0  0  0  0  0
    8.8812    2.8027    0.0000 C   0  0  0  0  0  0  0  0  0  0  0  0
    8.3332    4.1990    0.0000 C   0  0  0  0  0  0  0  0  0  0  0  0
    6.8499    4.4226    0.0000 C   0  0  0  0  0  0  0  0  0  0  0  0
    5.9147    3.2498    0.0000 C   0  0  0  0  0  0  0  0  0  0  0  0
    4.4315    3.4734    0.0000 C   0  0  0  0  0  0  0  0  0  0  0  0
    3.4962    2.3006    0.0000 C   0  0  0  0  0  0  0  0  0  0  0  0
    2.0130    2.5242    0.0000 C   0  0  0  0  0  0  0  0  0  0  0  0
    1.0777    1.3515    0.0000 C   0  0  0  0  0  0  0  0  0  0  0  0
    1.7286    0.0000    0.0000 C   0  0  0  0  0  0  0  0  0  0  0  0
    1.0777   -1.3515    0.0000 C   0  0  0  0  0  0  0  0  0  0  0  0
   -0.3846   -1.6852    0.0000 C   0  0  0  0  0  0  0  0  0  0  0  0
   -1.5574   -0.7500    0.0000 C   0  0  0  0  0  0  0  0  0  0  0  0
   -1.5574    0.7500    0.0000 C   0  0  0  0  0  0  0  0  0  0  0  0
   -0.3846    1.6852    0.0000 O   0  0  0  0  0  0  0  0  0  0  0  0
  1  2  3  0
  2  3  1  0
  3  4  3  0
  4  5  1  0
  5  6  2  0
  6  7  1  0
  7  8  1  0
  7  9  2  0
  9 10  1  0
 10 11  2  0
 11 12  1  0
 12 13  2  3
 13 14  1  0
 14 15  2  3
 15 16  1  0
 16 17  2  3
 17 18  1  0
 18 19  2  0
 19 20  1  0
 20 21  2  0
 21 22  1  0
 22 23  1  0
 11  5  1  0
 23 17  1  0
M  END
>  <Title>  (983) 
idABJWgen10

$$$$

     RDKit          2D

 71 77  0  0  0  0  0  0  0  0999 V2000
  -12.1573   -8.7315    0.0000 C   0  0  0  0  0  0  0  0  0  0  0  0
  -10.7246   -9.1759    0.0000 C   0  0  0  0  0  0  0  0  0  0  0  0
  -11.0724  -10.6351    0.0000 C   0  0  0  0  0  0  0  0  0  0  0  0
  -11.2225  -12.1275    0.0000 C   0  0  0  0  0  0  0  0  0  0  0  0
  -11.1724  -13.6267    0.0000 C   0  0  0  0  0  0  0  0  0  0  0  0
  -10.9229  -15.1058    0.0000 C   0  0  0  0  0  0  0  0  0  0  0  0
  -10.4785  -16.5385    0.0000 C   0  0  0  0  0  0  0  0  0  0  0  0
   -9.8471  -17.8991    0.0000 C   0  0  0  0  0  0  0  0  0  0  0  0
   -9.0400  -19.1634    0.0000 C   0  0  0  0  0  0  0  0  0  0  0  0
   -8.0715  -20.3089    0.0000 C   0  0  0  0  0  0  0  0  0  0  0  0
   -6.9590  -21.3151    0.0000 C   0  0  0  0  0  0  0  0  0  0  0  0
   -5.7224  -22.1640    0.0000 C   0  0  0  0  0  0  0  0  0  0  0  0
   -4.3836  -22.8405    0.0000 C   0  0  0  0  0  0  0  0  0  0  0  0
   -2.9666  -23.3326    0.0000 C   0  0  0  0  0  0  0  0  0  0  0  0
   -1.4967  -23.6313    0.0000 C   0  0  0  0  0  0  0  0  0  0  0  0
   -0.0000  -23.7315    0.0000 C   0  0  0  0  0  0  0  0  0  0  0  0
    1.4967  -23.6313    0.0000 C   0  0  0  0  0  0  0  0  0  0  0  0
    2.9666  -23.3326    0.0000 C   0  0  0  0  0  0  0  0  0  0  0  0
    4.3836  -22.8405    0.0000 C   0  0  0  0  0  0  0  0  0  0  0  0
    5.7224  -22.1640    0.0000 C   0  0  0  0  0  0  0  0  0  0  0  0
    6.9590  -21.3151    0.0000 C   0  0  0  0  0  0  0  0  0  0  0  0
    8.0715  -20.3089    0.0000 C   0  0  0  0  0  0  0  0  0  0  0  0
    9.0400  -19.1634    0.0000 C   0  0  0  0  0  0  0  0  0  0  0  0
    9.8471  -17.8991    0.0000 C   0  0  0  0  0  0  0  0  0  0  0  0
   10.4785  -16.5385    0.0000 C   0  0  0  0  0  0  0  0  0  0  0  0
   10.9229  -15.1058    0.0000 C   0  0  0  0  0  0  0  0  0  0  0  0
   11.1724  -13.6267    0.0000 C   0  0  0  0  0  0  0  0  0  0  0  0
   11.2225  -12.1275    0.0000 C   0  0  0  0  0  0  0  0  0  0  0  0
   11.0724  -10.6351    0.0000 C   0  0  0  0  0  0  0  0  0  0  0  0
   10.7246   -9.1759    0.0000 C   0  0  0  0  0  0  0  0  0  0  0  0
   10.1855   -7.7762    0.0000 C   0  0  0  0  0  0  0  0  0  0  0  0
    9.4647   -6.4607    0.0000 C   0  0  0  0  0  0  0  0  0  0  0  0
    8.5749   -5.2531    0.0000 C   0  0  0  0  0  0  0  0  0  0  0  0
    7.5321   -4.1749    0.0000 C   0  0  0  0  0  0  0  0  0  0  0  0
    6.3549   -3.2453    0.0000 C   0  0  0  0  0  0  0  0  0  0  0  0
    5.0643   -2.4808    0.0000 C   0  0  0  0  0  0  0  0  0  0  0  0
    3.6833   -1.8953    0.0000 C   0  0  0  0  0  0  0  0  0  0  0  0
    3.7535   -3.3936    0.0000 C   0  0  0  0  0  0  0  0  0  0  0  0
    2.3501   -3.9234    0.0000 C   0  0  0  0  0  0  0  0  0  0  0  0
    1.4127   -2.7524    0.0000 C   0  0  0  0  0  0  0  0  0  0  0  0
    2.2366   -1.4990    0.0000 C   0  0  0  0  0  0  0  0  0  0  0  0
    0.7500   -1.2990    0.0000 C   0  0  0  0  0  0  0  0  0  0  0  0
    1.5000    0.0000    0.0000 C   0  0  0  0  0  0  0  0  0  0  0  0
    0.7500    1.2990    0.0000 C   0  0  0  0  0  0  0  0  0  0  0  0
   -0.7500    1.2990    0.0000 C   0  0  0  0  0  0  0  0  0  0  0  0
   -1.5000    0.0000    0.0000 C   0  0  0  0  0  0  0  0  0  0  0  0
   -0.7500   -1.2990    0.0000 C   0  0  0  0  0  0  0  0  0  0  0  0
   -2.2366   -1.4990    0.0000 C   0  0  0  0  0  0  0  0  0  0  0  0
   -1.1701   -2.5537    0.0000 C   0  0  0  0  0  0  0  0  0  0  0  0
   -1.5502   -4.0047    0.0000 C   0  0  0  0  0  0  0  0  0  0  0  0
   -2.9969   -4.4010    0.0000 C   0  0  0  0  0  0  0  0  0  0  0  0
   -4.0635   -3.3463    0.0000 C   0  0  0  0  0  0  0  0  0  0  0  0
   -3.6833   -1.8953    0.0000 C   0  0  0  0  0  0  0  0  0  0  0  0
   -5.0643   -2.4808    0.0000 C   0  0  0  0  0  0  0  0  0  0  0  0
   -5.0810   -0.9809    0.0000 C   0  0  0  0  0  0  0  0  0  0  0  0
   -6.3883   -0.2455    0.0000 C   0  0  0  0  0  0  0  0  0  0  0  0
   -7.6789   -1.0099    0.0000 C   0  0  0  0  0  0  0  0  0  0  0  0
   -7.6622   -2.5098    0.0000 C   0  0  0  0  0  0  0  0  0  0  0  0
   -6.3549   -3.2453    0.0000 C   0  0  0  0  0  0  0  0  0  0  0  0
   -7.5321   -4.1749    0.0000 C   0  0  0  0  0  0  0  0  0  0  0  0
   -8.4311   -3.2359    0.0000 C   0  0  0  0  0  0  0  0  0  0  0  0
   -9.2072   -3.0418    0.0000 C   0  0  0  0  0  0  0  0  0  0  0  0
   -9.7634   -3.6168    0.0000 C   0  0  0  0  0  0  0  0  0  0  0  0
   -9.5434   -4.3860    0.0000 C   0  0  0  0  0  0  0  0  0  0  0  0
   -8.5749   -5.2531    0.0000 C   0  0  0  0  0  0  0  0  0  0  0  0
   -9.4647   -6.4607    0.0000 C   0  0  0  0  0  0  0  0  0  0  0  0
   -7.9650   -6.4273    0.0000 C   0  0  0  0  0  0  0  0  0  0  0  0
   -7.1863   -7.7093    0.0000 C   0  0  0  0  0  0  0  0  0  0  0  0
   -7.9071   -9.0247    0.0000 C   0  0  0  0  0  0  0  0  0  0  0  0
   -9.4068   -9.0582    0.0000 C   0  0  0  0  0  0  0  0  0  0  0  0
  -10.1855   -7.7762    0.0000 C   0  0  0  0  0  0  0  0  0  0  0  0
  1  2  1  0
  2  3  1  0
  3  4  1  0
  4  5  1  0
  5  6  1  0
  6  7  2  0
  7  8  1  0
  8  9  2  0
  9 10  1  0
 10 11  2  0
 11 12  1  0
 12 13  2  0
 13 14  1  0
 14 15  2  0
 15 16  1  0
 16 17  2  0
 17 18  1  0
 18 19  2  0
 19 20  1  0
 20 21  2  0
 21 22  1  0
 22 23  2  0
 23 24  1  0
 24 25  2  0
 25 26  1  0
 26 27  2  0
 27 28  1  0
 28 29  2  0
 29 30  1  0
 30 31  2  0
 31 32  1  0
 32 33  2  0
 33 34  1  0
 34 35  2  0
 35 36  1  0
 36 37  2  0
 37 38  1  0
 38 39  2  0
 39 40  1  0
 40 41  2  0
 41 42  1  0
 42 43  2  0
 43 44  1  0
 44 45  2  0
 45 46  1  0
 46 47  2  0
 47 48  1  0
 48 49  2  0
 49 50  1  0
 50 51  2  0
 51 52  1  0
 52 53  2  0
 53 54  1  0
 54 55  2  0
 55 56  1  0
 56 57  2  0
 57 58  1  0
 58 59  2  0
 59 60  1  0
 60 61  2  0
 61 62  1  0
 62 63  2  0
 63 64  1  0
 64 65  2  0
 65 66  1  0
 66 67  2  0
 67 68  1  0
 68 69  2  0
 69 70  1  0
 70 71  2  0
 71  2  1  0
 41 37  1  0
 47 42  1  0
 53 48  1  0
 59 54  1  0
 65 60  1  0
 71 66  1  0
M  END
>  <Title>  (984) 
idABJXgen10

$$$$

     RDKit          2D

 11 11  0  0  0  0  0  0  0  0999 V2000
    3.9271    0.0000    0.0000 C   0  0  0  0  0  0  0  0  0  0  0  0
    2.4271    0.0000    0.0000 C   0  0  0  0  0  0  0  0  0  0  0  0
    1.9635   -1.4266    0.0000 C   0  0  0  0  0  0  0  0  0  0  0  0
    0.7500   -2.3083    0.0000 C   0  0  0  0  0  0  0  0  0  0  0  0
   -0.7500   -2.3083    0.0000 C   0  0  0  0  0  0  0  0  0  0  0  0
   -1.9635   -1.4266    0.0000 C   0  0  0  0  0  0  0  0  0  0  0  0
   -2.4271    0.0000    0.0000 C   0  0  0  0  0  0  0  0  0  0  0  0
   -1.9635    1.4266    0.0000 C   0  0  0  0  0  0  0  0  0  0  0  0
   -0.7500    2.3083    0.0000 C   0  0  0  0  0  0  0  0  0  0  0  0
    0.7500    2.3083    0.0000 C   0  0  0  0  0  0  0  0  0  0  0  0
    1.9635    1.4266    0.0000 C   0  0  0  0  0  0  0  0  0  0  0  0
  1  2  1  0
  2  3  1  0
  3  4  2  0
  4  5  1  0
  5  6  2  0
  6  7  1  0
  7  8  2  0
  8  9  1  0
  9 10  1  0
 10 11  1  0
 11  2  1  0
M  END
>  <Title>  (985) 
idABJYgen10

$$$$

     RDKit          2D

 14 13  0  0  0  0  0  0  0  0999 V2000
    0.0000    0.0000    0.0000 C   0  0  0  0  0  0  0  0  0  0  0  0
    1.2990    0.7500    0.0000 C   0  0  0  0  0  0  0  0  0  0  0  0
    2.5981   -0.0000    0.0000 C   0  0  0  0  0  0  0  0  0  0  0  0
    3.8971    0.7500    0.0000 C   0  0  0  0  0  0  0  0  0  0  0  0
    5.1962   -0.0000    0.0000 C   0  0  0  0  0  0  0  0  0  0  0  0
    6.4952    0.7500    0.0000 C   0  0  0  0  0  0  0  0  0  0  0  0
    7.7942   -0.0000    0.0000 C   0  0  0  0  0  0  0  0  0  0  0  0
    9.0933    0.7500    0.0000 C   0  0  0  0  0  0  0  0  0  0  0  0
   10.3923   -0.0000    0.0000 C   0  0  0  0  0  0  0  0  0  0  0  0
   11.6913    0.7500    0.0000 C   0  0  0  0  0  0  0  0  0  0  0  0
   12.9904   -0.0000    0.0000 C   0  0  0  0  0  0  0  0  0  0  0  0
   14.2894    0.7500    0.0000 O   0  0  0  0  0  0  0  0  0  0  0  0
   15.5885   -0.0000    0.0000 C   0  0  0  0  0  0  0  0  0  0  0  0
   16.8875    0.7500    0.0000 C   0  0  0  0  0  0  0  0  0  0  0  0
  1  2  1  0
  2  3  1  0
  3  4  1  0
  4  5  1  0
  5  6  1  0
  6  7  1  0
  7  8  1  0
  8  9  1  0
  9 10  1  0
 10 11  1  0
 11 12  1  0
 12 13  1  0
 13 14  1  0
M  END
>  <Title>  (986) 
idABJZgen10

$$$$

     RDKit          2D

 76 76  0  0  0  0  0  0  0  0999 V2000
   19.4102    0.0000    0.0000 C   0  0  0  0  0  0  0  0  0  0  0  0
   17.9102    0.0000    0.0000 C   0  0  0  0  0  0  0  0  0  0  0  0
   17.8474    1.4987    0.0000 C   0  0  0  0  0  0  0  0  0  0  0  0
   17.6594    2.9869    0.0000 C   0  0  0  0  0  0  0  0  0  0  0  0
   17.3475    4.4541    0.0000 C   0  0  0  0  0  0  0  0  0  0  0  0
   16.9139    5.8901    0.0000 C   0  0  0  0  0  0  0  0  0  0  0  0
   16.3618    7.2847    0.0000 C   0  0  0  0  0  0  0  0  0  0  0  0
   15.6948    8.6283    0.0000 C   0  0  0  0  0  0  0  0  0  0  0  0
   14.9178    9.9113    0.0000 C   0  0  0  0  0  0  0  0  0  0  0  0
   14.0361   11.1249    0.0000 C   0  0  0  0  0  0  0  0  0  0  0  0
   13.0560   12.2604    0.0000 C   0  0  0  0  0  0  0  0  0  0  0  0
   11.9842   13.3098    0.0000 C   0  0  0  0  0  0  0  0  0  0  0  0
   10.8285   14.2660    0.0000 C   0  0  0  0  0  0  0  0  0  0  0  0
    9.5967   15.1221    0.0000 C   0  0  0  0  0  0  0  0  0  0  0  0
    8.2977   15.8721    0.0000 C   0  0  0  0  0  0  0  0  0  0  0  0
    6.9405   16.5107    0.0000 C   0  0  0  0  0  0  0  0  0  0  0  0
    5.5345   17.0336    0.0000 C   0  0  0  0  0  0  0  0  0  0  0  0
    4.0898   17.4370    0.0000 C   0  0  0  0  0  0  0  0  0  0  0  0
    2.6164   17.7180    0.0000 C   0  0  0  0  0  0  0  0  0  0  0  0
    1.1246   17.8748    0.0000 C   0  0  0  0  0  0  0  0  0  0  0  0
   -0.3751   17.9062    0.0000 C   0  0  0  0  0  0  0  0  0  0  0  0
   -1.8721   17.8121    0.0000 C   0  0  0  0  0  0  0  0  0  0  0  0
   -3.3560   17.5929    0.0000 C   0  0  0  0  0  0  0  0  0  0  0  0
   -4.8164   17.2504    0.0000 C   0  0  0  0  0  0  0  0  0  0  0  0
   -6.2430   16.7869    0.0000 C   0  0  0  0  0  0  0  0  0  0  0  0
   -7.6258   16.2056    0.0000 C   0  0  0  0  0  0  0  0  0  0  0  0
   -8.9551   15.5107    0.0000 C   0  0  0  0  0  0  0  0  0  0  0  0
  -10.2216   14.7069    0.0000 C   0  0  0  0  0  0  0  0  0  0  0  0
  -11.4164   13.8000    0.0000 C   0  0  0  0  0  0  0  0  0  0  0  0
  -12.5311   12.7963    0.0000 C   0  0  0  0  0  0  0  0  0  0  0  0
  -13.5579   11.7029    0.0000 C   0  0  0  0  0  0  0  0  0  0  0  0
  -14.4896   10.5273    0.0000 C   0  0  0  0  0  0  0  0  0  0  0  0
  -15.3197    9.2780    0.0000 C   0  0  0  0  0  0  0  0  0  0  0  0
  -16.0423    7.9635    0.0000 C   0  0  0  0  0  0  0  0  0  0  0  0
  -16.6525    6.5932    0.0000 C   0  0  0  0  0  0  0  0  0  0  0  0
  -17.1458    5.1766    0.0000 C   0  0  0  0  0  0  0  0  0  0  0  0
  -17.5188    3.7237    0.0000 C   0  0  0  0  0  0  0  0  0  0  0  0
  -17.7689    2.2447    0.0000 C   0  0  0  0  0  0  0  0  0  0  0  0
  -17.8945    0.7500    0.0000 C   0  0  0  0  0  0  0  0  0  0  0  0
  -17.8945   -0.7500    0.0000 C   0  0  0  0  0  0  0  0  0  0  0  0
  -17.7689   -2.2447    0.0000 C   0  0  0  0  0  0  0  0  0  0  0  0
  -17.5188   -3.7237    0.0000 C   0  0  0  0  0  0  0  0  0  0  0  0
  -17.1458   -5.1766    0.0000 C   0  0  0  0  0  0  0  0  0  0  0  0
  -16.6525   -6.5932    0.0000 C   0  0  0  0  0  0  0  0  0  0  0  0
  -16.0423   -7.9635    0.0000 C   0  0  0  0  0  0  0  0  0  0  0  0
  -15.3197   -9.2780    0.0000 C   0  0  0  0  0  0  0  0  0  0  0  0
  -14.4896  -10.5273    0.0000 C   0  0  0  0  0  0  0  0  0  0  0  0
  -13.5579  -11.7029    0.0000 C   0  0  0  0  0  0  0  0  0  0  0  0
  -12.5311  -12.7963    0.0000 C   0  0  0  0  0  0  0  0  0  0  0  0
  -11.4164  -13.8000    0.0000 C   0  0  0  0  0  0  0  0  0  0  0  0
  -10.2216  -14.7069    0.0000 C   0  0  0  0  0  0  0  0  0  0  0  0
   -8.9551  -15.5107    0.0000 C   0  0  0  0  0  0  0  0  0  0  0  0
   -7.6258  -16.2056    0.0000 C   0  0  0  0  0  0  0  0  0  0  0  0
   -6.2430  -16.7869    0.0000 C   0  0  0  0  0  0  0  0  0  0  0  0
   -4.8164  -17.2504    0.0000 C   0  0  0  0  0  0  0  0  0  0  0  0
   -3.3560  -17.5929    0.0000 C   0  0  0  0  0  0  0  0  0  0  0  0
   -1.8721  -17.8121    0.0000 C   0  0  0  0  0  0  0  0  0  0  0  0
   -0.3751  -17.9062    0.0000 C   0  0  0  0  0  0  0  0  0  0  0  0
    1.1246  -17.8748    0.0000 C   0  0  0  0  0  0  0  0  0  0  0  0
    2.6164  -17.7180    0.0000 C   0  0  0  0  0  0  0  0  0  0  0  0
    4.0898  -17.4370    0.0000 C   0  0  0  0  0  0  0  0  0  0  0  0
    5.5345  -17.0336    0.0000 C   0  0  0  0  0  0  0  0  0  0  0  0
    6.9405  -16.5107    0.0000 C   0  0  0  0  0  0  0  0  0  0  0  0
    8.2977  -15.8721    0.0000 C   0  0  0  0  0  0  0  0  0  0  0  0
    9.5967  -15.1221    0.0000 C   0  0  0  0  0  0  0  0  0  0  0  0
   10.8285  -14.2660    0.0000 C   0  0  0  0  0  0  0  0  0  0  0  0
   11.9842  -13.3098    0.0000 C   0  0  0  0  0  0  0  0  0  0  0  0
   13.0560  -12.2604    0.0000 C   0  0  0  0  0  0  0  0  0  0  0  0
   14.0361  -11.1249    0.0000 C   0  0  0  0  0  0  0  0  0  0  0  0
   14.9178   -9.9113    0.0000 C   0  0  0  0  0  0  0  0  0  0  0  0
   15.6948   -8.6283    0.0000 C   0  0  0  0  0  0  0  0  0  0  0  0
   16.3618   -7.2847    0.0000 C   0  0  0  0  0  0  0  0  0  0  0  0
   16.9139   -5.8901    0.0000 C   0  0  0  0  0  0  0  0  0  0  0  0
   17.3475   -4.4541    0.0000 C   0  0  0  0  0  0  0  0  0  0  0  0
   17.6594   -2.9869    0.0000 C   0  0  0  0  0  0  0  0  0  0  0  0
   17.8474   -1.4987    0.0000 C   0  0  0  0  0  0  0  0  0  0  0  0
  1  2  1  0
  2  3  1  0
  3  4  1  0
  4  5  1  0
  5  6  1  0
  6  7  1  0
  7  8  1  0
  8  9  1  0
  9 10  1  0
 10 11  1  0
 11 12  1  0
 12 13  1  0
 13 14  1  0
 14 15  1  0
 15 16  1  0
 16 17  1  0
 17 18  1  0
 18 19  1  0
 19 20  1  0
 20 21  1  0
 21 22  1  0
 22 23  1  0
 23 24  1  0
 24 25  1  0
 25 26  1  0
 26 27  1  0
 27 28  1  0
 28 29  1  0
 29 30  1  0
 30 31  1  0
 31 32  1  0
 32 33  1  0
 33 34  1  0
 34 35  1  0
 35 36  1  0
 36 37  1  0
 37 38  1  0
 38 39  1  0
 39 40  1  0
 40 41  1  0
 41 42  1  0
 42 43  1  0
 43 44  1  0
 44 45  1  0
 45 46  1  0
 46 47  1  0
 47 48  1  0
 48 49  1  0
 49 50  1  0
 50 51  1  0
 51 52  1  0
 52 53  1  0
 53 54  1  0
 54 55  1  0
 55 56  1  0
 56 57  1  0
 57 58  1  0
 58 59  1  0
 59 60  1  0
 60 61  1  0
 61 62  1  0
 62 63  1  0
 63 64  1  0
 64 65  1  0
 65 66  1  0
 66 67  1  0
 67 68  1  0
 68 69  1  0
 69 70  1  0
 70 71  1  0
 71 72  1  0
 72 73  1  0
 73 74  1  0
 74 75  1  0
 75 76  1  0
 76  2  1  0
M  END
>  <Title>  (987) 
idABKAgen10

$$$$

     RDKit          2D

 13 13  0  0  0  0  0  0  0  0999 V2000
    9.0000   -5.1962    0.0000 C   0  0  0  0  0  0  0  0  0  0  0  0
    8.2500   -3.8971    0.0000 C   0  0  0  0  0  0  0  0  0  0  0  0
    7.5000   -2.5981    0.0000 C   0  0  0  0  0  0  0  0  0  0  0  0
    6.0000   -2.5981    0.0000 C   0  0  0  0  0  0  0  0  0  0  0  0
    5.2500   -1.2990    0.0000 C   0  0  0  0  0  0  0  0  0  0  0  0
    3.7500   -1.2990    0.0000 C   0  0  0  0  0  0  0  0  0  0  0  0
    3.0000    0.0000    0.0000 C   0  0  0  0  0  0  0  0  0  0  0  0
    1.5000    0.0000    0.0000 C   0  0  0  0  0  0  0  0  0  0  0  0
    0.7500   -1.2990    0.0000 C   0  0  0  0  0  0  0  0  0  0  0  0
   -0.7500   -1.2990    0.0000 C   0  0  0  0  0  0  0  0  0  0  0  0
   -1.5000    0.0000    0.0000 C   0  0  0  0  0  0  0  0  0  0  0  0
   -0.7500    1.2990    0.0000 C   0  0  0  0  0  0  0  0  0  0  0  0
    0.7500    1.2990    0.0000 C   0  0  0  0  0  0  0  0  0  0  0  0
  1  2  3  0
  2  3  1  0
  3  4  1  0
  4  5  2  3
  5  6  1  0
  6  7  1  0
  7  8  1  0
  8  9  2  0
  9 10  1  0
 10 11  2  0
 11 12  1  0
 12 13  2  0
 13  8  1  0
M  END
>  <Title>  (988) 
idABKBgen10

$$$$

     RDKit          2D

 11 11  0  0  0  0  0  0  0  0999 V2000
    6.7500   -1.2990    0.0000 C   0  0  0  0  0  0  0  0  0  0  0  0
    6.0000    0.0000    0.0000 C   0  0  0  0  0  0  0  0  0  0  0  0
    4.5000    0.0000    0.0000 C   0  0  0  0  0  0  0  0  0  0  0  0
    3.0000    0.0000    0.0000 C   0  0  0  0  0  0  0  0  0  0  0  0
    1.5000    0.0000    0.0000 C   0  0  0  0  0  0  0  0  0  0  0  0
    0.7500   -1.2990    0.0000 C   0  0  0  0  0  0  0  0  0  0  0  0
   -0.7500   -1.2990    0.0000 C   0  0  0  0  0  0  0  0  0  0  0  0
   -1.5000    0.0000    0.0000 C   0  0  0  0  0  0  0  0  0  0  0  0
   -0.7500    1.2990    0.0000 C   0  0  0  0  0  0  0  0  0  0  0  0
   -1.5000    2.5981    0.0000 C   0  0  0  0  0  0  0  0  0  0  0  0
    0.7500    1.2990    0.0000 C   0  0  0  0  0  0  0  0  0  0  0  0
  1  2  2  0
  2  3  1  0
  3  4  3  0
  4  5  1  0
  5  6  2  0
  6  7  1  0
  7  8  2  0
  8  9  1  0
  9 10  1  0
  9 11  2  0
 11  5  1  0
M  END
>  <Title>  (989) 
idABKCgen10

$$$$

     RDKit          2D

 11 11  0  0  0  0  0  0  0  0999 V2000
    7.2760   -0.0000    0.0000 C   0  0  0  0  0  0  0  0  0  0  0  0
    5.7760   -0.0000    0.0000 C   0  0  0  0  0  0  0  0  0  0  0  0
    4.2760   -0.0000    0.0000 C   0  0  0  0  0  0  0  0  0  0  0  0
    2.7760    0.0000    0.0000 C   0  0  0  0  0  0  0  0  0  0  0  0
    1.2760    0.0000    0.0000 C   0  0  0  0  0  0  0  0  0  0  0  0
    0.3943    1.2135    0.0000 C   0  0  0  0  0  0  0  0  0  0  0  0
   -1.0323    0.7500    0.0000 C   0  0  0  0  0  0  0  0  0  0  0  0
   -2.5241    0.5932    0.0000 C   0  0  0  0  0  0  0  0  0  0  0  0
   -1.3442    2.2172    0.0000 C   0  0  0  0  0  0  0  0  0  0  0  0
   -1.0323   -0.7500    0.0000 C   0  0  0  0  0  0  0  0  0  0  0  0
    0.3943   -1.2135    0.0000 C   0  0  0  0  0  0  0  0  0  0  0  0
  1  2  3  0
  2  3  1  0
  3  4  3  0
  4  5  1  0
  5  6  2  0
  6  7  1  0
  7  8  1  0
  7  9  1  0
  7 10  1  0
 10 11  2  0
 11  5  1  0
M  END
>  <Title>  (990) 
idABKDgen10

$$$$

     RDKit          2D

116117  0  0  0  0  0  0  0  0999 V2000
   16.9020    4.5650    0.0000 C   0  0  0  0  0  0  0  0  0  0  0  0
   17.6953    4.4864    0.0000 C   0  0  0  0  0  0  0  0  0  0  0  0
   17.9543    5.9639    0.0000 C   0  0  0  0  0  0  0  0  0  0  0  0
   18.4306    7.3863    0.0000 C   0  0  0  0  0  0  0  0  0  0  0  0
   19.1136    8.7218    0.0000 C   0  0  0  0  0  0  0  0  0  0  0  0
   19.9880    9.9405    0.0000 C   0  0  0  0  0  0  0  0  0  0  0  0
   21.0342   11.0154    0.0000 C   0  0  0  0  0  0  0  0  0  0  0  0
   22.2290   11.9223    0.0000 C   0  0  0  0  0  0  0  0  0  0  0  0
   23.5456   12.6410    0.0000 C   0  0  0  0  0  0  0  0  0  0  0  0
   24.9547   13.1554    0.0000 C   0  0  0  0  0  0  0  0  0  0  0  0
   26.4246   13.4541    0.0000 C   0  0  0  0  0  0  0  0  0  0  0  0
   27.9227   13.5304    0.0000 C   0  0  0  0  0  0  0  0  0  0  0  0
   29.4154   13.3825    0.0000 C   0  0  0  0  0  0  0  0  0  0  0  0
   30.8694   13.0138    0.0000 C   0  0  0  0  0  0  0  0  0  0  0  0
   32.2522   12.4325    0.0000 C   0  0  0  0  0  0  0  0  0  0  0  0
   33.5329   11.6517    0.0000 C   0  0  0  0  0  0  0  0  0  0  0  0
   34.6829   10.6886    0.0000 C   0  0  0  0  0  0  0  0  0  0  0  0
   35.6766    9.5649    0.0000 C   0  0  0  0  0  0  0  0  0  0  0  0
   36.4916    8.3057    0.0000 C   0  0  0  0  0  0  0  0  0  0  0  0
   37.1099    6.9391    0.0000 C   0  0  0  0  0  0  0  0  0  0  0  0
   37.5176    5.4955    0.0000 C   0  0  0  0  0  0  0  0  0  0  0  0
   37.7056    4.0074    0.0000 C   0  0  0  0  0  0  0  0  0  0  0  0
   37.6697    2.5078    0.0000 C   0  0  0  0  0  0  0  0  0  0  0  0
   37.4107    1.0303    0.0000 C   0  0  0  0  0  0  0  0  0  0  0  0
   36.9344   -0.3920    0.0000 C   0  0  0  0  0  0  0  0  0  0  0  0
   36.2514   -1.7275    0.0000 C   0  0  0  0  0  0  0  0  0  0  0  0
   35.3770   -2.9463    0.0000 C   0  0  0  0  0  0  0  0  0  0  0  0
   34.3308   -4.0212    0.0000 C   0  0  0  0  0  0  0  0  0  0  0  0
   33.1360   -4.9281    0.0000 C   0  0  0  0  0  0  0  0  0  0  0  0
   31.8193   -5.6467    0.0000 C   0  0  0  0  0  0  0  0  0  0  0  0
   30.4103   -6.1612    0.0000 C   0  0  0  0  0  0  0  0  0  0  0  0
   28.9404   -6.4599    0.0000 C   0  0  0  0  0  0  0  0  0  0  0  0
   27.4423   -6.5361    0.0000 C   0  0  0  0  0  0  0  0  0  0  0  0
   25.9496   -6.3883    0.0000 C   0  0  0  0  0  0  0  0  0  0  0  0
   24.4956   -6.0196    0.0000 C   0  0  0  0  0  0  0  0  0  0  0  0
   23.1128   -5.4383    0.0000 C   0  0  0  0  0  0  0  0  0  0  0  0
   21.8321   -4.6574    0.0000 C   0  0  0  0  0  0  0  0  0  0  0  0
   20.6821   -3.6944    0.0000 C   0  0  0  0  0  0  0  0  0  0  0  0
   19.6884   -2.5707    0.0000 C   0  0  0  0  0  0  0  0  0  0  0  0
   18.8733   -1.3115    0.0000 C   0  0  0  0  0  0  0  0  0  0  0  0
   18.2551    0.0552    0.0000 C   0  0  0  0  0  0  0  0  0  0  0  0
   17.8474    1.4987    0.0000 C   0  0  0  0  0  0  0  0  0  0  0  0
   17.2102   -0.0000    0.0000 C   0  0  0  0  0  0  0  0  0  0  0  0
   17.1498   -1.4401    0.0000 C   0  0  0  0  0  0  0  0  0  0  0  0
   16.9692   -2.8701    0.0000 C   0  0  0  0  0  0  0  0  0  0  0  0
   16.6695   -4.2800    0.0000 C   0  0  0  0  0  0  0  0  0  0  0  0
   16.2529   -5.6599    0.0000 C   0  0  0  0  0  0  0  0  0  0  0  0
   15.7223   -7.0000    0.0000 C   0  0  0  0  0  0  0  0  0  0  0  0
   15.0814   -8.2911    0.0000 C   0  0  0  0  0  0  0  0  0  0  0  0
   14.3347   -9.5240    0.0000 C   0  0  0  0  0  0  0  0  0  0  0  0
   13.4875  -10.6901    0.0000 C   0  0  0  0  0  0  0  0  0  0  0  0
   12.5457  -11.7812    0.0000 C   0  0  0  0  0  0  0  0  0  0  0  0
   11.5159  -12.7896    0.0000 C   0  0  0  0  0  0  0  0  0  0  0  0
   10.4053  -13.7084    0.0000 C   0  0  0  0  0  0  0  0  0  0  0  0
    9.2217  -14.5310    0.0000 C   0  0  0  0  0  0  0  0  0  0  0  0
    7.9734  -15.2517    0.0000 C   0  0  0  0  0  0  0  0  0  0  0  0
    6.6692  -15.8654    0.0000 C   0  0  0  0  0  0  0  0  0  0  0  0
    5.3182  -16.3678    0.0000 C   0  0  0  0  0  0  0  0  0  0  0  0
    3.9300  -16.7555    0.0000 C   0  0  0  0  0  0  0  0  0  0  0  0
    2.5141  -17.0255    0.0000 C   0  0  0  0  0  0  0  0  0  0  0  0
    1.0806  -17.1762    0.0000 C   0  0  0  0  0  0  0  0  0  0  0  0
   -0.3604  -17.2064    0.0000 C   0  0  0  0  0  0  0  0  0  0  0  0
   -1.7990  -17.1159    0.0000 C   0  0  0  0  0  0  0  0  0  0  0  0
   -3.2249  -16.9053    0.0000 C   0  0  0  0  0  0  0  0  0  0  0  0
   -4.6282  -16.5762    0.0000 C   0  0  0  0  0  0  0  0  0  0  0  0
   -5.9990  -16.1308    0.0000 C   0  0  0  0  0  0  0  0  0  0  0  0
   -7.3277  -15.5722    0.0000 C   0  0  0  0  0  0  0  0  0  0  0  0
   -8.6051  -14.9044    0.0000 C   0  0  0  0  0  0  0  0  0  0  0  0
   -9.8221  -14.1321    0.0000 C   0  0  0  0  0  0  0  0  0  0  0  0
  -10.9702  -13.2607    0.0000 C   0  0  0  0  0  0  0  0  0  0  0  0
  -12.0413  -12.2962    0.0000 C   0  0  0  0  0  0  0  0  0  0  0  0
  -13.0280  -11.2455    0.0000 C   0  0  0  0  0  0  0  0  0  0  0  0
  -13.9233  -10.1159    0.0000 C   0  0  0  0  0  0  0  0  0  0  0  0
  -14.7210   -8.9153    0.0000 C   0  0  0  0  0  0  0  0  0  0  0  0
  -15.4154   -7.6522    0.0000 C   0  0  0  0  0  0  0  0  0  0  0  0
  -16.0016   -6.3355    0.0000 C   0  0  0  0  0  0  0  0  0  0  0  0
  -16.4756   -4.9743    0.0000 C   0  0  0  0  0  0  0  0  0  0  0  0
  -16.8341   -3.5782    0.0000 C   0  0  0  0  0  0  0  0  0  0  0  0
  -17.0745   -2.1570    0.0000 C   0  0  0  0  0  0  0  0  0  0  0  0
  -17.1951   -0.7207    0.0000 C   0  0  0  0  0  0  0  0  0  0  0  0
  -17.1951    0.7207    0.0000 C   0  0  0  0  0  0  0  0  0  0  0  0
  -17.0745    2.1570    0.0000 C   0  0  0  0  0  0  0  0  0  0  0  0
  -16.8341    3.5782    0.0000 C   0  0  0  0  0  0  0  0  0  0  0  0
  -16.4756    4.9743    0.0000 C   0  0  0  0  0  0  0  0  0  0  0  0
  -16.0016    6.3355    0.0000 C   0  0  0  0  0  0  0  0  0  0  0  0
  -15.4154    7.6522    0.0000 C   0  0  0  0  0  0  0  0  0  0  0  0
  -14.7210    8.9153    0.0000 C   0  0  0  0  0  0  0  0  0  0  0  0
  -13.9233   10.1159    0.0000 C   0  0  0  0  0  0  0  0  0  0  0  0
  -13.0280   11.2455    0.0000 C   0  0  0  0  0  0  0  0  0  0  0  0
  -12.0413   12.2962    0.0000 C   0  0  0  0  0  0  0  0  0  0  0  0
  -10.9702   13.2607    0.0000 C   0  0  0  0  0  0  0  0  0  0  0  0
   -9.8221   14.1321    0.0000 C   0  0  0  0  0  0  0  0  0  0  0  0
   -8.6051   14.9044    0.0000 C   0  0  0  0  0  0  0  0  0  0  0  0
   -7.3277   15.5722    0.0000 C   0  0  0  0  0  0  0  0  0  0  0  0
   -5.9990   16.1308    0.0000 C   0  0  0  0  0  0  0  0  0  0  0  0
   -4.6282   16.5762    0.0000 C   0  0  0  0  0  0  0  0  0  0  0  0
   -3.2249   16.9053    0.0000 C   0  0  0  0  0  0  0  0  0  0  0  0
   -1.7990   17.1159    0.0000 C   0  0  0  0  0  0  0  0  0  0  0  0
   -0.3604   17.2064    0.0000 C   0  0  0  0  0  0  0  0  0  0  0  0
    1.0806   17.1762    0.0000 C   0  0  0  0  0  0  0  0  0  0  0  0
    2.5141   17.0255    0.0000 C   0  0  0  0  0  0  0  0  0  0  0  0
    3.9300   16.7555    0.0000 C   0  0  0  0  0  0  0  0  0  0  0  0
    5.3182   16.3678    0.0000 C   0  0  0  0  0  0  0  0  0  0  0  0
    6.6692   15.8654    0.0000 C   0  0  0  0  0  0  0  0  0  0  0  0
    7.9734   15.2517    0.0000 C   0  0  0  0  0  0  0  0  0  0  0  0
    9.2217   14.5310    0.0000 C   0  0  0  0  0  0  0  0  0  0  0  0
   10.4053   13.7084    0.0000 C   0  0  0  0  0  0  0  0  0  0  0  0
   11.5159   12.7896    0.0000 C   0  0  0  0  0  0  0  0  0  0  0  0
   12.5457   11.7812    0.0000 C   0  0  0  0  0  0  0  0  0  0  0  0
   13.4875   10.6901    0.0000 C   0  0  0  0  0  0  0  0  0  0  0  0
   14.3347    9.5240    0.0000 C   0  0  0  0  0  0  0  0  0  0  0  0
   15.0814    8.2911    0.0000 C   0  0  0  0  0  0  0  0  0  0  0  0
   15.7223    7.0000    0.0000 C   0  0  0  0  0  0  0  0  0  0  0  0
   16.2529    5.6599    0.0000 C   0  0  0  0  0  0  0  0  0  0  0  0
   16.6695    4.2800    0.0000 C   0  0  0  0  0  0  0  0  0  0  0  0
   17.6594    2.9869    0.0000 C   0  0  0  0  0  0  0  0  0  0  0  0
  1  2  1  0
  2  3  1  0
  3  4  2  0
  4  5  1  0
  5  6  1  0
  6  7  1  0
  7  8  1  0
  8  9  1  0
  9 10  1  0
 10 11  1  0
 11 12  1  0
 12 13  1  0
 13 14  1  0
 14 15  1  0
 15 16  1  0
 16 17  1  0
 17 18  1  0
 18 19  1  0
 19 20  1  0
 20 21  1  0
 21 22  1  0
 22 23  1  0
 23 24  1  0
 24 25  1  0
 25 26  1  0
 26 27  1  0
 27 28  1  0
 28 29  1  0
 29 30  1  0
 30 31  1  0
 31 32  1  0
 32 33  1  0
 33 34  1  0
 34 35  1  0
 35 36  1  0
 36 37  1  0
 37 38  1  0
 38 39  1  0
 39 40  1  0
 40 41  1  0
 41 42  1  0
 42 43  1  0
 43 44  1  0
 44 45  1  0
 45 46  1  0
 46 47  1  0
 47 48  1  0
 48 49  1  0
 49 50  1  0
 50 51  1  0
 51 52  1  0
 52 53  1  0
 53 54  1  0
 54 55  1  0
 55 56  1  0
 56 57  1  0
 57 58  1  0
 58 59  1  0
 59 60  1  0
 60 61  1  0
 61 62  1  0
 62 63  1  0
 63 64  1  0
 64 65  1  0
 65 66  1  0
 66 67  1  0
 67 68  1  0
 68 69  1  0
 69 70  1  0
 70 71  1  0
 71 72  1  0
 72 73  1  0
 73 74  1  0
 74 75  1  0
 75 76  1  0
 76 77  1  0
 77 78  1  0
 78 79  1  0
 79 80  1  0
 80 81  1  0
 81 82  1  0
 82 83  1  0
 83 84  1  0
 84 85  1  0
 85 86  1  0
 86 87  1  0
 87 88  1  0
 88 89  1  0
 89 90  1  0
 90 91  1  0
 91 92  1  0
 92 93  1  0
 93 94  1  0
 94 95  1  0
 95 96  1  0
 96 97  1  0
 97 98  1  0
 98 99  1  0
 99100  1  0
100101  1  0
101102  1  0
102103  1  0
103104  1  0
104105  1  0
105106  1  0
106107  1  0
107108  2  0
108109  1  0
109110  2  0
110111  1  0
111112  2  0
112113  1  0
113114  2  0
114115  1  0
115116  2  0
116  2  1  0
116 42  1  0
M  END
>  <Title>  (991) 
idABKEgen10

$$$$

     RDKit          2D

 28 32  0  0  0  0  0  0  0  0999 V2000
    4.5823   -5.0077    0.0000 N   0  0  0  0  0  0  0  0  0  0  0  0
    3.1965   -4.4337    0.0000 C   0  0  0  0  0  0  0  0  0  0  0  0
    1.8107   -3.8597    0.0000 C   0  0  0  0  0  0  0  0  0  0  0  0
    1.8107   -2.3597    0.0000 C   0  0  0  0  0  0  0  0  0  0  0  0
    3.1965   -1.7857    0.0000 C   0  0  0  0  0  0  0  0  0  0  0  0
    4.3865   -2.6988    0.0000 C   0  0  0  0  0  0  0  0  0  0  0  0
    5.7723   -2.1248    0.0000 C   0  0  0  0  0  0  0  0  0  0  0  0
    5.9681   -0.6376    0.0000 C   0  0  0  0  0  0  0  0  0  0  0  0
    4.7781    0.2755    0.0000 C   0  0  0  0  0  0  0  0  0  0  0  0
    3.3923   -0.2985    0.0000 C   0  0  0  0  0  0  0  0  0  0  0  0
    0.7500   -1.2990    0.0000 C   0  0  0  0  0  0  0  0  0  0  0  0
    1.5000    0.0000    0.0000 C   0  0  0  0  0  0  0  0  0  0  0  0
    0.7500    1.2990    0.0000 C   0  0  0  0  0  0  0  0  0  0  0  0
   -0.7500    1.2990    0.0000 C   0  0  0  0  0  0  0  0  0  0  0  0
   -1.5000    0.0000    0.0000 C   0  0  0  0  0  0  0  0  0  0  0  0
   -0.7500   -1.2990    0.0000 C   0  0  0  0  0  0  0  0  0  0  0  0
   -1.8107   -2.3597    0.0000 C   0  0  0  0  0  0  0  0  0  0  0  0
   -3.1097   -1.6097    0.0000 C   0  0  0  0  0  0  0  0  0  0  0  0
   -4.4087   -2.3597    0.0000 C   0  0  0  0  0  0  0  0  0  0  0  0
   -4.4087   -3.8597    0.0000 C   0  0  0  0  0  0  0  0  0  0  0  0
   -3.1097   -4.6097    0.0000 C   0  0  0  0  0  0  0  0  0  0  0  0
   -1.8107   -3.8597    0.0000 C   0  0  0  0  0  0  0  0  0  0  0  0
   -0.7500   -4.9204    0.0000 C   0  0  0  0  0  0  0  0  0  0  0  0
   -1.5000   -6.2194    0.0000 C   0  0  0  0  0  0  0  0  0  0  0  0
   -0.7500   -7.5184    0.0000 C   0  0  0  0  0  0  0  0  0  0  0  0
    0.7500   -7.5184    0.0000 C   0  0  0  0  0  0  0  0  0  0  0  0
    1.5000   -6.2194    0.0000 C   0  0  0  0  0  0  0  0  0  0  0  0
    0.7500   -4.9204    0.0000 C   0  0  0  0  0  0  0  0  0  0  0  0
  1  2  3  0
  2  3  1  0
  3  4  2  0
  4  5  1  0
  5  6  2  0
  6  7  1  0
  7  8  2  0
  8  9  1  0
  9 10  2  0
  4 11  1  0
 11 12  2  0
 12 13  1  0
 13 14  2  0
 14 15  1  0
 15 16  2  0
 16 17  1  0
 17 18  2  0
 18 19  1  0
 19 20  2  0
 20 21  1  0
 21 22  2  0
 22 23  1  0
 23 24  2  0
 24 25  1  0
 25 26  2  0
 26 27  1  0
 27 28  2  0
 28  3  1  0
 10  5  1  0
 16 11  1  0
 22 17  1  0
 28 23  1  0
M  END
>  <Title>  (992) 
idABKFgen10

$$$$

     RDKit          2D

 19 20  0  0  0  0  0  0  0  0999 V2000
    4.5000   -2.5981    0.0000 C   0  0  0  0  0  0  0  0  0  0  0  0
    3.7500   -1.2990    0.0000 C   0  0  0  0  0  0  0  0  0  0  0  0
    3.0000    0.0000    0.0000 C   0  0  0  0  0  0  0  0  0  0  0  0
    3.7500    1.2990    0.0000 O   0  0  0  0  0  0  0  0  0  0  0  0
    1.5000    0.0000    0.0000 C   0  0  0  0  0  0  0  0  0  0  0  0
    0.7500   -1.2990    0.0000 C   0  0  0  0  0  0  0  0  0  0  0  0
   -0.7500   -1.2990    0.0000 C   0  0  0  0  0  0  0  0  0  0  0  0
   -1.5000    0.0000    0.0000 C   0  0  0  0  0  0  0  0  0  0  0  0
   -0.7500    1.2990    0.0000 C   0  0  0  0  0  0  0  0  0  0  0  0
    0.7500    1.2990    0.0000 C   0  0  0  0  0  0  0  0  0  0  0  0
    1.5000    2.5981    0.0000 C   0  0  0  0  0  0  0  0  0  0  0  0
    3.0000    2.5981    0.0000 C   0  0  0  0  0  0  0  0  0  0  0  0
    3.7500    3.8971    0.0000 C   0  0  0  0  0  0  0  0  0  0  0  0
    3.0000    5.1962    0.0000 C   0  0  0  0  0  0  0  0  0  0  0  0
    1.5000    5.1962    0.0000 C   0  0  0  0  0  0  0  0  0  0  0  0
    0.7500    3.8971    0.0000 C   0  0  0  0  0  0  0  0  0  0  0  0
   -0.7500    3.8971    0.0000 C   0  0  0  0  0  0  0  0  0  0  0  0
   -1.5000    5.1962    0.0000 C   0  0  0  0  0  0  0  0  0  0  0  0
   -1.5000    2.5981    0.0000 O   0  0  0  0  0  0  0  0  0  0  0  0
  1  2  3  0
  2  3  1  0
  3  4  2  0
  3  5  1  0
  5  6  2  0
  6  7  1  0
  7  8  2  0
  8  9  1  0
  9 10  2  0
 10 11  1  0
 11 12  2  0
 12 13  1  0
 13 14  2  0
 14 15  1  0
 15 16  2  0
 16 17  1  0
 17 18  1  0
 17 19  2  0
 10  5  1  0
 16 11  1  0
M  END
>  <Title>  (993) 
idABKGgen10

$$$$

     RDKit          2D

  9  9  0  0  0  0  0  0  0  0999 V2000
    4.2760   -0.0000    0.0000 C   0  0  0  0  0  0  0  0  0  0  0  0
    2.7760    0.0000    0.0000 C   0  0  0  0  0  0  0  0  0  0  0  0
    1.2760    0.0000    0.0000 C   0  0  0  0  0  0  0  0  0  0  0  0
    0.3943    1.2135    0.0000 C   0  0  0  0  0  0  0  0  0  0  0  0
   -1.0323    0.7500    0.0000 C   0  0  0  0  0  0  0  0  0  0  0  0
   -2.2458    1.6317    0.0000 C   0  0  0  0  0  0  0  0  0  0  0  0
   -1.0323   -0.7500    0.0000 C   0  0  0  0  0  0  0  0  0  0  0  0
   -2.2458   -1.6317    0.0000 C   0  0  0  0  0  0  0  0  0  0  0  0
    0.3943   -1.2135    0.0000 N   0  0  0  0  0  0  0  0  0  0  0  0
  1  2  3  0
  2  3  1  0
  3  4  2  0
  4  5  1  0
  5  6  1  0
  5  7  1  0
  7  8  1  0
  7  9  1  0
  9  3  1  0
M  END
>  <Title>  (994) 
idABKHgen10

$$$$

     RDKit          2D

  6  5  0  0  0  0  0  0  0  0999 V2000
    0.0000    0.0000    0.0000 C   0  0  0  0  0  0  0  0  0  0  0  0
   -0.0000   -1.5000    0.0000 C   0  0  0  0  0  0  0  0  0  0  0  0
   -0.0000   -3.0000    0.0000 C   0  0  0  0  0  0  0  0  0  0  0  0
    1.2990   -3.7500    0.0000 C   0  0  0  0  0  0  0  0  0  0  0  0
   -1.2990   -3.7500    0.0000 C   0  0  0  0  0  0  0  0  0  0  0  0
   -2.5981   -3.0000    0.0000 C   0  0  0  0  0  0  0  0  0  0  0  0
  1  2  3  0
  2  3  1  0
  3  4  1  0
  3  5  2  3
  5  6  1  0
M  END
>  <Title>  (995) 
idABKIgen10

$$$$

     RDKit          2D

 37 37  0  0  0  0  0  0  0  0999 V2000
   36.0000  -20.7846    0.0000 C   0  0  0  0  0  0  0  0  0  0  0  0
   35.2500  -19.4856    0.0000 C   0  0  0  0  0  0  0  0  0  0  0  0
   34.5000  -18.1865    0.0000 C   0  0  0  0  0  0  0  0  0  0  0  0
   33.0000  -18.1865    0.0000 C   0  0  0  0  0  0  0  0  0  0  0  0
   32.2500  -16.8875    0.0000 C   0  0  0  0  0  0  0  0  0  0  0  0
   30.7500  -16.8875    0.0000 C   0  0  0  0  0  0  0  0  0  0  0  0
   30.0000  -15.5885    0.0000 C   0  0  0  0  0  0  0  0  0  0  0  0
   28.5000  -15.5885    0.0000 C   0  0  0  0  0  0  0  0  0  0  0  0
   27.7500  -14.2894    0.0000 C   0  0  0  0  0  0  0  0  0  0  0  0
   26.2500  -14.2894    0.0000 C   0  0  0  0  0  0  0  0  0  0  0  0
   25.5000  -12.9904    0.0000 C   0  0  0  0  0  0  0  0  0  0  0  0
   24.0000  -12.9904    0.0000 C   0  0  0  0  0  0  0  0  0  0  0  0
   23.2500  -11.6913    0.0000 C   0  0  0  0  0  0  0  0  0  0  0  0
   21.7500  -11.6913    0.0000 C   0  0  0  0  0  0  0  0  0  0  0  0
   21.0000  -10.3923    0.0000 C   0  0  0  0  0  0  0  0  0  0  0  0
   19.5000  -10.3923    0.0000 C   0  0  0  0  0  0  0  0  0  0  0  0
   18.7500   -9.0933    0.0000 C   0  0  0  0  0  0  0  0  0  0  0  0
   17.2500   -9.0933    0.0000 C   0  0  0  0  0  0  0  0  0  0  0  0
   16.5000   -7.7942    0.0000 C   0  0  0  0  0  0  0  0  0  0  0  0
   15.0000   -7.7942    0.0000 C   0  0  0  0  0  0  0  0  0  0  0  0
   14.2500   -6.4952    0.0000 C   0  0  0  0  0  0  0  0  0  0  0  0
   12.7500   -6.4952    0.0000 C   0  0  0  0  0  0  0  0  0  0  0  0
   12.0000   -5.1962    0.0000 C   0  0  0  0  0  0  0  0  0  0  0  0
   10.5000   -5.1962    0.0000 C   0  0  0  0  0  0  0  0  0  0  0  0
    9.7500   -3.8971    0.0000 C   0  0  0  0  0  0  0  0  0  0  0  0
    8.2500   -3.8971    0.0000 C   0  0  0  0  0  0  0  0  0  0  0  0
    7.5000   -2.5981    0.0000 C   0  0  0  0  0  0  0  0  0  0  0  0
    6.0000   -2.5981    0.0000 C   0  0  0  0  0  0  0  0  0  0  0  0
    5.2500   -1.2990    0.0000 C   0  0  0  0  0  0  0  0  0  0  0  0
    3.7500   -1.2990    0.0000 C   0  0  0  0  0  0  0  0  0  0  0  0
    3.0000    0.0000    0.0000 C   0  0  0  0  0  0  0  0  0  0  0  0
    1.5000    0.0000    0.0000 C   0  0  0  0  0  0  0  0  0  0  0  0
    0.7500   -1.2990    0.0000 C   0  0  0  0  0  0  0  0  0  0  0  0
   -0.7500   -1.2990    0.0000 C   0  0  0  0  0  0  0  0  0  0  0  0
   -1.5000    0.0000    0.0000 C   0  0  0  0  0  0  0  0  0  0  0  0
   -0.7500    1.2990    0.0000 C   0  0  0  0  0  0  0  0  0  0  0  0
    0.7500    1.2990    0.0000 C   0  0  0  0  0  0  0  0  0  0  0  0
  1  2  3  0
  2  3  1  0
  3  4  1  0
  4  5  1  0
  5  6  1  0
  6  7  1  0
  7  8  1  0
  8  9  1  0
  9 10  1  0
 10 11  1  0
 11 12  1  0
 12 13  1  0
 13 14  1  0
 14 15  1  0
 15 16  1  0
 16 17  1  0
 17 18  1  0
 18 19  1  0
 19 20  1  0
 20 21  1  0
 21 22  1  0
 22 23  1  0
 23 24  1  0
 24 25  1  0
 25 26  1  0
 26 27  1  0
 27 28  1  0
 28 29  1  0
 29 30  1  0
 30 31  1  0
 31 32  1  0
 32 33  2  0
 33 34  1  0
 34 35  2  0
 35 36  1  0
 36 37  2  0
 37 32  1  0
M  END
>  <Title>  (996) 
idABKJgen10

$$$$

     RDKit          2D

 41 41  0  0  0  0  0  0  0  0999 V2000
   11.0591    0.0000    0.0000 C   0  0  0  0  0  0  0  0  0  0  0  0
    9.5591    0.0000    0.0000 C   0  0  0  0  0  0  0  0  0  0  0  0
    9.4414   -1.4954    0.0000 C   0  0  0  0  0  0  0  0  0  0  0  0
    9.0913   -2.9539    0.0000 C   0  0  0  0  0  0  0  0  0  0  0  0
    8.5172   -4.3398    0.0000 C   0  0  0  0  0  0  0  0  0  0  0  0
    7.7335   -5.6187    0.0000 C   0  0  0  0  0  0  0  0  0  0  0  0
    6.7593   -6.7593    0.0000 C   0  0  0  0  0  0  0  0  0  0  0  0
    5.6187   -7.7335    0.0000 C   0  0  0  0  0  0  0  0  0  0  0  0
    4.3398   -8.5172    0.0000 C   0  0  0  0  0  0  0  0  0  0  0  0
    2.9539   -9.0913    0.0000 C   0  0  0  0  0  0  0  0  0  0  0  0
    1.4954   -9.4414    0.0000 C   0  0  0  0  0  0  0  0  0  0  0  0
   -0.0000   -9.5591    0.0000 C   0  0  0  0  0  0  0  0  0  0  0  0
   -1.4954   -9.4414    0.0000 C   0  0  0  0  0  0  0  0  0  0  0  0
   -2.9539   -9.0913    0.0000 C   0  0  0  0  0  0  0  0  0  0  0  0
   -4.3398   -8.5172    0.0000 C   0  0  0  0  0  0  0  0  0  0  0  0
   -5.6187   -7.7335    0.0000 C   0  0  0  0  0  0  0  0  0  0  0  0
   -6.7593   -6.7593    0.0000 C   0  0  0  0  0  0  0  0  0  0  0  0
   -7.7335   -5.6187    0.0000 C   0  0  0  0  0  0  0  0  0  0  0  0
   -8.5172   -4.3398    0.0000 C   0  0  0  0  0  0  0  0  0  0  0  0
   -9.0913   -2.9539    0.0000 C   0  0  0  0  0  0  0  0  0  0  0  0
   -9.4414   -1.4954    0.0000 C   0  0  0  0  0  0  0  0  0  0  0  0
   -9.5591    0.0000    0.0000 C   0  0  0  0  0  0  0  0  0  0  0  0
   -9.4414    1.4954    0.0000 C   0  0  0  0  0  0  0  0  0  0  0  0
   -9.0913    2.9539    0.0000 C   0  0  0  0  0  0  0  0  0  0  0  0
   -8.5172    4.3398    0.0000 C   0  0  0  0  0  0  0  0  0  0  0  0
   -7.7335    5.6187    0.0000 C   0  0  0  0  0  0  0  0  0  0  0  0
   -6.7593    6.7593    0.0000 C   0  0  0  0  0  0  0  0  0  0  0  0
   -5.6187    7.7335    0.0000 C   0  0  0  0  0  0  0  0  0  0  0  0
   -4.3398    8.5172    0.0000 C   0  0  0  0  0  0  0  0  0  0  0  0
   -2.9539    9.0913    0.0000 C   0  0  0  0  0  0  0  0  0  0  0  0
   -1.4954    9.4414    0.0000 C   0  0  0  0  0  0  0  0  0  0  0  0
    0.0000    9.5591    0.0000 C   0  0  0  0  0  0  0  0  0  0  0  0
    1.4954    9.4414    0.0000 C   0  0  0  0  0  0  0  0  0  0  0  0
    2.9539    9.0913    0.0000 C   0  0  0  0  0  0  0  0  0  0  0  0
    4.3398    8.5172    0.0000 C   0  0  0  0  0  0  0  0  0  0  0  0
    5.6187    7.7335    0.0000 C   0  0  0  0  0  0  0  0  0  0  0  0
    6.7593    6.7593    0.0000 C   0  0  0  0  0  0  0  0  0  0  0  0
    7.7335    5.6187    0.0000 C   0  0  0  0  0  0  0  0  0  0  0  0
    8.5172    4.3398    0.0000 C   0  0  0  0  0  0  0  0  0  0  0  0
    9.0913    2.9539    0.0000 C   0  0  0  0  0  0  0  0  0  0  0  0
    9.4414    1.4954    0.0000 C   0  0  0  0  0  0  0  0  0  0  0  0
  1  2  1  0
  2  3  2  0
  3  4  1  0
  4  5  1  0
  5  6  2  0
  6  7  1  0
  7  8  2  0
  8  9  1  0
  9 10  2  0
 10 11  1  0
 11 12  2  0
 12 13  1  0
 13 14  2  0
 14 15  1  0
 15 16  2  0
 16 17  1  0
 17 18  2  0
 18 19  1  0
 19 20  2  0
 20 21  1  0
 21 22  2  0
 22 23  1  0
 23 24  2  0
 24 25  1  0
 25 26  2  0
 26 27  1  0
 27 28  2  0
 28 29  1  0
 29 30  2  0
 30 31  1  0
 31 32  2  0
 32 33  1  0
 33 34  2  0
 34 35  1  0
 35 36  2  0
 36 37  1  0
 37 38  2  0
 38 39  1  0
 39 40  2  0
 40 41  1  0
 41  2  1  0
M  END
>  <Title>  (997) 
idABKKgen10

$$$$

     RDKit          2D

 93 94  0  0  0  0  0  0  0  0999 V2000
    8.3783    4.4054    0.0000 C   0  0  0  0  0  0  0  0  0  0  0  0
    9.1744    4.4469    0.0000 C   0  0  0  0  0  0  0  0  0  0  0  0
    9.1852    5.9468    0.0000 C   0  0  0  0  0  0  0  0  0  0  0  0
    9.3734    7.4350    0.0000 C   0  0  0  0  0  0  0  0  0  0  0  0
    9.7362    8.8904    0.0000 C   0  0  0  0  0  0  0  0  0  0  0  0
   10.2687   10.2927    0.0000 C   0  0  0  0  0  0  0  0  0  0  0  0
   10.9633   11.6222    0.0000 C   0  0  0  0  0  0  0  0  0  0  0  0
   11.8102   12.8603    0.0000 C   0  0  0  0  0  0  0  0  0  0  0  0
   12.7976   13.9894    0.0000 C   0  0  0  0  0  0  0  0  0  0  0  0
   13.9117   14.9939    0.0000 C   0  0  0  0  0  0  0  0  0  0  0  0
   15.1367   15.8595    0.0000 C   0  0  0  0  0  0  0  0  0  0  0  0
   16.4555   16.5742    0.0000 C   0  0  0  0  0  0  0  0  0  0  0  0
   17.8496   17.1278    0.0000 C   0  0  0  0  0  0  0  0  0  0  0  0
   19.2993   17.5128    0.0000 C   0  0  0  0  0  0  0  0  0  0  0  0
   20.7845   17.7235    0.0000 C   0  0  0  0  0  0  0  0  0  0  0  0
   22.2841   17.7571    0.0000 C   0  0  0  0  0  0  0  0  0  0  0  0
   23.7772   17.6131    0.0000 C   0  0  0  0  0  0  0  0  0  0  0  0
   25.2427   17.2935    0.0000 C   0  0  0  0  0  0  0  0  0  0  0  0
   26.6602   16.8029    0.0000 C   0  0  0  0  0  0  0  0  0  0  0  0
   28.0097   16.1480    0.0000 C   0  0  0  0  0  0  0  0  0  0  0  0
   29.2723   15.3381    0.0000 C   0  0  0  0  0  0  0  0  0  0  0  0
   30.4302   14.3846    0.0000 C   0  0  0  0  0  0  0  0  0  0  0  0
   31.4672   13.3008    0.0000 C   0  0  0  0  0  0  0  0  0  0  0  0
   32.3688   12.1020    0.0000 C   0  0  0  0  0  0  0  0  0  0  0  0
   33.1222   10.8049    0.0000 C   0  0  0  0  0  0  0  0  0  0  0  0
   33.7170    9.4279    0.0000 C   0  0  0  0  0  0  0  0  0  0  0  0
   34.1447    7.9902    0.0000 C   0  0  0  0  0  0  0  0  0  0  0  0
   34.3993    6.5119    0.0000 C   0  0  0  0  0  0  0  0  0  0  0  0
   34.4774    5.0140    0.0000 C   0  0  0  0  0  0  0  0  0  0  0  0
   34.3777    3.5173    0.0000 C   0  0  0  0  0  0  0  0  0  0  0  0
   34.1017    2.0429    0.0000 C   0  0  0  0  0  0  0  0  0  0  0  0
   33.6532    0.6115    0.0000 C   0  0  0  0  0  0  0  0  0  0  0  0
   33.0386   -0.7568    0.0000 C   0  0  0  0  0  0  0  0  0  0  0  0
   32.2665   -2.0428    0.0000 C   0  0  0  0  0  0  0  0  0  0  0  0
   31.3477   -3.2285    0.0000 C   0  0  0  0  0  0  0  0  0  0  0  0
   30.2952   -4.2972    0.0000 C   0  0  0  0  0  0  0  0  0  0  0  0
   29.1236   -5.2339    0.0000 C   0  0  0  0  0  0  0  0  0  0  0  0
   27.8494   -6.0254    0.0000 C   0  0  0  0  0  0  0  0  0  0  0  0
   26.4906   -6.6607    0.0000 C   0  0  0  0  0  0  0  0  0  0  0  0
   25.0662   -7.1308    0.0000 C   0  0  0  0  0  0  0  0  0  0  0  0
   23.5961   -7.4292    0.0000 C   0  0  0  0  0  0  0  0  0  0  0  0
   22.1011   -7.5516    0.0000 C   0  0  0  0  0  0  0  0  0  0  0  0
   20.6022   -7.4963    0.0000 C   0  0  0  0  0  0  0  0  0  0  0  0
   19.1202   -7.2641    0.0000 C   0  0  0  0  0  0  0  0  0  0  0  0
   17.6762   -6.8583    0.0000 C   0  0  0  0  0  0  0  0  0  0  0  0
   16.2903   -6.2845    0.0000 C   0  0  0  0  0  0  0  0  0  0  0  0
   14.9819   -5.5508    0.0000 C   0  0  0  0  0  0  0  0  0  0  0  0
   13.7695   -4.6676    0.0000 C   0  0  0  0  0  0  0  0  0  0  0  0
   12.6701   -3.6471    0.0000 C   0  0  0  0  0  0  0  0  0  0  0  0
   11.6991   -2.5038    0.0000 C   0  0  0  0  0  0  0  0  0  0  0  0
   10.8702   -1.2537    0.0000 C   0  0  0  0  0  0  0  0  0  0  0  0
   10.1949    0.0857    0.0000 C   0  0  0  0  0  0  0  0  0  0  0  0
    9.6828    1.4956    0.0000 C   0  0  0  0  0  0  0  0  0  0  0  0
    9.0976    0.0000    0.0000 C   0  0  0  0  0  0  0  0  0  0  0  0
    8.9910   -1.3887    0.0000 C   0  0  0  0  0  0  0  0  0  0  0  0
    8.6736   -2.7449    0.0000 C   0  0  0  0  0  0  0  0  0  0  0  0
    8.1530   -4.0368    0.0000 C   0  0  0  0  0  0  0  0  0  0  0  0
    7.4412   -5.2340    0.0000 C   0  0  0  0  0  0  0  0  0  0  0  0
    6.5550   -6.3086    0.0000 C   0  0  0  0  0  0  0  0  0  0  0  0
    5.5152   -7.2353    0.0000 C   0  0  0  0  0  0  0  0  0  0  0  0
    4.3461   -7.9924    0.0000 C   0  0  0  0  0  0  0  0  0  0  0  0
    3.0751   -8.5621    0.0000 C   0  0  0  0  0  0  0  0  0  0  0  0
    1.7321   -8.9312    0.0000 C   0  0  0  0  0  0  0  0  0  0  0  0
    0.3485   -9.0909    0.0000 C   0  0  0  0  0  0  0  0  0  0  0  0
   -1.0433   -9.0376    0.0000 C   0  0  0  0  0  0  0  0  0  0  0  0
   -2.4107   -8.7724    0.0000 C   0  0  0  0  0  0  0  0  0  0  0  0
   -3.7215   -8.3016    0.0000 C   0  0  0  0  0  0  0  0  0  0  0  0
   -4.9452   -7.6362    0.0000 C   0  0  0  0  0  0  0  0  0  0  0  0
   -6.0529   -6.7919    0.0000 C   0  0  0  0  0  0  0  0  0  0  0  0
   -7.0187   -5.7883    0.0000 C   0  0  0  0  0  0  0  0  0  0  0  0
   -7.8200   -4.6491    0.0000 C   0  0  0  0  0  0  0  0  0  0  0  0
   -8.4381   -3.4008    0.0000 C   0  0  0  0  0  0  0  0  0  0  0  0
   -8.8583   -2.0729    0.0000 C   0  0  0  0  0  0  0  0  0  0  0  0
   -9.0709   -0.6964    0.0000 C   0  0  0  0  0  0  0  0  0  0  0  0
   -9.0709    0.6964    0.0000 C   0  0  0  0  0  0  0  0  0  0  0  0
   -8.8583    2.0729    0.0000 C   0  0  0  0  0  0  0  0  0  0  0  0
   -8.4381    3.4008    0.0000 C   0  0  0  0  0  0  0  0  0  0  0  0
   -7.8200    4.6491    0.0000 C   0  0  0  0  0  0  0  0  0  0  0  0
   -7.0187    5.7883    0.0000 C   0  0  0  0  0  0  0  0  0  0  0  0
   -6.0529    6.7919    0.0000 C   0  0  0  0  0  0  0  0  0  0  0  0
   -4.9452    7.6362    0.0000 C   0  0  0  0  0  0  0  0  0  0  0  0
   -3.7215    8.3016    0.0000 C   0  0  0  0  0  0  0  0  0  0  0  0
   -2.4107    8.7724    0.0000 C   0  0  0  0  0  0  0  0  0  0  0  0
   -1.0433    9.0376    0.0000 C   0  0  0  0  0  0  0  0  0  0  0  0
    0.3485    9.0909    0.0000 C   0  0  0  0  0  0  0  0  0  0  0  0
    1.7321    8.9312    0.0000 C   0  0  0  0  0  0  0  0  0  0  0  0
    3.0751    8.5621    0.0000 C   0  0  0  0  0  0  0  0  0  0  0  0
    4.3461    7.9924    0.0000 C   0  0  0  0  0  0  0  0  0  0  0  0
    5.5152    7.2353    0.0000 C   0  0  0  0  0  0  0  0  0  0  0  0
    6.5550    6.3086    0.0000 C   0  0  0  0  0  0  0  0  0  0  0  0
    7.4412    5.2340    0.0000 C   0  0  0  0  0  0  0  0  0  0  0  0
    8.1530    4.0368    0.0000 C   0  0  0  0  0  0  0  0  0  0  0  0
    9.3410    2.9561    0.0000 C   0  0  0  0  0  0  0  0  0  0  0  0
  1  2  1  0
  2  3  1  0
  3  4  1  0
  4  5  1  0
  5  6  1  0
  6  7  1  0
  7  8  1  0
  8  9  1  0
  9 10  1  0
 10 11  1  0
 11 12  1  0
 12 13  1  0
 13 14  1  0
 14 15  1  0
 15 16  1  0
 16 17  1  0
 17 18  1  0
 18 19  1  0
 19 20  1  0
 20 21  1  0
 21 22  1  0
 22 23  1  0
 23 24  1  0
 24 25  1  0
 25 26  1  0
 26 27  1  0
 27 28  1  0
 28 29  1  0
 29 30  1  0
 30 31  1  0
 31 32  1  0
 32 33  1  0
 33 34  1  0
 34 35  1  0
 35 36  1  0
 36 37  1  0
 37 38  1  0
 38 39  1  0
 39 40  1  0
 40 41  1  0
 41 42  1  0
 42 43  1  0
 43 44  1  0
 44 45  1  0
 45 46  1  0
 46 47  1  0
 47 48  1  0
 48 49  1  0
 49 50  1  0
 50 51  1  0
 51 52  1  0
 52 53  1  0
 53 54  1  0
 54 55  1  0
 55 56  1  0
 56 57  2  0
 57 58  1  0
 58 59  2  0
 59 60  1  0
 60 61  2  0
 61 62  1  0
 62 63  2  0
 63 64  1  0
 64 65  2  0
 65 66  1  0
 66 67  2  0
 67 68  1  0
 68 69  2  0
 69 70  1  0
 70 71  2  0
 71 72  1  0
 72 73  2  0
 73 74  1  0
 74 75  2  0
 75 76  1  0
 76 77  2  0
 77 78  1  0
 78 79  2  0
 79 80  1  0
 80 81  2  0
 81 82  1  0
 82 83  2  0
 83 84  1  0
 84 85  2  0
 85 86  1  0
 86 87  2  0
 87 88  1  0
 88 89  2  0
 89 90  1  0
 90 91  2  0
 91 92  1  0
 92 93  2  0
 93  2  1  0
 93 53  1  0
M  END
>  <Title>  (998) 
idABKLgen10

$$$$

     RDKit          2D

 15 15  0  0  0  0  0  0  0  0999 V2000
    6.7500   -1.2990    0.0000 C   0  0  0  0  0  0  0  0  0  0  0  0
    6.0000    0.0000    0.0000 C   0  0  0  0  0  0  0  0  0  0  0  0
    4.5000    0.0000    0.0000 C   0  0  0  0  0  0  0  0  0  0  0  0
    3.0000    0.0000    0.0000 C   0  0  0  0  0  0  0  0  0  0  0  0
    1.5000    0.0000    0.0000 C   0  0  0  0  0  0  0  0  0  0  0  0
    0.7500   -1.2990    0.0000 C   0  0  0  0  0  0  0  0  0  0  0  0
   -0.7500   -1.2990    0.0000 C   0  0  0  0  0  0  0  0  0  0  0  0
   -1.5000    0.0000    0.0000 C   0  0  0  0  0  0  0  0  0  0  0  0
   -0.7500    1.2990    0.0000 C   0  0  0  0  0  0  0  0  0  0  0  0
    0.7500    1.2990    0.0000 C   0  0  0  0  0  0  0  0  0  0  0  0
    1.5000    2.5981    0.0000 C   0  0  0  0  0  0  0  0  0  0  0  0
    3.0000    2.5981    0.0000 O   0  0  0  0  0  0  0  0  0  0  0  0
    0.7500    3.8971    0.0000 O   0  0  0  0  0  0  0  0  0  0  0  0
    1.5000    5.1962    0.0000 C   0  0  0  0  0  0  0  0  0  0  0  0
    0.7500    6.4952    0.0000 C   0  0  0  0  0  0  0  0  0  0  0  0
  1  2  2  0
  2  3  1  0
  3  4  3  0
  4  5  1  0
  5  6  2  0
  6  7  1  0
  7  8  2  0
  8  9  1  0
  9 10  2  0
 10 11  1  0
 11 12  2  0
 11 13  1  0
 13 14  1  0
 14 15  1  0
 10  5  1  0
M  END
>  <Title>  (999) 
idABKMgen10

$$$$

     RDKit          2D

 49 49  0  0  0  0  0  0  0  0999 V2000
   12.4902    0.0000    0.0000 C   0  0  0  0  0  0  0  0  0  0  0  0
   10.9902    0.0000    0.0000 C   0  0  0  0  0  0  0  0  0  0  0  0
   10.8879   -1.4965    0.0000 C   0  0  0  0  0  0  0  0  0  0  0  0
   10.5827   -2.9651    0.0000 C   0  0  0  0  0  0  0  0  0  0  0  0
   10.0804   -4.3785    0.0000 C   0  0  0  0  0  0  0  0  0  0  0  0
    9.3903   -5.7103    0.0000 C   0  0  0  0  0  0  0  0  0  0  0  0
    8.5252   -6.9358    0.0000 C   0  0  0  0  0  0  0  0  0  0  0  0
    7.5014   -8.0321    0.0000 C   0  0  0  0  0  0  0  0  0  0  0  0
    6.3379   -8.9787    0.0000 C   0  0  0  0  0  0  0  0  0  0  0  0
    5.0562   -9.7581    0.0000 C   0  0  0  0  0  0  0  0  0  0  0  0
    3.6804  -10.3557    0.0000 C   0  0  0  0  0  0  0  0  0  0  0  0
    2.2360  -10.7604    0.0000 C   0  0  0  0  0  0  0  0  0  0  0  0
    0.7500  -10.9646    0.0000 C   0  0  0  0  0  0  0  0  0  0  0  0
   -0.7500  -10.9646    0.0000 C   0  0  0  0  0  0  0  0  0  0  0  0
   -2.2360  -10.7604    0.0000 C   0  0  0  0  0  0  0  0  0  0  0  0
   -3.6804  -10.3557    0.0000 C   0  0  0  0  0  0  0  0  0  0  0  0
   -5.0562   -9.7581    0.0000 C   0  0  0  0  0  0  0  0  0  0  0  0
   -6.3379   -8.9787    0.0000 C   0  0  0  0  0  0  0  0  0  0  0  0
   -7.5014   -8.0321    0.0000 C   0  0  0  0  0  0  0  0  0  0  0  0
   -8.5252   -6.9358    0.0000 C   0  0  0  0  0  0  0  0  0  0  0  0
   -9.3903   -5.7103    0.0000 C   0  0  0  0  0  0  0  0  0  0  0  0
  -10.0804   -4.3785    0.0000 C   0  0  0  0  0  0  0  0  0  0  0  0
  -10.5827   -2.9651    0.0000 C   0  0  0  0  0  0  0  0  0  0  0  0
  -10.8879   -1.4965    0.0000 C   0  0  0  0  0  0  0  0  0  0  0  0
  -10.9902    0.0000    0.0000 C   0  0  0  0  0  0  0  0  0  0  0  0
  -10.8879    1.4965    0.0000 C   0  0  0  0  0  0  0  0  0  0  0  0
  -10.5827    2.9651    0.0000 C   0  0  0  0  0  0  0  0  0  0  0  0
  -10.0804    4.3785    0.0000 C   0  0  0  0  0  0  0  0  0  0  0  0
   -9.3903    5.7103    0.0000 C   0  0  0  0  0  0  0  0  0  0  0  0
   -8.5252    6.9358    0.0000 C   0  0  0  0  0  0  0  0  0  0  0  0
   -7.5014    8.0321    0.0000 C   0  0  0  0  0  0  0  0  0  0  0  0
   -6.3379    8.9787    0.0000 C   0  0  0  0  0  0  0  0  0  0  0  0
   -5.0562    9.7581    0.0000 C   0  0  0  0  0  0  0  0  0  0  0  0
   -3.6804   10.3557    0.0000 C   0  0  0  0  0  0  0  0  0  0  0  0
   -2.2360   10.7604    0.0000 C   0  0  0  0  0  0  0  0  0  0  0  0
   -0.7500   10.9646    0.0000 C   0  0  0  0  0  0  0  0  0  0  0  0
    0.7500   10.9646    0.0000 C   0  0  0  0  0  0  0  0  0  0  0  0
    2.2360   10.7604    0.0000 C   0  0  0  0  0  0  0  0  0  0  0  0
    3.6804   10.3557    0.0000 C   0  0  0  0  0  0  0  0  0  0  0  0
    5.0562    9.7581    0.0000 C   0  0  0  0  0  0  0  0  0  0  0  0
    6.3379    8.9787    0.0000 C   0  0  0  0  0  0  0  0  0  0  0  0
    7.5014    8.0321    0.0000 C   0  0  0  0  0  0  0  0  0  0  0  0
    8.5252    6.9358    0.0000 C   0  0  0  0  0  0  0  0  0  0  0  0
    9.3903    5.7103    0.0000 C   0  0  0  0  0  0  0  0  0  0  0  0
   10.0804    4.3785    0.0000 C   0  0  0  0  0  0  0  0  0  0  0  0
   11.4562    4.9761    0.0000 C   0  0  0  0  0  0  0  0  0  0  0  0
   12.8320    5.5737    0.0000 N   0  0  0  0  0  0  0  0  0  0  0  0
   10.5827    2.9651    0.0000 C   0  0  0  0  0  0  0  0  0  0  0  0
   10.8879    1.4965    0.0000 C   0  0  0  0  0  0  0  0  0  0  0  0
  1  2  1  0
  2  3  1  0
  3  4  2  0
  4  5  1  0
  5  6  2  0
  6  7  1  0
  7  8  2  0
  8  9  1  0
  9 10  2  0
 10 11  1  0
 11 12  2  0
 12 13  1  0
 13 14  2  0
 14 15  1  0
 15 16  2  0
 16 17  1  0
 17 18  2  0
 18 19  1  0
 19 20  2  0
 20 21  1  0
 21 22  2  0
 22 23  1  0
 23 24  2  0
 24 25  1  0
 25 26  2  0
 26 27  1  0
 27 28  2  0
 28 29  1  0
 29 30  2  0
 30 31  1  0
 31 32  2  0
 32 33  1  0
 33 34  2  0
 34 35  1  0
 35 36  2  0
 36 37  1  0
 37 38  2  0
 38 39  1  0
 39 40  2  0
 40 41  1  0
 41 42  2  0
 42 43  1  0
 43 44  2  0
 44 45  1  0
 45 46  1  0
 46 47  3  0
 45 48  1  0
 48 49  2  0
 49  2  1  0
M  END
>  <Title>  (1000) 
idABKNgen10

$$$$

     RDKit          2D

 10 10  0  0  0  0  0  0  0  0999 V2000
    7.0607    0.0000    0.0000 C   0  0  0  0  0  0  0  0  0  0  0  0
    5.5607    0.0000    0.0000 C   0  0  0  0  0  0  0  0  0  0  0  0
    4.0607    0.0000    0.0000 C   0  0  0  0  0  0  0  0  0  0  0  0
    2.5607    0.0000    0.0000 C   0  0  0  0  0  0  0  0  0  0  0  0
    1.0607    0.0000    0.0000 C   0  0  0  0  0  0  0  0  0  0  0  0
   -0.0000   -1.0607    0.0000 C   0  0  0  0  0  0  0  0  0  0  0  0
   -0.0000   -2.5607    0.0000 C   0  0  0  0  0  0  0  0  0  0  0  0
   -1.0607    0.0000    0.0000 C   0  0  0  0  0  0  0  0  0  0  0  0
   -2.5607    0.0000    0.0000 O   0  0  0  0  0  0  0  0  0  0  0  0
    0.0000    1.0607    0.0000 C   0  0  0  0  0  0  0  0  0  0  0  0
  1  2  3  0
  2  3  1  0
  3  4  3  0
  4  5  1  0
  5  6  2  0
  6  7  1  0
  6  8  1  0
  8  9  2  0
  8 10  1  0
 10  5  1  0
M  END
>  <Title>  (1001) 
idABKOgen10

$$$$

     RDKit          2D

 11 11  0  0  0  0  0  0  0  0999 V2000
    7.5000    0.0000    0.0000 C   0  0  0  0  0  0  0  0  0  0  0  0
    6.0000    0.0000    0.0000 C   0  0  0  0  0  0  0  0  0  0  0  0
    4.5000    0.0000    0.0000 C   0  0  0  0  0  0  0  0  0  0  0  0
    3.0000    0.0000    0.0000 C   0  0  0  0  0  0  0  0  0  0  0  0
    1.5000    0.0000    0.0000 C   0  0  0  0  0  0  0  0  0  0  0  0
    0.7500   -1.2990    0.0000 C   0  0  0  0  0  0  0  0  0  0  0  0
   -0.7500   -1.2990    0.0000 C   0  0  0  0  0  0  0  0  0  0  0  0
   -1.5000    0.0000    0.0000 C   0  0  0  0  0  0  0  0  0  0  0  0
   -0.7500    1.2990    0.0000 C   0  0  0  0  0  0  0  0  0  0  0  0
    0.7500    1.2990    0.0000 C   0  0  0  0  0  0  0  0  0  0  0  0
    1.5000    2.5981    0.0000 C   0  0  0  0  0  0  0  0  0  0  0  0
  1  2  3  0
  2  3  1  0
  3  4  3  0
  4  5  1  0
  5  6  2  0
  6  7  1  0
  7  8  2  0
  8  9  1  0
  9 10  2  0
 10 11  1  0
 10  5  1  0
M  END
>  <Title>  (1002) 
idABKPgen10

$$$$

     RDKit          2D

  9  9  0  0  0  0  0  0  0  0999 V2000
    7.2760   -0.0000    0.0000 N   0  0  0  0  0  0  0  0  0  0  0  0
    5.7760   -0.0000    0.0000 C   0  0  0  0  0  0  0  0  0  0  0  0
    4.2760   -0.0000    0.0000 C   0  0  0  0  0  0  0  0  0  0  0  0
    2.7760    0.0000    0.0000 C   0  0  0  0  0  0  0  0  0  0  0  0
    1.2760    0.0000    0.0000 C   0  0  0  0  0  0  0  0  0  0  0  0
    0.3943    1.2135    0.0000 C   0  0  0  0  0  0  0  0  0  0  0  0
   -1.0323    0.7500    0.0000 C   0  0  0  0  0  0  0  0  0  0  0  0
   -1.0323   -0.7500    0.0000 C   0  0  0  0  0  0  0  0  0  0  0  0
    0.3943   -1.2135    0.0000 C   0  0  0  0  0  0  0  0  0  0  0  0
  1  2  3  0
  2  3  1  0
  3  4  3  0
  4  5  1  0
  5  6  2  0
  6  7  1  0
  7  8  2  0
  8  9  1  0
  9  5  1  0
M  END
>  <Title>  (1003) 
idABKQgen10

$$$$

     RDKit          2D

 12 13  0  0  0  0  0  0  0  0999 V2000
   -4.7084   -3.0832    0.0000 C   0  0  0  0  0  0  0  0  0  0  0  0
   -3.2595   -3.4715    0.0000 C   0  0  0  0  0  0  0  0  0  0  0  0
   -1.8107   -3.8597    0.0000 C   0  0  0  0  0  0  0  0  0  0  0  0
   -1.4224   -5.3086    0.0000 O   0  0  0  0  0  0  0  0  0  0  0  0
   -0.7500   -2.7990    0.0000 C   0  0  0  0  0  0  0  0  0  0  0  0
    0.7500   -2.7990    0.0000 C   0  0  0  0  0  0  0  0  0  0  0  0
    0.7500   -1.2990    0.0000 C   0  0  0  0  0  0  0  0  0  0  0  0
    1.5000    0.0000    0.0000 C   0  0  0  0  0  0  0  0  0  0  0  0
    0.7500    1.2990    0.0000 C   0  0  0  0  0  0  0  0  0  0  0  0
   -0.7500    1.2990    0.0000 C   0  0  0  0  0  0  0  0  0  0  0  0
   -1.5000    0.0000    0.0000 C   0  0  0  0  0  0  0  0  0  0  0  0
   -0.7500   -1.2990    0.0000 C   0  0  0  0  0  0  0  0  0  0  0  0
  1  2  3  0
  2  3  1  0
  3  4  2  0
  3  5  1  0
  5  6  2  0
  6  7  1  0
  7  8  2  0
  8  9  1  0
  9 10  2  0
 10 11  1  0
 11 12  2  0
 12  5  1  0
 12  7  1  0
M  END
>  <Title>  (1004) 
idABKRgen10

$$$$

     RDKit          2D

 78 78  0  0  0  0  0  0  0  0999 V2000
   18.6262    0.0000    0.0000 C   0  0  0  0  0  0  0  0  0  0  0  0
   18.5658   -1.4988    0.0000 C   0  0  0  0  0  0  0  0  0  0  0  0
   18.3850   -2.9878    0.0000 C   0  0  0  0  0  0  0  0  0  0  0  0
   18.0849   -4.4575    0.0000 C   0  0  0  0  0  0  0  0  0  0  0  0
   17.6676   -5.8983    0.0000 C   0  0  0  0  0  0  0  0  0  0  0  0
   17.1357   -7.3008    0.0000 C   0  0  0  0  0  0  0  0  0  0  0  0
   16.4926   -8.6560    0.0000 C   0  0  0  0  0  0  0  0  0  0  0  0
   15.7426   -9.9550    0.0000 C   0  0  0  0  0  0  0  0  0  0  0  0
   14.8906  -11.1895    0.0000 C   0  0  0  0  0  0  0  0  0  0  0  0
   13.9419  -12.3514    0.0000 C   0  0  0  0  0  0  0  0  0  0  0  0
   12.9028  -13.4332    0.0000 C   0  0  0  0  0  0  0  0  0  0  0  0
   11.7800  -14.4279    0.0000 C   0  0  0  0  0  0  0  0  0  0  0  0
   10.5809  -15.3290    0.0000 C   0  0  0  0  0  0  0  0  0  0  0  0
    9.3131  -16.1307    0.0000 C   0  0  0  0  0  0  0  0  0  0  0  0
    7.9849  -16.8278    0.0000 C   0  0  0  0  0  0  0  0  0  0  0  0
    6.6049  -17.4158    0.0000 C   0  0  0  0  0  0  0  0  0  0  0  0
    5.1821  -17.8908    0.0000 C   0  0  0  0  0  0  0  0  0  0  0  0
    3.7257  -18.2497    0.0000 C   0  0  0  0  0  0  0  0  0  0  0  0
    2.2451  -18.4904    0.0000 C   0  0  0  0  0  0  0  0  0  0  0  0
    0.7500  -18.6111    0.0000 C   0  0  0  0  0  0  0  0  0  0  0  0
   -0.7500  -18.6111    0.0000 C   0  0  0  0  0  0  0  0  0  0  0  0
   -2.2451  -18.4904    0.0000 C   0  0  0  0  0  0  0  0  0  0  0  0
   -3.7257  -18.2497    0.0000 C   0  0  0  0  0  0  0  0  0  0  0  0
   -5.1821  -17.8908    0.0000 C   0  0  0  0  0  0  0  0  0  0  0  0
   -6.6049  -17.4158    0.0000 C   0  0  0  0  0  0  0  0  0  0  0  0
   -7.9849  -16.8278    0.0000 C   0  0  0  0  0  0  0  0  0  0  0  0
   -9.3131  -16.1307    0.0000 C   0  0  0  0  0  0  0  0  0  0  0  0
  -10.5809  -15.3290    0.0000 C   0  0  0  0  0  0  0  0  0  0  0  0
  -11.7800  -14.4279    0.0000 C   0  0  0  0  0  0  0  0  0  0  0  0
  -12.9028  -13.4332    0.0000 C   0  0  0  0  0  0  0  0  0  0  0  0
  -13.9419  -12.3514    0.0000 C   0  0  0  0  0  0  0  0  0  0  0  0
  -14.8906  -11.1895    0.0000 C   0  0  0  0  0  0  0  0  0  0  0  0
  -15.7426   -9.9550    0.0000 C   0  0  0  0  0  0  0  0  0  0  0  0
  -16.4926   -8.6560    0.0000 C   0  0  0  0  0  0  0  0  0  0  0  0
  -17.1357   -7.3008    0.0000 C   0  0  0  0  0  0  0  0  0  0  0  0
  -17.6676   -5.8983    0.0000 C   0  0  0  0  0  0  0  0  0  0  0  0
  -18.0849   -4.4575    0.0000 C   0  0  0  0  0  0  0  0  0  0  0  0
  -18.3850   -2.9878    0.0000 C   0  0  0  0  0  0  0  0  0  0  0  0
  -18.5658   -1.4988    0.0000 C   0  0  0  0  0  0  0  0  0  0  0  0
  -18.6262    0.0000    0.0000 C   0  0  0  0  0  0  0  0  0  0  0  0
  -18.5658    1.4988    0.0000 C   0  0  0  0  0  0  0  0  0  0  0  0
  -18.3850    2.9878    0.0000 C   0  0  0  0  0  0  0  0  0  0  0  0
  -18.0849    4.4575    0.0000 C   0  0  0  0  0  0  0  0  0  0  0  0
  -17.6676    5.8983    0.0000 C   0  0  0  0  0  0  0  0  0  0  0  0
  -17.1357    7.3008    0.0000 C   0  0  0  0  0  0  0  0  0  0  0  0
  -16.4926    8.6560    0.0000 C   0  0  0  0  0  0  0  0  0  0  0  0
  -15.7426    9.9550    0.0000 C   0  0  0  0  0  0  0  0  0  0  0  0
  -14.8906   11.1895    0.0000 C   0  0  0  0  0  0  0  0  0  0  0  0
  -13.9419   12.3514    0.0000 C   0  0  0  0  0  0  0  0  0  0  0  0
  -12.9028   13.4332    0.0000 C   0  0  0  0  0  0  0  0  0  0  0  0
  -11.7800   14.4279    0.0000 C   0  0  0  0  0  0  0  0  0  0  0  0
  -10.5809   15.3290    0.0000 C   0  0  0  0  0  0  0  0  0  0  0  0
   -9.3131   16.1307    0.0000 C   0  0  0  0  0  0  0  0  0  0  0  0
   -7.9849   16.8278    0.0000 C   0  0  0  0  0  0  0  0  0  0  0  0
   -6.6049   17.4158    0.0000 C   0  0  0  0  0  0  0  0  0  0  0  0
   -5.1821   17.8908    0.0000 C   0  0  0  0  0  0  0  0  0  0  0  0
   -3.7257   18.2497    0.0000 C   0  0  0  0  0  0  0  0  0  0  0  0
   -2.2451   18.4904    0.0000 C   0  0  0  0  0  0  0  0  0  0  0  0
   -0.7500   18.6111    0.0000 C   0  0  0  0  0  0  0  0  0  0  0  0
    0.7500   18.6111    0.0000 C   0  0  0  0  0  0  0  0  0  0  0  0
    2.2451   18.4904    0.0000 C   0  0  0  0  0  0  0  0  0  0  0  0
    3.7257   18.2497    0.0000 C   0  0  0  0  0  0  0  0  0  0  0  0
    5.1821   17.8908    0.0000 C   0  0  0  0  0  0  0  0  0  0  0  0
    6.6049   17.4158    0.0000 C   0  0  0  0  0  0  0  0  0  0  0  0
    7.9849   16.8278    0.0000 C   0  0  0  0  0  0  0  0  0  0  0  0
    9.3131   16.1307    0.0000 C   0  0  0  0  0  0  0  0  0  0  0  0
   10.5809   15.3290    0.0000 C   0  0  0  0  0  0  0  0  0  0  0  0
   11.7800   14.4279    0.0000 C   0  0  0  0  0  0  0  0  0  0  0  0
   12.9028   13.4332    0.0000 C   0  0  0  0  0  0  0  0  0  0  0  0
   13.9419   12.3514    0.0000 C   0  0  0  0  0  0  0  0  0  0  0  0
   14.8906   11.1895    0.0000 C   0  0  0  0  0  0  0  0  0  0  0  0
   15.7426    9.9550    0.0000 C   0  0  0  0  0  0  0  0  0  0  0  0
   16.4926    8.6560    0.0000 C   0  0  0  0  0  0  0  0  0  0  0  0
   17.1357    7.3008    0.0000 C   0  0  0  0  0  0  0  0  0  0  0  0
   17.6676    5.8983    0.0000 C   0  0  0  0  0  0  0  0  0  0  0  0
   18.0849    4.4575    0.0000 C   0  0  0  0  0  0  0  0  0  0  0  0
   18.3850    2.9878    0.0000 C   0  0  0  0  0  0  0  0  0  0  0  0
   18.5658    1.4988    0.0000 C   0  0  0  0  0  0  0  0  0  0  0  0
  1  2  2  0
  2  3  1  0
  3  4  1  0
  4  5  1  0
  5  6  1  0
  6  7  1  0
  7  8  1  0
  8  9  1  0
  9 10  1  0
 10 11  1  0
 11 12  1  0
 12 13  1  0
 13 14  1  0
 14 15  1  0
 15 16  1  0
 16 17  1  0
 17 18  1  0
 18 19  1  0
 19 20  1  0
 20 21  1  0
 21 22  1  0
 22 23  1  0
 23 24  1  0
 24 25  1  0
 25 26  1  0
 26 27  1  0
 27 28  1  0
 28 29  1  0
 29 30  1  0
 30 31  1  0
 31 32  1  0
 32 33  1  0
 33 34  1  0
 34 35  1  0
 35 36  1  0
 36 37  1  0
 37 38  1  0
 38 39  1  0
 39 40  1  0
 40 41  1  0
 41 42  1  0
 42 43  1  0
 43 44  1  0
 44 45  1  0
 45 46  1  0
 46 47  1  0
 47 48  1  0
 48 49  1  0
 49 50  1  0
 50 51  1  0
 51 52  1  0
 52 53  1  0
 53 54  1  0
 54 55  1  0
 55 56  1  0
 56 57  1  0
 57 58  1  0
 58 59  1  0
 59 60  1  0
 60 61  1  0
 61 62  1  0
 62 63  1  0
 63 64  1  0
 64 65  1  0
 65 66  1  0
 66 67  1  0
 67 68  1  0
 68 69  1  0
 69 70  1  0
 70 71  1  0
 71 72  1  0
 72 73  1  0
 73 74  1  0
 74 75  1  0
 75 76  1  0
 76 77  1  0
 77 78  1  0
 78  1  1  0
M  END
>  <Title>  (1005) 
idABKSgen10

$$$$

     RDKit          2D

  7  7  0  0  0  0  0  0  0  0999 V2000
    4.2760   -0.0000    0.0000 N   0  0  0  0  0  0  0  0  0  0  0  0
    2.7760    0.0000    0.0000 C   0  0  0  0  0  0  0  0  0  0  0  0
    1.2760    0.0000    0.0000 C   0  0  0  0  0  0  0  0  0  0  0  0
    0.3943    1.2135    0.0000 C   0  0  0  0  0  0  0  0  0  0  0  0
   -1.0323    0.7500    0.0000 C   0  0  0  0  0  0  0  0  0  0  0  0
   -1.0323   -0.7500    0.0000 C   0  0  0  0  0  0  0  0  0  0  0  0
    0.3943   -1.2135    0.0000 C   0  0  0  0  0  0  0  0  0  0  0  0
  1  2  3  0
  2  3  1  0
  3  4  2  0
  4  5  1  0
  5  6  2  0
  6  7  1  0
  7  3  1  0
M  END
>  <Title>  (1006) 
idABKTgen10

$$$$

     RDKit          2D

 50 57  0  0  0  0  0  0  0  0999 V2000
    5.2417   -6.1122    0.0000 C   0  0  0  0  0  0  0  0  0  0  0  0
    3.7705   -5.8195    0.0000 C   0  0  0  0  0  0  0  0  0  0  0  0
    3.7705   -4.3195    0.0000 C   0  0  0  0  0  0  0  0  0  0  0  0
    3.1965   -2.9337    0.0000 C   0  0  0  0  0  0  0  0  0  0  0  0
    2.1358   -1.8731    0.0000 C   0  0  0  0  0  0  0  0  0  0  0  0
    2.9692   -0.6259    0.0000 C   0  0  0  0  0  0  0  0  0  0  0  0
    2.3057    0.7195    0.0000 O   0  0  0  0  0  0  0  0  0  0  0  0
    4.4660   -0.7240    0.0000 N   0  0  0  0  0  0  0  0  0  0  0  0
    5.2993    0.5232    0.0000 C   0  0  0  0  0  0  0  0  0  0  0  0
    6.7961    0.4251    0.0000 N   0  0  0  0  0  0  0  0  0  0  0  0
    7.6295    1.6723    0.0000 N   0  0  0  0  0  0  0  0  0  0  0  0
    6.9660    3.0176    0.0000 N   0  0  0  0  0  0  0  0  0  0  0  0
    5.4692    3.1158    0.0000 N   0  0  0  0  0  0  0  0  0  0  0  0
    4.6359    1.8686    0.0000 N   0  0  0  0  0  0  0  0  0  0  0  0
    0.7500   -1.2990    0.0000 C   0  0  0  0  0  0  0  0  0  0  0  0
    1.5000    0.0000    0.0000 C   0  0  0  0  0  0  0  0  0  0  0  0
    0.7500    1.2990    0.0000 C   0  0  0  0  0  0  0  0  0  0  0  0
   -0.7500    1.2990    0.0000 C   0  0  0  0  0  0  0  0  0  0  0  0
   -1.5000    0.0000    0.0000 C   0  0  0  0  0  0  0  0  0  0  0  0
   -0.7500   -1.2990    0.0000 C   0  0  0  0  0  0  0  0  0  0  0  0
   -2.1358   -1.8731    0.0000 C   0  0  0  0  0  0  0  0  0  0  0  0
   -2.5240   -0.4242    0.0000 C   0  0  0  0  0  0  0  0  0  0  0  0
   -3.9729   -0.0359    0.0000 C   0  0  0  0  0  0  0  0  0  0  0  0
   -5.0336   -1.0966    0.0000 C   0  0  0  0  0  0  0  0  0  0  0  0
   -4.6454   -2.5455    0.0000 C   0  0  0  0  0  0  0  0  0  0  0  0
   -3.1965   -2.9337    0.0000 C   0  0  0  0  0  0  0  0  0  0  0  0
   -3.7705   -4.3195    0.0000 C   0  0  0  0  0  0  0  0  0  0  0  0
   -5.0695   -3.5695    0.0000 C   0  0  0  0  0  0  0  0  0  0  0  0
   -6.3686   -4.3195    0.0000 C   0  0  0  0  0  0  0  0  0  0  0  0
   -6.3686   -5.8195    0.0000 C   0  0  0  0  0  0  0  0  0  0  0  0
   -5.0695   -6.5695    0.0000 C   0  0  0  0  0  0  0  0  0  0  0  0
   -3.7705   -5.8195    0.0000 C   0  0  0  0  0  0  0  0  0  0  0  0
   -3.1965   -7.2054    0.0000 C   0  0  0  0  0  0  0  0  0  0  0  0
   -4.6454   -7.5936    0.0000 C   0  0  0  0  0  0  0  0  0  0  0  0
   -5.0336   -9.0425    0.0000 C   0  0  0  0  0  0  0  0  0  0  0  0
   -3.9729  -10.1031    0.0000 C   0  0  0  0  0  0  0  0  0  0  0  0
   -2.5240   -9.7149    0.0000 C   0  0  0  0  0  0  0  0  0  0  0  0
   -2.1358   -8.2660    0.0000 C   0  0  0  0  0  0  0  0  0  0  0  0
   -0.7500   -8.8400    0.0000 C   0  0  0  0  0  0  0  0  0  0  0  0
   -1.5000  -10.1391    0.0000 C   0  0  0  0  0  0  0  0  0  0  0  0
   -0.7500  -11.4381    0.0000 C   0  0  0  0  0  0  0  0  0  0  0  0
    0.7500  -11.4381    0.0000 C   0  0  0  0  0  0  0  0  0  0  0  0
    1.5000  -10.1391    0.0000 C   0  0  0  0  0  0  0  0  0  0  0  0
    0.7500   -8.8400    0.0000 C   0  0  0  0  0  0  0  0  0  0  0  0
    2.1358   -8.2660    0.0000 C   0  0  0  0  0  0  0  0  0  0  0  0
    2.5240   -9.7149    0.0000 C   0  0  0  0  0  0  0  0  0  0  0  0
    3.9729  -10.1031    0.0000 C   0  0  0  0  0  0  0  0  0  0  0  0
    5.0336   -9.0425    0.0000 C   0  0  0  0  0  0  0  0  0  0  0  0
    4.6454   -7.5936    0.0000 C   0  0  0  0  0  0  0  0  0  0  0  0
    3.1965   -7.2054    0.0000 C   0  0  0  0  0  0  0  0  0  0  0  0
  1  2  1  0
  2  3  1  0
  3  4  2  0
  4  5  1  0
  5  6  1  0
  6  7  2  0
  6  8  1  0
  8  9  1  0
  9 10  2  0
 10 11  1  0
 11 12  2  0
 12 13  1  0
 13 14  2  0
  5 15  1  0
 15 16  2  0
 16 17  1  0
 17 18  2  0
 18 19  1  0
 19 20  2  0
 20 21  1  0
 21 22  2  0
 22 23  1  0
 23 24  2  0
 24 25  1  0
 25 26  2  0
 26 27  1  0
 27 28  2  0
 28 29  1  0
 29 30  2  0
 30 31  1  0
 31 32  2  0
 32 33  1  0
 33 34  2  0
 34 35  1  0
 35 36  2  0
 36 37  1  0
 37 38  2  0
 38 39  1  0
 39 40  2  0
 40 41  1  0
 41 42  2  0
 42 43  1  0
 43 44  2  0
 44 45  1  0
 45 46  2  0
 46 47  1  0
 47 48  2  0
 48 49  1  0
 49 50  2  0
 50  2  1  0
 14  9  1  0
 20 15  1  0
 26 21  1  0
 32 27  1  0
 38 33  1  0
 44 39  1  0
 50 45  1  0
M  END
>  <Title>  (1007) 
idABKUgen10

$$$$

     RDKit          2D

 11 11  0  0  0  0  0  0  0  0999 V2000
    4.5000    2.5981    0.0000 C   0  0  0  0  0  0  0  0  0  0  0  0
    3.7500    1.2990    0.0000 C   0  0  0  0  0  0  0  0  0  0  0  0
    3.0000    0.0000    0.0000 C   0  0  0  0  0  0  0  0  0  0  0  0
    3.7500   -1.2990    0.0000 C   0  0  0  0  0  0  0  0  0  0  0  0
    1.5000    0.0000    0.0000 C   0  0  0  0  0  0  0  0  0  0  0  0
    0.7500   -1.2990    0.0000 C   0  0  0  0  0  0  0  0  0  0  0  0
   -0.7500   -1.2990    0.0000 C   0  0  0  0  0  0  0  0  0  0  0  0
   -1.5000    0.0000    0.0000 C   0  0  0  0  0  0  0  0  0  0  0  0
   -0.7500    1.2990    0.0000 C   0  0  0  0  0  0  0  0  0  0  0  0
   -1.5000    2.5981    0.0000 O   0  0  0  0  0  0  0  0  0  0  0  0
    0.7500    1.2990    0.0000 C   0  0  0  0  0  0  0  0  0  0  0  0
  1  2  3  0
  2  3  1  0
  3  4  1  0
  3  5  1  0
  5  6  2  0
  6  7  1  0
  7  8  2  0
  8  9  1  0
  9 10  1  0
  9 11  2  0
 11  5  1  0
M  END
>  <Title>  (1008) 
idABKVgen10

$$$$

     RDKit          2D

 10 10  0  0  0  0  0  0  0  0999 V2000
    6.7500   -1.2990    0.0000 C   0  0  0  0  0  0  0  0  0  0  0  0
    5.2500   -1.2990    0.0000 C   0  0  0  0  0  0  0  0  0  0  0  0
    3.7500   -1.2990    0.0000 C   0  0  0  0  0  0  0  0  0  0  0  0
    3.0000    0.0000    0.0000 C   0  0  0  0  0  0  0  0  0  0  0  0
    1.5000    0.0000    0.0000 C   0  0  0  0  0  0  0  0  0  0  0  0
    0.7500   -1.2990    0.0000 C   0  0  0  0  0  0  0  0  0  0  0  0
   -0.7500   -1.2990    0.0000 C   0  0  0  0  0  0  0  0  0  0  0  0
   -1.5000    0.0000    0.0000 C   0  0  0  0  0  0  0  0  0  0  0  0
   -0.7500    1.2990    0.0000 C   0  0  0  0  0  0  0  0  0  0  0  0
    0.7500    1.2990    0.0000 C   0  0  0  0  0  0  0  0  0  0  0  0
  1  2  3  0
  2  3  1  0
  3  4  2  3
  4  5  1  0
  5  6  2  0
  6  7  1  0
  7  8  2  0
  8  9  1  0
  9 10  2  0
 10  5  1  0
M  END
>  <Title>  (1009) 
idABKWgen10

$$$$

     RDKit          2D

  9  9  0  0  0  0  0  0  0  0999 V2000
    4.5000    0.0000    0.0000 C   0  0  0  0  0  0  0  0  0  0  0  0
    3.0000    0.0000    0.0000 C   0  0  0  0  0  0  0  0  0  0  0  0
    1.5000    0.0000    0.0000 C   0  0  0  0  0  0  0  0  0  0  0  0
    0.7500   -1.2990    0.0000 C   0  0  0  0  0  0  0  0  0  0  0  0
   -0.7500   -1.2990    0.0000 C   0  0  0  0  0  0  0  0  0  0  0  0
   -1.5000   -2.5981    0.0000 C   0  0  0  0  0  0  0  0  0  0  0  0
   -1.5000    0.0000    0.0000 C   0  0  0  0  0  0  0  0  0  0  0  0
   -0.7500    1.2990    0.0000 C   0  0  0  0  0  0  0  0  0  0  0  0
    0.7500    1.2990    0.0000 C   0  0  0  0  0  0  0  0  0  0  0  0
  1  2  3  0
  2  3  1  0
  3  4  2  0
  4  5  1  0
  5  6  1  0
  5  7  1  0
  7  8  1  0
  8  9  2  0
  9  3  1  0
M  END
>  <Title>  (1010) 
idABKXgen10

$$$$

     RDKit          2D

 88 91  0  0  0  0  0  0  0  0999 V2000
   -7.9487    3.9623    0.0000 C   0  0  0  0  0  0  0  0  0  0  0  0
   -6.9923    5.1179    0.0000 C   0  0  0  0  0  0  0  0  0  0  0  0
   -8.1062    6.1225    0.0000 C   0  0  0  0  0  0  0  0  0  0  0  0
   -9.1309    7.2179    0.0000 C   0  0  0  0  0  0  0  0  0  0  0  0
  -10.0590    8.3963    0.0000 C   0  0  0  0  0  0  0  0  0  0  0  0
  -10.8838    9.6492    0.0000 C   0  0  0  0  0  0  0  0  0  0  0  0
  -11.5994   10.9675    0.0000 C   0  0  0  0  0  0  0  0  0  0  0  0
  -12.2006   12.3417    0.0000 C   0  0  0  0  0  0  0  0  0  0  0  0
  -12.6831   13.7620    0.0000 C   0  0  0  0  0  0  0  0  0  0  0  0
  -13.0435   15.2181    0.0000 C   0  0  0  0  0  0  0  0  0  0  0  0
  -13.2790   16.6994    0.0000 C   0  0  0  0  0  0  0  0  0  0  0  0
  -13.3881   18.1955    0.0000 C   0  0  0  0  0  0  0  0  0  0  0  0
  -13.3699   19.6954    0.0000 C   0  0  0  0  0  0  0  0  0  0  0  0
  -13.2246   21.1883    0.0000 C   0  0  0  0  0  0  0  0  0  0  0  0
  -12.9532   22.6635    0.0000 C   0  0  0  0  0  0  0  0  0  0  0  0
  -12.5576   24.1105    0.0000 C   0  0  0  0  0  0  0  0  0  0  0  0
  -12.0408   25.5186    0.0000 C   0  0  0  0  0  0  0  0  0  0  0  0
  -11.4064   26.8779    0.0000 C   0  0  0  0  0  0  0  0  0  0  0  0
  -10.6590   28.1784    0.0000 C   0  0  0  0  0  0  0  0  0  0  0  0
   -9.8040   29.4109    0.0000 C   0  0  0  0  0  0  0  0  0  0  0  0
   -8.8476   30.5664    0.0000 C   0  0  0  0  0  0  0  0  0  0  0  0
   -7.7967   31.6367    0.0000 C   0  0  0  0  0  0  0  0  0  0  0  0
   -6.6587   32.6140    0.0000 C   0  0  0  0  0  0  0  0  0  0  0  0
   -5.4420   33.4912    0.0000 C   0  0  0  0  0  0  0  0  0  0  0  0
   -4.1553   34.2621    0.0000 C   0  0  0  0  0  0  0  0  0  0  0  0
   -2.8078   34.9212    0.0000 C   0  0  0  0  0  0  0  0  0  0  0  0
   -1.4093   35.4635    0.0000 C   0  0  0  0  0  0  0  0  0  0  0  0
    0.0302   35.8853    0.0000 C   0  0  0  0  0  0  0  0  0  0  0  0
    1.5003   36.1835    0.0000 C   0  0  0  0  0  0  0  0  0  0  0  0
    2.9903   36.3560    0.0000 C   0  0  0  0  0  0  0  0  0  0  0  0
    4.4896   36.4015    0.0000 C   0  0  0  0  0  0  0  0  0  0  0  0
    5.9874   36.3196    0.0000 C   0  0  0  0  0  0  0  0  0  0  0  0
    7.4728   36.1111    0.0000 C   0  0  0  0  0  0  0  0  0  0  0  0
    8.9352   35.7773    0.0000 C   0  0  0  0  0  0  0  0  0  0  0  0
   10.3640   35.3207    0.0000 C   0  0  0  0  0  0  0  0  0  0  0  0
   11.7490   34.7446    0.0000 C   0  0  0  0  0  0  0  0  0  0  0  0
   13.0801   34.0531    0.0000 C   0  0  0  0  0  0  0  0  0  0  0  0
   14.3477   33.2512    0.0000 C   0  0  0  0  0  0  0  0  0  0  0  0
   15.5428   32.3447    0.0000 C   0  0  0  0  0  0  0  0  0  0  0  0
   16.6567   31.3401    0.0000 C   0  0  0  0  0  0  0  0  0  0  0  0
   17.6814   30.2446    0.0000 C   0  0  0  0  0  0  0  0  0  0  0  0
   18.6095   29.0662    0.0000 C   0  0  0  0  0  0  0  0  0  0  0  0
   19.4344   27.8134    0.0000 C   0  0  0  0  0  0  0  0  0  0  0  0
   20.1500   26.4951    0.0000 C   0  0  0  0  0  0  0  0  0  0  0  0
   20.7512   25.1208    0.0000 C   0  0  0  0  0  0  0  0  0  0  0  0
   21.2337   23.7006    0.0000 C   0  0  0  0  0  0  0  0  0  0  0  0
   21.5941   22.2445    0.0000 C   0  0  0  0  0  0  0  0  0  0  0  0
   21.8296   20.7631    0.0000 C   0  0  0  0  0  0  0  0  0  0  0  0
   21.9387   19.2671    0.0000 C   0  0  0  0  0  0  0  0  0  0  0  0
   21.9205   17.7672    0.0000 C   0  0  0  0  0  0  0  0  0  0  0  0
   21.7751   16.2742    0.0000 C   0  0  0  0  0  0  0  0  0  0  0  0
   21.5037   14.7990    0.0000 C   0  0  0  0  0  0  0  0  0  0  0  0
   21.1082   13.3521    0.0000 C   0  0  0  0  0  0  0  0  0  0  0  0
   20.5914   11.9439    0.0000 C   0  0  0  0  0  0  0  0  0  0  0  0
   19.9570   10.5847    0.0000 C   0  0  0  0  0  0  0  0  0  0  0  0
   19.2096    9.2841    0.0000 C   0  0  0  0  0  0  0  0  0  0  0  0
   18.3546    8.0516    0.0000 C   0  0  0  0  0  0  0  0  0  0  0  0
   17.3982    6.8961    0.0000 C   0  0  0  0  0  0  0  0  0  0  0  0
   16.3472    5.8258    0.0000 C   0  0  0  0  0  0  0  0  0  0  0  0
   15.2093    4.8486    0.0000 C   0  0  0  0  0  0  0  0  0  0  0  0
   13.9926    3.9713    0.0000 C   0  0  0  0  0  0  0  0  0  0  0  0
   12.7058    3.2004    0.0000 C   0  0  0  0  0  0  0  0  0  0  0  0
   11.3584    2.5414    0.0000 C   0  0  0  0  0  0  0  0  0  0  0  0
    9.9598    1.9990    0.0000 C   0  0  0  0  0  0  0  0  0  0  0  0
    8.5204    1.5772    0.0000 C   0  0  0  0  0  0  0  0  0  0  0  0
    7.0503    1.2790    0.0000 C   0  0  0  0  0  0  0  0  0  0  0  0
    5.5603    1.1065    0.0000 C   0  0  0  0  0  0  0  0  0  0  0  0
    4.0609    1.0611    0.0000 C   0  0  0  0  0  0  0  0  0  0  0  0
    2.5632    1.1429    0.0000 C   0  0  0  0  0  0  0  0  0  0  0  0
    1.0777    1.3515    0.0000 C   0  0  0  0  0  0  0  0  0  0  0  0
    1.7286    0.0000    0.0000 C   0  0  0  0  0  0  0  0  0  0  0  0
    1.0777   -1.3515    0.0000 C   0  0  0  0  0  0  0  0  0  0  0  0
   -0.3846   -1.6852    0.0000 C   0  0  0  0  0  0  0  0  0  0  0  0
   -1.5574   -0.7500    0.0000 C   0  0  0  0  0  0  0  0  0  0  0  0
   -1.5574    0.7500    0.0000 C   0  0  0  0  0  0  0  0  0  0  0  0
   -0.3846    1.6852    0.0000 C   0  0  0  0  0  0  0  0  0  0  0  0
   -1.8135    2.1418    0.0000 C   0  0  0  0  0  0  0  0  0  0  0  0
   -0.6220    3.0532    0.0000 C   0  0  0  0  0  0  0  0  0  0  0  0
   -0.8156    4.5406    0.0000 C   0  0  0  0  0  0  0  0  0  0  0  0
   -2.2005    5.1168    0.0000 C   0  0  0  0  0  0  0  0  0  0  0  0
   -3.3919    4.2054    0.0000 C   0  0  0  0  0  0  0  0  0  0  0  0
   -3.1984    2.7180    0.0000 C   0  0  0  0  0  0  0  0  0  0  0  0
   -4.5295    3.4095    0.0000 C   0  0  0  0  0  0  0  0  0  0  0  0
   -4.5901    1.9107    0.0000 C   0  0  0  0  0  0  0  0  0  0  0  0
   -5.9184    1.2138    0.0000 C   0  0  0  0  0  0  0  0  0  0  0  0
   -7.1861    2.0157    0.0000 C   0  0  0  0  0  0  0  0  0  0  0  0
   -7.1255    3.5145    0.0000 C   0  0  0  0  0  0  0  0  0  0  0  0
   -5.7972    4.2114    0.0000 C   0  0  0  0  0  0  0  0  0  0  0  0
  1  2  1  0
  2  3  1  0
  3  4  1  0
  4  5  1  0
  5  6  1  0
  6  7  1  0
  7  8  1  0
  8  9  1  0
  9 10  1  0
 10 11  1  0
 11 12  1  0
 12 13  1  0
 13 14  1  0
 14 15  1  0
 15 16  1  0
 16 17  1  0
 17 18  1  0
 18 19  1  0
 19 20  1  0
 20 21  1  0
 21 22  1  0
 22 23  1  0
 23 24  1  0
 24 25  1  0
 25 26  1  0
 26 27  1  0
 27 28  1  0
 28 29  1  0
 29 30  1  0
 30 31  1  0
 31 32  1  0
 32 33  1  0
 33 34  1  0
 34 35  1  0
 35 36  1  0
 36 37  1  0
 37 38  1  0
 38 39  1  0
 39 40  1  0
 40 41  1  0
 41 42  1  0
 42 43  1  0
 43 44  1  0
 44 45  1  0
 45 46  1  0
 46 47  1  0
 47 48  1  0
 48 49  1  0
 49 50  1  0
 50 51  1  0
 51 52  1  0
 52 53  1  0
 53 54  1  0
 54 55  1  0
 55 56  1  0
 56 57  1  0
 57 58  1  0
 58 59  1  0
 59 60  1  0
 60 61  1  0
 61 62  1  0
 62 63  1  0
 63 64  1  0
 64 65  1  0
 65 66  1  0
 66 67  1  0
 67 68  1  0
 68 69  1  0
 69 70  1  0
 70 71  1  0
 71 72  1  0
 72 73  1  0
 73 74  1  0
 74 75  1  0
 75 76  1  0
 76 77  1  0
 77 78  2  0
 78 79  1  0
 79 80  2  0
 80 81  1  0
 81 82  2  0
 82 83  1  0
 83 84  2  0
 84 85  1  0
 85 86  2  0
 86 87  1  0
 87 88  2  0
 88  2  1  0
 76 70  1  0
 82 77  1  0
 88 83  1  0
M  END
>  <Title>  (1011) 
idABKYgen10

$$$$

     RDKit          2D

 18 19  0  0  0  0  0  0  0  0999 V2000
   -0.8928  -10.2822    0.0000 C   0  0  0  0  0  0  0  0  0  0  0  0
    0.4775   -9.6721    0.0000 C   0  0  0  0  0  0  0  0  0  0  0  0
    1.8478   -9.0619    0.0000 C   0  0  0  0  0  0  0  0  0  0  0  0
    3.0613   -9.9436    0.0000 O   0  0  0  0  0  0  0  0  0  0  0  0
    2.0046   -7.5702    0.0000 N   0  0  0  0  0  0  0  0  0  0  0  0
    3.3037   -6.8202    0.0000 C   0  0  0  0  0  0  0  0  0  0  0  0
    2.9918   -5.3529    0.0000 C   0  0  0  0  0  0  0  0  0  0  0  0
    1.5000   -5.1962    0.0000 C   0  0  0  0  0  0  0  0  0  0  0  0
    0.7500   -3.8971    0.0000 C   0  0  0  0  0  0  0  0  0  0  0  0
   -0.7500   -3.8971    0.0000 O   0  0  0  0  0  0  0  0  0  0  0  0
    1.5000   -2.5981    0.0000 O   0  0  0  0  0  0  0  0  0  0  0  0
    0.7500   -1.2990    0.0000 C   0  0  0  0  0  0  0  0  0  0  0  0
    1.5000    0.0000    0.0000 N   0  0  0  0  0  0  0  0  0  0  0  0
    0.7500    1.2990    0.0000 N   0  0  0  0  0  0  0  0  0  0  0  0
   -0.7500    1.2990    0.0000 N   0  0  0  0  0  0  0  0  0  0  0  0
   -1.5000    0.0000    0.0000 N   0  0  0  0  0  0  0  0  0  0  0  0
   -0.7500   -1.2990    0.0000 N   0  0  0  0  0  0  0  0  0  0  0  0
    0.8899   -6.5665    0.0000 C   0  0  0  0  0  0  0  0  0  0  0  0
  1  2  3  0
  2  3  1  0
  3  4  2  0
  3  5  1  0
  5  6  1  0
  6  7  1  0
  7  8  1  0
  8  9  1  0
  9 10  2  0
  9 11  1  0
 11 12  1  0
 12 13  2  0
 13 14  1  0
 14 15  2  0
 15 16  1  0
 16 17  2  0
  8 18  1  0
 18  5  1  0
 17 12  1  0
M  END
>  <Title>  (1012) 
idABKZgen10

$$$$

     RDKit          2D

 30 34  0  0  0  0  0  0  0  0999 V2000
    3.1097   -7.2078    0.0000 C   0  0  0  0  0  0  0  0  0  0  0  0
    2.0490   -6.1471    0.0000 C   0  0  0  0  0  0  0  0  0  0  0  0
    2.7990   -4.8481    0.0000 C   0  0  0  0  0  0  0  0  0  0  0  0
    2.7990   -3.3481    0.0000 C   0  0  0  0  0  0  0  0  0  0  0  0
    2.0490   -2.0490    0.0000 C   0  0  0  0  0  0  0  0  0  0  0  0
    3.1097   -0.9884    0.0000 O   0  0  0  0  0  0  0  0  0  0  0  0
    0.7500   -1.2990    0.0000 C   0  0  0  0  0  0  0  0  0  0  0  0
    1.5000    0.0000    0.0000 C   0  0  0  0  0  0  0  0  0  0  0  0
    0.7500    1.2990    0.0000 C   0  0  0  0  0  0  0  0  0  0  0  0
   -0.7500    1.2990    0.0000 C   0  0  0  0  0  0  0  0  0  0  0  0
   -1.5000    0.0000    0.0000 C   0  0  0  0  0  0  0  0  0  0  0  0
   -0.7500   -1.2990    0.0000 C   0  0  0  0  0  0  0  0  0  0  0  0
   -2.0490   -2.0490    0.0000 C   0  0  0  0  0  0  0  0  0  0  0  0
   -2.7990   -0.7500    0.0000 C   0  0  0  0  0  0  0  0  0  0  0  0
   -4.2990   -0.7500    0.0000 C   0  0  0  0  0  0  0  0  0  0  0  0
   -5.0490   -2.0490    0.0000 C   0  0  0  0  0  0  0  0  0  0  0  0
   -4.2990   -3.3481    0.0000 C   0  0  0  0  0  0  0  0  0  0  0  0
   -2.7990   -3.3481    0.0000 C   0  0  0  0  0  0  0  0  0  0  0  0
   -2.7990   -4.8481    0.0000 C   0  0  0  0  0  0  0  0  0  0  0  0
   -4.2990   -4.8481    0.0000 C   0  0  0  0  0  0  0  0  0  0  0  0
   -5.0490   -6.1471    0.0000 C   0  0  0  0  0  0  0  0  0  0  0  0
   -4.2990   -7.4462    0.0000 C   0  0  0  0  0  0  0  0  0  0  0  0
   -2.7990   -7.4462    0.0000 C   0  0  0  0  0  0  0  0  0  0  0  0
   -2.0490   -6.1471    0.0000 C   0  0  0  0  0  0  0  0  0  0  0  0
   -0.7500   -6.8971    0.0000 C   0  0  0  0  0  0  0  0  0  0  0  0
   -1.5000   -8.1962    0.0000 C   0  0  0  0  0  0  0  0  0  0  0  0
   -0.7500   -9.4952    0.0000 C   0  0  0  0  0  0  0  0  0  0  0  0
    0.7500   -9.4952    0.0000 C   0  0  0  0  0  0  0  0  0  0  0  0
    1.5000   -8.1962    0.0000 C   0  0  0  0  0  0  0  0  0  0  0  0
    0.7500   -6.8971    0.0000 C   0  0  0  0  0  0  0  0  0  0  0  0
  1  2  1  0
  2  3  2  0
  3  4  1  0
  4  5  2  0
  5  6  1  0
  5  7  1  0
  7  8  2  0
  8  9  1  0
  9 10  2  0
 10 11  1  0
 11 12  2  0
 12 13  1  0
 13 14  2  0
 14 15  1  0
 15 16  2  0
 16 17  1  0
 17 18  2  0
 18 19  1  0
 19 20  2  0
 20 21  1  0
 21 22  2  0
 22 23  1  0
 23 24  2  0
 24 25  1  0
 25 26  2  0
 26 27  1  0
 27 28  2  0
 28 29  1  0
 29 30  2  0
 30  2  1  0
 12  7  1  0
 18 13  1  0
 24 19  1  0
 30 25  1  0
M  END
>  <Title>  (1013) 
idABLAgen10

$$$$

     RDKit          2D

 10 10  0  0  0  0  0  0  0  0999 V2000
    7.2760   -0.0000    0.0000 C   0  0  0  0  0  0  0  0  0  0  0  0
    5.7760   -0.0000    0.0000 C   0  0  0  0  0  0  0  0  0  0  0  0
    4.2760   -0.0000    0.0000 C   0  0  0  0  0  0  0  0  0  0  0  0
    2.7760    0.0000    0.0000 C   0  0  0  0  0  0  0  0  0  0  0  0
    1.2760    0.0000    0.0000 C   0  0  0  0  0  0  0  0  0  0  0  0
    0.3943    1.2135    0.0000 C   0  0  0  0  0  0  0  0  0  0  0  0
   -1.0323    0.7500    0.0000 C   0  0  0  0  0  0  0  0  0  0  0  0
   -2.2458    1.6317    0.0000 C   0  0  0  0  0  0  0  0  0  0  0  0
   -1.0323   -0.7500    0.0000 C   0  0  0  0  0  0  0  0  0  0  0  0
    0.3943   -1.2135    0.0000 C   0  0  0  0  0  0  0  0  0  0  0  0
  1  2  3  0
  2  3  1  0
  3  4  3  0
  4  5  1  0
  5  6  2  0
  6  7  1  0
  7  8  1  0
  7  9  1  0
  9 10  2  0
 10  5  1  0
M  END
>  <Title>  (1014) 
idABLBgen10

$$$$

     RDKit          2D

121121  0  0  0  0  0  0  0  0999 V2000
   30.1512    0.0000    0.0000 C   0  0  0  0  0  0  0  0  0  0  0  0
   28.6512    0.0000    0.0000 C   0  0  0  0  0  0  0  0  0  0  0  0
   28.6119   -1.4995    0.0000 C   0  0  0  0  0  0  0  0  0  0  0  0
   28.4942   -2.9949    0.0000 C   0  0  0  0  0  0  0  0  0  0  0  0
   28.2984   -4.4820    0.0000 C   0  0  0  0  0  0  0  0  0  0  0  0
   28.0251   -5.9569    0.0000 C   0  0  0  0  0  0  0  0  0  0  0  0
   27.6749   -7.4155    0.0000 C   0  0  0  0  0  0  0  0  0  0  0  0
   27.2489   -8.8537    0.0000 C   0  0  0  0  0  0  0  0  0  0  0  0
   26.7482  -10.2677    0.0000 C   0  0  0  0  0  0  0  0  0  0  0  0
   26.1741  -11.6535    0.0000 C   0  0  0  0  0  0  0  0  0  0  0  0
   25.5284  -13.0074    0.0000 C   0  0  0  0  0  0  0  0  0  0  0  0
   24.8126  -14.3256    0.0000 C   0  0  0  0  0  0  0  0  0  0  0  0
   24.0289  -15.6045    0.0000 C   0  0  0  0  0  0  0  0  0  0  0  0
   23.1793  -16.8407    0.0000 C   0  0  0  0  0  0  0  0  0  0  0  0
   22.2661  -18.0308    0.0000 C   0  0  0  0  0  0  0  0  0  0  0  0
   21.2920  -19.1714    0.0000 C   0  0  0  0  0  0  0  0  0  0  0  0
   20.2594  -20.2594    0.0000 C   0  0  0  0  0  0  0  0  0  0  0  0
   19.1714  -21.2920    0.0000 C   0  0  0  0  0  0  0  0  0  0  0  0
   18.0308  -22.2661    0.0000 C   0  0  0  0  0  0  0  0  0  0  0  0
   16.8407  -23.1793    0.0000 C   0  0  0  0  0  0  0  0  0  0  0  0
   15.6045  -24.0289    0.0000 C   0  0  0  0  0  0  0  0  0  0  0  0
   14.3256  -24.8126    0.0000 C   0  0  0  0  0  0  0  0  0  0  0  0
   13.0074  -25.5284    0.0000 C   0  0  0  0  0  0  0  0  0  0  0  0
   11.6535  -26.1741    0.0000 C   0  0  0  0  0  0  0  0  0  0  0  0
   10.2677  -26.7482    0.0000 C   0  0  0  0  0  0  0  0  0  0  0  0
    8.8537  -27.2489    0.0000 C   0  0  0  0  0  0  0  0  0  0  0  0
    7.4155  -27.6749    0.0000 C   0  0  0  0  0  0  0  0  0  0  0  0
    5.9569  -28.0251    0.0000 C   0  0  0  0  0  0  0  0  0  0  0  0
    4.4820  -28.2984    0.0000 C   0  0  0  0  0  0  0  0  0  0  0  0
    2.9949  -28.4942    0.0000 C   0  0  0  0  0  0  0  0  0  0  0  0
    1.4995  -28.6119    0.0000 C   0  0  0  0  0  0  0  0  0  0  0  0
   -0.0000  -28.6512    0.0000 C   0  0  0  0  0  0  0  0  0  0  0  0
   -1.4995  -28.6119    0.0000 C   0  0  0  0  0  0  0  0  0  0  0  0
   -2.9949  -28.4942    0.0000 C   0  0  0  0  0  0  0  0  0  0  0  0
   -4.4820  -28.2984    0.0000 C   0  0  0  0  0  0  0  0  0  0  0  0
   -5.9569  -28.0251    0.0000 C   0  0  0  0  0  0  0  0  0  0  0  0
   -7.4155  -27.6749    0.0000 C   0  0  0  0  0  0  0  0  0  0  0  0
   -8.8537  -27.2489    0.0000 C   0  0  0  0  0  0  0  0  0  0  0  0
  -10.2677  -26.7482    0.0000 C   0  0  0  0  0  0  0  0  0  0  0  0
  -11.6535  -26.1741    0.0000 C   0  0  0  0  0  0  0  0  0  0  0  0
  -13.0074  -25.5284    0.0000 C   0  0  0  0  0  0  0  0  0  0  0  0
  -14.3256  -24.8126    0.0000 C   0  0  0  0  0  0  0  0  0  0  0  0
  -15.6045  -24.0289    0.0000 C   0  0  0  0  0  0  0  0  0  0  0  0
  -16.8407  -23.1793    0.0000 C   0  0  0  0  0  0  0  0  0  0  0  0
  -18.0308  -22.2661    0.0000 C   0  0  0  0  0  0  0  0  0  0  0  0
  -19.1714  -21.2920    0.0000 C   0  0  0  0  0  0  0  0  0  0  0  0
  -20.2594  -20.2594    0.0000 C   0  0  0  0  0  0  0  0  0  0  0  0
  -21.2920  -19.1714    0.0000 C   0  0  0  0  0  0  0  0  0  0  0  0
  -22.2661  -18.0308    0.0000 C   0  0  0  0  0  0  0  0  0  0  0  0
  -23.1793  -16.8407    0.0000 C   0  0  0  0  0  0  0  0  0  0  0  0
  -24.0289  -15.6045    0.0000 C   0  0  0  0  0  0  0  0  0  0  0  0
  -24.8126  -14.3256    0.0000 C   0  0  0  0  0  0  0  0  0  0  0  0
  -25.5284  -13.0074    0.0000 C   0  0  0  0  0  0  0  0  0  0  0  0
  -26.1741  -11.6535    0.0000 C   0  0  0  0  0  0  0  0  0  0  0  0
  -26.7482  -10.2677    0.0000 C   0  0  0  0  0  0  0  0  0  0  0  0
  -27.2489   -8.8537    0.0000 C   0  0  0  0  0  0  0  0  0  0  0  0
  -27.6749   -7.4155    0.0000 C   0  0  0  0  0  0  0  0  0  0  0  0
  -28.0251   -5.9569    0.0000 C   0  0  0  0  0  0  0  0  0  0  0  0
  -28.2984   -4.4820    0.0000 C   0  0  0  0  0  0  0  0  0  0  0  0
  -28.4942   -2.9949    0.0000 C   0  0  0  0  0  0  0  0  0  0  0  0
  -28.6119   -1.4995    0.0000 C   0  0  0  0  0  0  0  0  0  0  0  0
  -28.6512    0.0000    0.0000 C   0  0  0  0  0  0  0  0  0  0  0  0
  -28.6119    1.4995    0.0000 C   0  0  0  0  0  0  0  0  0  0  0  0
  -28.4942    2.9949    0.0000 C   0  0  0  0  0  0  0  0  0  0  0  0
  -28.2984    4.4820    0.0000 C   0  0  0  0  0  0  0  0  0  0  0  0
  -28.0251    5.9569    0.0000 C   0  0  0  0  0  0  0  0  0  0  0  0
  -27.6749    7.4155    0.0000 C   0  0  0  0  0  0  0  0  0  0  0  0
  -27.2489    8.8537    0.0000 C   0  0  0  0  0  0  0  0  0  0  0  0
  -26.7482   10.2677    0.0000 C   0  0  0  0  0  0  0  0  0  0  0  0
  -26.1741   11.6535    0.0000 C   0  0  0  0  0  0  0  0  0  0  0  0
  -25.5284   13.0074    0.0000 C   0  0  0  0  0  0  0  0  0  0  0  0
  -24.8126   14.3256    0.0000 C   0  0  0  0  0  0  0  0  0  0  0  0
  -24.0289   15.6045    0.0000 C   0  0  0  0  0  0  0  0  0  0  0  0
  -23.1793   16.8407    0.0000 C   0  0  0  0  0  0  0  0  0  0  0  0
  -22.2661   18.0308    0.0000 C   0  0  0  0  0  0  0  0  0  0  0  0
  -21.2920   19.1714    0.0000 C   0  0  0  0  0  0  0  0  0  0  0  0
  -20.2594   20.2594    0.0000 C   0  0  0  0  0  0  0  0  0  0  0  0
  -19.1714   21.2920    0.0000 C   0  0  0  0  0  0  0  0  0  0  0  0
  -18.0308   22.2661    0.0000 C   0  0  0  0  0  0  0  0  0  0  0  0
  -16.8407   23.1793    0.0000 C   0  0  0  0  0  0  0  0  0  0  0  0
  -15.6045   24.0289    0.0000 C   0  0  0  0  0  0  0  0  0  0  0  0
  -14.3256   24.8126    0.0000 C   0  0  0  0  0  0  0  0  0  0  0  0
  -13.0074   25.5284    0.0000 C   0  0  0  0  0  0  0  0  0  0  0  0
  -11.6535   26.1741    0.0000 C   0  0  0  0  0  0  0  0  0  0  0  0
  -10.2677   26.7482    0.0000 C   0  0  0  0  0  0  0  0  0  0  0  0
   -8.8537   27.2489    0.0000 C   0  0  0  0  0  0  0  0  0  0  0  0
   -7.4155   27.6749    0.0000 C   0  0  0  0  0  0  0  0  0  0  0  0
   -5.9569   28.0251    0.0000 C   0  0  0  0  0  0  0  0  0  0  0  0
   -4.4820   28.2984    0.0000 C   0  0  0  0  0  0  0  0  0  0  0  0
   -2.9949   28.4942    0.0000 C   0  0  0  0  0  0  0  0  0  0  0  0
   -1.4995   28.6119    0.0000 C   0  0  0  0  0  0  0  0  0  0  0  0
    0.0000   28.6512    0.0000 C   0  0  0  0  0  0  0  0  0  0  0  0
    1.4995   28.6119    0.0000 C   0  0  0  0  0  0  0  0  0  0  0  0
    2.9949   28.4942    0.0000 C   0  0  0  0  0  0  0  0  0  0  0  0
    4.4820   28.2984    0.0000 C   0  0  0  0  0  0  0  0  0  0  0  0
    5.9569   28.0251    0.0000 C   0  0  0  0  0  0  0  0  0  0  0  0
    7.4155   27.6749    0.0000 C   0  0  0  0  0  0  0  0  0  0  0  0
    8.8537   27.2489    0.0000 C   0  0  0  0  0  0  0  0  0  0  0  0
   10.2677   26.7482    0.0000 C   0  0  0  0  0  0  0  0  0  0  0  0
   11.6535   26.1741    0.0000 C   0  0  0  0  0  0  0  0  0  0  0  0
   13.0074   25.5284    0.0000 C   0  0  0  0  0  0  0  0  0  0  0  0
   14.3256   24.8126    0.0000 C   0  0  0  0  0  0  0  0  0  0  0  0
   15.6045   24.0289    0.0000 C   0  0  0  0  0  0  0  0  0  0  0  0
   16.8407   23.1793    0.0000 C   0  0  0  0  0  0  0  0  0  0  0  0
   18.0308   22.2661    0.0000 C   0  0  0  0  0  0  0  0  0  0  0  0
   19.1714   21.2920    0.0000 C   0  0  0  0  0  0  0  0  0  0  0  0
   20.2594   20.2594    0.0000 C   0  0  0  0  0  0  0  0  0  0  0  0
   21.2920   19.1714    0.0000 C   0  0  0  0  0  0  0  0  0  0  0  0
   22.2661   18.0308    0.0000 C   0  0  0  0  0  0  0  0  0  0  0  0
   23.1793   16.8407    0.0000 C   0  0  0  0  0  0  0  0  0  0  0  0
   24.0289   15.6045    0.0000 C   0  0  0  0  0  0  0  0  0  0  0  0
   24.8126   14.3256    0.0000 C   0  0  0  0  0  0  0  0  0  0  0  0
   25.5284   13.0074    0.0000 C   0  0  0  0  0  0  0  0  0  0  0  0
   26.1741   11.6535    0.0000 C   0  0  0  0  0  0  0  0  0  0  0  0
   26.7482   10.2677    0.0000 C   0  0  0  0  0  0  0  0  0  0  0  0
   27.2489    8.8537    0.0000 C   0  0  0  0  0  0  0  0  0  0  0  0
   27.6749    7.4155    0.0000 C   0  0  0  0  0  0  0  0  0  0  0  0
   28.0251    5.9569    0.0000 C   0  0  0  0  0  0  0  0  0  0  0  0
   28.2984    4.4820    0.0000 C   0  0  0  0  0  0  0  0  0  0  0  0
   28.4942    2.9949    0.0000 C   0  0  0  0  0  0  0  0  0  0  0  0
   28.6119    1.4995    0.0000 C   0  0  0  0  0  0  0  0  0  0  0  0
  1  2  1  0
  2  3  1  0
  3  4  1  0
  4  5  1  0
  5  6  1  0
  6  7  1  0
  7  8  1  0
  8  9  1  0
  9 10  1  0
 10 11  1  0
 11 12  1  0
 12 13  1  0
 13 14  1  0
 14 15  1  0
 15 16  1  0
 16 17  1  0
 17 18  1  0
 18 19  1  0
 19 20  1  0
 20 21  1  0
 21 22  1  0
 22 23  1  0
 23 24  1  0
 24 25  1  0
 25 26  1  0
 26 27  1  0
 27 28  1  0
 28 29  1  0
 29 30  1  0
 30 31  1  0
 31 32  1  0
 32 33  1  0
 33 34  1  0
 34 35  1  0
 35 36  1  0
 36 37  1  0
 37 38  1  0
 38 39  1  0
 39 40  1  0
 40 41  1  0
 41 42  1  0
 42 43  1  0
 43 44  1  0
 44 45  1  0
 45 46  1  0
 46 47  1  0
 47 48  1  0
 48 49  1  0
 49 50  1  0
 50 51  1  0
 51 52  1  0
 52 53  1  0
 53 54  1  0
 54 55  1  0
 55 56  1  0
 56 57  1  0
 57 58  1  0
 58 59  1  0
 59 60  1  0
 60 61  1  0
 61 62  1  0
 62 63  1  0
 63 64  1  0
 64 65  1  0
 65 66  1  0
 66 67  1  0
 67 68  1  0
 68 69  1  0
 69 70  1  0
 70 71  1  0
 71 72  1  0
 72 73  1  0
 73 74  1  0
 74 75  1  0
 75 76  1  0
 76 77  1  0
 77 78  1  0
 78 79  1  0
 79 80  1  0
 80 81  1  0
 81 82  1  0
 82 83  1  0
 83 84  1  0
 84 85  1  0
 85 86  1  0
 86 87  1  0
 87 88  1  0
 88 89  1  0
 89 90  1  0
 90 91  1  0
 91 92  1  0
 92 93  1  0
 93 94  1  0
 94 95  1  0
 95 96  1  0
 96 97  1  0
 97 98  1  0
 98 99  1  0
 99100  1  0
100101  1  0
101102  1  0
102103  1  0
103104  1  0
104105  1  0
105106  1  0
106107  1  0
107108  1  0
108109  1  0
109110  1  0
110111  1  0
111112  1  0
112113  1  0
113114  1  0
114115  1  0
115116  1  0
116117  1  0
117118  1  0
118119  1  0
119120  1  0
120121  1  0
121  2  1  0
M  END
>  <Title>  (1015) 
idABLCgen10

$$$$

     RDKit          2D

 40 41  0  0  0  0  0  0  0  0999 V2000
   -5.9431   -0.4769    0.0000 C   0  0  0  0  0  0  0  0  0  0  0  0
   -5.4796    0.9497    0.0000 C   0  0  0  0  0  0  0  0  0  0  0  0
   -6.8589    1.5393    0.0000 C   0  0  0  0  0  0  0  0  0  0  0  0
   -8.1107    2.3656    0.0000 C   0  0  0  0  0  0  0  0  0  0  0  0
   -9.1949    3.4022    0.0000 C   0  0  0  0  0  0  0  0  0  0  0  0
  -10.0766    4.6157    0.0000 C   0  0  0  0  0  0  0  0  0  0  0  0
  -10.7274    5.9672    0.0000 C   0  0  0  0  0  0  0  0  0  0  0  0
  -11.1265    7.4131    0.0000 C   0  0  0  0  0  0  0  0  0  0  0  0
  -11.2610    8.9071    0.0000 C   0  0  0  0  0  0  0  0  0  0  0  0
  -11.1265   10.4011    0.0000 C   0  0  0  0  0  0  0  0  0  0  0  0
  -10.7274   11.8470    0.0000 C   0  0  0  0  0  0  0  0  0  0  0  0
  -10.0766   13.1984    0.0000 C   0  0  0  0  0  0  0  0  0  0  0  0
   -9.1949   14.4120    0.0000 C   0  0  0  0  0  0  0  0  0  0  0  0
   -8.1107   15.4486    0.0000 C   0  0  0  0  0  0  0  0  0  0  0  0
   -6.8589   16.2749    0.0000 C   0  0  0  0  0  0  0  0  0  0  0  0
   -5.4796   16.8645    0.0000 C   0  0  0  0  0  0  0  0  0  0  0  0
   -4.0172   17.1982    0.0000 C   0  0  0  0  0  0  0  0  0  0  0  0
   -2.5187   17.2655    0.0000 C   0  0  0  0  0  0  0  0  0  0  0  0
   -1.0323   17.0642    0.0000 C   0  0  0  0  0  0  0  0  0  0  0  0
    0.3943   16.6007    0.0000 C   0  0  0  0  0  0  0  0  0  0  0  0
    1.7152   15.8899    0.0000 C   0  0  0  0  0  0  0  0  0  0  0  0
    2.8879   14.9546    0.0000 C   0  0  0  0  0  0  0  0  0  0  0  0
    3.8748   13.8250    0.0000 C   0  0  0  0  0  0  0  0  0  0  0  0
    4.6442   12.5373    0.0000 C   0  0  0  0  0  0  0  0  0  0  0  0
    5.1713   11.1330    0.0000 C   0  0  0  0  0  0  0  0  0  0  0  0
    5.4391    9.6571    0.0000 C   0  0  0  0  0  0  0  0  0  0  0  0
    5.4391    8.1571    0.0000 C   0  0  0  0  0  0  0  0  0  0  0  0
    5.1713    6.6812    0.0000 C   0  0  0  0  0  0  0  0  0  0  0  0
    4.6442    5.2768    0.0000 C   0  0  0  0  0  0  0  0  0  0  0  0
    3.8748    3.9892    0.0000 C   0  0  0  0  0  0  0  0  0  0  0  0
    2.8879    2.8596    0.0000 C   0  0  0  0  0  0  0  0  0  0  0  0
    1.7152    1.9243    0.0000 C   0  0  0  0  0  0  0  0  0  0  0  0
    0.3943    1.2135    0.0000 C   0  0  0  0  0  0  0  0  0  0  0  0
    1.2760    0.0000    0.0000 C   0  0  0  0  0  0  0  0  0  0  0  0
    0.3943   -1.2135    0.0000 C   0  0  0  0  0  0  0  0  0  0  0  0
   -1.0323   -0.7500    0.0000 C   0  0  0  0  0  0  0  0  0  0  0  0
   -1.0323    0.7500    0.0000 C   0  0  0  0  0  0  0  0  0  0  0  0
   -2.5187    0.5487    0.0000 C   0  0  0  0  0  0  0  0  0  0  0  0
   -2.4514   -0.9498    0.0000 C   0  0  0  0  0  0  0  0  0  0  0  0
   -4.0172    0.6159    0.0000 C   0  0  0  0  0  0  0  0  0  0  0  0
  1  2  1  0
  2  3  2  0
  3  4  1  0
  4  5  2  0
  5  6  1  0
  6  7  2  0
  7  8  1  0
  8  9  2  0
  9 10  1  0
 10 11  2  0
 11 12  1  0
 12 13  2  0
 13 14  1  0
 14 15  2  0
 15 16  1  0
 16 17  2  0
 17 18  1  0
 18 19  2  0
 19 20  1  0
 20 21  2  0
 21 22  1  0
 22 23  2  0
 23 24  1  0
 24 25  2  0
 25 26  1  0
 26 27  2  0
 27 28  1  0
 28 29  2  0
 29 30  1  0
 30 31  2  0
 31 32  1  0
 32 33  2  0
 33 34  1  0
 34 35  2  0
 35 36  1  0
 36 37  2  0
 37 38  1  0
 38 39  1  0
 38 40  2  0
 40  2  1  0
 37 33  1  0
M  END
>  <Title>  (1016) 
idABLDgen10

$$$$

     RDKit          2D

  8  8  0  0  0  0  0  0  0  0999 V2000
    3.2286   -0.0000    0.0000 O   0  0  0  0  0  0  0  0  0  0  0  0
    1.7286    0.0000    0.0000 C   0  0  0  0  0  0  0  0  0  0  0  0
    1.0777    1.3515    0.0000 C   0  0  0  0  0  0  0  0  0  0  0  0
   -0.3846    1.6852    0.0000 C   0  0  0  0  0  0  0  0  0  0  0  0
   -1.5574    0.7500    0.0000 C   0  0  0  0  0  0  0  0  0  0  0  0
   -1.5574   -0.7500    0.0000 C   0  0  0  0  0  0  0  0  0  0  0  0
   -0.3846   -1.6852    0.0000 C   0  0  0  0  0  0  0  0  0  0  0  0
    1.0777   -1.3515    0.0000 C   0  0  0  0  0  0  0  0  0  0  0  0
  1  2  1  0
  2  3  1  0
  3  4  1  0
  4  5  1  0
  5  6  1  0
  6  7  1  0
  7  8  1  0
  8  2  1  0
M  END
>  <Title>  (1017) 
idABLEgen10

$$$$

     RDKit          2D

 12 12  0  0  0  0  0  0  0  0999 V2000
    7.5000   -2.5981    0.0000 C   0  0  0  0  0  0  0  0  0  0  0  0
    6.0000   -2.5981    0.0000 C   0  0  0  0  0  0  0  0  0  0  0  0
    5.2500   -1.2990    0.0000 C   0  0  0  0  0  0  0  0  0  0  0  0
    3.7500   -1.2990    0.0000 C   0  0  0  0  0  0  0  0  0  0  0  0
    3.0000   -2.5981    0.0000 O   0  0  0  0  0  0  0  0  0  0  0  0
    3.0000    0.0000    0.0000 N   0  0  0  0  0  0  0  0  0  0  0  0
    1.5000    0.0000    0.0000 C   0  0  0  0  0  0  0  0  0  0  0  0
    0.7500   -1.2990    0.0000 C   0  0  0  0  0  0  0  0  0  0  0  0
   -0.7500   -1.2990    0.0000 C   0  0  0  0  0  0  0  0  0  0  0  0
   -1.5000    0.0000    0.0000 C   0  0  0  0  0  0  0  0  0  0  0  0
   -0.7500    1.2990    0.0000 C   0  0  0  0  0  0  0  0  0  0  0  0
    0.7500    1.2990    0.0000 C   0  0  0  0  0  0  0  0  0  0  0  0
  1  2  1  0
  2  3  1  0
  3  4  1  0
  4  5  2  0
  4  6  1  0
  6  7  1  0
  7  8  2  0
  8  9  1  0
  9 10  2  0
 10 11  1  0
 11 12  2  0
 12  7  1  0
M  END
>  <Title>  (1018) 
idABLFgen10

$$$$

     RDKit          2D

 10 10  0  0  0  0  0  0  0  0999 V2000
    4.9598   -0.0000    0.0000 C   0  0  0  0  0  0  0  0  0  0  0  0
    3.4598   -0.0000    0.0000 C   0  0  0  0  0  0  0  0  0  0  0  0
    1.9598    0.0000    0.0000 C   0  0  0  0  0  0  0  0  0  0  0  0
    1.3858   -1.3858    0.0000 C   0  0  0  0  0  0  0  0  0  0  0  0
   -0.0000   -1.9598    0.0000 C   0  0  0  0  0  0  0  0  0  0  0  0
   -1.3858   -1.3858    0.0000 C   0  0  0  0  0  0  0  0  0  0  0  0
   -1.9598    0.0000    0.0000 C   0  0  0  0  0  0  0  0  0  0  0  0
   -1.3858    1.3858    0.0000 C   0  0  0  0  0  0  0  0  0  0  0  0
    0.0000    1.9598    0.0000 C   0  0  0  0  0  0  0  0  0  0  0  0
    1.3858    1.3858    0.0000 C   0  0  0  0  0  0  0  0  0  0  0  0
  1  2  3  0
  2  3  1  0
  3  4  1  0
  4  5  1  0
  5  6  2  0
  6  7  1  0
  7  8  1  0
  8  9  1  0
  9 10  1  0
 10  3  1  0
M  END
>  <Title>  (1019) 
idABLGgen10

$$$$

     RDKit          2D

 77 80  0  0  0  0  0  0  0  0999 V2000
   -5.6503   -0.7459    0.0000 C   0  0  0  0  0  0  0  0  0  0  0  0
   -5.1524   -2.1609    0.0000 C   0  0  0  0  0  0  0  0  0  0  0  0
   -6.5417   -2.7266    0.0000 C   0  0  0  0  0  0  0  0  0  0  0  0
   -7.8699   -3.4236    0.0000 C   0  0  0  0  0  0  0  0  0  0  0  0
   -9.1246   -4.2457    0.0000 C   0  0  0  0  0  0  0  0  0  0  0  0
  -10.2941   -5.1849    0.0000 C   0  0  0  0  0  0  0  0  0  0  0  0
  -11.3675   -6.2327    0.0000 C   0  0  0  0  0  0  0  0  0  0  0  0
  -12.3347   -7.3792    0.0000 C   0  0  0  0  0  0  0  0  0  0  0  0
  -13.1868   -8.6137    0.0000 C   0  0  0  0  0  0  0  0  0  0  0  0
  -13.9158   -9.9246    0.0000 C   0  0  0  0  0  0  0  0  0  0  0  0
  -14.5149  -11.2998    0.0000 C   0  0  0  0  0  0  0  0  0  0  0  0
  -14.9784  -12.7264    0.0000 C   0  0  0  0  0  0  0  0  0  0  0  0
  -15.3021  -14.1910    0.0000 C   0  0  0  0  0  0  0  0  0  0  0  0
  -15.4829  -15.6801    0.0000 C   0  0  0  0  0  0  0  0  0  0  0  0
  -15.5191  -17.1797    0.0000 C   0  0  0  0  0  0  0  0  0  0  0  0
  -15.4105  -18.6757    0.0000 C   0  0  0  0  0  0  0  0  0  0  0  0
  -15.1579  -20.1543    0.0000 C   0  0  0  0  0  0  0  0  0  0  0  0
  -14.7639  -21.6016    0.0000 C   0  0  0  0  0  0  0  0  0  0  0  0
  -14.2320  -23.0042    0.0000 C   0  0  0  0  0  0  0  0  0  0  0  0
  -13.5672  -24.3488    0.0000 C   0  0  0  0  0  0  0  0  0  0  0  0
  -12.7757  -25.6230    0.0000 C   0  0  0  0  0  0  0  0  0  0  0  0
  -11.8650  -26.8149    0.0000 C   0  0  0  0  0  0  0  0  0  0  0  0
  -10.8434  -27.9133    0.0000 C   0  0  0  0  0  0  0  0  0  0  0  0
   -9.7207  -28.9080    0.0000 C   0  0  0  0  0  0  0  0  0  0  0  0
   -8.5072  -29.7896    0.0000 C   0  0  0  0  0  0  0  0  0  0  0  0
   -7.2142  -30.5501    0.0000 C   0  0  0  0  0  0  0  0  0  0  0  0
   -5.8539  -31.1822    0.0000 C   0  0  0  0  0  0  0  0  0  0  0  0
   -4.4389  -31.6800    0.0000 C   0  0  0  0  0  0  0  0  0  0  0  0
   -2.9825  -32.0390    0.0000 C   0  0  0  0  0  0  0  0  0  0  0  0
   -1.4982  -32.2557    0.0000 C   0  0  0  0  0  0  0  0  0  0  0  0
   -0.0000  -32.3282    0.0000 C   0  0  0  0  0  0  0  0  0  0  0  0
    1.4982  -32.2557    0.0000 C   0  0  0  0  0  0  0  0  0  0  0  0
    2.9825  -32.0390    0.0000 C   0  0  0  0  0  0  0  0  0  0  0  0
    4.4389  -31.6800    0.0000 C   0  0  0  0  0  0  0  0  0  0  0  0
    5.8539  -31.1822    0.0000 C   0  0  0  0  0  0  0  0  0  0  0  0
    7.2142  -30.5501    0.0000 C   0  0  0  0  0  0  0  0  0  0  0  0
    8.5072  -29.7896    0.0000 C   0  0  0  0  0  0  0  0  0  0  0  0
    9.7207  -28.9080    0.0000 C   0  0  0  0  0  0  0  0  0  0  0  0
   10.8434  -27.9133    0.0000 C   0  0  0  0  0  0  0  0  0  0  0  0
   11.8650  -26.8149    0.0000 C   0  0  0  0  0  0  0  0  0  0  0  0
   12.7757  -25.6230    0.0000 C   0  0  0  0  0  0  0  0  0  0  0  0
   13.5672  -24.3488    0.0000 C   0  0  0  0  0  0  0  0  0  0  0  0
   14.2320  -23.0042    0.0000 C   0  0  0  0  0  0  0  0  0  0  0  0
   14.7639  -21.6016    0.0000 C   0  0  0  0  0  0  0  0  0  0  0  0
   15.1579  -20.1543    0.0000 C   0  0  0  0  0  0  0  0  0  0  0  0
   15.4105  -18.6757    0.0000 C   0  0  0  0  0  0  0  0  0  0  0  0
   15.5191  -17.1797    0.0000 C   0  0  0  0  0  0  0  0  0  0  0  0
   15.4829  -15.6801    0.0000 C   0  0  0  0  0  0  0  0  0  0  0  0
   15.3021  -14.1910    0.0000 C   0  0  0  0  0  0  0  0  0  0  0  0
   14.9784  -12.7264    0.0000 C   0  0  0  0  0  0  0  0  0  0  0  0
   14.5149  -11.2998    0.0000 C   0  0  0  0  0  0  0  0  0  0  0  0
   13.9158   -9.9246    0.0000 C   0  0  0  0  0  0  0  0  0  0  0  0
   13.1868   -8.6137    0.0000 C   0  0  0  0  0  0  0  0  0  0  0  0
   12.3347   -7.3792    0.0000 C   0  0  0  0  0  0  0  0  0  0  0  0
   11.3675   -6.2327    0.0000 C   0  0  0  0  0  0  0  0  0  0  0  0
   10.2941   -5.1849    0.0000 C   0  0  0  0  0  0  0  0  0  0  0  0
    9.1246   -4.2457    0.0000 C   0  0  0  0  0  0  0  0  0  0  0  0
    7.8699   -3.4236    0.0000 C   0  0  0  0  0  0  0  0  0  0  0  0
    6.5417   -2.7266    0.0000 C   0  0  0  0  0  0  0  0  0  0  0  0
    5.1524   -2.1609    0.0000 C   0  0  0  0  0  0  0  0  0  0  0  0
    3.7151   -1.7320    0.0000 C   0  0  0  0  0  0  0  0  0  0  0  0
    3.8959   -3.2211    0.0000 C   0  0  0  0  0  0  0  0  0  0  0  0
    2.5355   -3.8532    0.0000 C   0  0  0  0  0  0  0  0  0  0  0  0
    1.5140   -2.7548    0.0000 C   0  0  0  0  0  0  0  0  0  0  0  0
    2.2430   -1.4438    0.0000 C   0  0  0  0  0  0  0  0  0  0  0  0
    0.7500   -1.2990    0.0000 C   0  0  0  0  0  0  0  0  0  0  0  0
    1.5000    0.0000    0.0000 C   0  0  0  0  0  0  0  0  0  0  0  0
    0.7500    1.2990    0.0000 C   0  0  0  0  0  0  0  0  0  0  0  0
   -0.7500    1.2990    0.0000 C   0  0  0  0  0  0  0  0  0  0  0  0
   -1.5000    0.0000    0.0000 C   0  0  0  0  0  0  0  0  0  0  0  0
   -0.7500   -1.2990    0.0000 C   0  0  0  0  0  0  0  0  0  0  0  0
   -2.2430   -1.4438    0.0000 C   0  0  0  0  0  0  0  0  0  0  0  0
   -1.2574   -2.5746    0.0000 C   0  0  0  0  0  0  0  0  0  0  0  0
   -1.7438   -3.9935    0.0000 C   0  0  0  0  0  0  0  0  0  0  0  0
   -3.2159   -4.2817    0.0000 C   0  0  0  0  0  0  0  0  0  0  0  0
   -4.2015   -3.1509    0.0000 C   0  0  0  0  0  0  0  0  0  0  0  0
   -3.7151   -1.7320    0.0000 C   0  0  0  0  0  0  0  0  0  0  0  0
  1  2  1  0
  2  3  1  0
  3  4  2  0
  4  5  1  0
  5  6  1  0
  6  7  2  0
  7  8  1  0
  8  9  2  0
  9 10  1  0
 10 11  2  0
 11 12  1  0
 12 13  2  0
 13 14  1  0
 14 15  2  0
 15 16  1  0
 16 17  2  0
 17 18  1  0
 18 19  2  0
 19 20  1  0
 20 21  2  0
 21 22  1  0
 22 23  2  0
 23 24  1  0
 24 25  2  0
 25 26  1  0
 26 27  2  0
 27 28  1  0
 28 29  2  0
 29 30  1  0
 30 31  2  0
 31 32  1  0
 32 33  2  0
 33 34  1  0
 34 35  2  0
 35 36  1  0
 36 37  2  0
 37 38  1  0
 38 39  2  0
 39 40  1  0
 40 41  2  0
 41 42  1  0
 42 43  2  0
 43 44  1  0
 44 45  2  0
 45 46  1  0
 46 47  2  0
 47 48  1  0
 48 49  2  0
 49 50  1  0
 50 51  2  0
 51 52  1  0
 52 53  2  0
 53 54  1  0
 54 55  2  0
 55 56  1  0
 56 57  2  0
 57 58  1  0
 58 59  2  0
 59 60  1  0
 60 61  2  0
 61 62  1  0
 62 63  2  0
 63 64  1  0
 64 65  2  0
 65 66  1  0
 66 67  2  0
 67 68  1  0
 68 69  2  0
 69 70  1  0
 70 71  2  0
 71 72  1  0
 72 73  2  0
 73 74  1  0
 74 75  2  0
 75 76  1  0
 76 77  2  0
 77  2  1  0
 65 61  1  0
 71 66  1  0
 77 72  1  0
M  END
>  <Title>  (1020) 
idABLHgen10

$$$$

     RDKit          2D

 12 12  0  0  0  0  0  0  0  0999 V2000
    8.7760   -0.0000    0.0000 C   0  0  0  0  0  0  0  0  0  0  0  0
    7.2760   -0.0000    0.0000 C   0  0  0  0  0  0  0  0  0  0  0  0
    5.7760   -0.0000    0.0000 C   0  0  0  0  0  0  0  0  0  0  0  0
    4.2760   -0.0000    0.0000 C   0  0  0  0  0  0  0  0  0  0  0  0
    2.7760    0.0000    0.0000 C   0  0  0  0  0  0  0  0  0  0  0  0
    1.2760    0.0000    0.0000 C   0  0  0  0  0  0  0  0  0  0  0  0
    0.3943    1.2135    0.0000 C   0  0  0  0  0  0  0  0  0  0  0  0
   -1.0323    0.7500    0.0000 C   0  0  0  0  0  0  0  0  0  0  0  0
   -2.2458    1.6317    0.0000 C   0  0  0  0  0  0  0  0  0  0  0  0
   -1.0323   -0.7500    0.0000 C   0  0  0  0  0  0  0  0  0  0  0  0
   -2.2458   -1.6317    0.0000 C   0  0  0  0  0  0  0  0  0  0  0  0
    0.3943   -1.2135    0.0000 N   0  0  0  0  0  0  0  0  0  0  0  0
  1  2  1  0
  2  3  3  0
  3  4  1  0
  4  5  3  0
  5  6  1  0
  6  7  2  0
  7  8  1  0
  8  9  1  0
  8 10  1  0
 10 11  1  0
 10 12  1  0
 12  6  1  0
M  END
>  <Title>  (1021) 
idABLIgen10

$$$$

     RDKit          2D

 98 98  0  0  0  0  0  0  0  0999 V2000
   23.3998    0.0000    0.0000 C   0  0  0  0  0  0  0  0  0  0  0  0
   23.3517   -1.4992    0.0000 C   0  0  0  0  0  0  0  0  0  0  0  0
   23.2077   -2.9923    0.0000 C   0  0  0  0  0  0  0  0  0  0  0  0
   22.9683   -4.4731    0.0000 C   0  0  0  0  0  0  0  0  0  0  0  0
   22.6345   -5.9355    0.0000 C   0  0  0  0  0  0  0  0  0  0  0  0
   22.2077   -7.3735    0.0000 C   0  0  0  0  0  0  0  0  0  0  0  0
   21.6897   -8.7812    0.0000 C   0  0  0  0  0  0  0  0  0  0  0  0
   21.0825  -10.1528    0.0000 C   0  0  0  0  0  0  0  0  0  0  0  0
   20.3887  -11.4827    0.0000 C   0  0  0  0  0  0  0  0  0  0  0  0
   19.6111  -12.7654    0.0000 C   0  0  0  0  0  0  0  0  0  0  0  0
   18.7529  -13.9957    0.0000 C   0  0  0  0  0  0  0  0  0  0  0  0
   17.8177  -15.1684    0.0000 C   0  0  0  0  0  0  0  0  0  0  0  0
   16.8092  -16.2788    0.0000 C   0  0  0  0  0  0  0  0  0  0  0  0
   15.7317  -17.3223    0.0000 C   0  0  0  0  0  0  0  0  0  0  0  0
   14.5895  -18.2947    0.0000 C   0  0  0  0  0  0  0  0  0  0  0  0
   13.3874  -19.1919    0.0000 C   0  0  0  0  0  0  0  0  0  0  0  0
   12.1303  -20.0102    0.0000 C   0  0  0  0  0  0  0  0  0  0  0  0
   10.8233  -20.7462    0.0000 C   0  0  0  0  0  0  0  0  0  0  0  0
    9.4718  -21.3971    0.0000 C   0  0  0  0  0  0  0  0  0  0  0  0
    8.0815  -21.9600    0.0000 C   0  0  0  0  0  0  0  0  0  0  0  0
    6.6579  -22.4326    0.0000 C   0  0  0  0  0  0  0  0  0  0  0  0
    5.2069  -22.8131    0.0000 C   0  0  0  0  0  0  0  0  0  0  0  0
    3.7346  -23.0998    0.0000 C   0  0  0  0  0  0  0  0  0  0  0  0
    2.2469  -23.2917    0.0000 C   0  0  0  0  0  0  0  0  0  0  0  0
    0.7500  -23.3878    0.0000 C   0  0  0  0  0  0  0  0  0  0  0  0
   -0.7500  -23.3878    0.0000 C   0  0  0  0  0  0  0  0  0  0  0  0
   -2.2469  -23.2917    0.0000 C   0  0  0  0  0  0  0  0  0  0  0  0
   -3.7346  -23.0998    0.0000 C   0  0  0  0  0  0  0  0  0  0  0  0
   -5.2069  -22.8131    0.0000 C   0  0  0  0  0  0  0  0  0  0  0  0
   -6.6579  -22.4326    0.0000 C   0  0  0  0  0  0  0  0  0  0  0  0
   -8.0815  -21.9600    0.0000 C   0  0  0  0  0  0  0  0  0  0  0  0
   -9.4718  -21.3971    0.0000 C   0  0  0  0  0  0  0  0  0  0  0  0
  -10.8233  -20.7462    0.0000 C   0  0  0  0  0  0  0  0  0  0  0  0
  -12.1303  -20.0102    0.0000 C   0  0  0  0  0  0  0  0  0  0  0  0
  -13.3874  -19.1919    0.0000 C   0  0  0  0  0  0  0  0  0  0  0  0
  -14.5895  -18.2947    0.0000 C   0  0  0  0  0  0  0  0  0  0  0  0
  -15.7317  -17.3223    0.0000 C   0  0  0  0  0  0  0  0  0  0  0  0
  -16.8092  -16.2788    0.0000 C   0  0  0  0  0  0  0  0  0  0  0  0
  -17.8177  -15.1684    0.0000 C   0  0  0  0  0  0  0  0  0  0  0  0
  -18.7529  -13.9957    0.0000 C   0  0  0  0  0  0  0  0  0  0  0  0
  -19.6111  -12.7654    0.0000 C   0  0  0  0  0  0  0  0  0  0  0  0
  -20.3887  -11.4827    0.0000 C   0  0  0  0  0  0  0  0  0  0  0  0
  -21.0825  -10.1528    0.0000 C   0  0  0  0  0  0  0  0  0  0  0  0
  -21.6897   -8.7812    0.0000 C   0  0  0  0  0  0  0  0  0  0  0  0
  -22.2077   -7.3735    0.0000 C   0  0  0  0  0  0  0  0  0  0  0  0
  -22.6345   -5.9355    0.0000 C   0  0  0  0  0  0  0  0  0  0  0  0
  -22.9683   -4.4731    0.0000 C   0  0  0  0  0  0  0  0  0  0  0  0
  -23.2077   -2.9923    0.0000 C   0  0  0  0  0  0  0  0  0  0  0  0
  -23.3517   -1.4992    0.0000 C   0  0  0  0  0  0  0  0  0  0  0  0
  -23.3998    0.0000    0.0000 C   0  0  0  0  0  0  0  0  0  0  0  0
  -23.3517    1.4992    0.0000 C   0  0  0  0  0  0  0  0  0  0  0  0
  -23.2077    2.9923    0.0000 C   0  0  0  0  0  0  0  0  0  0  0  0
  -22.9683    4.4731    0.0000 C   0  0  0  0  0  0  0  0  0  0  0  0
  -22.6345    5.9355    0.0000 C   0  0  0  0  0  0  0  0  0  0  0  0
  -22.2077    7.3735    0.0000 C   0  0  0  0  0  0  0  0  0  0  0  0
  -21.6897    8.7812    0.0000 C   0  0  0  0  0  0  0  0  0  0  0  0
  -21.0825   10.1528    0.0000 C   0  0  0  0  0  0  0  0  0  0  0  0
  -20.3887   11.4827    0.0000 C   0  0  0  0  0  0  0  0  0  0  0  0
  -19.6111   12.7654    0.0000 C   0  0  0  0  0  0  0  0  0  0  0  0
  -18.7529   13.9957    0.0000 C   0  0  0  0  0  0  0  0  0  0  0  0
  -17.8177   15.1684    0.0000 C   0  0  0  0  0  0  0  0  0  0  0  0
  -16.8092   16.2788    0.0000 C   0  0  0  0  0  0  0  0  0  0  0  0
  -15.7317   17.3223    0.0000 C   0  0  0  0  0  0  0  0  0  0  0  0
  -14.5895   18.2947    0.0000 C   0  0  0  0  0  0  0  0  0  0  0  0
  -13.3874   19.1919    0.0000 C   0  0  0  0  0  0  0  0  0  0  0  0
  -12.1303   20.0102    0.0000 C   0  0  0  0  0  0  0  0  0  0  0  0
  -10.8233   20.7462    0.0000 C   0  0  0  0  0  0  0  0  0  0  0  0
   -9.4718   21.3971    0.0000 C   0  0  0  0  0  0  0  0  0  0  0  0
   -8.0815   21.9600    0.0000 C   0  0  0  0  0  0  0  0  0  0  0  0
   -6.6579   22.4326    0.0000 C   0  0  0  0  0  0  0  0  0  0  0  0
   -5.2069   22.8131    0.0000 C   0  0  0  0  0  0  0  0  0  0  0  0
   -3.7346   23.0998    0.0000 C   0  0  0  0  0  0  0  0  0  0  0  0
   -2.2469   23.2917    0.0000 C   0  0  0  0  0  0  0  0  0  0  0  0
   -0.7500   23.3878    0.0000 C   0  0  0  0  0  0  0  0  0  0  0  0
    0.7500   23.3878    0.0000 C   0  0  0  0  0  0  0  0  0  0  0  0
    2.2469   23.2917    0.0000 C   0  0  0  0  0  0  0  0  0  0  0  0
    3.7346   23.0998    0.0000 C   0  0  0  0  0  0  0  0  0  0  0  0
    5.2069   22.8131    0.0000 C   0  0  0  0  0  0  0  0  0  0  0  0
    6.6579   22.4326    0.0000 C   0  0  0  0  0  0  0  0  0  0  0  0
    8.0815   21.9600    0.0000 C   0  0  0  0  0  0  0  0  0  0  0  0
    9.4718   21.3971    0.0000 C   0  0  0  0  0  0  0  0  0  0  0  0
   10.8233   20.7462    0.0000 C   0  0  0  0  0  0  0  0  0  0  0  0
   12.1303   20.0102    0.0000 C   0  0  0  0  0  0  0  0  0  0  0  0
   13.3874   19.1919    0.0000 C   0  0  0  0  0  0  0  0  0  0  0  0
   14.5895   18.2947    0.0000 C   0  0  0  0  0  0  0  0  0  0  0  0
   15.7317   17.3223    0.0000 C   0  0  0  0  0  0  0  0  0  0  0  0
   16.8092   16.2788    0.0000 C   0  0  0  0  0  0  0  0  0  0  0  0
   17.8177   15.1684    0.0000 C   0  0  0  0  0  0  0  0  0  0  0  0
   18.7529   13.9957    0.0000 C   0  0  0  0  0  0  0  0  0  0  0  0
   19.6111   12.7654    0.0000 C   0  0  0  0  0  0  0  0  0  0  0  0
   20.3887   11.4827    0.0000 C   0  0  0  0  0  0  0  0  0  0  0  0
   21.0825   10.1528    0.0000 C   0  0  0  0  0  0  0  0  0  0  0  0
   21.6897    8.7812    0.0000 C   0  0  0  0  0  0  0  0  0  0  0  0
   22.2077    7.3735    0.0000 C   0  0  0  0  0  0  0  0  0  0  0  0
   22.6345    5.9355    0.0000 C   0  0  0  0  0  0  0  0  0  0  0  0
   22.9683    4.4731    0.0000 C   0  0  0  0  0  0  0  0  0  0  0  0
   23.2077    2.9923    0.0000 C   0  0  0  0  0  0  0  0  0  0  0  0
   23.3517    1.4992    0.0000 C   0  0  0  0  0  0  0  0  0  0  0  0
  1  2  1  0
  2  3  1  0
  3  4  1  0
  4  5  1  0
  5  6  1  0
  6  7  1  0
  7  8  1  0
  8  9  1  0
  9 10  1  0
 10 11  1  0
 11 12  1  0
 12 13  1  0
 13 14  1  0
 14 15  1  0
 15 16  1  0
 16 17  1  0
 17 18  1  0
 18 19  1  0
 19 20  1  0
 20 21  1  0
 21 22  1  0
 22 23  1  0
 23 24  1  0
 24 25  1  0
 25 26  1  0
 26 27  1  0
 27 28  1  0
 28 29  1  0
 29 30  1  0
 30 31  1  0
 31 32  1  0
 32 33  1  0
 33 34  1  0
 34 35  1  0
 35 36  1  0
 36 37  1  0
 37 38  1  0
 38 39  1  0
 39 40  1  0
 40 41  1  0
 41 42  1  0
 42 43  1  0
 43 44  1  0
 44 45  1  0
 45 46  1  0
 46 47  1  0
 47 48  1  0
 48 49  1  0
 49 50  1  0
 50 51  1  0
 51 52  1  0
 52 53  1  0
 53 54  1  0
 54 55  1  0
 55 56  1  0
 56 57  1  0
 57 58  1  0
 58 59  1  0
 59 60  1  0
 60 61  1  0
 61 62  1  0
 62 63  1  0
 63 64  1  0
 64 65  1  0
 65 66  1  0
 66 67  1  0
 67 68  1  0
 68 69  1  0
 69 70  1  0
 70 71  1  0
 71 72  1  0
 72 73  1  0
 73 74  1  0
 74 75  1  0
 75 76  1  0
 76 77  1  0
 77 78  1  0
 78 79  1  0
 79 80  1  0
 80 81  1  0
 81 82  1  0
 82 83  1  0
 83 84  1  0
 84 85  1  0
 85 86  1  0
 86 87  1  0
 87 88  1  0
 88 89  1  0
 89 90  1  0
 90 91  1  0
 91 92  1  0
 92 93  1  0
 93 94  1  0
 94 95  1  0
 95 96  1  0
 96 97  1  0
 97 98  1  0
 98  1  1  0
M  END
>  <Title>  (1022) 
idABLJgen10

$$$$

     RDKit          2D

 92 95  0  0  0  0  0  0  0  0999 V2000
   -5.5926   -0.5579    0.0000 C   0  0  0  0  0  0  0  0  0  0  0  0
   -5.1855   -2.0015    0.0000 C   0  0  0  0  0  0  0  0  0  0  0  0
   -6.6120   -2.4651    0.0000 C   0  0  0  0  0  0  0  0  0  0  0  0
   -7.9979   -3.0391    0.0000 C   0  0  0  0  0  0  0  0  0  0  0  0
   -9.3344   -3.7201    0.0000 C   0  0  0  0  0  0  0  0  0  0  0  0
  -10.6133   -4.5038    0.0000 C   0  0  0  0  0  0  0  0  0  0  0  0
  -11.8269   -5.3855    0.0000 C   0  0  0  0  0  0  0  0  0  0  0  0
  -12.9675   -6.3597    0.0000 C   0  0  0  0  0  0  0  0  0  0  0  0
  -14.0281   -7.4203    0.0000 C   0  0  0  0  0  0  0  0  0  0  0  0
  -15.0023   -8.5609    0.0000 C   0  0  0  0  0  0  0  0  0  0  0  0
  -15.8840   -9.7745    0.0000 C   0  0  0  0  0  0  0  0  0  0  0  0
  -16.6677  -11.0534    0.0000 C   0  0  0  0  0  0  0  0  0  0  0  0
  -17.3487  -12.3899    0.0000 C   0  0  0  0  0  0  0  0  0  0  0  0
  -17.9227  -13.7758    0.0000 C   0  0  0  0  0  0  0  0  0  0  0  0
  -18.3863  -15.2023    0.0000 C   0  0  0  0  0  0  0  0  0  0  0  0
  -18.7364  -16.6609    0.0000 C   0  0  0  0  0  0  0  0  0  0  0  0
  -18.9711  -18.1424    0.0000 C   0  0  0  0  0  0  0  0  0  0  0  0
  -19.0888  -19.6378    0.0000 C   0  0  0  0  0  0  0  0  0  0  0  0
  -19.0888  -21.1378    0.0000 C   0  0  0  0  0  0  0  0  0  0  0  0
  -18.9711  -22.6332    0.0000 C   0  0  0  0  0  0  0  0  0  0  0  0
  -18.7364  -24.1147    0.0000 C   0  0  0  0  0  0  0  0  0  0  0  0
  -18.3863  -25.5733    0.0000 C   0  0  0  0  0  0  0  0  0  0  0  0
  -17.9227  -26.9999    0.0000 C   0  0  0  0  0  0  0  0  0  0  0  0
  -17.3487  -28.3857    0.0000 C   0  0  0  0  0  0  0  0  0  0  0  0
  -16.6677  -29.7222    0.0000 C   0  0  0  0  0  0  0  0  0  0  0  0
  -15.8840  -31.0012    0.0000 C   0  0  0  0  0  0  0  0  0  0  0  0
  -15.0023  -32.2147    0.0000 C   0  0  0  0  0  0  0  0  0  0  0  0
  -14.0281  -33.3553    0.0000 C   0  0  0  0  0  0  0  0  0  0  0  0
  -12.9675  -34.4159    0.0000 C   0  0  0  0  0  0  0  0  0  0  0  0
  -11.8269  -35.3901    0.0000 C   0  0  0  0  0  0  0  0  0  0  0  0
  -10.6133  -36.2718    0.0000 C   0  0  0  0  0  0  0  0  0  0  0  0
   -9.3344  -37.0555    0.0000 C   0  0  0  0  0  0  0  0  0  0  0  0
   -7.9979  -37.7365    0.0000 C   0  0  0  0  0  0  0  0  0  0  0  0
   -6.6120  -38.3106    0.0000 C   0  0  0  0  0  0  0  0  0  0  0  0
   -5.1855  -38.7741    0.0000 C   0  0  0  0  0  0  0  0  0  0  0  0
   -3.7269  -39.1242    0.0000 C   0  0  0  0  0  0  0  0  0  0  0  0
   -2.2454  -39.3589    0.0000 C   0  0  0  0  0  0  0  0  0  0  0  0
   -0.7500  -39.4766    0.0000 C   0  0  0  0  0  0  0  0  0  0  0  0
    0.7500  -39.4766    0.0000 C   0  0  0  0  0  0  0  0  0  0  0  0
    2.2454  -39.3589    0.0000 C   0  0  0  0  0  0  0  0  0  0  0  0
    3.7269  -39.1242    0.0000 C   0  0  0  0  0  0  0  0  0  0  0  0
    5.1855  -38.7741    0.0000 C   0  0  0  0  0  0  0  0  0  0  0  0
    6.6120  -38.3106    0.0000 C   0  0  0  0  0  0  0  0  0  0  0  0
    7.9979  -37.7365    0.0000 C   0  0  0  0  0  0  0  0  0  0  0  0
    9.3344  -37.0555    0.0000 C   0  0  0  0  0  0  0  0  0  0  0  0
   10.6133  -36.2718    0.0000 C   0  0  0  0  0  0  0  0  0  0  0  0
   11.8269  -35.3901    0.0000 C   0  0  0  0  0  0  0  0  0  0  0  0
   12.9675  -34.4159    0.0000 C   0  0  0  0  0  0  0  0  0  0  0  0
   14.0281  -33.3553    0.0000 C   0  0  0  0  0  0  0  0  0  0  0  0
   15.0023  -32.2147    0.0000 C   0  0  0  0  0  0  0  0  0  0  0  0
   15.8840  -31.0012    0.0000 C   0  0  0  0  0  0  0  0  0  0  0  0
   16.6677  -29.7222    0.0000 C   0  0  0  0  0  0  0  0  0  0  0  0
   17.3487  -28.3857    0.0000 C   0  0  0  0  0  0  0  0  0  0  0  0
   17.9227  -26.9999    0.0000 C   0  0  0  0  0  0  0  0  0  0  0  0
   18.3863  -25.5733    0.0000 C   0  0  0  0  0  0  0  0  0  0  0  0
   18.7364  -24.1147    0.0000 C   0  0  0  0  0  0  0  0  0  0  0  0
   18.9711  -22.6332    0.0000 C   0  0  0  0  0  0  0  0  0  0  0  0
   19.0888  -21.1378    0.0000 C   0  0  0  0  0  0  0  0  0  0  0  0
   19.0888  -19.6378    0.0000 C   0  0  0  0  0  0  0  0  0  0  0  0
   18.9711  -18.1424    0.0000 C   0  0  0  0  0  0  0  0  0  0  0  0
   18.7364  -16.6609    0.0000 C   0  0  0  0  0  0  0  0  0  0  0  0
   18.3863  -15.2023    0.0000 C   0  0  0  0  0  0  0  0  0  0  0  0
   17.9227  -13.7758    0.0000 C   0  0  0  0  0  0  0  0  0  0  0  0
   17.3487  -12.3899    0.0000 C   0  0  0  0  0  0  0  0  0  0  0  0
   16.6677  -11.0534    0.0000 C   0  0  0  0  0  0  0  0  0  0  0  0
   15.8840   -9.7745    0.0000 C   0  0  0  0  0  0  0  0  0  0  0  0
   15.0023   -8.5609    0.0000 C   0  0  0  0  0  0  0  0  0  0  0  0
   14.0281   -7.4203    0.0000 C   0  0  0  0  0  0  0  0  0  0  0  0
   12.9675   -6.3597    0.0000 C   0  0  0  0  0  0  0  0  0  0  0  0
   11.8269   -5.3855    0.0000 C   0  0  0  0  0  0  0  0  0  0  0  0
   10.6133   -4.5038    0.0000 C   0  0  0  0  0  0  0  0  0  0  0  0
    9.3344   -3.7201    0.0000 C   0  0  0  0  0  0  0  0  0  0  0  0
    7.9979   -3.0391    0.0000 C   0  0  0  0  0  0  0  0  0  0  0  0
    6.6120   -2.4651    0.0000 C   0  0  0  0  0  0  0  0  0  0  0  0
    5.1855   -2.0015    0.0000 C   0  0  0  0  0  0  0  0  0  0  0  0
    3.7269   -1.6514    0.0000 C   0  0  0  0  0  0  0  0  0  0  0  0
    3.9616   -3.1329    0.0000 C   0  0  0  0  0  0  0  0  0  0  0  0
    2.6251   -3.8139    0.0000 C   0  0  0  0  0  0  0  0  0  0  0  0
    1.5644   -2.7532    0.0000 C   0  0  0  0  0  0  0  0  0  0  0  0
    2.2454   -1.4167    0.0000 C   0  0  0  0  0  0  0  0  0  0  0  0
    0.7500   -1.2990    0.0000 C   0  0  0  0  0  0  0  0  0  0  0  0
    1.5000    0.0000    0.0000 C   0  0  0  0  0  0  0  0  0  0  0  0
    0.7500    1.2990    0.0000 C   0  0  0  0  0  0  0  0  0  0  0  0
   -0.7500    1.2990    0.0000 C   0  0  0  0  0  0  0  0  0  0  0  0
   -1.5000    0.0000    0.0000 C   0  0  0  0  0  0  0  0  0  0  0  0
   -0.7500   -1.2990    0.0000 C   0  0  0  0  0  0  0  0  0  0  0  0
   -2.2454   -1.4167    0.0000 C   0  0  0  0  0  0  0  0  0  0  0  0
   -1.3014   -2.5824    0.0000 C   0  0  0  0  0  0  0  0  0  0  0  0
   -1.8389   -3.9828    0.0000 C   0  0  0  0  0  0  0  0  0  0  0  0
   -3.3205   -4.2175    0.0000 C   0  0  0  0  0  0  0  0  0  0  0  0
   -4.2645   -3.0517    0.0000 C   0  0  0  0  0  0  0  0  0  0  0  0
   -3.7269   -1.6514    0.0000 C   0  0  0  0  0  0  0  0  0  0  0  0
  1  2  1  0
  2  3  1  0
  3  4  1  0
  4  5  1  0
  5  6  1  0
  6  7  1  0
  7  8  1  0
  8  9  1  0
  9 10  1  0
 10 11  1  0
 11 12  1  0
 12 13  1  0
 13 14  1  0
 14 15  1  0
 15 16  1  0
 16 17  1  0
 17 18  1  0
 18 19  1  0
 19 20  1  0
 20 21  1  0
 21 22  1  0
 22 23  1  0
 23 24  1  0
 24 25  1  0
 25 26  1  0
 26 27  1  0
 27 28  1  0
 28 29  1  0
 29 30  1  0
 30 31  1  0
 31 32  1  0
 32 33  1  0
 33 34  1  0
 34 35  1  0
 35 36  1  0
 36 37  1  0
 37 38  1  0
 38 39  1  0
 39 40  1  0
 40 41  1  0
 41 42  1  0
 42 43  1  0
 43 44  1  0
 44 45  1  0
 45 46  1  0
 46 47  1  0
 47 48  1  0
 48 49  1  0
 49 50  1  0
 50 51  1  0
 51 52  1  0
 52 53  1  0
 53 54  1  0
 54 55  1  0
 55 56  1  0
 56 57  1  0
 57 58  1  0
 58 59  1  0
 59 60  1  0
 60 61  1  0
 61 62  1  0
 62 63  1  0
 63 64  1  0
 64 65  1  0
 65 66  1  0
 66 67  1  0
 67 68  1  0
 68 69  1  0
 69 70  1  0
 70 71  1  0
 71 72  1  0
 72 73  1  0
 73 74  1  0
 74 75  1  0
 75 76  1  0
 76 77  1  0
 77 78  2  0
 78 79  1  0
 79 80  2  0
 80 81  1  0
 81 82  2  0
 82 83  1  0
 83 84  2  0
 84 85  1  0
 85 86  2  0
 86 87  1  0
 87 88  2  0
 88 89  1  0
 89 90  2  0
 90 91  1  0
 91 92  2  0
 92  2  1  0
 80 76  1  0
 86 81  1  0
 92 87  1  0
M  END
>  <Title>  (1023) 
idABLKgen10

$$$$

     RDKit          2D

  6  6  0  0  0  0  0  0  0  0999 V2000
    2.7760    0.0000    0.0000 C   0  0  0  0  0  0  0  0  0  0  0  0
    1.2760    0.0000    0.0000 C   0  0  0  0  0  0  0  0  0  0  0  0
    0.3943    1.2135    0.0000 C   0  0  0  0  0  0  0  0  0  0  0  0
   -1.0323    0.7500    0.0000 C   0  0  0  0  0  0  0  0  0  0  0  0
   -1.0323   -0.7500    0.0000 C   0  0  0  0  0  0  0  0  0  0  0  0
    0.3943   -1.2135    0.0000 C   0  0  0  0  0  0  0  0  0  0  0  0
  1  2  1  0
  2  3  2  0
  3  4  1  0
  4  5  2  0
  5  6  1  0
  6  2  1  0
M  END
>  <Title>  (1024) 
idABLLgen10

$$$$

     RDKit          2D

  9  9  0  0  0  0  0  0  0  0999 V2000
    5.2500   -1.2990    0.0000 C   0  0  0  0  0  0  0  0  0  0  0  0
    3.7500   -1.2990    0.0000 C   0  0  0  0  0  0  0  0  0  0  0  0
    3.0000    0.0000    0.0000 C   0  0  0  0  0  0  0  0  0  0  0  0
    1.5000    0.0000    0.0000 C   0  0  0  0  0  0  0  0  0  0  0  0
    0.7500   -1.2990    0.0000 C   0  0  0  0  0  0  0  0  0  0  0  0
   -0.7500   -1.2990    0.0000 C   0  0  0  0  0  0  0  0  0  0  0  0
   -1.5000    0.0000    0.0000 C   0  0  0  0  0  0  0  0  0  0  0  0
   -0.7500    1.2990    0.0000 C   0  0  0  0  0  0  0  0  0  0  0  0
    0.7500    1.2990    0.0000 N   0  0  0  0  0  0  0  0  0  0  0  0
  1  2  1  0
  2  3  1  0
  3  4  1  0
  4  5  2  0
  5  6  1  0
  6  7  2  0
  7  8  1  0
  8  9  2  0
  9  4  1  0
M  END
>  <Title>  (1025) 
idABLMgen10

$$$$

     RDKit          2D

 12 12  0  0  0  0  0  0  0  0999 V2000
    7.5000    0.0000    0.0000 C   0  0  0  0  0  0  0  0  0  0  0  0
    6.0000    0.0000    0.0000 C   0  0  0  0  0  0  0  0  0  0  0  0
    4.5000    0.0000    0.0000 C   0  0  0  0  0  0  0  0  0  0  0  0
    3.0000    0.0000    0.0000 C   0  0  0  0  0  0  0  0  0  0  0  0
    1.5000    0.0000    0.0000 C   0  0  0  0  0  0  0  0  0  0  0  0
    0.7500   -1.2990    0.0000 C   0  0  0  0  0  0  0  0  0  0  0  0
   -0.7500   -1.2990    0.0000 C   0  0  0  0  0  0  0  0  0  0  0  0
   -1.5000    0.0000    0.0000 C   0  0  0  0  0  0  0  0  0  0  0  0
   -3.0000    0.0000    0.0000 C   0  0  0  0  0  0  0  0  0  0  0  0
   -0.7500    1.2990    0.0000 C   0  0  0  0  0  0  0  0  0  0  0  0
   -1.5000    2.5981    0.0000 C   0  0  0  0  0  0  0  0  0  0  0  0
    0.7500    1.2990    0.0000 C   0  0  0  0  0  0  0  0  0  0  0  0
  1  2  3  0
  2  3  1  0
  3  4  3  0
  4  5  1  0
  5  6  2  0
  6  7  1  0
  7  8  2  0
  8  9  1  0
  8 10  1  0
 10 11  1  0
 10 12  2  0
 12  5  1  0
M  END
>  <Title>  (1026) 
idABLNgen10

$$$$

     RDKit          2D

 12 13  0  0  0  0  0  0  0  0999 V2000
   -3.1476   -2.1380    0.0000 O   0  0  0  0  0  0  0  0  0  0  0  0
   -1.6852   -2.4718    0.0000 C   0  0  0  0  0  0  0  0  0  0  0  0
   -1.3515   -3.9342    0.0000 C   0  0  0  0  0  0  0  0  0  0  0  0
   -0.0000   -4.5850    0.0000 C   0  0  0  0  0  0  0  0  0  0  0  0
    1.3515   -3.9342    0.0000 C   0  0  0  0  0  0  0  0  0  0  0  0
    1.6852   -2.4718    0.0000 N   0  0  0  0  0  0  0  0  0  0  0  0
    0.7500   -1.2990    0.0000 C   0  0  0  0  0  0  0  0  0  0  0  0
    1.5000    0.0000    0.0000 C   0  0  0  0  0  0  0  0  0  0  0  0
    0.7500    1.2990    0.0000 C   0  0  0  0  0  0  0  0  0  0  0  0
   -0.7500    1.2990    0.0000 C   0  0  0  0  0  0  0  0  0  0  0  0
   -1.5000    0.0000    0.0000 N   0  0  0  0  0  0  0  0  0  0  0  0
   -0.7500   -1.2990    0.0000 C   0  0  0  0  0  0  0  0  0  0  0  0
  1  2  2  0
  2  3  1  0
  3  4  1  0
  4  5  1  0
  5  6  1  0
  6  7  1  0
  7  8  2  0
  8  9  1  0
  9 10  2  0
 10 11  1  0
 11 12  2  0
 12  2  1  0
 12  7  1  0
M  END
>  <Title>  (1027) 
idABLOgen10

$$$$

     RDKit          2D

  9  9  0  0  0  0  0  0  0  0999 V2000
    7.0607    0.0000    0.0000 C   0  0  0  0  0  0  0  0  0  0  0  0
    5.5607    0.0000    0.0000 C   0  0  0  0  0  0  0  0  0  0  0  0
    4.0607    0.0000    0.0000 C   0  0  0  0  0  0  0  0  0  0  0  0
    2.5607    0.0000    0.0000 C   0  0  0  0  0  0  0  0  0  0  0  0
    1.0607    0.0000    0.0000 C   0  0  0  0  0  0  0  0  0  0  0  0
   -0.0000   -1.0607    0.0000 C   0  0  0  0  0  0  0  0  0  0  0  0
   -1.0607    0.0000    0.0000 C   0  0  0  0  0  0  0  0  0  0  0  0
   -2.5607    0.0000    0.0000 C   0  0  0  0  0  0  0  0  0  0  0  0
    0.0000    1.0607    0.0000 C   0  0  0  0  0  0  0  0  0  0  0  0
  1  2  3  0
  2  3  1  0
  3  4  3  0
  4  5  1  0
  5  6  2  0
  6  7  1  0
  7  8  1  0
  7  9  2  0
  9  5  1  0
M  END
>  <Title>  (1028) 
idABLPgen10

$$$$

     RDKit          2D

 11 11  0  0  0  0  0  0  0  0999 V2000
    7.2760   -0.0000    0.0000 C   0  0  0  0  0  0  0  0  0  0  0  0
    5.7760   -0.0000    0.0000 C   0  0  0  0  0  0  0  0  0  0  0  0
    4.2760   -0.0000    0.0000 C   0  0  0  0  0  0  0  0  0  0  0  0
    2.7760    0.0000    0.0000 C   0  0  0  0  0  0  0  0  0  0  0  0
    1.2760    0.0000    0.0000 C   0  0  0  0  0  0  0  0  0  0  0  0
    0.3943    1.2135    0.0000 C   0  0  0  0  0  0  0  0  0  0  0  0
   -1.0323    0.7500    0.0000 C   0  0  0  0  0  0  0  0  0  0  0  0
   -2.2458    1.6317    0.0000 C   0  0  0  0  0  0  0  0  0  0  0  0
   -1.0323   -0.7500    0.0000 C   0  0  0  0  0  0  0  0  0  0  0  0
   -2.2458   -1.6317    0.0000 O   0  0  0  0  0  0  0  0  0  0  0  0
    0.3943   -1.2135    0.0000 N   0  0  0  0  0  0  0  0  0  0  0  0
  1  2  3  0
  2  3  1  0
  3  4  3  0
  4  5  1  0
  5  6  2  0
  6  7  1  0
  7  8  1  0
  7  9  1  0
  9 10  2  0
  9 11  1  0
 11  5  1  0
M  END
>  <Title>  (1029) 
idABLQgen10

$$$$

     RDKit          2D

 43 47  0  0  0  0  0  0  0  0999 V2000
    0.0885  -11.4073    0.0000 C   0  0  0  0  0  0  0  0  0  0  0  0
    0.0885   -9.9073    0.0000 C   0  0  0  0  0  0  0  0  0  0  0  0
   -1.2105   -9.1573    0.0000 N   0  0  0  0  0  0  0  0  0  0  0  0
   -1.2105   -7.6573    0.0000 C   0  0  0  0  0  0  0  0  0  0  0  0
    0.0885   -6.9073    0.0000 O   0  0  0  0  0  0  0  0  0  0  0  0
   -2.5095   -6.9073    0.0000 N   0  0  0  0  0  0  0  0  0  0  0  0
   -2.5095   -5.4073    0.0000 C   0  0  0  0  0  0  0  0  0  0  0  0
   -1.0607   -5.0191    0.0000 N   0  0  0  0  0  0  0  0  0  0  0  0
   -0.0000   -3.9584    0.0000 N   0  0  0  0  0  0  0  0  0  0  0  0
    0.3882   -2.5095    0.0000 N   0  0  0  0  0  0  0  0  0  0  0  0
   -0.0000   -1.0607    0.0000 N   0  0  0  0  0  0  0  0  0  0  0  0
    1.0607    0.0000    0.0000 C   0  0  0  0  0  0  0  0  0  0  0  0
    0.0000    1.0607    0.0000 C   0  0  0  0  0  0  0  0  0  0  0  0
    0.0000    2.5607    0.0000 O   0  0  0  0  0  0  0  0  0  0  0  0
   -1.0607    0.0000    0.0000 C   0  0  0  0  0  0  0  0  0  0  0  0
   -2.5095    0.3882    0.0000 C   0  0  0  0  0  0  0  0  0  0  0  0
   -3.9584    0.0000    0.0000 C   0  0  0  0  0  0  0  0  0  0  0  0
   -5.0191   -1.0607    0.0000 C   0  0  0  0  0  0  0  0  0  0  0  0
   -6.3181   -0.3107    0.0000 C   0  0  0  0  0  0  0  0  0  0  0  0
   -6.3181    1.1893    0.0000 C   0  0  0  0  0  0  0  0  0  0  0  0
   -7.6172    1.9393    0.0000 C   0  0  0  0  0  0  0  0  0  0  0  0
   -8.9162    1.1893    0.0000 C   0  0  0  0  0  0  0  0  0  0  0  0
   -8.9162   -0.3107    0.0000 C   0  0  0  0  0  0  0  0  0  0  0  0
   -7.6172   -1.0607    0.0000 C   0  0  0  0  0  0  0  0  0  0  0  0
   -5.4073   -2.5095    0.0000 C   0  0  0  0  0  0  0  0  0  0  0  0
   -5.0191   -3.9584    0.0000 C   0  0  0  0  0  0  0  0  0  0  0  0
   -3.9584   -5.0191    0.0000 C   0  0  0  0  0  0  0  0  0  0  0  0
   -4.7084   -6.3181    0.0000 C   0  0  0  0  0  0  0  0  0  0  0  0
   -3.9584   -7.6172    0.0000 O   0  0  0  0  0  0  0  0  0  0  0  0
   -6.2084   -6.3181    0.0000 N   0  0  0  0  0  0  0  0  0  0  0  0
   -6.9584   -7.6172    0.0000 C   0  0  0  0  0  0  0  0  0  0  0  0
   -8.4584   -7.6172    0.0000 N   0  0  0  0  0  0  0  0  0  0  0  0
   -9.2084   -8.9162    0.0000 N   0  0  0  0  0  0  0  0  0  0  0  0
   -8.4584  -10.2153    0.0000 N   0  0  0  0  0  0  0  0  0  0  0  0
   -6.9584  -10.2153    0.0000 N   0  0  0  0  0  0  0  0  0  0  0  0
   -6.2084   -8.9162    0.0000 N   0  0  0  0  0  0  0  0  0  0  0  0
    1.3876   -9.1573    0.0000 C   0  0  0  0  0  0  0  0  0  0  0  0
    1.3876   -7.6573    0.0000 C   0  0  0  0  0  0  0  0  0  0  0  0
    2.6866   -6.9073    0.0000 C   0  0  0  0  0  0  0  0  0  0  0  0
    3.9856   -7.6573    0.0000 C   0  0  0  0  0  0  0  0  0  0  0  0
    3.9856   -9.1573    0.0000 C   0  0  0  0  0  0  0  0  0  0  0  0
    2.6866   -9.9073    0.0000 C   0  0  0  0  0  0  0  0  0  0  0  0
    2.6866  -11.4073    0.0000 O   0  0  0  0  0  0  0  0  0  0  0  0
  1  2  1  0
  2  3  1  0
  3  4  1  0
  4  5  2  0
  4  6  1  0
  6  7  1  0
  7  8  2  0
  8  9  1  0
  9 10  2  0
 10 11  1  0
 11 12  1  0
 12 13  1  0
 13 14  2  0
 13 15  1  0
 15 16  1  0
 16 17  1  0
 17 18  1  0
 18 19  1  0
 19 20  2  0
 20 21  1  0
 21 22  2  0
 22 23  1  0
 23 24  2  0
 18 25  2  0
 25 26  1  0
 26 27  2  0
 27 28  1  0
 28 29  2  0
 28 30  1  0
 30 31  1  0
 31 32  2  0
 32 33  1  0
 33 34  2  0
 34 35  1  0
 35 36  2  0
  2 37  1  0
 37 38  2  0
 38 39  1  0
 39 40  2  0
 40 41  1  0
 41 42  2  0
 42 43  1  0
 27  7  1  0
 36 31  1  0
 42 37  1  0
 15 11  1  0
 24 19  1  0
M  END
>  <Title>  (1030) 
idABLRgen10

$$$$

     RDKit          2D

126125  0  0  0  0  0  0  0  0999 V2000
    0.0000    0.0000    0.0000 C   0  0  0  0  0  0  0  0  0  0  0  0
   -0.0000   -1.5000    0.0000 C   0  0  0  0  0  0  0  0  0  0  0  0
   -0.0000   -3.0000    0.0000 C   0  0  0  0  0  0  0  0  0  0  0  0
    1.2990   -3.7500    0.0000 C   0  0  0  0  0  0  0  0  0  0  0  0
    1.2990   -5.2500    0.0000 C   0  0  0  0  0  0  0  0  0  0  0  0
    2.5981   -6.0000    0.0000 C   0  0  0  0  0  0  0  0  0  0  0  0
    2.5981   -7.5000    0.0000 C   0  0  0  0  0  0  0  0  0  0  0  0
    3.8971   -8.2500    0.0000 C   0  0  0  0  0  0  0  0  0  0  0  0
    3.8971   -9.7500    0.0000 C   0  0  0  0  0  0  0  0  0  0  0  0
    5.1962  -10.5000    0.0000 C   0  0  0  0  0  0  0  0  0  0  0  0
    5.1962  -12.0000    0.0000 C   0  0  0  0  0  0  0  0  0  0  0  0
    6.4952  -12.7500    0.0000 C   0  0  0  0  0  0  0  0  0  0  0  0
    6.4952  -14.2500    0.0000 C   0  0  0  0  0  0  0  0  0  0  0  0
    7.7942  -15.0000    0.0000 C   0  0  0  0  0  0  0  0  0  0  0  0
    7.7942  -16.5000    0.0000 C   0  0  0  0  0  0  0  0  0  0  0  0
    9.0933  -17.2500    0.0000 C   0  0  0  0  0  0  0  0  0  0  0  0
    9.0933  -18.7500    0.0000 C   0  0  0  0  0  0  0  0  0  0  0  0
   10.3923  -19.5000    0.0000 C   0  0  0  0  0  0  0  0  0  0  0  0
   10.3923  -21.0000    0.0000 C   0  0  0  0  0  0  0  0  0  0  0  0
   11.6913  -21.7500    0.0000 C   0  0  0  0  0  0  0  0  0  0  0  0
   11.6913  -23.2500    0.0000 C   0  0  0  0  0  0  0  0  0  0  0  0
   12.9904  -24.0000    0.0000 C   0  0  0  0  0  0  0  0  0  0  0  0
   12.9904  -25.5000    0.0000 C   0  0  0  0  0  0  0  0  0  0  0  0
   14.2894  -26.2500    0.0000 C   0  0  0  0  0  0  0  0  0  0  0  0
   14.2894  -27.7500    0.0000 C   0  0  0  0  0  0  0  0  0  0  0  0
   15.5885  -28.5000    0.0000 C   0  0  0  0  0  0  0  0  0  0  0  0
   15.5885  -30.0000    0.0000 C   0  0  0  0  0  0  0  0  0  0  0  0
   16.8875  -30.7500    0.0000 C   0  0  0  0  0  0  0  0  0  0  0  0
   16.8875  -32.2500    0.0000 C   0  0  0  0  0  0  0  0  0  0  0  0
   18.1865  -33.0000    0.0000 C   0  0  0  0  0  0  0  0  0  0  0  0
   18.1865  -34.5000    0.0000 C   0  0  0  0  0  0  0  0  0  0  0  0
   19.4856  -35.2500    0.0000 C   0  0  0  0  0  0  0  0  0  0  0  0
   19.4856  -36.7500    0.0000 C   0  0  0  0  0  0  0  0  0  0  0  0
   20.7846  -37.5000    0.0000 C   0  0  0  0  0  0  0  0  0  0  0  0
   20.7846  -39.0000    0.0000 C   0  0  0  0  0  0  0  0  0  0  0  0
   22.0836  -39.7500    0.0000 C   0  0  0  0  0  0  0  0  0  0  0  0
   22.0836  -41.2500    0.0000 C   0  0  0  0  0  0  0  0  0  0  0  0
   23.3827  -42.0000    0.0000 C   0  0  0  0  0  0  0  0  0  0  0  0
   23.3827  -43.5000    0.0000 C   0  0  0  0  0  0  0  0  0  0  0  0
   24.6817  -44.2500    0.0000 C   0  0  0  0  0  0  0  0  0  0  0  0
   24.6817  -45.7500    0.0000 C   0  0  0  0  0  0  0  0  0  0  0  0
   25.9808  -46.5000    0.0000 C   0  0  0  0  0  0  0  0  0  0  0  0
   25.9808  -48.0000    0.0000 C   0  0  0  0  0  0  0  0  0  0  0  0
   27.2798  -48.7500    0.0000 C   0  0  0  0  0  0  0  0  0  0  0  0
   27.2798  -50.2500    0.0000 C   0  0  0  0  0  0  0  0  0  0  0  0
   28.5788  -51.0000    0.0000 C   0  0  0  0  0  0  0  0  0  0  0  0
   28.5788  -52.5000    0.0000 C   0  0  0  0  0  0  0  0  0  0  0  0
   29.8779  -53.2500    0.0000 C   0  0  0  0  0  0  0  0  0  0  0  0
   29.8779  -54.7500    0.0000 C   0  0  0  0  0  0  0  0  0  0  0  0
   31.1769  -55.5000    0.0000 C   0  0  0  0  0  0  0  0  0  0  0  0
   31.1769  -57.0000    0.0000 C   0  0  0  0  0  0  0  0  0  0  0  0
   32.4760  -57.7500    0.0000 C   0  0  0  0  0  0  0  0  0  0  0  0
   32.4760  -59.2500    0.0000 C   0  0  0  0  0  0  0  0  0  0  0  0
   33.7750  -60.0000    0.0000 C   0  0  0  0  0  0  0  0  0  0  0  0
   33.7750  -61.5000    0.0000 C   0  0  0  0  0  0  0  0  0  0  0  0
   35.0740  -62.2500    0.0000 C   0  0  0  0  0  0  0  0  0  0  0  0
   35.0740  -63.7500    0.0000 C   0  0  0  0  0  0  0  0  0  0  0  0
   36.3731  -64.5000    0.0000 C   0  0  0  0  0  0  0  0  0  0  0  0
   36.3731  -66.0000    0.0000 C   0  0  0  0  0  0  0  0  0  0  0  0
   37.6721  -66.7500    0.0000 C   0  0  0  0  0  0  0  0  0  0  0  0
   37.6721  -68.2500    0.0000 C   0  0  0  0  0  0  0  0  0  0  0  0
   38.9711  -69.0000    0.0000 C   0  0  0  0  0  0  0  0  0  0  0  0
   38.9711  -70.5000    0.0000 C   0  0  0  0  0  0  0  0  0  0  0  0
   40.2702  -71.2500    0.0000 C   0  0  0  0  0  0  0  0  0  0  0  0
   40.2702  -72.7500    0.0000 C   0  0  0  0  0  0  0  0  0  0  0  0
   41.5692  -73.5000    0.0000 C   0  0  0  0  0  0  0  0  0  0  0  0
   41.5692  -75.0000    0.0000 C   0  0  0  0  0  0  0  0  0  0  0  0
   42.8683  -75.7500    0.0000 C   0  0  0  0  0  0  0  0  0  0  0  0
   42.8683  -77.2500    0.0000 C   0  0  0  0  0  0  0  0  0  0  0  0
   44.1673  -78.0000    0.0000 C   0  0  0  0  0  0  0  0  0  0  0  0
   44.1673  -79.5000    0.0000 C   0  0  0  0  0  0  0  0  0  0  0  0
   45.4663  -80.2500    0.0000 C   0  0  0  0  0  0  0  0  0  0  0  0
   45.4663  -81.7500    0.0000 C   0  0  0  0  0  0  0  0  0  0  0  0
   46.7654  -82.5000    0.0000 C   0  0  0  0  0  0  0  0  0  0  0  0
   46.7654  -84.0000    0.0000 C   0  0  0  0  0  0  0  0  0  0  0  0
   48.0644  -84.7500    0.0000 C   0  0  0  0  0  0  0  0  0  0  0  0
   48.0644  -86.2500    0.0000 C   0  0  0  0  0  0  0  0  0  0  0  0
   49.3634  -87.0000    0.0000 C   0  0  0  0  0  0  0  0  0  0  0  0
   49.3634  -88.5000    0.0000 C   0  0  0  0  0  0  0  0  0  0  0  0
   50.6625  -89.2500    0.0000 C   0  0  0  0  0  0  0  0  0  0  0  0
   50.6625  -90.7500    0.0000 C   0  0  0  0  0  0  0  0  0  0  0  0
   51.9615  -91.5000    0.0000 C   0  0  0  0  0  0  0  0  0  0  0  0
   51.9615  -93.0000    0.0000 C   0  0  0  0  0  0  0  0  0  0  0  0
   53.2606  -93.7500    0.0000 C   0  0  0  0  0  0  0  0  0  0  0  0
   53.2606  -95.2500    0.0000 C   0  0  0  0  0  0  0  0  0  0  0  0
   54.5596  -96.0000    0.0000 C   0  0  0  0  0  0  0  0  0  0  0  0
   54.5596  -97.5000    0.0000 C   0  0  0  0  0  0  0  0  0  0  0  0
   55.8586  -98.2500    0.0000 C   0  0  0  0  0  0  0  0  0  0  0  0
   55.8586  -99.7500    0.0000 C   0  0  0  0  0  0  0  0  0  0  0  0
   57.1577 -100.5000    0.0000 C   0  0  0  0  0  0  0  0  0  0  0  0
   57.1577 -102.0000    0.0000 C   0  0  0  0  0  0  0  0  0  0  0  0
   58.4567 -102.7500    0.0000 C   0  0  0  0  0  0  0  0  0  0  0  0
   58.4567 -104.2500    0.0000 C   0  0  0  0  0  0  0  0  0  0  0  0
   59.7558 -105.0000    0.0000 C   0  0  0  0  0  0  0  0  0  0  0  0
   59.7558 -106.5000    0.0000 C   0  0  0  0  0  0  0  0  0  0  0  0
   61.0548 -107.2500    0.0000 C   0  0  0  0  0  0  0  0  0  0  0  0
   61.0548 -108.7500    0.0000 C   0  0  0  0  0  0  0  0  0  0  0  0
   62.3538 -109.5000    0.0000 C   0  0  0  0  0  0  0  0  0  0  0  0
   62.3538 -111.0000    0.0000 C   0  0  0  0  0  0  0  0  0  0  0  0
   63.6529 -111.7500    0.0000 C   0  0  0  0  0  0  0  0  0  0  0  0
   63.6529 -113.2500    0.0000 C   0  0  0  0  0  0  0  0  0  0  0  0
   64.9519 -114.0000    0.0000 C   0  0  0  0  0  0  0  0  0  0  0  0
   64.9519 -115.5000    0.0000 C   0  0  0  0  0  0  0  0  0  0  0  0
   66.2509 -116.2500    0.0000 C   0  0  0  0  0  0  0  0  0  0  0  0
   66.2509 -117.7500    0.0000 C   0  0  0  0  0  0  0  0  0  0  0  0
   67.5500 -118.5000    0.0000 C   0  0  0  0  0  0  0  0  0  0  0  0
   67.5500 -120.0000    0.0000 C   0  0  0  0  0  0  0  0  0  0  0  0
   68.8490 -120.7500    0.0000 C   0  0  0  0  0  0  0  0  0  0  0  0
   68.8490 -122.2500    0.0000 C   0  0  0  0  0  0  0  0  0  0  0  0
   70.1481 -123.0000    0.0000 C   0  0  0  0  0  0  0  0  0  0  0  0
   70.1481 -124.5000    0.0000 C   0  0  0  0  0  0  0  0  0  0  0  0
   71.4471 -125.2500    0.0000 C   0  0  0  0  0  0  0  0  0  0  0  0
   71.4471 -126.7500    0.0000 C   0  0  0  0  0  0  0  0  0  0  0  0
   72.7461 -127.5000    0.0000 C   0  0  0  0  0  0  0  0  0  0  0  0
   72.7461 -129.0000    0.0000 C   0  0  0  0  0  0  0  0  0  0  0  0
   74.0452 -129.7500    0.0000 C   0  0  0  0  0  0  0  0  0  0  0  0
   74.0452 -131.2500    0.0000 C   0  0  0  0  0  0  0  0  0  0  0  0
   75.3442 -132.0000    0.0000 C   0  0  0  0  0  0  0  0  0  0  0  0
   75.3442 -133.5000    0.0000 C   0  0  0  0  0  0  0  0  0  0  0  0
   76.6432 -134.2500    0.0000 C   0  0  0  0  0  0  0  0  0  0  0  0
   76.6432 -135.7500    0.0000 C   0  0  0  0  0  0  0  0  0  0  0  0
   77.9423 -136.5000    0.0000 C   0  0  0  0  0  0  0  0  0  0  0  0
   77.9423 -138.0000    0.0000 C   0  0  0  0  0  0  0  0  0  0  0  0
   79.2413 -138.7500    0.0000 C   0  0  0  0  0  0  0  0  0  0  0  0
   79.2413 -140.2500    0.0000 C   0  0  0  0  0  0  0  0  0  0  0  0
   80.5404 -141.0000    0.0000 C   0  0  0  0  0  0  0  0  0  0  0  0
  1  2  3  0
  2  3  1  0
  3  4  1  0
  4  5  1  0
  5  6  1  0
  6  7  1  0
  7  8  1  0
  8  9  1  0
  9 10  1  0
 10 11  1  0
 11 12  1  0
 12 13  1  0
 13 14  1  0
 14 15  1  0
 15 16  1  0
 16 17  1  0
 17 18  1  0
 18 19  1  0
 19 20  1  0
 20 21  1  0
 21 22  1  0
 22 23  1  0
 23 24  1  0
 24 25  1  0
 25 26  1  0
 26 27  1  0
 27 28  1  0
 28 29  1  0
 29 30  1  0
 30 31  1  0
 31 32  1  0
 32 33  1  0
 33 34  1  0
 34 35  1  0
 35 36  1  0
 36 37  1  0
 37 38  1  0
 38 39  1  0
 39 40  1  0
 40 41  1  0
 41 42  1  0
 42 43  1  0
 43 44  1  0
 44 45  1  0
 45 46  1  0
 46 47  1  0
 47 48  1  0
 48 49  1  0
 49 50  1  0
 50 51  1  0
 51 52  1  0
 52 53  1  0
 53 54  1  0
 54 55  1  0
 55 56  1  0
 56 57  1  0
 57 58  1  0
 58 59  1  0
 59 60  1  0
 60 61  1  0
 61 62  1  0
 62 63  1  0
 63 64  1  0
 64 65  1  0
 65 66  1  0
 66 67  1  0
 67 68  1  0
 68 69  1  0
 69 70  1  0
 70 71  1  0
 71 72  1  0
 72 73  1  0
 73 74  1  0
 74 75  1  0
 75 76  1  0
 76 77  1  0
 77 78  1  0
 78 79  1  0
 79 80  1  0
 80 81  1  0
 81 82  1  0
 82 83  1  0
 83 84  1  0
 84 85  1  0
 85 86  1  0
 86 87  1  0
 87 88  1  0
 88 89  1  0
 89 90  1  0
 90 91  1  0
 91 92  1  0
 92 93  1  0
 93 94  1  0
 94 95  1  0
 95 96  1  0
 96 97  1  0
 97 98  1  0
 98 99  1  0
 99100  1  0
100101  1  0
101102  1  0
102103  1  0
103104  1  0
104105  1  0
105106  1  0
106107  1  0
107108  1  0
108109  1  0
109110  1  0
110111  1  0
111112  1  0
112113  1  0
113114  1  0
114115  1  0
115116  1  0
116117  1  0
117118  1  0
118119  1  0
119120  1  0
120121  1  0
121122  1  0
122123  1  0
123124  1  0
124125  1  0
125126  2  0
M  END
>  <Title>  (1031) 
idABLSgen10

$$$$

     RDKit          2D

  9  9  0  0  0  0  0  0  0  0999 V2000
    4.2760    2.5981    0.0000 C   0  0  0  0  0  0  0  0  0  0  0  0
    3.5260    1.2990    0.0000 C   0  0  0  0  0  0  0  0  0  0  0  0
    2.7760    0.0000    0.0000 C   0  0  0  0  0  0  0  0  0  0  0  0
    3.5260   -1.2990    0.0000 C   0  0  0  0  0  0  0  0  0  0  0  0
    1.2760    0.0000    0.0000 C   0  0  0  0  0  0  0  0  0  0  0  0
    0.3943    1.2135    0.0000 C   0  0  0  0  0  0  0  0  0  0  0  0
   -1.0323    0.7500    0.0000 C   0  0  0  0  0  0  0  0  0  0  0  0
   -1.0323   -0.7500    0.0000 C   0  0  0  0  0  0  0  0  0  0  0  0
    0.3943   -1.2135    0.0000 C   0  0  0  0  0  0  0  0  0  0  0  0
  1  2  3  0
  2  3  1  0
  3  4  1  0
  3  5  1  0
  5  6  2  0
  6  7  1  0
  7  8  2  0
  8  9  1  0
  9  5  1  0
M  END
>  <Title>  (1032) 
idABLTgen10

$$$$

     RDKit          2D

 14 15  0  0  0  0  0  0  0  0999 V2000
   -4.5000   -5.1962    0.0000 C   0  0  0  0  0  0  0  0  0  0  0  0
   -3.7500   -3.8971    0.0000 C   0  0  0  0  0  0  0  0  0  0  0  0
   -3.0000   -2.5981    0.0000 C   0  0  0  0  0  0  0  0  0  0  0  0
   -3.7500   -1.2990    0.0000 O   0  0  0  0  0  0  0  0  0  0  0  0
   -1.5000   -2.5981    0.0000 C   0  0  0  0  0  0  0  0  0  0  0  0
   -0.7500   -3.8971    0.0000 C   0  0  0  0  0  0  0  0  0  0  0  0
    0.7500   -3.8971    0.0000 C   0  0  0  0  0  0  0  0  0  0  0  0
    1.5000   -2.5981    0.0000 C   0  0  0  0  0  0  0  0  0  0  0  0
    0.7500   -1.2990    0.0000 C   0  0  0  0  0  0  0  0  0  0  0  0
    1.5000    0.0000    0.0000 C   0  0  0  0  0  0  0  0  0  0  0  0
    0.7500    1.2990    0.0000 C   0  0  0  0  0  0  0  0  0  0  0  0
   -0.7500    1.2990    0.0000 C   0  0  0  0  0  0  0  0  0  0  0  0
   -1.5000    0.0000    0.0000 C   0  0  0  0  0  0  0  0  0  0  0  0
   -0.7500   -1.2990    0.0000 C   0  0  0  0  0  0  0  0  0  0  0  0
  1  2  3  0
  2  3  1  0
  3  4  2  0
  3  5  1  0
  5  6  1  0
  6  7  1  0
  7  8  1  0
  8  9  1  0
  9 10  2  0
 10 11  1  0
 11 12  2  0
 12 13  1  0
 13 14  2  0
 14  5  1  0
 14  9  1  0
M  END
>  <Title>  (1033) 
idABLUgen10

$$$$

     RDKit          2D

 11 11  0  0  0  0  0  0  0  0999 V2000
    7.5000   -2.5981    0.0000 C   0  0  0  0  0  0  0  0  0  0  0  0
    6.0000   -2.5981    0.0000 C   0  0  0  0  0  0  0  0  0  0  0  0
    5.2500   -1.2990    0.0000 C   0  0  0  0  0  0  0  0  0  0  0  0
    3.7500   -1.2990    0.0000 N   0  0  0  0  0  0  0  0  0  0  0  0
    3.0000    0.0000    0.0000 C   0  0  0  0  0  0  0  0  0  0  0  0
    1.5000    0.0000    0.0000 C   0  0  0  0  0  0  0  0  0  0  0  0
    0.7500   -1.2990    0.0000 C   0  0  0  0  0  0  0  0  0  0  0  0
   -0.7500   -1.2990    0.0000 C   0  0  0  0  0  0  0  0  0  0  0  0
   -1.5000    0.0000    0.0000 C   0  0  0  0  0  0  0  0  0  0  0  0
   -0.7500    1.2990    0.0000 C   0  0  0  0  0  0  0  0  0  0  0  0
    0.7500    1.2990    0.0000 C   0  0  0  0  0  0  0  0  0  0  0  0
  1  2  2  0
  2  3  1  0
  3  4  1  0
  4  5  1  0
  5  6  1  0
  6  7  2  0
  7  8  1  0
  8  9  2  0
  9 10  1  0
 10 11  2  0
 11  6  1  0
M  END
>  <Title>  (1034) 
idABLVgen10

$$$$

     RDKit          2D

 12 12  0  0  0  0  0  0  0  0999 V2000
    2.7760    0.0000    0.0000 C   0  0  0  0  0  0  0  0  0  0  0  0
    1.2760    0.0000    0.0000 C   0  0  0  0  0  0  0  0  0  0  0  0
    0.3943    1.2135    0.0000 C   0  0  0  0  0  0  0  0  0  0  0  0
    0.8578    2.6401    0.0000 C   0  0  0  0  0  0  0  0  0  0  0  0
   -1.0323    0.7500    0.0000 N   0  0  0  0  0  0  0  0  0  0  0  0
   -1.0323   -0.7500    0.0000 C   0  0  0  0  0  0  0  0  0  0  0  0
   -2.2458   -1.6317    0.0000 C   0  0  0  0  0  0  0  0  0  0  0  0
   -3.4593   -2.5134    0.0000 C   0  0  0  0  0  0  0  0  0  0  0  0
   -4.6729   -3.3950    0.0000 C   0  0  0  0  0  0  0  0  0  0  0  0
   -6.0432   -2.7849    0.0000 C   0  0  0  0  0  0  0  0  0  0  0  0
   -4.5161   -4.8868    0.0000 C   0  0  0  0  0  0  0  0  0  0  0  0
    0.3943   -1.2135    0.0000 C   0  0  0  0  0  0  0  0  0  0  0  0
  1  2  1  0
  2  3  2  0
  3  4  1  0
  3  5  1  0
  5  6  1  0
  6  7  1  0
  7  8  3  0
  8  9  1  0
  9 10  1  0
  9 11  1  0
  6 12  2  0
 12  2  1  0
M  END
>  <Title>  (1035) 
idABLWgen10

$$$$

     RDKit          2D

  9  9  0  0  0  0  0  0  0  0999 V2000
    7.0607    0.0000    0.0000 C   0  0  0  0  0  0  0  0  0  0  0  0
    5.5607    0.0000    0.0000 C   0  0  0  0  0  0  0  0  0  0  0  0
    4.0607    0.0000    0.0000 C   0  0  0  0  0  0  0  0  0  0  0  0
    2.5607    0.0000    0.0000 C   0  0  0  0  0  0  0  0  0  0  0  0
    1.0607    0.0000    0.0000 C   0  0  0  0  0  0  0  0  0  0  0  0
   -0.0000   -1.0607    0.0000 C   0  0  0  0  0  0  0  0  0  0  0  0
   -0.0000   -2.5607    0.0000 C   0  0  0  0  0  0  0  0  0  0  0  0
   -1.0607    0.0000    0.0000 N   0  0  0  0  0  0  0  0  0  0  0  0
    0.0000    1.0607    0.0000 C   0  0  0  0  0  0  0  0  0  0  0  0
  1  2  3  0
  2  3  1  0
  3  4  3  0
  4  5  1  0
  5  6  2  0
  6  7  1  0
  6  8  1  0
  8  9  2  0
  9  5  1  0
M  END
>  <Title>  (1036) 
idABLXgen10

$$$$

     RDKit          2D

 11 11  0  0  0  0  0  0  0  0999 V2000
    5.2500   -1.2990    0.0000 C   0  0  0  0  0  0  0  0  0  0  0  0
    3.7500   -1.2990    0.0000 C   0  0  0  0  0  0  0  0  0  0  0  0
    3.0000   -2.5981    0.0000 O   0  0  0  0  0  0  0  0  0  0  0  0
    3.0000    0.0000    0.0000 N   0  0  0  0  0  0  0  0  0  0  0  0
    1.5000    0.0000    0.0000 C   0  0  0  0  0  0  0  0  0  0  0  0
    0.7500   -1.2990    0.0000 C   0  0  0  0  0  0  0  0  0  0  0  0
   -0.7500   -1.2990    0.0000 C   0  0  0  0  0  0  0  0  0  0  0  0
   -1.5000    0.0000    0.0000 C   0  0  0  0  0  0  0  0  0  0  0  0
   -0.7500    1.2990    0.0000 C   0  0  0  0  0  0  0  0  0  0  0  0
   -1.5000    2.5981    0.0000 C   0  0  0  0  0  0  0  0  0  0  0  0
    0.7500    1.2990    0.0000 C   0  0  0  0  0  0  0  0  0  0  0  0
  1  2  1  0
  2  3  2  0
  2  4  1  0
  4  5  1  0
  5  6  2  0
  6  7  1  0
  7  8  2  0
  8  9  1  0
  9 10  1  0
  9 11  2  0
 11  5  1  0
M  END
>  <Title>  (1037) 
idABLYgen10

$$$$

     RDKit          2D

 12 12  0  0  0  0  0  0  0  0999 V2000
    6.0000   -2.5981    0.0000 C   0  0  0  0  0  0  0  0  0  0  0  0
    5.2500   -1.2990    0.0000 C   0  0  0  0  0  0  0  0  0  0  0  0
    3.7500   -1.2990    0.0000 C   0  0  0  0  0  0  0  0  0  0  0  0
    3.0000    0.0000    0.0000 C   0  0  0  0  0  0  0  0  0  0  0  0
    3.7500    1.2990    0.0000 C   0  0  0  0  0  0  0  0  0  0  0  0
    4.5000    2.5981    0.0000 N   0  0  0  0  0  0  0  0  0  0  0  0
    1.5000    0.0000    0.0000 C   0  0  0  0  0  0  0  0  0  0  0  0
    0.7500   -1.2990    0.0000 C   0  0  0  0  0  0  0  0  0  0  0  0
   -0.7500   -1.2990    0.0000 C   0  0  0  0  0  0  0  0  0  0  0  0
   -1.5000    0.0000    0.0000 C   0  0  0  0  0  0  0  0  0  0  0  0
   -0.7500    1.2990    0.0000 C   0  0  0  0  0  0  0  0  0  0  0  0
    0.7500    1.2990    0.0000 C   0  0  0  0  0  0  0  0  0  0  0  0
  1  2  2  0
  2  3  1  0
  3  4  1  0
  4  5  1  0
  5  6  3  0
  4  7  1  0
  7  8  2  0
  8  9  1  0
  9 10  2  0
 10 11  1  0
 11 12  2  0
 12  7  1  0
M  END
>  <Title>  (1038) 
idABLZgen10

$$$$

     RDKit          2D

  8  8  0  0  0  0  0  0  0  0999 V2000
    4.2760   -0.0000    0.0000 C   0  0  0  0  0  0  0  0  0  0  0  0
    2.7760    0.0000    0.0000 C   0  0  0  0  0  0  0  0  0  0  0  0
    1.2760    0.0000    0.0000 C   0  0  0  0  0  0  0  0  0  0  0  0
    0.3943    1.2135    0.0000 C   0  0  0  0  0  0  0  0  0  0  0  0
   -1.0323    0.7500    0.0000 C   0  0  0  0  0  0  0  0  0  0  0  0
   -1.0323   -0.7500    0.0000 C   0  0  0  0  0  0  0  0  0  0  0  0
   -2.2458   -1.6317    0.0000 C   0  0  0  0  0  0  0  0  0  0  0  0
    0.3943   -1.2135    0.0000 C   0  0  0  0  0  0  0  0  0  0  0  0
  1  2  3  0
  2  3  1  0
  3  4  2  0
  4  5  1  0
  5  6  2  0
  6  7  1  0
  6  8  1  0
  8  3  1  0
M  END
>  <Title>  (1039) 
idABMAgen10

$$$$

     RDKit          2D

  9  9  0  0  0  0  0  0  0  0999 V2000
    4.7286   -0.0000    0.0000 N   0  0  0  0  0  0  0  0  0  0  0  0
    3.2286   -0.0000    0.0000 C   0  0  0  0  0  0  0  0  0  0  0  0
    1.7286    0.0000    0.0000 C   0  0  0  0  0  0  0  0  0  0  0  0
    1.0777    1.3515    0.0000 C   0  0  0  0  0  0  0  0  0  0  0  0
   -0.3846    1.6852    0.0000 C   0  0  0  0  0  0  0  0  0  0  0  0
   -1.5574    0.7500    0.0000 C   0  0  0  0  0  0  0  0  0  0  0  0
   -1.5574   -0.7500    0.0000 C   0  0  0  0  0  0  0  0  0  0  0  0
   -0.3846   -1.6852    0.0000 C   0  0  0  0  0  0  0  0  0  0  0  0
    1.0777   -1.3515    0.0000 C   0  0  0  0  0  0  0  0  0  0  0  0
  1  2  3  0
  2  3  1  0
  3  4  1  0
  4  5  2  0
  5  6  1  0
  6  7  2  0
  7  8  1  0
  8  9  2  0
  9  3  1  0
M  END
>  <Title>  (1040) 
idABMBgen10

$$$$

     RDKit          2D

 69 70  0  0  0  0  0  0  0  0999 V2000
   -1.9991   -2.5298    0.0000 C   0  0  0  0  0  0  0  0  0  0  0  0
   -2.2483   -1.0506    0.0000 C   0  0  0  0  0  0  0  0  0  0  0  0
   -2.4974    0.4285    0.0000 C   0  0  0  0  0  0  0  0  0  0  0  0
   -3.9870    0.2522    0.0000 C   0  0  0  0  0  0  0  0  0  0  0  0
   -5.4867    0.2228    0.0000 C   0  0  0  0  0  0  0  0  0  0  0  0
   -6.9821    0.3405    0.0000 C   0  0  0  0  0  0  0  0  0  0  0  0
   -8.4588    0.6042    0.0000 C   0  0  0  0  0  0  0  0  0  0  0  0
   -9.9024    1.0113    0.0000 C   0  0  0  0  0  0  0  0  0  0  0  0
  -11.2993    1.5580    0.0000 C   0  0  0  0  0  0  0  0  0  0  0  0
  -12.6358    2.2390    0.0000 C   0  0  0  0  0  0  0  0  0  0  0  0
  -13.8991    3.0477    0.0000 C   0  0  0  0  0  0  0  0  0  0  0  0
  -15.0771    3.9764    0.0000 C   0  0  0  0  0  0  0  0  0  0  0  0
  -16.1584    5.0160    0.0000 C   0  0  0  0  0  0  0  0  0  0  0  0
  -17.1325    6.1566    0.0000 C   0  0  0  0  0  0  0  0  0  0  0  0
  -17.9902    7.3872    0.0000 C   0  0  0  0  0  0  0  0  0  0  0  0
  -18.7231    8.6959    0.0000 C   0  0  0  0  0  0  0  0  0  0  0  0
  -19.3243   10.0702    0.0000 C   0  0  0  0  0  0  0  0  0  0  0  0
  -19.7878   11.4968    0.0000 C   0  0  0  0  0  0  0  0  0  0  0  0
  -20.1093   12.9620    0.0000 C   0  0  0  0  0  0  0  0  0  0  0  0
  -20.2856   14.4516    0.0000 C   0  0  0  0  0  0  0  0  0  0  0  0
  -20.3150   15.9513    0.0000 C   0  0  0  0  0  0  0  0  0  0  0  0
  -20.1973   17.4467    0.0000 C   0  0  0  0  0  0  0  0  0  0  0  0
  -19.9336   18.9233    0.0000 C   0  0  0  0  0  0  0  0  0  0  0  0
  -19.5265   20.3670    0.0000 C   0  0  0  0  0  0  0  0  0  0  0  0
  -18.9798   21.7638    0.0000 C   0  0  0  0  0  0  0  0  0  0  0  0
  -18.2988   23.1003    0.0000 C   0  0  0  0  0  0  0  0  0  0  0  0
  -17.4901   24.3636    0.0000 C   0  0  0  0  0  0  0  0  0  0  0  0
  -16.5614   25.5416    0.0000 C   0  0  0  0  0  0  0  0  0  0  0  0
  -15.5218   26.6229    0.0000 C   0  0  0  0  0  0  0  0  0  0  0  0
  -14.3812   27.5971    0.0000 C   0  0  0  0  0  0  0  0  0  0  0  0
  -13.1506   28.4547    0.0000 C   0  0  0  0  0  0  0  0  0  0  0  0
  -11.8418   29.1877    0.0000 C   0  0  0  0  0  0  0  0  0  0  0  0
  -10.4676   29.7888    0.0000 C   0  0  0  0  0  0  0  0  0  0  0  0
   -9.0410   30.2523    0.0000 C   0  0  0  0  0  0  0  0  0  0  0  0
   -7.5758   30.5738    0.0000 C   0  0  0  0  0  0  0  0  0  0  0  0
   -6.0862   30.7501    0.0000 C   0  0  0  0  0  0  0  0  0  0  0  0
   -4.5865   30.7795    0.0000 C   0  0  0  0  0  0  0  0  0  0  0  0
   -3.0911   30.6619    0.0000 C   0  0  0  0  0  0  0  0  0  0  0  0
   -1.6145   30.3982    0.0000 C   0  0  0  0  0  0  0  0  0  0  0  0
   -0.1708   29.9910    0.0000 C   0  0  0  0  0  0  0  0  0  0  0  0
    1.2260   29.4443    0.0000 C   0  0  0  0  0  0  0  0  0  0  0  0
    2.5625   28.7633    0.0000 C   0  0  0  0  0  0  0  0  0  0  0  0
    3.8258   27.9546    0.0000 C   0  0  0  0  0  0  0  0  0  0  0  0
    5.0038   27.0260    0.0000 C   0  0  0  0  0  0  0  0  0  0  0  0
    6.0851   25.9863    0.0000 C   0  0  0  0  0  0  0  0  0  0  0  0
    7.0593   24.8457    0.0000 C   0  0  0  0  0  0  0  0  0  0  0  0
    7.9169   23.6151    0.0000 C   0  0  0  0  0  0  0  0  0  0  0  0
    8.6499   22.3064    0.0000 C   0  0  0  0  0  0  0  0  0  0  0  0
    9.2510   20.9321    0.0000 C   0  0  0  0  0  0  0  0  0  0  0  0
    9.7145   19.5055    0.0000 C   0  0  0  0  0  0  0  0  0  0  0  0
   10.0360   18.0404    0.0000 C   0  0  0  0  0  0  0  0  0  0  0  0
   10.2123   16.5508    0.0000 C   0  0  0  0  0  0  0  0  0  0  0  0
   10.2418   15.0510    0.0000 C   0  0  0  0  0  0  0  0  0  0  0  0
   10.1241   13.5557    0.0000 C   0  0  0  0  0  0  0  0  0  0  0  0
    9.8604   12.0790    0.0000 C   0  0  0  0  0  0  0  0  0  0  0  0
    9.4532   10.6353    0.0000 C   0  0  0  0  0  0  0  0  0  0  0  0
    8.9065    9.2385    0.0000 C   0  0  0  0  0  0  0  0  0  0  0  0
    8.2255    7.9020    0.0000 C   0  0  0  0  0  0  0  0  0  0  0  0
    7.4168    6.6387    0.0000 C   0  0  0  0  0  0  0  0  0  0  0  0
    6.4882    5.4607    0.0000 C   0  0  0  0  0  0  0  0  0  0  0  0
    5.4485    4.3794    0.0000 C   0  0  0  0  0  0  0  0  0  0  0  0
    4.3079    3.4053    0.0000 C   0  0  0  0  0  0  0  0  0  0  0  0
    3.0773    2.5476    0.0000 C   0  0  0  0  0  0  0  0  0  0  0  0
    1.7686    1.8146    0.0000 C   0  0  0  0  0  0  0  0  0  0  0  0
    0.3943    1.2135    0.0000 C   0  0  0  0  0  0  0  0  0  0  0  0
    1.2760    0.0000    0.0000 C   0  0  0  0  0  0  0  0  0  0  0  0
    0.3943   -1.2135    0.0000 C   0  0  0  0  0  0  0  0  0  0  0  0
   -1.0323   -0.7500    0.0000 C   0  0  0  0  0  0  0  0  0  0  0  0
   -1.0323    0.7500    0.0000 C   0  0  0  0  0  0  0  0  0  0  0  0
  1  2  3  0
  2  3  1  0
  3  4  1  0
  4  5  1  0
  5  6  1  0
  6  7  1  0
  7  8  1  0
  8  9  1  0
  9 10  1  0
 10 11  1  0
 11 12  1  0
 12 13  1  0
 13 14  1  0
 14 15  1  0
 15 16  1  0
 16 17  1  0
 17 18  1  0
 18 19  1  0
 19 20  1  0
 20 21  1  0
 21 22  1  0
 22 23  1  0
 23 24  1  0
 24 25  1  0
 25 26  1  0
 26 27  1  0
 27 28  1  0
 28 29  1  0
 29 30  1  0
 30 31  1  0
 31 32  1  0
 32 33  1  0
 33 34  1  0
 34 35  1  0
 35 36  1  0
 36 37  1  0
 37 38  1  0
 38 39  1  0
 39 40  1  0
 40 41  1  0
 41 42  1  0
 42 43  1  0
 43 44  1  0
 44 45  1  0
 45 46  1  0
 46 47  1  0
 47 48  1  0
 48 49  1  0
 49 50  1  0
 50 51  1  0
 51 52  1  0
 52 53  1  0
 53 54  1  0
 54 55  1  0
 55 56  1  0
 56 57  2  0
 57 58  1  0
 58 59  2  0
 59 60  1  0
 60 61  2  0
 61 62  1  0
 62 63  2  0
 63 64  1  0
 64 65  2  0
 65 66  1  0
 66 67  2  0
 67 68  1  0
 68 69  2  0
 69  3  1  0
 69 65  1  0
M  END
>  <Title>  (1041) 
idABMCgen10

$$$$

     RDKit          2D

 13 13  0  0  0  0  0  0  0  0999 V2000
    8.2500   -3.8971    0.0000 C   0  0  0  0  0  0  0  0  0  0  0  0
    7.5000   -2.5981    0.0000 C   0  0  0  0  0  0  0  0  0  0  0  0
    6.0000   -2.5981    0.0000 C   0  0  0  0  0  0  0  0  0  0  0  0
    5.2500   -3.8971    0.0000 O   0  0  0  0  0  0  0  0  0  0  0  0
    5.2500   -1.2990    0.0000 C   0  0  0  0  0  0  0  0  0  0  0  0
    3.7500   -1.2990    0.0000 C   0  0  0  0  0  0  0  0  0  0  0  0
    3.0000    0.0000    0.0000 C   0  0  0  0  0  0  0  0  0  0  0  0
    1.5000    0.0000    0.0000 C   0  0  0  0  0  0  0  0  0  0  0  0
    0.7500   -1.2990    0.0000 C   0  0  0  0  0  0  0  0  0  0  0  0
   -0.7500   -1.2990    0.0000 C   0  0  0  0  0  0  0  0  0  0  0  0
   -1.5000    0.0000    0.0000 C   0  0  0  0  0  0  0  0  0  0  0  0
   -0.7500    1.2990    0.0000 C   0  0  0  0  0  0  0  0  0  0  0  0
    0.7500    1.2990    0.0000 C   0  0  0  0  0  0  0  0  0  0  0  0
  1  2  1  0
  2  3  1  0
  3  4  2  0
  3  5  1  0
  5  6  1  0
  6  7  1  0
  7  8  1  0
  8  9  2  0
  9 10  1  0
 10 11  2  0
 11 12  1  0
 12 13  2  0
 13  8  1  0
M  END
>  <Title>  (1042) 
idABMDgen10

$$$$

     RDKit          2D

 12 12  0  0  0  0  0  0  0  0999 V2000
    7.7286   -0.0000    0.0000 C   0  0  0  0  0  0  0  0  0  0  0  0
    6.2286   -0.0000    0.0000 C   0  0  0  0  0  0  0  0  0  0  0  0
    4.7286   -0.0000    0.0000 C   0  0  0  0  0  0  0  0  0  0  0  0
    3.2286   -0.0000    0.0000 C   0  0  0  0  0  0  0  0  0  0  0  0
    1.7286    0.0000    0.0000 C   0  0  0  0  0  0  0  0  0  0  0  0
    1.0777    1.3515    0.0000 C   0  0  0  0  0  0  0  0  0  0  0  0
   -0.3846    1.6852    0.0000 C   0  0  0  0  0  0  0  0  0  0  0  0
   -0.7184    3.1476    0.0000 C   0  0  0  0  0  0  0  0  0  0  0  0
   -1.5574    0.7500    0.0000 N   0  0  0  0  0  0  0  0  0  0  0  0
   -1.5574   -0.7500    0.0000 C   0  0  0  0  0  0  0  0  0  0  0  0
   -0.3846   -1.6852    0.0000 C   0  0  0  0  0  0  0  0  0  0  0  0
    1.0777   -1.3515    0.0000 C   0  0  0  0  0  0  0  0  0  0  0  0
  1  2  3  0
  2  3  1  0
  3  4  3  0
  4  5  1  0
  5  6  2  0
  6  7  1  0
  7  8  1  0
  7  9  1  0
  9 10  1  0
 10 11  1  0
 11 12  2  0
 12  5  1  0
M  END
>  <Title>  (1043) 
idABMEgen10

$$$$

     RDKit          2D

 56 64  0  0  0  0  0  0  0  0999 V2000
    5.8191   -5.5525    0.0000 C   0  0  0  0  0  0  0  0  0  0  0  0
    4.3191   -5.5525    0.0000 C   0  0  0  0  0  0  0  0  0  0  0  0
    4.0586   -4.0753    0.0000 C   0  0  0  0  0  0  0  0  0  0  0  0
    3.3086   -2.7762    0.0000 C   0  0  0  0  0  0  0  0  0  0  0  0
    2.1595   -1.8121    0.0000 C   0  0  0  0  0  0  0  0  0  0  0  0
    2.9095   -0.5130    0.0000 C   0  0  0  0  0  0  0  0  0  0  0  0
    2.1595    0.7860    0.0000 O   0  0  0  0  0  0  0  0  0  0  0  0
    4.4095   -0.5130    0.0000 N   0  0  0  0  0  0  0  0  0  0  0  0
    5.1595    0.7860    0.0000 C   0  0  0  0  0  0  0  0  0  0  0  0
    6.6595    0.7860    0.0000 N   0  0  0  0  0  0  0  0  0  0  0  0
    7.4095    2.0850    0.0000 N   0  0  0  0  0  0  0  0  0  0  0  0
    6.6595    3.3841    0.0000 N   0  0  0  0  0  0  0  0  0  0  0  0
    5.1595    3.3841    0.0000 N   0  0  0  0  0  0  0  0  0  0  0  0
    4.4095    2.0850    0.0000 N   0  0  0  0  0  0  0  0  0  0  0  0
    0.7500   -1.2990    0.0000 C   0  0  0  0  0  0  0  0  0  0  0  0
    1.5000    0.0000    0.0000 C   0  0  0  0  0  0  0  0  0  0  0  0
    0.7500    1.2990    0.0000 C   0  0  0  0  0  0  0  0  0  0  0  0
   -0.7500    1.2990    0.0000 C   0  0  0  0  0  0  0  0  0  0  0  0
   -1.5000    0.0000    0.0000 C   0  0  0  0  0  0  0  0  0  0  0  0
   -0.7500   -1.2990    0.0000 C   0  0  0  0  0  0  0  0  0  0  0  0
   -2.1595   -1.8121    0.0000 C   0  0  0  0  0  0  0  0  0  0  0  0
   -2.4200   -0.3349    0.0000 C   0  0  0  0  0  0  0  0  0  0  0  0
   -3.8296    0.1782    0.0000 C   0  0  0  0  0  0  0  0  0  0  0  0
   -4.9786   -0.7860    0.0000 C   0  0  0  0  0  0  0  0  0  0  0  0
   -4.7181   -2.2632    0.0000 C   0  0  0  0  0  0  0  0  0  0  0  0
   -3.3086   -2.7762    0.0000 C   0  0  0  0  0  0  0  0  0  0  0  0
   -4.0586   -4.0753    0.0000 C   0  0  0  0  0  0  0  0  0  0  0  0
   -5.2077   -3.1111    0.0000 C   0  0  0  0  0  0  0  0  0  0  0  0
   -6.6172   -3.6241    0.0000 C   0  0  0  0  0  0  0  0  0  0  0  0
   -6.8777   -5.1013    0.0000 C   0  0  0  0  0  0  0  0  0  0  0  0
   -5.7286   -6.0655    0.0000 C   0  0  0  0  0  0  0  0  0  0  0  0
   -4.3191   -5.5525    0.0000 C   0  0  0  0  0  0  0  0  0  0  0  0
   -4.0586   -7.0297    0.0000 C   0  0  0  0  0  0  0  0  0  0  0  0
   -5.5586   -7.0297    0.0000 C   0  0  0  0  0  0  0  0  0  0  0  0
   -6.3086   -8.3287    0.0000 C   0  0  0  0  0  0  0  0  0  0  0  0
   -5.5586   -9.6278    0.0000 C   0  0  0  0  0  0  0  0  0  0  0  0
   -4.0586   -9.6278    0.0000 C   0  0  0  0  0  0  0  0  0  0  0  0
   -3.3086   -8.3287    0.0000 C   0  0  0  0  0  0  0  0  0  0  0  0
   -2.1595   -9.2929    0.0000 C   0  0  0  0  0  0  0  0  0  0  0  0
   -3.3086  -10.2571    0.0000 C   0  0  0  0  0  0  0  0  0  0  0  0
   -3.0481  -11.7343    0.0000 C   0  0  0  0  0  0  0  0  0  0  0  0
   -1.6386  -12.2474    0.0000 C   0  0  0  0  0  0  0  0  0  0  0  0
   -0.4895  -11.2832    0.0000 C   0  0  0  0  0  0  0  0  0  0  0  0
   -0.7500   -9.8060    0.0000 C   0  0  0  0  0  0  0  0  0  0  0  0
    0.7500   -9.8060    0.0000 C   0  0  0  0  0  0  0  0  0  0  0  0
    0.4895  -11.2832    0.0000 C   0  0  0  0  0  0  0  0  0  0  0  0
    1.6386  -12.2474    0.0000 C   0  0  0  0  0  0  0  0  0  0  0  0
    3.0481  -11.7343    0.0000 C   0  0  0  0  0  0  0  0  0  0  0  0
    3.3086  -10.2571    0.0000 C   0  0  0  0  0  0  0  0  0  0  0  0
    2.1595   -9.2929    0.0000 C   0  0  0  0  0  0  0  0  0  0  0  0
    3.3086   -8.3287    0.0000 C   0  0  0  0  0  0  0  0  0  0  0  0
    4.0586   -9.6278    0.0000 C   0  0  0  0  0  0  0  0  0  0  0  0
    5.5586   -9.6278    0.0000 C   0  0  0  0  0  0  0  0  0  0  0  0
    6.3086   -8.3287    0.0000 C   0  0  0  0  0  0  0  0  0  0  0  0
    5.5586   -7.0297    0.0000 C   0  0  0  0  0  0  0  0  0  0  0  0
    4.0586   -7.0297    0.0000 C   0  0  0  0  0  0  0  0  0  0  0  0
  1  2  1  0
  2  3  1  0
  3  4  1  0
  4  5  1  0
  5  6  1  0
  6  7  2  0
  6  8  1  0
  8  9  1  0
  9 10  2  0
 10 11  1  0
 11 12  2  0
 12 13  1  0
 13 14  2  0
  5 15  1  0
 15 16  2  0
 16 17  1  0
 17 18  2  0
 18 19  1  0
 19 20  2  0
 20 21  1  0
 21 22  2  0
 22 23  1  0
 23 24  2  0
 24 25  1  0
 25 26  2  0
 26 27  1  0
 27 28  2  0
 28 29  1  0
 29 30  2  0
 30 31  1  0
 31 32  2  0
 32 33  1  0
 33 34  2  0
 34 35  1  0
 35 36  2  0
 36 37  1  0
 37 38  2  0
 38 39  1  0
 39 40  2  0
 40 41  1  0
 41 42  2  0
 42 43  1  0
 43 44  2  0
 44 45  1  0
 45 46  2  0
 46 47  1  0
 47 48  2  0
 48 49  1  0
 49 50  2  0
 50 51  1  0
 51 52  2  0
 52 53  1  0
 53 54  2  0
 54 55  1  0
 55 56  2  0
 56  2  1  0
 14  9  1  0
 20 15  1  0
 26 21  1  0
 32 27  1  0
 38 33  1  0
 44 39  1  0
 50 45  1  0
 56 51  1  0
M  END
>  <Title>  (1044) 
idABMFgen10

$$$$

     RDKit          2D

 44 50  0  0  0  0  0  0  0  0999 V2000
    4.3881   -6.6982    0.0000 C   0  0  0  0  0  0  0  0  0  0  0  0
    3.0367   -6.0474    0.0000 C   0  0  0  0  0  0  0  0  0  0  0  0
    3.3705   -4.5850    0.0000 C   0  0  0  0  0  0  0  0  0  0  0  0
    3.0367   -3.1226    0.0000 C   0  0  0  0  0  0  0  0  0  0  0  0
    2.1015   -1.9499    0.0000 C   0  0  0  0  0  0  0  0  0  0  0  0
    3.0367   -0.7771    0.0000 C   0  0  0  0  0  0  0  0  0  0  0  0
    2.4887    0.6192    0.0000 O   0  0  0  0  0  0  0  0  0  0  0  0
    4.5199   -1.0007    0.0000 O   0  0  0  0  0  0  0  0  0  0  0  0
    5.4552    0.1721    0.0000 C   0  0  0  0  0  0  0  0  0  0  0  0
    6.9384   -0.0515    0.0000 N   0  0  0  0  0  0  0  0  0  0  0  0
    7.8736    1.1213    0.0000 N   0  0  0  0  0  0  0  0  0  0  0  0
    7.3256    2.5176    0.0000 N   0  0  0  0  0  0  0  0  0  0  0  0
    5.8424    2.7411    0.0000 N   0  0  0  0  0  0  0  0  0  0  0  0
    4.9072    1.5684    0.0000 N   0  0  0  0  0  0  0  0  0  0  0  0
    0.7500   -1.2990    0.0000 C   0  0  0  0  0  0  0  0  0  0  0  0
    1.5000    0.0000    0.0000 C   0  0  0  0  0  0  0  0  0  0  0  0
    0.7500    1.2990    0.0000 C   0  0  0  0  0  0  0  0  0  0  0  0
   -0.7500    1.2990    0.0000 C   0  0  0  0  0  0  0  0  0  0  0  0
   -1.5000    0.0000    0.0000 C   0  0  0  0  0  0  0  0  0  0  0  0
   -0.7500   -1.2990    0.0000 C   0  0  0  0  0  0  0  0  0  0  0  0
   -2.1015   -1.9499    0.0000 C   0  0  0  0  0  0  0  0  0  0  0  0
   -2.6495   -0.5536    0.0000 C   0  0  0  0  0  0  0  0  0  0  0  0
   -4.1327   -0.3300    0.0000 C   0  0  0  0  0  0  0  0  0  0  0  0
   -5.0679   -1.5027    0.0000 C   0  0  0  0  0  0  0  0  0  0  0  0
   -4.5199   -2.8990    0.0000 C   0  0  0  0  0  0  0  0  0  0  0  0
   -3.0367   -3.1226    0.0000 C   0  0  0  0  0  0  0  0  0  0  0  0
   -3.3705   -4.5850    0.0000 C   0  0  0  0  0  0  0  0  0  0  0  0
   -4.8038   -4.1429    0.0000 C   0  0  0  0  0  0  0  0  0  0  0  0
   -5.9034   -5.1631    0.0000 C   0  0  0  0  0  0  0  0  0  0  0  0
   -5.5696   -6.6255    0.0000 C   0  0  0  0  0  0  0  0  0  0  0  0
   -4.1363   -7.0677    0.0000 C   0  0  0  0  0  0  0  0  0  0  0  0
   -3.0367   -6.0474    0.0000 C   0  0  0  0  0  0  0  0  0  0  0  0
   -2.1015   -7.2201    0.0000 C   0  0  0  0  0  0  0  0  0  0  0  0
   -3.3408   -8.0651    0.0000 C   0  0  0  0  0  0  0  0  0  0  0  0
   -3.2287   -9.5609    0.0000 C   0  0  0  0  0  0  0  0  0  0  0  0
   -1.8773  -10.2118    0.0000 C   0  0  0  0  0  0  0  0  0  0  0  0
   -0.6379   -9.3668    0.0000 C   0  0  0  0  0  0  0  0  0  0  0  0
   -0.7500   -7.8710    0.0000 C   0  0  0  0  0  0  0  0  0  0  0  0
    0.7500   -7.8710    0.0000 C   0  0  0  0  0  0  0  0  0  0  0  0
    0.6379   -9.3668    0.0000 C   0  0  0  0  0  0  0  0  0  0  0  0
    1.8773  -10.2118    0.0000 C   0  0  0  0  0  0  0  0  0  0  0  0
    3.2287   -9.5609    0.0000 C   0  0  0  0  0  0  0  0  0  0  0  0
    3.3408   -8.0651    0.0000 C   0  0  0  0  0  0  0  0  0  0  0  0
    2.1015   -7.2201    0.0000 C   0  0  0  0  0  0  0  0  0  0  0  0
  1  2  1  0
  2  3  1  0
  3  4  2  0
  4  5  1  0
  5  6  1  0
  6  7  2  0
  6  8  1  0
  8  9  1  0
  9 10  2  0
 10 11  1  0
 11 12  2  0
 12 13  1  0
 13 14  2  0
  5 15  1  0
 15 16  2  0
 16 17  1  0
 17 18  2  0
 18 19  1  0
 19 20  2  0
 20 21  1  0
 21 22  2  0
 22 23  1  0
 23 24  2  0
 24 25  1  0
 25 26  2  0
 26 27  1  0
 27 28  2  0
 28 29  1  0
 29 30  2  0
 30 31  1  0
 31 32  2  0
 32 33  1  0
 33 34  2  0
 34 35  1  0
 35 36  2  0
 36 37  1  0
 37 38  2  0
 38 39  1  0
 39 40  2  0
 40 41  1  0
 41 42  2  0
 42 43  1  0
 43 44  2  0
 44  2  1  0
 14  9  1  0
 20 15  1  0
 26 21  1  0
 32 27  1  0
 38 33  1  0
 44 39  1  0
M  END
>  <Title>  (1045) 
idABMGgen10

$$$$

     RDKit          2D

  8  8  0  0  0  0  0  0  0  0999 V2000
    4.5000    0.0000    0.0000 C   0  0  0  0  0  0  0  0  0  0  0  0
    3.0000    0.0000    0.0000 C   0  0  0  0  0  0  0  0  0  0  0  0
    1.5000    0.0000    0.0000 C   0  0  0  0  0  0  0  0  0  0  0  0
    0.7500   -1.2990    0.0000 C   0  0  0  0  0  0  0  0  0  0  0  0
   -0.7500   -1.2990    0.0000 C   0  0  0  0  0  0  0  0  0  0  0  0
   -1.5000    0.0000    0.0000 C   0  0  0  0  0  0  0  0  0  0  0  0
   -0.7500    1.2990    0.0000 C   0  0  0  0  0  0  0  0  0  0  0  0
    0.7500    1.2990    0.0000 C   0  0  0  0  0  0  0  0  0  0  0  0
  1  2  3  0
  2  3  1  0
  3  4  1  0
  4  5  2  0
  5  6  1  0
  6  7  2  0
  7  8  1  0
  8  3  1  0
M  END
>  <Title>  (1046) 
idABMHgen10

$$$$

     RDKit          2D

 38 37  0  0  0  0  0  0  0  0999 V2000
    0.0000    0.0000    0.0000 C   0  0  0  0  0  0  0  0  0  0  0  0
   -0.0000   -1.5000    0.0000 C   0  0  0  0  0  0  0  0  0  0  0  0
   -0.0000   -3.0000    0.0000 C   0  0  0  0  0  0  0  0  0  0  0  0
   -0.0000   -4.5000    0.0000 C   0  0  0  0  0  0  0  0  0  0  0  0
   -0.0000   -6.0000    0.0000 C   0  0  0  0  0  0  0  0  0  0  0  0
    1.2990   -6.7500    0.0000 C   0  0  0  0  0  0  0  0  0  0  0  0
    1.2990   -8.2500    0.0000 C   0  0  0  0  0  0  0  0  0  0  0  0
    2.5981   -9.0000    0.0000 C   0  0  0  0  0  0  0  0  0  0  0  0
    2.5981  -10.5000    0.0000 C   0  0  0  0  0  0  0  0  0  0  0  0
    3.8971  -11.2500    0.0000 C   0  0  0  0  0  0  0  0  0  0  0  0
    3.8971  -12.7500    0.0000 C   0  0  0  0  0  0  0  0  0  0  0  0
    5.1962  -13.5000    0.0000 C   0  0  0  0  0  0  0  0  0  0  0  0
    5.1962  -15.0000    0.0000 C   0  0  0  0  0  0  0  0  0  0  0  0
    6.4952  -15.7500    0.0000 C   0  0  0  0  0  0  0  0  0  0  0  0
    6.4952  -17.2500    0.0000 C   0  0  0  0  0  0  0  0  0  0  0  0
    7.7942  -18.0000    0.0000 C   0  0  0  0  0  0  0  0  0  0  0  0
    7.7942  -19.5000    0.0000 C   0  0  0  0  0  0  0  0  0  0  0  0
    9.0933  -20.2500    0.0000 C   0  0  0  0  0  0  0  0  0  0  0  0
    9.0933  -21.7500    0.0000 C   0  0  0  0  0  0  0  0  0  0  0  0
   10.3923  -22.5000    0.0000 C   0  0  0  0  0  0  0  0  0  0  0  0
   10.3923  -24.0000    0.0000 C   0  0  0  0  0  0  0  0  0  0  0  0
   11.6913  -24.7500    0.0000 C   0  0  0  0  0  0  0  0  0  0  0  0
   11.6913  -26.2500    0.0000 C   0  0  0  0  0  0  0  0  0  0  0  0
   12.9904  -27.0000    0.0000 C   0  0  0  0  0  0  0  0  0  0  0  0
   12.9904  -28.5000    0.0000 C   0  0  0  0  0  0  0  0  0  0  0  0
   14.2894  -29.2500    0.0000 C   0  0  0  0  0  0  0  0  0  0  0  0
   14.2894  -30.7500    0.0000 C   0  0  0  0  0  0  0  0  0  0  0  0
   15.5885  -31.5000    0.0000 C   0  0  0  0  0  0  0  0  0  0  0  0
   15.5885  -33.0000    0.0000 C   0  0  0  0  0  0  0  0  0  0  0  0
   16.8875  -33.7500    0.0000 C   0  0  0  0  0  0  0  0  0  0  0  0
   16.8875  -35.2500    0.0000 C   0  0  0  0  0  0  0  0  0  0  0  0
   18.1865  -36.0000    0.0000 C   0  0  0  0  0  0  0  0  0  0  0  0
   18.1865  -37.5000    0.0000 C   0  0  0  0  0  0  0  0  0  0  0  0
   19.4856  -38.2500    0.0000 C   0  0  0  0  0  0  0  0  0  0  0  0
   19.4856  -39.7500    0.0000 C   0  0  0  0  0  0  0  0  0  0  0  0
   20.7846  -40.5000    0.0000 C   0  0  0  0  0  0  0  0  0  0  0  0
   20.7846  -42.0000    0.0000 C   0  0  0  0  0  0  0  0  0  0  0  0
   22.0836  -42.7500    0.0000 C   0  0  0  0  0  0  0  0  0  0  0  0
  1  2  3  0
  2  3  1  0
  3  4  3  0
  4  5  1  0
  5  6  1  0
  6  7  1  0
  7  8  1  0
  8  9  1  0
  9 10  1  0
 10 11  1  0
 11 12  1  0
 12 13  1  0
 13 14  1  0
 14 15  1  0
 15 16  1  0
 16 17  1  0
 17 18  1  0
 18 19  1  0
 19 20  1  0
 20 21  1  0
 21 22  1  0
 22 23  1  0
 23 24  1  0
 24 25  1  0
 25 26  1  0
 26 27  1  0
 27 28  1  0
 28 29  1  0
 29 30  1  0
 30 31  1  0
 31 32  1  0
 32 33  1  0
 33 34  2  3
 34 35  1  0
 35 36  2  3
 36 37  1  0
 37 38  1  0
M  END
>  <Title>  (1047) 
idABMIgen10

$$$$

     RDKit          2D

 88 90  0  0  0  0  0  0  0  0999 V2000
   -5.5960   -0.5681    0.0000 C   0  0  0  0  0  0  0  0  0  0  0  0
   -5.1838   -2.0103    0.0000 C   0  0  0  0  0  0  0  0  0  0  0  0
   -6.6086   -2.4795    0.0000 C   0  0  0  0  0  0  0  0  0  0  0  0
   -7.9915   -3.0604    0.0000 C   0  0  0  0  0  0  0  0  0  0  0  0
   -9.3239   -3.7494    0.0000 C   0  0  0  0  0  0  0  0  0  0  0  0
  -10.5974   -4.5420    0.0000 C   0  0  0  0  0  0  0  0  0  0  0  0
  -11.8039   -5.4333    0.0000 C   0  0  0  0  0  0  0  0  0  0  0  0
  -12.9357   -6.4176    0.0000 C   0  0  0  0  0  0  0  0  0  0  0  0
  -13.9858   -7.4888    0.0000 C   0  0  0  0  0  0  0  0  0  0  0  0
  -14.9474   -8.6400    0.0000 C   0  0  0  0  0  0  0  0  0  0  0  0
  -15.8146   -9.8639    0.0000 C   0  0  0  0  0  0  0  0  0  0  0  0
  -16.5817  -11.1529    0.0000 C   0  0  0  0  0  0  0  0  0  0  0  0
  -17.2440  -12.4988    0.0000 C   0  0  0  0  0  0  0  0  0  0  0  0
  -17.7973  -13.8930    0.0000 C   0  0  0  0  0  0  0  0  0  0  0  0
  -18.2381  -15.3268    0.0000 C   0  0  0  0  0  0  0  0  0  0  0  0
  -18.5636  -16.7911    0.0000 C   0  0  0  0  0  0  0  0  0  0  0  0
  -18.7717  -18.2765    0.0000 C   0  0  0  0  0  0  0  0  0  0  0  0
  -18.8611  -19.7739    0.0000 C   0  0  0  0  0  0  0  0  0  0  0  0
  -18.8313  -21.2736    0.0000 C   0  0  0  0  0  0  0  0  0  0  0  0
  -18.6824  -22.7662    0.0000 C   0  0  0  0  0  0  0  0  0  0  0  0
  -18.4154  -24.2422    0.0000 C   0  0  0  0  0  0  0  0  0  0  0  0
  -18.0320  -25.6924    0.0000 C   0  0  0  0  0  0  0  0  0  0  0  0
  -17.5345  -27.1075    0.0000 C   0  0  0  0  0  0  0  0  0  0  0  0
  -16.9263  -28.4786    0.0000 C   0  0  0  0  0  0  0  0  0  0  0  0
  -16.2110  -29.7971    0.0000 C   0  0  0  0  0  0  0  0  0  0  0  0
  -15.3932  -31.0546    0.0000 C   0  0  0  0  0  0  0  0  0  0  0  0
  -14.4781  -32.2431    0.0000 C   0  0  0  0  0  0  0  0  0  0  0  0
  -13.4714  -33.3551    0.0000 C   0  0  0  0  0  0  0  0  0  0  0  0
  -12.3796  -34.3837    0.0000 C   0  0  0  0  0  0  0  0  0  0  0  0
  -11.2095  -35.3223    0.0000 C   0  0  0  0  0  0  0  0  0  0  0  0
   -9.9685  -36.1649    0.0000 C   0  0  0  0  0  0  0  0  0  0  0  0
   -8.6646  -36.9063    0.0000 C   0  0  0  0  0  0  0  0  0  0  0  0
   -7.3058  -37.5417    0.0000 C   0  0  0  0  0  0  0  0  0  0  0  0
   -5.9009  -38.0672    0.0000 C   0  0  0  0  0  0  0  0  0  0  0  0
   -4.4586  -38.4793    0.0000 C   0  0  0  0  0  0  0  0  0  0  0  0
   -2.9882  -38.7756    0.0000 C   0  0  0  0  0  0  0  0  0  0  0  0
   -1.4988  -38.9542    0.0000 C   0  0  0  0  0  0  0  0  0  0  0  0
    0.0000  -39.0138    0.0000 C   0  0  0  0  0  0  0  0  0  0  0  0
    1.4988  -38.9542    0.0000 C   0  0  0  0  0  0  0  0  0  0  0  0
    2.9882  -38.7756    0.0000 C   0  0  0  0  0  0  0  0  0  0  0  0
    4.4586  -38.4793    0.0000 C   0  0  0  0  0  0  0  0  0  0  0  0
    5.9009  -38.0672    0.0000 C   0  0  0  0  0  0  0  0  0  0  0  0
    7.3058  -37.5417    0.0000 C   0  0  0  0  0  0  0  0  0  0  0  0
    8.6646  -36.9063    0.0000 C   0  0  0  0  0  0  0  0  0  0  0  0
    9.9685  -36.1649    0.0000 C   0  0  0  0  0  0  0  0  0  0  0  0
   11.2095  -35.3223    0.0000 C   0  0  0  0  0  0  0  0  0  0  0  0
   12.3796  -34.3837    0.0000 C   0  0  0  0  0  0  0  0  0  0  0  0
   13.4714  -33.3551    0.0000 C   0  0  0  0  0  0  0  0  0  0  0  0
   14.4781  -32.2431    0.0000 C   0  0  0  0  0  0  0  0  0  0  0  0
   15.3932  -31.0546    0.0000 C   0  0  0  0  0  0  0  0  0  0  0  0
   16.2110  -29.7971    0.0000 C   0  0  0  0  0  0  0  0  0  0  0  0
   16.9263  -28.4786    0.0000 C   0  0  0  0  0  0  0  0  0  0  0  0
   17.5345  -27.1075    0.0000 C   0  0  0  0  0  0  0  0  0  0  0  0
   18.0320  -25.6924    0.0000 C   0  0  0  0  0  0  0  0  0  0  0  0
   18.4154  -24.2422    0.0000 C   0  0  0  0  0  0  0  0  0  0  0  0
   18.6824  -22.7662    0.0000 C   0  0  0  0  0  0  0  0  0  0  0  0
   18.8313  -21.2736    0.0000 C   0  0  0  0  0  0  0  0  0  0  0  0
   18.8611  -19.7739    0.0000 C   0  0  0  0  0  0  0  0  0  0  0  0
   18.7717  -18.2765    0.0000 N   0  0  0  0  0  0  0  0  0  0  0  0
   18.5636  -16.7911    0.0000 C   0  0  0  0  0  0  0  0  0  0  0  0
   18.2381  -15.3268    0.0000 C   0  0  0  0  0  0  0  0  0  0  0  0
   17.7973  -13.8930    0.0000 C   0  0  0  0  0  0  0  0  0  0  0  0
   17.2440  -12.4988    0.0000 C   0  0  0  0  0  0  0  0  0  0  0  0
   16.5817  -11.1529    0.0000 C   0  0  0  0  0  0  0  0  0  0  0  0
   15.8146   -9.8639    0.0000 C   0  0  0  0  0  0  0  0  0  0  0  0
   14.9474   -8.6400    0.0000 C   0  0  0  0  0  0  0  0  0  0  0  0
   13.9858   -7.4888    0.0000 C   0  0  0  0  0  0  0  0  0  0  0  0
   12.9357   -6.4176    0.0000 C   0  0  0  0  0  0  0  0  0  0  0  0
   11.8039   -5.4333    0.0000 C   0  0  0  0  0  0  0  0  0  0  0  0
   10.5974   -4.5420    0.0000 C   0  0  0  0  0  0  0  0  0  0  0  0
    9.3239   -3.7494    0.0000 C   0  0  0  0  0  0  0  0  0  0  0  0
    7.9915   -3.0604    0.0000 C   0  0  0  0  0  0  0  0  0  0  0  0
    6.6086   -2.4795    0.0000 C   0  0  0  0  0  0  0  0  0  0  0  0
    5.1838   -2.0103    0.0000 C   0  0  0  0  0  0  0  0  0  0  0  0
    3.7263   -1.6558    0.0000 C   0  0  0  0  0  0  0  0  0  0  0  0
    2.2453   -1.4182    0.0000 C   0  0  0  0  0  0  0  0  0  0  0  0
    0.7500   -1.2990    0.0000 C   0  0  0  0  0  0  0  0  0  0  0  0
    1.5000    0.0000    0.0000 C   0  0  0  0  0  0  0  0  0  0  0  0
    0.7500    1.2990    0.0000 C   0  0  0  0  0  0  0  0  0  0  0  0
   -0.7500    1.2990    0.0000 C   0  0  0  0  0  0  0  0  0  0  0  0
   -1.5000    0.0000    0.0000 C   0  0  0  0  0  0  0  0  0  0  0  0
   -0.7500   -1.2990    0.0000 C   0  0  0  0  0  0  0  0  0  0  0  0
   -2.2453   -1.4182    0.0000 C   0  0  0  0  0  0  0  0  0  0  0  0
   -1.2990   -2.5821    0.0000 C   0  0  0  0  0  0  0  0  0  0  0  0
   -1.8337   -3.9835    0.0000 C   0  0  0  0  0  0  0  0  0  0  0  0
   -3.3148   -4.2211    0.0000 C   0  0  0  0  0  0  0  0  0  0  0  0
   -4.2611   -3.0572    0.0000 C   0  0  0  0  0  0  0  0  0  0  0  0
   -3.7263   -1.6558    0.0000 C   0  0  0  0  0  0  0  0  0  0  0  0
  1  2  1  0
  2  3  1  0
  3  4  1  0
  4  5  1  0
  5  6  1  0
  6  7  1  0
  7  8  1  0
  8  9  1  0
  9 10  1  0
 10 11  1  0
 11 12  1  0
 12 13  1  0
 13 14  1  0
 14 15  1  0
 15 16  1  0
 16 17  1  0
 17 18  1  0
 18 19  1  0
 19 20  1  0
 20 21  1  0
 21 22  1  0
 22 23  1  0
 23 24  1  0
 24 25  1  0
 25 26  1  0
 26 27  1  0
 27 28  1  0
 28 29  1  0
 29 30  1  0
 30 31  1  0
 31 32  1  0
 32 33  1  0
 33 34  1  0
 34 35  1  0
 35 36  1  0
 36 37  1  0
 37 38  1  0
 38 39  1  0
 39 40  1  0
 40 41  1  0
 41 42  1  0
 42 43  1  0
 43 44  1  0
 44 45  1  0
 45 46  1  0
 46 47  1  0
 47 48  1  0
 48 49  1  0
 49 50  1  0
 50 51  1  0
 51 52  1  0
 52 53  1  0
 53 54  1  0
 54 55  1  0
 55 56  1  0
 56 57  1  0
 57 58  1  0
 58 59  2  0
 59 60  1  0
 60 61  2  0
 61 62  1  0
 62 63  2  0
 63 64  1  0
 64 65  2  0
 65 66  1  0
 66 67  2  0
 67 68  1  0
 68 69  2  0
 69 70  1  0
 70 71  2  0
 71 72  1  0
 72 73  2  0
 73 74  1  0
 74 75  2  0
 75 76  1  0
 76 77  2  0
 77 78  1  0
 78 79  1  0
 79 80  1  0
 80 81  1  0
 81 82  2  0
 82 83  1  0
 83 84  2  0
 84 85  1  0
 85 86  2  0
 86 87  1  0
 87 88  2  0
 88  2  1  0
 82 77  1  0
 88 83  1  0
M  END
>  <Title>  (1048) 
idABMJgen10

$$$$

     RDKit          2D

 64 64  0  0  0  0  0  0  0  0999 V2000
   16.5464    0.0000    0.0000 C   0  0  0  0  0  0  0  0  0  0  0  0
   15.0464    0.0000    0.0000 C   0  0  0  0  0  0  0  0  0  0  0  0
   14.9716    1.4981    0.0000 C   0  0  0  0  0  0  0  0  0  0  0  0
   14.7480    2.9814    0.0000 C   0  0  0  0  0  0  0  0  0  0  0  0
   14.3779    4.4350    0.0000 C   0  0  0  0  0  0  0  0  0  0  0  0
   13.8649    5.8445    0.0000 C   0  0  0  0  0  0  0  0  0  0  0  0
   13.2141    7.1960    0.0000 C   0  0  0  0  0  0  0  0  0  0  0  0
   12.4319    8.4759    0.0000 C   0  0  0  0  0  0  0  0  0  0  0  0
   11.5262    9.6716    0.0000 C   0  0  0  0  0  0  0  0  0  0  0  0
   10.5059   10.7712    0.0000 C   0  0  0  0  0  0  0  0  0  0  0  0
    9.3813   11.7637    0.0000 C   0  0  0  0  0  0  0  0  0  0  0  0
    8.1634   12.6393    0.0000 C   0  0  0  0  0  0  0  0  0  0  0  0
    6.8643   13.3893    0.0000 C   0  0  0  0  0  0  0  0  0  0  0  0
    5.4971   14.0063    0.0000 C   0  0  0  0  0  0  0  0  0  0  0  0
    4.0752   14.4840    0.0000 C   0  0  0  0  0  0  0  0  0  0  0  0
    2.6128   14.8178    0.0000 C   0  0  0  0  0  0  0  0  0  0  0  0
    1.1244   15.0043    0.0000 C   0  0  0  0  0  0  0  0  0  0  0  0
   -0.3751   15.0417    0.0000 C   0  0  0  0  0  0  0  0  0  0  0  0
   -1.8709   14.9296    0.0000 C   0  0  0  0  0  0  0  0  0  0  0  0
   -3.3481   14.6691    0.0000 C   0  0  0  0  0  0  0  0  0  0  0  0
   -4.7921   14.2629    0.0000 C   0  0  0  0  0  0  0  0  0  0  0  0
   -6.1884   13.7149    0.0000 C   0  0  0  0  0  0  0  0  0  0  0  0
   -7.5232   13.0305    0.0000 C   0  0  0  0  0  0  0  0  0  0  0  0
   -8.7832   12.2167    0.0000 C   0  0  0  0  0  0  0  0  0  0  0  0
   -9.9560   11.2815    0.0000 C   0  0  0  0  0  0  0  0  0  0  0  0
  -11.0298   10.2341    0.0000 C   0  0  0  0  0  0  0  0  0  0  0  0
  -11.9940    9.0851    0.0000 C   0  0  0  0  0  0  0  0  0  0  0  0
  -12.8389    7.8457    0.0000 C   0  0  0  0  0  0  0  0  0  0  0  0
  -13.5563    6.5284    0.0000 C   0  0  0  0  0  0  0  0  0  0  0  0
  -14.1390    5.1462    0.0000 C   0  0  0  0  0  0  0  0  0  0  0  0
  -14.5811    3.7128    0.0000 C   0  0  0  0  0  0  0  0  0  0  0  0
  -14.8783    2.2425    0.0000 C   0  0  0  0  0  0  0  0  0  0  0  0
  -15.0277    0.7500    0.0000 C   0  0  0  0  0  0  0  0  0  0  0  0
  -15.0277   -0.7500    0.0000 C   0  0  0  0  0  0  0  0  0  0  0  0
  -14.8783   -2.2425    0.0000 C   0  0  0  0  0  0  0  0  0  0  0  0
  -14.5811   -3.7128    0.0000 C   0  0  0  0  0  0  0  0  0  0  0  0
  -14.1390   -5.1462    0.0000 C   0  0  0  0  0  0  0  0  0  0  0  0
  -13.5563   -6.5284    0.0000 C   0  0  0  0  0  0  0  0  0  0  0  0
  -12.8389   -7.8457    0.0000 C   0  0  0  0  0  0  0  0  0  0  0  0
  -11.9940   -9.0851    0.0000 C   0  0  0  0  0  0  0  0  0  0  0  0
  -11.0298  -10.2341    0.0000 C   0  0  0  0  0  0  0  0  0  0  0  0
   -9.9560  -11.2815    0.0000 C   0  0  0  0  0  0  0  0  0  0  0  0
   -8.7832  -12.2167    0.0000 C   0  0  0  0  0  0  0  0  0  0  0  0
   -7.5232  -13.0305    0.0000 C   0  0  0  0  0  0  0  0  0  0  0  0
   -6.1884  -13.7149    0.0000 C   0  0  0  0  0  0  0  0  0  0  0  0
   -4.7921  -14.2629    0.0000 C   0  0  0  0  0  0  0  0  0  0  0  0
   -3.3481  -14.6691    0.0000 C   0  0  0  0  0  0  0  0  0  0  0  0
   -1.8709  -14.9296    0.0000 C   0  0  0  0  0  0  0  0  0  0  0  0
   -0.3751  -15.0417    0.0000 C   0  0  0  0  0  0  0  0  0  0  0  0
    1.1244  -15.0043    0.0000 C   0  0  0  0  0  0  0  0  0  0  0  0
    2.6128  -14.8178    0.0000 C   0  0  0  0  0  0  0  0  0  0  0  0
    4.0752  -14.4840    0.0000 C   0  0  0  0  0  0  0  0  0  0  0  0
    5.4971  -14.0063    0.0000 C   0  0  0  0  0  0  0  0  0  0  0  0
    6.8643  -13.3893    0.0000 C   0  0  0  0  0  0  0  0  0  0  0  0
    8.1634  -12.6393    0.0000 C   0  0  0  0  0  0  0  0  0  0  0  0
    9.3813  -11.7637    0.0000 C   0  0  0  0  0  0  0  0  0  0  0  0
   10.5059  -10.7712    0.0000 C   0  0  0  0  0  0  0  0  0  0  0  0
   11.5262   -9.6716    0.0000 C   0  0  0  0  0  0  0  0  0  0  0  0
   12.4319   -8.4759    0.0000 C   0  0  0  0  0  0  0  0  0  0  0  0
   13.2141   -7.1960    0.0000 C   0  0  0  0  0  0  0  0  0  0  0  0
   13.8649   -5.8445    0.0000 C   0  0  0  0  0  0  0  0  0  0  0  0
   14.3779   -4.4350    0.0000 C   0  0  0  0  0  0  0  0  0  0  0  0
   14.7480   -2.9814    0.0000 C   0  0  0  0  0  0  0  0  0  0  0  0
   14.9716   -1.4981    0.0000 C   0  0  0  0  0  0  0  0  0  0  0  0
  1  2  1  0
  2  3  1  0
  3  4  1  0
  4  5  1  0
  5  6  1  0
  6  7  1  0
  7  8  1  0
  8  9  1  0
  9 10  1  0
 10 11  1  0
 11 12  1  0
 12 13  1  0
 13 14  1  0
 14 15  1  0
 15 16  1  0
 16 17  1  0
 17 18  1  0
 18 19  1  0
 19 20  1  0
 20 21  1  0
 21 22  1  0
 22 23  1  0
 23 24  1  0
 24 25  1  0
 25 26  1  0
 26 27  1  0
 27 28  1  0
 28 29  1  0
 29 30  1  0
 30 31  1  0
 31 32  1  0
 32 33  1  0
 33 34  1  0
 34 35  1  0
 35 36  1  0
 36 37  1  0
 37 38  1  0
 38 39  1  0
 39 40  1  0
 40 41  1  0
 41 42  1  0
 42 43  1  0
 43 44  1  0
 44 45  1  0
 45 46  1  0
 46 47  1  0
 47 48  1  0
 48 49  1  0
 49 50  1  0
 50 51  1  0
 51 52  1  0
 52 53  1  0
 53 54  1  0
 54 55  1  0
 55 56  1  0
 56 57  1  0
 57 58  1  0
 58 59  1  0
 59 60  1  0
 60 61  1  0
 61 62  1  0
 62 63  1  0
 63 64  1  0
 64  2  1  0
M  END
>  <Title>  (1049) 
idABMKgen10

$$$$

     RDKit          2D

 10 10  0  0  0  0  0  0  0  0999 V2000
    5.5607   -2.5981    0.0000 C   0  0  0  0  0  0  0  0  0  0  0  0
    4.8107   -1.2990    0.0000 C   0  0  0  0  0  0  0  0  0  0  0  0
    3.3107   -1.2990    0.0000 C   0  0  0  0  0  0  0  0  0  0  0  0
    2.5607   -2.5981    0.0000 O   0  0  0  0  0  0  0  0  0  0  0  0
    2.5607    0.0000    0.0000 N   0  0  0  0  0  0  0  0  0  0  0  0
    1.0607    0.0000    0.0000 C   0  0  0  0  0  0  0  0  0  0  0  0
   -0.0000   -1.0607    0.0000 C   0  0  0  0  0  0  0  0  0  0  0  0
   -0.0000   -2.5607    0.0000 C   0  0  0  0  0  0  0  0  0  0  0  0
   -1.0607    0.0000    0.0000 C   0  0  0  0  0  0  0  0  0  0  0  0
    0.0000    1.0607    0.0000 C   0  0  0  0  0  0  0  0  0  0  0  0
  1  2  2  0
  2  3  1  0
  3  4  2  0
  3  5  1  0
  5  6  1  0
  6  7  2  0
  7  8  1  0
  7  9  1  0
  9 10  2  0
 10  6  1  0
M  END
>  <Title>  (1050) 
idABMLgen10

$$$$

     RDKit          2D

 13 13  0  0  0  0  0  0  0  0999 V2000
   12.5260   -1.2990    0.0000 C   0  0  0  0  0  0  0  0  0  0  0  0
   11.7760   -0.0000    0.0000 C   0  0  0  0  0  0  0  0  0  0  0  0
   10.2760   -0.0000    0.0000 C   0  0  0  0  0  0  0  0  0  0  0  0
    8.7760   -0.0000    0.0000 C   0  0  0  0  0  0  0  0  0  0  0  0
    7.2760   -0.0000    0.0000 C   0  0  0  0  0  0  0  0  0  0  0  0
    5.7760   -0.0000    0.0000 C   0  0  0  0  0  0  0  0  0  0  0  0
    4.2760   -0.0000    0.0000 C   0  0  0  0  0  0  0  0  0  0  0  0
    2.7760    0.0000    0.0000 C   0  0  0  0  0  0  0  0  0  0  0  0
    1.2760    0.0000    0.0000 C   0  0  0  0  0  0  0  0  0  0  0  0
    0.3943    1.2135    0.0000 C   0  0  0  0  0  0  0  0  0  0  0  0
   -1.0323    0.7500    0.0000 C   0  0  0  0  0  0  0  0  0  0  0  0
   -1.0323   -0.7500    0.0000 C   0  0  0  0  0  0  0  0  0  0  0  0
    0.3943   -1.2135    0.0000 C   0  0  0  0  0  0  0  0  0  0  0  0
  1  2  2  0
  2  3  1  0
  3  4  3  0
  4  5  1  0
  5  6  3  0
  6  7  1  0
  7  8  3  0
  8  9  1  0
  9 10  2  0
 10 11  1  0
 11 12  1  0
 12 13  2  0
 13  9  1  0
M  END
>  <Title>  (1051) 
idABMMgen10

$$$$

     RDKit          2D

 13 13  0  0  0  0  0  0  0  0999 V2000
    8.2500   -6.4952    0.0000 C   0  0  0  0  0  0  0  0  0  0  0  0
    7.5000   -5.1962    0.0000 C   0  0  0  0  0  0  0  0  0  0  0  0
    6.7500   -3.8971    0.0000 C   0  0  0  0  0  0  0  0  0  0  0  0
    6.0000   -2.5981    0.0000 C   0  0  0  0  0  0  0  0  0  0  0  0
    5.2500   -1.2990    0.0000 C   0  0  0  0  0  0  0  0  0  0  0  0
    3.7500   -1.2990    0.0000 N   0  0  0  0  0  0  0  0  0  0  0  0
    3.0000    0.0000    0.0000 C   0  0  0  0  0  0  0  0  0  0  0  0
    1.5000    0.0000    0.0000 C   0  0  0  0  0  0  0  0  0  0  0  0
    0.7500   -1.2990    0.0000 C   0  0  0  0  0  0  0  0  0  0  0  0
   -0.7500   -1.2990    0.0000 C   0  0  0  0  0  0  0  0  0  0  0  0
   -1.5000    0.0000    0.0000 C   0  0  0  0  0  0  0  0  0  0  0  0
   -0.7500    1.2990    0.0000 C   0  0  0  0  0  0  0  0  0  0  0  0
    0.7500    1.2990    0.0000 C   0  0  0  0  0  0  0  0  0  0  0  0
  1  2  3  0
  2  3  1  0
  3  4  3  0
  4  5  1  0
  5  6  1  0
  6  7  1  0
  7  8  1  0
  8  9  2  0
  9 10  1  0
 10 11  2  0
 11 12  1  0
 12 13  2  0
 13  8  1  0
M  END
>  <Title>  (1052) 
idABMNgen10

$$$$

     RDKit          2D

 11 11  0  0  0  0  0  0  0  0999 V2000
    6.5260   -1.2990    0.0000 C   0  0  0  0  0  0  0  0  0  0  0  0
    5.0260   -1.2990    0.0000 C   0  0  0  0  0  0  0  0  0  0  0  0
    3.5260   -1.2990    0.0000 C   0  0  0  0  0  0  0  0  0  0  0  0
    2.7760   -2.5981    0.0000 O   0  0  0  0  0  0  0  0  0  0  0  0
    2.7760    0.0000    0.0000 N   0  0  0  0  0  0  0  0  0  0  0  0
    1.2760    0.0000    0.0000 C   0  0  0  0  0  0  0  0  0  0  0  0
    0.3943    1.2135    0.0000 C   0  0  0  0  0  0  0  0  0  0  0  0
   -1.0323    0.7500    0.0000 C   0  0  0  0  0  0  0  0  0  0  0  0
   -1.0323   -0.7500    0.0000 C   0  0  0  0  0  0  0  0  0  0  0  0
   -2.2458   -1.6317    0.0000 C   0  0  0  0  0  0  0  0  0  0  0  0
    0.3943   -1.2135    0.0000 C   0  0  0  0  0  0  0  0  0  0  0  0
  1  2  3  0
  2  3  1  0
  3  4  2  0
  3  5  1  0
  5  6  1  0
  6  7  2  0
  7  8  1  0
  8  9  2  0
  9 10  1  0
  9 11  1  0
 11  6  1  0
M  END
>  <Title>  (1053) 
idABMOgen10

$$$$

     RDKit          2D

 10 10  0  0  0  0  0  0  0  0999 V2000
    5.0260   -1.2990    0.0000 C   0  0  0  0  0  0  0  0  0  0  0  0
    3.5260   -1.2990    0.0000 C   0  0  0  0  0  0  0  0  0  0  0  0
    2.7760   -2.5981    0.0000 O   0  0  0  0  0  0  0  0  0  0  0  0
    2.7760    0.0000    0.0000 N   0  0  0  0  0  0  0  0  0  0  0  0
    1.2760    0.0000    0.0000 C   0  0  0  0  0  0  0  0  0  0  0  0
    0.3943    1.2135    0.0000 C   0  0  0  0  0  0  0  0  0  0  0  0
   -1.0323    0.7500    0.0000 C   0  0  0  0  0  0  0  0  0  0  0  0
   -1.0323   -0.7500    0.0000 C   0  0  0  0  0  0  0  0  0  0  0  0
   -2.2458   -1.6317    0.0000 C   0  0  0  0  0  0  0  0  0  0  0  0
    0.3943   -1.2135    0.0000 C   0  0  0  0  0  0  0  0  0  0  0  0
  1  2  1  0
  2  3  2  0
  2  4  1  0
  4  5  1  0
  5  6  2  0
  6  7  1  0
  7  8  2  0
  8  9  1  0
  8 10  1  0
 10  5  1  0
M  END
>  <Title>  (1054) 
idABMPgen10

$$$$

     RDKit          2D

 23 25  0  0  0  0  0  0  0  0999 V2000
   -9.3393   -5.8770    0.0000 C   0  0  0  0  0  0  0  0  0  0  0  0
   -8.2786   -4.8163    0.0000 C   0  0  0  0  0  0  0  0  0  0  0  0
   -8.6669   -3.3674    0.0000 C   0  0  0  0  0  0  0  0  0  0  0  0
   -6.8298   -5.2046    0.0000 C   0  0  0  0  0  0  0  0  0  0  0  0
   -5.7691   -4.1439    0.0000 C   0  0  0  0  0  0  0  0  0  0  0  0
   -4.3202   -4.5321    0.0000 C   0  0  0  0  0  0  0  0  0  0  0  0
   -3.2595   -3.4715    0.0000 N   0  0  0  0  0  0  0  0  0  0  0  0
   -1.8107   -3.8597    0.0000 C   0  0  0  0  0  0  0  0  0  0  0  0
   -1.4224   -5.3086    0.0000 O   0  0  0  0  0  0  0  0  0  0  0  0
   -0.7500   -2.7990    0.0000 C   0  0  0  0  0  0  0  0  0  0  0  0
    0.7500   -2.7990    0.0000 C   0  0  0  0  0  0  0  0  0  0  0  0
    0.7500   -1.2990    0.0000 C   0  0  0  0  0  0  0  0  0  0  0  0
    1.5000    0.0000    0.0000 C   0  0  0  0  0  0  0  0  0  0  0  0
    0.7500    1.2990    0.0000 C   0  0  0  0  0  0  0  0  0  0  0  0
   -0.7500    1.2990    0.0000 C   0  0  0  0  0  0  0  0  0  0  0  0
   -1.5000    0.0000    0.0000 C   0  0  0  0  0  0  0  0  0  0  0  0
   -0.7500   -1.2990    0.0000 C   0  0  0  0  0  0  0  0  0  0  0  0
   -3.9320   -5.9810    0.0000 C   0  0  0  0  0  0  0  0  0  0  0  0
   -4.9926   -7.0417    0.0000 C   0  0  0  0  0  0  0  0  0  0  0  0
   -4.6044   -8.4906    0.0000 C   0  0  0  0  0  0  0  0  0  0  0  0
   -3.1555   -8.8788    0.0000 C   0  0  0  0  0  0  0  0  0  0  0  0
   -2.0949   -7.8181    0.0000 C   0  0  0  0  0  0  0  0  0  0  0  0
   -2.4831   -6.3692    0.0000 C   0  0  0  0  0  0  0  0  0  0  0  0
  1  2  1  0
  2  3  1  0
  2  4  1  0
  4  5  1  0
  5  6  1  0
  6  7  1  0
  7  8  1  0
  8  9  2  0
  8 10  1  0
 10 11  1  0
 11 12  1  0
 12 13  2  0
 13 14  1  0
 14 15  2  0
 15 16  1  0
 16 17  2  0
  6 18  1  0
 18 19  2  0
 19 20  1  0
 20 21  2  0
 21 22  1  0
 22 23  2  0
 17 10  1  0
 23 18  1  0
 17 12  1  0
M  END
>  <Title>  (1055) 
idABMQgen10

$$$$

     RDKit          2D

 13 14  0  0  0  0  0  0  0  0999 V2000
    7.3345    4.0168    0.0000 N   0  0  0  0  0  0  0  0  0  0  0  0
    5.8672    3.7049    0.0000 C   0  0  0  0  0  0  0  0  0  0  0  0
    4.4000    3.3930    0.0000 C   0  0  0  0  0  0  0  0  0  0  0  0
    3.5831    2.1350    0.0000 C   0  0  0  0  0  0  0  0  0  0  0  0
    2.3250    2.9520    0.0000 C   0  0  0  0  0  0  0  0  0  0  0  0
    0.8578    2.6401    0.0000 C   0  0  0  0  0  0  0  0  0  0  0  0
   -0.1459    3.7548    0.0000 O   0  0  0  0  0  0  0  0  0  0  0  0
    0.3943    1.2135    0.0000 N   0  0  0  0  0  0  0  0  0  0  0  0
    1.2760    0.0000    0.0000 C   0  0  0  0  0  0  0  0  0  0  0  0
    0.3943   -1.2135    0.0000 C   0  0  0  0  0  0  0  0  0  0  0  0
   -1.0323   -0.7500    0.0000 C   0  0  0  0  0  0  0  0  0  0  0  0
   -1.0323    0.7500    0.0000 C   0  0  0  0  0  0  0  0  0  0  0  0
    3.1420    4.2100    0.0000 C   0  0  0  0  0  0  0  0  0  0  0  0
  1  2  3  0
  2  3  1  0
  3  4  2  0
  4  5  1  0
  5  6  1  0
  6  7  2  0
  6  8  1  0
  8  9  1  0
  9 10  2  0
 10 11  1  0
 11 12  1  0
  5 13  2  0
 13  3  1  0
 12  8  1  0
M  END
>  <Title>  (1056) 
idABMRgen10

$$$$

     RDKit          2D

 10 10  0  0  0  0  0  0  0  0999 V2000
    3.2286   -0.0000    0.0000 C   0  0  0  0  0  0  0  0  0  0  0  0
    1.7286    0.0000    0.0000 C   0  0  0  0  0  0  0  0  0  0  0  0
    1.0777    1.3515    0.0000 C   0  0  0  0  0  0  0  0  0  0  0  0
   -0.3846    1.6852    0.0000 C   0  0  0  0  0  0  0  0  0  0  0  0
   -1.5574    0.7500    0.0000 C   0  0  0  0  0  0  0  0  0  0  0  0
   -1.5574   -0.7500    0.0000 C   0  0  0  0  0  0  0  0  0  0  0  0
   -2.9088   -1.4008    0.0000 C   0  0  0  0  0  0  0  0  0  0  0  0
   -4.2603   -2.0517    0.0000 N   0  0  0  0  0  0  0  0  0  0  0  0
   -0.3846   -1.6852    0.0000 C   0  0  0  0  0  0  0  0  0  0  0  0
    1.0777   -1.3515    0.0000 C   0  0  0  0  0  0  0  0  0  0  0  0
  1  2  1  0
  2  3  2  0
  3  4  1  0
  4  5  1  0
  5  6  2  0
  6  7  1  0
  7  8  3  0
  6  9  1  0
  9 10  2  0
 10  2  1  0
M  END
>  <Title>  (1057) 
idABMSgen10

$$$$

     RDKit          2D

  7  7  0  0  0  0  0  0  0  0999 V2000
    3.5260   -1.2990    0.0000 C   0  0  0  0  0  0  0  0  0  0  0  0
    2.7760    0.0000    0.0000 C   0  0  0  0  0  0  0  0  0  0  0  0
    1.2760    0.0000    0.0000 C   0  0  0  0  0  0  0  0  0  0  0  0
    0.3943    1.2135    0.0000 C   0  0  0  0  0  0  0  0  0  0  0  0
   -1.0323    0.7500    0.0000 C   0  0  0  0  0  0  0  0  0  0  0  0
   -1.0323   -0.7500    0.0000 C   0  0  0  0  0  0  0  0  0  0  0  0
    0.3943   -1.2135    0.0000 C   0  0  0  0  0  0  0  0  0  0  0  0
  1  2  2  0
  2  3  1  0
  3  4  2  0
  4  5  1  0
  5  6  1  0
  6  7  2  0
  7  3  1  0
M  END
>  <Title>  (1058) 
idABMTgen10

$$$$

     RDKit          2D

  8  8  0  0  0  0  0  0  0  0999 V2000
    3.0000    0.0000    0.0000 C   0  0  0  0  0  0  0  0  0  0  0  0
    1.5000    0.0000    0.0000 C   0  0  0  0  0  0  0  0  0  0  0  0
    0.7500   -1.2990    0.0000 N   0  0  0  0  0  0  0  0  0  0  0  0
   -0.7500   -1.2990    0.0000 C   0  0  0  0  0  0  0  0  0  0  0  0
   -1.5000    0.0000    0.0000 C   0  0  0  0  0  0  0  0  0  0  0  0
   -0.7500    1.2990    0.0000 N   0  0  0  0  0  0  0  0  0  0  0  0
    0.7500    1.2990    0.0000 C   0  0  0  0  0  0  0  0  0  0  0  0
    1.5000    2.5981    0.0000 C   0  0  0  0  0  0  0  0  0  0  0  0
  1  2  1  0
  2  3  1  0
  3  4  2  0
  4  5  1  0
  5  6  1  0
  6  7  1  0
  7  8  1  0
  7  2  1  0
M  END
>  <Title>  (1059) 
idABMUgen10

$$$$

     RDKit          2D

 42 47  0  0  0  0  0  0  0  0999 V2000
    6.2363   -3.1314    0.0000 C   0  0  0  0  0  0  0  0  0  0  0  0
    6.0683   -4.6219    0.0000 C   0  0  0  0  0  0  0  0  0  0  0  0
    7.2752   -5.5127    0.0000 O   0  0  0  0  0  0  0  0  0  0  0  0
    4.6935   -5.2218    0.0000 N   0  0  0  0  0  0  0  0  0  0  0  0
    4.5255   -6.7124    0.0000 C   0  0  0  0  0  0  0  0  0  0  0  0
    5.7956   -7.5104    0.0000 C   0  0  0  0  0  0  0  0  0  0  0  0
    5.9636   -9.0010    0.0000 C   0  0  0  0  0  0  0  0  0  0  0  0
    4.9029  -10.0616    0.0000 C   0  0  0  0  0  0  0  0  0  0  0  0
    5.3983  -11.4775    0.0000 C   0  0  0  0  0  0  0  0  0  0  0  0
    3.4123   -9.8937    0.0000 C   0  0  0  0  0  0  0  0  0  0  0  0
    2.6143  -11.1638    0.0000 O   0  0  0  0  0  0  0  0  0  0  0  0
    2.6143   -8.6236    0.0000 C   0  0  0  0  0  0  0  0  0  0  0  0
    1.6122   -9.3106    0.0000 O   0  0  0  0  0  0  0  0  0  0  0  0
    3.1097   -7.2078    0.0000 N   0  0  0  0  0  0  0  0  0  0  0  0
    2.0490   -6.1471    0.0000 C   0  0  0  0  0  0  0  0  0  0  0  0
    2.7990   -4.8481    0.0000 N   0  0  0  0  0  0  0  0  0  0  0  0
    2.7990   -3.3481    0.0000 N   0  0  0  0  0  0  0  0  0  0  0  0
    2.0490   -2.0490    0.0000 N   0  0  0  0  0  0  0  0  0  0  0  0
    0.7500   -1.2990    0.0000 N   0  0  0  0  0  0  0  0  0  0  0  0
    1.5000    0.0000    0.0000 C   0  0  0  0  0  0  0  0  0  0  0  0
    0.7500    1.2990    0.0000 C   0  0  0  0  0  0  0  0  0  0  0  0
   -0.7500    1.2990    0.0000 C   0  0  0  0  0  0  0  0  0  0  0  0
   -1.5000    0.0000    0.0000 C   0  0  0  0  0  0  0  0  0  0  0  0
   -0.7500   -1.2990    0.0000 C   0  0  0  0  0  0  0  0  0  0  0  0
   -2.0490   -2.0490    0.0000 C   0  0  0  0  0  0  0  0  0  0  0  0
   -2.7990   -0.7500    0.0000 C   0  0  0  0  0  0  0  0  0  0  0  0
   -4.2990   -0.7500    0.0000 C   0  0  0  0  0  0  0  0  0  0  0  0
   -5.0490   -2.0490    0.0000 C   0  0  0  0  0  0  0  0  0  0  0  0
   -4.2990   -3.3481    0.0000 C   0  0  0  0  0  0  0  0  0  0  0  0
   -2.7990   -3.3481    0.0000 C   0  0  0  0  0  0  0  0  0  0  0  0
   -2.7990   -4.8481    0.0000 C   0  0  0  0  0  0  0  0  0  0  0  0
   -4.2990   -4.8481    0.0000 C   0  0  0  0  0  0  0  0  0  0  0  0
   -5.0490   -6.1471    0.0000 C   0  0  0  0  0  0  0  0  0  0  0  0
   -4.2990   -7.4462    0.0000 C   0  0  0  0  0  0  0  0  0  0  0  0
   -2.7990   -7.4462    0.0000 C   0  0  0  0  0  0  0  0  0  0  0  0
   -2.0490   -6.1471    0.0000 C   0  0  0  0  0  0  0  0  0  0  0  0
   -0.7500   -6.8971    0.0000 C   0  0  0  0  0  0  0  0  0  0  0  0
   -1.5000   -8.1962    0.0000 C   0  0  0  0  0  0  0  0  0  0  0  0
   -0.7500   -9.4952    0.0000 C   0  0  0  0  0  0  0  0  0  0  0  0
    0.7500   -9.4952    0.0000 C   0  0  0  0  0  0  0  0  0  0  0  0
    1.5000   -8.1962    0.0000 C   0  0  0  0  0  0  0  0  0  0  0  0
    0.7500   -6.8971    0.0000 C   0  0  0  0  0  0  0  0  0  0  0  0
  1  2  1  0
  2  3  2  0
  2  4  1  0
  4  5  1  0
  5  6  2  0
  6  7  1  0
  7  8  2  0
  8  9  1  0
  8 10  1  0
 10 11  2  0
 10 12  1  0
 12 13  2  0
 12 14  1  0
 14 15  1  0
 15 16  2  0
 16 17  1  0
 17 18  2  0
 18 19  1  0
 19 20  1  0
 20 21  1  0
 21 22  2  0
 22 23  1  0
 23 24  2  0
 24 25  1  0
 25 26  2  0
 26 27  1  0
 27 28  2  0
 28 29  1  0
 29 30  2  0
 30 31  1  0
 31 32  2  0
 32 33  1  0
 33 34  2  0
 34 35  1  0
 35 36  2  0
 36 37  1  0
 37 38  2  0
 38 39  1  0
 39 40  2  0
 40 41  1  0
 41 42  2  0
 14  5  1  0
 42 15  1  0
 24 19  1  0
 30 25  1  0
 36 31  1  0
 42 37  1  0
M  END
>  <Title>  (1060) 
idABMVgen10

$$$$

     RDKit          2D

 62 71  0  0  0  0  0  0  0  0999 V2000
    6.2168   -5.0497    0.0000 C   0  0  0  0  0  0  0  0  0  0  0  0
    4.7353   -5.2844    0.0000 C   0  0  0  0  0  0  0  0  0  0  0  0
    4.2718   -3.8578    0.0000 C   0  0  0  0  0  0  0  0  0  0  0  0
    3.3901   -2.6442    0.0000 C   0  0  0  0  0  0  0  0  0  0  0  0
    2.1766   -1.7626    0.0000 C   0  0  0  0  0  0  0  0  0  0  0  0
    2.8576   -0.4261    0.0000 C   0  0  0  0  0  0  0  0  0  0  0  0
    2.0406    0.8320    0.0000 O   0  0  0  0  0  0  0  0  0  0  0  0
    4.3555   -0.3475    0.0000 O   0  0  0  0  0  0  0  0  0  0  0  0
    5.0365    0.9890    0.0000 C   0  0  0  0  0  0  0  0  0  0  0  0
    6.5344    1.0675    0.0000 N   0  0  0  0  0  0  0  0  0  0  0  0
    7.2154    2.4040    0.0000 N   0  0  0  0  0  0  0  0  0  0  0  0
    6.3985    3.6620    0.0000 N   0  0  0  0  0  0  0  0  0  0  0  0
    4.9005    3.5835    0.0000 N   0  0  0  0  0  0  0  0  0  0  0  0
    4.2195    2.2470    0.0000 N   0  0  0  0  0  0  0  0  0  0  0  0
    0.7500   -1.2990    0.0000 C   0  0  0  0  0  0  0  0  0  0  0  0
    1.5000    0.0000    0.0000 C   0  0  0  0  0  0  0  0  0  0  0  0
    0.7500    1.2990    0.0000 C   0  0  0  0  0  0  0  0  0  0  0  0
   -0.7500    1.2990    0.0000 C   0  0  0  0  0  0  0  0  0  0  0  0
   -1.5000    0.0000    0.0000 C   0  0  0  0  0  0  0  0  0  0  0  0
   -0.7500   -1.2990    0.0000 C   0  0  0  0  0  0  0  0  0  0  0  0
   -2.1766   -1.7626    0.0000 C   0  0  0  0  0  0  0  0  0  0  0  0
   -2.3334   -0.2708    0.0000 C   0  0  0  0  0  0  0  0  0  0  0  0
   -3.7037    0.3393    0.0000 C   0  0  0  0  0  0  0  0  0  0  0  0
   -4.9172   -0.5424    0.0000 C   0  0  0  0  0  0  0  0  0  0  0  0
   -4.7604   -2.0341    0.0000 C   0  0  0  0  0  0  0  0  0  0  0  0
   -3.3901   -2.6442    0.0000 C   0  0  0  0  0  0  0  0  0  0  0  0
   -4.2718   -3.8578    0.0000 C   0  0  0  0  0  0  0  0  0  0  0  0
   -5.2755   -2.7430    0.0000 C   0  0  0  0  0  0  0  0  0  0  0  0
   -6.7427   -3.0549    0.0000 C   0  0  0  0  0  0  0  0  0  0  0  0
   -7.2062   -4.4815    0.0000 C   0  0  0  0  0  0  0  0  0  0  0  0
   -6.2025   -5.5962    0.0000 C   0  0  0  0  0  0  0  0  0  0  0  0
   -4.7353   -5.2844    0.0000 C   0  0  0  0  0  0  0  0  0  0  0  0
   -4.7353   -6.7844    0.0000 C   0  0  0  0  0  0  0  0  0  0  0  0
   -6.2025   -6.4725    0.0000 C   0  0  0  0  0  0  0  0  0  0  0  0
   -7.2062   -7.5872    0.0000 C   0  0  0  0  0  0  0  0  0  0  0  0
   -6.7427   -9.0138    0.0000 C   0  0  0  0  0  0  0  0  0  0  0  0
   -5.2755   -9.3257    0.0000 C   0  0  0  0  0  0  0  0  0  0  0  0
   -4.2718   -8.2109    0.0000 C   0  0  0  0  0  0  0  0  0  0  0  0
   -3.3901   -9.4245    0.0000 C   0  0  0  0  0  0  0  0  0  0  0  0
   -4.7604  -10.0346    0.0000 C   0  0  0  0  0  0  0  0  0  0  0  0
   -4.9172  -11.5263    0.0000 C   0  0  0  0  0  0  0  0  0  0  0  0
   -3.7037  -12.4080    0.0000 C   0  0  0  0  0  0  0  0  0  0  0  0
   -2.3334  -11.7979    0.0000 C   0  0  0  0  0  0  0  0  0  0  0  0
   -2.1766  -10.3061    0.0000 C   0  0  0  0  0  0  0  0  0  0  0  0
   -0.7500  -10.7697    0.0000 C   0  0  0  0  0  0  0  0  0  0  0  0
   -1.5000  -12.0687    0.0000 C   0  0  0  0  0  0  0  0  0  0  0  0
   -0.7500  -13.3677    0.0000 C   0  0  0  0  0  0  0  0  0  0  0  0
    0.7500  -13.3677    0.0000 C   0  0  0  0  0  0  0  0  0  0  0  0
    1.5000  -12.0687    0.0000 C   0  0  0  0  0  0  0  0  0  0  0  0
    0.7500  -10.7697    0.0000 C   0  0  0  0  0  0  0  0  0  0  0  0
    2.1766  -10.3061    0.0000 C   0  0  0  0  0  0  0  0  0  0  0  0
    2.3334  -11.7979    0.0000 C   0  0  0  0  0  0  0  0  0  0  0  0
    3.7037  -12.4080    0.0000 C   0  0  0  0  0  0  0  0  0  0  0  0
    4.9172  -11.5263    0.0000 C   0  0  0  0  0  0  0  0  0  0  0  0
    4.7604  -10.0346    0.0000 C   0  0  0  0  0  0  0  0  0  0  0  0
    3.3901   -9.4245    0.0000 C   0  0  0  0  0  0  0  0  0  0  0  0
    4.2718   -8.2109    0.0000 C   0  0  0  0  0  0  0  0  0  0  0  0
    5.2755   -9.3257    0.0000 C   0  0  0  0  0  0  0  0  0  0  0  0
    6.7427   -9.0138    0.0000 C   0  0  0  0  0  0  0  0  0  0  0  0
    7.2062   -7.5872    0.0000 C   0  0  0  0  0  0  0  0  0  0  0  0
    6.2025   -6.4725    0.0000 C   0  0  0  0  0  0  0  0  0  0  0  0
    4.7353   -6.7844    0.0000 C   0  0  0  0  0  0  0  0  0  0  0  0
  1  2  1  0
  2  3  1  0
  3  4  2  0
  4  5  1  0
  5  6  1  0
  6  7  2  0
  6  8  1  0
  8  9  1  0
  9 10  2  0
 10 11  1  0
 11 12  2  0
 12 13  1  0
 13 14  2  0
  5 15  1  0
 15 16  2  0
 16 17  1  0
 17 18  2  0
 18 19  1  0
 19 20  2  0
 20 21  1  0
 21 22  2  0
 22 23  1  0
 23 24  2  0
 24 25  1  0
 25 26  2  0
 26 27  1  0
 27 28  2  0
 28 29  1  0
 29 30  2  0
 30 31  1  0
 31 32  2  0
 32 33  1  0
 33 34  2  0
 34 35  1  0
 35 36  2  0
 36 37  1  0
 37 38  2  0
 38 39  1  0
 39 40  2  0
 40 41  1  0
 41 42  2  0
 42 43  1  0
 43 44  2  0
 44 45  1  0
 45 46  2  0
 46 47  1  0
 47 48  2  0
 48 49  1  0
 49 50  2  0
 50 51  1  0
 51 52  2  0
 52 53  1  0
 53 54  2  0
 54 55  1  0
 55 56  2  0
 56 57  1  0
 57 58  2  0
 58 59  1  0
 59 60  2  0
 60 61  1  0
 61 62  2  0
 62  2  1  0
 14  9  1  0
 20 15  1  0
 26 21  1  0
 32 27  1  0
 38 33  1  0
 44 39  1  0
 50 45  1  0
 56 51  1  0
 62 57  1  0
M  END
>  <Title>  (1061) 
idABMWgen10

$$$$

     RDKit          2D

 22 23  0  0  0  0  0  0  0  0999 V2000
   13.5000    0.0000    0.0000 C   0  0  0  0  0  0  0  0  0  0  0  0
   12.0000    0.0000    0.0000 C   0  0  0  0  0  0  0  0  0  0  0  0
   10.5000    0.0000    0.0000 C   0  0  0  0  0  0  0  0  0  0  0  0
    9.0000    0.0000    0.0000 C   0  0  0  0  0  0  0  0  0  0  0  0
    7.5000    0.0000    0.0000 C   0  0  0  0  0  0  0  0  0  0  0  0
    6.0000    0.0000    0.0000 C   0  0  0  0  0  0  0  0  0  0  0  0
    4.5000    0.0000    0.0000 C   0  0  0  0  0  0  0  0  0  0  0  0
    3.0000    0.0000    0.0000 C   0  0  0  0  0  0  0  0  0  0  0  0
    1.5000    0.0000    0.0000 C   0  0  0  0  0  0  0  0  0  0  0  0
    0.7500   -1.2990    0.0000 C   0  0  0  0  0  0  0  0  0  0  0  0
   -0.7500   -1.2990    0.0000 C   0  0  0  0  0  0  0  0  0  0  0  0
   -1.5000    0.0000    0.0000 C   0  0  0  0  0  0  0  0  0  0  0  0
   -0.7500    1.2990    0.0000 C   0  0  0  0  0  0  0  0  0  0  0  0
    0.7500    1.2990    0.0000 C   0  0  0  0  0  0  0  0  0  0  0  0
    1.5000    2.5981    0.0000 C   0  0  0  0  0  0  0  0  0  0  0  0
    3.0000    2.5981    0.0000 O   0  0  0  0  0  0  0  0  0  0  0  0
    0.7500    3.8971    0.0000 O   0  0  0  0  0  0  0  0  0  0  0  0
    1.5000    5.1962    0.0000 C   0  0  0  0  0  0  0  0  0  0  0  0
    0.8899    6.5665    0.0000 C   0  0  0  0  0  0  0  0  0  0  0  0
    2.0046    7.5702    0.0000 C   0  0  0  0  0  0  0  0  0  0  0  0
    3.3037    6.8202    0.0000 C   0  0  0  0  0  0  0  0  0  0  0  0
    2.9918    5.3529    0.0000 C   0  0  0  0  0  0  0  0  0  0  0  0
  1  2  3  0
  2  3  1  0
  3  4  3  0
  4  5  1  0
  5  6  3  0
  6  7  1  0
  7  8  3  0
  8  9  1  0
  9 10  2  0
 10 11  1  0
 11 12  2  0
 12 13  1  0
 13 14  2  0
 14 15  1  0
 15 16  2  0
 15 17  1  0
 17 18  1  0
 18 19  2  0
 19 20  1  0
 20 21  2  0
 21 22  1  0
 14  9  1  0
 22 18  1  0
M  END
>  <Title>  (1062) 
idABMXgen10

$$$$

     RDKit          2D

  7  7  0  0  0  0  0  0  0  0999 V2000
    3.0000    0.0000    0.0000 O   0  0  0  0  0  0  0  0  0  0  0  0
    1.5000    0.0000    0.0000 C   0  0  0  0  0  0  0  0  0  0  0  0
    0.7500   -1.2990    0.0000 C   0  0  0  0  0  0  0  0  0  0  0  0
   -0.7500   -1.2990    0.0000 C   0  0  0  0  0  0  0  0  0  0  0  0
   -1.5000    0.0000    0.0000 C   0  0  0  0  0  0  0  0  0  0  0  0
   -0.7500    1.2990    0.0000 C   0  0  0  0  0  0  0  0  0  0  0  0
    0.7500    1.2990    0.0000 C   0  0  0  0  0  0  0  0  0  0  0  0
  1  2  1  0
  2  3  2  0
  3  4  1  0
  4  5  1  0
  5  6  2  0
  6  7  1  0
  7  2  1  0
M  END
>  <Title>  (1063) 
idABMYgen10

$$$$

     RDKit          2D

 13 14  0  0  0  0  0  0  0  0999 V2000
   -2.4240   -6.1312    0.0000 C   0  0  0  0  0  0  0  0  0  0  0  0
   -1.0537   -5.5211    0.0000 C   0  0  0  0  0  0  0  0  0  0  0  0
    0.2454   -6.2711    0.0000 C   0  0  0  0  0  0  0  0  0  0  0  0
    1.3601   -5.2674    0.0000 C   0  0  0  0  0  0  0  0  0  0  0  0
    0.7500   -3.8971    0.0000 C   0  0  0  0  0  0  0  0  0  0  0  0
    1.5000   -2.5981    0.0000 C   0  0  0  0  0  0  0  0  0  0  0  0
    0.7500   -1.2990    0.0000 C   0  0  0  0  0  0  0  0  0  0  0  0
    1.5000    0.0000    0.0000 N   0  0  0  0  0  0  0  0  0  0  0  0
    0.7500    1.2990    0.0000 N   0  0  0  0  0  0  0  0  0  0  0  0
   -0.7500    1.2990    0.0000 N   0  0  0  0  0  0  0  0  0  0  0  0
   -1.5000    0.0000    0.0000 N   0  0  0  0  0  0  0  0  0  0  0  0
   -0.7500   -1.2990    0.0000 N   0  0  0  0  0  0  0  0  0  0  0  0
   -0.7418   -4.0539    0.0000 C   0  0  0  0  0  0  0  0  0  0  0  0
  1  2  1  0
  2  3  1  0
  3  4  2  0
  4  5  1  0
  5  6  1  0
  6  7  1  0
  7  8  2  0
  8  9  1  0
  9 10  2  0
 10 11  1  0
 11 12  2  0
  5 13  1  0
 13  2  1  0
 12  7  1  0
M  END
>  <Title>  (1064) 
idABMZgen10

$$$$

     RDKit          2D

  9  8  0  0  0  0  0  0  0  0999 V2000
    0.0000    0.0000    0.0000 C   0  0  0  0  0  0  0  0  0  0  0  0
   -0.0000   -1.5000    0.0000 C   0  0  0  0  0  0  0  0  0  0  0  0
   -0.0000   -3.0000    0.0000 C   0  0  0  0  0  0  0  0  0  0  0  0
    1.2990   -3.7500    0.0000 C   0  0  0  0  0  0  0  0  0  0  0  0
    1.2990   -5.2500    0.0000 C   0  0  0  0  0  0  0  0  0  0  0  0
    2.5981   -6.0000    0.0000 C   0  0  0  0  0  0  0  0  0  0  0  0
    2.5981   -7.5000    0.0000 C   0  0  0  0  0  0  0  0  0  0  0  0
    3.8971   -8.2500    0.0000 C   0  0  0  0  0  0  0  0  0  0  0  0
    3.8971   -9.7500    0.0000 C   0  0  0  0  0  0  0  0  0  0  0  0
  1  2  3  0
  2  3  1  0
  3  4  1  0
  4  5  1  0
  5  6  1  0
  6  7  1  0
  7  8  1  0
  8  9  1  0
M  END
>  <Title>  (1065) 
idABNAgen10

$$$$

     RDKit          2D

  6  6  0  0  0  0  0  0  0  0999 V2000
    1.5000    0.0000    0.0000 C   0  0  0  0  0  0  0  0  0  0  0  0
    0.7500   -1.2990    0.0000 C   0  0  0  0  0  0  0  0  0  0  0  0
   -0.7500   -1.2990    0.0000 C   0  0  0  0  0  0  0  0  0  0  0  0
   -1.5000    0.0000    0.0000 C   0  0  0  0  0  0  0  0  0  0  0  0
   -0.7500    1.2990    0.0000 C   0  0  0  0  0  0  0  0  0  0  0  0
    0.7500    1.2990    0.0000 C   0  0  0  0  0  0  0  0  0  0  0  0
  1  2  2  0
  2  3  1  0
  3  4  2  0
  4  5  1  0
  5  6  2  0
  6  1  1  0
M  END
>  <Title>  (1066) 
idABNBgen10

$$$$

     RDKit          2D

 14 14  0  0  0  0  0  0  0  0999 V2000
    4.9598   -2.5981    0.0000 C   0  0  0  0  0  0  0  0  0  0  0  0
    4.2098   -1.2990    0.0000 C   0  0  0  0  0  0  0  0  0  0  0  0
    3.4598   -0.0000    0.0000 C   0  0  0  0  0  0  0  0  0  0  0  0
    1.9598    0.0000    0.0000 C   0  0  0  0  0  0  0  0  0  0  0  0
    1.3858   -1.3858    0.0000 C   0  0  0  0  0  0  0  0  0  0  0  0
   -0.0000   -1.9598    0.0000 C   0  0  0  0  0  0  0  0  0  0  0  0
   -1.3858   -1.3858    0.0000 C   0  0  0  0  0  0  0  0  0  0  0  0
   -1.9598    0.0000    0.0000 C   0  0  0  0  0  0  0  0  0  0  0  0
   -3.4598    0.0000    0.0000 C   0  0  0  0  0  0  0  0  0  0  0  0
   -1.3858    1.3858    0.0000 C   0  0  0  0  0  0  0  0  0  0  0  0
   -2.4465    2.4465    0.0000 C   0  0  0  0  0  0  0  0  0  0  0  0
   -3.5071    3.5071    0.0000 N   0  0  0  0  0  0  0  0  0  0  0  0
    0.0000    1.9598    0.0000 C   0  0  0  0  0  0  0  0  0  0  0  0
    1.3858    1.3858    0.0000 C   0  0  0  0  0  0  0  0  0  0  0  0
  1  2  3  0
  2  3  1  0
  3  4  1  0
  4  5  1  0
  5  6  2  0
  6  7  1  0
  7  8  2  0
  8  9  1  0
  8 10  1  0
 10 11  1  0
 11 12  3  0
 10 13  1  0
 13 14  1  0
 14  4  1  0
M  END
>  <Title>  (1067) 
idABNCgen10

$$$$

     RDKit          2D

 13 13  0  0  0  0  0  0  0  0999 V2000
    4.5000   -2.5981    0.0000 C   0  0  0  0  0  0  0  0  0  0  0  0
    3.7500   -1.2990    0.0000 C   0  0  0  0  0  0  0  0  0  0  0  0
    3.0000    0.0000    0.0000 C   0  0  0  0  0  0  0  0  0  0  0  0
    3.7500    1.2990    0.0000 O   0  0  0  0  0  0  0  0  0  0  0  0
    1.5000    0.0000    0.0000 C   0  0  0  0  0  0  0  0  0  0  0  0
    0.7500   -1.2990    0.0000 C   0  0  0  0  0  0  0  0  0  0  0  0
   -0.7500   -1.2990    0.0000 C   0  0  0  0  0  0  0  0  0  0  0  0
   -1.5000    0.0000    0.0000 C   0  0  0  0  0  0  0  0  0  0  0  0
   -0.7500    1.2990    0.0000 C   0  0  0  0  0  0  0  0  0  0  0  0
    0.7500    1.2990    0.0000 C   0  0  0  0  0  0  0  0  0  0  0  0
    1.5000    2.5981    0.0000 C   0  0  0  0  0  0  0  0  0  0  0  0
    3.0000    2.5981    0.0000 C   0  0  0  0  0  0  0  0  0  0  0  0
    0.7500    3.8971    0.0000 O   0  0  0  0  0  0  0  0  0  0  0  0
  1  2  3  0
  2  3  1  0
  3  4  2  0
  3  5  1  0
  5  6  2  0
  6  7  1  0
  7  8  2  0
  8  9  1  0
  9 10  2  0
 10 11  1  0
 11 12  1  0
 11 13  2  0
 10  5  1  0
M  END
>  <Title>  (1068) 
idABNDgen10

$$$$

     RDKit          2D

  7  7  0  0  0  0  0  0  0  0999 V2000
    3.0000    0.0000    0.0000 C   0  0  0  0  0  0  0  0  0  0  0  0
    1.5000    0.0000    0.0000 C   0  0  0  0  0  0  0  0  0  0  0  0
    0.7500   -1.2990    0.0000 C   0  0  0  0  0  0  0  0  0  0  0  0
   -0.7500   -1.2990    0.0000 C   0  0  0  0  0  0  0  0  0  0  0  0
   -1.5000    0.0000    0.0000 C   0  0  0  0  0  0  0  0  0  0  0  0
   -0.7500    1.2990    0.0000 C   0  0  0  0  0  0  0  0  0  0  0  0
    0.7500    1.2990    0.0000 C   0  0  0  0  0  0  0  0  0  0  0  0
  1  2  1  0
  2  3  1  0
  3  4  2  0
  4  5  1  0
  5  6  2  0
  6  7  1  0
  7  2  1  0
M  END
>  <Title>  (1069) 
idABNEgen10

$$$$

     RDKit          2D

 13 14  0  0  0  0  0  0  0  0999 V2000
    8.7990   -3.3481    0.0000 C   0  0  0  0  0  0  0  0  0  0  0  0
    7.2990   -3.3481    0.0000 C   0  0  0  0  0  0  0  0  0  0  0  0
    5.7990   -3.3481    0.0000 C   0  0  0  0  0  0  0  0  0  0  0  0
    4.2990   -3.3481    0.0000 C   0  0  0  0  0  0  0  0  0  0  0  0
    2.7990   -3.3481    0.0000 C   0  0  0  0  0  0  0  0  0  0  0  0
    1.5000   -2.5981    0.0000 C   0  0  0  0  0  0  0  0  0  0  0  0
    0.7500   -1.2990    0.0000 C   0  0  0  0  0  0  0  0  0  0  0  0
    1.5000    0.0000    0.0000 C   0  0  0  0  0  0  0  0  0  0  0  0
    0.7500    1.2990    0.0000 C   0  0  0  0  0  0  0  0  0  0  0  0
   -0.7500    1.2990    0.0000 C   0  0  0  0  0  0  0  0  0  0  0  0
   -1.5000    0.0000    0.0000 C   0  0  0  0  0  0  0  0  0  0  0  0
   -0.7500   -1.2990    0.0000 N   0  0  0  0  0  0  0  0  0  0  0  0
    1.5000   -4.0981    0.0000 C   0  0  0  0  0  0  0  0  0  0  0  0
  1  2  3  0
  2  3  1  0
  3  4  3  0
  4  5  1  0
  5  6  2  0
  6  7  1  0
  7  8  2  0
  8  9  1  0
  9 10  2  0
 10 11  1  0
 11 12  2  0
  6 13  1  0
 13  5  1  0
 12  7  1  0
M  END
>  <Title>  (1070) 
idABNFgen10

$$$$

     RDKit          2D

  6  5  0  0  0  0  0  0  0  0999 V2000
    0.0000    0.0000    0.0000 C   0  0  0  0  0  0  0  0  0  0  0  0
    1.2990    0.7500    0.0000 C   0  0  0  0  0  0  0  0  0  0  0  0
    2.5981   -0.0000    0.0000 C   0  0  0  0  0  0  0  0  0  0  0  0
    3.8971    0.7500    0.0000 C   0  0  0  0  0  0  0  0  0  0  0  0
    5.1962   -0.0000    0.0000 C   0  0  0  0  0  0  0  0  0  0  0  0
    6.4952    0.7500    0.0000 C   0  0  0  0  0  0  0  0  0  0  0  0
  1  2  2  0
  2  3  1  0
  3  4  2  3
  4  5  1  0
  5  6  1  0
M  END
>  <Title>  (1071) 
idABNGgen10

$$$$

     RDKit          2D

  9  9  0  0  0  0  0  0  0  0999 V2000
    3.4598   -0.0000    0.0000 C   0  0  0  0  0  0  0  0  0  0  0  0
    1.9598    0.0000    0.0000 C   0  0  0  0  0  0  0  0  0  0  0  0
    1.3858   -1.3858    0.0000 C   0  0  0  0  0  0  0  0  0  0  0  0
   -0.0000   -1.9598    0.0000 C   0  0  0  0  0  0  0  0  0  0  0  0
   -1.3858   -1.3858    0.0000 C   0  0  0  0  0  0  0  0  0  0  0  0
   -1.9598    0.0000    0.0000 C   0  0  0  0  0  0  0  0  0  0  0  0
   -1.3858    1.3858    0.0000 C   0  0  0  0  0  0  0  0  0  0  0  0
    0.0000    1.9598    0.0000 C   0  0  0  0  0  0  0  0  0  0  0  0
    1.3858    1.3858    0.0000 C   0  0  0  0  0  0  0  0  0  0  0  0
  1  2  1  0
  2  3  2  0
  3  4  1  0
  4  5  2  0
  5  6  1  0
  6  7  2  0
  7  8  1  0
  8  9  2  0
  9  2  1  0
M  END
>  <Title>  (1072) 
idABNHgen10

$$$$

     RDKit          2D

 62 63  0  0  0  0  0  0  0  0999 V2000
   -2.2740   -1.0393    0.0000 C   0  0  0  0  0  0  0  0  0  0  0  0
   -2.5006    0.4434    0.0000 C   0  0  0  0  0  0  0  0  0  0  0  0
   -3.9935    0.2974    0.0000 C   0  0  0  0  0  0  0  0  0  0  0  0
   -5.4934    0.3137    0.0000 C   0  0  0  0  0  0  0  0  0  0  0  0
   -6.9828    0.4920    0.0000 C   0  0  0  0  0  0  0  0  0  0  0  0
   -8.4441    0.8303    0.0000 C   0  0  0  0  0  0  0  0  0  0  0  0
   -9.8603    1.3246    0.0000 C   0  0  0  0  0  0  0  0  0  0  0  0
  -11.2148    1.9692    0.0000 C   0  0  0  0  0  0  0  0  0  0  0  0
  -12.4916    2.7564    0.0000 C   0  0  0  0  0  0  0  0  0  0  0  0
  -13.6759    3.6770    0.0000 C   0  0  0  0  0  0  0  0  0  0  0  0
  -14.7536    4.7203    0.0000 C   0  0  0  0  0  0  0  0  0  0  0  0
  -15.7123    5.8740    0.0000 C   0  0  0  0  0  0  0  0  0  0  0  0
  -16.5405    7.1246    0.0000 C   0  0  0  0  0  0  0  0  0  0  0  0
  -17.2288    8.4574    0.0000 C   0  0  0  0  0  0  0  0  0  0  0  0
  -17.7688    9.8568    0.0000 C   0  0  0  0  0  0  0  0  0  0  0  0
  -18.1544   11.3064    0.0000 C   0  0  0  0  0  0  0  0  0  0  0  0
  -18.3811   12.7891    0.0000 C   0  0  0  0  0  0  0  0  0  0  0  0
  -18.4460   14.2877    0.0000 C   0  0  0  0  0  0  0  0  0  0  0  0
  -18.3486   15.7846    0.0000 C   0  0  0  0  0  0  0  0  0  0  0  0
  -18.0899   17.2621    0.0000 C   0  0  0  0  0  0  0  0  0  0  0  0
  -17.6730   18.7030    0.0000 C   0  0  0  0  0  0  0  0  0  0  0  0
  -17.1027   20.0904    0.0000 C   0  0  0  0  0  0  0  0  0  0  0  0
  -16.3858   21.4079    0.0000 C   0  0  0  0  0  0  0  0  0  0  0  0
  -15.5306   22.6403    0.0000 C   0  0  0  0  0  0  0  0  0  0  0  0
  -14.5472   23.7729    0.0000 C   0  0  0  0  0  0  0  0  0  0  0  0
  -13.4471   24.7926    0.0000 C   0  0  0  0  0  0  0  0  0  0  0  0
  -12.2432   25.6874    0.0000 C   0  0  0  0  0  0  0  0  0  0  0  0
  -10.9496   26.4468    0.0000 C   0  0  0  0  0  0  0  0  0  0  0  0
   -9.5815   27.0618    0.0000 C   0  0  0  0  0  0  0  0  0  0  0  0
   -8.1549   27.5253    0.0000 C   0  0  0  0  0  0  0  0  0  0  0  0
   -6.6866   27.8319    0.0000 C   0  0  0  0  0  0  0  0  0  0  0  0
   -5.1937   27.9779    0.0000 C   0  0  0  0  0  0  0  0  0  0  0  0
   -3.6938   27.9617    0.0000 C   0  0  0  0  0  0  0  0  0  0  0  0
   -2.2044   27.7833    0.0000 C   0  0  0  0  0  0  0  0  0  0  0  0
   -0.7431   27.4450    0.0000 C   0  0  0  0  0  0  0  0  0  0  0  0
    0.6731   26.9507    0.0000 C   0  0  0  0  0  0  0  0  0  0  0  0
    2.0276   26.3062    0.0000 C   0  0  0  0  0  0  0  0  0  0  0  0
    3.3044   25.5190    0.0000 C   0  0  0  0  0  0  0  0  0  0  0  0
    4.4887   24.5983    0.0000 C   0  0  0  0  0  0  0  0  0  0  0  0
    5.5664   23.5550    0.0000 C   0  0  0  0  0  0  0  0  0  0  0  0
    6.5250   22.4013    0.0000 C   0  0  0  0  0  0  0  0  0  0  0  0
    7.3533   21.1508    0.0000 C   0  0  0  0  0  0  0  0  0  0  0  0
    8.0415   19.8180    0.0000 C   0  0  0  0  0  0  0  0  0  0  0  0
    8.5816   18.4186    0.0000 C   0  0  0  0  0  0  0  0  0  0  0  0
    8.9672   16.9690    0.0000 C   0  0  0  0  0  0  0  0  0  0  0  0
    9.1939   15.4862    0.0000 C   0  0  0  0  0  0  0  0  0  0  0  0
    9.2588   13.9876    0.0000 C   0  0  0  0  0  0  0  0  0  0  0  0
    9.1614   12.4908    0.0000 C   0  0  0  0  0  0  0  0  0  0  0  0
    8.9027   11.0132    0.0000 C   0  0  0  0  0  0  0  0  0  0  0  0
    8.4858    9.5723    0.0000 C   0  0  0  0  0  0  0  0  0  0  0  0
    7.9155    8.1850    0.0000 C   0  0  0  0  0  0  0  0  0  0  0  0
    7.1986    6.8674    0.0000 C   0  0  0  0  0  0  0  0  0  0  0  0
    6.3434    5.6351    0.0000 C   0  0  0  0  0  0  0  0  0  0  0  0
    5.3600    4.5024    0.0000 C   0  0  0  0  0  0  0  0  0  0  0  0
    4.2599    3.4827    0.0000 C   0  0  0  0  0  0  0  0  0  0  0  0
    3.0560    2.5879    0.0000 C   0  0  0  0  0  0  0  0  0  0  0  0
    1.7624    1.8286    0.0000 C   0  0  0  0  0  0  0  0  0  0  0  0
    0.3943    1.2135    0.0000 C   0  0  0  0  0  0  0  0  0  0  0  0
    1.2760    0.0000    0.0000 C   0  0  0  0  0  0  0  0  0  0  0  0
    0.3943   -1.2135    0.0000 C   0  0  0  0  0  0  0  0  0  0  0  0
   -1.0323   -0.7500    0.0000 C   0  0  0  0  0  0  0  0  0  0  0  0
   -1.0323    0.7500    0.0000 C   0  0  0  0  0  0  0  0  0  0  0  0
  1  2  1  0
  2  3  1  0
  3  4  2  0
  4  5  1  0
  5  6  2  0
  6  7  1  0
  7  8  2  0
  8  9  1  0
  9 10  2  0
 10 11  1  0
 11 12  2  0
 12 13  1  0
 13 14  2  0
 14 15  1  0
 15 16  2  0
 16 17  1  0
 17 18  2  0
 18 19  1  0
 19 20  2  0
 20 21  1  0
 21 22  2  0
 22 23  1  0
 23 24  2  0
 24 25  1  0
 25 26  2  0
 26 27  1  0
 27 28  2  0
 28 29  1  0
 29 30  2  0
 30 31  1  0
 31 32  2  0
 32 33  1  0
 33 34  2  0
 34 35  1  0
 35 36  2  0
 36 37  1  0
 37 38  2  0
 38 39  1  0
 39 40  2  0
 40 41  1  0
 41 42  2  0
 42 43  1  0
 43 44  2  0
 44 45  1  0
 45 46  2  0
 46 47  1  0
 47 48  2  0
 48 49  1  0
 49 50  2  0
 50 51  1  0
 51 52  2  0
 52 53  1  0
 53 54  2  0
 54 55  1  0
 55 56  2  0
 56 57  1  0
 57 58  2  0
 58 59  1  0
 59 60  2  0
 60 61  1  0
 61 62  2  0
 62  2  1  0
 62 58  1  0
M  END
>  <Title>  (1073) 
idABNIgen10

$$$$

     RDKit          2D

 12 13  0  0  0  0  0  0  0  0999 V2000
    4.6740   -4.8322    0.0000 O   0  0  0  0  0  0  0  0  0  0  0  0
    3.3037   -4.2221    0.0000 C   0  0  0  0  0  0  0  0  0  0  0  0
    2.9918   -2.7549    0.0000 C   0  0  0  0  0  0  0  0  0  0  0  0
    1.5000   -2.5981    0.0000 C   0  0  0  0  0  0  0  0  0  0  0  0
    0.7500   -1.2990    0.0000 C   0  0  0  0  0  0  0  0  0  0  0  0
    1.5000    0.0000    0.0000 C   0  0  0  0  0  0  0  0  0  0  0  0
    0.7500    1.2990    0.0000 C   0  0  0  0  0  0  0  0  0  0  0  0
   -0.7500    1.2990    0.0000 C   0  0  0  0  0  0  0  0  0  0  0  0
   -1.5000    0.0000    0.0000 C   0  0  0  0  0  0  0  0  0  0  0  0
   -0.7500   -1.2990    0.0000 N   0  0  0  0  0  0  0  0  0  0  0  0
    0.8899   -3.9684    0.0000 C   0  0  0  0  0  0  0  0  0  0  0  0
    2.0046   -4.9721    0.0000 C   0  0  0  0  0  0  0  0  0  0  0  0
  1  2  1  0
  2  3  2  0
  3  4  1  0
  4  5  1  0
  5  6  2  0
  6  7  1  0
  7  8  2  0
  8  9  1  0
  9 10  2  0
  4 11  2  0
 11 12  1  0
 12  2  1  0
 10  5  1  0
M  END
>  <Title>  (1074) 
idABNJgen10

$$$$

     RDKit          2D

 10 10  0  0  0  0  0  0  0  0999 V2000
    7.5000    0.0000    0.0000 C   0  0  0  0  0  0  0  0  0  0  0  0
    6.0000    0.0000    0.0000 C   0  0  0  0  0  0  0  0  0  0  0  0
    4.5000    0.0000    0.0000 C   0  0  0  0  0  0  0  0  0  0  0  0
    3.0000    0.0000    0.0000 C   0  0  0  0  0  0  0  0  0  0  0  0
    1.5000    0.0000    0.0000 C   0  0  0  0  0  0  0  0  0  0  0  0
    0.7500   -1.2990    0.0000 C   0  0  0  0  0  0  0  0  0  0  0  0
   -0.7500   -1.2990    0.0000 C   0  0  0  0  0  0  0  0  0  0  0  0
   -1.5000    0.0000    0.0000 C   0  0  0  0  0  0  0  0  0  0  0  0
   -0.7500    1.2990    0.0000 C   0  0  0  0  0  0  0  0  0  0  0  0
    0.7500    1.2990    0.0000 C   0  0  0  0  0  0  0  0  0  0  0  0
  1  2  3  0
  2  3  1  0
  3  4  3  0
  4  5  1  0
  5  6  2  0
  6  7  1  0
  7  8  1  0
  8  9  1  0
  9 10  1  0
 10  5  1  0
M  END
>  <Title>  (1075) 
idABNKgen10

$$$$

     RDKit          2D

128127  0  0  0  0  0  0  0  0999 V2000
    0.0000    0.0000    0.0000 C   0  0  0  0  0  0  0  0  0  0  0  0
    1.2990    0.7500    0.0000 C   0  0  0  0  0  0  0  0  0  0  0  0
    2.5981   -0.0000    0.0000 C   0  0  0  0  0  0  0  0  0  0  0  0
    3.8971    0.7500    0.0000 C   0  0  0  0  0  0  0  0  0  0  0  0
    5.1962   -0.0000    0.0000 C   0  0  0  0  0  0  0  0  0  0  0  0
    6.4952    0.7500    0.0000 C   0  0  0  0  0  0  0  0  0  0  0  0
    7.7942   -0.0000    0.0000 C   0  0  0  0  0  0  0  0  0  0  0  0
    9.0933    0.7500    0.0000 C   0  0  0  0  0  0  0  0  0  0  0  0
   10.3923   -0.0000    0.0000 C   0  0  0  0  0  0  0  0  0  0  0  0
   11.6913    0.7500    0.0000 C   0  0  0  0  0  0  0  0  0  0  0  0
   12.9904   -0.0000    0.0000 C   0  0  0  0  0  0  0  0  0  0  0  0
   14.2894    0.7500    0.0000 C   0  0  0  0  0  0  0  0  0  0  0  0
   15.5885   -0.0000    0.0000 C   0  0  0  0  0  0  0  0  0  0  0  0
   16.8875    0.7500    0.0000 C   0  0  0  0  0  0  0  0  0  0  0  0
   18.1865   -0.0000    0.0000 C   0  0  0  0  0  0  0  0  0  0  0  0
   19.4856    0.7500    0.0000 C   0  0  0  0  0  0  0  0  0  0  0  0
   20.7846   -0.0000    0.0000 C   0  0  0  0  0  0  0  0  0  0  0  0
   22.0836    0.7500    0.0000 C   0  0  0  0  0  0  0  0  0  0  0  0
   23.3827   -0.0000    0.0000 C   0  0  0  0  0  0  0  0  0  0  0  0
   24.6817    0.7500    0.0000 C   0  0  0  0  0  0  0  0  0  0  0  0
   25.9808   -0.0000    0.0000 C   0  0  0  0  0  0  0  0  0  0  0  0
   27.2798    0.7500    0.0000 C   0  0  0  0  0  0  0  0  0  0  0  0
   28.5788   -0.0000    0.0000 C   0  0  0  0  0  0  0  0  0  0  0  0
   29.8779    0.7500    0.0000 C   0  0  0  0  0  0  0  0  0  0  0  0
   31.1769   -0.0000    0.0000 C   0  0  0  0  0  0  0  0  0  0  0  0
   32.4760    0.7500    0.0000 C   0  0  0  0  0  0  0  0  0  0  0  0
   33.7750   -0.0000    0.0000 C   0  0  0  0  0  0  0  0  0  0  0  0
   35.0740    0.7500    0.0000 C   0  0  0  0  0  0  0  0  0  0  0  0
   36.3731   -0.0000    0.0000 C   0  0  0  0  0  0  0  0  0  0  0  0
   37.6721    0.7500    0.0000 C   0  0  0  0  0  0  0  0  0  0  0  0
   38.9711   -0.0000    0.0000 C   0  0  0  0  0  0  0  0  0  0  0  0
   40.2702    0.7500    0.0000 C   0  0  0  0  0  0  0  0  0  0  0  0
   41.5692   -0.0000    0.0000 C   0  0  0  0  0  0  0  0  0  0  0  0
   42.8683    0.7500    0.0000 C   0  0  0  0  0  0  0  0  0  0  0  0
   44.1673   -0.0000    0.0000 C   0  0  0  0  0  0  0  0  0  0  0  0
   45.4663    0.7500    0.0000 C   0  0  0  0  0  0  0  0  0  0  0  0
   46.7654   -0.0000    0.0000 C   0  0  0  0  0  0  0  0  0  0  0  0
   48.0644    0.7500    0.0000 C   0  0  0  0  0  0  0  0  0  0  0  0
   49.3634   -0.0000    0.0000 C   0  0  0  0  0  0  0  0  0  0  0  0
   50.6625    0.7500    0.0000 C   0  0  0  0  0  0  0  0  0  0  0  0
   51.9615   -0.0000    0.0000 C   0  0  0  0  0  0  0  0  0  0  0  0
   53.2606    0.7500    0.0000 C   0  0  0  0  0  0  0  0  0  0  0  0
   54.5596   -0.0000    0.0000 C   0  0  0  0  0  0  0  0  0  0  0  0
   55.8586    0.7500    0.0000 C   0  0  0  0  0  0  0  0  0  0  0  0
   57.1577   -0.0000    0.0000 C   0  0  0  0  0  0  0  0  0  0  0  0
   58.4567    0.7500    0.0000 C   0  0  0  0  0  0  0  0  0  0  0  0
   59.7558   -0.0000    0.0000 C   0  0  0  0  0  0  0  0  0  0  0  0
   61.0548    0.7500    0.0000 C   0  0  0  0  0  0  0  0  0  0  0  0
   62.3538   -0.0000    0.0000 C   0  0  0  0  0  0  0  0  0  0  0  0
   63.6529    0.7500    0.0000 C   0  0  0  0  0  0  0  0  0  0  0  0
   64.9519   -0.0000    0.0000 C   0  0  0  0  0  0  0  0  0  0  0  0
   66.2509    0.7500    0.0000 C   0  0  0  0  0  0  0  0  0  0  0  0
   67.5500   -0.0000    0.0000 C   0  0  0  0  0  0  0  0  0  0  0  0
   68.8490    0.7500    0.0000 C   0  0  0  0  0  0  0  0  0  0  0  0
   70.1481   -0.0000    0.0000 C   0  0  0  0  0  0  0  0  0  0  0  0
   71.4471    0.7500    0.0000 C   0  0  0  0  0  0  0  0  0  0  0  0
   72.7461   -0.0000    0.0000 C   0  0  0  0  0  0  0  0  0  0  0  0
   74.0452    0.7500    0.0000 C   0  0  0  0  0  0  0  0  0  0  0  0
   75.3442   -0.0000    0.0000 C   0  0  0  0  0  0  0  0  0  0  0  0
   76.6432    0.7500    0.0000 C   0  0  0  0  0  0  0  0  0  0  0  0
   77.9423   -0.0000    0.0000 C   0  0  0  0  0  0  0  0  0  0  0  0
   79.2413    0.7500    0.0000 C   0  0  0  0  0  0  0  0  0  0  0  0
   80.5404   -0.0000    0.0000 C   0  0  0  0  0  0  0  0  0  0  0  0
   81.8394    0.7500    0.0000 C   0  0  0  0  0  0  0  0  0  0  0  0
   83.1384   -0.0000    0.0000 C   0  0  0  0  0  0  0  0  0  0  0  0
   84.4375    0.7500    0.0000 C   0  0  0  0  0  0  0  0  0  0  0  0
   85.7365   -0.0000    0.0000 C   0  0  0  0  0  0  0  0  0  0  0  0
   87.0356    0.7500    0.0000 C   0  0  0  0  0  0  0  0  0  0  0  0
   88.3346   -0.0000    0.0000 C   0  0  0  0  0  0  0  0  0  0  0  0
   89.6336    0.7500    0.0000 C   0  0  0  0  0  0  0  0  0  0  0  0
   90.9327   -0.0000    0.0000 C   0  0  0  0  0  0  0  0  0  0  0  0
   92.2317    0.7500    0.0000 C   0  0  0  0  0  0  0  0  0  0  0  0
   93.5307   -0.0000    0.0000 C   0  0  0  0  0  0  0  0  0  0  0  0
   94.8298    0.7500    0.0000 C   0  0  0  0  0  0  0  0  0  0  0  0
   96.1288   -0.0000    0.0000 C   0  0  0  0  0  0  0  0  0  0  0  0
   97.4279    0.7500    0.0000 C   0  0  0  0  0  0  0  0  0  0  0  0
   98.7269   -0.0000    0.0000 C   0  0  0  0  0  0  0  0  0  0  0  0
  100.0259    0.7500    0.0000 C   0  0  0  0  0  0  0  0  0  0  0  0
  101.3250   -0.0000    0.0000 C   0  0  0  0  0  0  0  0  0  0  0  0
  102.6240    0.7500    0.0000 C   0  0  0  0  0  0  0  0  0  0  0  0
  103.9230   -0.0000    0.0000 C   0  0  0  0  0  0  0  0  0  0  0  0
  105.2221    0.7500    0.0000 C   0  0  0  0  0  0  0  0  0  0  0  0
  106.5211   -0.0000    0.0000 C   0  0  0  0  0  0  0  0  0  0  0  0
  107.8202    0.7500    0.0000 C   0  0  0  0  0  0  0  0  0  0  0  0
  109.1192   -0.0000    0.0000 C   0  0  0  0  0  0  0  0  0  0  0  0
  110.4182    0.7500    0.0000 C   0  0  0  0  0  0  0  0  0  0  0  0
  111.7173   -0.0000    0.0000 C   0  0  0  0  0  0  0  0  0  0  0  0
  113.0163    0.7500    0.0000 C   0  0  0  0  0  0  0  0  0  0  0  0
  114.3154   -0.0000    0.0000 C   0  0  0  0  0  0  0  0  0  0  0  0
  115.6144    0.7500    0.0000 C   0  0  0  0  0  0  0  0  0  0  0  0
  116.9134   -0.0000    0.0000 C   0  0  0  0  0  0  0  0  0  0  0  0
  118.2125    0.7500    0.0000 C   0  0  0  0  0  0  0  0  0  0  0  0
  119.5115   -0.0000    0.0000 C   0  0  0  0  0  0  0  0  0  0  0  0
  120.8105    0.7500    0.0000 C   0  0  0  0  0  0  0  0  0  0  0  0
  122.1096   -0.0000    0.0000 C   0  0  0  0  0  0  0  0  0  0  0  0
  123.4086    0.7500    0.0000 C   0  0  0  0  0  0  0  0  0  0  0  0
  124.7077   -0.0000    0.0000 C   0  0  0  0  0  0  0  0  0  0  0  0
  126.0067    0.7500    0.0000 C   0  0  0  0  0  0  0  0  0  0  0  0
  127.3057   -0.0000    0.0000 C   0  0  0  0  0  0  0  0  0  0  0  0
  128.6048    0.7500    0.0000 C   0  0  0  0  0  0  0  0  0  0  0  0
  129.9038   -0.0000    0.0000 C   0  0  0  0  0  0  0  0  0  0  0  0
  131.2028    0.7500    0.0000 C   0  0  0  0  0  0  0  0  0  0  0  0
  132.5019   -0.0000    0.0000 C   0  0  0  0  0  0  0  0  0  0  0  0
  133.8009    0.7500    0.0000 C   0  0  0  0  0  0  0  0  0  0  0  0
  135.1000   -0.0000    0.0000 C   0  0  0  0  0  0  0  0  0  0  0  0
  136.3990    0.7500    0.0000 C   0  0  0  0  0  0  0  0  0  0  0  0
  137.6980   -0.0000    0.0000 C   0  0  0  0  0  0  0  0  0  0  0  0
  138.9971    0.7500    0.0000 C   0  0  0  0  0  0  0  0  0  0  0  0
  140.2961   -0.0000    0.0000 C   0  0  0  0  0  0  0  0  0  0  0  0
  141.5952    0.7500    0.0000 C   0  0  0  0  0  0  0  0  0  0  0  0
  142.8942   -0.0000    0.0000 C   0  0  0  0  0  0  0  0  0  0  0  0
  144.1932    0.7500    0.0000 C   0  0  0  0  0  0  0  0  0  0  0  0
  145.4923   -0.0000    0.0000 C   0  0  0  0  0  0  0  0  0  0  0  0
  146.7913    0.7500    0.0000 C   0  0  0  0  0  0  0  0  0  0  0  0
  148.0903   -0.0000    0.0000 C   0  0  0  0  0  0  0  0  0  0  0  0
  149.3894    0.7500    0.0000 C   0  0  0  0  0  0  0  0  0  0  0  0
  150.6884   -0.0000    0.0000 C   0  0  0  0  0  0  0  0  0  0  0  0
  151.9875    0.7500    0.0000 C   0  0  0  0  0  0  0  0  0  0  0  0
  153.2865   -0.0000    0.0000 C   0  0  0  0  0  0  0  0  0  0  0  0
  154.5855    0.7500    0.0000 C   0  0  0  0  0  0  0  0  0  0  0  0
  155.8846   -0.0000    0.0000 C   0  0  0  0  0  0  0  0  0  0  0  0
  157.1836    0.7500    0.0000 C   0  0  0  0  0  0  0  0  0  0  0  0
  158.4826   -0.0000    0.0000 C   0  0  0  0  0  0  0  0  0  0  0  0
  159.7817    0.7500    0.0000 C   0  0  0  0  0  0  0  0  0  0  0  0
  161.0807   -0.0000    0.0000 C   0  0  0  0  0  0  0  0  0  0  0  0
  162.3798    0.7500    0.0000 C   0  0  0  0  0  0  0  0  0  0  0  0
  163.6788   -0.0000    0.0000 C   0  0  0  0  0  0  0  0  0  0  0  0
  164.9778    0.7500    0.0000 C   0  0  0  0  0  0  0  0  0  0  0  0
  1  2  1  0
  2  3  1  0
  3  4  1  0
  4  5  1  0
  5  6  1  0
  6  7  1  0
  7  8  1  0
  8  9  1  0
  9 10  1  0
 10 11  1  0
 11 12  1  0
 12 13  1  0
 13 14  1  0
 14 15  1  0
 15 16  1  0
 16 17  1  0
 17 18  1  0
 18 19  1  0
 19 20  1  0
 20 21  1  0
 21 22  1  0
 22 23  1  0
 23 24  1  0
 24 25  1  0
 25 26  1  0
 26 27  1  0
 27 28  1  0
 28 29  1  0
 29 30  1  0
 30 31  1  0
 31 32  1  0
 32 33  1  0
 33 34  1  0
 34 35  1  0
 35 36  1  0
 36 37  1  0
 37 38  1  0
 38 39  1  0
 39 40  1  0
 40 41  1  0
 41 42  1  0
 42 43  1  0
 43 44  1  0
 44 45  1  0
 45 46  1  0
 46 47  1  0
 47 48  1  0
 48 49  1  0
 49 50  1  0
 50 51  1  0
 51 52  1  0
 52 53  1  0
 53 54  1  0
 54 55  1  0
 55 56  1  0
 56 57  1  0
 57 58  1  0
 58 59  1  0
 59 60  1  0
 60 61  1  0
 61 62  1  0
 62 63  1  0
 63 64  1  0
 64 65  1  0
 65 66  1  0
 66 67  1  0
 67 68  1  0
 68 69  1  0
 69 70  1  0
 70 71  1  0
 71 72  1  0
 72 73  1  0
 73 74  1  0
 74 75  1  0
 75 76  1  0
 76 77  1  0
 77 78  1  0
 78 79  1  0
 79 80  1  0
 80 81  1  0
 81 82  1  0
 82 83  1  0
 83 84  1  0
 84 85  1  0
 85 86  1  0
 86 87  1  0
 87 88  1  0
 88 89  1  0
 89 90  1  0
 90 91  1  0
 91 92  1  0
 92 93  1  0
 93 94  1  0
 94 95  1  0
 95 96  1  0
 96 97  1  0
 97 98  1  0
 98 99  1  0
 99100  1  0
100101  1  0
101102  1  0
102103  1  0
103104  1  0
104105  1  0
105106  1  0
106107  1  0
107108  1  0
108109  1  0
109110  1  0
110111  1  0
111112  1  0
112113  1  0
113114  1  0
114115  1  0
115116  1  0
116117  1  0
117118  1  0
118119  1  0
119120  1  0
120121  1  0
121122  1  0
122123  1  0
123124  1  0
124125  1  0
125126  1  0
126127  1  0
127128  1  0
M  END
>  <Title>  (1076) 
idABNLgen10

$$$$

     RDKit          2D

  7  7  0  0  0  0  0  0  0  0999 V2000
    2.5607    0.0000    0.0000 O   0  0  0  0  0  0  0  0  0  0  0  0
    1.0607    0.0000    0.0000 C   0  0  0  0  0  0  0  0  0  0  0  0
   -0.0000   -1.0607    0.0000 C   0  0  0  0  0  0  0  0  0  0  0  0
   -1.0607    0.0000    0.0000 C   0  0  0  0  0  0  0  0  0  0  0  0
   -2.5607    0.0000    0.0000 O   0  0  0  0  0  0  0  0  0  0  0  0
    0.0000    1.0607    0.0000 C   0  0  0  0  0  0  0  0  0  0  0  0
    0.0000    2.5607    0.0000 O   0  0  0  0  0  0  0  0  0  0  0  0
  1  2  1  0
  2  3  1  0
  3  4  1  0
  4  5  1  0
  4  6  1  0
  6  7  1  0
  6  2  1  0
M  END
>  <Title>  (1077) 
idABNMgen10

$$$$

     RDKit          2D

  9  9  0  0  0  0  0  0  0  0999 V2000
    6.5260   -1.2990    0.0000 C   0  0  0  0  0  0  0  0  0  0  0  0
    5.0260   -1.2990    0.0000 C   0  0  0  0  0  0  0  0  0  0  0  0
    3.5260   -1.2990    0.0000 C   0  0  0  0  0  0  0  0  0  0  0  0
    2.7760    0.0000    0.0000 C   0  0  0  0  0  0  0  0  0  0  0  0
    1.2760    0.0000    0.0000 C   0  0  0  0  0  0  0  0  0  0  0  0
    0.3943    1.2135    0.0000 C   0  0  0  0  0  0  0  0  0  0  0  0
   -1.0323    0.7500    0.0000 C   0  0  0  0  0  0  0  0  0  0  0  0
   -1.0323   -0.7500    0.0000 C   0  0  0  0  0  0  0  0  0  0  0  0
    0.3943   -1.2135    0.0000 C   0  0  0  0  0  0  0  0  0  0  0  0
  1  2  3  0
  2  3  1  0
  3  4  2  3
  4  5  1  0
  5  6  2  0
  6  7  1  0
  7  8  1  0
  8  9  2  0
  9  5  1  0
M  END
>  <Title>  (1078) 
idABNNgen10

$$$$

     RDKit          2D

 20 21  0  0  0  0  0  0  0  0999 V2000
    3.4598   -0.0000    0.0000 C   0  0  0  0  0  0  0  0  0  0  0  0
    1.9598    0.0000    0.0000 C   0  0  0  0  0  0  0  0  0  0  0  0
    1.3858   -1.3858    0.0000 C   0  0  0  0  0  0  0  0  0  0  0  0
   -0.0000   -1.9598    0.0000 C   0  0  0  0  0  0  0  0  0  0  0  0
   -1.3858   -1.3858    0.0000 C   0  0  0  0  0  0  0  0  0  0  0  0
   -2.4465   -2.4465    0.0000 C   0  0  0  0  0  0  0  0  0  0  0  0
   -3.5071   -3.5071    0.0000 N   0  0  0  0  0  0  0  0  0  0  0  0
   -1.9598    0.0000    0.0000 C   0  0  0  0  0  0  0  0  0  0  0  0
   -1.3858    1.3858    0.0000 C   0  0  0  0  0  0  0  0  0  0  0  0
    0.0000    1.9598    0.0000 C   0  0  0  0  0  0  0  0  0  0  0  0
    1.3858    1.3858    0.0000 C   0  0  0  0  0  0  0  0  0  0  0  0
    2.4465    2.4465    0.0000 C   0  0  0  0  0  0  0  0  0  0  0  0
    3.8954    2.0583    0.0000 O   0  0  0  0  0  0  0  0  0  0  0  0
    2.0583    3.8954    0.0000 O   0  0  0  0  0  0  0  0  0  0  0  0
    3.1189    4.9560    0.0000 C   0  0  0  0  0  0  0  0  0  0  0  0
    4.5678    4.5678    0.0000 C   0  0  0  0  0  0  0  0  0  0  0  0
    5.6285    5.6285    0.0000 C   0  0  0  0  0  0  0  0  0  0  0  0
    5.2402    7.0773    0.0000 C   0  0  0  0  0  0  0  0  0  0  0  0
    3.7913    7.4656    0.0000 C   0  0  0  0  0  0  0  0  0  0  0  0
    2.7307    6.4049    0.0000 C   0  0  0  0  0  0  0  0  0  0  0  0
  1  2  1  0
  2  3  2  0
  3  4  1  0
  4  5  2  0
  5  6  1  0
  6  7  3  0
  5  8  1  0
  8  9  2  0
  9 10  1  0
 10 11  2  0
 11 12  1  0
 12 13  2  0
 12 14  1  0
 14 15  1  0
 15 16  2  0
 16 17  1  0
 17 18  2  0
 18 19  1  0
 19 20  2  0
 11  2  1  0
 20 15  1  0
M  END
>  <Title>  (1079) 
idABNOgen10

$$$$

     RDKit          2D

 49 56  0  0  0  0  0  0  0  0999 V2000
    3.0729   -0.8734    0.0000 C   0  0  0  0  0  0  0  0  0  0  0  0
    2.0782   -1.9961    0.0000 C   0  0  0  0  0  0  0  0  0  0  0  0
    0.7500   -1.2990    0.0000 C   0  0  0  0  0  0  0  0  0  0  0  0
    1.5000    0.0000    0.0000 C   0  0  0  0  0  0  0  0  0  0  0  0
    0.7500    1.2990    0.0000 C   0  0  0  0  0  0  0  0  0  0  0  0
   -0.7500    1.2990    0.0000 C   0  0  0  0  0  0  0  0  0  0  0  0
   -1.5000    0.0000    0.0000 C   0  0  0  0  0  0  0  0  0  0  0  0
   -0.7500   -1.2990    0.0000 C   0  0  0  0  0  0  0  0  0  0  0  0
   -2.0782   -1.9961    0.0000 C   0  0  0  0  0  0  0  0  0  0  0  0
   -2.7212   -0.6409    0.0000 C   0  0  0  0  0  0  0  0  0  0  0  0
   -4.2164   -0.5202    0.0000 C   0  0  0  0  0  0  0  0  0  0  0  0
   -5.0685   -1.7547    0.0000 C   0  0  0  0  0  0  0  0  0  0  0  0
   -4.4254   -3.1099    0.0000 C   0  0  0  0  0  0  0  0  0  0  0  0
   -2.9303   -3.2306    0.0000 C   0  0  0  0  0  0  0  0  0  0  0  0
   -3.1111   -4.7197    0.0000 C   0  0  0  0  0  0  0  0  0  0  0  0
   -4.5917   -4.4790    0.0000 C   0  0  0  0  0  0  0  0  0  0  0  0
   -5.5403   -5.6410    0.0000 C   0  0  0  0  0  0  0  0  0  0  0  0
   -5.0084   -7.0435    0.0000 C   0  0  0  0  0  0  0  0  0  0  0  0
   -3.5278   -7.2841    0.0000 C   0  0  0  0  0  0  0  0  0  0  0  0
   -2.5792   -6.1222    0.0000 C   0  0  0  0  0  0  0  0  0  0  0  0
   -1.4564   -7.1169    0.0000 C   0  0  0  0  0  0  0  0  0  0  0  0
   -2.4955   -8.1987    0.0000 C   0  0  0  0  0  0  0  0  0  0  0  0
   -2.0782   -9.6395    0.0000 C   0  0  0  0  0  0  0  0  0  0  0  0
   -0.6218   -9.9984    0.0000 C   0  0  0  0  0  0  0  0  0  0  0  0
    0.4173   -8.9166    0.0000 C   0  0  0  0  0  0  0  0  0  0  0  0
   -0.0000   -7.4758    0.0000 C   0  0  0  0  0  0  0  0  0  0  0  0
    1.4564   -7.1169    0.0000 C   0  0  0  0  0  0  0  0  0  0  0  0
    1.7565   -8.5866    0.0000 C   0  0  0  0  0  0  0  0  0  0  0  0
    3.1793   -9.0616    0.0000 C   0  0  0  0  0  0  0  0  0  0  0  0
    4.3020   -8.0669    0.0000 C   0  0  0  0  0  0  0  0  0  0  0  0
    4.0020   -6.5972    0.0000 C   0  0  0  0  0  0  0  0  0  0  0  0
    2.5792   -6.1222    0.0000 C   0  0  0  0  0  0  0  0  0  0  0  0
    3.1111   -4.7197    0.0000 C   0  0  0  0  0  0  0  0  0  0  0  0
    4.6001   -4.9005    0.0000 C   0  0  0  0  0  0  0  0  0  0  0  0
    5.1881   -6.2804    0.0000 O   0  0  0  0  0  0  0  0  0  0  0  0
    5.5013   -3.7013    0.0000 N   0  0  0  0  0  0  0  0  0  0  0  0
    6.9903   -3.8821    0.0000 C   0  0  0  0  0  0  0  0  0  0  0  0
    7.7193   -5.1931    0.0000 N   0  0  0  0  0  0  0  0  0  0  0  0
    9.1914   -4.9049    0.0000 N   0  0  0  0  0  0  0  0  0  0  0  0
    9.3722   -3.4158    0.0000 N   0  0  0  0  0  0  0  0  0  0  0  0
    8.0118   -2.7837    0.0000 N   0  0  0  0  0  0  0  0  0  0  0  0
    7.7237   -1.3116    0.0000 C   0  0  0  0  0  0  0  0  0  0  0  0
    6.3047   -0.8252    0.0000 N   0  0  0  0  0  0  0  0  0  0  0  0
    6.0165    0.6469    0.0000 N   0  0  0  0  0  0  0  0  0  0  0  0
    7.1473    1.6325    0.0000 N   0  0  0  0  0  0  0  0  0  0  0  0
    8.5662    1.1460    0.0000 N   0  0  0  0  0  0  0  0  0  0  0  0
    8.8544   -0.3260    0.0000 N   0  0  0  0  0  0  0  0  0  0  0  0
    2.9303   -3.2306    0.0000 C   0  0  0  0  0  0  0  0  0  0  0  0
    4.3328   -2.6987    0.0000 C   0  0  0  0  0  0  0  0  0  0  0  0
  1  2  1  0
  2  3  1  0
  3  4  2  0
  4  5  1  0
  5  6  2  0
  6  7  1  0
  7  8  2  0
  8  9  1  0
  9 10  2  0
 10 11  1  0
 11 12  2  0
 12 13  1  0
 13 14  2  0
 14 15  1  0
 15 16  2  0
 16 17  1  0
 17 18  2  0
 18 19  1  0
 19 20  2  0
 20 21  1  0
 21 22  2  0
 22 23  1  0
 23 24  2  0
 24 25  1  0
 25 26  2  0
 26 27  1  0
 27 28  2  0
 28 29  1  0
 29 30  2  0
 30 31  1  0
 31 32  2  0
 32 33  1  0
 33 34  1  0
 34 35  2  0
 34 36  1  0
 36 37  1  0
 37 38  2  0
 38 39  1  0
 39 40  2  0
 40 41  1  0
 41 42  1  0
 42 43  2  0
 43 44  1  0
 44 45  2  0
 45 46  1  0
 46 47  2  0
 33 48  1  0
 48 49  1  0
 48  2  1  0
  8  3  1  0
 14  9  1  0
 20 15  1  0
 26 21  1  0
 32 27  1  0
 41 37  1  0
 47 42  1  0
M  END
>  <Title>  (1080) 
idABNPgen10

$$$$

     RDKit          2D

  7  7  0  0  0  0  0  0  0  0999 V2000
    3.0000    0.0000    0.0000 O   0  0  0  0  0  0  0  0  0  0  0  0
    1.5000    0.0000    0.0000 C   0  0  0  0  0  0  0  0  0  0  0  0
    0.7500   -1.2990    0.0000 C   0  0  0  0  0  0  0  0  0  0  0  0
   -0.7500   -1.2990    0.0000 C   0  0  0  0  0  0  0  0  0  0  0  0
   -1.5000    0.0000    0.0000 C   0  0  0  0  0  0  0  0  0  0  0  0
   -0.7500    1.2990    0.0000 C   0  0  0  0  0  0  0  0  0  0  0  0
    0.7500    1.2990    0.0000 C   0  0  0  0  0  0  0  0  0  0  0  0
  1  2  1  0
  2  3  1  0
  3  4  2  0
  4  5  1  0
  5  6  2  0
  6  7  1  0
  7  2  1  0
M  END
>  <Title>  (1081) 
idABNQgen10

$$$$

     RDKit          2D

 58 67  0  0  0  0  0  0  0  0999 V2000
    6.4958   -8.4227    0.0000 C   0  0  0  0  0  0  0  0  0  0  0  0
    5.0565   -8.0001    0.0000 C   0  0  0  0  0  0  0  0  0  0  0  0
    5.2700   -6.5154    0.0000 C   0  0  0  0  0  0  0  0  0  0  0  0
    5.0565   -5.0307    0.0000 C   0  0  0  0  0  0  0  0  0  0  0  0
    4.4334   -3.6662    0.0000 C   0  0  0  0  0  0  0  0  0  0  0  0
    3.4511   -2.5326    0.0000 C   0  0  0  0  0  0  0  0  0  0  0  0
    4.6123   -1.5831    0.0000 N   0  0  0  0  0  0  0  0  0  0  0  0
    4.0681   -0.1853    0.0000 C   0  0  0  0  0  0  0  0  0  0  0  0
    2.5706   -0.2709    0.0000 C   0  0  0  0  0  0  0  0  0  0  0  0
    2.1892   -1.7216    0.0000 C   0  0  0  0  0  0  0  0  0  0  0  0
    0.7500   -1.2990    0.0000 C   0  0  0  0  0  0  0  0  0  0  0  0
    1.5000    0.0000    0.0000 C   0  0  0  0  0  0  0  0  0  0  0  0
    0.7500    1.2990    0.0000 C   0  0  0  0  0  0  0  0  0  0  0  0
   -0.7500    1.2990    0.0000 C   0  0  0  0  0  0  0  0  0  0  0  0
   -1.5000    0.0000    0.0000 C   0  0  0  0  0  0  0  0  0  0  0  0
   -0.7500   -1.2990    0.0000 C   0  0  0  0  0  0  0  0  0  0  0  0
   -2.1892   -1.7216    0.0000 C   0  0  0  0  0  0  0  0  0  0  0  0
   -2.2606   -0.2233    0.0000 C   0  0  0  0  0  0  0  0  0  0  0  0
   -3.5939    0.4640    0.0000 C   0  0  0  0  0  0  0  0  0  0  0  0
   -4.8557   -0.3470    0.0000 C   0  0  0  0  0  0  0  0  0  0  0  0
   -4.7844   -1.8453    0.0000 C   0  0  0  0  0  0  0  0  0  0  0  0
   -3.4511   -2.5326    0.0000 C   0  0  0  0  0  0  0  0  0  0  0  0
   -4.4334   -3.6662    0.0000 C   0  0  0  0  0  0  0  0  0  0  0  0
   -5.3035   -2.4444    0.0000 C   0  0  0  0  0  0  0  0  0  0  0  0
   -6.7967   -2.5869    0.0000 C   0  0  0  0  0  0  0  0  0  0  0  0
   -7.4198   -3.9514    0.0000 C   0  0  0  0  0  0  0  0  0  0  0  0
   -6.5497   -5.1733    0.0000 C   0  0  0  0  0  0  0  0  0  0  0  0
   -5.0565   -5.0307    0.0000 C   0  0  0  0  0  0  0  0  0  0  0  0
   -5.2700   -6.5154    0.0000 C   0  0  0  0  0  0  0  0  0  0  0  0
   -6.6626   -5.9579    0.0000 C   0  0  0  0  0  0  0  0  0  0  0  0
   -7.8416   -6.8851    0.0000 C   0  0  0  0  0  0  0  0  0  0  0  0
   -7.6282   -8.3699    0.0000 C   0  0  0  0  0  0  0  0  0  0  0  0
   -6.2356   -8.9274    0.0000 C   0  0  0  0  0  0  0  0  0  0  0  0
   -5.0565   -8.0001    0.0000 C   0  0  0  0  0  0  0  0  0  0  0  0
   -4.4334   -9.3646    0.0000 C   0  0  0  0  0  0  0  0  0  0  0  0
   -5.9063   -9.6485    0.0000 C   0  0  0  0  0  0  0  0  0  0  0  0
   -6.3969  -11.0660    0.0000 C   0  0  0  0  0  0  0  0  0  0  0  0
   -5.4146  -12.1996    0.0000 C   0  0  0  0  0  0  0  0  0  0  0  0
   -3.9417  -11.9157    0.0000 C   0  0  0  0  0  0  0  0  0  0  0  0
   -3.4511  -10.4982    0.0000 C   0  0  0  0  0  0  0  0  0  0  0  0
   -2.1892  -11.3092    0.0000 C   0  0  0  0  0  0  0  0  0  0  0  0
   -3.2748  -12.3443    0.0000 C   0  0  0  0  0  0  0  0  0  0  0  0
   -2.9212  -13.8020    0.0000 C   0  0  0  0  0  0  0  0  0  0  0  0
   -1.4820  -14.2246    0.0000 C   0  0  0  0  0  0  0  0  0  0  0  0
   -0.3964  -13.1895    0.0000 C   0  0  0  0  0  0  0  0  0  0  0  0
   -0.7500  -11.7318    0.0000 C   0  0  0  0  0  0  0  0  0  0  0  0
    0.7500  -11.7318    0.0000 C   0  0  0  0  0  0  0  0  0  0  0  0
    0.3964  -13.1895    0.0000 C   0  0  0  0  0  0  0  0  0  0  0  0
    1.4820  -14.2246    0.0000 C   0  0  0  0  0  0  0  0  0  0  0  0
    2.9212  -13.8020    0.0000 C   0  0  0  0  0  0  0  0  0  0  0  0
    3.2748  -12.3443    0.0000 C   0  0  0  0  0  0  0  0  0  0  0  0
    2.1892  -11.3092    0.0000 C   0  0  0  0  0  0  0  0  0  0  0  0
    3.4511  -10.4982    0.0000 C   0  0  0  0  0  0  0  0  0  0  0  0
    3.9417  -11.9157    0.0000 C   0  0  0  0  0  0  0  0  0  0  0  0
    5.4146  -12.1996    0.0000 C   0  0  0  0  0  0  0  0  0  0  0  0
    6.3969  -11.0660    0.0000 C   0  0  0  0  0  0  0  0  0  0  0  0
    5.9063   -9.6485    0.0000 C   0  0  0  0  0  0  0  0  0  0  0  0
    4.4334   -9.3646    0.0000 C   0  0  0  0  0  0  0  0  0  0  0  0
  1  2  1  0
  2  3  2  0
  3  4  1  0
  4  5  2  0
  5  6  1  0
  6  7  1  0
  7  8  1  0
  8  9  1  0
  9 10  2  0
 10 11  1  0
 11 12  2  0
 12 13  1  0
 13 14  2  0
 14 15  1  0
 15 16  2  0
 16 17  1  0
 17 18  2  0
 18 19  1  0
 19 20  2  0
 20 21  1  0
 21 22  2  0
 22 23  1  0
 23 24  2  0
 24 25  1  0
 25 26  2  0
 26 27  1  0
 27 28  2  0
 28 29  1  0
 29 30  2  0
 30 31  1  0
 31 32  2  0
 32 33  1  0
 33 34  2  0
 34 35  1  0
 35 36  2  0
 36 37  1  0
 37 38  2  0
 38 39  1  0
 39 40  2  0
 40 41  1  0
 41 42  2  0
 42 43  1  0
 43 44  2  0
 44 45  1  0
 45 46  2  0
 46 47  1  0
 47 48  2  0
 48 49  1  0
 49 50  2  0
 50 51  1  0
 51 52  2  0
 52 53  1  0
 53 54  2  0
 54 55  1  0
 55 56  2  0
 56 57  1  0
 57 58  2  0
 58  2  1  0
 10  6  1  0
 16 11  1  0
 22 17  1  0
 28 23  1  0
 34 29  1  0
 40 35  1  0
 46 41  1  0
 52 47  1  0
 58 53  1  0
M  END
>  <Title>  (1082) 
idABNRgen10

$$$$

     RDKit          2D

106108  0  0  0  0  0  0  0  0999 V2000
   -5.2547    1.9000    0.0000 C   0  0  0  0  0  0  0  0  0  0  0  0
   -4.5976    3.2484    0.0000 C   0  0  0  0  0  0  0  0  0  0  0  0
   -5.9237    3.9493    0.0000 C   0  0  0  0  0  0  0  0  0  0  0  0
   -7.2012    4.7355    0.0000 C   0  0  0  0  0  0  0  0  0  0  0  0
   -8.4246    5.6035    0.0000 C   0  0  0  0  0  0  0  0  0  0  0  0
   -9.5885    6.5496    0.0000 C   0  0  0  0  0  0  0  0  0  0  0  0
  -10.6881    7.5699    0.0000 C   0  0  0  0  0  0  0  0  0  0  0  0
  -11.7186    8.6599    0.0000 C   0  0  0  0  0  0  0  0  0  0  0  0
  -12.6756    9.8149    0.0000 C   0  0  0  0  0  0  0  0  0  0  0  0
  -13.5550   11.0301    0.0000 C   0  0  0  0  0  0  0  0  0  0  0  0
  -14.3530   12.3002    0.0000 C   0  0  0  0  0  0  0  0  0  0  0  0
  -15.0663   13.6198    0.0000 C   0  0  0  0  0  0  0  0  0  0  0  0
  -15.6918   14.9831    0.0000 C   0  0  0  0  0  0  0  0  0  0  0  0
  -16.2267   16.3845    0.0000 C   0  0  0  0  0  0  0  0  0  0  0  0
  -16.6688   17.8179    0.0000 C   0  0  0  0  0  0  0  0  0  0  0  0
  -17.0163   19.2771    0.0000 C   0  0  0  0  0  0  0  0  0  0  0  0
  -17.2675   20.7559    0.0000 C   0  0  0  0  0  0  0  0  0  0  0  0
  -17.4215   22.2480    0.0000 C   0  0  0  0  0  0  0  0  0  0  0  0
  -17.4776   23.7469    0.0000 C   0  0  0  0  0  0  0  0  0  0  0  0
  -17.4355   25.2463    0.0000 C   0  0  0  0  0  0  0  0  0  0  0  0
  -17.2955   26.7398    0.0000 C   0  0  0  0  0  0  0  0  0  0  0  0
  -17.0581   28.2209    0.0000 C   0  0  0  0  0  0  0  0  0  0  0  0
  -16.7243   29.6832    0.0000 C   0  0  0  0  0  0  0  0  0  0  0  0
  -16.2956   31.1207    0.0000 C   0  0  0  0  0  0  0  0  0  0  0  0
  -15.7738   32.5270    0.0000 C   0  0  0  0  0  0  0  0  0  0  0  0
  -15.1611   33.8962    0.0000 C   0  0  0  0  0  0  0  0  0  0  0  0
  -14.4602   35.2223    0.0000 C   0  0  0  0  0  0  0  0  0  0  0  0
  -13.6741   36.4998    0.0000 C   0  0  0  0  0  0  0  0  0  0  0  0
  -12.8061   37.7232    0.0000 C   0  0  0  0  0  0  0  0  0  0  0  0
  -11.8599   38.8871    0.0000 C   0  0  0  0  0  0  0  0  0  0  0  0
  -10.8396   39.9867    0.0000 C   0  0  0  0  0  0  0  0  0  0  0  0
   -9.7497   41.0172    0.0000 C   0  0  0  0  0  0  0  0  0  0  0  0
   -8.5946   41.9742    0.0000 C   0  0  0  0  0  0  0  0  0  0  0  0
   -7.3794   42.8536    0.0000 C   0  0  0  0  0  0  0  0  0  0  0  0
   -6.1093   43.6517    0.0000 C   0  0  0  0  0  0  0  0  0  0  0  0
   -4.7898   44.3649    0.0000 C   0  0  0  0  0  0  0  0  0  0  0  0
   -3.4264   44.9904    0.0000 C   0  0  0  0  0  0  0  0  0  0  0  0
   -2.0250   45.5253    0.0000 C   0  0  0  0  0  0  0  0  0  0  0  0
   -0.5917   45.9674    0.0000 C   0  0  0  0  0  0  0  0  0  0  0  0
    0.8675   46.3149    0.0000 C   0  0  0  0  0  0  0  0  0  0  0  0
    2.3463   46.5661    0.0000 C   0  0  0  0  0  0  0  0  0  0  0  0
    3.8384   46.7201    0.0000 C   0  0  0  0  0  0  0  0  0  0  0  0
    5.3374   46.7762    0.0000 C   0  0  0  0  0  0  0  0  0  0  0  0
    6.8368   46.7342    0.0000 C   0  0  0  0  0  0  0  0  0  0  0  0
    8.3302   46.5941    0.0000 C   0  0  0  0  0  0  0  0  0  0  0  0
    9.8113   46.3567    0.0000 C   0  0  0  0  0  0  0  0  0  0  0  0
   11.2737   46.0229    0.0000 C   0  0  0  0  0  0  0  0  0  0  0  0
   12.7111   45.5942    0.0000 C   0  0  0  0  0  0  0  0  0  0  0  0
   14.1175   45.0724    0.0000 C   0  0  0  0  0  0  0  0  0  0  0  0
   15.4866   44.4597    0.0000 C   0  0  0  0  0  0  0  0  0  0  0  0
   16.8128   43.7588    0.0000 C   0  0  0  0  0  0  0  0  0  0  0  0
   18.0903   42.9727    0.0000 C   0  0  0  0  0  0  0  0  0  0  0  0
   19.3136   42.1047    0.0000 C   0  0  0  0  0  0  0  0  0  0  0  0
   20.4776   41.1585    0.0000 C   0  0  0  0  0  0  0  0  0  0  0  0
   21.5772   40.1383    0.0000 C   0  0  0  0  0  0  0  0  0  0  0  0
   22.6077   39.0483    0.0000 C   0  0  0  0  0  0  0  0  0  0  0  0
   23.5647   37.8932    0.0000 C   0  0  0  0  0  0  0  0  0  0  0  0
   24.4441   36.6780    0.0000 C   0  0  0  0  0  0  0  0  0  0  0  0
   25.2421   35.4080    0.0000 C   0  0  0  0  0  0  0  0  0  0  0  0
   25.9554   34.0884    0.0000 C   0  0  0  0  0  0  0  0  0  0  0  0
   26.5808   32.7250    0.0000 C   0  0  0  0  0  0  0  0  0  0  0  0
   27.1158   31.3236    0.0000 C   0  0  0  0  0  0  0  0  0  0  0  0
   27.5579   29.8903    0.0000 C   0  0  0  0  0  0  0  0  0  0  0  0
   27.9053   28.4311    0.0000 C   0  0  0  0  0  0  0  0  0  0  0  0
   28.1566   26.9523    0.0000 C   0  0  0  0  0  0  0  0  0  0  0  0
   28.3106   25.4602    0.0000 C   0  0  0  0  0  0  0  0  0  0  0  0
   28.3667   23.9612    0.0000 C   0  0  0  0  0  0  0  0  0  0  0  0
   28.3246   22.4618    0.0000 C   0  0  0  0  0  0  0  0  0  0  0  0
   28.1846   20.9684    0.0000 C   0  0  0  0  0  0  0  0  0  0  0  0
   27.9472   19.4873    0.0000 C   0  0  0  0  0  0  0  0  0  0  0  0
   27.6134   18.0249    0.0000 C   0  0  0  0  0  0  0  0  0  0  0  0
   27.1847   16.5875    0.0000 C   0  0  0  0  0  0  0  0  0  0  0  0
   26.6629   15.1811    0.0000 C   0  0  0  0  0  0  0  0  0  0  0  0
   26.0502   13.8120    0.0000 C   0  0  0  0  0  0  0  0  0  0  0  0
   25.3493   12.4858    0.0000 C   0  0  0  0  0  0  0  0  0  0  0  0
   24.5631   11.2083    0.0000 C   0  0  0  0  0  0  0  0  0  0  0  0
   23.6951    9.9850    0.0000 C   0  0  0  0  0  0  0  0  0  0  0  0
   22.7490    8.8210    0.0000 C   0  0  0  0  0  0  0  0  0  0  0  0
   21.7287    7.7214    0.0000 C   0  0  0  0  0  0  0  0  0  0  0  0
   20.6387    6.6909    0.0000 C   0  0  0  0  0  0  0  0  0  0  0  0
   19.4837    5.7339    0.0000 C   0  0  0  0  0  0  0  0  0  0  0  0
   18.2685    4.8545    0.0000 C   0  0  0  0  0  0  0  0  0  0  0  0
   16.9984    4.0565    0.0000 C   0  0  0  0  0  0  0  0  0  0  0  0
   15.6789    3.3432    0.0000 C   0  0  0  0  0  0  0  0  0  0  0  0
   14.3155    2.7178    0.0000 C   0  0  0  0  0  0  0  0  0  0  0  0
   12.9141    2.1828    0.0000 C   0  0  0  0  0  0  0  0  0  0  0  0
   11.4807    1.7407    0.0000 C   0  0  0  0  0  0  0  0  0  0  0  0
   10.0215    1.3933    0.0000 C   0  0  0  0  0  0  0  0  0  0  0  0
    8.5427    1.1420    0.0000 C   0  0  0  0  0  0  0  0  0  0  0  0
    7.0506    0.9880    0.0000 C   0  0  0  0  0  0  0  0  0  0  0  0
    5.5517    0.9319    0.0000 C   0  0  0  0  0  0  0  0  0  0  0  0
    4.0523    0.9740    0.0000 C   0  0  0  0  0  0  0  0  0  0  0  0
    2.5588    1.1140    0.0000 C   0  0  0  0  0  0  0  0  0  0  0  0
    1.0777    1.3515    0.0000 C   0  0  0  0  0  0  0  0  0  0  0  0
    1.7286    0.0000    0.0000 C   0  0  0  0  0  0  0  0  0  0  0  0
    1.0777   -1.3515    0.0000 C   0  0  0  0  0  0  0  0  0  0  0  0
   -0.3846   -1.6852    0.0000 C   0  0  0  0  0  0  0  0  0  0  0  0
   -1.5574   -0.7500    0.0000 C   0  0  0  0  0  0  0  0  0  0  0  0
   -1.5574    0.7500    0.0000 C   0  0  0  0  0  0  0  0  0  0  0  0
   -0.3846    1.6852    0.0000 C   0  0  0  0  0  0  0  0  0  0  0  0
   -1.8221    2.1139    0.0000 C   0  0  0  0  0  0  0  0  0  0  0  0
   -0.6670    3.0709    0.0000 C   0  0  0  0  0  0  0  0  0  0  0  0
   -0.9183    4.5498    0.0000 C   0  0  0  0  0  0  0  0  0  0  0  0
   -2.3246    5.0716    0.0000 C   0  0  0  0  0  0  0  0  0  0  0  0
   -3.4796    4.1146    0.0000 C   0  0  0  0  0  0  0  0  0  0  0  0
   -3.2284    2.6358    0.0000 C   0  0  0  0  0  0  0  0  0  0  0  0
  1  2  1  0
  2  3  1  0
  3  4  1  0
  4  5  1  0
  5  6  1  0
  6  7  1  0
  7  8  1  0
  8  9  1  0
  9 10  1  0
 10 11  1  0
 11 12  1  0
 12 13  1  0
 13 14  1  0
 14 15  1  0
 15 16  1  0
 16 17  1  0
 17 18  1  0
 18 19  1  0
 19 20  1  0
 20 21  1  0
 21 22  1  0
 22 23  1  0
 23 24  1  0
 24 25  1  0
 25 26  1  0
 26 27  1  0
 27 28  1  0
 28 29  1  0
 29 30  1  0
 30 31  1  0
 31 32  1  0
 32 33  1  0
 33 34  1  0
 34 35  1  0
 35 36  1  0
 36 37  1  0
 37 38  1  0
 38 39  1  0
 39 40  1  0
 40 41  1  0
 41 42  1  0
 42 43  1  0
 43 44  1  0
 44 45  1  0
 45 46  1  0
 46 47  1  0
 47 48  1  0
 48 49  1  0
 49 50  1  0
 50 51  1  0
 51 52  1  0
 52 53  1  0
 53 54  1  0
 54 55  1  0
 55 56  1  0
 56 57  1  0
 57 58  1  0
 58 59  1  0
 59 60  1  0
 60 61  1  0
 61 62  1  0
 62 63  1  0
 63 64  1  0
 64 65  1  0
 65 66  1  0
 66 67  1  0
 67 68  1  0
 68 69  1  0
 69 70  1  0
 70 71  1  0
 71 72  1  0
 72 73  1  0
 73 74  1  0
 74 75  1  0
 75 76  1  0
 76 77  1  0
 77 78  1  0
 78 79  1  0
 79 80  1  0
 80 81  1  0
 81 82  1  0
 82 83  1  0
 83 84  1  0
 84 85  1  0
 85 86  1  0
 86 87  1  0
 87 88  1  0
 88 89  1  0
 89 90  1  0
 90 91  1  0
 91 92  1  0
 92 93  1  0
 93 94  1  0
 94 95  1  0
 95 96  1  0
 96 97  1  0
 97 98  2  0
 98 99  1  0
 99100  2  0
100101  1  0
101102  2  0
102103  1  0
103104  2  0
104105  1  0
105106  2  0
106  2  1  0
100 94  1  0
106101  1  0
M  END
>  <Title>  (1083) 
idABNSgen10

$$$$

     RDKit          2D

 10 10  0  0  0  0  0  0  0  0999 V2000
    4.2760    2.5981    0.0000 C   0  0  0  0  0  0  0  0  0  0  0  0
    3.5260    1.2990    0.0000 C   0  0  0  0  0  0  0  0  0  0  0  0
    2.7760    0.0000    0.0000 C   0  0  0  0  0  0  0  0  0  0  0  0
    3.5260   -1.2990    0.0000 C   0  0  0  0  0  0  0  0  0  0  0  0
    1.2760    0.0000    0.0000 C   0  0  0  0  0  0  0  0  0  0  0  0
    0.3943    1.2135    0.0000 C   0  0  0  0  0  0  0  0  0  0  0  0
   -1.0323    0.7500    0.0000 C   0  0  0  0  0  0  0  0  0  0  0  0
   -1.0323   -0.7500    0.0000 C   0  0  0  0  0  0  0  0  0  0  0  0
   -2.2458   -1.6317    0.0000 C   0  0  0  0  0  0  0  0  0  0  0  0
    0.3943   -1.2135    0.0000 C   0  0  0  0  0  0  0  0  0  0  0  0
  1  2  3  0
  2  3  1  0
  3  4  1  0
  3  5  1  0
  5  6  2  0
  6  7  1  0
  7  8  1  0
  8  9  1  0
  8 10  1  0
 10  5  1  0
M  END
>  <Title>  (1084) 
idABNTgen10

$$$$

     RDKit          2D

  9  9  0  0  0  0  0  0  0  0999 V2000
    4.7286   -0.0000    0.0000 C   0  0  0  0  0  0  0  0  0  0  0  0
    3.2286   -0.0000    0.0000 C   0  0  0  0  0  0  0  0  0  0  0  0
    1.7286    0.0000    0.0000 C   0  0  0  0  0  0  0  0  0  0  0  0
    1.0777    1.3515    0.0000 C   0  0  0  0  0  0  0  0  0  0  0  0
   -0.3846    1.6852    0.0000 C   0  0  0  0  0  0  0  0  0  0  0  0
   -1.5574    0.7500    0.0000 C   0  0  0  0  0  0  0  0  0  0  0  0
   -1.5574   -0.7500    0.0000 C   0  0  0  0  0  0  0  0  0  0  0  0
   -0.3846   -1.6852    0.0000 C   0  0  0  0  0  0  0  0  0  0  0  0
    1.0777   -1.3515    0.0000 C   0  0  0  0  0  0  0  0  0  0  0  0
  1  2  3  0
  2  3  1  0
  3  4  1  0
  4  5  2  0
  5  6  1  0
  6  7  1  0
  7  8  1  0
  8  9  1  0
  9  3  1  0
M  END
>  <Title>  (1085) 
idABNUgen10

$$$$

     RDKit          2D

  9 10  0  0  0  0  0  0  0  0999 V2000
   -1.8107   -3.8597    0.0000 C   0  0  0  0  0  0  0  0  0  0  0  0
   -0.7500   -2.7990    0.0000 C   0  0  0  0  0  0  0  0  0  0  0  0
    0.7500   -2.7990    0.0000 C   0  0  0  0  0  0  0  0  0  0  0  0
    0.7500   -1.2990    0.0000 C   0  0  0  0  0  0  0  0  0  0  0  0
    1.5000    0.0000    0.0000 C   0  0  0  0  0  0  0  0  0  0  0  0
    0.7500    1.2990    0.0000 C   0  0  0  0  0  0  0  0  0  0  0  0
   -0.7500    1.2990    0.0000 C   0  0  0  0  0  0  0  0  0  0  0  0
   -1.5000    0.0000    0.0000 C   0  0  0  0  0  0  0  0  0  0  0  0
   -0.7500   -1.2990    0.0000 C   0  0  0  0  0  0  0  0  0  0  0  0
  1  2  1  0
  2  3  1  0
  3  4  1  0
  4  5  2  0
  5  6  1  0
  6  7  2  0
  7  8  1  0
  8  9  2  0
  9  2  1  0
  9  4  1  0
M  END
>  <Title>  (1086) 
idABNVgen10

$$$$

     RDKit          2D

 68 78  0  0  0  0  0  0  0  0999 V2000
    6.4958   -4.6081    0.0000 C   0  0  0  0  0  0  0  0  0  0  0  0
    5.0565   -5.0307    0.0000 C   0  0  0  0  0  0  0  0  0  0  0  0
    4.4334   -3.6662    0.0000 C   0  0  0  0  0  0  0  0  0  0  0  0
    3.4511   -2.5326    0.0000 C   0  0  0  0  0  0  0  0  0  0  0  0
    2.1892   -1.7216    0.0000 C   0  0  0  0  0  0  0  0  0  0  0  0
    2.8124   -0.3572    0.0000 C   0  0  0  0  0  0  0  0  0  0  0  0
    1.9423    0.8647    0.0000 O   0  0  0  0  0  0  0  0  0  0  0  0
    4.3056   -0.2146    0.0000 N   0  0  0  0  0  0  0  0  0  0  0  0
    4.9287    1.1498    0.0000 C   0  0  0  0  0  0  0  0  0  0  0  0
    6.4219    1.2924    0.0000 N   0  0  0  0  0  0  0  0  0  0  0  0
    7.0450    2.6569    0.0000 N   0  0  0  0  0  0  0  0  0  0  0  0
    6.1749    3.8787    0.0000 N   0  0  0  0  0  0  0  0  0  0  0  0
    4.6817    3.7362    0.0000 N   0  0  0  0  0  0  0  0  0  0  0  0
    4.0586    2.3717    0.0000 N   0  0  0  0  0  0  0  0  0  0  0  0
    0.7500   -1.2990    0.0000 C   0  0  0  0  0  0  0  0  0  0  0  0
    1.5000    0.0000    0.0000 C   0  0  0  0  0  0  0  0  0  0  0  0
    0.7500    1.2990    0.0000 C   0  0  0  0  0  0  0  0  0  0  0  0
   -0.7500    1.2990    0.0000 C   0  0  0  0  0  0  0  0  0  0  0  0
   -1.5000    0.0000    0.0000 C   0  0  0  0  0  0  0  0  0  0  0  0
   -0.7500   -1.2990    0.0000 C   0  0  0  0  0  0  0  0  0  0  0  0
   -2.1892   -1.7216    0.0000 C   0  0  0  0  0  0  0  0  0  0  0  0
   -2.2606   -0.2233    0.0000 C   0  0  0  0  0  0  0  0  0  0  0  0
   -3.5939    0.4640    0.0000 C   0  0  0  0  0  0  0  0  0  0  0  0
   -4.8557   -0.3470    0.0000 C   0  0  0  0  0  0  0  0  0  0  0  0
   -4.7844   -1.8453    0.0000 C   0  0  0  0  0  0  0  0  0  0  0  0
   -3.4511   -2.5326    0.0000 C   0  0  0  0  0  0  0  0  0  0  0  0
   -4.4334   -3.6662    0.0000 C   0  0  0  0  0  0  0  0  0  0  0  0
   -5.3035   -2.4444    0.0000 C   0  0  0  0  0  0  0  0  0  0  0  0
   -6.7967   -2.5869    0.0000 C   0  0  0  0  0  0  0  0  0  0  0  0
   -7.4198   -3.9514    0.0000 C   0  0  0  0  0  0  0  0  0  0  0  0
   -6.5497   -5.1733    0.0000 C   0  0  0  0  0  0  0  0  0  0  0  0
   -5.0565   -5.0307    0.0000 C   0  0  0  0  0  0  0  0  0  0  0  0
   -5.2700   -6.5154    0.0000 C   0  0  0  0  0  0  0  0  0  0  0  0
   -6.6626   -5.9579    0.0000 C   0  0  0  0  0  0  0  0  0  0  0  0
   -7.8416   -6.8851    0.0000 C   0  0  0  0  0  0  0  0  0  0  0  0
   -7.6282   -8.3699    0.0000 C   0  0  0  0  0  0  0  0  0  0  0  0
   -6.2356   -8.9274    0.0000 C   0  0  0  0  0  0  0  0  0  0  0  0
   -5.0565   -8.0001    0.0000 C   0  0  0  0  0  0  0  0  0  0  0  0
   -4.4334   -9.3646    0.0000 C   0  0  0  0  0  0  0  0  0  0  0  0
   -5.9063   -9.6485    0.0000 C   0  0  0  0  0  0  0  0  0  0  0  0
   -6.3969  -11.0660    0.0000 C   0  0  0  0  0  0  0  0  0  0  0  0
   -5.4146  -12.1996    0.0000 C   0  0  0  0  0  0  0  0  0  0  0  0
   -3.9417  -11.9157    0.0000 C   0  0  0  0  0  0  0  0  0  0  0  0
   -3.4511  -10.4982    0.0000 C   0  0  0  0  0  0  0  0  0  0  0  0
   -2.1892  -11.3092    0.0000 C   0  0  0  0  0  0  0  0  0  0  0  0
   -3.2748  -12.3443    0.0000 C   0  0  0  0  0  0  0  0  0  0  0  0
   -2.9212  -13.8020    0.0000 C   0  0  0  0  0  0  0  0  0  0  0  0
   -1.4820  -14.2246    0.0000 C   0  0  0  0  0  0  0  0  0  0  0  0
   -0.3964  -13.1895    0.0000 C   0  0  0  0  0  0  0  0  0  0  0  0
   -0.7500  -11.7318    0.0000 C   0  0  0  0  0  0  0  0  0  0  0  0
    0.7500  -11.7318    0.0000 C   0  0  0  0  0  0  0  0  0  0  0  0
    0.3964  -13.1895    0.0000 C   0  0  0  0  0  0  0  0  0  0  0  0
    1.4820  -14.2246    0.0000 C   0  0  0  0  0  0  0  0  0  0  0  0
    2.9212  -13.8020    0.0000 C   0  0  0  0  0  0  0  0  0  0  0  0
    3.2748  -12.3443    0.0000 C   0  0  0  0  0  0  0  0  0  0  0  0
    2.1892  -11.3092    0.0000 C   0  0  0  0  0  0  0  0  0  0  0  0
    3.4511  -10.4982    0.0000 C   0  0  0  0  0  0  0  0  0  0  0  0
    3.9417  -11.9157    0.0000 C   0  0  0  0  0  0  0  0  0  0  0  0
    5.4146  -12.1996    0.0000 C   0  0  0  0  0  0  0  0  0  0  0  0
    6.3969  -11.0660    0.0000 C   0  0  0  0  0  0  0  0  0  0  0  0
    5.9063   -9.6485    0.0000 C   0  0  0  0  0  0  0  0  0  0  0  0
    4.4334   -9.3646    0.0000 C   0  0  0  0  0  0  0  0  0  0  0  0
    5.0565   -8.0001    0.0000 C   0  0  0  0  0  0  0  0  0  0  0  0
    6.2356   -8.9274    0.0000 C   0  0  0  0  0  0  0  0  0  0  0  0
    7.6282   -8.3699    0.0000 C   0  0  0  0  0  0  0  0  0  0  0  0
    7.8416   -6.8851    0.0000 C   0  0  0  0  0  0  0  0  0  0  0  0
    6.6626   -5.9579    0.0000 C   0  0  0  0  0  0  0  0  0  0  0  0
    5.2700   -6.5154    0.0000 C   0  0  0  0  0  0  0  0  0  0  0  0
  1  2  1  0
  2  3  1  0
  3  4  2  0
  4  5  1  0
  5  6  1  0
  6  7  2  0
  6  8  1  0
  8  9  1  0
  9 10  2  0
 10 11  1  0
 11 12  2  0
 12 13  1  0
 13 14  2  0
  5 15  1  0
 15 16  2  0
 16 17  1  0
 17 18  2  0
 18 19  1  0
 19 20  2  0
 20 21  1  0
 21 22  2  0
 22 23  1  0
 23 24  2  0
 24 25  1  0
 25 26  2  0
 26 27  1  0
 27 28  2  0
 28 29  1  0
 29 30  2  0
 30 31  1  0
 31 32  2  0
 32 33  1  0
 33 34  2  0
 34 35  1  0
 35 36  2  0
 36 37  1  0
 37 38  2  0
 38 39  1  0
 39 40  2  0
 40 41  1  0
 41 42  2  0
 42 43  1  0
 43 44  2  0
 44 45  1  0
 45 46  2  0
 46 47  1  0
 47 48  2  0
 48 49  1  0
 49 50  2  0
 50 51  1  0
 51 52  2  0
 52 53  1  0
 53 54  2  0
 54 55  1  0
 55 56  2  0
 56 57  1  0
 57 58  2  0
 58 59  1  0
 59 60  2  0
 60 61  1  0
 61 62  2  0
 62 63  1  0
 63 64  2  0
 64 65  1  0
 65 66  2  0
 66 67  1  0
 67 68  2  0
 68  2  1  0
 14  9  1  0
 20 15  1  0
 26 21  1  0
 32 27  1  0
 38 33  1  0
 44 39  1  0
 50 45  1  0
 56 51  1  0
 62 57  1  0
 68 63  1  0
M  END
>  <Title>  (1087) 
idABNWgen10

$$$$

     RDKit          2D

 15 15  0  0  0  0  0  0  0  0999 V2000
   12.5260   -1.2990    0.0000 C   0  0  0  0  0  0  0  0  0  0  0  0
   11.7760   -0.0000    0.0000 C   0  0  0  0  0  0  0  0  0  0  0  0
   10.2760   -0.0000    0.0000 C   0  0  0  0  0  0  0  0  0  0  0  0
    8.7760   -0.0000    0.0000 C   0  0  0  0  0  0  0  0  0  0  0  0
    7.2760   -0.0000    0.0000 C   0  0  0  0  0  0  0  0  0  0  0  0
    5.7760   -0.0000    0.0000 C   0  0  0  0  0  0  0  0  0  0  0  0
    4.2760   -0.0000    0.0000 C   0  0  0  0  0  0  0  0  0  0  0  0
    2.7760    0.0000    0.0000 C   0  0  0  0  0  0  0  0  0  0  0  0
    1.2760    0.0000    0.0000 C   0  0  0  0  0  0  0  0  0  0  0  0
    0.3943    1.2135    0.0000 C   0  0  0  0  0  0  0  0  0  0  0  0
    0.8578    2.6401    0.0000 C   0  0  0  0  0  0  0  0  0  0  0  0
    1.3213    4.0667    0.0000 N   0  0  0  0  0  0  0  0  0  0  0  0
   -1.0323    0.7500    0.0000 C   0  0  0  0  0  0  0  0  0  0  0  0
   -1.0323   -0.7500    0.0000 C   0  0  0  0  0  0  0  0  0  0  0  0
    0.3943   -1.2135    0.0000 C   0  0  0  0  0  0  0  0  0  0  0  0
  1  2  2  0
  2  3  1  0
  3  4  3  0
  4  5  1  0
  5  6  3  0
  6  7  1  0
  7  8  3  0
  8  9  1  0
  9 10  2  0
 10 11  1  0
 11 12  3  0
 10 13  1  0
 13 14  2  0
 14 15  1  0
 15  9  1  0
M  END
>  <Title>  (1088) 
idABNXgen10

$$$$

     RDKit          2D

105106  0  0  0  0  0  0  0  0999 V2000
   11.1663   -4.4642    0.0000 C   0  0  0  0  0  0  0  0  0  0  0  0
   11.9634   -4.4695    0.0000 C   0  0  0  0  0  0  0  0  0  0  0  0
   12.0406   -5.9676    0.0000 C   0  0  0  0  0  0  0  0  0  0  0  0
   12.2911   -7.4465    0.0000 C   0  0  0  0  0  0  0  0  0  0  0  0
   12.7117   -8.8863    0.0000 C   0  0  0  0  0  0  0  0  0  0  0  0
   13.2965  -10.2676    0.0000 C   0  0  0  0  0  0  0  0  0  0  0  0
   14.0378  -11.5716    0.0000 C   0  0  0  0  0  0  0  0  0  0  0  0
   14.9255  -12.7808    0.0000 C   0  0  0  0  0  0  0  0  0  0  0  0
   15.9475  -13.8788    0.0000 C   0  0  0  0  0  0  0  0  0  0  0  0
   17.0900  -14.8506    0.0000 C   0  0  0  0  0  0  0  0  0  0  0  0
   18.3377  -15.6833    0.0000 C   0  0  0  0  0  0  0  0  0  0  0  0
   19.6736  -16.3655    0.0000 C   0  0  0  0  0  0  0  0  0  0  0  0
   21.0797  -16.8880    0.0000 C   0  0  0  0  0  0  0  0  0  0  0  0
   22.5369  -17.2437    0.0000 C   0  0  0  0  0  0  0  0  0  0  0  0
   24.0255  -17.4278    0.0000 C   0  0  0  0  0  0  0  0  0  0  0  0
   25.5255  -17.4379    0.0000 C   0  0  0  0  0  0  0  0  0  0  0  0
   27.0165  -17.2737    0.0000 C   0  0  0  0  0  0  0  0  0  0  0  0
   28.4784  -16.9376    0.0000 C   0  0  0  0  0  0  0  0  0  0  0  0
   29.8913  -16.4341    0.0000 C   0  0  0  0  0  0  0  0  0  0  0  0
   31.2362  -15.7699    0.0000 C   0  0  0  0  0  0  0  0  0  0  0  0
   32.4950  -14.9540    0.0000 C   0  0  0  0  0  0  0  0  0  0  0  0
   33.6505  -13.9976    0.0000 C   0  0  0  0  0  0  0  0  0  0  0  0
   34.6872  -12.9135    0.0000 C   0  0  0  0  0  0  0  0  0  0  0  0
   35.5909  -11.7163    0.0000 C   0  0  0  0  0  0  0  0  0  0  0  0
   36.3496  -10.4224    0.0000 C   0  0  0  0  0  0  0  0  0  0  0  0
   36.9530   -9.0490    0.0000 C   0  0  0  0  0  0  0  0  0  0  0  0
   37.3928   -7.6150    0.0000 C   0  0  0  0  0  0  0  0  0  0  0  0
   37.6632   -6.1396    0.0000 C   0  0  0  0  0  0  0  0  0  0  0  0
   37.7605   -4.6427    0.0000 C   0  0  0  0  0  0  0  0  0  0  0  0
   37.6833   -3.1447    0.0000 C   0  0  0  0  0  0  0  0  0  0  0  0
   37.4328   -1.6658    0.0000 C   0  0  0  0  0  0  0  0  0  0  0  0
   37.0122   -0.2259    0.0000 C   0  0  0  0  0  0  0  0  0  0  0  0
   36.4274    1.1554    0.0000 C   0  0  0  0  0  0  0  0  0  0  0  0
   35.6861    2.4594    0.0000 C   0  0  0  0  0  0  0  0  0  0  0  0
   34.7985    3.6686    0.0000 C   0  0  0  0  0  0  0  0  0  0  0  0
   33.7765    4.7665    0.0000 C   0  0  0  0  0  0  0  0  0  0  0  0
   32.6339    5.7384    0.0000 C   0  0  0  0  0  0  0  0  0  0  0  0
   31.3862    6.5710    0.0000 C   0  0  0  0  0  0  0  0  0  0  0  0
   30.0503    7.2532    0.0000 C   0  0  0  0  0  0  0  0  0  0  0  0
   28.6442    7.7757    0.0000 C   0  0  0  0  0  0  0  0  0  0  0  0
   27.1870    8.1314    0.0000 C   0  0  0  0  0  0  0  0  0  0  0  0
   25.6984    8.3156    0.0000 C   0  0  0  0  0  0  0  0  0  0  0  0
   24.1984    8.3256    0.0000 C   0  0  0  0  0  0  0  0  0  0  0  0
   22.7074    8.1615    0.0000 C   0  0  0  0  0  0  0  0  0  0  0  0
   21.2456    7.8254    0.0000 C   0  0  0  0  0  0  0  0  0  0  0  0
   19.8326    7.3218    0.0000 C   0  0  0  0  0  0  0  0  0  0  0  0
   18.4877    6.6576    0.0000 C   0  0  0  0  0  0  0  0  0  0  0  0
   17.2289    5.8418    0.0000 C   0  0  0  0  0  0  0  0  0  0  0  0
   16.0734    4.8854    0.0000 C   0  0  0  0  0  0  0  0  0  0  0  0
   15.0368    3.8012    0.0000 C   0  0  0  0  0  0  0  0  0  0  0  0
   14.1330    2.6041    0.0000 C   0  0  0  0  0  0  0  0  0  0  0  0
   13.3743    1.3101    0.0000 C   0  0  0  0  0  0  0  0  0  0  0  0
   12.7709   -0.0632    0.0000 C   0  0  0  0  0  0  0  0  0  0  0  0
   12.3311   -1.4973    0.0000 C   0  0  0  0  0  0  0  0  0  0  0  0
   11.7216   -0.0000    0.0000 C   0  0  0  0  0  0  0  0  0  0  0  0
   11.6362    1.4129    0.0000 C   0  0  0  0  0  0  0  0  0  0  0  0
   11.3810    2.8052    0.0000 C   0  0  0  0  0  0  0  0  0  0  0  0
   10.9599    4.1566    0.0000 C   0  0  0  0  0  0  0  0  0  0  0  0
   10.3790    5.4473    0.0000 C   0  0  0  0  0  0  0  0  0  0  0  0
    9.6467    6.6587    0.0000 C   0  0  0  0  0  0  0  0  0  0  0  0
    8.7738    7.7729    0.0000 C   0  0  0  0  0  0  0  0  0  0  0  0
    7.7729    8.7738    0.0000 C   0  0  0  0  0  0  0  0  0  0  0  0
    6.6587    9.6467    0.0000 C   0  0  0  0  0  0  0  0  0  0  0  0
    5.4473   10.3790    0.0000 C   0  0  0  0  0  0  0  0  0  0  0  0
    4.1566   10.9599    0.0000 C   0  0  0  0  0  0  0  0  0  0  0  0
    2.8052   11.3810    0.0000 C   0  0  0  0  0  0  0  0  0  0  0  0
    1.4129   11.6362    0.0000 C   0  0  0  0  0  0  0  0  0  0  0  0
    0.0000   11.7216    0.0000 C   0  0  0  0  0  0  0  0  0  0  0  0
   -1.4129   11.6362    0.0000 C   0  0  0  0  0  0  0  0  0  0  0  0
   -2.8052   11.3810    0.0000 C   0  0  0  0  0  0  0  0  0  0  0  0
   -4.1566   10.9599    0.0000 C   0  0  0  0  0  0  0  0  0  0  0  0
   -5.4473   10.3790    0.0000 C   0  0  0  0  0  0  0  0  0  0  0  0
   -6.6587    9.6467    0.0000 C   0  0  0  0  0  0  0  0  0  0  0  0
   -7.7729    8.7738    0.0000 C   0  0  0  0  0  0  0  0  0  0  0  0
   -8.7738    7.7729    0.0000 C   0  0  0  0  0  0  0  0  0  0  0  0
   -9.6467    6.6587    0.0000 C   0  0  0  0  0  0  0  0  0  0  0  0
  -10.3790    5.4473    0.0000 C   0  0  0  0  0  0  0  0  0  0  0  0
  -10.9599    4.1566    0.0000 C   0  0  0  0  0  0  0  0  0  0  0  0
  -11.3810    2.8052    0.0000 C   0  0  0  0  0  0  0  0  0  0  0  0
  -11.6362    1.4129    0.0000 C   0  0  0  0  0  0  0  0  0  0  0  0
  -11.7216    0.0000    0.0000 C   0  0  0  0  0  0  0  0  0  0  0  0
  -11.6362   -1.4129    0.0000 C   0  0  0  0  0  0  0  0  0  0  0  0
  -11.3810   -2.8052    0.0000 C   0  0  0  0  0  0  0  0  0  0  0  0
  -10.9599   -4.1566    0.0000 C   0  0  0  0  0  0  0  0  0  0  0  0
  -10.3790   -5.4473    0.0000 C   0  0  0  0  0  0  0  0  0  0  0  0
   -9.6467   -6.6587    0.0000 C   0  0  0  0  0  0  0  0  0  0  0  0
   -8.7738   -7.7729    0.0000 C   0  0  0  0  0  0  0  0  0  0  0  0
   -7.7729   -8.7738    0.0000 C   0  0  0  0  0  0  0  0  0  0  0  0
   -6.6587   -9.6467    0.0000 C   0  0  0  0  0  0  0  0  0  0  0  0
   -5.4473  -10.3790    0.0000 C   0  0  0  0  0  0  0  0  0  0  0  0
   -4.1566  -10.9599    0.0000 C   0  0  0  0  0  0  0  0  0  0  0  0
   -2.8052  -11.3810    0.0000 C   0  0  0  0  0  0  0  0  0  0  0  0
   -1.4129  -11.6362    0.0000 C   0  0  0  0  0  0  0  0  0  0  0  0
   -0.0000  -11.7216    0.0000 C   0  0  0  0  0  0  0  0  0  0  0  0
    1.4129  -11.6362    0.0000 C   0  0  0  0  0  0  0  0  0  0  0  0
    2.8052  -11.3810    0.0000 C   0  0  0  0  0  0  0  0  0  0  0  0
    4.1566  -10.9599    0.0000 C   0  0  0  0  0  0  0  0  0  0  0  0
    5.4473  -10.3790    0.0000 C   0  0  0  0  0  0  0  0  0  0  0  0
    6.6587   -9.6467    0.0000 C   0  0  0  0  0  0  0  0  0  0  0  0
    7.7729   -8.7738    0.0000 C   0  0  0  0  0  0  0  0  0  0  0  0
    8.7738   -7.7729    0.0000 C   0  0  0  0  0  0  0  0  0  0  0  0
    9.6467   -6.6587    0.0000 C   0  0  0  0  0  0  0  0  0  0  0  0
   10.3790   -5.4473    0.0000 C   0  0  0  0  0  0  0  0  0  0  0  0
   10.9599   -4.1566    0.0000 C   0  0  0  0  0  0  0  0  0  0  0  0
   12.0607   -2.9727    0.0000 C   0  0  0  0  0  0  0  0  0  0  0  0
  1  2  1  0
  2  3  1  0
  3  4  1  0
  4  5  1  0
  5  6  1  0
  6  7  1  0
  7  8  1  0
  8  9  1  0
  9 10  1  0
 10 11  1  0
 11 12  1  0
 12 13  1  0
 13 14  1  0
 14 15  1  0
 15 16  1  0
 16 17  1  0
 17 18  1  0
 18 19  1  0
 19 20  1  0
 20 21  1  0
 21 22  1  0
 22 23  1  0
 23 24  1  0
 24 25  1  0
 25 26  1  0
 26 27  1  0
 27 28  1  0
 28 29  1  0
 29 30  1  0
 30 31  1  0
 31 32  1  0
 32 33  1  0
 33 34  1  0
 34 35  1  0
 35 36  1  0
 36 37  1  0
 37 38  1  0
 38 39  1  0
 39 40  1  0
 40 41  1  0
 41 42  1  0
 42 43  1  0
 43 44  1  0
 44 45  1  0
 45 46  1  0
 46 47  1  0
 47 48  1  0
 48 49  1  0
 49 50  1  0
 50 51  1  0
 51 52  1  0
 52 53  1  0
 53 54  1  0
 54 55  1  0
 55 56  1  0
 56 57  1  0
 57 58  1  0
 58 59  1  0
 59 60  1  0
 60 61  1  0
 61 62  1  0
 62 63  1  0
 63 64  1  0
 64 65  1  0
 65 66  1  0
 66 67  1  0
 67 68  1  0
 68 69  1  0
 69 70  1  0
 70 71  1  0
 71 72  1  0
 72 73  1  0
 73 74  1  0
 74 75  1  0
 75 76  1  0
 76 77  1  0
 77 78  1  0
 78 79  1  0
 79 80  1  0
 80 81  1  0
 81 82  1  0
 82 83  1  0
 83 84  1  0
 84 85  1  0
 85 86  1  0
 86 87  1  0
 87 88  1  0
 88 89  1  0
 89 90  1  0
 90 91  1  0
 91 92  1  0
 92 93  1  0
 93 94  1  0
 94 95  2  0
 95 96  1  0
 96 97  2  0
 97 98  1  0
 98 99  2  0
 99100  1  0
100101  2  0
101102  1  0
102103  2  0
103104  1  0
104105  2  0
105  2  1  0
105 54  1  0
M  END
>  <Title>  (1089) 
idABNYgen10

$$$$

     RDKit          2D

  8  8  0  0  0  0  0  0  0  0999 V2000
    3.2286   -0.0000    0.0000 C   0  0  0  0  0  0  0  0  0  0  0  0
    1.7286    0.0000    0.0000 C   0  0  0  0  0  0  0  0  0  0  0  0
    1.0777    1.3515    0.0000 C   0  0  0  0  0  0  0  0  0  0  0  0
   -0.3846    1.6852    0.0000 C   0  0  0  0  0  0  0  0  0  0  0  0
   -1.5574    0.7500    0.0000 C   0  0  0  0  0  0  0  0  0  0  0  0
   -1.5574   -0.7500    0.0000 C   0  0  0  0  0  0  0  0  0  0  0  0
   -0.3846   -1.6852    0.0000 C   0  0  0  0  0  0  0  0  0  0  0  0
    1.0777   -1.3515    0.0000 C   0  0  0  0  0  0  0  0  0  0  0  0
  1  2  1  0
  2  3  1  0
  3  4  2  0
  4  5  1  0
  5  6  1  0
  6  7  1  0
  7  8  2  0
  8  2  1  0
M  END
>  <Title>  (1090) 
idABNZgen10

$$$$

     RDKit          2D

 14 14  0  0  0  0  0  0  0  0999 V2000
   13.2760   -0.0000    0.0000 C   0  0  0  0  0  0  0  0  0  0  0  0
   11.7760   -0.0000    0.0000 C   0  0  0  0  0  0  0  0  0  0  0  0
   10.2760   -0.0000    0.0000 C   0  0  0  0  0  0  0  0  0  0  0  0
    8.7760   -0.0000    0.0000 C   0  0  0  0  0  0  0  0  0  0  0  0
    7.2760   -0.0000    0.0000 C   0  0  0  0  0  0  0  0  0  0  0  0
    5.7760   -0.0000    0.0000 C   0  0  0  0  0  0  0  0  0  0  0  0
    4.2760   -0.0000    0.0000 C   0  0  0  0  0  0  0  0  0  0  0  0
    2.7760    0.0000    0.0000 C   0  0  0  0  0  0  0  0  0  0  0  0
    1.2760    0.0000    0.0000 C   0  0  0  0  0  0  0  0  0  0  0  0
    0.3943    1.2135    0.0000 C   0  0  0  0  0  0  0  0  0  0  0  0
   -1.0323    0.7500    0.0000 C   0  0  0  0  0  0  0  0  0  0  0  0
   -1.0323   -0.7500    0.0000 C   0  0  0  0  0  0  0  0  0  0  0  0
   -2.2458   -1.6317    0.0000 C   0  0  0  0  0  0  0  0  0  0  0  0
    0.3943   -1.2135    0.0000 N   0  0  0  0  0  0  0  0  0  0  0  0
  1  2  3  0
  2  3  1  0
  3  4  3  0
  4  5  1  0
  5  6  3  0
  6  7  1  0
  7  8  3  0
  8  9  1  0
  9 10  2  0
 10 11  1  0
 11 12  2  0
 12 13  1  0
 12 14  1  0
 14  9  1  0
M  END
>  <Title>  (1091) 
idABOAgen10

$$$$

     RDKit          2D

  8  7  0  0  0  0  0  0  0  0999 V2000
    0.0000    0.0000    0.0000 C   0  0  0  0  0  0  0  0  0  0  0  0
   -0.0000   -1.5000    0.0000 C   0  0  0  0  0  0  0  0  0  0  0  0
   -0.0000   -3.0000    0.0000 C   0  0  0  0  0  0  0  0  0  0  0  0
    1.2990   -3.7500    0.0000 C   0  0  0  0  0  0  0  0  0  0  0  0
   -1.2990   -3.7500    0.0000 C   0  0  0  0  0  0  0  0  0  0  0  0
   -2.5981   -3.0000    0.0000 C   0  0  0  0  0  0  0  0  0  0  0  0
   -3.8971   -3.7500    0.0000 C   0  0  0  0  0  0  0  0  0  0  0  0
   -5.1962   -3.0000    0.0000 C   0  0  0  0  0  0  0  0  0  0  0  0
  1  2  3  0
  2  3  1  0
  3  4  1  0
  3  5  2  3
  5  6  1  0
  6  7  2  3
  7  8  1  0
M  END
>  <Title>  (1092) 
idABOBgen10

$$$$

     RDKit          2D

 79 79  0  0  0  0  0  0  0  0999 V2000
   21.3875   -0.0000    0.0000 C   0  0  0  0  0  0  0  0  0  0  0  0
   19.8875    0.0000    0.0000 C   0  0  0  0  0  0  0  0  0  0  0  0
   18.3875    0.0000    0.0000 C   0  0  0  0  0  0  0  0  0  0  0  0
   18.3263    1.4988    0.0000 C   0  0  0  0  0  0  0  0  0  0  0  0
   18.1432    2.9875    0.0000 C   0  0  0  0  0  0  0  0  0  0  0  0
   17.8393    4.4564    0.0000 C   0  0  0  0  0  0  0  0  0  0  0  0
   17.4167    5.8957    0.0000 C   0  0  0  0  0  0  0  0  0  0  0  0
   16.8782    7.2957    0.0000 C   0  0  0  0  0  0  0  0  0  0  0  0
   16.2274    8.6471    0.0000 C   0  0  0  0  0  0  0  0  0  0  0  0
   15.4685    9.9410    0.0000 C   0  0  0  0  0  0  0  0  0  0  0  0
   14.6068   11.1688    0.0000 C   0  0  0  0  0  0  0  0  0  0  0  0
   13.6478   12.3222    0.0000 C   0  0  0  0  0  0  0  0  0  0  0  0
   12.5980   13.3936    0.0000 C   0  0  0  0  0  0  0  0  0  0  0  0
   11.4644   14.3759    0.0000 C   0  0  0  0  0  0  0  0  0  0  0  0
   10.2545   15.2625    0.0000 C   0  0  0  0  0  0  0  0  0  0  0  0
    8.9763   16.0476    0.0000 C   0  0  0  0  0  0  0  0  0  0  0  0
    7.6384   16.7259    0.0000 C   0  0  0  0  0  0  0  0  0  0  0  0
    6.2497   17.2928    0.0000 C   0  0  0  0  0  0  0  0  0  0  0  0
    4.8194   17.7447    0.0000 C   0  0  0  0  0  0  0  0  0  0  0  0
    3.3570   18.0785    0.0000 C   0  0  0  0  0  0  0  0  0  0  0  0
    1.8723   18.2919    0.0000 C   0  0  0  0  0  0  0  0  0  0  0  0
    0.3751   18.3837    0.0000 C   0  0  0  0  0  0  0  0  0  0  0  0
   -1.1246   18.3531    0.0000 C   0  0  0  0  0  0  0  0  0  0  0  0
   -2.6168   18.2003    0.0000 C   0  0  0  0  0  0  0  0  0  0  0  0
   -4.0916   17.9265    0.0000 C   0  0  0  0  0  0  0  0  0  0  0  0
   -5.5392   17.5333    0.0000 C   0  0  0  0  0  0  0  0  0  0  0  0
   -6.9499   17.0235    0.0000 C   0  0  0  0  0  0  0  0  0  0  0  0
   -8.3143   16.4004    0.0000 C   0  0  0  0  0  0  0  0  0  0  0  0
   -9.6234   15.6681    0.0000 C   0  0  0  0  0  0  0  0  0  0  0  0
  -10.8685   14.8316    0.0000 C   0  0  0  0  0  0  0  0  0  0  0  0
  -12.0412   13.8963    0.0000 C   0  0  0  0  0  0  0  0  0  0  0  0
  -13.1339   12.8686    0.0000 C   0  0  0  0  0  0  0  0  0  0  0  0
  -14.1391   11.7553    0.0000 C   0  0  0  0  0  0  0  0  0  0  0  0
  -15.0502   10.5637    0.0000 C   0  0  0  0  0  0  0  0  0  0  0  0
  -15.8612    9.3018    0.0000 C   0  0  0  0  0  0  0  0  0  0  0  0
  -16.5666    7.9780    0.0000 C   0  0  0  0  0  0  0  0  0  0  0  0
  -17.1617    6.6012    0.0000 C   0  0  0  0  0  0  0  0  0  0  0  0
  -17.6427    5.1804    0.0000 C   0  0  0  0  0  0  0  0  0  0  0  0
  -18.0062    3.7251    0.0000 C   0  0  0  0  0  0  0  0  0  0  0  0
  -18.2499    2.2450    0.0000 C   0  0  0  0  0  0  0  0  0  0  0  0
  -18.3722    0.7500    0.0000 C   0  0  0  0  0  0  0  0  0  0  0  0
  -18.3722   -0.7500    0.0000 C   0  0  0  0  0  0  0  0  0  0  0  0
  -18.2499   -2.2450    0.0000 C   0  0  0  0  0  0  0  0  0  0  0  0
  -18.0062   -3.7251    0.0000 C   0  0  0  0  0  0  0  0  0  0  0  0
  -17.6427   -5.1804    0.0000 C   0  0  0  0  0  0  0  0  0  0  0  0
  -17.1617   -6.6012    0.0000 C   0  0  0  0  0  0  0  0  0  0  0  0
  -16.5666   -7.9780    0.0000 C   0  0  0  0  0  0  0  0  0  0  0  0
  -15.8612   -9.3018    0.0000 C   0  0  0  0  0  0  0  0  0  0  0  0
  -15.0502  -10.5637    0.0000 C   0  0  0  0  0  0  0  0  0  0  0  0
  -14.1391  -11.7553    0.0000 C   0  0  0  0  0  0  0  0  0  0  0  0
  -13.1339  -12.8686    0.0000 C   0  0  0  0  0  0  0  0  0  0  0  0
  -12.0412  -13.8963    0.0000 C   0  0  0  0  0  0  0  0  0  0  0  0
  -10.8685  -14.8316    0.0000 C   0  0  0  0  0  0  0  0  0  0  0  0
   -9.6234  -15.6681    0.0000 C   0  0  0  0  0  0  0  0  0  0  0  0
   -8.3143  -16.4004    0.0000 C   0  0  0  0  0  0  0  0  0  0  0  0
   -6.9499  -17.0235    0.0000 C   0  0  0  0  0  0  0  0  0  0  0  0
   -5.5392  -17.5333    0.0000 C   0  0  0  0  0  0  0  0  0  0  0  0
   -4.0916  -17.9265    0.0000 C   0  0  0  0  0  0  0  0  0  0  0  0
   -2.6168  -18.2003    0.0000 C   0  0  0  0  0  0  0  0  0  0  0  0
   -1.1246  -18.3531    0.0000 C   0  0  0  0  0  0  0  0  0  0  0  0
    0.3751  -18.3837    0.0000 C   0  0  0  0  0  0  0  0  0  0  0  0
    1.8723  -18.2919    0.0000 C   0  0  0  0  0  0  0  0  0  0  0  0
    3.3570  -18.0785    0.0000 C   0  0  0  0  0  0  0  0  0  0  0  0
    4.8194  -17.7447    0.0000 C   0  0  0  0  0  0  0  0  0  0  0  0
    6.2497  -17.2928    0.0000 C   0  0  0  0  0  0  0  0  0  0  0  0
    7.6384  -16.7259    0.0000 C   0  0  0  0  0  0  0  0  0  0  0  0
    8.9763  -16.0476    0.0000 C   0  0  0  0  0  0  0  0  0  0  0  0
   10.2545  -15.2625    0.0000 C   0  0  0  0  0  0  0  0  0  0  0  0
   11.4644  -14.3759    0.0000 C   0  0  0  0  0  0  0  0  0  0  0  0
   12.5980  -13.3936    0.0000 C   0  0  0  0  0  0  0  0  0  0  0  0
   13.6478  -12.3222    0.0000 C   0  0  0  0  0  0  0  0  0  0  0  0
   14.6068  -11.1688    0.0000 C   0  0  0  0  0  0  0  0  0  0  0  0
   15.4685   -9.9410    0.0000 C   0  0  0  0  0  0  0  0  0  0  0  0
   16.2274   -8.6471    0.0000 C   0  0  0  0  0  0  0  0  0  0  0  0
   16.8782   -7.2957    0.0000 C   0  0  0  0  0  0  0  0  0  0  0  0
   17.4167   -5.8957    0.0000 C   0  0  0  0  0  0  0  0  0  0  0  0
   17.8393   -4.4564    0.0000 C   0  0  0  0  0  0  0  0  0  0  0  0
   18.1432   -2.9875    0.0000 C   0  0  0  0  0  0  0  0  0  0  0  0
   18.3263   -1.4988    0.0000 C   0  0  0  0  0  0  0  0  0  0  0  0
  1  2  3  0
  2  3  1  0
  3  4  1  0
  4  5  1  0
  5  6  1  0
  6  7  1  0
  7  8  1  0
  8  9  1  0
  9 10  1  0
 10 11  1  0
 11 12  1  0
 12 13  1  0
 13 14  1  0
 14 15  1  0
 15 16  1  0
 16 17  1  0
 17 18  1  0
 18 19  1  0
 19 20  1  0
 20 21  1  0
 21 22  1  0
 22 23  1  0
 23 24  1  0
 24 25  1  0
 25 26  1  0
 26 27  1  0
 27 28  1  0
 28 29  1  0
 29 30  1  0
 30 31  1  0
 31 32  1  0
 32 33  1  0
 33 34  1  0
 34 35  1  0
 35 36  1  0
 36 37  1  0
 37 38  1  0
 38 39  1  0
 39 40  1  0
 40 41  1  0
 41 42  1  0
 42 43  1  0
 43 44  1  0
 44 45  1  0
 45 46  1  0
 46 47  1  0
 47 48  1  0
 48 49  1  0
 49 50  1  0
 50 51  1  0
 51 52  1  0
 52 53  1  0
 53 54  1  0
 54 55  1  0
 55 56  1  0
 56 57  1  0
 57 58  1  0
 58 59  1  0
 59 60  1  0
 60 61  1  0
 61 62  1  0
 62 63  1  0
 63 64  1  0
 64 65  1  0
 65 66  1  0
 66 67  1  0
 67 68  1  0
 68 69  1  0
 69 70  1  0
 70 71  1  0
 71 72  1  0
 72 73  1  0
 73 74  1  0
 74 75  1  0
 75 76  1  0
 76 77  1  0
 77 78  1  0
 78 79  1  0
 79  3  1  0
M  END
>  <Title>  (1093) 
idABOCgen10

$$$$

     RDKit          2D

 63 72  0  0  0  0  0  0  0  0999 V2000
    5.8713   -7.2804    0.0000 C   0  0  0  0  0  0  0  0  0  0  0  0
    4.4172   -6.9121    0.0000 C   0  0  0  0  0  0  0  0  0  0  0  0
    4.5411   -5.4173    0.0000 N   0  0  0  0  0  0  0  0  0  0  0  0
    4.1729   -3.9632    0.0000 C   0  0  0  0  0  0  0  0  0  0  0  0
    3.3524   -2.7074    0.0000 C   0  0  0  0  0  0  0  0  0  0  0  0
    2.1687   -1.7861    0.0000 C   0  0  0  0  0  0  0  0  0  0  0  0
    2.8826   -0.4669    0.0000 N   0  0  0  0  0  0  0  0  0  0  0  0
    2.2350    0.8861    0.0000 C   0  0  0  0  0  0  0  0  0  0  0  0
    3.3217    1.9201    0.0000 C   0  0  0  0  0  0  0  0  0  0  0  0
    4.6409    1.2062    0.0000 N   0  0  0  0  0  0  0  0  0  0  0  0
    5.9939    1.8539    0.0000 C   0  0  0  0  0  0  0  0  0  0  0  0
    6.1095    3.3494    0.0000 O   0  0  0  0  0  0  0  0  0  0  0  0
    7.2312    1.0059    0.0000 N   0  0  0  0  0  0  0  0  0  0  0  0
    8.5842    1.6536    0.0000 C   0  0  0  0  0  0  0  0  0  0  0  0
    9.8216    0.8057    0.0000 N   0  0  0  0  0  0  0  0  0  0  0  0
   11.1745    1.4533    0.0000 N   0  0  0  0  0  0  0  0  0  0  0  0
   11.2902    2.9488    0.0000 N   0  0  0  0  0  0  0  0  0  0  0  0
   10.0528    3.7967    0.0000 N   0  0  0  0  0  0  0  0  0  0  0  0
    8.6998    3.1491    0.0000 N   0  0  0  0  0  0  0  0  0  0  0  0
    4.3695   -0.2690    0.0000 C   0  0  0  0  0  0  0  0  0  0  0  0
    5.4036   -1.3557    0.0000 O   0  0  0  0  0  0  0  0  0  0  0  0
    0.7500   -1.2990    0.0000 C   0  0  0  0  0  0  0  0  0  0  0  0
    1.5000    0.0000    0.0000 C   0  0  0  0  0  0  0  0  0  0  0  0
    0.7500    1.2990    0.0000 C   0  0  0  0  0  0  0  0  0  0  0  0
   -0.7500    1.2990    0.0000 C   0  0  0  0  0  0  0  0  0  0  0  0
   -1.5000    0.0000    0.0000 C   0  0  0  0  0  0  0  0  0  0  0  0
   -0.7500   -1.2990    0.0000 C   0  0  0  0  0  0  0  0  0  0  0  0
   -2.1687   -1.7861    0.0000 C   0  0  0  0  0  0  0  0  0  0  0  0
   -2.3748   -0.3003    0.0000 C   0  0  0  0  0  0  0  0  0  0  0  0
   -3.7645    0.2642    0.0000 C   0  0  0  0  0  0  0  0  0  0  0  0
   -4.9482   -0.6572    0.0000 C   0  0  0  0  0  0  0  0  0  0  0  0
   -4.7422   -2.1429    0.0000 C   0  0  0  0  0  0  0  0  0  0  0  0
   -3.3524   -2.7074    0.0000 C   0  0  0  0  0  0  0  0  0  0  0  0
   -4.1729   -3.9632    0.0000 C   0  0  0  0  0  0  0  0  0  0  0  0
   -5.2480   -2.9172    0.0000 C   0  0  0  0  0  0  0  0  0  0  0  0
   -6.6914   -3.3254    0.0000 C   0  0  0  0  0  0  0  0  0  0  0  0
   -7.0597   -4.7795    0.0000 C   0  0  0  0  0  0  0  0  0  0  0  0
   -5.9845   -5.8254    0.0000 C   0  0  0  0  0  0  0  0  0  0  0  0
   -4.5411   -5.4173    0.0000 C   0  0  0  0  0  0  0  0  0  0  0  0
   -4.4172   -6.9121    0.0000 C   0  0  0  0  0  0  0  0  0  0  0  0
   -5.9081   -6.7471    0.0000 C   0  0  0  0  0  0  0  0  0  0  0  0
   -6.7965   -7.9558    0.0000 C   0  0  0  0  0  0  0  0  0  0  0  0
   -6.1939   -9.3294    0.0000 C   0  0  0  0  0  0  0  0  0  0  0  0
   -4.7030   -9.4944    0.0000 C   0  0  0  0  0  0  0  0  0  0  0  0
   -3.8147   -8.2858    0.0000 C   0  0  0  0  0  0  0  0  0  0  0  0
   -2.7988   -9.3894    0.0000 C   0  0  0  0  0  0  0  0  0  0  0  0
   -4.0766  -10.1749    0.0000 C   0  0  0  0  0  0  0  0  0  0  0  0
   -4.0353  -11.6743    0.0000 C   0  0  0  0  0  0  0  0  0  0  0  0
   -2.7161  -12.3882    0.0000 C   0  0  0  0  0  0  0  0  0  0  0  0
   -1.4382  -11.6027    0.0000 C   0  0  0  0  0  0  0  0  0  0  0  0
   -1.4795  -10.1033    0.0000 C   0  0  0  0  0  0  0  0  0  0  0  0
   -0.0000  -10.3502    0.0000 C   0  0  0  0  0  0  0  0  0  0  0  0
   -0.5260  -11.7550    0.0000 C   0  0  0  0  0  0  0  0  0  0  0  0
    0.4276  -12.9128    0.0000 C   0  0  0  0  0  0  0  0  0  0  0  0
    1.9072  -12.6659    0.0000 C   0  0  0  0  0  0  0  0  0  0  0  0
    2.4331  -11.2612    0.0000 C   0  0  0  0  0  0  0  0  0  0  0  0
    1.4795  -10.1033    0.0000 C   0  0  0  0  0  0  0  0  0  0  0  0
    2.7988   -9.3894    0.0000 C   0  0  0  0  0  0  0  0  0  0  0  0
    3.2465  -10.8210    0.0000 C   0  0  0  0  0  0  0  0  0  0  0  0
    4.7102  -11.1490    0.0000 C   0  0  0  0  0  0  0  0  0  0  0  0
    5.7261  -10.0454    0.0000 C   0  0  0  0  0  0  0  0  0  0  0  0
    5.2784   -8.6138    0.0000 C   0  0  0  0  0  0  0  0  0  0  0  0
    3.8147   -8.2858    0.0000 C   0  0  0  0  0  0  0  0  0  0  0  0
  1  2  1  0
  2  3  1  0
  3  4  1  0
  4  5  1  0
  5  6  2  0
  6  7  1  0
  7  8  1  0
  8  9  1  0
  9 10  1  0
 10 11  1  0
 11 12  2  0
 11 13  1  0
 13 14  1  0
 14 15  2  0
 15 16  1  0
 16 17  2  0
 17 18  1  0
 18 19  2  0
 10 20  1  0
 20 21  2  0
  6 22  1  0
 22 23  2  0
 23 24  1  0
 24 25  2  0
 25 26  1  0
 26 27  2  0
 27 28  1  0
 28 29  2  0
 29 30  1  0
 30 31  2  0
 31 32  1  0
 32 33  2  0
 33 34  1  0
 34 35  2  0
 35 36  1  0
 36 37  2  0
 37 38  1  0
 38 39  2  0
 39 40  1  0
 40 41  2  0
 41 42  1  0
 42 43  2  0
 43 44  1  0
 44 45  2  0
 45 46  1  0
 46 47  2  0
 47 48  1  0
 48 49  2  0
 49 50  1  0
 50 51  2  0
 51 52  1  0
 52 53  2  0
 53 54  1  0
 54 55  2  0
 55 56  1  0
 56 57  2  0
 57 58  1  0
 58 59  2  0
 59 60  1  0
 60 61  2  0
 61 62  1  0
 62 63  2  0
 63  2  1  0
 20  7  1  0
 27 22  1  0
 33 28  1  0
 39 34  1  0
 45 40  1  0
 51 46  1  0
 57 52  1  0
 63 58  1  0
 19 14  1  0
M  END
>  <Title>  (1094) 
idABODgen10

$$$$

     RDKit          2D

 64 65  0  0  0  0  0  0  0  0999 V2000
   -2.0386   -2.5236    0.0000 C   0  0  0  0  0  0  0  0  0  0  0  0
   -2.2694   -1.0414    0.0000 C   0  0  0  0  0  0  0  0  0  0  0  0
   -2.5001    0.4407    0.0000 C   0  0  0  0  0  0  0  0  0  0  0  0
   -3.9924    0.2892    0.0000 C   0  0  0  0  0  0  0  0  0  0  0  0
   -5.4924    0.2972    0.0000 C   0  0  0  0  0  0  0  0  0  0  0  0
   -6.9830    0.4646    0.0000 C   0  0  0  0  0  0  0  0  0  0  0  0
   -8.4474    0.7895    0.0000 C   0  0  0  0  0  0  0  0  0  0  0  0
   -9.8690    1.2682    0.0000 C   0  0  0  0  0  0  0  0  0  0  0  0
  -11.2316    1.8953    0.0000 C   0  0  0  0  0  0  0  0  0  0  0  0
  -12.5199    2.6636    0.0000 C   0  0  0  0  0  0  0  0  0  0  0  0
  -13.7191    3.5646    0.0000 C   0  0  0  0  0  0  0  0  0  0  0  0
  -14.8159    4.5879    0.0000 C   0  0  0  0  0  0  0  0  0  0  0  0
  -15.7976    5.7220    0.0000 C   0  0  0  0  0  0  0  0  0  0  0  0
  -16.6532    6.9540    0.0000 C   0  0  0  0  0  0  0  0  0  0  0  0
  -17.3731    8.2700    0.0000 C   0  0  0  0  0  0  0  0  0  0  0  0
  -17.9489    9.6551    0.0000 C   0  0  0  0  0  0  0  0  0  0  0  0
  -18.3743   11.0935    0.0000 C   0  0  0  0  0  0  0  0  0  0  0  0
  -18.6444   12.5690    0.0000 C   0  0  0  0  0  0  0  0  0  0  0  0
  -18.7561   14.0648    0.0000 C   0  0  0  0  0  0  0  0  0  0  0  0
  -18.7082   15.5640    0.0000 C   0  0  0  0  0  0  0  0  0  0  0  0
  -18.5012   17.0497    0.0000 C   0  0  0  0  0  0  0  0  0  0  0  0
  -18.1375   18.5049    0.0000 C   0  0  0  0  0  0  0  0  0  0  0  0
  -17.6211   19.9132    0.0000 C   0  0  0  0  0  0  0  0  0  0  0  0
  -16.9580   21.2587    0.0000 C   0  0  0  0  0  0  0  0  0  0  0  0
  -16.1556   22.5260    0.0000 C   0  0  0  0  0  0  0  0  0  0  0  0
  -15.2230   23.7009    0.0000 C   0  0  0  0  0  0  0  0  0  0  0  0
  -14.1709   24.7700    0.0000 C   0  0  0  0  0  0  0  0  0  0  0  0
  -13.0110   25.7212    0.0000 C   0  0  0  0  0  0  0  0  0  0  0  0
  -11.7567   26.5438    0.0000 C   0  0  0  0  0  0  0  0  0  0  0  0
  -10.4220   27.2283    0.0000 C   0  0  0  0  0  0  0  0  0  0  0  0
   -9.0221   27.7671    0.0000 C   0  0  0  0  0  0  0  0  0  0  0  0
   -7.5728   28.1540    0.0000 C   0  0  0  0  0  0  0  0  0  0  0  0
   -6.0907   28.3847    0.0000 C   0  0  0  0  0  0  0  0  0  0  0  0
   -4.5924   28.4566    0.0000 C   0  0  0  0  0  0  0  0  0  0  0  0
   -3.0950   28.3688    0.0000 C   0  0  0  0  0  0  0  0  0  0  0  0
   -1.6154   28.1223    0.0000 C   0  0  0  0  0  0  0  0  0  0  0  0
   -0.1703   27.7200    0.0000 C   0  0  0  0  0  0  0  0  0  0  0  0
    1.2237   27.1663    0.0000 C   0  0  0  0  0  0  0  0  0  0  0  0
    2.5511   26.4676    0.0000 C   0  0  0  0  0  0  0  0  0  0  0  0
    3.7966   25.6317    0.0000 C   0  0  0  0  0  0  0  0  0  0  0  0
    4.9462   24.6682    0.0000 C   0  0  0  0  0  0  0  0  0  0  0  0
    5.9869   23.5880    0.0000 C   0  0  0  0  0  0  0  0  0  0  0  0
    6.9069   22.4032    0.0000 C   0  0  0  0  0  0  0  0  0  0  0  0
    7.6958   21.1274    0.0000 C   0  0  0  0  0  0  0  0  0  0  0  0
    8.3446   19.7750    0.0000 C   0  0  0  0  0  0  0  0  0  0  0  0
    8.8459   18.3612    0.0000 C   0  0  0  0  0  0  0  0  0  0  0  0
    9.1941   16.9022    0.0000 C   0  0  0  0  0  0  0  0  0  0  0  0
    9.3853   15.4145    0.0000 C   0  0  0  0  0  0  0  0  0  0  0  0
    9.4172   13.9148    0.0000 C   0  0  0  0  0  0  0  0  0  0  0  0
    9.2896   12.4202    0.0000 C   0  0  0  0  0  0  0  0  0  0  0  0
    9.0038   10.9477    0.0000 C   0  0  0  0  0  0  0  0  0  0  0  0
    8.5631    9.5139    0.0000 C   0  0  0  0  0  0  0  0  0  0  0  0
    7.9725    8.1351    0.0000 C   0  0  0  0  0  0  0  0  0  0  0  0
    7.2387    6.8268    0.0000 C   0  0  0  0  0  0  0  0  0  0  0  0
    6.3700    5.6040    0.0000 C   0  0  0  0  0  0  0  0  0  0  0  0
    5.3763    4.4804    0.0000 C   0  0  0  0  0  0  0  0  0  0  0  0
    4.2687    3.4688    0.0000 C   0  0  0  0  0  0  0  0  0  0  0  0
    3.0599    2.5807    0.0000 C   0  0  0  0  0  0  0  0  0  0  0  0
    1.7635    1.8261    0.0000 C   0  0  0  0  0  0  0  0  0  0  0  0
    0.3943    1.2135    0.0000 C   0  0  0  0  0  0  0  0  0  0  0  0
    1.2760    0.0000    0.0000 C   0  0  0  0  0  0  0  0  0  0  0  0
    0.3943   -1.2135    0.0000 C   0  0  0  0  0  0  0  0  0  0  0  0
   -1.0323   -0.7500    0.0000 C   0  0  0  0  0  0  0  0  0  0  0  0
   -1.0323    0.7500    0.0000 C   0  0  0  0  0  0  0  0  0  0  0  0
  1  2  3  0
  2  3  1  0
  3  4  1  0
  4  5  1  0
  5  6  1  0
  6  7  1  0
  7  8  1  0
  8  9  1  0
  9 10  1  0
 10 11  1  0
 11 12  1  0
 12 13  1  0
 13 14  1  0
 14 15  1  0
 15 16  1  0
 16 17  1  0
 17 18  1  0
 18 19  1  0
 19 20  1  0
 20 21  1  0
 21 22  1  0
 22 23  1  0
 23 24  1  0
 24 25  1  0
 25 26  1  0
 26 27  1  0
 27 28  1  0
 28 29  1  0
 29 30  1  0
 30 31  1  0
 31 32  1  0
 32 33  1  0
 33 34  1  0
 34 35  1  0
 35 36  1  0
 36 37  1  0
 37 38  1  0
 38 39  1  0
 39 40  1  0
 40 41  1  0
 41 42  1  0
 42 43  1  0
 43 44  1  0
 44 45  1  0
 45 46  1  0
 46 47  1  0
 47 48  1  0
 48 49  1  0
 49 50  1  0
 50 51  1  0
 51 52  2  0
 52 53  1  0
 53 54  2  0
 54 55  1  0
 55 56  2  0
 56 57  1  0
 57 58  2  0
 58 59  1  0
 59 60  2  0
 60 61  1  0
 61 62  2  0
 62 63  1  0
 63 64  2  0
 64  3  1  0
 64 60  1  0
M  END
>  <Title>  (1095) 
idABOEgen10

$$$$

     RDKit          2D

 21 23  0  0  0  0  0  0  0  0999 V2000
   -9.1332   -4.7692    0.0000 C   0  0  0  0  0  0  0  0  0  0  0  0
   -8.1129   -3.6696    0.0000 C   0  0  0  0  0  0  0  0  0  0  0  0
   -6.6505   -4.0034    0.0000 C   0  0  0  0  0  0  0  0  0  0  0  0
   -5.6303   -2.9038    0.0000 N   0  0  0  0  0  0  0  0  0  0  0  0
   -4.1679   -3.2376    0.0000 C   0  0  0  0  0  0  0  0  0  0  0  0
   -3.7258   -4.6709    0.0000 O   0  0  0  0  0  0  0  0  0  0  0  0
   -3.1476   -2.1380    0.0000 N   0  0  0  0  0  0  0  0  0  0  0  0
   -1.6852   -2.4718    0.0000 C   0  0  0  0  0  0  0  0  0  0  0  0
   -1.3515   -3.9342    0.0000 N   0  0  0  0  0  0  0  0  0  0  0  0
   -0.0000   -4.5850    0.0000 N   0  0  0  0  0  0  0  0  0  0  0  0
    1.3515   -3.9342    0.0000 C   0  0  0  0  0  0  0  0  0  0  0  0
    2.6391   -4.7035    0.0000 C   0  0  0  0  0  0  0  0  0  0  0  0
    3.7687   -3.7166    0.0000 C   0  0  0  0  0  0  0  0  0  0  0  0
    3.1792   -2.3373    0.0000 C   0  0  0  0  0  0  0  0  0  0  0  0
    1.6852   -2.4718    0.0000 C   0  0  0  0  0  0  0  0  0  0  0  0
    0.7500   -1.2990    0.0000 C   0  0  0  0  0  0  0  0  0  0  0  0
    1.5000    0.0000    0.0000 C   0  0  0  0  0  0  0  0  0  0  0  0
    0.7500    1.2990    0.0000 C   0  0  0  0  0  0  0  0  0  0  0  0
   -0.7500    1.2990    0.0000 C   0  0  0  0  0  0  0  0  0  0  0  0
   -1.5000    0.0000    0.0000 C   0  0  0  0  0  0  0  0  0  0  0  0
   -0.7500   -1.2990    0.0000 C   0  0  0  0  0  0  0  0  0  0  0  0
  1  2  1  0
  2  3  1  0
  3  4  1  0
  4  5  1  0
  5  6  2  0
  5  7  1  0
  7  8  1  0
  8  9  2  0
  9 10  1  0
 10 11  2  0
 11 12  1  0
 12 13  1  0
 13 14  1  0
 14 15  2  0
 15 16  1  0
 16 17  2  0
 17 18  1  0
 18 19  2  0
 19 20  1  0
 20 21  2  0
 21  8  1  0
 15 11  1  0
 21 16  1  0
M  END
>  <Title>  (1096) 
idABOFgen10

$$$$

     RDKit          2D

  8  8  0  0  0  0  0  0  0  0999 V2000
    3.0000    0.0000    0.0000 C   0  0  0  0  0  0  0  0  0  0  0  0
    1.5000    0.0000    0.0000 C   0  0  0  0  0  0  0  0  0  0  0  0
    0.7500   -1.2990    0.0000 C   0  0  0  0  0  0  0  0  0  0  0  0
   -0.7500   -1.2990    0.0000 C   0  0  0  0  0  0  0  0  0  0  0  0
   -1.5000    0.0000    0.0000 C   0  0  0  0  0  0  0  0  0  0  0  0
   -0.7500    1.2990    0.0000 C   0  0  0  0  0  0  0  0  0  0  0  0
   -1.5000    2.5981    0.0000 C   0  0  0  0  0  0  0  0  0  0  0  0
    0.7500    1.2990    0.0000 C   0  0  0  0  0  0  0  0  0  0  0  0
  1  2  1  0
  2  3  2  0
  3  4  1  0
  4  5  2  0
  5  6  1  0
  6  7  1  0
  6  8  2  0
  8  2  1  0
M  END
>  <Title>  (1097) 
idABOGgen10

$$$$

     RDKit          2D

 50 50  0  0  0  0  0  0  0  0999 V2000
   11.9445    0.0000    0.0000 C   0  0  0  0  0  0  0  0  0  0  0  0
   11.8503   -1.4970    0.0000 C   0  0  0  0  0  0  0  0  0  0  0  0
   11.5692   -2.9705    0.0000 C   0  0  0  0  0  0  0  0  0  0  0  0
   11.1057   -4.3971    0.0000 C   0  0  0  0  0  0  0  0  0  0  0  0
   10.4670   -5.7543    0.0000 C   0  0  0  0  0  0  0  0  0  0  0  0
    9.6633   -7.0208    0.0000 C   0  0  0  0  0  0  0  0  0  0  0  0
    8.7071   -8.1766    0.0000 C   0  0  0  0  0  0  0  0  0  0  0  0
    7.6137   -9.2034    0.0000 C   0  0  0  0  0  0  0  0  0  0  0  0
    6.4002  -10.0851    0.0000 C   0  0  0  0  0  0  0  0  0  0  0  0
    5.0857  -10.8077    0.0000 C   0  0  0  0  0  0  0  0  0  0  0  0
    3.6910  -11.3599    0.0000 C   0  0  0  0  0  0  0  0  0  0  0  0
    2.2382  -11.7329    0.0000 C   0  0  0  0  0  0  0  0  0  0  0  0
    0.7500  -11.9209    0.0000 C   0  0  0  0  0  0  0  0  0  0  0  0
   -0.7500  -11.9209    0.0000 C   0  0  0  0  0  0  0  0  0  0  0  0
   -2.2382  -11.7329    0.0000 C   0  0  0  0  0  0  0  0  0  0  0  0
   -3.6910  -11.3599    0.0000 C   0  0  0  0  0  0  0  0  0  0  0  0
   -5.0857  -10.8077    0.0000 C   0  0  0  0  0  0  0  0  0  0  0  0
   -6.4002  -10.0851    0.0000 C   0  0  0  0  0  0  0  0  0  0  0  0
   -7.6137   -9.2034    0.0000 C   0  0  0  0  0  0  0  0  0  0  0  0
   -8.7071   -8.1766    0.0000 C   0  0  0  0  0  0  0  0  0  0  0  0
   -9.6633   -7.0208    0.0000 C   0  0  0  0  0  0  0  0  0  0  0  0
  -10.4670   -5.7543    0.0000 C   0  0  0  0  0  0  0  0  0  0  0  0
  -11.1057   -4.3971    0.0000 C   0  0  0  0  0  0  0  0  0  0  0  0
  -11.5692   -2.9705    0.0000 C   0  0  0  0  0  0  0  0  0  0  0  0
  -11.8503   -1.4970    0.0000 C   0  0  0  0  0  0  0  0  0  0  0  0
  -11.9445   -0.0000    0.0000 C   0  0  0  0  0  0  0  0  0  0  0  0
  -11.8503    1.4970    0.0000 C   0  0  0  0  0  0  0  0  0  0  0  0
  -11.5692    2.9705    0.0000 C   0  0  0  0  0  0  0  0  0  0  0  0
  -11.1057    4.3971    0.0000 C   0  0  0  0  0  0  0  0  0  0  0  0
  -10.4670    5.7543    0.0000 C   0  0  0  0  0  0  0  0  0  0  0  0
   -9.6633    7.0208    0.0000 C   0  0  0  0  0  0  0  0  0  0  0  0
   -8.7071    8.1766    0.0000 C   0  0  0  0  0  0  0  0  0  0  0  0
   -7.6137    9.2034    0.0000 C   0  0  0  0  0  0  0  0  0  0  0  0
   -6.4002   10.0851    0.0000 C   0  0  0  0  0  0  0  0  0  0  0  0
   -5.0857   10.8077    0.0000 C   0  0  0  0  0  0  0  0  0  0  0  0
   -3.6910   11.3599    0.0000 C   0  0  0  0  0  0  0  0  0  0  0  0
   -2.2382   11.7329    0.0000 C   0  0  0  0  0  0  0  0  0  0  0  0
   -0.7500   11.9209    0.0000 C   0  0  0  0  0  0  0  0  0  0  0  0
    0.7500   11.9209    0.0000 C   0  0  0  0  0  0  0  0  0  0  0  0
    2.2382   11.7329    0.0000 C   0  0  0  0  0  0  0  0  0  0  0  0
    3.6910   11.3599    0.0000 C   0  0  0  0  0  0  0  0  0  0  0  0
    5.0857   10.8077    0.0000 C   0  0  0  0  0  0  0  0  0  0  0  0
    6.4002   10.0851    0.0000 C   0  0  0  0  0  0  0  0  0  0  0  0
    7.6137    9.2034    0.0000 C   0  0  0  0  0  0  0  0  0  0  0  0
    8.7071    8.1766    0.0000 C   0  0  0  0  0  0  0  0  0  0  0  0
    9.6633    7.0208    0.0000 C   0  0  0  0  0  0  0  0  0  0  0  0
   10.4670    5.7543    0.0000 C   0  0  0  0  0  0  0  0  0  0  0  0
   11.1057    4.3971    0.0000 C   0  0  0  0  0  0  0  0  0  0  0  0
   11.5692    2.9705    0.0000 C   0  0  0  0  0  0  0  0  0  0  0  0
   11.8503    1.4970    0.0000 C   0  0  0  0  0  0  0  0  0  0  0  0
  1  2  2  0
  2  3  1  0
  3  4  2  0
  4  5  1  0
  5  6  1  0
  6  7  1  0
  7  8  1  0
  8  9  1  0
  9 10  1  0
 10 11  1  0
 11 12  1  0
 12 13  1  0
 13 14  1  0
 14 15  1  0
 15 16  1  0
 16 17  1  0
 17 18  1  0
 18 19  1  0
 19 20  1  0
 20 21  1  0
 21 22  1  0
 22 23  1  0
 23 24  1  0
 24 25  1  0
 25 26  1  0
 26 27  1  0
 27 28  1  0
 28 29  1  0
 29 30  1  0
 30 31  1  0
 31 32  1  0
 32 33  1  0
 33 34  1  0
 34 35  1  0
 35 36  1  0
 36 37  1  0
 37 38  1  0
 38 39  1  0
 39 40  1  0
 40 41  1  0
 41 42  1  0
 42 43  1  0
 43 44  1  0
 44 45  1  0
 45 46  1  0
 46 47  1  0
 47 48  1  0
 48 49  1  0
 49 50  2  0
 50  1  1  0
M  END
>  <Title>  (1098) 
idABOHgen10

$$$$

     RDKit          2D

103103  0  0  0  0  0  0  0  0999 V2000
   24.5933    0.0000    0.0000 C   0  0  0  0  0  0  0  0  0  0  0  0
   24.5475    1.4993    0.0000 C   0  0  0  0  0  0  0  0  0  0  0  0
   24.4104    2.9930    0.0000 C   0  0  0  0  0  0  0  0  0  0  0  0
   24.1826    4.4756    0.0000 C   0  0  0  0  0  0  0  0  0  0  0  0
   23.8647    5.9416    0.0000 C   0  0  0  0  0  0  0  0  0  0  0  0
   23.4581    7.3854    0.0000 C   0  0  0  0  0  0  0  0  0  0  0  0
   22.9643    8.8018    0.0000 C   0  0  0  0  0  0  0  0  0  0  0  0
   22.3850   10.1854    0.0000 C   0  0  0  0  0  0  0  0  0  0  0  0
   21.7224   11.5311    0.0000 C   0  0  0  0  0  0  0  0  0  0  0  0
   20.9790   12.8339    0.0000 C   0  0  0  0  0  0  0  0  0  0  0  0
   20.1576   14.0890    0.0000 C   0  0  0  0  0  0  0  0  0  0  0  0
   19.2611   15.2917    0.0000 C   0  0  0  0  0  0  0  0  0  0  0  0
   18.2931   16.4375    0.0000 C   0  0  0  0  0  0  0  0  0  0  0  0
   17.2569   17.5222    0.0000 C   0  0  0  0  0  0  0  0  0  0  0  0
   16.1566   18.5416    0.0000 C   0  0  0  0  0  0  0  0  0  0  0  0
   14.9962   19.4921    0.0000 C   0  0  0  0  0  0  0  0  0  0  0  0
   13.7800   20.3701    0.0000 C   0  0  0  0  0  0  0  0  0  0  0  0
   12.5125   21.1723    0.0000 C   0  0  0  0  0  0  0  0  0  0  0  0
   11.1985   21.8957    0.0000 C   0  0  0  0  0  0  0  0  0  0  0  0
    9.8428   22.5377    0.0000 C   0  0  0  0  0  0  0  0  0  0  0  0
    8.4505   23.0958    0.0000 C   0  0  0  0  0  0  0  0  0  0  0  0
    7.0268   23.5680    0.0000 C   0  0  0  0  0  0  0  0  0  0  0  0
    5.5769   23.9526    0.0000 C   0  0  0  0  0  0  0  0  0  0  0  0
    4.1063   24.2480    0.0000 C   0  0  0  0  0  0  0  0  0  0  0  0
    2.6204   24.4532    0.0000 C   0  0  0  0  0  0  0  0  0  0  0  0
    1.1248   24.5675    0.0000 C   0  0  0  0  0  0  0  0  0  0  0  0
   -0.3750   24.5904    0.0000 C   0  0  0  0  0  0  0  0  0  0  0  0
   -1.8735   24.5218    0.0000 C   0  0  0  0  0  0  0  0  0  0  0  0
   -3.3649   24.3620    0.0000 C   0  0  0  0  0  0  0  0  0  0  0  0
   -4.8439   24.1115    0.0000 C   0  0  0  0  0  0  0  0  0  0  0  0
   -6.3048   23.7714    0.0000 C   0  0  0  0  0  0  0  0  0  0  0  0
   -7.7423   23.3428    0.0000 C   0  0  0  0  0  0  0  0  0  0  0  0
   -9.1509   22.8274    0.0000 C   0  0  0  0  0  0  0  0  0  0  0  0
  -10.5256   22.2270    0.0000 C   0  0  0  0  0  0  0  0  0  0  0  0
  -11.8610   21.5440    0.0000 C   0  0  0  0  0  0  0  0  0  0  0  0
  -13.1524   20.7808    0.0000 C   0  0  0  0  0  0  0  0  0  0  0  0
  -14.3948   19.9404    0.0000 C   0  0  0  0  0  0  0  0  0  0  0  0
  -15.5837   19.0257    0.0000 C   0  0  0  0  0  0  0  0  0  0  0  0
  -16.7146   18.0403    0.0000 C   0  0  0  0  0  0  0  0  0  0  0  0
  -17.7833   16.9877    0.0000 C   0  0  0  0  0  0  0  0  0  0  0  0
  -18.7858   15.8720    0.0000 C   0  0  0  0  0  0  0  0  0  0  0  0
  -19.7185   14.6972    0.0000 C   0  0  0  0  0  0  0  0  0  0  0  0
  -20.5778   13.4678    0.0000 C   0  0  0  0  0  0  0  0  0  0  0  0
  -21.3606   12.1882    0.0000 C   0  0  0  0  0  0  0  0  0  0  0  0
  -22.0639   10.8633    0.0000 C   0  0  0  0  0  0  0  0  0  0  0  0
  -22.6852    9.4980    0.0000 C   0  0  0  0  0  0  0  0  0  0  0  0
  -23.2220    8.0973    0.0000 C   0  0  0  0  0  0  0  0  0  0  0  0
  -23.6724    6.6666    0.0000 C   0  0  0  0  0  0  0  0  0  0  0  0
  -24.0348    5.2110    0.0000 C   0  0  0  0  0  0  0  0  0  0  0  0
  -24.3078    3.7361    0.0000 C   0  0  0  0  0  0  0  0  0  0  0  0
  -24.4904    2.2472    0.0000 C   0  0  0  0  0  0  0  0  0  0  0  0
  -24.5818    0.7500    0.0000 C   0  0  0  0  0  0  0  0  0  0  0  0
  -24.5818   -0.7500    0.0000 C   0  0  0  0  0  0  0  0  0  0  0  0
  -24.4904   -2.2472    0.0000 C   0  0  0  0  0  0  0  0  0  0  0  0
  -24.3078   -3.7361    0.0000 C   0  0  0  0  0  0  0  0  0  0  0  0
  -24.0348   -5.2110    0.0000 C   0  0  0  0  0  0  0  0  0  0  0  0
  -23.6724   -6.6666    0.0000 C   0  0  0  0  0  0  0  0  0  0  0  0
  -23.2220   -8.0973    0.0000 C   0  0  0  0  0  0  0  0  0  0  0  0
  -22.6852   -9.4980    0.0000 C   0  0  0  0  0  0  0  0  0  0  0  0
  -22.0639  -10.8633    0.0000 C   0  0  0  0  0  0  0  0  0  0  0  0
  -21.3606  -12.1882    0.0000 C   0  0  0  0  0  0  0  0  0  0  0  0
  -20.5778  -13.4678    0.0000 C   0  0  0  0  0  0  0  0  0  0  0  0
  -19.7185  -14.6972    0.0000 C   0  0  0  0  0  0  0  0  0  0  0  0
  -18.7858  -15.8720    0.0000 C   0  0  0  0  0  0  0  0  0  0  0  0
  -17.7833  -16.9877    0.0000 C   0  0  0  0  0  0  0  0  0  0  0  0
  -16.7146  -18.0403    0.0000 C   0  0  0  0  0  0  0  0  0  0  0  0
  -15.5837  -19.0257    0.0000 C   0  0  0  0  0  0  0  0  0  0  0  0
  -14.3948  -19.9404    0.0000 C   0  0  0  0  0  0  0  0  0  0  0  0
  -13.1524  -20.7808    0.0000 C   0  0  0  0  0  0  0  0  0  0  0  0
  -11.8610  -21.5440    0.0000 C   0  0  0  0  0  0  0  0  0  0  0  0
  -10.5256  -22.2270    0.0000 C   0  0  0  0  0  0  0  0  0  0  0  0
   -9.1509  -22.8274    0.0000 C   0  0  0  0  0  0  0  0  0  0  0  0
   -7.7423  -23.3428    0.0000 C   0  0  0  0  0  0  0  0  0  0  0  0
   -6.3048  -23.7714    0.0000 C   0  0  0  0  0  0  0  0  0  0  0  0
   -4.8439  -24.1115    0.0000 C   0  0  0  0  0  0  0  0  0  0  0  0
   -3.3649  -24.3620    0.0000 C   0  0  0  0  0  0  0  0  0  0  0  0
   -1.8735  -24.5218    0.0000 C   0  0  0  0  0  0  0  0  0  0  0  0
   -0.3750  -24.5904    0.0000 C   0  0  0  0  0  0  0  0  0  0  0  0
    1.1248  -24.5675    0.0000 C   0  0  0  0  0  0  0  0  0  0  0  0
    2.6204  -24.4532    0.0000 C   0  0  0  0  0  0  0  0  0  0  0  0
    4.1063  -24.2480    0.0000 C   0  0  0  0  0  0  0  0  0  0  0  0
    5.5769  -23.9526    0.0000 C   0  0  0  0  0  0  0  0  0  0  0  0
    7.0268  -23.5680    0.0000 C   0  0  0  0  0  0  0  0  0  0  0  0
    8.4505  -23.0958    0.0000 C   0  0  0  0  0  0  0  0  0  0  0  0
    9.8428  -22.5377    0.0000 C   0  0  0  0  0  0  0  0  0  0  0  0
   11.1985  -21.8957    0.0000 C   0  0  0  0  0  0  0  0  0  0  0  0
   12.5125  -21.1723    0.0000 C   0  0  0  0  0  0  0  0  0  0  0  0
   13.7800  -20.3701    0.0000 C   0  0  0  0  0  0  0  0  0  0  0  0
   14.9962  -19.4921    0.0000 C   0  0  0  0  0  0  0  0  0  0  0  0
   16.1566  -18.5416    0.0000 C   0  0  0  0  0  0  0  0  0  0  0  0
   17.2569  -17.5222    0.0000 C   0  0  0  0  0  0  0  0  0  0  0  0
   18.2931  -16.4375    0.0000 C   0  0  0  0  0  0  0  0  0  0  0  0
   19.2611  -15.2917    0.0000 C   0  0  0  0  0  0  0  0  0  0  0  0
   20.1576  -14.0890    0.0000 C   0  0  0  0  0  0  0  0  0  0  0  0
   20.9790  -12.8339    0.0000 C   0  0  0  0  0  0  0  0  0  0  0  0
   21.7224  -11.5311    0.0000 C   0  0  0  0  0  0  0  0  0  0  0  0
   22.3850  -10.1854    0.0000 C   0  0  0  0  0  0  0  0  0  0  0  0
   22.9643   -8.8018    0.0000 C   0  0  0  0  0  0  0  0  0  0  0  0
   23.4581   -7.3854    0.0000 C   0  0  0  0  0  0  0  0  0  0  0  0
   23.8647   -5.9416    0.0000 C   0  0  0  0  0  0  0  0  0  0  0  0
   24.1826   -4.4756    0.0000 C   0  0  0  0  0  0  0  0  0  0  0  0
   24.4104   -2.9930    0.0000 C   0  0  0  0  0  0  0  0  0  0  0  0
   24.5475   -1.4993    0.0000 C   0  0  0  0  0  0  0  0  0  0  0  0
  1  2  1  0
  2  3  1  0
  3  4  1  0
  4  5  1  0
  5  6  1  0
  6  7  1  0
  7  8  1  0
  8  9  1  0
  9 10  1  0
 10 11  1  0
 11 12  1  0
 12 13  1  0
 13 14  1  0
 14 15  1  0
 15 16  1  0
 16 17  1  0
 17 18  1  0
 18 19  1  0
 19 20  1  0
 20 21  1  0
 21 22  1  0
 22 23  1  0
 23 24  1  0
 24 25  1  0
 25 26  1  0
 26 27  1  0
 27 28  1  0
 28 29  1  0
 29 30  1  0
 30 31  1  0
 31 32  1  0
 32 33  1  0
 33 34  1  0
 34 35  1  0
 35 36  1  0
 36 37  1  0
 37 38  1  0
 38 39  1  0
 39 40  1  0
 40 41  1  0
 41 42  1  0
 42 43  1  0
 43 44  1  0
 44 45  1  0
 45 46  1  0
 46 47  1  0
 47 48  1  0
 48 49  1  0
 49 50  1  0
 50 51  1  0
 51 52  1  0
 52 53  1  0
 53 54  1  0
 54 55  1  0
 55 56  1  0
 56 57  1  0
 57 58  1  0
 58 59  1  0
 59 60  1  0
 60 61  1  0
 61 62  1  0
 62 63  1  0
 63 64  1  0
 64 65  1  0
 65 66  1  0
 66 67  1  0
 67 68  1  0
 68 69  1  0
 69 70  1  0
 70 71  1  0
 71 72  1  0
 72 73  1  0
 73 74  1  0
 74 75  1  0
 75 76  1  0
 76 77  1  0
 77 78  1  0
 78 79  1  0
 79 80  1  0
 80 81  1  0
 81 82  1  0
 82 83  1  0
 83 84  1  0
 84 85  1  0
 85 86  1  0
 86 87  1  0
 87 88  1  0
 88 89  1  0
 89 90  1  0
 90 91  1  0
 91 92  1  0
 92 93  1  0
 93 94  1  0
 94 95  1  0
 95 96  1  0
 96 97  1  0
 97 98  1  0
 98 99  1  0
 99100  1  0
100101  1  0
101102  1  0
102103  1  0
103  1  1  0
M  END
>  <Title>  (1099) 
idABOIgen10

$$$$

     RDKit          2D

 15 16  0  0  0  0  0  0  0  0999 V2000
    6.7500   -1.2990    0.0000 C   0  0  0  0  0  0  0  0  0  0  0  0
    6.0000    0.0000    0.0000 C   0  0  0  0  0  0  0  0  0  0  0  0
    4.5000    0.0000    0.0000 C   0  0  0  0  0  0  0  0  0  0  0  0
    3.0000    0.0000    0.0000 C   0  0  0  0  0  0  0  0  0  0  0  0
    1.5000    0.0000    0.0000 C   0  0  0  0  0  0  0  0  0  0  0  0
    0.7500   -1.2990    0.0000 C   0  0  0  0  0  0  0  0  0  0  0  0
   -0.7500   -1.2990    0.0000 C   0  0  0  0  0  0  0  0  0  0  0  0
   -1.5000    0.0000    0.0000 C   0  0  0  0  0  0  0  0  0  0  0  0
   -0.7500    1.2990    0.0000 C   0  0  0  0  0  0  0  0  0  0  0  0
    0.7500    1.2990    0.0000 C   0  0  0  0  0  0  0  0  0  0  0  0
    1.5000    2.5981    0.0000 C   0  0  0  0  0  0  0  0  0  0  0  0
    0.8899    3.9684    0.0000 C   0  0  0  0  0  0  0  0  0  0  0  0
    2.0046    4.9721    0.0000 C   0  0  0  0  0  0  0  0  0  0  0  0
    3.3037    4.2221    0.0000 C   0  0  0  0  0  0  0  0  0  0  0  0
    2.9918    2.7549    0.0000 C   0  0  0  0  0  0  0  0  0  0  0  0
  1  2  2  0
  2  3  1  0
  3  4  3  0
  4  5  1  0
  5  6  2  0
  6  7  1  0
  7  8  2  0
  8  9  1  0
  9 10  2  0
 10 11  1  0
 11 12  2  0
 12 13  1  0
 13 14  2  0
 14 15  1  0
 10  5  1  0
 15 11  1  0
M  END
>  <Title>  (1100) 
idABOJgen10

$$$$

     RDKit          2D

 94 97  0  0  0  0  0  0  0  0999 V2000
   -5.5860   -0.5382    0.0000 C   0  0  0  0  0  0  0  0  0  0  0  0
   -5.1886   -1.9846    0.0000 C   0  0  0  0  0  0  0  0  0  0  0  0
   -6.6187   -2.4372    0.0000 C   0  0  0  0  0  0  0  0  0  0  0  0
   -8.0099   -2.9979    0.0000 C   0  0  0  0  0  0  0  0  0  0  0  0
   -9.3542   -3.6635    0.0000 C   0  0  0  0  0  0  0  0  0  0  0  0
  -10.6435   -4.4300    0.0000 C   0  0  0  0  0  0  0  0  0  0  0  0
  -11.8704   -5.2930    0.0000 C   0  0  0  0  0  0  0  0  0  0  0  0
  -13.0276   -6.2474    0.0000 C   0  0  0  0  0  0  0  0  0  0  0  0
  -14.1084   -7.2875    0.0000 C   0  0  0  0  0  0  0  0  0  0  0  0
  -15.1064   -8.4074    0.0000 C   0  0  0  0  0  0  0  0  0  0  0  0
  -16.0158   -9.6003    0.0000 C   0  0  0  0  0  0  0  0  0  0  0  0
  -16.8311  -10.8593    0.0000 C   0  0  0  0  0  0  0  0  0  0  0  0
  -17.5477  -12.1771    0.0000 C   0  0  0  0  0  0  0  0  0  0  0  0
  -18.1613  -13.5459    0.0000 C   0  0  0  0  0  0  0  0  0  0  0  0
  -18.6683  -14.9576    0.0000 C   0  0  0  0  0  0  0  0  0  0  0  0
  -19.0658  -16.4040    0.0000 C   0  0  0  0  0  0  0  0  0  0  0  0
  -19.3514  -17.8765    0.0000 C   0  0  0  0  0  0  0  0  0  0  0  0
  -19.5234  -19.3666    0.0000 C   0  0  0  0  0  0  0  0  0  0  0  0
  -19.5808  -20.8655    0.0000 C   0  0  0  0  0  0  0  0  0  0  0  0
  -19.5234  -22.3644    0.0000 C   0  0  0  0  0  0  0  0  0  0  0  0
  -19.3514  -23.8545    0.0000 C   0  0  0  0  0  0  0  0  0  0  0  0
  -19.0658  -25.3271    0.0000 C   0  0  0  0  0  0  0  0  0  0  0  0
  -18.6683  -26.7735    0.0000 C   0  0  0  0  0  0  0  0  0  0  0  0
  -18.1613  -28.1852    0.0000 C   0  0  0  0  0  0  0  0  0  0  0  0
  -17.5477  -29.5539    0.0000 C   0  0  0  0  0  0  0  0  0  0  0  0
  -16.8311  -30.8717    0.0000 C   0  0  0  0  0  0  0  0  0  0  0  0
  -16.0158  -32.1307    0.0000 C   0  0  0  0  0  0  0  0  0  0  0  0
  -15.1064  -33.3237    0.0000 C   0  0  0  0  0  0  0  0  0  0  0  0
  -14.1084  -34.4435    0.0000 C   0  0  0  0  0  0  0  0  0  0  0  0
  -13.0276  -35.4837    0.0000 C   0  0  0  0  0  0  0  0  0  0  0  0
  -11.8704  -36.4380    0.0000 C   0  0  0  0  0  0  0  0  0  0  0  0
  -10.6435  -37.3010    0.0000 C   0  0  0  0  0  0  0  0  0  0  0  0
   -9.3542  -38.0675    0.0000 C   0  0  0  0  0  0  0  0  0  0  0  0
   -8.0099  -38.7331    0.0000 C   0  0  0  0  0  0  0  0  0  0  0  0
   -6.6187  -39.2938    0.0000 C   0  0  0  0  0  0  0  0  0  0  0  0
   -5.1886  -39.7464    0.0000 C   0  0  0  0  0  0  0  0  0  0  0  0
   -3.7280  -40.0882    0.0000 C   0  0  0  0  0  0  0  0  0  0  0  0
   -2.2456  -40.3172    0.0000 C   0  0  0  0  0  0  0  0  0  0  0  0
   -0.7500  -40.4320    0.0000 C   0  0  0  0  0  0  0  0  0  0  0  0
    0.7500  -40.4320    0.0000 C   0  0  0  0  0  0  0  0  0  0  0  0
    2.2456  -40.3172    0.0000 C   0  0  0  0  0  0  0  0  0  0  0  0
    3.7280  -40.0882    0.0000 C   0  0  0  0  0  0  0  0  0  0  0  0
    5.1886  -39.7464    0.0000 C   0  0  0  0  0  0  0  0  0  0  0  0
    6.6187  -39.2938    0.0000 C   0  0  0  0  0  0  0  0  0  0  0  0
    8.0099  -38.7331    0.0000 C   0  0  0  0  0  0  0  0  0  0  0  0
    9.3542  -38.0675    0.0000 C   0  0  0  0  0  0  0  0  0  0  0  0
   10.6435  -37.3010    0.0000 C   0  0  0  0  0  0  0  0  0  0  0  0
   11.8704  -36.4380    0.0000 C   0  0  0  0  0  0  0  0  0  0  0  0
   13.0276  -35.4837    0.0000 C   0  0  0  0  0  0  0  0  0  0  0  0
   14.1084  -34.4435    0.0000 C   0  0  0  0  0  0  0  0  0  0  0  0
   15.1064  -33.3237    0.0000 C   0  0  0  0  0  0  0  0  0  0  0  0
   16.0158  -32.1307    0.0000 C   0  0  0  0  0  0  0  0  0  0  0  0
   16.8311  -30.8717    0.0000 C   0  0  0  0  0  0  0  0  0  0  0  0
   17.5477  -29.5539    0.0000 C   0  0  0  0  0  0  0  0  0  0  0  0
   18.1613  -28.1852    0.0000 C   0  0  0  0  0  0  0  0  0  0  0  0
   18.6683  -26.7735    0.0000 C   0  0  0  0  0  0  0  0  0  0  0  0
   19.0658  -25.3271    0.0000 C   0  0  0  0  0  0  0  0  0  0  0  0
   19.3514  -23.8545    0.0000 C   0  0  0  0  0  0  0  0  0  0  0  0
   19.5234  -22.3644    0.0000 C   0  0  0  0  0  0  0  0  0  0  0  0
   19.5808  -20.8655    0.0000 C   0  0  0  0  0  0  0  0  0  0  0  0
   19.5234  -19.3666    0.0000 C   0  0  0  0  0  0  0  0  0  0  0  0
   19.3514  -17.8765    0.0000 C   0  0  0  0  0  0  0  0  0  0  0  0
   19.0658  -16.4040    0.0000 C   0  0  0  0  0  0  0  0  0  0  0  0
   18.6683  -14.9576    0.0000 C   0  0  0  0  0  0  0  0  0  0  0  0
   18.1613  -13.5459    0.0000 C   0  0  0  0  0  0  0  0  0  0  0  0
   17.5477  -12.1771    0.0000 C   0  0  0  0  0  0  0  0  0  0  0  0
   16.8311  -10.8593    0.0000 C   0  0  0  0  0  0  0  0  0  0  0  0
   16.0158   -9.6003    0.0000 C   0  0  0  0  0  0  0  0  0  0  0  0
   15.1064   -8.4074    0.0000 C   0  0  0  0  0  0  0  0  0  0  0  0
   14.1084   -7.2875    0.0000 C   0  0  0  0  0  0  0  0  0  0  0  0
   13.0276   -6.2474    0.0000 C   0  0  0  0  0  0  0  0  0  0  0  0
   11.8704   -5.2930    0.0000 C   0  0  0  0  0  0  0  0  0  0  0  0
   10.6435   -4.4300    0.0000 C   0  0  0  0  0  0  0  0  0  0  0  0
    9.3542   -3.6635    0.0000 C   0  0  0  0  0  0  0  0  0  0  0  0
    8.0099   -2.9979    0.0000 C   0  0  0  0  0  0  0  0  0  0  0  0
    6.6187   -2.4372    0.0000 C   0  0  0  0  0  0  0  0  0  0  0  0
    5.1886   -1.9846    0.0000 C   0  0  0  0  0  0  0  0  0  0  0  0
    3.7280   -1.6428    0.0000 C   0  0  0  0  0  0  0  0  0  0  0  0
    3.9683   -3.1235    0.0000 C   0  0  0  0  0  0  0  0  0  0  0  0
    2.6345   -3.8096    0.0000 C   0  0  0  0  0  0  0  0  0  0  0  0
    1.5697   -2.7530    0.0000 C   0  0  0  0  0  0  0  0  0  0  0  0
    2.2456   -1.4139    0.0000 C   0  0  0  0  0  0  0  0  0  0  0  0
    0.7500   -1.2990    0.0000 C   0  0  0  0  0  0  0  0  0  0  0  0
    1.5000    0.0000    0.0000 C   0  0  0  0  0  0  0  0  0  0  0  0
    0.7500    1.2990    0.0000 C   0  0  0  0  0  0  0  0  0  0  0  0
   -0.7500    1.2990    0.0000 C   0  0  0  0  0  0  0  0  0  0  0  0
   -1.5000    0.0000    0.0000 C   0  0  0  0  0  0  0  0  0  0  0  0
   -0.7500   -1.2990    0.0000 C   0  0  0  0  0  0  0  0  0  0  0  0
   -2.2456   -1.4139    0.0000 C   0  0  0  0  0  0  0  0  0  0  0  0
   -1.3061   -2.5832    0.0000 C   0  0  0  0  0  0  0  0  0  0  0  0
   -1.8490   -3.9815    0.0000 C   0  0  0  0  0  0  0  0  0  0  0  0
   -3.3314   -4.2105    0.0000 C   0  0  0  0  0  0  0  0  0  0  0  0
   -4.2709   -3.0411    0.0000 C   0  0  0  0  0  0  0  0  0  0  0  0
   -3.7280   -1.6428    0.0000 C   0  0  0  0  0  0  0  0  0  0  0  0
  1  2  1  0
  2  3  1  0
  3  4  1  0
  4  5  1  0
  5  6  1  0
  6  7  1  0
  7  8  1  0
  8  9  1  0
  9 10  1  0
 10 11  1  0
 11 12  1  0
 12 13  1  0
 13 14  1  0
 14 15  1  0
 15 16  1  0
 16 17  1  0
 17 18  1  0
 18 19  1  0
 19 20  1  0
 20 21  1  0
 21 22  1  0
 22 23  1  0
 23 24  1  0
 24 25  1  0
 25 26  1  0
 26 27  1  0
 27 28  1  0
 28 29  1  0
 29 30  1  0
 30 31  1  0
 31 32  1  0
 32 33  1  0
 33 34  1  0
 34 35  1  0
 35 36  1  0
 36 37  1  0
 37 38  1  0
 38 39  1  0
 39 40  1  0
 40 41  1  0
 41 42  1  0
 42 43  1  0
 43 44  1  0
 44 45  1  0
 45 46  1  0
 46 47  1  0
 47 48  1  0
 48 49  1  0
 49 50  1  0
 50 51  1  0
 51 52  1  0
 52 53  1  0
 53 54  1  0
 54 55  1  0
 55 56  1  0
 56 57  1  0
 57 58  1  0
 58 59  1  0
 59 60  1  0
 60 61  1  0
 61 62  2  0
 62 63  1  0
 63 64  2  0
 64 65  1  0
 65 66  2  0
 66 67  1  0
 67 68  2  0
 68 69  1  0
 69 70  2  0
 70 71  1  0
 71 72  2  0
 72 73  1  0
 73 74  2  0
 74 75  1  0
 75 76  2  0
 76 77  1  0
 77 78  2  0
 78 79  1  0
 79 80  2  0
 80 81  1  0
 81 82  2  0
 82 83  1  0
 83 84  2  0
 84 85  1  0
 85 86  2  0
 86 87  1  0
 87 88  2  0
 88 89  1  0
 89 90  2  0
 90 91  1  0
 91 92  2  0
 92 93  1  0
 93 94  2  0
 94  2  1  0
 82 78  1  0
 88 83  1  0
 94 89  1  0
M  END
>  <Title>  (1101) 
idABOKgen10

$$$$

     RDKit          2D

  8  8  0  0  0  0  0  0  0  0999 V2000
    4.5000    0.0000    0.0000 C   0  0  0  0  0  0  0  0  0  0  0  0
    3.0000    0.0000    0.0000 C   0  0  0  0  0  0  0  0  0  0  0  0
    1.5000    0.0000    0.0000 C   0  0  0  0  0  0  0  0  0  0  0  0
    0.7500   -1.2990    0.0000 C   0  0  0  0  0  0  0  0  0  0  0  0
   -0.7500   -1.2990    0.0000 C   0  0  0  0  0  0  0  0  0  0  0  0
   -1.5000    0.0000    0.0000 C   0  0  0  0  0  0  0  0  0  0  0  0
   -0.7500    1.2990    0.0000 C   0  0  0  0  0  0  0  0  0  0  0  0
    0.7500    1.2990    0.0000 N   0  0  0  0  0  0  0  0  0  0  0  0
  1  2  3  0
  2  3  1  0
  3  4  2  0
  4  5  1  0
  5  6  2  0
  6  7  1  0
  7  8  2  0
  8  3  1  0
M  END
>  <Title>  (1102) 
idABOLgen10

$$$$

     RDKit          2D

  8  8  0  0  0  0  0  0  0  0999 V2000
    4.0607    0.0000    0.0000 N   0  0  0  0  0  0  0  0  0  0  0  0
    2.5607    0.0000    0.0000 C   0  0  0  0  0  0  0  0  0  0  0  0
    1.0607    0.0000    0.0000 C   0  0  0  0  0  0  0  0  0  0  0  0
   -0.0000   -1.0607    0.0000 C   0  0  0  0  0  0  0  0  0  0  0  0
   -0.0000   -2.5607    0.0000 C   0  0  0  0  0  0  0  0  0  0  0  0
   -0.0000   -4.0607    0.0000 N   0  0  0  0  0  0  0  0  0  0  0  0
   -1.0607    0.0000    0.0000 C   0  0  0  0  0  0  0  0  0  0  0  0
    0.0000    1.0607    0.0000 C   0  0  0  0  0  0  0  0  0  0  0  0
  1  2  3  0
  2  3  1  0
  3  4  2  0
  4  5  1  0
  5  6  3  0
  4  7  1  0
  7  8  2  0
  8  3  1  0
M  END
>  <Title>  (1103) 
idABOMgen10

$$$$

     RDKit          2D

109109  0  0  0  0  0  0  0  0999 V2000
   26.0254    0.0000    0.0000 C   0  0  0  0  0  0  0  0  0  0  0  0
   25.9822    1.4994    0.0000 C   0  0  0  0  0  0  0  0  0  0  0  0
   25.8527    2.9938    0.0000 C   0  0  0  0  0  0  0  0  0  0  0  0
   25.6373    4.4782    0.0000 C   0  0  0  0  0  0  0  0  0  0  0  0
   25.3367    5.9478    0.0000 C   0  0  0  0  0  0  0  0  0  0  0  0
   24.9519    7.3976    0.0000 C   0  0  0  0  0  0  0  0  0  0  0  0
   24.4843    8.8229    0.0000 C   0  0  0  0  0  0  0  0  0  0  0  0
   23.9353   10.2188    0.0000 C   0  0  0  0  0  0  0  0  0  0  0  0
   23.3068   11.5808    0.0000 C   0  0  0  0  0  0  0  0  0  0  0  0
   22.6009   12.9043    0.0000 C   0  0  0  0  0  0  0  0  0  0  0  0
   21.8200   14.1850    0.0000 C   0  0  0  0  0  0  0  0  0  0  0  0
   20.9665   15.4185    0.0000 C   0  0  0  0  0  0  0  0  0  0  0  0
   20.0434   16.6008    0.0000 C   0  0  0  0  0  0  0  0  0  0  0  0
   19.0537   17.7280    0.0000 C   0  0  0  0  0  0  0  0  0  0  0  0
   18.0007   18.7962    0.0000 C   0  0  0  0  0  0  0  0  0  0  0  0
   16.8879   19.8021    0.0000 C   0  0  0  0  0  0  0  0  0  0  0  0
   15.7190   20.7421    0.0000 C   0  0  0  0  0  0  0  0  0  0  0  0
   14.4979   21.6133    0.0000 C   0  0  0  0  0  0  0  0  0  0  0  0
   13.2287   22.4126    0.0000 C   0  0  0  0  0  0  0  0  0  0  0  0
   11.9154   23.1375    0.0000 C   0  0  0  0  0  0  0  0  0  0  0  0
   10.5627   23.7856    0.0000 C   0  0  0  0  0  0  0  0  0  0  0  0
    9.1748   24.3546    0.0000 C   0  0  0  0  0  0  0  0  0  0  0  0
    7.7564   24.8427    0.0000 C   0  0  0  0  0  0  0  0  0  0  0  0
    6.3123   25.2483    0.0000 C   0  0  0  0  0  0  0  0  0  0  0  0
    4.8472   25.5701    0.0000 C   0  0  0  0  0  0  0  0  0  0  0  0
    3.3660   25.8068    0.0000 C   0  0  0  0  0  0  0  0  0  0  0  0
    1.8736   25.9579    0.0000 C   0  0  0  0  0  0  0  0  0  0  0  0
    0.3750   26.0227    0.0000 C   0  0  0  0  0  0  0  0  0  0  0  0
   -1.1248   26.0011    0.0000 C   0  0  0  0  0  0  0  0  0  0  0  0
   -2.6209   25.8931    0.0000 C   0  0  0  0  0  0  0  0  0  0  0  0
   -4.1083   25.6991    0.0000 C   0  0  0  0  0  0  0  0  0  0  0  0
   -5.5821   25.4198    0.0000 C   0  0  0  0  0  0  0  0  0  0  0  0
   -7.0373   25.0559    0.0000 C   0  0  0  0  0  0  0  0  0  0  0  0
   -8.4691   24.6089    0.0000 C   0  0  0  0  0  0  0  0  0  0  0  0
   -9.8728   24.0801    0.0000 C   0  0  0  0  0  0  0  0  0  0  0  0
  -11.2437   23.4713    0.0000 C   0  0  0  0  0  0  0  0  0  0  0  0
  -12.5773   22.7845    0.0000 C   0  0  0  0  0  0  0  0  0  0  0  0
  -13.8690   22.0221    0.0000 C   0  0  0  0  0  0  0  0  0  0  0  0
  -15.1147   21.1865    0.0000 C   0  0  0  0  0  0  0  0  0  0  0  0
  -16.3102   20.2805    0.0000 C   0  0  0  0  0  0  0  0  0  0  0  0
  -17.4515   19.3072    0.0000 C   0  0  0  0  0  0  0  0  0  0  0  0
  -18.5349   18.2697    0.0000 C   0  0  0  0  0  0  0  0  0  0  0  0
  -19.5567   17.1715    0.0000 C   0  0  0  0  0  0  0  0  0  0  0  0
  -20.5135   16.0163    0.0000 C   0  0  0  0  0  0  0  0  0  0  0  0
  -21.4021   14.8079    0.0000 C   0  0  0  0  0  0  0  0  0  0  0  0
  -22.2197   13.5503    0.0000 C   0  0  0  0  0  0  0  0  0  0  0  0
  -22.9634   12.2476    0.0000 C   0  0  0  0  0  0  0  0  0  0  0  0
  -23.6309   10.9043    0.0000 C   0  0  0  0  0  0  0  0  0  0  0  0
  -24.2199    9.5248    0.0000 C   0  0  0  0  0  0  0  0  0  0  0  0
  -24.7284    8.1136    0.0000 C   0  0  0  0  0  0  0  0  0  0  0  0
  -25.1547    6.6755    0.0000 C   0  0  0  0  0  0  0  0  0  0  0  0
  -25.4976    5.2152    0.0000 C   0  0  0  0  0  0  0  0  0  0  0  0
  -25.7557    3.7376    0.0000 C   0  0  0  0  0  0  0  0  0  0  0  0
  -25.9282    2.2475    0.0000 C   0  0  0  0  0  0  0  0  0  0  0  0
  -26.0146    0.7500    0.0000 C   0  0  0  0  0  0  0  0  0  0  0  0
  -26.0146   -0.7500    0.0000 C   0  0  0  0  0  0  0  0  0  0  0  0
  -25.9282   -2.2475    0.0000 C   0  0  0  0  0  0  0  0  0  0  0  0
  -25.7557   -3.7376    0.0000 C   0  0  0  0  0  0  0  0  0  0  0  0
  -25.4976   -5.2152    0.0000 C   0  0  0  0  0  0  0  0  0  0  0  0
  -25.1547   -6.6755    0.0000 C   0  0  0  0  0  0  0  0  0  0  0  0
  -24.7284   -8.1136    0.0000 C   0  0  0  0  0  0  0  0  0  0  0  0
  -24.2199   -9.5248    0.0000 C   0  0  0  0  0  0  0  0  0  0  0  0
  -23.6309  -10.9043    0.0000 C   0  0  0  0  0  0  0  0  0  0  0  0
  -22.9634  -12.2476    0.0000 C   0  0  0  0  0  0  0  0  0  0  0  0
  -22.2197  -13.5503    0.0000 C   0  0  0  0  0  0  0  0  0  0  0  0
  -21.4021  -14.8079    0.0000 C   0  0  0  0  0  0  0  0  0  0  0  0
  -20.5135  -16.0163    0.0000 C   0  0  0  0  0  0  0  0  0  0  0  0
  -19.5567  -17.1715    0.0000 C   0  0  0  0  0  0  0  0  0  0  0  0
  -18.5349  -18.2697    0.0000 C   0  0  0  0  0  0  0  0  0  0  0  0
  -17.4515  -19.3072    0.0000 C   0  0  0  0  0  0  0  0  0  0  0  0
  -16.3102  -20.2805    0.0000 C   0  0  0  0  0  0  0  0  0  0  0  0
  -15.1147  -21.1865    0.0000 C   0  0  0  0  0  0  0  0  0  0  0  0
  -13.8690  -22.0221    0.0000 C   0  0  0  0  0  0  0  0  0  0  0  0
  -12.5773  -22.7845    0.0000 C   0  0  0  0  0  0  0  0  0  0  0  0
  -11.2437  -23.4713    0.0000 C   0  0  0  0  0  0  0  0  0  0  0  0
   -9.8728  -24.0801    0.0000 C   0  0  0  0  0  0  0  0  0  0  0  0
   -8.4691  -24.6089    0.0000 C   0  0  0  0  0  0  0  0  0  0  0  0
   -7.0373  -25.0559    0.0000 C   0  0  0  0  0  0  0  0  0  0  0  0
   -5.5821  -25.4198    0.0000 C   0  0  0  0  0  0  0  0  0  0  0  0
   -4.1083  -25.6991    0.0000 C   0  0  0  0  0  0  0  0  0  0  0  0
   -2.6209  -25.8931    0.0000 C   0  0  0  0  0  0  0  0  0  0  0  0
   -1.1248  -26.0011    0.0000 C   0  0  0  0  0  0  0  0  0  0  0  0
    0.3750  -26.0227    0.0000 C   0  0  0  0  0  0  0  0  0  0  0  0
    1.8736  -25.9579    0.0000 C   0  0  0  0  0  0  0  0  0  0  0  0
    3.3660  -25.8068    0.0000 C   0  0  0  0  0  0  0  0  0  0  0  0
    4.8472  -25.5701    0.0000 C   0  0  0  0  0  0  0  0  0  0  0  0
    6.3123  -25.2483    0.0000 C   0  0  0  0  0  0  0  0  0  0  0  0
    7.7564  -24.8427    0.0000 C   0  0  0  0  0  0  0  0  0  0  0  0
    9.1748  -24.3546    0.0000 C   0  0  0  0  0  0  0  0  0  0  0  0
   10.5627  -23.7856    0.0000 C   0  0  0  0  0  0  0  0  0  0  0  0
   11.9154  -23.1375    0.0000 C   0  0  0  0  0  0  0  0  0  0  0  0
   13.2287  -22.4126    0.0000 C   0  0  0  0  0  0  0  0  0  0  0  0
   14.4979  -21.6133    0.0000 C   0  0  0  0  0  0  0  0  0  0  0  0
   15.7190  -20.7421    0.0000 C   0  0  0  0  0  0  0  0  0  0  0  0
   16.8879  -19.8021    0.0000 C   0  0  0  0  0  0  0  0  0  0  0  0
   18.0007  -18.7962    0.0000 C   0  0  0  0  0  0  0  0  0  0  0  0
   19.0537  -17.7280    0.0000 C   0  0  0  0  0  0  0  0  0  0  0  0
   20.0434  -16.6008    0.0000 C   0  0  0  0  0  0  0  0  0  0  0  0
   20.9665  -15.4185    0.0000 C   0  0  0  0  0  0  0  0  0  0  0  0
   21.8200  -14.1850    0.0000 C   0  0  0  0  0  0  0  0  0  0  0  0
   22.6009  -12.9043    0.0000 C   0  0  0  0  0  0  0  0  0  0  0  0
   23.3068  -11.5808    0.0000 C   0  0  0  0  0  0  0  0  0  0  0  0
   23.9353  -10.2188    0.0000 C   0  0  0  0  0  0  0  0  0  0  0  0
   24.4843   -8.8229    0.0000 C   0  0  0  0  0  0  0  0  0  0  0  0
   24.9519   -7.3976    0.0000 C   0  0  0  0  0  0  0  0  0  0  0  0
   25.3367   -5.9478    0.0000 C   0  0  0  0  0  0  0  0  0  0  0  0
   25.6373   -4.4782    0.0000 C   0  0  0  0  0  0  0  0  0  0  0  0
   25.8527   -2.9938    0.0000 C   0  0  0  0  0  0  0  0  0  0  0  0
   25.9822   -1.4994    0.0000 C   0  0  0  0  0  0  0  0  0  0  0  0
  1  2  1  0
  2  3  1  0
  3  4  1  0
  4  5  1  0
  5  6  1  0
  6  7  1  0
  7  8  1  0
  8  9  1  0
  9 10  1  0
 10 11  1  0
 11 12  1  0
 12 13  1  0
 13 14  1  0
 14 15  1  0
 15 16  1  0
 16 17  1  0
 17 18  1  0
 18 19  1  0
 19 20  1  0
 20 21  1  0
 21 22  1  0
 22 23  1  0
 23 24  1  0
 24 25  1  0
 25 26  1  0
 26 27  1  0
 27 28  1  0
 28 29  1  0
 29 30  1  0
 30 31  1  0
 31 32  1  0
 32 33  1  0
 33 34  1  0
 34 35  1  0
 35 36  1  0
 36 37  1  0
 37 38  1  0
 38 39  1  0
 39 40  1  0
 40 41  1  0
 41 42  1  0
 42 43  1  0
 43 44  1  0
 44 45  1  0
 45 46  1  0
 46 47  1  0
 47 48  1  0
 48 49  1  0
 49 50  1  0
 50 51  1  0
 51 52  1  0
 52 53  1  0
 53 54  1  0
 54 55  1  0
 55 56  1  0
 56 57  1  0
 57 58  1  0
 58 59  1  0
 59 60  1  0
 60 61  1  0
 61 62  1  0
 62 63  1  0
 63 64  1  0
 64 65  1  0
 65 66  1  0
 66 67  1  0
 67 68  1  0
 68 69  1  0
 69 70  1  0
 70 71  1  0
 71 72  1  0
 72 73  1  0
 73 74  1  0
 74 75  1  0
 75 76  1  0
 76 77  1  0
 77 78  1  0
 78 79  1  0
 79 80  1  0
 80 81  1  0
 81 82  1  0
 82 83  1  0
 83 84  1  0
 84 85  1  0
 85 86  1  0
 86 87  1  0
 87 88  1  0
 88 89  1  0
 89 90  1  0
 90 91  1  0
 91 92  1  0
 92 93  1  0
 93 94  1  0
 94 95  1  0
 95 96  1  0
 96 97  1  0
 97 98  1  0
 98 99  1  0
 99100  1  0
100101  1  0
101102  1  0
102103  1  0
103104  1  0
104105  1  0
105106  1  0
106107  1  0
107108  1  0
108109  1  0
109  1  1  0
M  END
>  <Title>  (1104) 
idABONgen10

$$$$

     RDKit          2D

 53 54  0  0  0  0  0  0  0  0999 V2000
   -2.5298   -0.0236    0.0000 O   0  0  0  0  0  0  0  0  0  0  0  0
   -2.2372   -1.4948    0.0000 C   0  0  0  0  0  0  0  0  0  0  0  0
   -3.6861   -1.8831    0.0000 C   0  0  0  0  0  0  0  0  0  0  0  0
   -5.0719   -2.4571    0.0000 C   0  0  0  0  0  0  0  0  0  0  0  0
   -6.3709   -3.2071    0.0000 C   0  0  0  0  0  0  0  0  0  0  0  0
   -7.5609   -4.1202    0.0000 C   0  0  0  0  0  0  0  0  0  0  0  0
   -8.6216   -5.1809    0.0000 C   0  0  0  0  0  0  0  0  0  0  0  0
   -9.5347   -6.3709    0.0000 C   0  0  0  0  0  0  0  0  0  0  0  0
  -10.2847   -7.6700    0.0000 C   0  0  0  0  0  0  0  0  0  0  0  0
  -10.8588   -9.0558    0.0000 C   0  0  0  0  0  0  0  0  0  0  0  0
  -11.2470  -10.5047    0.0000 C   0  0  0  0  0  0  0  0  0  0  0  0
  -11.4428  -11.9918    0.0000 C   0  0  0  0  0  0  0  0  0  0  0  0
  -11.4428  -13.4918    0.0000 C   0  0  0  0  0  0  0  0  0  0  0  0
  -11.2470  -14.9790    0.0000 C   0  0  0  0  0  0  0  0  0  0  0  0
  -10.8588  -16.4279    0.0000 C   0  0  0  0  0  0  0  0  0  0  0  0
  -10.2847  -17.8137    0.0000 C   0  0  0  0  0  0  0  0  0  0  0  0
   -9.5347  -19.1127    0.0000 C   0  0  0  0  0  0  0  0  0  0  0  0
   -8.6216  -20.3028    0.0000 C   0  0  0  0  0  0  0  0  0  0  0  0
   -7.5609  -21.3634    0.0000 C   0  0  0  0  0  0  0  0  0  0  0  0
   -6.3709  -22.2766    0.0000 C   0  0  0  0  0  0  0  0  0  0  0  0
   -5.0719  -23.0266    0.0000 C   0  0  0  0  0  0  0  0  0  0  0  0
   -3.6861  -23.6006    0.0000 C   0  0  0  0  0  0  0  0  0  0  0  0
   -2.2372  -23.9888    0.0000 C   0  0  0  0  0  0  0  0  0  0  0  0
   -0.7500  -24.1846    0.0000 C   0  0  0  0  0  0  0  0  0  0  0  0
    0.7500  -24.1846    0.0000 C   0  0  0  0  0  0  0  0  0  0  0  0
    2.2372  -23.9888    0.0000 C   0  0  0  0  0  0  0  0  0  0  0  0
    3.6861  -23.6006    0.0000 C   0  0  0  0  0  0  0  0  0  0  0  0
    5.0719  -23.0266    0.0000 C   0  0  0  0  0  0  0  0  0  0  0  0
    6.3709  -22.2766    0.0000 C   0  0  0  0  0  0  0  0  0  0  0  0
    7.5609  -21.3634    0.0000 C   0  0  0  0  0  0  0  0  0  0  0  0
    8.6216  -20.3028    0.0000 C   0  0  0  0  0  0  0  0  0  0  0  0
    9.5347  -19.1127    0.0000 C   0  0  0  0  0  0  0  0  0  0  0  0
   10.2847  -17.8137    0.0000 C   0  0  0  0  0  0  0  0  0  0  0  0
   10.8588  -16.4279    0.0000 C   0  0  0  0  0  0  0  0  0  0  0  0
   11.2470  -14.9790    0.0000 C   0  0  0  0  0  0  0  0  0  0  0  0
   11.4428  -13.4918    0.0000 C   0  0  0  0  0  0  0  0  0  0  0  0
   11.4428  -11.9918    0.0000 C   0  0  0  0  0  0  0  0  0  0  0  0
   11.2470  -10.5047    0.0000 C   0  0  0  0  0  0  0  0  0  0  0  0
   10.8588   -9.0558    0.0000 C   0  0  0  0  0  0  0  0  0  0  0  0
   10.2847   -7.6700    0.0000 C   0  0  0  0  0  0  0  0  0  0  0  0
    9.5347   -6.3709    0.0000 C   0  0  0  0  0  0  0  0  0  0  0  0
    8.6216   -5.1809    0.0000 C   0  0  0  0  0  0  0  0  0  0  0  0
    7.5609   -4.1202    0.0000 C   0  0  0  0  0  0  0  0  0  0  0  0
    6.3709   -3.2071    0.0000 C   0  0  0  0  0  0  0  0  0  0  0  0
    5.0719   -2.4571    0.0000 C   0  0  0  0  0  0  0  0  0  0  0  0
    3.6861   -1.8831    0.0000 C   0  0  0  0  0  0  0  0  0  0  0  0
    2.2372   -1.4948    0.0000 C   0  0  0  0  0  0  0  0  0  0  0  0
    0.7500   -1.2990    0.0000 C   0  0  0  0  0  0  0  0  0  0  0  0
    1.5000    0.0000    0.0000 C   0  0  0  0  0  0  0  0  0  0  0  0
    0.7500    1.2990    0.0000 C   0  0  0  0  0  0  0  0  0  0  0  0
   -0.7500    1.2990    0.0000 C   0  0  0  0  0  0  0  0  0  0  0  0
   -1.5000    0.0000    0.0000 C   0  0  0  0  0  0  0  0  0  0  0  0
   -0.7500   -1.2990    0.0000 C   0  0  0  0  0  0  0  0  0  0  0  0
  1  2  1  0
  2  3  1  0
  3  4  2  0
  4  5  1  0
  5  6  2  0
  6  7  1  0
  7  8  1  0
  8  9  1  0
  9 10  1  0
 10 11  1  0
 11 12  1  0
 12 13  1  0
 13 14  1  0
 14 15  1  0
 15 16  1  0
 16 17  1  0
 17 18  1  0
 18 19  1  0
 19 20  1  0
 20 21  1  0
 21 22  1  0
 22 23  1  0
 23 24  1  0
 24 25  1  0
 25 26  1  0
 26 27  1  0
 27 28  1  0
 28 29  1  0
 29 30  1  0
 30 31  1  0
 31 32  1  0
 32 33  1  0
 33 34  1  0
 34 35  1  0
 35 36  1  0
 36 37  1  0
 37 38  1  0
 38 39  1  0
 39 40  1  0
 40 41  1  0
 41 42  1  0
 42 43  1  0
 43 44  1  0
 44 45  1  0
 45 46  1  0
 46 47  1  0
 47 48  1  0
 48 49  2  0
 49 50  1  0
 50 51  2  0
 51 52  1  0
 52 53  2  0
 53  2  1  0
 53 48  1  0
M  END
>  <Title>  (1105) 
idABOOgen10

$$$$

     RDKit          2D

 61 61  0  0  0  0  0  0  0  0999 V2000
   15.5919    0.0000    0.0000 C   0  0  0  0  0  0  0  0  0  0  0  0
   14.0919    0.0000    0.0000 C   0  0  0  0  0  0  0  0  0  0  0  0
   14.0120    1.4979    0.0000 C   0  0  0  0  0  0  0  0  0  0  0  0
   13.7734    2.9788    0.0000 C   0  0  0  0  0  0  0  0  0  0  0  0
   13.3788    4.4259    0.0000 C   0  0  0  0  0  0  0  0  0  0  0  0
   12.8325    5.8229    0.0000 C   0  0  0  0  0  0  0  0  0  0  0  0
   12.1409    7.1540    0.0000 C   0  0  0  0  0  0  0  0  0  0  0  0
   11.3117    8.4039    0.0000 C   0  0  0  0  0  0  0  0  0  0  0  0
   10.3543    9.5587    0.0000 C   0  0  0  0  0  0  0  0  0  0  0  0
    9.2797   10.6051    0.0000 C   0  0  0  0  0  0  0  0  0  0  0  0
    8.0998   11.5314    0.0000 C   0  0  0  0  0  0  0  0  0  0  0  0
    6.8282   12.3270    0.0000 C   0  0  0  0  0  0  0  0  0  0  0  0
    5.4793   12.9830    0.0000 C   0  0  0  0  0  0  0  0  0  0  0  0
    4.0682   13.4919    0.0000 C   0  0  0  0  0  0  0  0  0  0  0  0
    2.6111   13.8479    0.0000 C   0  0  0  0  0  0  0  0  0  0  0  0
    1.1243   14.0469    0.0000 C   0  0  0  0  0  0  0  0  0  0  0  0
   -0.3751   14.0869    0.0000 C   0  0  0  0  0  0  0  0  0  0  0  0
   -1.8704   13.9672    0.0000 C   0  0  0  0  0  0  0  0  0  0  0  0
   -3.3444   13.6893    0.0000 C   0  0  0  0  0  0  0  0  0  0  0  0
   -4.7805   13.2562    0.0000 C   0  0  0  0  0  0  0  0  0  0  0  0
   -6.1625   12.6730    0.0000 C   0  0  0  0  0  0  0  0  0  0  0  0
   -7.4746   11.9462    0.0000 C   0  0  0  0  0  0  0  0  0  0  0  0
   -8.7021   11.0840    0.0000 C   0  0  0  0  0  0  0  0  0  0  0  0
   -9.8309   10.0962    0.0000 C   0  0  0  0  0  0  0  0  0  0  0  0
  -10.8484    8.9941    0.0000 C   0  0  0  0  0  0  0  0  0  0  0  0
  -11.7430    7.7900    0.0000 C   0  0  0  0  0  0  0  0  0  0  0  0
  -12.5045    6.4977    0.0000 C   0  0  0  0  0  0  0  0  0  0  0  0
  -13.1243    5.1317    0.0000 C   0  0  0  0  0  0  0  0  0  0  0  0
  -13.5954    3.7076    0.0000 C   0  0  0  0  0  0  0  0  0  0  0  0
  -13.9125    2.2415    0.0000 C   0  0  0  0  0  0  0  0  0  0  0  0
  -14.0719    0.7500    0.0000 C   0  0  0  0  0  0  0  0  0  0  0  0
  -14.0719   -0.7500    0.0000 C   0  0  0  0  0  0  0  0  0  0  0  0
  -13.9125   -2.2415    0.0000 C   0  0  0  0  0  0  0  0  0  0  0  0
  -13.5954   -3.7076    0.0000 C   0  0  0  0  0  0  0  0  0  0  0  0
  -13.1243   -5.1317    0.0000 C   0  0  0  0  0  0  0  0  0  0  0  0
  -12.5045   -6.4977    0.0000 C   0  0  0  0  0  0  0  0  0  0  0  0
  -11.7430   -7.7900    0.0000 C   0  0  0  0  0  0  0  0  0  0  0  0
  -10.8484   -8.9941    0.0000 C   0  0  0  0  0  0  0  0  0  0  0  0
   -9.8309  -10.0962    0.0000 C   0  0  0  0  0  0  0  0  0  0  0  0
   -8.7021  -11.0840    0.0000 C   0  0  0  0  0  0  0  0  0  0  0  0
   -7.4746  -11.9462    0.0000 C   0  0  0  0  0  0  0  0  0  0  0  0
   -6.1625  -12.6730    0.0000 C   0  0  0  0  0  0  0  0  0  0  0  0
   -4.7805  -13.2562    0.0000 C   0  0  0  0  0  0  0  0  0  0  0  0
   -3.3444  -13.6893    0.0000 C   0  0  0  0  0  0  0  0  0  0  0  0
   -1.8704  -13.9672    0.0000 C   0  0  0  0  0  0  0  0  0  0  0  0
   -0.3751  -14.0869    0.0000 C   0  0  0  0  0  0  0  0  0  0  0  0
    1.1243  -14.0469    0.0000 C   0  0  0  0  0  0  0  0  0  0  0  0
    2.6111  -13.8479    0.0000 C   0  0  0  0  0  0  0  0  0  0  0  0
    4.0682  -13.4919    0.0000 C   0  0  0  0  0  0  0  0  0  0  0  0
    5.4793  -12.9830    0.0000 C   0  0  0  0  0  0  0  0  0  0  0  0
    6.8282  -12.3270    0.0000 C   0  0  0  0  0  0  0  0  0  0  0  0
    8.0998  -11.5314    0.0000 C   0  0  0  0  0  0  0  0  0  0  0  0
    9.2797  -10.6051    0.0000 C   0  0  0  0  0  0  0  0  0  0  0  0
   10.3543   -9.5587    0.0000 C   0  0  0  0  0  0  0  0  0  0  0  0
   11.3117   -8.4039    0.0000 C   0  0  0  0  0  0  0  0  0  0  0  0
   12.1409   -7.1540    0.0000 C   0  0  0  0  0  0  0  0  0  0  0  0
   12.8325   -5.8229    0.0000 C   0  0  0  0  0  0  0  0  0  0  0  0
   13.3788   -4.4259    0.0000 C   0  0  0  0  0  0  0  0  0  0  0  0
   13.7734   -2.9788    0.0000 C   0  0  0  0  0  0  0  0  0  0  0  0
   14.0120   -1.4979    0.0000 C   0  0  0  0  0  0  0  0  0  0  0  0
   15.5035   -1.6573    0.0000 C   0  0  0  0  0  0  0  0  0  0  0  0
  1  2  1  0
  2  3  2  0
  3  4  1  0
  4  5  2  0
  5  6  1  0
  6  7  2  0
  7  8  1  0
  8  9  2  0
  9 10  1  0
 10 11  2  0
 11 12  1  0
 12 13  2  0
 13 14  1  0
 14 15  2  0
 15 16  1  0
 16 17  2  0
 17 18  1  0
 18 19  2  0
 19 20  1  0
 20 21  2  0
 21 22  1  0
 22 23  2  0
 23 24  1  0
 24 25  2  0
 25 26  1  0
 26 27  2  0
 27 28  1  0
 28 29  2  0
 29 30  1  0
 30 31  2  0
 31 32  1  0
 32 33  1  0
 33 34  1  0
 34 35  1  0
 35 36  1  0
 36 37  1  0
 37 38  1  0
 38 39  1  0
 39 40  1  0
 40 41  1  0
 41 42  1  0
 42 43  1  0
 43 44  1  0
 44 45  1  0
 45 46  1  0
 46 47  1  0
 47 48  1  0
 48 49  1  0
 49 50  1  0
 50 51  1  0
 51 52  1  0
 52 53  1  0
 53 54  1  0
 54 55  1  0
 55 56  1  0
 56 57  1  0
 57 58  1  0
 58 59  1  0
 59 60  1  0
 60 61  1  0
 60  2  1  0
M  END
>  <Title>  (1106) 
idABOPgen10

$$$$

     RDKit          2D

 68 69  0  0  0  0  0  0  0  0999 V2000
   -2.2483   -1.0506    0.0000 C   0  0  0  0  0  0  0  0  0  0  0  0
   -2.4974    0.4285    0.0000 C   0  0  0  0  0  0  0  0  0  0  0  0
   -3.9870    0.2522    0.0000 C   0  0  0  0  0  0  0  0  0  0  0  0
   -5.4867    0.2228    0.0000 C   0  0  0  0  0  0  0  0  0  0  0  0
   -6.9821    0.3405    0.0000 C   0  0  0  0  0  0  0  0  0  0  0  0
   -8.4588    0.6042    0.0000 C   0  0  0  0  0  0  0  0  0  0  0  0
   -9.9024    1.0113    0.0000 C   0  0  0  0  0  0  0  0  0  0  0  0
  -11.2993    1.5580    0.0000 C   0  0  0  0  0  0  0  0  0  0  0  0
  -12.6358    2.2390    0.0000 C   0  0  0  0  0  0  0  0  0  0  0  0
  -13.8991    3.0477    0.0000 C   0  0  0  0  0  0  0  0  0  0  0  0
  -15.0771    3.9764    0.0000 C   0  0  0  0  0  0  0  0  0  0  0  0
  -16.1584    5.0160    0.0000 C   0  0  0  0  0  0  0  0  0  0  0  0
  -17.1325    6.1566    0.0000 C   0  0  0  0  0  0  0  0  0  0  0  0
  -17.9902    7.3872    0.0000 C   0  0  0  0  0  0  0  0  0  0  0  0
  -18.7231    8.6959    0.0000 C   0  0  0  0  0  0  0  0  0  0  0  0
  -19.3243   10.0702    0.0000 C   0  0  0  0  0  0  0  0  0  0  0  0
  -19.7878   11.4968    0.0000 C   0  0  0  0  0  0  0  0  0  0  0  0
  -20.1093   12.9620    0.0000 C   0  0  0  0  0  0  0  0  0  0  0  0
  -20.2856   14.4516    0.0000 C   0  0  0  0  0  0  0  0  0  0  0  0
  -20.3150   15.9513    0.0000 C   0  0  0  0  0  0  0  0  0  0  0  0
  -20.1973   17.4467    0.0000 C   0  0  0  0  0  0  0  0  0  0  0  0
  -19.9336   18.9233    0.0000 C   0  0  0  0  0  0  0  0  0  0  0  0
  -19.5265   20.3670    0.0000 C   0  0  0  0  0  0  0  0  0  0  0  0
  -18.9798   21.7638    0.0000 C   0  0  0  0  0  0  0  0  0  0  0  0
  -18.2988   23.1003    0.0000 C   0  0  0  0  0  0  0  0  0  0  0  0
  -17.4901   24.3636    0.0000 C   0  0  0  0  0  0  0  0  0  0  0  0
  -16.5614   25.5416    0.0000 C   0  0  0  0  0  0  0  0  0  0  0  0
  -15.5218   26.6229    0.0000 C   0  0  0  0  0  0  0  0  0  0  0  0
  -14.3812   27.5971    0.0000 C   0  0  0  0  0  0  0  0  0  0  0  0
  -13.1506   28.4547    0.0000 C   0  0  0  0  0  0  0  0  0  0  0  0
  -11.8418   29.1877    0.0000 C   0  0  0  0  0  0  0  0  0  0  0  0
  -10.4676   29.7888    0.0000 C   0  0  0  0  0  0  0  0  0  0  0  0
   -9.0410   30.2523    0.0000 C   0  0  0  0  0  0  0  0  0  0  0  0
   -7.5758   30.5738    0.0000 C   0  0  0  0  0  0  0  0  0  0  0  0
   -6.0862   30.7501    0.0000 C   0  0  0  0  0  0  0  0  0  0  0  0
   -4.5865   30.7795    0.0000 C   0  0  0  0  0  0  0  0  0  0  0  0
   -3.0911   30.6619    0.0000 C   0  0  0  0  0  0  0  0  0  0  0  0
   -1.6145   30.3982    0.0000 C   0  0  0  0  0  0  0  0  0  0  0  0
   -0.1708   29.9910    0.0000 C   0  0  0  0  0  0  0  0  0  0  0  0
    1.2260   29.4443    0.0000 C   0  0  0  0  0  0  0  0  0  0  0  0
    2.5625   28.7633    0.0000 C   0  0  0  0  0  0  0  0  0  0  0  0
    3.8258   27.9546    0.0000 C   0  0  0  0  0  0  0  0  0  0  0  0
    5.0038   27.0260    0.0000 C   0  0  0  0  0  0  0  0  0  0  0  0
    6.0851   25.9863    0.0000 C   0  0  0  0  0  0  0  0  0  0  0  0
    7.0593   24.8457    0.0000 C   0  0  0  0  0  0  0  0  0  0  0  0
    7.9169   23.6151    0.0000 C   0  0  0  0  0  0  0  0  0  0  0  0
    8.6499   22.3064    0.0000 C   0  0  0  0  0  0  0  0  0  0  0  0
    9.2510   20.9321    0.0000 C   0  0  0  0  0  0  0  0  0  0  0  0
    9.7145   19.5055    0.0000 C   0  0  0  0  0  0  0  0  0  0  0  0
   10.0360   18.0404    0.0000 C   0  0  0  0  0  0  0  0  0  0  0  0
   10.2123   16.5508    0.0000 C   0  0  0  0  0  0  0  0  0  0  0  0
   10.2418   15.0510    0.0000 C   0  0  0  0  0  0  0  0  0  0  0  0
   10.1241   13.5557    0.0000 C   0  0  0  0  0  0  0  0  0  0  0  0
    9.8604   12.0790    0.0000 C   0  0  0  0  0  0  0  0  0  0  0  0
    9.4532   10.6353    0.0000 C   0  0  0  0  0  0  0  0  0  0  0  0
    8.9065    9.2385    0.0000 C   0  0  0  0  0  0  0  0  0  0  0  0
    8.2255    7.9020    0.0000 C   0  0  0  0  0  0  0  0  0  0  0  0
    7.4168    6.6387    0.0000 C   0  0  0  0  0  0  0  0  0  0  0  0
    6.4882    5.4607    0.0000 C   0  0  0  0  0  0  0  0  0  0  0  0
    5.4485    4.3794    0.0000 C   0  0  0  0  0  0  0  0  0  0  0  0
    4.3079    3.4053    0.0000 C   0  0  0  0  0  0  0  0  0  0  0  0
    3.0773    2.5476    0.0000 C   0  0  0  0  0  0  0  0  0  0  0  0
    1.7686    1.8146    0.0000 C   0  0  0  0  0  0  0  0  0  0  0  0
    0.3943    1.2135    0.0000 C   0  0  0  0  0  0  0  0  0  0  0  0
    1.2760    0.0000    0.0000 C   0  0  0  0  0  0  0  0  0  0  0  0
    0.3943   -1.2135    0.0000 C   0  0  0  0  0  0  0  0  0  0  0  0
   -1.0323   -0.7500    0.0000 C   0  0  0  0  0  0  0  0  0  0  0  0
   -1.0323    0.7500    0.0000 C   0  0  0  0  0  0  0  0  0  0  0  0
  1  2  1  0
  2  3  1  0
  3  4  1  0
  4  5  1  0
  5  6  1  0
  6  7  1  0
  7  8  2  0
  8  9  1  0
  9 10  2  0
 10 11  1  0
 11 12  2  0
 12 13  1  0
 13 14  2  0
 14 15  1  0
 15 16  2  0
 16 17  1  0
 17 18  2  0
 18 19  1  0
 19 20  2  0
 20 21  1  0
 21 22  2  0
 22 23  1  0
 23 24  2  0
 24 25  1  0
 25 26  2  0
 26 27  1  0
 27 28  2  0
 28 29  1  0
 29 30  2  0
 30 31  1  0
 31 32  2  0
 32 33  1  0
 33 34  2  0
 34 35  1  0
 35 36  2  0
 36 37  1  0
 37 38  2  0
 38 39  1  0
 39 40  2  0
 40 41  1  0
 41 42  2  0
 42 43  1  0
 43 44  2  0
 44 45  1  0
 45 46  2  0
 46 47  1  0
 47 48  2  0
 48 49  1  0
 49 50  2  0
 50 51  1  0
 51 52  2  0
 52 53  1  0
 53 54  2  0
 54 55  1  0
 55 56  2  0
 56 57  1  0
 57 58  2  0
 58 59  1  0
 59 60  2  0
 60 61  1  0
 61 62  2  0
 62 63  1  0
 63 64  2  0
 64 65  1  0
 65 66  2  0
 66 67  1  0
 67 68  2  0
 68  2  1  0
 68 64  1  0
M  END
>  <Title>  (1107) 
idABOQgen10

$$$$

     RDKit          2D

  8  8  0  0  0  0  0  0  0  0999 V2000
    3.2286   -0.0000    0.0000 O   0  0  0  0  0  0  0  0  0  0  0  0
    1.7286    0.0000    0.0000 C   0  0  0  0  0  0  0  0  0  0  0  0
    1.0777    1.3515    0.0000 C   0  0  0  0  0  0  0  0  0  0  0  0
   -0.3846    1.6852    0.0000 C   0  0  0  0  0  0  0  0  0  0  0  0
   -1.5574    0.7500    0.0000 C   0  0  0  0  0  0  0  0  0  0  0  0
   -1.5574   -0.7500    0.0000 C   0  0  0  0  0  0  0  0  0  0  0  0
   -0.3846   -1.6852    0.0000 C   0  0  0  0  0  0  0  0  0  0  0  0
    1.0777   -1.3515    0.0000 C   0  0  0  0  0  0  0  0  0  0  0  0
  1  2  1  0
  2  3  2  0
  3  4  1  0
  4  5  1  0
  5  6  1  0
  6  7  1  0
  7  8  2  0
  8  2  1  0
M  END
>  <Title>  (1108) 
idABORgen10

$$$$

     RDKit          2D

  5  4  0  0  0  0  0  0  0  0999 V2000
    0.0000    0.0000    0.0000 C   0  0  0  0  0  0  0  0  0  0  0  0
   -0.0000   -1.5000    0.0000 C   0  0  0  0  0  0  0  0  0  0  0  0
   -0.0000   -3.0000    0.0000 C   0  0  0  0  0  0  0  0  0  0  0  0
   -0.0000   -4.5000    0.0000 C   0  0  0  0  0  0  0  0  0  0  0  0
   -0.0000   -6.0000    0.0000 C   0  0  0  0  0  0  0  0  0  0  0  0
  1  2  3  0
  2  3  1  0
  3  4  3  0
  4  5  1  0
M  END
>  <Title>  (1109) 
idABOSgen10

$$$$

     RDKit          2D

 11 12  0  0  0  0  0  0  0  0999 V2000
   -3.9320   -5.9810    0.0000 C   0  0  0  0  0  0  0  0  0  0  0  0
   -2.8713   -4.9204    0.0000 C   0  0  0  0  0  0  0  0  0  0  0  0
   -1.8107   -3.8597    0.0000 C   0  0  0  0  0  0  0  0  0  0  0  0
   -0.7500   -2.7990    0.0000 C   0  0  0  0  0  0  0  0  0  0  0  0
    0.7500   -2.7990    0.0000 C   0  0  0  0  0  0  0  0  0  0  0  0
    0.7500   -1.2990    0.0000 C   0  0  0  0  0  0  0  0  0  0  0  0
    1.5000    0.0000    0.0000 C   0  0  0  0  0  0  0  0  0  0  0  0
    0.7500    1.2990    0.0000 C   0  0  0  0  0  0  0  0  0  0  0  0
   -0.7500    1.2990    0.0000 C   0  0  0  0  0  0  0  0  0  0  0  0
   -1.5000    0.0000    0.0000 C   0  0  0  0  0  0  0  0  0  0  0  0
   -0.7500   -1.2990    0.0000 C   0  0  0  0  0  0  0  0  0  0  0  0
  1  2  1  0
  2  3  3  0
  3  4  1  0
  4  5  2  0
  5  6  1  0
  6  7  2  0
  7  8  1  0
  8  9  2  0
  9 10  1  0
 10 11  2  0
 11  4  1  0
 11  6  1  0
M  END
>  <Title>  (1110) 
idABOTgen10

$$$$

     RDKit          2D

 13 14  0  0  0  0  0  0  0  0999 V2000
   -4.7084   -3.0832    0.0000 C   0  0  0  0  0  0  0  0  0  0  0  0
   -3.2595   -3.4715    0.0000 C   0  0  0  0  0  0  0  0  0  0  0  0
   -1.8107   -3.8597    0.0000 C   0  0  0  0  0  0  0  0  0  0  0  0
   -1.4224   -5.3086    0.0000 O   0  0  0  0  0  0  0  0  0  0  0  0
   -0.7500   -2.7990    0.0000 C   0  0  0  0  0  0  0  0  0  0  0  0
    0.7500   -2.7990    0.0000 C   0  0  0  0  0  0  0  0  0  0  0  0
    1.8107   -3.8597    0.0000 C   0  0  0  0  0  0  0  0  0  0  0  0
    0.7500   -1.2990    0.0000 C   0  0  0  0  0  0  0  0  0  0  0  0
    1.5000    0.0000    0.0000 C   0  0  0  0  0  0  0  0  0  0  0  0
    0.7500    1.2990    0.0000 C   0  0  0  0  0  0  0  0  0  0  0  0
   -0.7500    1.2990    0.0000 C   0  0  0  0  0  0  0  0  0  0  0  0
   -1.5000    0.0000    0.0000 C   0  0  0  0  0  0  0  0  0  0  0  0
   -0.7500   -1.2990    0.0000 C   0  0  0  0  0  0  0  0  0  0  0  0
  1  2  3  0
  2  3  1  0
  3  4  2  0
  3  5  1  0
  5  6  2  0
  6  7  1  0
  6  8  1  0
  8  9  2  0
  9 10  1  0
 10 11  2  0
 11 12  1  0
 12 13  2  0
 13  5  1  0
 13  8  1  0
M  END
>  <Title>  (1111) 
idABOUgen10

$$$$

     RDKit          2D

 10 10  0  0  0  0  0  0  0  0999 V2000
    4.0607   -2.5981    0.0000 C   0  0  0  0  0  0  0  0  0  0  0  0
    3.3107   -1.2990    0.0000 C   0  0  0  0  0  0  0  0  0  0  0  0
    2.5607    0.0000    0.0000 C   0  0  0  0  0  0  0  0  0  0  0  0
    3.3107    1.2990    0.0000 O   0  0  0  0  0  0  0  0  0  0  0  0
    1.0607    0.0000    0.0000 C   0  0  0  0  0  0  0  0  0  0  0  0
   -0.0000   -1.0607    0.0000 C   0  0  0  0  0  0  0  0  0  0  0  0
   -0.0000   -2.5607    0.0000 C   0  0  0  0  0  0  0  0  0  0  0  0
   -1.0607    0.0000    0.0000 C   0  0  0  0  0  0  0  0  0  0  0  0
   -2.5607    0.0000    0.0000 O   0  0  0  0  0  0  0  0  0  0  0  0
    0.0000    1.0607    0.0000 C   0  0  0  0  0  0  0  0  0  0  0  0
  1  2  3  0
  2  3  1  0
  3  4  2  0
  3  5  1  0
  5  6  2  0
  6  7  1  0
  6  8  1  0
  8  9  2  0
  8 10  1  0
 10  5  1  0
M  END
>  <Title>  (1112) 
idABOVgen10

$$$$

     RDKit          2D

127126  0  0  0  0  0  0  0  0999 V2000
    0.0000    0.0000    0.0000 C   0  0  0  0  0  0  0  0  0  0  0  0
    1.2990    0.7500    0.0000 C   0  0  0  0  0  0  0  0  0  0  0  0
    2.5981   -0.0000    0.0000 C   0  0  0  0  0  0  0  0  0  0  0  0
    3.8971    0.7500    0.0000 C   0  0  0  0  0  0  0  0  0  0  0  0
    5.1962   -0.0000    0.0000 C   0  0  0  0  0  0  0  0  0  0  0  0
    6.4952    0.7500    0.0000 C   0  0  0  0  0  0  0  0  0  0  0  0
    7.7942   -0.0000    0.0000 C   0  0  0  0  0  0  0  0  0  0  0  0
    9.0933    0.7500    0.0000 C   0  0  0  0  0  0  0  0  0  0  0  0
   10.3923   -0.0000    0.0000 C   0  0  0  0  0  0  0  0  0  0  0  0
   11.6913    0.7500    0.0000 C   0  0  0  0  0  0  0  0  0  0  0  0
   12.9904   -0.0000    0.0000 C   0  0  0  0  0  0  0  0  0  0  0  0
   14.2894    0.7500    0.0000 C   0  0  0  0  0  0  0  0  0  0  0  0
   15.5885   -0.0000    0.0000 C   0  0  0  0  0  0  0  0  0  0  0  0
   16.8875    0.7500    0.0000 C   0  0  0  0  0  0  0  0  0  0  0  0
   18.1865   -0.0000    0.0000 C   0  0  0  0  0  0  0  0  0  0  0  0
   19.4856    0.7500    0.0000 C   0  0  0  0  0  0  0  0  0  0  0  0
   20.7846   -0.0000    0.0000 C   0  0  0  0  0  0  0  0  0  0  0  0
   22.0836    0.7500    0.0000 C   0  0  0  0  0  0  0  0  0  0  0  0
   23.3827   -0.0000    0.0000 C   0  0  0  0  0  0  0  0  0  0  0  0
   24.6817    0.7500    0.0000 C   0  0  0  0  0  0  0  0  0  0  0  0
   25.9808   -0.0000    0.0000 C   0  0  0  0  0  0  0  0  0  0  0  0
   27.2798    0.7500    0.0000 C   0  0  0  0  0  0  0  0  0  0  0  0
   28.5788   -0.0000    0.0000 C   0  0  0  0  0  0  0  0  0  0  0  0
   29.8779    0.7500    0.0000 C   0  0  0  0  0  0  0  0  0  0  0  0
   31.1769   -0.0000    0.0000 C   0  0  0  0  0  0  0  0  0  0  0  0
   32.4760    0.7500    0.0000 C   0  0  0  0  0  0  0  0  0  0  0  0
   33.7750   -0.0000    0.0000 C   0  0  0  0  0  0  0  0  0  0  0  0
   35.0740    0.7500    0.0000 C   0  0  0  0  0  0  0  0  0  0  0  0
   36.3731   -0.0000    0.0000 C   0  0  0  0  0  0  0  0  0  0  0  0
   37.6721    0.7500    0.0000 C   0  0  0  0  0  0  0  0  0  0  0  0
   38.9711   -0.0000    0.0000 C   0  0  0  0  0  0  0  0  0  0  0  0
   40.2702    0.7500    0.0000 C   0  0  0  0  0  0  0  0  0  0  0  0
   41.5692   -0.0000    0.0000 C   0  0  0  0  0  0  0  0  0  0  0  0
   42.8683    0.7500    0.0000 C   0  0  0  0  0  0  0  0  0  0  0  0
   44.1673   -0.0000    0.0000 C   0  0  0  0  0  0  0  0  0  0  0  0
   45.4663    0.7500    0.0000 C   0  0  0  0  0  0  0  0  0  0  0  0
   46.7654   -0.0000    0.0000 C   0  0  0  0  0  0  0  0  0  0  0  0
   48.0644    0.7500    0.0000 C   0  0  0  0  0  0  0  0  0  0  0  0
   49.3634   -0.0000    0.0000 C   0  0  0  0  0  0  0  0  0  0  0  0
   50.6625    0.7500    0.0000 C   0  0  0  0  0  0  0  0  0  0  0  0
   51.9615   -0.0000    0.0000 C   0  0  0  0  0  0  0  0  0  0  0  0
   53.2606    0.7500    0.0000 C   0  0  0  0  0  0  0  0  0  0  0  0
   54.5596   -0.0000    0.0000 C   0  0  0  0  0  0  0  0  0  0  0  0
   55.8586    0.7500    0.0000 C   0  0  0  0  0  0  0  0  0  0  0  0
   57.1577   -0.0000    0.0000 C   0  0  0  0  0  0  0  0  0  0  0  0
   58.4567    0.7500    0.0000 C   0  0  0  0  0  0  0  0  0  0  0  0
   59.7558   -0.0000    0.0000 C   0  0  0  0  0  0  0  0  0  0  0  0
   61.0548    0.7500    0.0000 C   0  0  0  0  0  0  0  0  0  0  0  0
   62.3538   -0.0000    0.0000 C   0  0  0  0  0  0  0  0  0  0  0  0
   63.6529    0.7500    0.0000 C   0  0  0  0  0  0  0  0  0  0  0  0
   64.9519   -0.0000    0.0000 C   0  0  0  0  0  0  0  0  0  0  0  0
   66.2509    0.7500    0.0000 C   0  0  0  0  0  0  0  0  0  0  0  0
   67.5500   -0.0000    0.0000 C   0  0  0  0  0  0  0  0  0  0  0  0
   68.8490    0.7500    0.0000 C   0  0  0  0  0  0  0  0  0  0  0  0
   70.1481   -0.0000    0.0000 C   0  0  0  0  0  0  0  0  0  0  0  0
   71.4471    0.7500    0.0000 C   0  0  0  0  0  0  0  0  0  0  0  0
   72.7461   -0.0000    0.0000 C   0  0  0  0  0  0  0  0  0  0  0  0
   74.0452    0.7500    0.0000 C   0  0  0  0  0  0  0  0  0  0  0  0
   75.3442   -0.0000    0.0000 C   0  0  0  0  0  0  0  0  0  0  0  0
   76.6432    0.7500    0.0000 C   0  0  0  0  0  0  0  0  0  0  0  0
   77.9423   -0.0000    0.0000 C   0  0  0  0  0  0  0  0  0  0  0  0
   79.2413    0.7500    0.0000 C   0  0  0  0  0  0  0  0  0  0  0  0
   80.5404   -0.0000    0.0000 C   0  0  0  0  0  0  0  0  0  0  0  0
   81.8394    0.7500    0.0000 C   0  0  0  0  0  0  0  0  0  0  0  0
   83.1384   -0.0000    0.0000 C   0  0  0  0  0  0  0  0  0  0  0  0
   84.4375    0.7500    0.0000 C   0  0  0  0  0  0  0  0  0  0  0  0
   85.7365   -0.0000    0.0000 C   0  0  0  0  0  0  0  0  0  0  0  0
   87.0356    0.7500    0.0000 C   0  0  0  0  0  0  0  0  0  0  0  0
   88.3346   -0.0000    0.0000 C   0  0  0  0  0  0  0  0  0  0  0  0
   89.6336    0.7500    0.0000 C   0  0  0  0  0  0  0  0  0  0  0  0
   90.9327   -0.0000    0.0000 C   0  0  0  0  0  0  0  0  0  0  0  0
   92.2317    0.7500    0.0000 C   0  0  0  0  0  0  0  0  0  0  0  0
   93.5307   -0.0000    0.0000 C   0  0  0  0  0  0  0  0  0  0  0  0
   94.8298    0.7500    0.0000 C   0  0  0  0  0  0  0  0  0  0  0  0
   96.1288   -0.0000    0.0000 C   0  0  0  0  0  0  0  0  0  0  0  0
   97.4279    0.7500    0.0000 C   0  0  0  0  0  0  0  0  0  0  0  0
   98.7269   -0.0000    0.0000 C   0  0  0  0  0  0  0  0  0  0  0  0
  100.0259    0.7500    0.0000 C   0  0  0  0  0  0  0  0  0  0  0  0
  101.3250   -0.0000    0.0000 C   0  0  0  0  0  0  0  0  0  0  0  0
  102.6240    0.7500    0.0000 C   0  0  0  0  0  0  0  0  0  0  0  0
  103.9230   -0.0000    0.0000 C   0  0  0  0  0  0  0  0  0  0  0  0
  105.2221    0.7500    0.0000 C   0  0  0  0  0  0  0  0  0  0  0  0
  106.5211   -0.0000    0.0000 C   0  0  0  0  0  0  0  0  0  0  0  0
  107.8202    0.7500    0.0000 C   0  0  0  0  0  0  0  0  0  0  0  0
  109.1192   -0.0000    0.0000 C   0  0  0  0  0  0  0  0  0  0  0  0
  110.4182    0.7500    0.0000 C   0  0  0  0  0  0  0  0  0  0  0  0
  111.7173   -0.0000    0.0000 C   0  0  0  0  0  0  0  0  0  0  0  0
  113.0163    0.7500    0.0000 C   0  0  0  0  0  0  0  0  0  0  0  0
  114.3154   -0.0000    0.0000 C   0  0  0  0  0  0  0  0  0  0  0  0
  115.6144    0.7500    0.0000 C   0  0  0  0  0  0  0  0  0  0  0  0
  116.9134   -0.0000    0.0000 C   0  0  0  0  0  0  0  0  0  0  0  0
  118.2125    0.7500    0.0000 C   0  0  0  0  0  0  0  0  0  0  0  0
  119.5115   -0.0000    0.0000 C   0  0  0  0  0  0  0  0  0  0  0  0
  120.8105    0.7500    0.0000 C   0  0  0  0  0  0  0  0  0  0  0  0
  122.1096   -0.0000    0.0000 C   0  0  0  0  0  0  0  0  0  0  0  0
  123.4086    0.7500    0.0000 C   0  0  0  0  0  0  0  0  0  0  0  0
  124.7077   -0.0000    0.0000 C   0  0  0  0  0  0  0  0  0  0  0  0
  126.0067    0.7500    0.0000 C   0  0  0  0  0  0  0  0  0  0  0  0
  127.3057   -0.0000    0.0000 C   0  0  0  0  0  0  0  0  0  0  0  0
  128.6048    0.7500    0.0000 C   0  0  0  0  0  0  0  0  0  0  0  0
  129.9038   -0.0000    0.0000 C   0  0  0  0  0  0  0  0  0  0  0  0
  131.2028    0.7500    0.0000 C   0  0  0  0  0  0  0  0  0  0  0  0
  132.5019   -0.0000    0.0000 C   0  0  0  0  0  0  0  0  0  0  0  0
  133.8009    0.7500    0.0000 C   0  0  0  0  0  0  0  0  0  0  0  0
  135.1000   -0.0000    0.0000 C   0  0  0  0  0  0  0  0  0  0  0  0
  136.3990    0.7500    0.0000 C   0  0  0  0  0  0  0  0  0  0  0  0
  137.6980   -0.0000    0.0000 C   0  0  0  0  0  0  0  0  0  0  0  0
  138.9971    0.7500    0.0000 C   0  0  0  0  0  0  0  0  0  0  0  0
  140.2961   -0.0000    0.0000 C   0  0  0  0  0  0  0  0  0  0  0  0
  141.5952    0.7500    0.0000 C   0  0  0  0  0  0  0  0  0  0  0  0
  142.8942   -0.0000    0.0000 C   0  0  0  0  0  0  0  0  0  0  0  0
  144.1932    0.7500    0.0000 C   0  0  0  0  0  0  0  0  0  0  0  0
  145.4923   -0.0000    0.0000 C   0  0  0  0  0  0  0  0  0  0  0  0
  146.7913    0.7500    0.0000 C   0  0  0  0  0  0  0  0  0  0  0  0
  148.0903   -0.0000    0.0000 C   0  0  0  0  0  0  0  0  0  0  0  0
  149.3894    0.7500    0.0000 C   0  0  0  0  0  0  0  0  0  0  0  0
  150.6884   -0.0000    0.0000 C   0  0  0  0  0  0  0  0  0  0  0  0
  151.9875    0.7500    0.0000 C   0  0  0  0  0  0  0  0  0  0  0  0
  153.2865   -0.0000    0.0000 C   0  0  0  0  0  0  0  0  0  0  0  0
  154.5855    0.7500    0.0000 C   0  0  0  0  0  0  0  0  0  0  0  0
  155.8846   -0.0000    0.0000 C   0  0  0  0  0  0  0  0  0  0  0  0
  157.1836    0.7500    0.0000 C   0  0  0  0  0  0  0  0  0  0  0  0
  158.4826   -0.0000    0.0000 C   0  0  0  0  0  0  0  0  0  0  0  0
  159.7817    0.7500    0.0000 C   0  0  0  0  0  0  0  0  0  0  0  0
  161.0807   -0.0000    0.0000 C   0  0  0  0  0  0  0  0  0  0  0  0
  162.3798    0.7500    0.0000 C   0  0  0  0  0  0  0  0  0  0  0  0
  163.6788   -0.0000    0.0000 C   0  0  0  0  0  0  0  0  0  0  0  0
  1  2  2  0
  2  3  1  0
  3  4  1  0
  4  5  1  0
  5  6  1  0
  6  7  1  0
  7  8  1  0
  8  9  1  0
  9 10  1  0
 10 11  1  0
 11 12  1  0
 12 13  1  0
 13 14  1  0
 14 15  1  0
 15 16  1  0
 16 17  1  0
 17 18  1  0
 18 19  1  0
 19 20  1  0
 20 21  1  0
 21 22  1  0
 22 23  1  0
 23 24  1  0
 24 25  1  0
 25 26  1  0
 26 27  1  0
 27 28  1  0
 28 29  1  0
 29 30  1  0
 30 31  1  0
 31 32  1  0
 32 33  1  0
 33 34  1  0
 34 35  1  0
 35 36  1  0
 36 37  1  0
 37 38  1  0
 38 39  1  0
 39 40  1  0
 40 41  1  0
 41 42  1  0
 42 43  1  0
 43 44  1  0
 44 45  1  0
 45 46  1  0
 46 47  1  0
 47 48  1  0
 48 49  1  0
 49 50  1  0
 50 51  1  0
 51 52  1  0
 52 53  1  0
 53 54  1  0
 54 55  1  0
 55 56  1  0
 56 57  1  0
 57 58  1  0
 58 59  1  0
 59 60  1  0
 60 61  1  0
 61 62  1  0
 62 63  1  0
 63 64  1  0
 64 65  1  0
 65 66  1  0
 66 67  1  0
 67 68  1  0
 68 69  1  0
 69 70  1  0
 70 71  1  0
 71 72  1  0
 72 73  1  0
 73 74  1  0
 74 75  1  0
 75 76  1  0
 76 77  1  0
 77 78  1  0
 78 79  1  0
 79 80  1  0
 80 81  1  0
 81 82  1  0
 82 83  1  0
 83 84  1  0
 84 85  1  0
 85 86  1  0
 86 87  1  0
 87 88  1  0
 88 89  1  0
 89 90  1  0
 90 91  1  0
 91 92  1  0
 92 93  1  0
 93 94  1  0
 94 95  1  0
 95 96  1  0
 96 97  1  0
 97 98  1  0
 98 99  1  0
 99100  1  0
100101  1  0
101102  1  0
102103  1  0
103104  1  0
104105  1  0
105106  1  0
106107  1  0
107108  1  0
108109  1  0
109110  1  0
110111  1  0
111112  1  0
112113  1  0
113114  1  0
114115  1  0
115116  1  0
116117  1  0
117118  1  0
118119  1  0
119120  1  0
120121  1  0
121122  1  0
122123  1  0
123124  1  0
124125  1  0
125126  1  0
126127  1  0
M  END
>  <Title>  (1113) 
idABOWgen10

$$$$

     RDKit          2D

 10 10  0  0  0  0  0  0  0  0999 V2000
    7.5000    0.0000    0.0000 C   0  0  0  0  0  0  0  0  0  0  0  0
    6.0000    0.0000    0.0000 C   0  0  0  0  0  0  0  0  0  0  0  0
    4.5000    0.0000    0.0000 C   0  0  0  0  0  0  0  0  0  0  0  0
    3.0000    0.0000    0.0000 C   0  0  0  0  0  0  0  0  0  0  0  0
    1.5000    0.0000    0.0000 C   0  0  0  0  0  0  0  0  0  0  0  0
    0.7500   -1.2990    0.0000 C   0  0  0  0  0  0  0  0  0  0  0  0
   -0.7500   -1.2990    0.0000 C   0  0  0  0  0  0  0  0  0  0  0  0
   -1.5000    0.0000    0.0000 C   0  0  0  0  0  0  0  0  0  0  0  0
   -0.7500    1.2990    0.0000 C   0  0  0  0  0  0  0  0  0  0  0  0
    0.7500    1.2990    0.0000 C   0  0  0  0  0  0  0  0  0  0  0  0
  1  2  3  0
  2  3  1  0
  3  4  3  0
  4  5  1  0
  5  6  2  0
  6  7  1  0
  7  8  1  0
  8  9  1  0
  9 10  2  0
 10  5  1  0
M  END
>  <Title>  (1114) 
idABOXgen10

$$$$

     RDKit          2D

 25 26  0  0  0  0  0  0  0  0999 V2000
    6.0000   -2.5981    0.0000 C   0  0  0  0  0  0  0  0  0  0  0  0
    5.2500   -1.2990    0.0000 C   0  0  0  0  0  0  0  0  0  0  0  0
    3.7500   -1.2990    0.0000 O   0  0  0  0  0  0  0  0  0  0  0  0
    3.0000    0.0000    0.0000 C   0  0  0  0  0  0  0  0  0  0  0  0
    3.7500    1.2990    0.0000 O   0  0  0  0  0  0  0  0  0  0  0  0
    1.5000    0.0000    0.0000 C   0  0  0  0  0  0  0  0  0  0  0  0
    0.7500   -1.2990    0.0000 C   0  0  0  0  0  0  0  0  0  0  0  0
   -0.7500   -1.2990    0.0000 C   0  0  0  0  0  0  0  0  0  0  0  0
   -1.5000    0.0000    0.0000 C   0  0  0  0  0  0  0  0  0  0  0  0
   -0.7500    1.2990    0.0000 C   0  0  0  0  0  0  0  0  0  0  0  0
   -1.5000    2.5981    0.0000 C   0  0  0  0  0  0  0  0  0  0  0  0
   -2.2500    3.8971    0.0000 N   0  0  0  0  0  0  0  0  0  0  0  0
    0.7500    1.2990    0.0000 C   0  0  0  0  0  0  0  0  0  0  0  0
    1.5000    2.5981    0.0000 C   0  0  0  0  0  0  0  0  0  0  0  0
    3.0000    2.5981    0.0000 C   0  0  0  0  0  0  0  0  0  0  0  0
    3.7500    3.8971    0.0000 C   0  0  0  0  0  0  0  0  0  0  0  0
    3.1399    5.2674    0.0000 C   0  0  0  0  0  0  0  0  0  0  0  0
    1.6727    5.5793    0.0000 O   0  0  0  0  0  0  0  0  0  0  0  0
    4.2546    6.2711    0.0000 C   0  0  0  0  0  0  0  0  0  0  0  0
    5.5537    5.5211    0.0000 C   0  0  0  0  0  0  0  0  0  0  0  0
    5.2418    4.0539    0.0000 C   0  0  0  0  0  0  0  0  0  0  0  0
    6.2455    2.9392    0.0000 N   0  0  0  0  0  0  0  0  0  0  0  0
    7.7127    3.2511    0.0000 C   0  0  0  0  0  0  0  0  0  0  0  0
    8.7164    2.1363    0.0000 C   0  0  0  0  0  0  0  0  0  0  0  0
    8.1762    4.6776    0.0000 O   0  0  0  0  0  0  0  0  0  0  0  0
  1  2  1  0
  2  3  1  0
  3  4  1  0
  4  5  2  0
  4  6  1  0
  6  7  2  0
  7  8  1  0
  8  9  2  0
  9 10  1  0
 10 11  1  0
 11 12  3  0
 10 13  1  0
 13 14  2  3
 14 15  1  0
 15 16  2  3
 16 17  1  0
 17 18  1  0
 17 19  2  0
 19 20  1  0
 20 21  2  0
 21 22  1  0
 22 23  1  0
 23 24  1  0
 23 25  2  0
 13  6  1  0
 21 16  1  0
M  END
>  <Title>  (1115) 
idABOYgen10

$$$$

     RDKit          2D

 35 39  0  0  0  0  0  0  0  0999 V2000
    1.2135   -7.3421    0.0000 C   0  0  0  0  0  0  0  0  0  0  0  0
    0.7500   -5.9156    0.0000 C   0  0  0  0  0  0  0  0  0  0  0  0
    1.9635   -5.0339    0.0000 C   0  0  0  0  0  0  0  0  0  0  0  0
    2.4271   -3.6073    0.0000 C   0  0  0  0  0  0  0  0  0  0  0  0
    3.9271   -3.6073    0.0000 C   0  0  0  0  0  0  0  0  0  0  0  0
    1.9635   -2.1807    0.0000 N   0  0  0  0  0  0  0  0  0  0  0  0
    3.1771   -1.2990    0.0000 C   0  0  0  0  0  0  0  0  0  0  0  0
    3.0203    0.1927    0.0000 O   0  0  0  0  0  0  0  0  0  0  0  0
    4.5474   -1.9091    0.0000 N   0  0  0  0  0  0  0  0  0  0  0  0
    5.8464   -1.1591    0.0000 C   0  0  0  0  0  0  0  0  0  0  0  0
    6.9611   -2.1628    0.0000 C   0  0  0  0  0  0  0  0  0  0  0  0
    6.3510   -3.5332    0.0000 C   0  0  0  0  0  0  0  0  0  0  0  0
    7.1010   -4.8322    0.0000 C   0  0  0  0  0  0  0  0  0  0  0  0
    8.6010   -4.8322    0.0000 O   0  0  0  0  0  0  0  0  0  0  0  0
    6.3510   -6.1312    0.0000 O   0  0  0  0  0  0  0  0  0  0  0  0
    4.8592   -3.3764    0.0000 C   0  0  0  0  0  0  0  0  0  0  0  0
    3.8555   -4.4911    0.0000 O   0  0  0  0  0  0  0  0  0  0  0  0
    0.7500   -1.2990    0.0000 C   0  0  0  0  0  0  0  0  0  0  0  0
    1.5000    0.0000    0.0000 C   0  0  0  0  0  0  0  0  0  0  0  0
    0.7500    1.2990    0.0000 C   0  0  0  0  0  0  0  0  0  0  0  0
   -0.7500    1.2990    0.0000 C   0  0  0  0  0  0  0  0  0  0  0  0
   -1.5000    0.0000    0.0000 C   0  0  0  0  0  0  0  0  0  0  0  0
   -0.7500   -1.2990    0.0000 C   0  0  0  0  0  0  0  0  0  0  0  0
   -1.9635   -2.1807    0.0000 C   0  0  0  0  0  0  0  0  0  0  0  0
   -2.9672   -1.0660    0.0000 C   0  0  0  0  0  0  0  0  0  0  0  0
   -4.4344   -1.3779    0.0000 C   0  0  0  0  0  0  0  0  0  0  0  0
   -4.8980   -2.8045    0.0000 C   0  0  0  0  0  0  0  0  0  0  0  0
   -3.8943   -3.9192    0.0000 C   0  0  0  0  0  0  0  0  0  0  0  0
   -2.4271   -3.6073    0.0000 C   0  0  0  0  0  0  0  0  0  0  0  0
   -1.9635   -5.0339    0.0000 C   0  0  0  0  0  0  0  0  0  0  0  0
   -3.3338   -5.6440    0.0000 C   0  0  0  0  0  0  0  0  0  0  0  0
   -3.4906   -7.1358    0.0000 C   0  0  0  0  0  0  0  0  0  0  0  0
   -2.2771   -8.0175    0.0000 C   0  0  0  0  0  0  0  0  0  0  0  0
   -0.9068   -7.4073    0.0000 C   0  0  0  0  0  0  0  0  0  0  0  0
   -0.7500   -5.9156    0.0000 C   0  0  0  0  0  0  0  0  0  0  0  0
  1  2  1  0
  2  3  2  0
  3  4  1  0
  4  5  1  0
  4  6  1  0
  6  7  1  0
  7  8  2  0
  7  9  1  0
  9 10  1  0
 10 11  1  0
 11 12  1  0
 12 13  1  0
 13 14  2  0
 13 15  1  0
 12 16  1  0
 16 17  2  0
  6 18  1  0
 18 19  2  0
 19 20  1  0
 20 21  2  0
 21 22  1  0
 22 23  2  0
 23 24  1  0
 24 25  2  0
 25 26  1  0
 26 27  2  0
 27 28  1  0
 28 29  2  0
 29 30  1  0
 30 31  2  0
 31 32  1  0
 32 33  2  0
 33 34  1  0
 34 35  2  0
 35  2  1  0
 16  9  1  0
 23 18  1  0
 29 24  1  0
 35 30  1  0
M  END
>  <Title>  (1116) 
idABOZgen10

$$$$

     RDKit          2D

 14 14  0  0  0  0  0  0  0  0999 V2000
    3.7500   -1.2990    0.0000 C   0  0  0  0  0  0  0  0  0  0  0  0
    3.0000    0.0000    0.0000 C   0  0  0  0  0  0  0  0  0  0  0  0
    3.7500    1.2990    0.0000 O   0  0  0  0  0  0  0  0  0  0  0  0
    1.5000    0.0000    0.0000 C   0  0  0  0  0  0  0  0  0  0  0  0
    0.7500   -1.2990    0.0000 C   0  0  0  0  0  0  0  0  0  0  0  0
   -0.7500   -1.2990    0.0000 C   0  0  0  0  0  0  0  0  0  0  0  0
   -1.5000    0.0000    0.0000 C   0  0  0  0  0  0  0  0  0  0  0  0
   -0.7500    1.2990    0.0000 C   0  0  0  0  0  0  0  0  0  0  0  0
    0.7500    1.2990    0.0000 C   0  0  0  0  0  0  0  0  0  0  0  0
    1.5000    2.5981    0.0000 C   0  0  0  0  0  0  0  0  0  0  0  0
    3.0000    2.5981    0.0000 O   0  0  0  0  0  0  0  0  0  0  0  0
    0.7500    3.8971    0.0000 O   0  0  0  0  0  0  0  0  0  0  0  0
    1.5000    5.1962    0.0000 C   0  0  0  0  0  0  0  0  0  0  0  0
    0.7500    6.4952    0.0000 C   0  0  0  0  0  0  0  0  0  0  0  0
  1  2  2  0
  2  3  1  0
  2  4  1  0
  4  5  2  0
  5  6  1  0
  6  7  2  0
  7  8  1  0
  8  9  2  0
  9 10  1  0
 10 11  2  0
 10 12  1  0
 12 13  1  0
 13 14  1  0
  9  4  1  0
M  END
>  <Title>  (1117) 
idABPAgen10

$$$$

     RDKit          2D

 12 12  0  0  0  0  0  0  0  0999 V2000
    6.0000   -5.1962    0.0000 C   0  0  0  0  0  0  0  0  0  0  0  0
    5.2500   -3.8971    0.0000 C   0  0  0  0  0  0  0  0  0  0  0  0
    4.5000   -2.5981    0.0000 C   0  0  0  0  0  0  0  0  0  0  0  0
    3.7500   -1.2990    0.0000 C   0  0  0  0  0  0  0  0  0  0  0  0
    3.0000    0.0000    0.0000 C   0  0  0  0  0  0  0  0  0  0  0  0
    1.5000    0.0000    0.0000 C   0  0  0  0  0  0  0  0  0  0  0  0
    0.7500   -1.2990    0.0000 C   0  0  0  0  0  0  0  0  0  0  0  0
   -0.7500   -1.2990    0.0000 C   0  0  0  0  0  0  0  0  0  0  0  0
   -1.5000    0.0000    0.0000 C   0  0  0  0  0  0  0  0  0  0  0  0
   -0.7500    1.2990    0.0000 C   0  0  0  0  0  0  0  0  0  0  0  0
   -1.5000    2.5981    0.0000 C   0  0  0  0  0  0  0  0  0  0  0  0
    0.7500    1.2990    0.0000 C   0  0  0  0  0  0  0  0  0  0  0  0
  1  2  3  0
  2  3  1  0
  3  4  3  0
  4  5  1  0
  5  6  1  0
  6  7  2  0
  7  8  1  0
  8  9  2  0
  9 10  1  0
 10 11  1  0
 10 12  2  0
 12  6  1  0
M  END
>  <Title>  (1118) 
idABPBgen10

$$$$

     RDKit          2D

  6  6  0  0  0  0  0  0  0  0999 V2000
    2.7760    0.0000    0.0000 O   0  0  0  0  0  0  0  0  0  0  0  0
    1.2760    0.0000    0.0000 C   0  0  0  0  0  0  0  0  0  0  0  0
    0.3943    1.2135    0.0000 C   0  0  0  0  0  0  0  0  0  0  0  0
   -1.0323    0.7500    0.0000 C   0  0  0  0  0  0  0  0  0  0  0  0
   -1.0323   -0.7500    0.0000 C   0  0  0  0  0  0  0  0  0  0  0  0
    0.3943   -1.2135    0.0000 C   0  0  0  0  0  0  0  0  0  0  0  0
  1  2  1  0
  2  3  2  0
  3  4  1  0
  4  5  1  0
  5  6  2  0
  6  2  1  0
M  END
>  <Title>  (1119) 
idABPCgen10

$$$$

     RDKit          2D

 75 76  0  0  0  0  0  0  0  0999 V2000
   -2.4453    0.0529    0.0000 C   0  0  0  0  0  0  0  0  0  0  0  0
   -2.2440   -1.4335    0.0000 C   0  0  0  0  0  0  0  0  0  0  0  0
   -3.7199   -1.7013    0.0000 C   0  0  0  0  0  0  0  0  0  0  0  0
   -5.1658   -2.1004    0.0000 C   0  0  0  0  0  0  0  0  0  0  0  0
   -6.5702   -2.6274    0.0000 C   0  0  0  0  0  0  0  0  0  0  0  0
   -7.9216   -3.2783    0.0000 C   0  0  0  0  0  0  0  0  0  0  0  0
   -9.2093   -4.0476    0.0000 C   0  0  0  0  0  0  0  0  0  0  0  0
  -10.4228   -4.9293    0.0000 C   0  0  0  0  0  0  0  0  0  0  0  0
  -11.5524   -5.9162    0.0000 C   0  0  0  0  0  0  0  0  0  0  0  0
  -12.5890   -7.0004    0.0000 C   0  0  0  0  0  0  0  0  0  0  0  0
  -13.5242   -8.1731    0.0000 C   0  0  0  0  0  0  0  0  0  0  0  0
  -14.3506   -9.4250    0.0000 C   0  0  0  0  0  0  0  0  0  0  0  0
  -15.0614  -10.7459    0.0000 C   0  0  0  0  0  0  0  0  0  0  0  0
  -15.6509  -12.1252    0.0000 C   0  0  0  0  0  0  0  0  0  0  0  0
  -16.1145  -13.5518    0.0000 C   0  0  0  0  0  0  0  0  0  0  0  0
  -16.4482  -15.0142    0.0000 C   0  0  0  0  0  0  0  0  0  0  0  0
  -16.6496  -16.5006    0.0000 C   0  0  0  0  0  0  0  0  0  0  0  0
  -16.7169  -17.9991    0.0000 C   0  0  0  0  0  0  0  0  0  0  0  0
  -16.6496  -19.4976    0.0000 C   0  0  0  0  0  0  0  0  0  0  0  0
  -16.4482  -20.9840    0.0000 C   0  0  0  0  0  0  0  0  0  0  0  0
  -16.1145  -22.4464    0.0000 C   0  0  0  0  0  0  0  0  0  0  0  0
  -15.6509  -23.8730    0.0000 C   0  0  0  0  0  0  0  0  0  0  0  0
  -15.0614  -25.2523    0.0000 C   0  0  0  0  0  0  0  0  0  0  0  0
  -14.3506  -26.5732    0.0000 C   0  0  0  0  0  0  0  0  0  0  0  0
  -13.5242  -27.8250    0.0000 C   0  0  0  0  0  0  0  0  0  0  0  0
  -12.5890  -28.9978    0.0000 C   0  0  0  0  0  0  0  0  0  0  0  0
  -11.5524  -30.0820    0.0000 C   0  0  0  0  0  0  0  0  0  0  0  0
  -10.4228  -31.0689    0.0000 C   0  0  0  0  0  0  0  0  0  0  0  0
   -9.2093  -31.9505    0.0000 C   0  0  0  0  0  0  0  0  0  0  0  0
   -7.9216  -32.7199    0.0000 C   0  0  0  0  0  0  0  0  0  0  0  0
   -6.5702  -33.3707    0.0000 C   0  0  0  0  0  0  0  0  0  0  0  0
   -5.1658  -33.8978    0.0000 C   0  0  0  0  0  0  0  0  0  0  0  0
   -3.7199  -34.2968    0.0000 C   0  0  0  0  0  0  0  0  0  0  0  0
   -2.2440  -34.5647    0.0000 C   0  0  0  0  0  0  0  0  0  0  0  0
   -0.7500  -34.6991    0.0000 C   0  0  0  0  0  0  0  0  0  0  0  0
    0.7500  -34.6991    0.0000 C   0  0  0  0  0  0  0  0  0  0  0  0
    2.2440  -34.5647    0.0000 C   0  0  0  0  0  0  0  0  0  0  0  0
    3.7199  -34.2968    0.0000 C   0  0  0  0  0  0  0  0  0  0  0  0
    5.1658  -33.8978    0.0000 C   0  0  0  0  0  0  0  0  0  0  0  0
    6.5702  -33.3707    0.0000 C   0  0  0  0  0  0  0  0  0  0  0  0
    7.9216  -32.7199    0.0000 C   0  0  0  0  0  0  0  0  0  0  0  0
    9.2093  -31.9505    0.0000 C   0  0  0  0  0  0  0  0  0  0  0  0
   10.4228  -31.0689    0.0000 C   0  0  0  0  0  0  0  0  0  0  0  0
   11.5524  -30.0820    0.0000 C   0  0  0  0  0  0  0  0  0  0  0  0
   12.5890  -28.9978    0.0000 C   0  0  0  0  0  0  0  0  0  0  0  0
   13.5242  -27.8250    0.0000 C   0  0  0  0  0  0  0  0  0  0  0  0
   14.3506  -26.5732    0.0000 C   0  0  0  0  0  0  0  0  0  0  0  0
   15.0614  -25.2523    0.0000 C   0  0  0  0  0  0  0  0  0  0  0  0
   15.6509  -23.8730    0.0000 C   0  0  0  0  0  0  0  0  0  0  0  0
   16.1145  -22.4464    0.0000 C   0  0  0  0  0  0  0  0  0  0  0  0
   16.4482  -20.9840    0.0000 C   0  0  0  0  0  0  0  0  0  0  0  0
   16.6496  -19.4976    0.0000 C   0  0  0  0  0  0  0  0  0  0  0  0
   16.7169  -17.9991    0.0000 C   0  0  0  0  0  0  0  0  0  0  0  0
   16.6496  -16.5006    0.0000 C   0  0  0  0  0  0  0  0  0  0  0  0
   16.4482  -15.0142    0.0000 C   0  0  0  0  0  0  0  0  0  0  0  0
   16.1145  -13.5518    0.0000 C   0  0  0  0  0  0  0  0  0  0  0  0
   15.6509  -12.1252    0.0000 C   0  0  0  0  0  0  0  0  0  0  0  0
   15.0614  -10.7459    0.0000 C   0  0  0  0  0  0  0  0  0  0  0  0
   14.3506   -9.4250    0.0000 C   0  0  0  0  0  0  0  0  0  0  0  0
   13.5242   -8.1731    0.0000 C   0  0  0  0  0  0  0  0  0  0  0  0
   12.5890   -7.0004    0.0000 C   0  0  0  0  0  0  0  0  0  0  0  0
   11.5524   -5.9162    0.0000 C   0  0  0  0  0  0  0  0  0  0  0  0
   10.4228   -4.9293    0.0000 C   0  0  0  0  0  0  0  0  0  0  0  0
    9.2093   -4.0476    0.0000 C   0  0  0  0  0  0  0  0  0  0  0  0
    7.9216   -3.2783    0.0000 C   0  0  0  0  0  0  0  0  0  0  0  0
    6.5702   -2.6274    0.0000 C   0  0  0  0  0  0  0  0  0  0  0  0
    5.1658   -2.1004    0.0000 C   0  0  0  0  0  0  0  0  0  0  0  0
    3.7199   -1.7013    0.0000 C   0  0  0  0  0  0  0  0  0  0  0  0
    2.2440   -1.4335    0.0000 C   0  0  0  0  0  0  0  0  0  0  0  0
    0.7500   -1.2990    0.0000 C   0  0  0  0  0  0  0  0  0  0  0  0
    1.5000    0.0000    0.0000 C   0  0  0  0  0  0  0  0  0  0  0  0
    0.7500    1.2990    0.0000 C   0  0  0  0  0  0  0  0  0  0  0  0
   -0.7500    1.2990    0.0000 C   0  0  0  0  0  0  0  0  0  0  0  0
   -1.5000    0.0000    0.0000 C   0  0  0  0  0  0  0  0  0  0  0  0
   -0.7500   -1.2990    0.0000 C   0  0  0  0  0  0  0  0  0  0  0  0
  1  2  1  0
  2  3  1  0
  3  4  1  0
  4  5  1  0
  5  6  1  0
  6  7  1  0
  7  8  1  0
  8  9  1  0
  9 10  1  0
 10 11  1  0
 11 12  1  0
 12 13  1  0
 13 14  1  0
 14 15  1  0
 15 16  1  0
 16 17  1  0
 17 18  1  0
 18 19  1  0
 19 20  1  0
 20 21  1  0
 21 22  1  0
 22 23  1  0
 23 24  1  0
 24 25  1  0
 25 26  1  0
 26 27  1  0
 27 28  1  0
 28 29  1  0
 29 30  1  0
 30 31  1  0
 31 32  1  0
 32 33  1  0
 33 34  1  0
 34 35  1  0
 35 36  1  0
 36 37  1  0
 37 38  1  0
 38 39  1  0
 39 40  1  0
 40 41  1  0
 41 42  1  0
 42 43  1  0
 43 44  1  0
 44 45  1  0
 45 46  1  0
 46 47  1  0
 47 48  1  0
 48 49  1  0
 49 50  1  0
 50 51  1  0
 51 52  1  0
 52 53  1  0
 53 54  1  0
 54 55  1  0
 55 56  1  0
 56 57  1  0
 57 58  1  0
 58 59  1  0
 59 60  1  0
 60 61  1  0
 61 62  1  0
 62 63  1  0
 63 64  1  0
 64 65  1  0
 65 66  1  0
 66 67  1  0
 67 68  1  0
 68 69  1  0
 69 70  1  0
 70 71  2  0
 71 72  1  0
 72 73  2  0
 73 74  1  0
 74 75  2  0
 75  2  1  0
 75 70  1  0
M  END
>  <Title>  (1120) 
idABPDgen10

$$$$

     RDKit          2D

 68 78  0  0  0  0  0  0  0  0999 V2000
    8.2760   -2.1617    0.0000 C   0  0  0  0  0  0  0  0  0  0  0  0
    6.8902   -2.7358    0.0000 C   0  0  0  0  0  0  0  0  0  0  0  0
    5.7002   -1.8226    0.0000 O   0  0  0  0  0  0  0  0  0  0  0  0
    6.6944   -4.2229    0.0000 N   0  0  0  0  0  0  0  0  0  0  0  0
    5.3086   -4.7970    0.0000 C   0  0  0  0  0  0  0  0  0  0  0  0
    4.5586   -3.4979    0.0000 N   0  0  0  0  0  0  0  0  0  0  0  0
    3.4979   -2.4373    0.0000 N   0  0  0  0  0  0  0  0  0  0  0  0
    2.1989   -1.6873    0.0000 N   0  0  0  0  0  0  0  0  0  0  0  0
    0.7500   -1.2990    0.0000 N   0  0  0  0  0  0  0  0  0  0  0  0
    1.5000    0.0000    0.0000 C   0  0  0  0  0  0  0  0  0  0  0  0
    0.7500    1.2990    0.0000 C   0  0  0  0  0  0  0  0  0  0  0  0
   -0.7500    1.2990    0.0000 C   0  0  0  0  0  0  0  0  0  0  0  0
   -1.5000    0.0000    0.0000 C   0  0  0  0  0  0  0  0  0  0  0  0
   -0.7500   -1.2990    0.0000 C   0  0  0  0  0  0  0  0  0  0  0  0
   -2.1989   -1.6873    0.0000 C   0  0  0  0  0  0  0  0  0  0  0  0
   -2.1989   -0.1873    0.0000 C   0  0  0  0  0  0  0  0  0  0  0  0
   -3.4979    0.5627    0.0000 C   0  0  0  0  0  0  0  0  0  0  0  0
   -4.7970   -0.1873    0.0000 C   0  0  0  0  0  0  0  0  0  0  0  0
   -4.7970   -1.6873    0.0000 C   0  0  0  0  0  0  0  0  0  0  0  0
   -3.4979   -2.4373    0.0000 C   0  0  0  0  0  0  0  0  0  0  0  0
   -4.5586   -3.4979    0.0000 C   0  0  0  0  0  0  0  0  0  0  0  0
   -5.3086   -2.1989    0.0000 C   0  0  0  0  0  0  0  0  0  0  0  0
   -6.8086   -2.1989    0.0000 C   0  0  0  0  0  0  0  0  0  0  0  0
   -7.5586   -3.4979    0.0000 C   0  0  0  0  0  0  0  0  0  0  0  0
   -6.8086   -4.7970    0.0000 C   0  0  0  0  0  0  0  0  0  0  0  0
   -5.3086   -4.7970    0.0000 C   0  0  0  0  0  0  0  0  0  0  0  0
   -5.6968   -6.2459    0.0000 C   0  0  0  0  0  0  0  0  0  0  0  0
   -6.9959   -5.4959    0.0000 C   0  0  0  0  0  0  0  0  0  0  0  0
   -8.2949   -6.2459    0.0000 C   0  0  0  0  0  0  0  0  0  0  0  0
   -8.2949   -7.7459    0.0000 C   0  0  0  0  0  0  0  0  0  0  0  0
   -6.9959   -8.4959    0.0000 C   0  0  0  0  0  0  0  0  0  0  0  0
   -5.6968   -7.7459    0.0000 C   0  0  0  0  0  0  0  0  0  0  0  0
   -5.3086   -9.1947    0.0000 C   0  0  0  0  0  0  0  0  0  0  0  0
   -6.8086   -9.1947    0.0000 C   0  0  0  0  0  0  0  0  0  0  0  0
   -7.5586  -10.4938    0.0000 C   0  0  0  0  0  0  0  0  0  0  0  0
   -6.8086  -11.7928    0.0000 C   0  0  0  0  0  0  0  0  0  0  0  0
   -5.3086  -11.7928    0.0000 C   0  0  0  0  0  0  0  0  0  0  0  0
   -4.5586  -10.4938    0.0000 C   0  0  0  0  0  0  0  0  0  0  0  0
   -3.4979  -11.5544    0.0000 C   0  0  0  0  0  0  0  0  0  0  0  0
   -4.7970  -12.3044    0.0000 C   0  0  0  0  0  0  0  0  0  0  0  0
   -4.7970  -13.8044    0.0000 C   0  0  0  0  0  0  0  0  0  0  0  0
   -3.4979  -14.5544    0.0000 C   0  0  0  0  0  0  0  0  0  0  0  0
   -2.1989  -13.8044    0.0000 C   0  0  0  0  0  0  0  0  0  0  0  0
   -2.1989  -12.3044    0.0000 C   0  0  0  0  0  0  0  0  0  0  0  0
   -0.7500  -12.6927    0.0000 C   0  0  0  0  0  0  0  0  0  0  0  0
   -1.5000  -13.9917    0.0000 C   0  0  0  0  0  0  0  0  0  0  0  0
   -0.7500  -15.2907    0.0000 C   0  0  0  0  0  0  0  0  0  0  0  0
    0.7500  -15.2907    0.0000 C   0  0  0  0  0  0  0  0  0  0  0  0
    1.5000  -13.9917    0.0000 C   0  0  0  0  0  0  0  0  0  0  0  0
    0.7500  -12.6927    0.0000 C   0  0  0  0  0  0  0  0  0  0  0  0
    2.1989  -12.3044    0.0000 C   0  0  0  0  0  0  0  0  0  0  0  0
    2.1989  -13.8044    0.0000 C   0  0  0  0  0  0  0  0  0  0  0  0
    3.4979  -14.5544    0.0000 C   0  0  0  0  0  0  0  0  0  0  0  0
    4.7970  -13.8044    0.0000 C   0  0  0  0  0  0  0  0  0  0  0  0
    4.7970  -12.3044    0.0000 C   0  0  0  0  0  0  0  0  0  0  0  0
    3.4979  -11.5544    0.0000 C   0  0  0  0  0  0  0  0  0  0  0  0
    4.5586  -10.4938    0.0000 C   0  0  0  0  0  0  0  0  0  0  0  0
    5.3086  -11.7928    0.0000 C   0  0  0  0  0  0  0  0  0  0  0  0
    6.8086  -11.7928    0.0000 C   0  0  0  0  0  0  0  0  0  0  0  0
    7.5586  -10.4938    0.0000 C   0  0  0  0  0  0  0  0  0  0  0  0
    6.8086   -9.1947    0.0000 C   0  0  0  0  0  0  0  0  0  0  0  0
    5.3086   -9.1947    0.0000 C   0  0  0  0  0  0  0  0  0  0  0  0
    5.6968   -7.7459    0.0000 C   0  0  0  0  0  0  0  0  0  0  0  0
    6.9959   -8.4959    0.0000 C   0  0  0  0  0  0  0  0  0  0  0  0
    8.2949   -7.7459    0.0000 C   0  0  0  0  0  0  0  0  0  0  0  0
    8.2949   -6.2459    0.0000 C   0  0  0  0  0  0  0  0  0  0  0  0
    6.9959   -5.4959    0.0000 C   0  0  0  0  0  0  0  0  0  0  0  0
    5.6968   -6.2459    0.0000 C   0  0  0  0  0  0  0  0  0  0  0  0
  1  2  1  0
  2  3  2  0
  2  4  1  0
  4  5  1  0
  5  6  2  0
  6  7  1  0
  7  8  2  0
  8  9  1  0
  9 10  1  0
 10 11  1  0
 11 12  2  0
 12 13  1  0
 13 14  2  0
 14 15  1  0
 15 16  2  0
 16 17  1  0
 17 18  2  0
 18 19  1  0
 19 20  2  0
 20 21  1  0
 21 22  2  0
 22 23  1  0
 23 24  2  0
 24 25  1  0
 25 26  2  0
 26 27  1  0
 27 28  2  0
 28 29  1  0
 29 30  2  0
 30 31  1  0
 31 32  2  0
 32 33  1  0
 33 34  2  0
 34 35  1  0
 35 36  2  0
 36 37  1  0
 37 38  2  0
 38 39  1  0
 39 40  2  0
 40 41  1  0
 41 42  2  0
 42 43  1  0
 43 44  2  0
 44 45  1  0
 45 46  2  0
 46 47  1  0
 47 48  2  0
 48 49  1  0
 49 50  2  0
 50 51  1  0
 51 52  2  0
 52 53  1  0
 53 54  2  0
 54 55  1  0
 55 56  2  0
 56 57  1  0
 57 58  2  0
 58 59  1  0
 59 60  2  0
 60 61  1  0
 61 62  2  0
 62 63  1  0
 63 64  2  0
 64 65  1  0
 65 66  2  0
 66 67  1  0
 67 68  2  0
 68  5  1  0
 14  9  1  0
 20 15  1  0
 26 21  1  0
 32 27  1  0
 38 33  1  0
 44 39  1  0
 50 45  1  0
 56 51  1  0
 62 57  1  0
 68 63  1  0
M  END
>  <Title>  (1121) 
idABPEgen10

$$$$

     RDKit          2D

 13 13  0  0  0  0  0  0  0  0999 V2000
    5.2500   -1.2990    0.0000 C   0  0  0  0  0  0  0  0  0  0  0  0
    3.7500   -1.2990    0.0000 C   0  0  0  0  0  0  0  0  0  0  0  0
    3.0000   -2.5981    0.0000 O   0  0  0  0  0  0  0  0  0  0  0  0
    3.0000    0.0000    0.0000 N   0  0  0  0  0  0  0  0  0  0  0  0
    1.5000    0.0000    0.0000 C   0  0  0  0  0  0  0  0  0  0  0  0
    0.7500   -1.2990    0.0000 C   0  0  0  0  0  0  0  0  0  0  0  0
   -0.7500   -1.2990    0.0000 C   0  0  0  0  0  0  0  0  0  0  0  0
   -1.5000    0.0000    0.0000 C   0  0  0  0  0  0  0  0  0  0  0  0
   -3.0000    0.0000    0.0000 C   0  0  0  0  0  0  0  0  0  0  0  0
   -3.7500    1.2990    0.0000 C   0  0  0  0  0  0  0  0  0  0  0  0
   -3.7500   -1.2990    0.0000 C   0  0  0  0  0  0  0  0  0  0  0  0
   -0.7500    1.2990    0.0000 N   0  0  0  0  0  0  0  0  0  0  0  0
    0.7500    1.2990    0.0000 N   0  0  0  0  0  0  0  0  0  0  0  0
  1  2  1  0
  2  3  2  0
  2  4  1  0
  4  5  1  0
  5  6  2  0
  6  7  1  0
  7  8  2  0
  8  9  1  0
  9 10  1  0
  9 11  1  0
  8 12  1  0
 12 13  2  0
 13  5  1  0
M  END
>  <Title>  (1122) 
idABPFgen10

$$$$

     RDKit          2D

 81 82  0  0  0  0  0  0  0  0999 V2000
   10.5265    4.5435    0.0000 C   0  0  0  0  0  0  0  0  0  0  0  0
   11.3201    4.4693    0.0000 C   0  0  0  0  0  0  0  0  0  0  0  0
   11.6012    5.9427    0.0000 C   0  0  0  0  0  0  0  0  0  0  0  0
   12.1560    7.3363    0.0000 C   0  0  0  0  0  0  0  0  0  0  0  0
   12.9645    8.5998    0.0000 C   0  0  0  0  0  0  0  0  0  0  0  0
   13.9975    9.6874    0.0000 C   0  0  0  0  0  0  0  0  0  0  0  0
   15.2176   10.5598    0.0000 C   0  0  0  0  0  0  0  0  0  0  0  0
   16.5809   11.1856    0.0000 C   0  0  0  0  0  0  0  0  0  0  0  0
   18.0379   11.5421    0.0000 C   0  0  0  0  0  0  0  0  0  0  0  0
   19.5361   11.6164    0.0000 C   0  0  0  0  0  0  0  0  0  0  0  0
   21.0212   11.4058    0.0000 C   0  0  0  0  0  0  0  0  0  0  0  0
   22.4397   10.9179    0.0000 C   0  0  0  0  0  0  0  0  0  0  0  0
   23.7401   10.1705    0.0000 C   0  0  0  0  0  0  0  0  0  0  0  0
   24.8757    9.1904    0.0000 C   0  0  0  0  0  0  0  0  0  0  0  0
   25.8052    8.0131    0.0000 C   0  0  0  0  0  0  0  0  0  0  0  0
   26.4951    6.6812    0.0000 C   0  0  0  0  0  0  0  0  0  0  0  0
   26.9205    5.2428    0.0000 C   0  0  0  0  0  0  0  0  0  0  0  0
   27.0660    3.7498    0.0000 C   0  0  0  0  0  0  0  0  0  0  0  0
   26.9263    2.2564    0.0000 C   0  0  0  0  0  0  0  0  0  0  0  0
   26.5065    0.8163    0.0000 C   0  0  0  0  0  0  0  0  0  0  0  0
   25.8218   -0.5183    0.0000 C   0  0  0  0  0  0  0  0  0  0  0  0
   24.8968   -1.6992    0.0000 C   0  0  0  0  0  0  0  0  0  0  0  0
   23.7651   -2.6837    0.0000 C   0  0  0  0  0  0  0  0  0  0  0  0
   22.4675   -3.4362    0.0000 C   0  0  0  0  0  0  0  0  0  0  0  0
   21.0510   -3.9295    0.0000 C   0  0  0  0  0  0  0  0  0  0  0  0
   19.5667   -4.1459    0.0000 C   0  0  0  0  0  0  0  0  0  0  0  0
   18.0682   -4.0774    0.0000 C   0  0  0  0  0  0  0  0  0  0  0  0
   16.6098   -3.7266    0.0000 C   0  0  0  0  0  0  0  0  0  0  0  0
   15.2442   -3.1061    0.0000 C   0  0  0  0  0  0  0  0  0  0  0  0
   14.0206   -2.2384    0.0000 C   0  0  0  0  0  0  0  0  0  0  0  0
   12.9834   -1.1549    0.0000 C   0  0  0  0  0  0  0  0  0  0  0  0
   12.1700    0.1055    0.0000 C   0  0  0  0  0  0  0  0  0  0  0  0
   11.6098    1.4969    0.0000 C   0  0  0  0  0  0  0  0  0  0  0  0
   11.0059   -0.0000    0.0000 C   0  0  0  0  0  0  0  0  0  0  0  0
   10.9155   -1.4074    0.0000 C   0  0  0  0  0  0  0  0  0  0  0  0
   10.6460   -2.7917    0.0000 C   0  0  0  0  0  0  0  0  0  0  0  0
   10.2016   -4.1302    0.0000 C   0  0  0  0  0  0  0  0  0  0  0  0
    9.5897   -5.4008    0.0000 C   0  0  0  0  0  0  0  0  0  0  0  0
    8.8203   -6.5827    0.0000 C   0  0  0  0  0  0  0  0  0  0  0  0
    7.9061   -7.6566    0.0000 C   0  0  0  0  0  0  0  0  0  0  0  0
    6.8621   -8.6048    0.0000 C   0  0  0  0  0  0  0  0  0  0  0  0
    5.7054   -9.4116    0.0000 C   0  0  0  0  0  0  0  0  0  0  0  0
    4.4550  -10.0639    0.0000 C   0  0  0  0  0  0  0  0  0  0  0  0
    3.1315  -10.5510    0.0000 C   0  0  0  0  0  0  0  0  0  0  0  0
    1.7565  -10.8648    0.0000 C   0  0  0  0  0  0  0  0  0  0  0  0
    0.3528  -11.0003    0.0000 C   0  0  0  0  0  0  0  0  0  0  0  0
   -1.0568  -10.9550    0.0000 C   0  0  0  0  0  0  0  0  0  0  0  0
   -2.4490  -10.7300    0.0000 C   0  0  0  0  0  0  0  0  0  0  0  0
   -3.8011  -10.3287    0.0000 C   0  0  0  0  0  0  0  0  0  0  0  0
   -5.0907   -9.7578    0.0000 C   0  0  0  0  0  0  0  0  0  0  0  0
   -6.2967   -9.0267    0.0000 C   0  0  0  0  0  0  0  0  0  0  0  0
   -7.3993   -8.1474    0.0000 C   0  0  0  0  0  0  0  0  0  0  0  0
   -8.3804   -7.1343    0.0000 C   0  0  0  0  0  0  0  0  0  0  0  0
   -9.2239   -6.0041    0.0000 C   0  0  0  0  0  0  0  0  0  0  0  0
   -9.9160   -4.7753    0.0000 C   0  0  0  0  0  0  0  0  0  0  0  0
  -10.4452   -3.4681    0.0000 C   0  0  0  0  0  0  0  0  0  0  0  0
  -10.8029   -2.1039    0.0000 C   0  0  0  0  0  0  0  0  0  0  0  0
  -10.9833   -0.7052    0.0000 C   0  0  0  0  0  0  0  0  0  0  0  0
  -10.9833    0.7052    0.0000 C   0  0  0  0  0  0  0  0  0  0  0  0
  -10.8029    2.1039    0.0000 C   0  0  0  0  0  0  0  0  0  0  0  0
  -10.4452    3.4681    0.0000 C   0  0  0  0  0  0  0  0  0  0  0  0
   -9.9160    4.7753    0.0000 C   0  0  0  0  0  0  0  0  0  0  0  0
   -9.2239    6.0041    0.0000 C   0  0  0  0  0  0  0  0  0  0  0  0
   -8.3804    7.1343    0.0000 C   0  0  0  0  0  0  0  0  0  0  0  0
   -7.3993    8.1474    0.0000 C   0  0  0  0  0  0  0  0  0  0  0  0
   -6.2967    9.0267    0.0000 C   0  0  0  0  0  0  0  0  0  0  0  0
   -5.0907    9.7578    0.0000 C   0  0  0  0  0  0  0  0  0  0  0  0
   -3.8011   10.3287    0.0000 C   0  0  0  0  0  0  0  0  0  0  0  0
   -2.4490   10.7300    0.0000 C   0  0  0  0  0  0  0  0  0  0  0  0
   -1.0568   10.9550    0.0000 C   0  0  0  0  0  0  0  0  0  0  0  0
    0.3528   11.0003    0.0000 C   0  0  0  0  0  0  0  0  0  0  0  0
    1.7565   10.8648    0.0000 C   0  0  0  0  0  0  0  0  0  0  0  0
    3.1315   10.5510    0.0000 C   0  0  0  0  0  0  0  0  0  0  0  0
    4.4550   10.0639    0.0000 C   0  0  0  0  0  0  0  0  0  0  0  0
    5.7054    9.4116    0.0000 C   0  0  0  0  0  0  0  0  0  0  0  0
    6.8621    8.6048    0.0000 C   0  0  0  0  0  0  0  0  0  0  0  0
    7.9061    7.6566    0.0000 C   0  0  0  0  0  0  0  0  0  0  0  0
    8.8203    6.5827    0.0000 C   0  0  0  0  0  0  0  0  0  0  0  0
    9.5897    5.4008    0.0000 C   0  0  0  0  0  0  0  0  0  0  0  0
   10.2016    4.1302    0.0000 C   0  0  0  0  0  0  0  0  0  0  0  0
   11.3231    2.9693    0.0000 C   0  0  0  0  0  0  0  0  0  0  0  0
  1  2  1  0
  2  3  1  0
  3  4  1  0
  4  5  1  0
  5  6  1  0
  6  7  1  0
  7  8  1  0
  8  9  1  0
  9 10  1  0
 10 11  1  0
 11 12  1  0
 12 13  1  0
 13 14  1  0
 14 15  1  0
 15 16  1  0
 16 17  2  0
 17 18  1  0
 18 19  2  0
 19 20  1  0
 20 21  2  0
 21 22  1  0
 22 23  2  0
 23 24  1  0
 24 25  2  0
 25 26  1  0
 26 27  2  0
 27 28  1  0
 28 29  2  0
 29 30  1  0
 30 31  2  0
 31 32  1  0
 32 33  2  0
 33 34  1  0
 34 35  2  0
 35 36  1  0
 36 37  2  0
 37 38  1  0
 38 39  2  0
 39 40  1  0
 40 41  2  0
 41 42  1  0
 42 43  2  0
 43 44  1  0
 44 45  2  0
 45 46  1  0
 46 47  2  0
 47 48  1  0
 48 49  2  0
 49 50  1  0
 50 51  2  0
 51 52  1  0
 52 53  2  0
 53 54  1  0
 54 55  2  0
 55 56  1  0
 56 57  2  0
 57 58  1  0
 58 59  2  0
 59 60  1  0
 60 61  2  0
 61 62  1  0
 62 63  2  0
 63 64  1  0
 64 65  2  0
 65 66  1  0
 66 67  2  0
 67 68  1  0
 68 69  2  0
 69 70  1  0
 70 71  2  0
 71 72  1  0
 72 73  2  0
 73 74  1  0
 74 75  2  0
 75 76  1  0
 76 77  2  0
 77 78  1  0
 78 79  2  0
 79 80  1  0
 80 81  2  0
 81  2  1  0
 81 33  1  0
M  END
>  <Title>  (1123) 
idABPGgen10

$$$$

     RDKit          2D

 12 12  0  0  0  0  0  0  0  0999 V2000
    9.5260   -1.2990    0.0000 C   0  0  0  0  0  0  0  0  0  0  0  0
    8.0260   -1.2990    0.0000 C   0  0  0  0  0  0  0  0  0  0  0  0
    6.5260   -1.2990    0.0000 C   0  0  0  0  0  0  0  0  0  0  0  0
    5.0260   -1.2990    0.0000 C   0  0  0  0  0  0  0  0  0  0  0  0
    3.5260   -1.2990    0.0000 C   0  0  0  0  0  0  0  0  0  0  0  0
    2.7760    0.0000    0.0000 C   0  0  0  0  0  0  0  0  0  0  0  0
    3.5260    1.2990    0.0000 O   0  0  0  0  0  0  0  0  0  0  0  0
    1.2760    0.0000    0.0000 C   0  0  0  0  0  0  0  0  0  0  0  0
    0.3943    1.2135    0.0000 C   0  0  0  0  0  0  0  0  0  0  0  0
   -1.0323    0.7500    0.0000 C   0  0  0  0  0  0  0  0  0  0  0  0
   -1.0323   -0.7500    0.0000 C   0  0  0  0  0  0  0  0  0  0  0  0
    0.3943   -1.2135    0.0000 C   0  0  0  0  0  0  0  0  0  0  0  0
  1  2  3  0
  2  3  1  0
  3  4  3  0
  4  5  1  0
  5  6  1  0
  6  7  2  0
  6  8  1  0
  8  9  2  0
  9 10  1  0
 10 11  2  0
 11 12  1  0
 12  8  1  0
M  END
>  <Title>  (1124) 
idABPHgen10

$$$$

     RDKit          2D

  5  4  0  0  0  0  0  0  0  0999 V2000
    0.0000    0.0000    0.0000 C   0  0  0  0  0  0  0  0  0  0  0  0
    1.2990    0.7500    0.0000 C   0  0  0  0  0  0  0  0  0  0  0  0
    2.5981   -0.0000    0.0000 C   0  0  0  0  0  0  0  0  0  0  0  0
    3.8971    0.7500    0.0000 C   0  0  0  0  0  0  0  0  0  0  0  0
    5.1962   -0.0000    0.0000 C   0  0  0  0  0  0  0  0  0  0  0  0
  1  2  1  0
  2  3  1  0
  3  4  1  0
  4  5  1  0
M  END
>  <Title>  (1125) 
idABPIgen10

$$$$

     RDKit          2D

 39 44  0  0  0  0  0  0  0  0999 V2000
    3.1097   -7.2078    0.0000 C   0  0  0  0  0  0  0  0  0  0  0  0
    2.0490   -6.1471    0.0000 C   0  0  0  0  0  0  0  0  0  0  0  0
    2.7990   -4.8481    0.0000 C   0  0  0  0  0  0  0  0  0  0  0  0
    2.7990   -3.3481    0.0000 C   0  0  0  0  0  0  0  0  0  0  0  0
    4.2479   -2.9598    0.0000 C   0  0  0  0  0  0  0  0  0  0  0  0
    2.0490   -2.0490    0.0000 N   0  0  0  0  0  0  0  0  0  0  0  0
    3.1097   -0.9884    0.0000 C   0  0  0  0  0  0  0  0  0  0  0  0
    2.7215    0.4605    0.0000 O   0  0  0  0  0  0  0  0  0  0  0  0
    4.5586   -1.3766    0.0000 N   0  0  0  0  0  0  0  0  0  0  0  0
    5.6192   -0.3159    0.0000 C   0  0  0  0  0  0  0  0  0  0  0  0
    7.0681   -0.7042    0.0000 N   0  0  0  0  0  0  0  0  0  0  0  0
    8.1288    0.3565    0.0000 N   0  0  0  0  0  0  0  0  0  0  0  0
    7.7406    1.8054    0.0000 N   0  0  0  0  0  0  0  0  0  0  0  0
    6.2917    2.1936    0.0000 N   0  0  0  0  0  0  0  0  0  0  0  0
    5.2310    1.1329    0.0000 N   0  0  0  0  0  0  0  0  0  0  0  0
    0.7500   -1.2990    0.0000 C   0  0  0  0  0  0  0  0  0  0  0  0
    1.5000    0.0000    0.0000 C   0  0  0  0  0  0  0  0  0  0  0  0
    0.7500    1.2990    0.0000 C   0  0  0  0  0  0  0  0  0  0  0  0
   -0.7500    1.2990    0.0000 C   0  0  0  0  0  0  0  0  0  0  0  0
   -1.5000    0.0000    0.0000 C   0  0  0  0  0  0  0  0  0  0  0  0
   -0.7500   -1.2990    0.0000 C   0  0  0  0  0  0  0  0  0  0  0  0
   -2.0490   -2.0490    0.0000 C   0  0  0  0  0  0  0  0  0  0  0  0
   -2.7990   -0.7500    0.0000 C   0  0  0  0  0  0  0  0  0  0  0  0
   -4.2990   -0.7500    0.0000 C   0  0  0  0  0  0  0  0  0  0  0  0
   -5.0490   -2.0490    0.0000 C   0  0  0  0  0  0  0  0  0  0  0  0
   -4.2990   -3.3481    0.0000 C   0  0  0  0  0  0  0  0  0  0  0  0
   -2.7990   -3.3481    0.0000 C   0  0  0  0  0  0  0  0  0  0  0  0
   -2.7990   -4.8481    0.0000 C   0  0  0  0  0  0  0  0  0  0  0  0
   -4.2990   -4.8481    0.0000 C   0  0  0  0  0  0  0  0  0  0  0  0
   -5.0490   -6.1471    0.0000 C   0  0  0  0  0  0  0  0  0  0  0  0
   -4.2990   -7.4462    0.0000 C   0  0  0  0  0  0  0  0  0  0  0  0
   -2.7990   -7.4462    0.0000 C   0  0  0  0  0  0  0  0  0  0  0  0
   -2.0490   -6.1471    0.0000 C   0  0  0  0  0  0  0  0  0  0  0  0
   -0.7500   -6.8971    0.0000 C   0  0  0  0  0  0  0  0  0  0  0  0
   -1.5000   -8.1962    0.0000 C   0  0  0  0  0  0  0  0  0  0  0  0
   -0.7500   -9.4952    0.0000 C   0  0  0  0  0  0  0  0  0  0  0  0
    0.7500   -9.4952    0.0000 C   0  0  0  0  0  0  0  0  0  0  0  0
    1.5000   -8.1962    0.0000 C   0  0  0  0  0  0  0  0  0  0  0  0
    0.7500   -6.8971    0.0000 C   0  0  0  0  0  0  0  0  0  0  0  0
  1  2  1  0
  2  3  2  0
  3  4  1  0
  4  5  1  0
  4  6  1  0
  6  7  1  0
  7  8  2  0
  7  9  1  0
  9 10  1  0
 10 11  2  0
 11 12  1  0
 12 13  2  0
 13 14  1  0
 14 15  2  0
  6 16  1  0
 16 17  2  0
 17 18  1  0
 18 19  2  0
 19 20  1  0
 20 21  2  0
 21 22  1  0
 22 23  2  0
 23 24  1  0
 24 25  2  0
 25 26  1  0
 26 27  2  0
 27 28  1  0
 28 29  2  0
 29 30  1  0
 30 31  2  0
 31 32  1  0
 32 33  2  0
 33 34  1  0
 34 35  2  0
 35 36  1  0
 36 37  2  0
 37 38  1  0
 38 39  2  0
 39  2  1  0
 15 10  1  0
 21 16  1  0
 27 22  1  0
 33 28  1  0
 39 34  1  0
M  END
>  <Title>  (1126) 
idABPJgen10

$$$$

     RDKit          2D

100101  0  0  0  0  0  0  0  0999 V2000
   -2.1647   -1.0844    0.0000 C   0  0  0  0  0  0  0  0  0  0  0  0
   -2.4861    0.3808    0.0000 C   0  0  0  0  0  0  0  0  0  0  0  0
   -3.9610    0.1074    0.0000 C   0  0  0  0  0  0  0  0  0  0  0  0
   -5.4506   -0.0689    0.0000 C   0  0  0  0  0  0  0  0  0  0  0  0
   -6.9486   -0.1474    0.0000 C   0  0  0  0  0  0  0  0  0  0  0  0
   -8.4484   -0.1278    0.0000 C   0  0  0  0  0  0  0  0  0  0  0  0
   -9.9438   -0.0101    0.0000 C   0  0  0  0  0  0  0  0  0  0  0  0
  -11.4283    0.2052    0.0000 C   0  0  0  0  0  0  0  0  0  0  0  0
  -12.8955    0.5170    0.0000 C   0  0  0  0  0  0  0  0  0  0  0  0
  -14.3392    0.9242    0.0000 C   0  0  0  0  0  0  0  0  0  0  0  0
  -15.7532    1.4249    0.0000 C   0  0  0  0  0  0  0  0  0  0  0  0
  -17.1313    2.0170    0.0000 C   0  0  0  0  0  0  0  0  0  0  0  0
  -18.4678    2.6980    0.0000 C   0  0  0  0  0  0  0  0  0  0  0  0
  -19.7570    3.4649    0.0000 C   0  0  0  0  0  0  0  0  0  0  0  0
  -20.9931    4.3146    0.0000 C   0  0  0  0  0  0  0  0  0  0  0  0
  -22.1711    5.2432    0.0000 C   0  0  0  0  0  0  0  0  0  0  0  0
  -23.2858    6.2469    0.0000 C   0  0  0  0  0  0  0  0  0  0  0  0
  -24.3325    7.3213    0.0000 C   0  0  0  0  0  0  0  0  0  0  0  0
  -25.3067    8.4620    0.0000 C   0  0  0  0  0  0  0  0  0  0  0  0
  -26.2042    9.6638    0.0000 C   0  0  0  0  0  0  0  0  0  0  0  0
  -27.0211   10.9218    0.0000 C   0  0  0  0  0  0  0  0  0  0  0  0
  -27.7541   12.2306    0.0000 C   0  0  0  0  0  0  0  0  0  0  0  0
  -28.3998   13.5845    0.0000 C   0  0  0  0  0  0  0  0  0  0  0  0
  -28.9557   14.9777    0.0000 C   0  0  0  0  0  0  0  0  0  0  0  0
  -29.4192   16.4043    0.0000 C   0  0  0  0  0  0  0  0  0  0  0  0
  -29.7884   17.8581    0.0000 C   0  0  0  0  0  0  0  0  0  0  0  0
  -30.0618   19.3330    0.0000 C   0  0  0  0  0  0  0  0  0  0  0  0
  -30.2381   20.8226    0.0000 C   0  0  0  0  0  0  0  0  0  0  0  0
  -30.3166   22.3205    0.0000 C   0  0  0  0  0  0  0  0  0  0  0  0
  -30.2970   23.8204    0.0000 C   0  0  0  0  0  0  0  0  0  0  0  0
  -30.1793   25.3158    0.0000 C   0  0  0  0  0  0  0  0  0  0  0  0
  -29.9640   26.8003    0.0000 C   0  0  0  0  0  0  0  0  0  0  0  0
  -29.6522   28.2675    0.0000 C   0  0  0  0  0  0  0  0  0  0  0  0
  -29.2450   29.7112    0.0000 C   0  0  0  0  0  0  0  0  0  0  0  0
  -28.7443   31.1251    0.0000 C   0  0  0  0  0  0  0  0  0  0  0  0
  -28.1522   32.5033    0.0000 C   0  0  0  0  0  0  0  0  0  0  0  0
  -27.4712   33.8398    0.0000 C   0  0  0  0  0  0  0  0  0  0  0  0
  -26.7043   35.1289    0.0000 C   0  0  0  0  0  0  0  0  0  0  0  0
  -25.8546   36.3651    0.0000 C   0  0  0  0  0  0  0  0  0  0  0  0
  -24.9260   37.5431    0.0000 C   0  0  0  0  0  0  0  0  0  0  0  0
  -23.9223   38.6578    0.0000 C   0  0  0  0  0  0  0  0  0  0  0  0
  -22.8479   39.7045    0.0000 C   0  0  0  0  0  0  0  0  0  0  0  0
  -21.7072   40.6787    0.0000 C   0  0  0  0  0  0  0  0  0  0  0  0
  -20.5054   41.5762    0.0000 C   0  0  0  0  0  0  0  0  0  0  0  0
  -19.2474   42.3931    0.0000 C   0  0  0  0  0  0  0  0  0  0  0  0
  -17.9386   43.1261    0.0000 C   0  0  0  0  0  0  0  0  0  0  0  0
  -16.5847   43.7718    0.0000 C   0  0  0  0  0  0  0  0  0  0  0  0
  -15.1915   44.3277    0.0000 C   0  0  0  0  0  0  0  0  0  0  0  0
  -13.7649   44.7912    0.0000 C   0  0  0  0  0  0  0  0  0  0  0  0
  -12.3111   45.1604    0.0000 C   0  0  0  0  0  0  0  0  0  0  0  0
  -10.8362   45.4338    0.0000 C   0  0  0  0  0  0  0  0  0  0  0  0
   -9.3466   45.6101    0.0000 C   0  0  0  0  0  0  0  0  0  0  0  0
   -7.8487   45.6886    0.0000 C   0  0  0  0  0  0  0  0  0  0  0  0
   -6.3488   45.6689    0.0000 C   0  0  0  0  0  0  0  0  0  0  0  0
   -4.8534   45.5513    0.0000 C   0  0  0  0  0  0  0  0  0  0  0  0
   -3.3689   45.3360    0.0000 C   0  0  0  0  0  0  0  0  0  0  0  0
   -1.9017   45.0241    0.0000 C   0  0  0  0  0  0  0  0  0  0  0  0
   -0.4580   44.6170    0.0000 C   0  0  0  0  0  0  0  0  0  0  0  0
    0.9559   44.1163    0.0000 C   0  0  0  0  0  0  0  0  0  0  0  0
    2.3341   43.5242    0.0000 C   0  0  0  0  0  0  0  0  0  0  0  0
    3.6706   42.8432    0.0000 C   0  0  0  0  0  0  0  0  0  0  0  0
    4.9597   42.0762    0.0000 C   0  0  0  0  0  0  0  0  0  0  0  0
    6.1959   41.2266    0.0000 C   0  0  0  0  0  0  0  0  0  0  0  0
    7.3739   40.2980    0.0000 C   0  0  0  0  0  0  0  0  0  0  0  0
    8.4886   39.2943    0.0000 C   0  0  0  0  0  0  0  0  0  0  0  0
    9.5353   38.2198    0.0000 C   0  0  0  0  0  0  0  0  0  0  0  0
   10.5095   37.0792    0.0000 C   0  0  0  0  0  0  0  0  0  0  0  0
   11.4070   35.8773    0.0000 C   0  0  0  0  0  0  0  0  0  0  0  0
   12.2239   34.6193    0.0000 C   0  0  0  0  0  0  0  0  0  0  0  0
   12.9568   33.3106    0.0000 C   0  0  0  0  0  0  0  0  0  0  0  0
   13.6026   31.9567    0.0000 C   0  0  0  0  0  0  0  0  0  0  0  0
   14.1585   30.5635    0.0000 C   0  0  0  0  0  0  0  0  0  0  0  0
   14.6220   29.1369    0.0000 C   0  0  0  0  0  0  0  0  0  0  0  0
   14.9912   27.6831    0.0000 C   0  0  0  0  0  0  0  0  0  0  0  0
   15.2646   26.2082    0.0000 C   0  0  0  0  0  0  0  0  0  0  0  0
   15.4409   24.7186    0.0000 C   0  0  0  0  0  0  0  0  0  0  0  0
   15.5194   23.2206    0.0000 C   0  0  0  0  0  0  0  0  0  0  0  0
   15.4997   21.7208    0.0000 C   0  0  0  0  0  0  0  0  0  0  0  0
   15.3820   20.2254    0.0000 C   0  0  0  0  0  0  0  0  0  0  0  0
   15.1668   18.7409    0.0000 C   0  0  0  0  0  0  0  0  0  0  0  0
   14.8549   17.2737    0.0000 C   0  0  0  0  0  0  0  0  0  0  0  0
   14.4478   15.8300    0.0000 C   0  0  0  0  0  0  0  0  0  0  0  0
   13.9471   14.4161    0.0000 C   0  0  0  0  0  0  0  0  0  0  0  0
   13.3550   13.0379    0.0000 C   0  0  0  0  0  0  0  0  0  0  0  0
   12.6740   11.7014    0.0000 C   0  0  0  0  0  0  0  0  0  0  0  0
   11.9070   10.4122    0.0000 C   0  0  0  0  0  0  0  0  0  0  0  0
   11.0574    9.1761    0.0000 C   0  0  0  0  0  0  0  0  0  0  0  0
   10.1288    7.9981    0.0000 C   0  0  0  0  0  0  0  0  0  0  0  0
    9.1251    6.8834    0.0000 C   0  0  0  0  0  0  0  0  0  0  0  0
    8.0506    5.8367    0.0000 C   0  0  0  0  0  0  0  0  0  0  0  0
    6.9100    4.8625    0.0000 C   0  0  0  0  0  0  0  0  0  0  0  0
    5.7081    3.9650    0.0000 C   0  0  0  0  0  0  0  0  0  0  0  0
    4.4501    3.1481    0.0000 C   0  0  0  0  0  0  0  0  0  0  0  0
    3.1414    2.4151    0.0000 C   0  0  0  0  0  0  0  0  0  0  0  0
    1.7875    1.7694    0.0000 C   0  0  0  0  0  0  0  0  0  0  0  0
    0.3943    1.2135    0.0000 C   0  0  0  0  0  0  0  0  0  0  0  0
    1.2760    0.0000    0.0000 C   0  0  0  0  0  0  0  0  0  0  0  0
    0.3943   -1.2135    0.0000 C   0  0  0  0  0  0  0  0  0  0  0  0
   -1.0323   -0.7500    0.0000 C   0  0  0  0  0  0  0  0  0  0  0  0
   -1.0323    0.7500    0.0000 C   0  0  0  0  0  0  0  0  0  0  0  0
  1  2  1  0
  2  3  1  0
  3  4  1  0
  4  5  1  0
  5  6  1  0
  6  7  1  0
  7  8  1  0
  8  9  1  0
  9 10  1  0
 10 11  1  0
 11 12  1  0
 12 13  1  0
 13 14  1  0
 14 15  1  0
 15 16  1  0
 16 17  1  0
 17 18  1  0
 18 19  1  0
 19 20  1  0
 20 21  1  0
 21 22  1  0
 22 23  1  0
 23 24  1  0
 24 25  1  0
 25 26  1  0
 26 27  1  0
 27 28  1  0
 28 29  1  0
 29 30  1  0
 30 31  1  0
 31 32  1  0
 32 33  1  0
 33 34  1  0
 34 35  1  0
 35 36  1  0
 36 37  1  0
 37 38  1  0
 38 39  1  0
 39 40  1  0
 40 41  1  0
 41 42  1  0
 42 43  1  0
 43 44  1  0
 44 45  1  0
 45 46  1  0
 46 47  1  0
 47 48  1  0
 48 49  1  0
 49 50  1  0
 50 51  1  0
 51 52  1  0
 52 53  1  0
 53 54  1  0
 54 55  1  0
 55 56  1  0
 56 57  1  0
 57 58  1  0
 58 59  1  0
 59 60  1  0
 60 61  1  0
 61 62  1  0
 62 63  1  0
 63 64  1  0
 64 65  1  0
 65 66  1  0
 66 67  1  0
 67 68  1  0
 68 69  1  0
 69 70  1  0
 70 71  1  0
 71 72  1  0
 72 73  1  0
 73 74  1  0
 74 75  1  0
 75 76  1  0
 76 77  1  0
 77 78  1  0
 78 79  1  0
 79 80  1  0
 80 81  1  0
 81 82  1  0
 82 83  1  0
 83 84  1  0
 84 85  1  0
 85 86  1  0
 86 87  1  0
 87 88  2  0
 88 89  1  0
 89 90  2  0
 90 91  1  0
 91 92  2  0
 92 93  1  0
 93 94  2  0
 94 95  1  0
 95 96  2  0
 96 97  1  0
 97 98  2  0
 98 99  1  0
 99100  2  0
100  2  1  0
100 96  1  0
M  END
>  <Title>  (1127) 
idABPKgen10

$$$$

     RDKit          2D

 11 11  0  0  0  0  0  0  0  0999 V2000
    5.2500   -1.2990    0.0000 C   0  0  0  0  0  0  0  0  0  0  0  0
    3.7500   -1.2990    0.0000 C   0  0  0  0  0  0  0  0  0  0  0  0
    3.0000    0.0000    0.0000 C   0  0  0  0  0  0  0  0  0  0  0  0
    1.5000    0.0000    0.0000 C   0  0  0  0  0  0  0  0  0  0  0  0
    0.7500   -1.2990    0.0000 C   0  0  0  0  0  0  0  0  0  0  0  0
   -0.7500   -1.2990    0.0000 C   0  0  0  0  0  0  0  0  0  0  0  0
   -1.5000    0.0000    0.0000 C   0  0  0  0  0  0  0  0  0  0  0  0
   -0.7500    1.2990    0.0000 C   0  0  0  0  0  0  0  0  0  0  0  0
    0.7500    1.2990    0.0000 C   0  0  0  0  0  0  0  0  0  0  0  0
    3.0000   -2.5981    0.0000 O   0  0  0  0  0  0  0  0  0  0  0  0
    3.7500   -3.8971    0.0000 C   0  0  0  0  0  0  0  0  0  0  0  0
  1  2  2  0
  2  3  1  0
  3  4  1  0
  4  5  2  0
  5  6  1  0
  6  7  2  0
  7  8  1  0
  8  9  2  0
  2 10  1  0
 10 11  1  0
  9  4  1  0
M  END
>  <Title>  (1128) 
idABPLgen10

$$$$

     RDKit          2D

 55 55  0  0  0  0  0  0  0  0999 V2000
   13.1374    0.0000    0.0000 C   0  0  0  0  0  0  0  0  0  0  0  0
   13.0518    1.4976    0.0000 C   0  0  0  0  0  0  0  0  0  0  0  0
   12.7960    2.9756    0.0000 C   0  0  0  0  0  0  0  0  0  0  0  0
   12.3734    4.4148    0.0000 C   0  0  0  0  0  0  0  0  0  0  0  0
   11.7895    5.7965    0.0000 C   0  0  0  0  0  0  0  0  0  0  0  0
   11.0519    7.1026    0.0000 C   0  0  0  0  0  0  0  0  0  0  0  0
   10.1702    8.3162    0.0000 C   0  0  0  0  0  0  0  0  0  0  0  0
    9.1560    9.4213    0.0000 C   0  0  0  0  0  0  0  0  0  0  0  0
    8.0223   10.4036    0.0000 C   0  0  0  0  0  0  0  0  0  0  0  0
    6.7841   11.2502    0.0000 C   0  0  0  0  0  0  0  0  0  0  0  0
    5.4575   11.9502    0.0000 C   0  0  0  0  0  0  0  0  0  0  0  0
    4.0597   12.4944    0.0000 C   0  0  0  0  0  0  0  0  0  0  0  0
    2.6090   12.8758    0.0000 C   0  0  0  0  0  0  0  0  0  0  0  0
    1.1242   13.0892    0.0000 C   0  0  0  0  0  0  0  0  0  0  0  0
   -0.3752   13.1321    0.0000 C   0  0  0  0  0  0  0  0  0  0  0  0
   -1.8697   13.0037    0.0000 C   0  0  0  0  0  0  0  0  0  0  0  0
   -3.3398   12.7058    0.0000 C   0  0  0  0  0  0  0  0  0  0  0  0
   -4.7664   12.2423    0.0000 C   0  0  0  0  0  0  0  0  0  0  0  0
   -6.1308   11.6192    0.0000 C   0  0  0  0  0  0  0  0  0  0  0  0
   -7.4153   10.8446    0.0000 C   0  0  0  0  0  0  0  0  0  0  0  0
   -8.6032    9.9286    0.0000 C   0  0  0  0  0  0  0  0  0  0  0  0
   -9.6789    8.8832    0.0000 C   0  0  0  0  0  0  0  0  0  0  0  0
  -10.6284    7.7220    0.0000 C   0  0  0  0  0  0  0  0  0  0  0  0
  -11.4394    6.4601    0.0000 C   0  0  0  0  0  0  0  0  0  0  0  0
  -12.1012    5.1140    0.0000 C   0  0  0  0  0  0  0  0  0  0  0  0
  -12.6053    3.7012    0.0000 C   0  0  0  0  0  0  0  0  0  0  0  0
  -12.9450    2.2402    0.0000 C   0  0  0  0  0  0  0  0  0  0  0  0
  -13.1160    0.7500    0.0000 C   0  0  0  0  0  0  0  0  0  0  0  0
  -13.1160   -0.7500    0.0000 C   0  0  0  0  0  0  0  0  0  0  0  0
  -12.9450   -2.2402    0.0000 C   0  0  0  0  0  0  0  0  0  0  0  0
  -12.6053   -3.7012    0.0000 C   0  0  0  0  0  0  0  0  0  0  0  0
  -12.1012   -5.1140    0.0000 C   0  0  0  0  0  0  0  0  0  0  0  0
  -11.4394   -6.4601    0.0000 C   0  0  0  0  0  0  0  0  0  0  0  0
  -10.6284   -7.7220    0.0000 C   0  0  0  0  0  0  0  0  0  0  0  0
   -9.6789   -8.8832    0.0000 C   0  0  0  0  0  0  0  0  0  0  0  0
   -8.6032   -9.9286    0.0000 C   0  0  0  0  0  0  0  0  0  0  0  0
   -7.4153  -10.8446    0.0000 C   0  0  0  0  0  0  0  0  0  0  0  0
   -6.1308  -11.6192    0.0000 C   0  0  0  0  0  0  0  0  0  0  0  0
   -4.7664  -12.2423    0.0000 C   0  0  0  0  0  0  0  0  0  0  0  0
   -3.3398  -12.7058    0.0000 C   0  0  0  0  0  0  0  0  0  0  0  0
   -1.8697  -13.0037    0.0000 C   0  0  0  0  0  0  0  0  0  0  0  0
   -0.3752  -13.1321    0.0000 C   0  0  0  0  0  0  0  0  0  0  0  0
    1.1242  -13.0892    0.0000 C   0  0  0  0  0  0  0  0  0  0  0  0
    2.6090  -12.8758    0.0000 C   0  0  0  0  0  0  0  0  0  0  0  0
    4.0597  -12.4944    0.0000 C   0  0  0  0  0  0  0  0  0  0  0  0
    5.4575  -11.9502    0.0000 C   0  0  0  0  0  0  0  0  0  0  0  0
    6.7841  -11.2502    0.0000 C   0  0  0  0  0  0  0  0  0  0  0  0
    8.0223  -10.4036    0.0000 C   0  0  0  0  0  0  0  0  0  0  0  0
    9.1560   -9.4213    0.0000 C   0  0  0  0  0  0  0  0  0  0  0  0
   10.1702   -8.3162    0.0000 C   0  0  0  0  0  0  0  0  0  0  0  0
   11.0519   -7.1026    0.0000 C   0  0  0  0  0  0  0  0  0  0  0  0
   11.7895   -5.7965    0.0000 C   0  0  0  0  0  0  0  0  0  0  0  0
   12.3734   -4.4148    0.0000 C   0  0  0  0  0  0  0  0  0  0  0  0
   12.7960   -2.9756    0.0000 C   0  0  0  0  0  0  0  0  0  0  0  0
   13.0518   -1.4976    0.0000 C   0  0  0  0  0  0  0  0  0  0  0  0
  1  2  1  0
  2  3  1  0
  3  4  1  0
  4  5  1  0
  5  6  1  0
  6  7  1  0
  7  8  1  0
  8  9  1  0
  9 10  1  0
 10 11  1  0
 11 12  1  0
 12 13  1  0
 13 14  1  0
 14 15  1  0
 15 16  1  0
 16 17  1  0
 17 18  1  0
 18 19  1  0
 19 20  1  0
 20 21  1  0
 21 22  1  0
 22 23  1  0
 23 24  1  0
 24 25  1  0
 25 26  1  0
 26 27  1  0
 27 28  1  0
 28 29  1  0
 29 30  1  0
 30 31  1  0
 31 32  1  0
 32 33  1  0
 33 34  1  0
 34 35  1  0
 35 36  1  0
 36 37  1  0
 37 38  1  0
 38 39  1  0
 39 40  1  0
 40 41  1  0
 41 42  1  0
 42 43  1  0
 43 44  1  0
 44 45  1  0
 45 46  1  0
 46 47  1  0
 47 48  1  0
 48 49  1  0
 49 50  1  0
 50 51  1  0
 51 52  1  0
 52 53  1  0
 53 54  1  0
 54 55  1  0
 55  1  1  0
M  END
>  <Title>  (1129) 
idABPMgen10

$$$$

     RDKit          2D

  7  7  0  0  0  0  0  0  0  0999 V2000
    2.7760    0.0000    0.0000 C   0  0  0  0  0  0  0  0  0  0  0  0
    1.2760    0.0000    0.0000 C   0  0  0  0  0  0  0  0  0  0  0  0
    0.3943    1.2135    0.0000 C   0  0  0  0  0  0  0  0  0  0  0  0
   -1.0323    0.7500    0.0000 C   0  0  0  0  0  0  0  0  0  0  0  0
   -1.0323   -0.7500    0.0000 C   0  0  0  0  0  0  0  0  0  0  0  0
   -2.2458   -1.6317    0.0000 C   0  0  0  0  0  0  0  0  0  0  0  0
    0.3943   -1.2135    0.0000 N   0  0  0  0  0  0  0  0  0  0  0  0
  1  2  1  0
  2  3  1  0
  3  4  2  0
  4  5  1  0
  5  6  1  0
  5  7  1  0
  7  2  1  0
M  END
>  <Title>  (1130) 
idABPNgen10

$$$$

     RDKit          2D

 11 11  0  0  0  0  0  0  0  0999 V2000
    7.2760   -0.0000    0.0000 C   0  0  0  0  0  0  0  0  0  0  0  0
    5.7760   -0.0000    0.0000 C   0  0  0  0  0  0  0  0  0  0  0  0
    4.2760   -0.0000    0.0000 C   0  0  0  0  0  0  0  0  0  0  0  0
    2.7760    0.0000    0.0000 C   0  0  0  0  0  0  0  0  0  0  0  0
    1.2760    0.0000    0.0000 C   0  0  0  0  0  0  0  0  0  0  0  0
    0.3943    1.2135    0.0000 C   0  0  0  0  0  0  0  0  0  0  0  0
    0.8578    2.6401    0.0000 C   0  0  0  0  0  0  0  0  0  0  0  0
    2.3250    2.9520    0.0000 C   0  0  0  0  0  0  0  0  0  0  0  0
   -1.0323    0.7500    0.0000 C   0  0  0  0  0  0  0  0  0  0  0  0
   -1.0323   -0.7500    0.0000 C   0  0  0  0  0  0  0  0  0  0  0  0
    0.3943   -1.2135    0.0000 C   0  0  0  0  0  0  0  0  0  0  0  0
  1  2  3  0
  2  3  1  0
  3  4  3  0
  4  5  1  0
  5  6  2  0
  6  7  1  0
  7  8  1  0
  6  9  1  0
  9 10  2  0
 10 11  1  0
 11  5  1  0
M  END
>  <Title>  (1131) 
idABPOgen10

$$$$

     RDKit          2D

103103  0  0  0  0  0  0  0  0999 V2000
   24.5933    0.0000    0.0000 C   0  0  0  0  0  0  0  0  0  0  0  0
   24.5475    1.4993    0.0000 C   0  0  0  0  0  0  0  0  0  0  0  0
   24.4104    2.9930    0.0000 C   0  0  0  0  0  0  0  0  0  0  0  0
   24.1826    4.4756    0.0000 C   0  0  0  0  0  0  0  0  0  0  0  0
   23.8647    5.9416    0.0000 C   0  0  0  0  0  0  0  0  0  0  0  0
   23.4581    7.3854    0.0000 C   0  0  0  0  0  0  0  0  0  0  0  0
   22.9643    8.8018    0.0000 C   0  0  0  0  0  0  0  0  0  0  0  0
   22.3850   10.1854    0.0000 C   0  0  0  0  0  0  0  0  0  0  0  0
   21.7224   11.5311    0.0000 C   0  0  0  0  0  0  0  0  0  0  0  0
   20.9790   12.8339    0.0000 C   0  0  0  0  0  0  0  0  0  0  0  0
   20.1576   14.0890    0.0000 C   0  0  0  0  0  0  0  0  0  0  0  0
   19.2611   15.2917    0.0000 C   0  0  0  0  0  0  0  0  0  0  0  0
   18.2931   16.4375    0.0000 C   0  0  0  0  0  0  0  0  0  0  0  0
   17.2569   17.5222    0.0000 C   0  0  0  0  0  0  0  0  0  0  0  0
   16.1566   18.5416    0.0000 C   0  0  0  0  0  0  0  0  0  0  0  0
   14.9962   19.4921    0.0000 C   0  0  0  0  0  0  0  0  0  0  0  0
   13.7800   20.3701    0.0000 C   0  0  0  0  0  0  0  0  0  0  0  0
   12.5125   21.1723    0.0000 C   0  0  0  0  0  0  0  0  0  0  0  0
   11.1985   21.8957    0.0000 C   0  0  0  0  0  0  0  0  0  0  0  0
    9.8428   22.5377    0.0000 C   0  0  0  0  0  0  0  0  0  0  0  0
    8.4505   23.0958    0.0000 C   0  0  0  0  0  0  0  0  0  0  0  0
    7.0268   23.5680    0.0000 C   0  0  0  0  0  0  0  0  0  0  0  0
    5.5769   23.9526    0.0000 C   0  0  0  0  0  0  0  0  0  0  0  0
    4.1063   24.2480    0.0000 C   0  0  0  0  0  0  0  0  0  0  0  0
    2.6204   24.4532    0.0000 C   0  0  0  0  0  0  0  0  0  0  0  0
    1.1248   24.5675    0.0000 C   0  0  0  0  0  0  0  0  0  0  0  0
   -0.3750   24.5904    0.0000 C   0  0  0  0  0  0  0  0  0  0  0  0
   -1.8735   24.5218    0.0000 C   0  0  0  0  0  0  0  0  0  0  0  0
   -3.3649   24.3620    0.0000 C   0  0  0  0  0  0  0  0  0  0  0  0
   -4.8439   24.1115    0.0000 C   0  0  0  0  0  0  0  0  0  0  0  0
   -6.3048   23.7714    0.0000 C   0  0  0  0  0  0  0  0  0  0  0  0
   -7.7423   23.3428    0.0000 C   0  0  0  0  0  0  0  0  0  0  0  0
   -9.1509   22.8274    0.0000 C   0  0  0  0  0  0  0  0  0  0  0  0
  -10.5256   22.2270    0.0000 C   0  0  0  0  0  0  0  0  0  0  0  0
  -11.8610   21.5440    0.0000 C   0  0  0  0  0  0  0  0  0  0  0  0
  -13.1524   20.7808    0.0000 C   0  0  0  0  0  0  0  0  0  0  0  0
  -14.3948   19.9404    0.0000 C   0  0  0  0  0  0  0  0  0  0  0  0
  -15.5837   19.0257    0.0000 C   0  0  0  0  0  0  0  0  0  0  0  0
  -16.7146   18.0403    0.0000 C   0  0  0  0  0  0  0  0  0  0  0  0
  -17.7833   16.9877    0.0000 C   0  0  0  0  0  0  0  0  0  0  0  0
  -18.7858   15.8720    0.0000 C   0  0  0  0  0  0  0  0  0  0  0  0
  -19.7185   14.6972    0.0000 C   0  0  0  0  0  0  0  0  0  0  0  0
  -20.5778   13.4678    0.0000 C   0  0  0  0  0  0  0  0  0  0  0  0
  -21.3606   12.1882    0.0000 C   0  0  0  0  0  0  0  0  0  0  0  0
  -22.0639   10.8633    0.0000 C   0  0  0  0  0  0  0  0  0  0  0  0
  -22.6852    9.4980    0.0000 C   0  0  0  0  0  0  0  0  0  0  0  0
  -23.2220    8.0973    0.0000 C   0  0  0  0  0  0  0  0  0  0  0  0
  -23.6724    6.6666    0.0000 C   0  0  0  0  0  0  0  0  0  0  0  0
  -24.0348    5.2110    0.0000 C   0  0  0  0  0  0  0  0  0  0  0  0
  -24.3078    3.7361    0.0000 C   0  0  0  0  0  0  0  0  0  0  0  0
  -24.4904    2.2472    0.0000 C   0  0  0  0  0  0  0  0  0  0  0  0
  -24.5818    0.7500    0.0000 C   0  0  0  0  0  0  0  0  0  0  0  0
  -24.5818   -0.7500    0.0000 C   0  0  0  0  0  0  0  0  0  0  0  0
  -24.4904   -2.2472    0.0000 C   0  0  0  0  0  0  0  0  0  0  0  0
  -24.3078   -3.7361    0.0000 C   0  0  0  0  0  0  0  0  0  0  0  0
  -24.0348   -5.2110    0.0000 C   0  0  0  0  0  0  0  0  0  0  0  0
  -23.6724   -6.6666    0.0000 C   0  0  0  0  0  0  0  0  0  0  0  0
  -23.2220   -8.0973    0.0000 C   0  0  0  0  0  0  0  0  0  0  0  0
  -22.6852   -9.4980    0.0000 C   0  0  0  0  0  0  0  0  0  0  0  0
  -22.0639  -10.8633    0.0000 C   0  0  0  0  0  0  0  0  0  0  0  0
  -21.3606  -12.1882    0.0000 C   0  0  0  0  0  0  0  0  0  0  0  0
  -20.5778  -13.4678    0.0000 C   0  0  0  0  0  0  0  0  0  0  0  0
  -19.7185  -14.6972    0.0000 C   0  0  0  0  0  0  0  0  0  0  0  0
  -18.7858  -15.8720    0.0000 C   0  0  0  0  0  0  0  0  0  0  0  0
  -17.7833  -16.9877    0.0000 C   0  0  0  0  0  0  0  0  0  0  0  0
  -16.7146  -18.0403    0.0000 C   0  0  0  0  0  0  0  0  0  0  0  0
  -15.5837  -19.0257    0.0000 C   0  0  0  0  0  0  0  0  0  0  0  0
  -14.3948  -19.9404    0.0000 C   0  0  0  0  0  0  0  0  0  0  0  0
  -13.1524  -20.7808    0.0000 C   0  0  0  0  0  0  0  0  0  0  0  0
  -11.8610  -21.5440    0.0000 C   0  0  0  0  0  0  0  0  0  0  0  0
  -10.5256  -22.2270    0.0000 C   0  0  0  0  0  0  0  0  0  0  0  0
   -9.1509  -22.8274    0.0000 C   0  0  0  0  0  0  0  0  0  0  0  0
   -7.7423  -23.3428    0.0000 C   0  0  0  0  0  0  0  0  0  0  0  0
   -6.3048  -23.7714    0.0000 C   0  0  0  0  0  0  0  0  0  0  0  0
   -4.8439  -24.1115    0.0000 C   0  0  0  0  0  0  0  0  0  0  0  0
   -3.3649  -24.3620    0.0000 C   0  0  0  0  0  0  0  0  0  0  0  0
   -1.8735  -24.5218    0.0000 C   0  0  0  0  0  0  0  0  0  0  0  0
   -0.3750  -24.5904    0.0000 C   0  0  0  0  0  0  0  0  0  0  0  0
    1.1248  -24.5675    0.0000 C   0  0  0  0  0  0  0  0  0  0  0  0
    2.6204  -24.4532    0.0000 C   0  0  0  0  0  0  0  0  0  0  0  0
    4.1063  -24.2480    0.0000 C   0  0  0  0  0  0  0  0  0  0  0  0
    5.5769  -23.9526    0.0000 C   0  0  0  0  0  0  0  0  0  0  0  0
    7.0268  -23.5680    0.0000 C   0  0  0  0  0  0  0  0  0  0  0  0
    8.4505  -23.0958    0.0000 C   0  0  0  0  0  0  0  0  0  0  0  0
    9.8428  -22.5377    0.0000 C   0  0  0  0  0  0  0  0  0  0  0  0
   11.1985  -21.8957    0.0000 C   0  0  0  0  0  0  0  0  0  0  0  0
   12.5125  -21.1723    0.0000 C   0  0  0  0  0  0  0  0  0  0  0  0
   13.7800  -20.3701    0.0000 C   0  0  0  0  0  0  0  0  0  0  0  0
   14.9962  -19.4921    0.0000 C   0  0  0  0  0  0  0  0  0  0  0  0
   16.1566  -18.5416    0.0000 C   0  0  0  0  0  0  0  0  0  0  0  0
   17.2569  -17.5222    0.0000 C   0  0  0  0  0  0  0  0  0  0  0  0
   18.2931  -16.4375    0.0000 C   0  0  0  0  0  0  0  0  0  0  0  0
   19.2611  -15.2917    0.0000 C   0  0  0  0  0  0  0  0  0  0  0  0
   20.1576  -14.0890    0.0000 C   0  0  0  0  0  0  0  0  0  0  0  0
   20.9790  -12.8339    0.0000 C   0  0  0  0  0  0  0  0  0  0  0  0
   21.7224  -11.5311    0.0000 C   0  0  0  0  0  0  0  0  0  0  0  0
   22.3850  -10.1854    0.0000 C   0  0  0  0  0  0  0  0  0  0  0  0
   22.9643   -8.8018    0.0000 C   0  0  0  0  0  0  0  0  0  0  0  0
   23.4581   -7.3854    0.0000 C   0  0  0  0  0  0  0  0  0  0  0  0
   23.8647   -5.9416    0.0000 C   0  0  0  0  0  0  0  0  0  0  0  0
   24.1826   -4.4756    0.0000 C   0  0  0  0  0  0  0  0  0  0  0  0
   24.4104   -2.9930    0.0000 C   0  0  0  0  0  0  0  0  0  0  0  0
   24.5475   -1.4993    0.0000 C   0  0  0  0  0  0  0  0  0  0  0  0
  1  2  2  0
  2  3  1  0
  3  4  1  0
  4  5  1  0
  5  6  1  0
  6  7  1  0
  7  8  1  0
  8  9  1  0
  9 10  1  0
 10 11  1  0
 11 12  1  0
 12 13  1  0
 13 14  1  0
 14 15  1  0
 15 16  1  0
 16 17  1  0
 17 18  1  0
 18 19  1  0
 19 20  1  0
 20 21  1  0
 21 22  1  0
 22 23  1  0
 23 24  1  0
 24 25  1  0
 25 26  1  0
 26 27  1  0
 27 28  1  0
 28 29  1  0
 29 30  1  0
 30 31  1  0
 31 32  1  0
 32 33  1  0
 33 34  1  0
 34 35  1  0
 35 36  1  0
 36 37  1  0
 37 38  1  0
 38 39  1  0
 39 40  1  0
 40 41  1  0
 41 42  1  0
 42 43  1  0
 43 44  1  0
 44 45  1  0
 45 46  1  0
 46 47  1  0
 47 48  1  0
 48 49  1  0
 49 50  1  0
 50 51  1  0
 51 52  1  0
 52 53  1  0
 53 54  1  0
 54 55  1  0
 55 56  1  0
 56 57  1  0
 57 58  1  0
 58 59  1  0
 59 60  1  0
 60 61  1  0
 61 62  1  0
 62 63  1  0
 63 64  1  0
 64 65  1  0
 65 66  1  0
 66 67  1  0
 67 68  1  0
 68 69  1  0
 69 70  1  0
 70 71  1  0
 71 72  1  0
 72 73  1  0
 73 74  1  0
 74 75  1  0
 75 76  1  0
 76 77  1  0
 77 78  1  0
 78 79  1  0
 79 80  1  0
 80 81  1  0
 81 82  1  0
 82 83  1  0
 83 84  1  0
 84 85  1  0
 85 86  1  0
 86 87  1  0
 87 88  1  0
 88 89  1  0
 89 90  1  0
 90 91  1  0
 91 92  1  0
 92 93  1  0
 93 94  1  0
 94 95  1  0
 95 96  1  0
 96 97  1  0
 97 98  1  0
 98 99  1  0
 99100  1  0
100101  1  0
101102  1  0
102103  1  0
103  1  1  0
M  END
>  <Title>  (1132) 
idABPPgen10

$$$$

     RDKit          2D

 13 13  0  0  0  0  0  0  0  0999 V2000
   13.0607    0.0000    0.0000 C   0  0  0  0  0  0  0  0  0  0  0  0
   11.5607    0.0000    0.0000 C   0  0  0  0  0  0  0  0  0  0  0  0
   10.0607    0.0000    0.0000 C   0  0  0  0  0  0  0  0  0  0  0  0
    8.5607    0.0000    0.0000 C   0  0  0  0  0  0  0  0  0  0  0  0
    7.0607    0.0000    0.0000 C   0  0  0  0  0  0  0  0  0  0  0  0
    5.5607    0.0000    0.0000 C   0  0  0  0  0  0  0  0  0  0  0  0
    4.0607    0.0000    0.0000 C   0  0  0  0  0  0  0  0  0  0  0  0
    2.5607    0.0000    0.0000 C   0  0  0  0  0  0  0  0  0  0  0  0
    1.0607    0.0000    0.0000 C   0  0  0  0  0  0  0  0  0  0  0  0
   -0.0000   -1.0607    0.0000 C   0  0  0  0  0  0  0  0  0  0  0  0
   -0.0000   -2.5607    0.0000 C   0  0  0  0  0  0  0  0  0  0  0  0
   -1.0607    0.0000    0.0000 C   0  0  0  0  0  0  0  0  0  0  0  0
    0.0000    1.0607    0.0000 C   0  0  0  0  0  0  0  0  0  0  0  0
  1  2  3  0
  2  3  1  0
  3  4  3  0
  4  5  1  0
  5  6  3  0
  6  7  1  0
  7  8  3  0
  8  9  1  0
  9 10  2  0
 10 11  1  0
 10 12  1  0
 12 13  2  0
 13  9  1  0
M  END
>  <Title>  (1133) 
idABPQgen10

$$$$

     RDKit          2D

 11 11  0  0  0  0  0  0  0  0999 V2000
    4.5000   -2.5981    0.0000 C   0  0  0  0  0  0  0  0  0  0  0  0
    3.7500   -1.2990    0.0000 C   0  0  0  0  0  0  0  0  0  0  0  0
    3.0000    0.0000    0.0000 C   0  0  0  0  0  0  0  0  0  0  0  0
    3.7500    1.2990    0.0000 O   0  0  0  0  0  0  0  0  0  0  0  0
    1.5000    0.0000    0.0000 C   0  0  0  0  0  0  0  0  0  0  0  0
    0.7500   -1.2990    0.0000 C   0  0  0  0  0  0  0  0  0  0  0  0
   -0.7500   -1.2990    0.0000 C   0  0  0  0  0  0  0  0  0  0  0  0
   -1.5000    0.0000    0.0000 C   0  0  0  0  0  0  0  0  0  0  0  0
   -0.7500    1.2990    0.0000 C   0  0  0  0  0  0  0  0  0  0  0  0
    0.7500    1.2990    0.0000 C   0  0  0  0  0  0  0  0  0  0  0  0
    1.5000    2.5981    0.0000 O   0  0  0  0  0  0  0  0  0  0  0  0
  1  2  3  0
  2  3  1  0
  3  4  2  0
  3  5  1  0
  5  6  2  0
  6  7  1  0
  7  8  2  0
  8  9  1  0
  9 10  2  0
 10 11  1  0
 10  5  1  0
M  END
>  <Title>  (1134) 
idABPRgen10

$$$$

     RDKit          2D

 12 12  0  0  0  0  0  0  0  0999 V2000
    7.5000    0.0000    0.0000 C   0  0  0  0  0  0  0  0  0  0  0  0
    6.0000    0.0000    0.0000 C   0  0  0  0  0  0  0  0  0  0  0  0
    4.5000    0.0000    0.0000 C   0  0  0  0  0  0  0  0  0  0  0  0
    3.0000    0.0000    0.0000 C   0  0  0  0  0  0  0  0  0  0  0  0
    1.5000    0.0000    0.0000 C   0  0  0  0  0  0  0  0  0  0  0  0
    0.7500   -1.2990    0.0000 C   0  0  0  0  0  0  0  0  0  0  0  0
   -0.7500   -1.2990    0.0000 C   0  0  0  0  0  0  0  0  0  0  0  0
   -1.5000    0.0000    0.0000 C   0  0  0  0  0  0  0  0  0  0  0  0
   -3.0000    0.0000    0.0000 C   0  0  0  0  0  0  0  0  0  0  0  0
   -0.7500    1.2990    0.0000 C   0  0  0  0  0  0  0  0  0  0  0  0
   -1.5000    2.5981    0.0000 O   0  0  0  0  0  0  0  0  0  0  0  0
    0.7500    1.2990    0.0000 C   0  0  0  0  0  0  0  0  0  0  0  0
  1  2  3  0
  2  3  1  0
  3  4  3  0
  4  5  1  0
  5  6  2  0
  6  7  1  0
  7  8  2  0
  8  9  1  0
  8 10  1  0
 10 11  1  0
 10 12  1  0
 12  5  1  0
M  END
>  <Title>  (1135) 
idABPSgen10

$$$$

     RDKit          2D

103104  0  0  0  0  0  0  0  0999 V2000
   -2.2964    0.6899    0.0000 C   0  0  0  0  0  0  0  0  0  0  0  0
   -1.8224    2.1130    0.0000 C   0  0  0  0  0  0  0  0  0  0  0  0
   -3.2294    2.6329    0.0000 C   0  0  0  0  0  0  0  0  0  0  0  0
   -4.5998    3.2428    0.0000 C   0  0  0  0  0  0  0  0  0  0  0  0
   -5.9279    3.9401    0.0000 C   0  0  0  0  0  0  0  0  0  0  0  0
   -7.2080    4.7219    0.0000 C   0  0  0  0  0  0  0  0  0  0  0  0
   -8.4348    5.5850    0.0000 C   0  0  0  0  0  0  0  0  0  0  0  0
   -9.6032    6.5256    0.0000 C   0  0  0  0  0  0  0  0  0  0  0  0
  -10.7083    7.5399    0.0000 C   0  0  0  0  0  0  0  0  0  0  0  0
  -11.7454    8.6236    0.0000 C   0  0  0  0  0  0  0  0  0  0  0  0
  -12.7102    9.7722    0.0000 C   0  0  0  0  0  0  0  0  0  0  0  0
  -13.5986   10.9808    0.0000 C   0  0  0  0  0  0  0  0  0  0  0  0
  -14.4069   12.2444    0.0000 C   0  0  0  0  0  0  0  0  0  0  0  0
  -15.1317   13.5577    0.0000 C   0  0  0  0  0  0  0  0  0  0  0  0
  -15.7700   14.9151    0.0000 C   0  0  0  0  0  0  0  0  0  0  0  0
  -16.3191   16.3110    0.0000 C   0  0  0  0  0  0  0  0  0  0  0  0
  -16.7767   17.7395    0.0000 C   0  0  0  0  0  0  0  0  0  0  0  0
  -17.1408   19.1946    0.0000 C   0  0  0  0  0  0  0  0  0  0  0  0
  -17.4100   20.6702    0.0000 C   0  0  0  0  0  0  0  0  0  0  0  0
  -17.5831   22.1602    0.0000 C   0  0  0  0  0  0  0  0  0  0  0  0
  -17.6594   23.6583    0.0000 C   0  0  0  0  0  0  0  0  0  0  0  0
  -17.6386   25.1581    0.0000 C   0  0  0  0  0  0  0  0  0  0  0  0
  -17.5208   26.6535    0.0000 C   0  0  0  0  0  0  0  0  0  0  0  0
  -17.3064   28.1381    0.0000 C   0  0  0  0  0  0  0  0  0  0  0  0
  -16.9963   29.6057    0.0000 C   0  0  0  0  0  0  0  0  0  0  0  0
  -16.5919   31.0502    0.0000 C   0  0  0  0  0  0  0  0  0  0  0  0
  -16.0948   32.4654    0.0000 C   0  0  0  0  0  0  0  0  0  0  0  0
  -15.5072   33.8455    0.0000 C   0  0  0  0  0  0  0  0  0  0  0  0
  -14.8315   35.1847    0.0000 C   0  0  0  0  0  0  0  0  0  0  0  0
  -14.0705   36.4773    0.0000 C   0  0  0  0  0  0  0  0  0  0  0  0
  -13.2274   37.7180    0.0000 C   0  0  0  0  0  0  0  0  0  0  0  0
  -12.3058   38.9015    0.0000 C   0  0  0  0  0  0  0  0  0  0  0  0
  -11.3095   40.0228    0.0000 C   0  0  0  0  0  0  0  0  0  0  0  0
  -10.2428   41.0773    0.0000 C   0  0  0  0  0  0  0  0  0  0  0  0
   -9.1100   42.0606    0.0000 C   0  0  0  0  0  0  0  0  0  0  0  0
   -7.9159   42.9684    0.0000 C   0  0  0  0  0  0  0  0  0  0  0  0
   -6.6656   43.7971    0.0000 C   0  0  0  0  0  0  0  0  0  0  0  0
   -5.3642   44.5431    0.0000 C   0  0  0  0  0  0  0  0  0  0  0  0
   -4.0173   45.2033    0.0000 C   0  0  0  0  0  0  0  0  0  0  0  0
   -2.6305   45.7749    0.0000 C   0  0  0  0  0  0  0  0  0  0  0  0
   -1.2096   46.2555    0.0000 C   0  0  0  0  0  0  0  0  0  0  0  0
    0.2394   46.6432    0.0000 C   0  0  0  0  0  0  0  0  0  0  0  0
    1.7105   46.9363    0.0000 C   0  0  0  0  0  0  0  0  0  0  0  0
    3.1975   47.1335    0.0000 C   0  0  0  0  0  0  0  0  0  0  0  0
    4.6941   47.2340    0.0000 C   0  0  0  0  0  0  0  0  0  0  0  0
    6.1941   47.2375    0.0000 C   0  0  0  0  0  0  0  0  0  0  0  0
    7.6912   47.1439    0.0000 C   0  0  0  0  0  0  0  0  0  0  0  0
    9.1791   46.9535    0.0000 C   0  0  0  0  0  0  0  0  0  0  0  0
   10.6515   46.6673    0.0000 C   0  0  0  0  0  0  0  0  0  0  0  0
   12.1023   46.2863    0.0000 C   0  0  0  0  0  0  0  0  0  0  0  0
   13.5254   45.8123    0.0000 C   0  0  0  0  0  0  0  0  0  0  0  0
   14.9149   45.2471    0.0000 C   0  0  0  0  0  0  0  0  0  0  0  0
   16.2648   44.5931    0.0000 C   0  0  0  0  0  0  0  0  0  0  0  0
   17.5696   43.8532    0.0000 C   0  0  0  0  0  0  0  0  0  0  0  0
   18.8238   43.0303    0.0000 C   0  0  0  0  0  0  0  0  0  0  0  0
   20.0220   42.1280    0.0000 C   0  0  0  0  0  0  0  0  0  0  0  0
   21.1593   41.1500    0.0000 C   0  0  0  0  0  0  0  0  0  0  0  0
   22.2310   40.1004    0.0000 C   0  0  0  0  0  0  0  0  0  0  0  0
   23.2324   38.9837    0.0000 C   0  0  0  0  0  0  0  0  0  0  0  0
   24.1595   37.8045    0.0000 C   0  0  0  0  0  0  0  0  0  0  0  0
   25.0083   36.5677    0.0000 C   0  0  0  0  0  0  0  0  0  0  0  0
   25.7753   35.2786    0.0000 C   0  0  0  0  0  0  0  0  0  0  0  0
   26.4572   33.9426    0.0000 C   0  0  0  0  0  0  0  0  0  0  0  0
   27.0512   32.5652    0.0000 C   0  0  0  0  0  0  0  0  0  0  0  0
   27.5548   31.1523    0.0000 C   0  0  0  0  0  0  0  0  0  0  0  0
   27.9659   29.7097    0.0000 C   0  0  0  0  0  0  0  0  0  0  0  0
   28.2827   28.2436    0.0000 C   0  0  0  0  0  0  0  0  0  0  0  0
   28.5040   26.7600    0.0000 C   0  0  0  0  0  0  0  0  0  0  0  0
   28.6288   25.2652    0.0000 C   0  0  0  0  0  0  0  0  0  0  0  0
   28.6565   23.7654    0.0000 C   0  0  0  0  0  0  0  0  0  0  0  0
   28.5872   22.2670    0.0000 C   0  0  0  0  0  0  0  0  0  0  0  0
   28.4209   20.7763    0.0000 C   0  0  0  0  0  0  0  0  0  0  0  0
   28.1586   19.2994    0.0000 C   0  0  0  0  0  0  0  0  0  0  0  0
   27.8012   17.8426    0.0000 C   0  0  0  0  0  0  0  0  0  0  0  0
   27.3502   16.4120    0.0000 C   0  0  0  0  0  0  0  0  0  0  0  0
   26.8076   15.0136    0.0000 C   0  0  0  0  0  0  0  0  0  0  0  0
   26.1756   13.6532    0.0000 C   0  0  0  0  0  0  0  0  0  0  0  0
   25.4568   12.3366    0.0000 C   0  0  0  0  0  0  0  0  0  0  0  0
   24.6544   11.0693    0.0000 C   0  0  0  0  0  0  0  0  0  0  0  0
   23.7716    9.8566    0.0000 C   0  0  0  0  0  0  0  0  0  0  0  0
   22.8121    8.7036    0.0000 C   0  0  0  0  0  0  0  0  0  0  0  0
   21.7801    7.6151    0.0000 C   0  0  0  0  0  0  0  0  0  0  0  0
   20.6797    6.5957    0.0000 C   0  0  0  0  0  0  0  0  0  0  0  0
   19.5156    5.6496    0.0000 C   0  0  0  0  0  0  0  0  0  0  0  0
   18.2928    4.7809    0.0000 C   0  0  0  0  0  0  0  0  0  0  0  0
   17.0163    3.9932    0.0000 C   0  0  0  0  0  0  0  0  0  0  0  0
   15.6915    3.2897    0.0000 C   0  0  0  0  0  0  0  0  0  0  0  0
   14.3239    2.6735    0.0000 C   0  0  0  0  0  0  0  0  0  0  0  0
   12.9193    2.1471    0.0000 C   0  0  0  0  0  0  0  0  0  0  0  0
   11.4836    1.7127    0.0000 C   0  0  0  0  0  0  0  0  0  0  0  0
   10.0228    1.3721    0.0000 C   0  0  0  0  0  0  0  0  0  0  0  0
    8.5429    1.1269    0.0000 C   0  0  0  0  0  0  0  0  0  0  0  0
    7.0504    0.9779    0.0000 C   0  0  0  0  0  0  0  0  0  0  0  0
    5.5513    0.9259    0.0000 C   0  0  0  0  0  0  0  0  0  0  0  0
    4.0519    0.9710    0.0000 C   0  0  0  0  0  0  0  0  0  0  0  0
    2.5587    1.1130    0.0000 C   0  0  0  0  0  0  0  0  0  0  0  0
    1.0777    1.3515    0.0000 C   0  0  0  0  0  0  0  0  0  0  0  0
    1.7286    0.0000    0.0000 C   0  0  0  0  0  0  0  0  0  0  0  0
    1.0777   -1.3515    0.0000 C   0  0  0  0  0  0  0  0  0  0  0  0
   -0.3846   -1.6852    0.0000 C   0  0  0  0  0  0  0  0  0  0  0  0
   -1.5574   -0.7500    0.0000 C   0  0  0  0  0  0  0  0  0  0  0  0
   -1.5574    0.7500    0.0000 C   0  0  0  0  0  0  0  0  0  0  0  0
   -0.3846    1.6852    0.0000 C   0  0  0  0  0  0  0  0  0  0  0  0
  1  2  1  0
  2  3  1  0
  3  4  2  0
  4  5  1  0
  5  6  1  0
  6  7  1  0
  7  8  1  0
  8  9  1  0
  9 10  1  0
 10 11  1  0
 11 12  1  0
 12 13  1  0
 13 14  1  0
 14 15  1  0
 15 16  1  0
 16 17  1  0
 17 18  1  0
 18 19  1  0
 19 20  1  0
 20 21  1  0
 21 22  1  0
 22 23  1  0
 23 24  1  0
 24 25  1  0
 25 26  1  0
 26 27  1  0
 27 28  1  0
 28 29  1  0
 29 30  1  0
 30 31  1  0
 31 32  1  0
 32 33  1  0
 33 34  1  0
 34 35  1  0
 35 36  1  0
 36 37  1  0
 37 38  1  0
 38 39  1  0
 39 40  1  0
 40 41  1  0
 41 42  1  0
 42 43  1  0
 43 44  1  0
 44 45  1  0
 45 46  1  0
 46 47  1  0
 47 48  1  0
 48 49  1  0
 49 50  1  0
 50 51  1  0
 51 52  1  0
 52 53  1  0
 53 54  1  0
 54 55  1  0
 55 56  1  0
 56 57  1  0
 57 58  1  0
 58 59  1  0
 59 60  1  0
 60 61  1  0
 61 62  1  0
 62 63  1  0
 63 64  1  0
 64 65  1  0
 65 66  1  0
 66 67  1  0
 67 68  1  0
 68 69  1  0
 69 70  1  0
 70 71  1  0
 71 72  1  0
 72 73  1  0
 73 74  1  0
 74 75  1  0
 75 76  1  0
 76 77  1  0
 77 78  1  0
 78 79  1  0
 79 80  1  0
 80 81  1  0
 81 82  1  0
 82 83  1  0
 83 84  1  0
 84 85  1  0
 85 86  1  0
 86 87  1  0
 87 88  1  0
 88 89  1  0
 89 90  1  0
 90 91  2  0
 91 92  1  0
 92 93  2  0
 93 94  1  0
 94 95  2  0
 95 96  1  0
 96 97  2  0
 97 98  1  0
 98 99  2  0
 99100  1  0
100101  2  0
101102  1  0
102103  2  0
103  2  1  0
103 97  1  0
M  END
>  <Title>  (1136) 
idABPTgen10

$$$$

     RDKit          2D

 13 13  0  0  0  0  0  0  0  0999 V2000
   13.2760   -0.0000    0.0000 C   0  0  0  0  0  0  0  0  0  0  0  0
   11.7760   -0.0000    0.0000 C   0  0  0  0  0  0  0  0  0  0  0  0
   10.2760   -0.0000    0.0000 C   0  0  0  0  0  0  0  0  0  0  0  0
    8.7760   -0.0000    0.0000 C   0  0  0  0  0  0  0  0  0  0  0  0
    7.2760   -0.0000    0.0000 C   0  0  0  0  0  0  0  0  0  0  0  0
    5.7760   -0.0000    0.0000 C   0  0  0  0  0  0  0  0  0  0  0  0
    4.2760   -0.0000    0.0000 C   0  0  0  0  0  0  0  0  0  0  0  0
    2.7760    0.0000    0.0000 C   0  0  0  0  0  0  0  0  0  0  0  0
    1.2760    0.0000    0.0000 C   0  0  0  0  0  0  0  0  0  0  0  0
    0.3943    1.2135    0.0000 C   0  0  0  0  0  0  0  0  0  0  0  0
   -1.0323    0.7500    0.0000 C   0  0  0  0  0  0  0  0  0  0  0  0
   -1.0323   -0.7500    0.0000 C   0  0  0  0  0  0  0  0  0  0  0  0
    0.3943   -1.2135    0.0000 C   0  0  0  0  0  0  0  0  0  0  0  0
  1  2  3  0
  2  3  1  0
  3  4  3  0
  4  5  1  0
  5  6  3  0
  6  7  1  0
  7  8  3  0
  8  9  1  0
  9 10  2  0
 10 11  1  0
 11 12  1  0
 12 13  2  0
 13  9  1  0
M  END
>  <Title>  (1137) 
idABPUgen10

$$$$

     RDKit          2D

 11 12  0  0  0  0  0  0  0  0999 V2000
   -3.0000   -2.5981    0.0000 O   0  0  0  0  0  0  0  0  0  0  0  0
   -1.5000   -2.5981    0.0000 C   0  0  0  0  0  0  0  0  0  0  0  0
   -0.7500   -3.8971    0.0000 C   0  0  0  0  0  0  0  0  0  0  0  0
    0.7500   -3.8971    0.0000 C   0  0  0  0  0  0  0  0  0  0  0  0
    1.5000   -2.5981    0.0000 C   0  0  0  0  0  0  0  0  0  0  0  0
    0.7500   -1.2990    0.0000 C   0  0  0  0  0  0  0  0  0  0  0  0
    1.5000    0.0000    0.0000 C   0  0  0  0  0  0  0  0  0  0  0  0
    0.7500    1.2990    0.0000 C   0  0  0  0  0  0  0  0  0  0  0  0
   -0.7500    1.2990    0.0000 C   0  0  0  0  0  0  0  0  0  0  0  0
   -1.5000    0.0000    0.0000 C   0  0  0  0  0  0  0  0  0  0  0  0
   -0.7500   -1.2990    0.0000 C   0  0  0  0  0  0  0  0  0  0  0  0
  1  2  1  0
  2  3  1  0
  3  4  1  0
  4  5  1  0
  5  6  1  0
  6  7  2  0
  7  8  1  0
  8  9  2  0
  9 10  1  0
 10 11  2  0
 11  2  1  0
 11  6  1  0
M  END
>  <Title>  (1138) 
idABPVgen10

$$$$

     RDKit          2D

  9  9  0  0  0  0  0  0  0  0999 V2000
    4.2760   -0.0000    0.0000 C   0  0  0  0  0  0  0  0  0  0  0  0
    2.7760    0.0000    0.0000 C   0  0  0  0  0  0  0  0  0  0  0  0
    1.2760    0.0000    0.0000 C   0  0  0  0  0  0  0  0  0  0  0  0
    0.3943    1.2135    0.0000 C   0  0  0  0  0  0  0  0  0  0  0  0
   -1.0323    0.7500    0.0000 C   0  0  0  0  0  0  0  0  0  0  0  0
   -2.2458    1.6317    0.0000 C   0  0  0  0  0  0  0  0  0  0  0  0
   -1.0323   -0.7500    0.0000 C   0  0  0  0  0  0  0  0  0  0  0  0
   -2.2458   -1.6317    0.0000 C   0  0  0  0  0  0  0  0  0  0  0  0
    0.3943   -1.2135    0.0000 C   0  0  0  0  0  0  0  0  0  0  0  0
  1  2  3  0
  2  3  1  0
  3  4  2  0
  4  5  1  0
  5  6  1  0
  5  7  1  0
  7  8  1  0
  7  9  1  0
  9  3  1  0
M  END
>  <Title>  (1139) 
idABPWgen10

$$$$

     RDKit          2D

 10 10  0  0  0  0  0  0  0  0999 V2000
    7.5000    0.0000    0.0000 C   0  0  0  0  0  0  0  0  0  0  0  0
    6.0000    0.0000    0.0000 C   0  0  0  0  0  0  0  0  0  0  0  0
    4.5000    0.0000    0.0000 C   0  0  0  0  0  0  0  0  0  0  0  0
    3.0000    0.0000    0.0000 C   0  0  0  0  0  0  0  0  0  0  0  0
    1.5000    0.0000    0.0000 C   0  0  0  0  0  0  0  0  0  0  0  0
    0.7500   -1.2990    0.0000 C   0  0  0  0  0  0  0  0  0  0  0  0
   -0.7500   -1.2990    0.0000 C   0  0  0  0  0  0  0  0  0  0  0  0
   -1.5000    0.0000    0.0000 C   0  0  0  0  0  0  0  0  0  0  0  0
   -0.7500    1.2990    0.0000 C   0  0  0  0  0  0  0  0  0  0  0  0
    0.7500    1.2990    0.0000 C   0  0  0  0  0  0  0  0  0  0  0  0
  1  2  3  0
  2  3  1  0
  3  4  3  0
  4  5  1  0
  5  6  2  0
  6  7  1  0
  7  8  2  0
  8  9  1  0
  9 10  2  0
 10  5  1  0
M  END
>  <Title>  (1140) 
idABPXgen10

$$$$
