
     RDKit          2D

 17 18  0  0  0  0  0  0  0  0999 V2000
    4.5000    0.0000    0.0000 N   0  0  0  0  0  0  0  0  0  0  0  0
    3.0000    0.0000    0.0000 C   0  0  0  0  0  0  0  0  0  0  0  0
    1.5000    0.0000    0.0000 C   0  0  0  0  0  0  0  0  0  0  0  0
    0.7500   -1.2990    0.0000 C   0  0  0  0  0  0  0  0  0  0  0  0
   -0.7500   -1.2990    0.0000 C   0  0  0  0  0  0  0  0  0  0  0  0
   -1.5000    0.0000    0.0000 C   0  0  0  0  0  0  0  0  0  0  0  0
   -0.7500    1.2990    0.0000 C   0  0  0  0  0  0  0  0  0  0  0  0
    0.7500    1.2990    0.0000 C   0  0  0  0  0  0  0  0  0  0  0  0
    1.5000    2.5981    0.0000 C   0  0  0  0  0  0  0  0  0  0  0  0
    0.8899    3.9684    0.0000 C   0  0  0  0  0  0  0  0  0  0  0  0
    2.0046    4.9721    0.0000 C   0  0  0  0  0  0  0  0  0  0  0  0
    3.3037    4.2221    0.0000 C   0  0  0  0  0  0  0  0  0  0  0  0
    4.6740    4.8322    0.0000 C   0  0  0  0  0  0  0  0  0  0  0  0
    4.8308    6.3240    0.0000 O   0  0  0  0  0  0  0  0  0  0  0  0
    5.8875    3.9505    0.0000 O   0  0  0  0  0  0  0  0  0  0  0  0
    2.9918    2.7549    0.0000 C   0  0  0  0  0  0  0  0  0  0  0  0
    3.9955    1.6402    0.0000 O   0  0  0  0  0  0  0  0  0  0  0  0
  1  2  3  0
  2  3  1  0
  3  4  1  0
  4  5  2  0
  5  6  1  0
  6  7  1  0
  7  8  2  0
  8  9  1  0
  9 10  2  0
 10 11  1  0
 11 12  2  0
 12 13  1  0
 13 14  2  0
 13 15  1  0
 12 16  1  0
 16 17  2  0
  8  3  1  0
 16  9  1  0
M  END
>  <Title>  (1) 
idAAAAgen6

$$$$

     RDKit          2D

 17 17  0  0  0  0  0  0  0  0999 V2000
    8.0260   -3.8971    0.0000 C   0  0  0  0  0  0  0  0  0  0  0  0
    7.2760   -2.5981    0.0000 C   0  0  0  0  0  0  0  0  0  0  0  0
    8.0260   -1.2990    0.0000 O   0  0  0  0  0  0  0  0  0  0  0  0
    5.7760   -2.5981    0.0000 O   0  0  0  0  0  0  0  0  0  0  0  0
    5.0260   -1.2990    0.0000 C   0  0  0  0  0  0  0  0  0  0  0  0
    5.7760    0.0000    0.0000 O   0  0  0  0  0  0  0  0  0  0  0  0
    3.5260   -1.2990    0.0000 C   0  0  0  0  0  0  0  0  0  0  0  0
    2.7760    0.0000    0.0000 C   0  0  0  0  0  0  0  0  0  0  0  0
    1.2760    0.0000    0.0000 C   0  0  0  0  0  0  0  0  0  0  0  0
    0.3943    1.2135    0.0000 C   0  0  0  0  0  0  0  0  0  0  0  0
   -1.0323    0.7500    0.0000 C   0  0  0  0  0  0  0  0  0  0  0  0
   -1.0323   -0.7500    0.0000 C   0  0  0  0  0  0  0  0  0  0  0  0
    0.3943   -1.2135    0.0000 C   0  0  0  0  0  0  0  0  0  0  0  0
    2.7760   -2.5981    0.0000 N   0  0  0  0  0  0  0  0  0  0  0  0
    3.5260   -3.8971    0.0000 C   0  0  0  0  0  0  0  0  0  0  0  0
    2.7760   -5.1962    0.0000 O   0  0  0  0  0  0  0  0  0  0  0  0
    5.0260   -3.8971    0.0000 F   0  0  0  0  0  0  0  0  0  0  0  0
  1  2  1  0
  2  3  2  0
  2  4  1  0
  4  5  1  0
  5  6  2  0
  5  7  1  0
  7  8  1  0
  8  9  1  0
  9 10  2  0
 10 11  1  0
 11 12  2  0
 12 13  1  0
  7 14  1  0
 14 15  1  0
 15 16  2  0
 15 17  1  0
 13  9  1  0
M  END
>  <Title>  (2) 
idAAABgen6

$$$$

     RDKit          2D

  8  8  0  0  0  0  0  0  0  0999 V2000
    4.5000    0.0000    0.0000 N   0  0  0  0  0  0  0  0  0  0  0  0
    3.0000    0.0000    0.0000 C   0  0  0  0  0  0  0  0  0  0  0  0
    1.5000    0.0000    0.0000 C   0  0  0  0  0  0  0  0  0  0  0  0
    0.7500   -1.2990    0.0000 C   0  0  0  0  0  0  0  0  0  0  0  0
   -0.7500   -1.2990    0.0000 C   0  0  0  0  0  0  0  0  0  0  0  0
   -1.5000    0.0000    0.0000 C   0  0  0  0  0  0  0  0  0  0  0  0
   -0.7500    1.2990    0.0000 C   0  0  0  0  0  0  0  0  0  0  0  0
    0.7500    1.2990    0.0000 C   0  0  0  0  0  0  0  0  0  0  0  0
  1  2  3  0
  2  3  1  0
  3  4  2  0
  4  5  1  0
  5  6  2  0
  6  7  1  0
  7  8  2  0
  8  3  1  0
M  END
>  <Title>  (3) 
idAAACgen6

$$$$

     RDKit          2D

 18 18  0  0  0  0  0  0  0  0999 V2000
    8.2500   -3.8971    0.0000 C   0  0  0  0  0  0  0  0  0  0  0  0
    7.5000   -2.5981    0.0000 C   0  0  0  0  0  0  0  0  0  0  0  0
    8.2500   -1.2990    0.0000 O   0  0  0  0  0  0  0  0  0  0  0  0
    6.0000   -2.5981    0.0000 O   0  0  0  0  0  0  0  0  0  0  0  0
    5.2500   -1.2990    0.0000 C   0  0  0  0  0  0  0  0  0  0  0  0
    6.0000    0.0000    0.0000 O   0  0  0  0  0  0  0  0  0  0  0  0
    3.7500   -1.2990    0.0000 C   0  0  0  0  0  0  0  0  0  0  0  0
    3.0000    0.0000    0.0000 C   0  0  0  0  0  0  0  0  0  0  0  0
    1.5000    0.0000    0.0000 C   0  0  0  0  0  0  0  0  0  0  0  0
    0.7500   -1.2990    0.0000 C   0  0  0  0  0  0  0  0  0  0  0  0
   -0.7500   -1.2990    0.0000 C   0  0  0  0  0  0  0  0  0  0  0  0
   -1.5000    0.0000    0.0000 C   0  0  0  0  0  0  0  0  0  0  0  0
   -0.7500    1.2990    0.0000 C   0  0  0  0  0  0  0  0  0  0  0  0
    0.7500    1.2990    0.0000 C   0  0  0  0  0  0  0  0  0  0  0  0
    3.0000   -2.5981    0.0000 N   0  0  0  0  0  0  0  0  0  0  0  0
    3.7500   -3.8971    0.0000 C   0  0  0  0  0  0  0  0  0  0  0  0
    3.0000   -5.1962    0.0000 O   0  0  0  0  0  0  0  0  0  0  0  0
    5.2500   -3.8971    0.0000 F   0  0  0  0  0  0  0  0  0  0  0  0
  1  2  1  0
  2  3  2  0
  2  4  1  0
  4  5  1  0
  5  6  2  0
  5  7  1  0
  7  8  1  0
  8  9  1  0
  9 10  2  0
 10 11  1  0
 11 12  2  0
 12 13  1  0
 13 14  2  0
  7 15  1  0
 15 16  1  0
 16 17  2  0
 16 18  1  0
 14  9  1  0
M  END
>  <Title>  (4) 
idAAADgen6

$$$$

     RDKit          2D

  8  8  0  0  0  0  0  0  0  0999 V2000
    4.5000    0.0000    0.0000 N   0  0  0  0  0  0  0  0  0  0  0  0
    3.0000    0.0000    0.0000 C   0  0  0  0  0  0  0  0  0  0  0  0
    1.5000    0.0000    0.0000 C   0  0  0  0  0  0  0  0  0  0  0  0
    0.7500   -1.2990    0.0000 C   0  0  0  0  0  0  0  0  0  0  0  0
   -0.7500   -1.2990    0.0000 C   0  0  0  0  0  0  0  0  0  0  0  0
   -1.5000    0.0000    0.0000 C   0  0  0  0  0  0  0  0  0  0  0  0
   -0.7500    1.2990    0.0000 C   0  0  0  0  0  0  0  0  0  0  0  0
    0.7500    1.2990    0.0000 C   0  0  0  0  0  0  0  0  0  0  0  0
  1  2  3  0
  2  3  1  0
  3  4  2  0
  4  5  1  0
  5  6  2  0
  6  7  1  0
  7  8  2  0
  8  3  1  0
M  END
>  <Title>  (5) 
idAAAEgen6

$$$$

     RDKit          2D

  9  9  0  0  0  0  0  0  0  0999 V2000
    5.0260   -1.2990    0.0000 C   0  0  0  0  0  0  0  0  0  0  0  0
    3.5260   -1.2990    0.0000 C   0  0  0  0  0  0  0  0  0  0  0  0
    2.7760   -2.5981    0.0000 O   0  0  0  0  0  0  0  0  0  0  0  0
    2.7760    0.0000    0.0000 O   0  0  0  0  0  0  0  0  0  0  0  0
    1.2760    0.0000    0.0000 C   0  0  0  0  0  0  0  0  0  0  0  0
    0.3943    1.2135    0.0000 C   0  0  0  0  0  0  0  0  0  0  0  0
   -1.0323    0.7500    0.0000 C   0  0  0  0  0  0  0  0  0  0  0  0
   -1.0323   -0.7500    0.0000 C   0  0  0  0  0  0  0  0  0  0  0  0
    0.3943   -1.2135    0.0000 C   0  0  0  0  0  0  0  0  0  0  0  0
  1  2  1  0
  2  3  2  0
  2  4  1  0
  4  5  1  0
  5  6  2  0
  6  7  1  0
  7  8  1  0
  8  9  2  0
  9  5  1  0
M  END
>  <Title>  (6) 
idAAAFgen6

$$$$

     RDKit          2D

  8  8  0  0  0  0  0  0  0  0999 V2000
    4.5000    0.0000    0.0000 N   0  0  0  0  0  0  0  0  0  0  0  0
    3.0000    0.0000    0.0000 C   0  0  0  0  0  0  0  0  0  0  0  0
    1.5000    0.0000    0.0000 C   0  0  0  0  0  0  0  0  0  0  0  0
    0.7500   -1.2990    0.0000 C   0  0  0  0  0  0  0  0  0  0  0  0
   -0.7500   -1.2990    0.0000 C   0  0  0  0  0  0  0  0  0  0  0  0
   -1.5000    0.0000    0.0000 C   0  0  0  0  0  0  0  0  0  0  0  0
   -0.7500    1.2990    0.0000 C   0  0  0  0  0  0  0  0  0  0  0  0
    0.7500    1.2990    0.0000 C   0  0  0  0  0  0  0  0  0  0  0  0
  1  2  3  0
  2  3  1  0
  3  4  2  0
  4  5  1  0
  5  6  2  0
  6  7  1  0
  7  8  2  0
  8  3  1  0
M  END
>  <Title>  (7) 
idAAAGgen6

$$$$

     RDKit          2D

  9  9  0  0  0  0  0  0  0  0999 V2000
    7.2760   -0.0000    0.0000 N   0  0  0  0  0  0  0  0  0  0  0  0
    5.7760   -0.0000    0.0000 C   0  0  0  0  0  0  0  0  0  0  0  0
    4.2760   -0.0000    0.0000 C   0  0  0  0  0  0  0  0  0  0  0  0
    2.7760    0.0000    0.0000 C   0  0  0  0  0  0  0  0  0  0  0  0
    1.2760    0.0000    0.0000 C   0  0  0  0  0  0  0  0  0  0  0  0
    0.3943    1.2135    0.0000 C   0  0  0  0  0  0  0  0  0  0  0  0
   -1.0323    0.7500    0.0000 C   0  0  0  0  0  0  0  0  0  0  0  0
   -1.0323   -0.7500    0.0000 C   0  0  0  0  0  0  0  0  0  0  0  0
    0.3943   -1.2135    0.0000 C   0  0  0  0  0  0  0  0  0  0  0  0
  1  2  3  0
  2  3  1  0
  3  4  3  0
  4  5  1  0
  5  6  2  0
  6  7  1  0
  7  8  2  0
  8  9  1  0
  9  5  1  0
M  END
>  <Title>  (8) 
idAAAHgen6

$$$$

     RDKit          2D

 10 10  0  0  0  0  0  0  0  0999 V2000
    7.5000    0.0000    0.0000 N   0  0  0  0  0  0  0  0  0  0  0  0
    6.0000    0.0000    0.0000 C   0  0  0  0  0  0  0  0  0  0  0  0
    4.5000    0.0000    0.0000 C   0  0  0  0  0  0  0  0  0  0  0  0
    3.0000    0.0000    0.0000 C   0  0  0  0  0  0  0  0  0  0  0  0
    1.5000    0.0000    0.0000 C   0  0  0  0  0  0  0  0  0  0  0  0
    0.7500   -1.2990    0.0000 C   0  0  0  0  0  0  0  0  0  0  0  0
   -0.7500   -1.2990    0.0000 C   0  0  0  0  0  0  0  0  0  0  0  0
   -1.5000    0.0000    0.0000 C   0  0  0  0  0  0  0  0  0  0  0  0
   -0.7500    1.2990    0.0000 C   0  0  0  0  0  0  0  0  0  0  0  0
    0.7500    1.2990    0.0000 C   0  0  0  0  0  0  0  0  0  0  0  0
  1  2  3  0
  2  3  1  0
  3  4  3  0
  4  5  1  0
  5  6  2  0
  6  7  1  0
  7  8  2  0
  8  9  1  0
  9 10  2  0
 10  5  1  0
M  END
>  <Title>  (9) 
idAAAIgen6

$$$$

     RDKit          2D

 11 11  0  0  0  0  0  0  0  0999 V2000
    3.5260   -1.2990    0.0000 C   0  0  0  0  0  0  0  0  0  0  0  0
    2.7760    0.0000    0.0000 O   0  0  0  0  0  0  0  0  0  0  0  0
    1.2760    0.0000    0.0000 C   0  0  0  0  0  0  0  0  0  0  0  0
    0.3943    1.2135    0.0000 C   0  0  0  0  0  0  0  0  0  0  0  0
    0.8578    2.6401    0.0000 C   0  0  0  0  0  0  0  0  0  0  0  0
    1.3213    4.0667    0.0000 C   0  0  0  0  0  0  0  0  0  0  0  0
    1.7849    5.4933    0.0000 C   0  0  0  0  0  0  0  0  0  0  0  0
    2.2484    6.9199    0.0000 N   0  0  0  0  0  0  0  0  0  0  0  0
   -1.0323    0.7500    0.0000 C   0  0  0  0  0  0  0  0  0  0  0  0
   -1.0323   -0.7500    0.0000 C   0  0  0  0  0  0  0  0  0  0  0  0
    0.3943   -1.2135    0.0000 C   0  0  0  0  0  0  0  0  0  0  0  0
  1  2  1  0
  2  3  1  0
  3  4  2  0
  4  5  1  0
  5  6  3  0
  6  7  1  0
  7  8  3  0
  4  9  1  0
  9 10  2  0
 10 11  1  0
 11  3  1  0
M  END
>  <Title>  (10) 
idAAAJgen6

$$$$

     RDKit          2D

 31 33  0  0  0  0  0  0  0  0999 V2000
   12.0000   -5.1962    0.0000 C   0  0  0  0  0  0  0  0  0  0  0  0
   10.5000   -5.1962    0.0000 C   0  0  0  0  0  0  0  0  0  0  0  0
    9.7500   -6.4952    0.0000 O   0  0  0  0  0  0  0  0  0  0  0  0
    9.7500   -3.8971    0.0000 O   0  0  0  0  0  0  0  0  0  0  0  0
    8.2500   -3.8971    0.0000 C   0  0  0  0  0  0  0  0  0  0  0  0
    7.5000   -5.1962    0.0000 O   0  0  0  0  0  0  0  0  0  0  0  0
    7.5000   -2.5981    0.0000 C   0  0  0  0  0  0  0  0  0  0  0  0
    6.0000   -2.5981    0.0000 N   0  0  0  0  0  0  0  0  0  0  0  0
    5.2500   -1.2990    0.0000 C   0  0  0  0  0  0  0  0  0  0  0  0
    6.0000    0.0000    0.0000 O   0  0  0  0  0  0  0  0  0  0  0  0
    3.7500   -1.2990    0.0000 C   0  0  0  0  0  0  0  0  0  0  0  0
    3.0000   -2.5981    0.0000 O   0  0  0  0  0  0  0  0  0  0  0  0
    3.0000    0.0000    0.0000 C   0  0  0  0  0  0  0  0  0  0  0  0
    3.7500    1.2990    0.0000 O   0  0  0  0  0  0  0  0  0  0  0  0
    1.5000    0.0000    0.0000 N   0  0  0  0  0  0  0  0  0  0  0  0
    0.7500   -1.2990    0.0000 C   0  0  0  0  0  0  0  0  0  0  0  0
   -0.7500   -1.2990    0.0000 C   0  0  0  0  0  0  0  0  0  0  0  0
   -1.5000    0.0000    0.0000 C   0  0  0  0  0  0  0  0  0  0  0  0
   -3.0000    0.0000    0.0000 C   0  0  0  0  0  0  0  0  0  0  0  0
   -3.8817   -1.2135    0.0000 C   0  0  0  0  0  0  0  0  0  0  0  0
   -5.3083   -0.7500    0.0000 C   0  0  0  0  0  0  0  0  0  0  0  0
   -5.3083    0.7500    0.0000 C   0  0  0  0  0  0  0  0  0  0  0  0
   -6.5218    1.6317    0.0000 C   0  0  0  0  0  0  0  0  0  0  0  0
   -6.3650    3.1235    0.0000 C   0  0  0  0  0  0  0  0  0  0  0  0
   -7.5785    4.0051    0.0000 C   0  0  0  0  0  0  0  0  0  0  0  0
   -8.9488    3.3950    0.0000 C   0  0  0  0  0  0  0  0  0  0  0  0
   -9.1056    1.9033    0.0000 C   0  0  0  0  0  0  0  0  0  0  0  0
   -7.8921    1.0216    0.0000 C   0  0  0  0  0  0  0  0  0  0  0  0
   -3.8817    1.2135    0.0000 C   0  0  0  0  0  0  0  0  0  0  0  0
   -0.7500    1.2990    0.0000 C   0  0  0  0  0  0  0  0  0  0  0  0
    0.7500    1.2990    0.0000 C   0  0  0  0  0  0  0  0  0  0  0  0
  1  2  1  0
  2  3  2  0
  2  4  1  0
  4  5  1  0
  5  6  2  0
  5  7  1  0
  7  8  1  0
  8  9  1  0
  9 10  2  0
  9 11  1  0
 11 12  2  0
 11 13  1  0
 13 14  2  0
 13 15  1  0
 15 16  1  0
 16 17  1  0
 17 18  1  0
 18 19  1  0
 19 20  1  0
 20 21  1  0
 21 22  1  0
 22 23  1  0
 23 24  2  0
 24 25  1  0
 25 26  2  0
 26 27  1  0
 27 28  2  0
 22 29  1  0
 18 30  1  0
 30 31  1  0
 31 15  1  0
 29 19  1  0
 28 23  1  0
M  END
>  <Title>  (11) 
idAAAKgen6

$$$$

     RDKit          2D

 37 41  0  0  0  0  0  0  0  0999 V2000
    0.6501   -8.8947    0.0000 O   0  0  0  0  0  0  0  0  0  0  0  0
   -0.8171   -9.2066    0.0000 C   0  0  0  0  0  0  0  0  0  0  0  0
   -1.2806  -10.6332    0.0000 O   0  0  0  0  0  0  0  0  0  0  0  0
   -1.8208   -8.0919    0.0000 C   0  0  0  0  0  0  0  0  0  0  0  0
   -1.5089   -6.6246    0.0000 C   0  0  0  0  0  0  0  0  0  0  0  0
   -2.8080   -5.8746    0.0000 C   0  0  0  0  0  0  0  0  0  0  0  0
   -3.9227   -6.8783    0.0000 C   0  0  0  0  0  0  0  0  0  0  0  0
   -5.3899   -6.5665    0.0000 C   0  0  0  0  0  0  0  0  0  0  0  0
   -6.5046   -7.5702    0.0000 C   0  0  0  0  0  0  0  0  0  0  0  0
   -7.8037   -6.8202    0.0000 C   0  0  0  0  0  0  0  0  0  0  0  0
   -7.4918   -5.3529    0.0000 C   0  0  0  0  0  0  0  0  0  0  0  0
   -6.0000   -5.1962    0.0000 C   0  0  0  0  0  0  0  0  0  0  0  0
   -5.2500   -3.8971    0.0000 C   0  0  0  0  0  0  0  0  0  0  0  0
   -3.7500   -3.8971    0.0000 O   0  0  0  0  0  0  0  0  0  0  0  0
   -3.0000   -2.5981    0.0000 C   0  0  0  0  0  0  0  0  0  0  0  0
   -3.7500   -1.2990    0.0000 O   0  0  0  0  0  0  0  0  0  0  0  0
   -1.5000   -2.5981    0.0000 C   0  0  0  0  0  0  0  0  0  0  0  0
   -0.7500   -3.8971    0.0000 C   0  0  0  0  0  0  0  0  0  0  0  0
    0.7500   -3.8971    0.0000 C   0  0  0  0  0  0  0  0  0  0  0  0
    1.5000   -5.1962    0.0000 C   0  0  0  0  0  0  0  0  0  0  0  0
    0.7500   -6.4952    0.0000 O   0  0  0  0  0  0  0  0  0  0  0  0
    3.0000   -5.1962    0.0000 N   0  0  0  0  0  0  0  0  0  0  0  0
    3.7500   -6.4952    0.0000 C   0  0  0  0  0  0  0  0  0  0  0  0
    3.0000   -7.7942    0.0000 N   0  0  0  0  0  0  0  0  0  0  0  0
    3.7500   -9.0933    0.0000 N   0  0  0  0  0  0  0  0  0  0  0  0
    5.2500   -9.0933    0.0000 N   0  0  0  0  0  0  0  0  0  0  0  0
    6.0000   -7.7942    0.0000 N   0  0  0  0  0  0  0  0  0  0  0  0
    5.2500   -6.4952    0.0000 N   0  0  0  0  0  0  0  0  0  0  0  0
    1.5000   -2.5981    0.0000 C   0  0  0  0  0  0  0  0  0  0  0  0
    0.7500   -1.2990    0.0000 C   0  0  0  0  0  0  0  0  0  0  0  0
    1.5000    0.0000    0.0000 C   0  0  0  0  0  0  0  0  0  0  0  0
    0.7500    1.2990    0.0000 C   0  0  0  0  0  0  0  0  0  0  0  0
   -0.7500    1.2990    0.0000 C   0  0  0  0  0  0  0  0  0  0  0  0
   -1.5000    0.0000    0.0000 C   0  0  0  0  0  0  0  0  0  0  0  0
   -0.7500   -1.2990    0.0000 C   0  0  0  0  0  0  0  0  0  0  0  0
   -3.3126   -8.2487    0.0000 C   0  0  0  0  0  0  0  0  0  0  0  0
   -4.0626   -9.5477    0.0000 O   0  0  0  0  0  0  0  0  0  0  0  0
  1  2  2  0
  2  3  1  0
  2  4  1  0
  4  5  2  0
  5  6  1  0
  6  7  2  0
  7  8  1  0
  8  9  2  0
  9 10  1  0
 10 11  1  0
 11 12  2  0
 12 13  1  0
 13 14  1  0
 14 15  1  0
 15 16  2  0
 15 17  1  0
 17 18  2  0
 18 19  1  0
 19 20  1  0
 20 21  2  0
 20 22  1  0
 22 23  1  0
 23 24  2  0
 24 25  1  0
 25 26  2  0
 26 27  1  0
 27 28  2  0
 19 29  1  0
 29 30  2  0
 30 31  1  0
 31 32  1  0
 32 33  1  0
 33 34  1  0
 34 35  1  0
  7 36  1  0
 36 37  2  0
 36  4  1  0
 12  8  1  0
 35 17  1  0
 28 23  1  0
 35 30  1  0
M  END
>  <Title>  (12) 
idAAALgen6

$$$$

     RDKit          2D

  9  9  0  0  0  0  0  0  0  0999 V2000
    7.2760   -0.0000    0.0000 N   0  0  0  0  0  0  0  0  0  0  0  0
    5.7760   -0.0000    0.0000 C   0  0  0  0  0  0  0  0  0  0  0  0
    4.2760   -0.0000    0.0000 C   0  0  0  0  0  0  0  0  0  0  0  0
    2.7760    0.0000    0.0000 C   0  0  0  0  0  0  0  0  0  0  0  0
    1.2760    0.0000    0.0000 C   0  0  0  0  0  0  0  0  0  0  0  0
    0.3943    1.2135    0.0000 C   0  0  0  0  0  0  0  0  0  0  0  0
   -1.0323    0.7500    0.0000 C   0  0  0  0  0  0  0  0  0  0  0  0
   -1.0323   -0.7500    0.0000 C   0  0  0  0  0  0  0  0  0  0  0  0
    0.3943   -1.2135    0.0000 C   0  0  0  0  0  0  0  0  0  0  0  0
  1  2  3  0
  2  3  1  0
  3  4  3  0
  4  5  1  0
  5  6  2  0
  6  7  1  0
  7  8  2  0
  8  9  1  0
  9  5  1  0
M  END
>  <Title>  (13) 
idAAAMgen6

$$$$

     RDKit          2D

 32 33  0  0  0  0  0  0  0  0999 V2000
   14.0260    6.4952    0.0000 C   0  0  0  0  0  0  0  0  0  0  0  0
   12.5260    6.4952    0.0000 C   0  0  0  0  0  0  0  0  0  0  0  0
   11.7760    7.7942    0.0000 O   0  0  0  0  0  0  0  0  0  0  0  0
   11.7760    5.1962    0.0000 O   0  0  0  0  0  0  0  0  0  0  0  0
   10.2760    5.1962    0.0000 C   0  0  0  0  0  0  0  0  0  0  0  0
    9.5260    6.4952    0.0000 O   0  0  0  0  0  0  0  0  0  0  0  0
    9.5260    3.8971    0.0000 C   0  0  0  0  0  0  0  0  0  0  0  0
    8.0260    3.8971    0.0000 C   0  0  0  0  0  0  0  0  0  0  0  0
    7.2760    2.5981    0.0000 C   0  0  0  0  0  0  0  0  0  0  0  0
    5.7760    2.5981    0.0000 C   0  0  0  0  0  0  0  0  0  0  0  0
    5.0260    1.2990    0.0000 C   0  0  0  0  0  0  0  0  0  0  0  0
    5.7760   -0.0000    0.0000 O   0  0  0  0  0  0  0  0  0  0  0  0
    3.5260    1.2990    0.0000 O   0  0  0  0  0  0  0  0  0  0  0  0
    2.7760    0.0000    0.0000 C   0  0  0  0  0  0  0  0  0  0  0  0
    1.2760    0.0000    0.0000 C   0  0  0  0  0  0  0  0  0  0  0  0
    0.3943    1.2135    0.0000 C   0  0  0  0  0  0  0  0  0  0  0  0
   -1.0323    0.7500    0.0000 C   0  0  0  0  0  0  0  0  0  0  0  0
   -1.0323   -0.7500    0.0000 C   0  0  0  0  0  0  0  0  0  0  0  0
    0.3943   -1.2135    0.0000 C   0  0  0  0  0  0  0  0  0  0  0  0
    0.8578   -2.6401    0.0000 C   0  0  0  0  0  0  0  0  0  0  0  0
    2.2844   -3.1036    0.0000 C   0  0  0  0  0  0  0  0  0  0  0  0
    2.2844   -4.6036    0.0000 C   0  0  0  0  0  0  0  0  0  0  0  0
    0.8578   -5.0672    0.0000 C   0  0  0  0  0  0  0  0  0  0  0  0
    0.3943   -6.4937    0.0000 C   0  0  0  0  0  0  0  0  0  0  0  0
    1.3980   -7.6085    0.0000 O   0  0  0  0  0  0  0  0  0  0  0  0
   -1.0729   -6.8056    0.0000 O   0  0  0  0  0  0  0  0  0  0  0  0
   -0.0239   -3.8536    0.0000 C   0  0  0  0  0  0  0  0  0  0  0  0
   -1.5239   -3.8536    0.0000 O   0  0  0  0  0  0  0  0  0  0  0  0
   10.2760    2.5981    0.0000 N   0  0  0  0  0  0  0  0  0  0  0  0
   11.7760    2.5981    0.0000 C   0  0  0  0  0  0  0  0  0  0  0  0
   12.5260    1.2990    0.0000 O   0  0  0  0  0  0  0  0  0  0  0  0
   12.5260    3.8971    0.0000 F   0  0  0  0  0  0  0  0  0  0  0  0
  1  2  1  0
  2  3  2  0
  2  4  1  0
  4  5  1  0
  5  6  2  0
  5  7  1  0
  7  8  1  0
  8  9  1  0
  9 10  1  0
 10 11  1  0
 11 12  2  0
 11 13  1  0
 13 14  1  0
 14 15  1  0
 15 16  2  0
 16 17  1  0
 17 18  1  0
 18 19  2  0
 19 20  1  0
 20 21  2  0
 21 22  1  0
 22 23  2  0
 23 24  1  0
 24 25  2  0
 24 26  1  0
 23 27  1  0
 27 28  2  0
  7 29  1  0
 29 30  1  0
 30 31  2  0
 30 32  1  0
 19 15  1  0
 27 20  1  0
M  END
>  <Title>  (14) 
idAAANgen6

$$$$

     RDKit          2D

 10 10  0  0  0  0  0  0  0  0999 V2000
    5.2500   -1.2990    0.0000 C   0  0  0  0  0  0  0  0  0  0  0  0
    3.7500   -1.2990    0.0000 C   0  0  0  0  0  0  0  0  0  0  0  0
    3.0000   -2.5981    0.0000 O   0  0  0  0  0  0  0  0  0  0  0  0
    3.0000    0.0000    0.0000 N   0  0  0  0  0  0  0  0  0  0  0  0
    1.5000    0.0000    0.0000 C   0  0  0  0  0  0  0  0  0  0  0  0
    0.7500   -1.2990    0.0000 C   0  0  0  0  0  0  0  0  0  0  0  0
   -0.7500   -1.2990    0.0000 C   0  0  0  0  0  0  0  0  0  0  0  0
   -1.5000    0.0000    0.0000 C   0  0  0  0  0  0  0  0  0  0  0  0
   -0.7500    1.2990    0.0000 C   0  0  0  0  0  0  0  0  0  0  0  0
    0.7500    1.2990    0.0000 C   0  0  0  0  0  0  0  0  0  0  0  0
  1  2  1  0
  2  3  2  0
  2  4  1  0
  4  5  1  0
  5  6  2  0
  6  7  1  0
  7  8  1  0
  8  9  2  0
  9 10  1  0
 10  5  1  0
M  END
>  <Title>  (15) 
idAAAOgen6

$$$$

     RDKit          2D

  9  9  0  0  0  0  0  0  0  0999 V2000
    3.5260   -1.2990    0.0000 C   0  0  0  0  0  0  0  0  0  0  0  0
    2.7760    0.0000    0.0000 N   0  0  0  0  0  0  0  0  0  0  0  0
    1.2760    0.0000    0.0000 C   0  0  0  0  0  0  0  0  0  0  0  0
    0.3943    1.2135    0.0000 C   0  0  0  0  0  0  0  0  0  0  0  0
   -1.0323    0.7500    0.0000 C   0  0  0  0  0  0  0  0  0  0  0  0
   -2.2458    1.6317    0.0000 C   0  0  0  0  0  0  0  0  0  0  0  0
   -3.4593    2.5134    0.0000 N   0  0  0  0  0  0  0  0  0  0  0  0
   -1.0323   -0.7500    0.0000 C   0  0  0  0  0  0  0  0  0  0  0  0
    0.3943   -1.2135    0.0000 C   0  0  0  0  0  0  0  0  0  0  0  0
  1  2  2  0
  2  3  1  0
  3  4  2  0
  4  5  1  0
  5  6  1  0
  6  7  3  0
  5  8  2  0
  8  9  1  0
  9  3  1  0
M  END
>  <Title>  (16) 
idAAAPgen6

$$$$

     RDKit          2D

 10 10  0  0  0  0  0  0  0  0999 V2000
    5.2500   -1.2990    0.0000 C   0  0  0  0  0  0  0  0  0  0  0  0
    3.7500   -1.2990    0.0000 C   0  0  0  0  0  0  0  0  0  0  0  0
    3.0000   -2.5981    0.0000 O   0  0  0  0  0  0  0  0  0  0  0  0
    3.0000    0.0000    0.0000 N   0  0  0  0  0  0  0  0  0  0  0  0
    1.5000    0.0000    0.0000 C   0  0  0  0  0  0  0  0  0  0  0  0
    0.7500   -1.2990    0.0000 C   0  0  0  0  0  0  0  0  0  0  0  0
   -0.7500   -1.2990    0.0000 C   0  0  0  0  0  0  0  0  0  0  0  0
   -1.5000    0.0000    0.0000 C   0  0  0  0  0  0  0  0  0  0  0  0
   -0.7500    1.2990    0.0000 C   0  0  0  0  0  0  0  0  0  0  0  0
    0.7500    1.2990    0.0000 C   0  0  0  0  0  0  0  0  0  0  0  0
  1  2  1  0
  2  3  2  0
  2  4  1  0
  4  5  1  0
  5  6  2  0
  6  7  1  0
  7  8  2  0
  8  9  1  0
  9 10  1  0
 10  5  1  0
M  END
>  <Title>  (17) 
idAAAQgen6

$$$$

     RDKit          2D

  9  9  0  0  0  0  0  0  0  0999 V2000
    7.2760   -0.0000    0.0000 N   0  0  0  0  0  0  0  0  0  0  0  0
    5.7760   -0.0000    0.0000 C   0  0  0  0  0  0  0  0  0  0  0  0
    4.2760   -0.0000    0.0000 C   0  0  0  0  0  0  0  0  0  0  0  0
    2.7760    0.0000    0.0000 C   0  0  0  0  0  0  0  0  0  0  0  0
    1.2760    0.0000    0.0000 C   0  0  0  0  0  0  0  0  0  0  0  0
    0.3943    1.2135    0.0000 C   0  0  0  0  0  0  0  0  0  0  0  0
   -1.0323    0.7500    0.0000 C   0  0  0  0  0  0  0  0  0  0  0  0
   -1.0323   -0.7500    0.0000 C   0  0  0  0  0  0  0  0  0  0  0  0
    0.3943   -1.2135    0.0000 C   0  0  0  0  0  0  0  0  0  0  0  0
  1  2  3  0
  2  3  1  0
  3  4  3  0
  4  5  1  0
  5  6  2  0
  6  7  1  0
  7  8  1  0
  8  9  1  0
  9  5  1  0
M  END
>  <Title>  (18) 
idAAARgen6

$$$$

     RDKit          2D

  9  9  0  0  0  0  0  0  0  0999 V2000
    4.2760   -0.0000    0.0000 C   0  0  0  0  0  0  0  0  0  0  0  0
    2.7760    0.0000    0.0000 C   0  0  0  0  0  0  0  0  0  0  0  0
    1.2760    0.0000    0.0000 C   0  0  0  0  0  0  0  0  0  0  0  0
    0.3943    1.2135    0.0000 C   0  0  0  0  0  0  0  0  0  0  0  0
   -1.0323    0.7500    0.0000 C   0  0  0  0  0  0  0  0  0  0  0  0
   -2.2458    1.6317    0.0000 C   0  0  0  0  0  0  0  0  0  0  0  0
   -3.4593    2.5134    0.0000 N   0  0  0  0  0  0  0  0  0  0  0  0
   -1.0323   -0.7500    0.0000 C   0  0  0  0  0  0  0  0  0  0  0  0
    0.3943   -1.2135    0.0000 C   0  0  0  0  0  0  0  0  0  0  0  0
  1  2  3  0
  2  3  1  0
  3  4  2  0
  4  5  1  0
  5  6  1  0
  6  7  3  0
  5  8  2  0
  8  9  1  0
  9  3  1  0
M  END
>  <Title>  (19) 
idAAASgen6

$$$$

     RDKit          2D

 16 18  0  0  0  0  0  0  0  0999 V2000
    5.2500   -3.8971    0.0000 C   0  0  0  0  0  0  0  0  0  0  0  0
    3.7500   -3.8971    0.0000 C   0  0  0  0  0  0  0  0  0  0  0  0
    3.0000   -5.1962    0.0000 C   0  0  0  0  0  0  0  0  0  0  0  0
    1.5000   -5.1962    0.0000 C   0  0  0  0  0  0  0  0  0  0  0  0
    0.7500   -3.8971    0.0000 C   0  0  0  0  0  0  0  0  0  0  0  0
    1.5000   -2.5981    0.0000 C   0  0  0  0  0  0  0  0  0  0  0  0
    0.7500   -1.2990    0.0000 N   0  0  0  0  0  0  0  0  0  0  0  0
    1.5000    0.0000    0.0000 C   0  0  0  0  0  0  0  0  0  0  0  0
    0.7500    1.2990    0.0000 C   0  0  0  0  0  0  0  0  0  0  0  0
   -0.7500    1.2990    0.0000 C   0  0  0  0  0  0  0  0  0  0  0  0
   -1.5000    0.0000    0.0000 C   0  0  0  0  0  0  0  0  0  0  0  0
   -0.7500   -1.2990    0.0000 C   0  0  0  0  0  0  0  0  0  0  0  0
   -2.1766   -0.8355    0.0000 N   0  0  0  0  0  0  0  0  0  0  0  0
   -2.1766    0.6645    0.0000 C   0  0  0  0  0  0  0  0  0  0  0  0
   -3.3901    1.5462    0.0000 O   0  0  0  0  0  0  0  0  0  0  0  0
    3.0000   -2.5981    0.0000 C   0  0  0  0  0  0  0  0  0  0  0  0
  1  2  1  0
  2  3  1  0
  3  4  1  0
  4  5  2  0
  5  6  1  0
  6  7  1  0
  7  8  1  0
  8  9  1  0
  9 10  1  0
 10 11  1  0
 11 12  2  0
 12 13  1  0
 13 14  1  0
 14 15  2  0
  6 16  1  0
 16  2  1  0
 12  7  1  0
 14 10  1  0
M  END
>  <Title>  (20) 
idAAATgen6

$$$$

     RDKit          2D

  9  9  0  0  0  0  0  0  0  0999 V2000
    2.7760   -2.5981    0.0000 O   0  0  0  0  0  0  0  0  0  0  0  0
    3.5260   -1.2990    0.0000 C   0  0  0  0  0  0  0  0  0  0  0  0
    5.0260   -1.2990    0.0000 O   0  0  0  0  0  0  0  0  0  0  0  0
    2.7760    0.0000    0.0000 O   0  0  0  0  0  0  0  0  0  0  0  0
    1.2760    0.0000    0.0000 C   0  0  0  0  0  0  0  0  0  0  0  0
    0.3943    1.2135    0.0000 C   0  0  0  0  0  0  0  0  0  0  0  0
   -1.0323    0.7500    0.0000 C   0  0  0  0  0  0  0  0  0  0  0  0
   -1.0323   -0.7500    0.0000 C   0  0  0  0  0  0  0  0  0  0  0  0
    0.3943   -1.2135    0.0000 C   0  0  0  0  0  0  0  0  0  0  0  0
  1  2  2  0
  2  3  1  0
  2  4  1  0
  4  5  1  0
  5  6  1  0
  6  7  1  0
  7  8  2  0
  8  9  1  0
  9  5  1  0
M  END
>  <Title>  (21) 
idAAAUgen6

$$$$

     RDKit          2D

 20 22  0  0  0  0  0  0  0  0999 V2000
   -3.6611   -7.1043    0.0000 C   0  0  0  0  0  0  0  0  0  0  0  0
   -2.7479   -5.9143    0.0000 C   0  0  0  0  0  0  0  0  0  0  0  0
   -3.4979   -4.6152    0.0000 C   0  0  0  0  0  0  0  0  0  0  0  0
   -3.1097   -3.1663    0.0000 C   0  0  0  0  0  0  0  0  0  0  0  0
   -1.8991   -2.2632    0.0000 C   0  0  0  0  0  0  0  0  0  0  0  0
   -2.1595   -3.7404    0.0000 C   0  0  0  0  0  0  0  0  0  0  0  0
   -2.8878   -4.0647    0.0000 O   0  0  0  0  0  0  0  0  0  0  0  0
   -1.4095   -5.0395    0.0000 N   0  0  0  0  0  0  0  0  0  0  0  0
   -0.0000   -5.5525    0.0000 C   0  0  0  0  0  0  0  0  0  0  0  0
   -1.2990   -6.3025    0.0000 C   0  0  0  0  0  0  0  0  0  0  0  0
    1.4095   -5.0395    0.0000 N   0  0  0  0  0  0  0  0  0  0  0  0
    2.1595   -3.7404    0.0000 C   0  0  0  0  0  0  0  0  0  0  0  0
    3.6368   -4.0009    0.0000 O   0  0  0  0  0  0  0  0  0  0  0  0
    1.8991   -2.2632    0.0000 C   0  0  0  0  0  0  0  0  0  0  0  0
    0.7500   -1.2990    0.0000 C   0  0  0  0  0  0  0  0  0  0  0  0
    1.5000    0.0000    0.0000 C   0  0  0  0  0  0  0  0  0  0  0  0
    0.7500    1.2990    0.0000 C   0  0  0  0  0  0  0  0  0  0  0  0
   -0.7500    1.2990    0.0000 C   0  0  0  0  0  0  0  0  0  0  0  0
   -1.5000    0.0000    0.0000 C   0  0  0  0  0  0  0  0  0  0  0  0
   -0.7500   -1.2990    0.0000 C   0  0  0  0  0  0  0  0  0  0  0  0
  1  2  1  0
  2  3  2  0
  3  4  1  0
  4  5  2  0
  5  6  1  0
  6  7  2  0
  6  8  1  0
  8  9  1  0
  9 10  2  0
  9 11  1  0
 11 12  1  0
 12 13  2  0
 12 14  1  0
 14 15  1  0
 15 16  2  0
 16 17  1  0
 17 18  2  0
 18 19  1  0
 19 20  2  0
 10  2  1  0
 20 15  1  0
 20  5  1  0
M  END
>  <Title>  (22) 
idAAAVgen6

$$$$

     RDKit          2D

 20 21  0  0  0  0  0  0  0  0999 V2000
   -7.8555   -8.9814    0.0000 C   0  0  0  0  0  0  0  0  0  0  0  0
   -6.4289   -8.5179    0.0000 C   0  0  0  0  0  0  0  0  0  0  0  0
   -5.3142   -9.5216    0.0000 O   0  0  0  0  0  0  0  0  0  0  0  0
   -6.1170   -7.0506    0.0000 O   0  0  0  0  0  0  0  0  0  0  0  0
   -4.6904   -6.5871    0.0000 C   0  0  0  0  0  0  0  0  0  0  0  0
   -3.5757   -7.5908    0.0000 O   0  0  0  0  0  0  0  0  0  0  0  0
   -4.3786   -5.1199    0.0000 C   0  0  0  0  0  0  0  0  0  0  0  0
   -2.9520   -4.6564    0.0000 N   0  0  0  0  0  0  0  0  0  0  0  0
   -2.6401   -3.1891    0.0000 C   0  0  0  0  0  0  0  0  0  0  0  0
   -3.7548   -2.1855    0.0000 O   0  0  0  0  0  0  0  0  0  0  0  0
   -1.2135   -2.7256    0.0000 C   0  0  0  0  0  0  0  0  0  0  0  0
   -0.0000   -3.6073    0.0000 C   0  0  0  0  0  0  0  0  0  0  0  0
    1.2135   -2.7256    0.0000 C   0  0  0  0  0  0  0  0  0  0  0  0
    2.6401   -3.1891    0.0000 C   0  0  0  0  0  0  0  0  0  0  0  0
    0.7500   -1.2990    0.0000 C   0  0  0  0  0  0  0  0  0  0  0  0
    1.5000    0.0000    0.0000 C   0  0  0  0  0  0  0  0  0  0  0  0
    0.7500    1.2990    0.0000 C   0  0  0  0  0  0  0  0  0  0  0  0
   -0.7500    1.2990    0.0000 C   0  0  0  0  0  0  0  0  0  0  0  0
   -1.5000    0.0000    0.0000 C   0  0  0  0  0  0  0  0  0  0  0  0
   -0.7500   -1.2990    0.0000 C   0  0  0  0  0  0  0  0  0  0  0  0
  1  2  1  0
  2  3  2  0
  2  4  1  0
  4  5  1  0
  5  6  2  0
  5  7  1  0
  7  8  1  0
  8  9  1  0
  9 10  2  0
  9 11  1  0
 11 12  1  0
 12 13  2  0
 13 14  1  0
 13 15  1  0
 15 16  2  0
 16 17  1  0
 17 18  2  0
 18 19  1  0
 19 20  2  0
 20 11  1  0
 20 15  1  0
M  END
>  <Title>  (23) 
idAAAWgen6

$$$$

     RDKit          2D

 16 17  0  0  0  0  0  0  0  0999 V2000
   -2.0490   -9.5490    0.0000 C   0  0  0  0  0  0  0  0  0  0  0  0
   -2.0490   -8.0490    0.0000 C   0  0  0  0  0  0  0  0  0  0  0  0
   -2.0490   -6.5490    0.0000 C   0  0  0  0  0  0  0  0  0  0  0  0
   -2.0490   -5.0490    0.0000 C   0  0  0  0  0  0  0  0  0  0  0  0
   -3.3481   -4.2990    0.0000 O   0  0  0  0  0  0  0  0  0  0  0  0
   -0.7500   -4.2990    0.0000 C   0  0  0  0  0  0  0  0  0  0  0  0
    0.5490   -5.0490    0.0000 O   0  0  0  0  0  0  0  0  0  0  0  0
   -0.7500   -2.7990    0.0000 C   0  0  0  0  0  0  0  0  0  0  0  0
   -2.2500   -2.7990    0.0000 C   0  0  0  0  0  0  0  0  0  0  0  0
    0.7500   -2.7990    0.0000 C   0  0  0  0  0  0  0  0  0  0  0  0
    0.7500   -1.2990    0.0000 C   0  0  0  0  0  0  0  0  0  0  0  0
    1.5000    0.0000    0.0000 C   0  0  0  0  0  0  0  0  0  0  0  0
    0.7500    1.2990    0.0000 C   0  0  0  0  0  0  0  0  0  0  0  0
   -0.7500    1.2990    0.0000 C   0  0  0  0  0  0  0  0  0  0  0  0
   -1.5000    0.0000    0.0000 C   0  0  0  0  0  0  0  0  0  0  0  0
   -0.7500   -1.2990    0.0000 C   0  0  0  0  0  0  0  0  0  0  0  0
  1  2  1  0
  2  3  3  0
  3  4  1  0
  4  5  2  0
  4  6  1  0
  6  7  2  0
  6  8  1  0
  8  9  1  0
  8 10  1  0
 10 11  1  0
 11 12  2  0
 12 13  1  0
 13 14  2  0
 14 15  1  0
 15 16  2  0
 16  8  1  0
 16 11  1  0
M  END
>  <Title>  (24) 
idAAAXgen6

$$$$

     RDKit          2D

 17 17  0  0  0  0  0  0  0  0999 V2000
    8.0260   -3.8971    0.0000 C   0  0  0  0  0  0  0  0  0  0  0  0
    7.2760   -2.5981    0.0000 C   0  0  0  0  0  0  0  0  0  0  0  0
    8.0260   -1.2990    0.0000 O   0  0  0  0  0  0  0  0  0  0  0  0
    5.7760   -2.5981    0.0000 O   0  0  0  0  0  0  0  0  0  0  0  0
    5.0260   -1.2990    0.0000 C   0  0  0  0  0  0  0  0  0  0  0  0
    5.7760    0.0000    0.0000 O   0  0  0  0  0  0  0  0  0  0  0  0
    3.5260   -1.2990    0.0000 C   0  0  0  0  0  0  0  0  0  0  0  0
    2.7760    0.0000    0.0000 C   0  0  0  0  0  0  0  0  0  0  0  0
    1.2760    0.0000    0.0000 C   0  0  0  0  0  0  0  0  0  0  0  0
    0.3943    1.2135    0.0000 C   0  0  0  0  0  0  0  0  0  0  0  0
   -1.0323    0.7500    0.0000 C   0  0  0  0  0  0  0  0  0  0  0  0
   -1.0323   -0.7500    0.0000 C   0  0  0  0  0  0  0  0  0  0  0  0
    0.3943   -1.2135    0.0000 C   0  0  0  0  0  0  0  0  0  0  0  0
    2.7760   -2.5981    0.0000 N   0  0  0  0  0  0  0  0  0  0  0  0
    3.5260   -3.8971    0.0000 C   0  0  0  0  0  0  0  0  0  0  0  0
    2.7760   -5.1962    0.0000 O   0  0  0  0  0  0  0  0  0  0  0  0
    5.0260   -3.8971    0.0000 F   0  0  0  0  0  0  0  0  0  0  0  0
  1  2  1  0
  2  3  2  0
  2  4  1  0
  4  5  1  0
  5  6  2  0
  5  7  1  0
  7  8  1  0
  8  9  1  0
  9 10  2  0
 10 11  1  0
 11 12  2  0
 12 13  1  0
  7 14  1  0
 14 15  1  0
 15 16  2  0
 15 17  1  0
 13  9  1  0
M  END
>  <Title>  (25) 
idAAAYgen6

$$$$

     RDKit          2D

  8  8  0  0  0  0  0  0  0  0999 V2000
    4.5000    0.0000    0.0000 C   0  0  0  0  0  0  0  0  0  0  0  0
    3.0000    0.0000    0.0000 C   0  0  0  0  0  0  0  0  0  0  0  0
    1.5000    0.0000    0.0000 C   0  0  0  0  0  0  0  0  0  0  0  0
    0.7500   -1.2990    0.0000 C   0  0  0  0  0  0  0  0  0  0  0  0
   -0.7500   -1.2990    0.0000 C   0  0  0  0  0  0  0  0  0  0  0  0
   -1.5000    0.0000    0.0000 C   0  0  0  0  0  0  0  0  0  0  0  0
   -0.7500    1.2990    0.0000 C   0  0  0  0  0  0  0  0  0  0  0  0
    0.7500    1.2990    0.0000 C   0  0  0  0  0  0  0  0  0  0  0  0
  1  2  3  0
  2  3  1  0
  3  4  2  0
  4  5  1  0
  5  6  2  0
  6  7  1  0
  7  8  2  0
  8  3  1  0
M  END
>  <Title>  (26) 
idAAAZgen6

$$$$

     RDKit          2D

  9  9  0  0  0  0  0  0  0  0999 V2000
    7.2760   -0.0000    0.0000 N   0  0  0  0  0  0  0  0  0  0  0  0
    5.7760   -0.0000    0.0000 C   0  0  0  0  0  0  0  0  0  0  0  0
    4.2760   -0.0000    0.0000 C   0  0  0  0  0  0  0  0  0  0  0  0
    2.7760    0.0000    0.0000 C   0  0  0  0  0  0  0  0  0  0  0  0
    1.2760    0.0000    0.0000 C   0  0  0  0  0  0  0  0  0  0  0  0
    0.3943    1.2135    0.0000 C   0  0  0  0  0  0  0  0  0  0  0  0
   -1.0323    0.7500    0.0000 C   0  0  0  0  0  0  0  0  0  0  0  0
   -1.0323   -0.7500    0.0000 C   0  0  0  0  0  0  0  0  0  0  0  0
    0.3943   -1.2135    0.0000 C   0  0  0  0  0  0  0  0  0  0  0  0
  1  2  3  0
  2  3  1  0
  3  4  3  0
  4  5  1  0
  5  6  2  0
  6  7  1  0
  7  8  2  0
  8  9  1  0
  9  5  1  0
M  END
>  <Title>  (27) 
idAABAgen6

$$$$

     RDKit          2D

 29 31  0  0  0  0  0  0  0  0999 V2000
    3.9955   -6.8363    0.0000 C   0  0  0  0  0  0  0  0  0  0  0  0
    2.9918   -7.9510    0.0000 C   0  0  0  0  0  0  0  0  0  0  0  0
    1.5000   -7.7942    0.0000 C   0  0  0  0  0  0  0  0  0  0  0  0
    0.7500   -6.4952    0.0000 C   0  0  0  0  0  0  0  0  0  0  0  0
   -0.7500   -6.4952    0.0000 O   0  0  0  0  0  0  0  0  0  0  0  0
    1.5000   -5.1962    0.0000 C   0  0  0  0  0  0  0  0  0  0  0  0
    0.7500   -3.8971    0.0000 C   0  0  0  0  0  0  0  0  0  0  0  0
    1.5000   -2.5981    0.0000 N   0  0  0  0  0  0  0  0  0  0  0  0
    0.7500   -1.2990    0.0000 C   0  0  0  0  0  0  0  0  0  0  0  0
    1.5000    0.0000    0.0000 C   0  0  0  0  0  0  0  0  0  0  0  0
    0.7500    1.2990    0.0000 C   0  0  0  0  0  0  0  0  0  0  0  0
   -0.7500    1.2990    0.0000 C   0  0  0  0  0  0  0  0  0  0  0  0
   -1.5000    0.0000    0.0000 C   0  0  0  0  0  0  0  0  0  0  0  0
   -0.7500   -1.2990    0.0000 C   0  0  0  0  0  0  0  0  0  0  0  0
    3.0000   -5.1962    0.0000 N   0  0  0  0  0  0  0  0  0  0  0  0
    3.7500   -3.8971    0.0000 C   0  0  0  0  0  0  0  0  0  0  0  0
    3.0000   -2.5981    0.0000 O   0  0  0  0  0  0  0  0  0  0  0  0
    5.2500   -3.8971    0.0000 C   0  0  0  0  0  0  0  0  0  0  0  0
    6.1317   -5.1106    0.0000 C   0  0  0  0  0  0  0  0  0  0  0  0
    7.5583   -4.6471    0.0000 C   0  0  0  0  0  0  0  0  0  0  0  0
    7.5583   -3.1471    0.0000 C   0  0  0  0  0  0  0  0  0  0  0  0
    8.7718   -2.2654    0.0000 O   0  0  0  0  0  0  0  0  0  0  0  0
    6.1317   -2.6836    0.0000 O   0  0  0  0  0  0  0  0  0  0  0  0
    0.8899   -9.1645    0.0000 C   0  0  0  0  0  0  0  0  0  0  0  0
   -0.5773   -9.4764    0.0000 C   0  0  0  0  0  0  0  0  0  0  0  0
   -1.5810   -8.3617    0.0000 O   0  0  0  0  0  0  0  0  0  0  0  0
   -1.0409  -10.9030    0.0000 O   0  0  0  0  0  0  0  0  0  0  0  0
    2.0046  -10.1682    0.0000 C   0  0  0  0  0  0  0  0  0  0  0  0
    3.3037   -9.4182    0.0000 C   0  0  0  0  0  0  0  0  0  0  0  0
  1  2  1  0
  2  3  2  0
  3  4  1  0
  4  5  2  0
  4  6  1  0
  6  7  1  0
  7  8  1  0
  8  9  1  0
  9 10  2  0
 10 11  1  0
 11 12  2  0
 12 13  1  0
 13 14  2  0
  6 15  1  0
 15 16  1  0
 16 17  2  0
 16 18  1  0
 18 19  1  0
 19 20  1  0
 20 21  1  0
 21 22  2  0
 21 23  1  0
  3 24  1  0
 24 25  1  0
 25 26  2  0
 25 27  1  0
 24 28  1  0
 28 29  1  0
 29  2  1  0
 14  9  1  0
 23 18  1  0
M  END
>  <Title>  (28) 
idAABBgen6

$$$$

     RDKit          2D

 17 17  0  0  0  0  0  0  0  0999 V2000
    8.0260   -3.8971    0.0000 C   0  0  0  0  0  0  0  0  0  0  0  0
    7.2760   -2.5981    0.0000 C   0  0  0  0  0  0  0  0  0  0  0  0
    8.0260   -1.2990    0.0000 O   0  0  0  0  0  0  0  0  0  0  0  0
    5.7760   -2.5981    0.0000 O   0  0  0  0  0  0  0  0  0  0  0  0
    5.0260   -1.2990    0.0000 C   0  0  0  0  0  0  0  0  0  0  0  0
    5.7760    0.0000    0.0000 O   0  0  0  0  0  0  0  0  0  0  0  0
    3.5260   -1.2990    0.0000 C   0  0  0  0  0  0  0  0  0  0  0  0
    2.7760    0.0000    0.0000 C   0  0  0  0  0  0  0  0  0  0  0  0
    1.2760    0.0000    0.0000 C   0  0  0  0  0  0  0  0  0  0  0  0
    0.3943    1.2135    0.0000 C   0  0  0  0  0  0  0  0  0  0  0  0
   -1.0323    0.7500    0.0000 C   0  0  0  0  0  0  0  0  0  0  0  0
   -1.0323   -0.7500    0.0000 C   0  0  0  0  0  0  0  0  0  0  0  0
    0.3943   -1.2135    0.0000 C   0  0  0  0  0  0  0  0  0  0  0  0
    2.7760   -2.5981    0.0000 N   0  0  0  0  0  0  0  0  0  0  0  0
    3.5260   -3.8971    0.0000 C   0  0  0  0  0  0  0  0  0  0  0  0
    2.7760   -5.1962    0.0000 O   0  0  0  0  0  0  0  0  0  0  0  0
    5.0260   -3.8971    0.0000 F   0  0  0  0  0  0  0  0  0  0  0  0
  1  2  1  0
  2  3  2  0
  2  4  1  0
  4  5  1  0
  5  6  2  0
  5  7  1  0
  7  8  1  0
  8  9  1  0
  9 10  2  0
 10 11  1  0
 11 12  2  0
 12 13  1  0
  7 14  1  0
 14 15  1  0
 15 16  2  0
 15 17  1  0
 13  9  1  0
M  END
>  <Title>  (29) 
idAABCgen6

$$$$

     RDKit          2D

 31 33  0  0  0  0  0  0  0  0999 V2000
   -1.7455   -5.5373    0.0000 C   0  0  0  0  0  0  0  0  0  0  0  0
   -0.7418   -6.6520    0.0000 C   0  0  0  0  0  0  0  0  0  0  0  0
    0.7500   -6.4952    0.0000 C   0  0  0  0  0  0  0  0  0  0  0  0
    1.5000   -5.1962    0.0000 C   0  0  0  0  0  0  0  0  0  0  0  0
    3.0000   -5.1962    0.0000 O   0  0  0  0  0  0  0  0  0  0  0  0
    0.7500   -3.8971    0.0000 C   0  0  0  0  0  0  0  0  0  0  0  0
    1.5000   -2.5981    0.0000 C   0  0  0  0  0  0  0  0  0  0  0  0
    3.0000   -2.5981    0.0000 C   0  0  0  0  0  0  0  0  0  0  0  0
    3.7500   -3.8971    0.0000 C   0  0  0  0  0  0  0  0  0  0  0  0
    5.2500   -3.8971    0.0000 C   0  0  0  0  0  0  0  0  0  0  0  0
    6.0000   -2.5981    0.0000 C   0  0  0  0  0  0  0  0  0  0  0  0
    5.2500   -1.2990    0.0000 C   0  0  0  0  0  0  0  0  0  0  0  0
    3.7500   -1.2990    0.0000 C   0  0  0  0  0  0  0  0  0  0  0  0
    3.0000   -0.0000    0.0000 C   0  0  0  0  0  0  0  0  0  0  0  0
    1.5000   -0.0000    0.0000 O   0  0  0  0  0  0  0  0  0  0  0  0
    3.7500    1.2990    0.0000 O   0  0  0  0  0  0  0  0  0  0  0  0
   -0.7500   -3.8971    0.0000 N   0  0  0  0  0  0  0  0  0  0  0  0
   -1.5000   -2.5981    0.0000 C   0  0  0  0  0  0  0  0  0  0  0  0
   -0.7500   -1.2990    0.0000 O   0  0  0  0  0  0  0  0  0  0  0  0
   -3.0000   -2.5981    0.0000 C   0  0  0  0  0  0  0  0  0  0  0  0
   -3.8817   -1.3846    0.0000 C   0  0  0  0  0  0  0  0  0  0  0  0
   -5.3083   -1.8481    0.0000 C   0  0  0  0  0  0  0  0  0  0  0  0
   -5.3083   -3.3481    0.0000 C   0  0  0  0  0  0  0  0  0  0  0  0
   -6.5218   -4.2298    0.0000 O   0  0  0  0  0  0  0  0  0  0  0  0
   -3.8817   -3.8116    0.0000 O   0  0  0  0  0  0  0  0  0  0  0  0
    1.3601   -7.8655    0.0000 C   0  0  0  0  0  0  0  0  0  0  0  0
    2.8273   -8.1774    0.0000 C   0  0  0  0  0  0  0  0  0  0  0  0
    3.8310   -7.0627    0.0000 O   0  0  0  0  0  0  0  0  0  0  0  0
    3.2909   -9.6040    0.0000 O   0  0  0  0  0  0  0  0  0  0  0  0
    0.2454   -8.8692    0.0000 C   0  0  0  0  0  0  0  0  0  0  0  0
   -1.0537   -8.1192    0.0000 C   0  0  0  0  0  0  0  0  0  0  0  0
  1  2  1  0
  2  3  2  0
  3  4  1  0
  4  5  2  0
  4  6  1  0
  6  7  1  0
  7  8  1  0
  8  9  2  0
  9 10  1  0
 10 11  1  0
 11 12  1  0
 12 13  2  0
 13 14  1  0
 14 15  2  0
 14 16  1  0
  6 17  1  0
 17 18  1  0
 18 19  2  0
 18 20  1  0
 20 21  1  0
 21 22  1  0
 22 23  1  0
 23 24  2  0
 23 25  1  0
  3 26  1  0
 26 27  1  0
 27 28  2  0
 27 29  1  0
 26 30  1  0
 30 31  1  0
 31  2  1  0
 13  8  1  0
 25 20  1  0
M  END
>  <Title>  (30) 
idAABDgen6

$$$$

     RDKit          2D

  9  9  0  0  0  0  0  0  0  0999 V2000
    7.2760   -0.0000    0.0000 N   0  0  0  0  0  0  0  0  0  0  0  0
    5.7760   -0.0000    0.0000 C   0  0  0  0  0  0  0  0  0  0  0  0
    4.2760   -0.0000    0.0000 C   0  0  0  0  0  0  0  0  0  0  0  0
    2.7760    0.0000    0.0000 C   0  0  0  0  0  0  0  0  0  0  0  0
    1.2760    0.0000    0.0000 C   0  0  0  0  0  0  0  0  0  0  0  0
    0.3943    1.2135    0.0000 C   0  0  0  0  0  0  0  0  0  0  0  0
   -1.0323    0.7500    0.0000 C   0  0  0  0  0  0  0  0  0  0  0  0
   -1.0323   -0.7500    0.0000 C   0  0  0  0  0  0  0  0  0  0  0  0
    0.3943   -1.2135    0.0000 C   0  0  0  0  0  0  0  0  0  0  0  0
  1  2  3  0
  2  3  1  0
  3  4  3  0
  4  5  1  0
  5  6  2  0
  6  7  1  0
  7  8  2  0
  8  9  1  0
  9  5  1  0
M  END
>  <Title>  (31) 
idAABEgen6

$$$$

     RDKit          2D

 12 12  0  0  0  0  0  0  0  0999 V2000
    6.0000   -2.5981    0.0000 C   0  0  0  0  0  0  0  0  0  0  0  0
    5.2500   -1.2990    0.0000 C   0  0  0  0  0  0  0  0  0  0  0  0
    6.0000    0.0000    0.0000 O   0  0  0  0  0  0  0  0  0  0  0  0
    3.7500   -1.2990    0.0000 O   0  0  0  0  0  0  0  0  0  0  0  0
    3.0000    0.0000    0.0000 C   0  0  0  0  0  0  0  0  0  0  0  0
    3.7500    1.2990    0.0000 O   0  0  0  0  0  0  0  0  0  0  0  0
    1.5000    0.0000    0.0000 C   0  0  0  0  0  0  0  0  0  0  0  0
    0.7500   -1.2990    0.0000 C   0  0  0  0  0  0  0  0  0  0  0  0
   -0.7500   -1.2990    0.0000 C   0  0  0  0  0  0  0  0  0  0  0  0
   -1.5000    0.0000    0.0000 C   0  0  0  0  0  0  0  0  0  0  0  0
   -0.7500    1.2990    0.0000 C   0  0  0  0  0  0  0  0  0  0  0  0
    0.7500    1.2990    0.0000 C   0  0  0  0  0  0  0  0  0  0  0  0
  1  2  1  0
  2  3  2  0
  2  4  1  0
  4  5  1  0
  5  6  2  0
  5  7  1  0
  7  8  2  0
  8  9  1  0
  9 10  1  0
 10 11  2  0
 11 12  1  0
 12  7  1  0
M  END
>  <Title>  (32) 
idAABFgen6

$$$$

     RDKit          2D

  6  6  0  0  0  0  0  0  0  0999 V2000
    1.5000    0.0000    0.0000 C   0  0  0  0  0  0  0  0  0  0  0  0
    0.7500   -1.2990    0.0000 C   0  0  0  0  0  0  0  0  0  0  0  0
   -0.7500   -1.2990    0.0000 C   0  0  0  0  0  0  0  0  0  0  0  0
   -1.5000    0.0000    0.0000 C   0  0  0  0  0  0  0  0  0  0  0  0
   -0.7500    1.2990    0.0000 C   0  0  0  0  0  0  0  0  0  0  0  0
    0.7500    1.2990    0.0000 C   0  0  0  0  0  0  0  0  0  0  0  0
  1  2  2  0
  2  3  1  0
  3  4  2  0
  4  5  1  0
  5  6  2  0
  6  1  1  0
M  END
>  <Title>  (33) 
idAABGgen6

$$$$

     RDKit          2D

 19 20  0  0  0  0  0  0  0  0999 V2000
    5.7760   -0.0000    0.0000 O   0  0  0  0  0  0  0  0  0  0  0  0
    5.0260    1.2990    0.0000 C   0  0  0  0  0  0  0  0  0  0  0  0
    5.7760    2.5981    0.0000 O   0  0  0  0  0  0  0  0  0  0  0  0
    3.5260    1.2990    0.0000 O   0  0  0  0  0  0  0  0  0  0  0  0
    2.7760    0.0000    0.0000 C   0  0  0  0  0  0  0  0  0  0  0  0
    1.2760    0.0000    0.0000 C   0  0  0  0  0  0  0  0  0  0  0  0
    0.3943    1.2135    0.0000 C   0  0  0  0  0  0  0  0  0  0  0  0
   -1.0323    0.7500    0.0000 C   0  0  0  0  0  0  0  0  0  0  0  0
   -1.0323   -0.7500    0.0000 C   0  0  0  0  0  0  0  0  0  0  0  0
    0.3943   -1.2135    0.0000 C   0  0  0  0  0  0  0  0  0  0  0  0
    0.8578   -2.6401    0.0000 C   0  0  0  0  0  0  0  0  0  0  0  0
    2.2844   -3.1036    0.0000 C   0  0  0  0  0  0  0  0  0  0  0  0
    2.2844   -4.6036    0.0000 C   0  0  0  0  0  0  0  0  0  0  0  0
    0.8578   -5.0672    0.0000 C   0  0  0  0  0  0  0  0  0  0  0  0
    0.3943   -6.4937    0.0000 C   0  0  0  0  0  0  0  0  0  0  0  0
    1.3980   -7.6085    0.0000 O   0  0  0  0  0  0  0  0  0  0  0  0
   -1.0729   -6.8056    0.0000 O   0  0  0  0  0  0  0  0  0  0  0  0
   -0.0239   -3.8536    0.0000 C   0  0  0  0  0  0  0  0  0  0  0  0
   -1.5239   -3.8536    0.0000 O   0  0  0  0  0  0  0  0  0  0  0  0
  1  2  2  0
  2  3  1  0
  2  4  1  0
  4  5  1  0
  5  6  1  0
  6  7  2  0
  7  8  1  0
  8  9  1  0
  9 10  2  0
 10 11  1  0
 11 12  2  0
 12 13  1  0
 13 14  2  0
 14 15  1  0
 15 16  2  0
 15 17  1  0
 14 18  1  0
 18 19  2  0
 10  6  1  0
 18 11  1  0
M  END
>  <Title>  (34) 
idAABHgen6

$$$$

     RDKit          2D

 11 11  0  0  0  0  0  0  0  0999 V2000
    4.2760   -0.0000    0.0000 C   0  0  0  0  0  0  0  0  0  0  0  0
    2.7760    0.0000    0.0000 C   0  0  0  0  0  0  0  0  0  0  0  0
    1.2760    0.0000    0.0000 C   0  0  0  0  0  0  0  0  0  0  0  0
    0.3943    1.2135    0.0000 C   0  0  0  0  0  0  0  0  0  0  0  0
    0.8578    2.6401    0.0000 C   0  0  0  0  0  0  0  0  0  0  0  0
   -0.1459    3.7548    0.0000 O   0  0  0  0  0  0  0  0  0  0  0  0
    2.3250    2.9520    0.0000 O   0  0  0  0  0  0  0  0  0  0  0  0
   -1.0323    0.7500    0.0000 C   0  0  0  0  0  0  0  0  0  0  0  0
   -2.2458    1.6317    0.0000 C   0  0  0  0  0  0  0  0  0  0  0  0
   -1.0323   -0.7500    0.0000 C   0  0  0  0  0  0  0  0  0  0  0  0
    0.3943   -1.2135    0.0000 C   0  0  0  0  0  0  0  0  0  0  0  0
  1  2  3  0
  2  3  1  0
  3  4  2  0
  4  5  1  0
  5  6  2  0
  5  7  1  0
  4  8  1  0
  8  9  1  0
  8 10  2  0
 10 11  1  0
 11  3  1  0
M  END
>  <Title>  (35) 
idAABIgen6

$$$$

     RDKit          2D

 20 21  0  0  0  0  0  0  0  0999 V2000
   -7.8555   -8.9814    0.0000 C   0  0  0  0  0  0  0  0  0  0  0  0
   -6.4289   -8.5179    0.0000 C   0  0  0  0  0  0  0  0  0  0  0  0
   -5.3142   -9.5216    0.0000 O   0  0  0  0  0  0  0  0  0  0  0  0
   -6.1170   -7.0506    0.0000 O   0  0  0  0  0  0  0  0  0  0  0  0
   -4.6904   -6.5871    0.0000 C   0  0  0  0  0  0  0  0  0  0  0  0
   -3.5757   -7.5908    0.0000 O   0  0  0  0  0  0  0  0  0  0  0  0
   -4.3786   -5.1199    0.0000 C   0  0  0  0  0  0  0  0  0  0  0  0
   -2.9520   -4.6564    0.0000 N   0  0  0  0  0  0  0  0  0  0  0  0
   -2.6401   -3.1891    0.0000 C   0  0  0  0  0  0  0  0  0  0  0  0
   -3.7548   -2.1855    0.0000 O   0  0  0  0  0  0  0  0  0  0  0  0
   -1.2135   -2.7256    0.0000 C   0  0  0  0  0  0  0  0  0  0  0  0
   -0.0000   -3.6073    0.0000 C   0  0  0  0  0  0  0  0  0  0  0  0
    1.2135   -2.7256    0.0000 C   0  0  0  0  0  0  0  0  0  0  0  0
    2.6401   -3.1891    0.0000 C   0  0  0  0  0  0  0  0  0  0  0  0
    0.7500   -1.2990    0.0000 C   0  0  0  0  0  0  0  0  0  0  0  0
    1.5000    0.0000    0.0000 C   0  0  0  0  0  0  0  0  0  0  0  0
    0.7500    1.2990    0.0000 C   0  0  0  0  0  0  0  0  0  0  0  0
   -0.7500    1.2990    0.0000 C   0  0  0  0  0  0  0  0  0  0  0  0
   -1.5000    0.0000    0.0000 C   0  0  0  0  0  0  0  0  0  0  0  0
   -0.7500   -1.2990    0.0000 C   0  0  0  0  0  0  0  0  0  0  0  0
  1  2  1  0
  2  3  2  0
  2  4  1  0
  4  5  1  0
  5  6  2  0
  5  7  1  0
  7  8  1  0
  8  9  1  0
  9 10  2  0
  9 11  1  0
 11 12  1  0
 12 13  2  0
 13 14  1  0
 13 15  1  0
 15 16  2  0
 16 17  1  0
 17 18  2  0
 18 19  1  0
 19 20  2  0
 20 11  1  0
 20 15  1  0
M  END
>  <Title>  (36) 
idAABJgen6

$$$$

     RDKit          2D

  6  6  0  0  0  0  0  0  0  0999 V2000
    1.5000    0.0000    0.0000 C   0  0  0  0  0  0  0  0  0  0  0  0
    0.7500   -1.2990    0.0000 C   0  0  0  0  0  0  0  0  0  0  0  0
   -0.7500   -1.2990    0.0000 C   0  0  0  0  0  0  0  0  0  0  0  0
   -1.5000    0.0000    0.0000 C   0  0  0  0  0  0  0  0  0  0  0  0
   -0.7500    1.2990    0.0000 C   0  0  0  0  0  0  0  0  0  0  0  0
    0.7500    1.2990    0.0000 C   0  0  0  0  0  0  0  0  0  0  0  0
  1  2  2  0
  2  3  1  0
  3  4  2  0
  4  5  1  0
  5  6  2  0
  6  1  1  0
M  END
>  <Title>  (37) 
idAABKgen6

$$$$

     RDKit          2D

  7  7  0  0  0  0  0  0  0  0999 V2000
    3.5260   -1.2990    0.0000 C   0  0  0  0  0  0  0  0  0  0  0  0
    2.7760    0.0000    0.0000 O   0  0  0  0  0  0  0  0  0  0  0  0
    1.2760    0.0000    0.0000 C   0  0  0  0  0  0  0  0  0  0  0  0
    0.3943    1.2135    0.0000 C   0  0  0  0  0  0  0  0  0  0  0  0
   -1.0323    0.7500    0.0000 C   0  0  0  0  0  0  0  0  0  0  0  0
   -1.0323   -0.7500    0.0000 C   0  0  0  0  0  0  0  0  0  0  0  0
    0.3943   -1.2135    0.0000 C   0  0  0  0  0  0  0  0  0  0  0  0
  1  2  1  0
  2  3  1  0
  3  4  2  0
  4  5  1  0
  5  6  1  0
  6  7  2  0
  7  3  1  0
M  END
>  <Title>  (38) 
idAABLgen6

$$$$

     RDKit          2D

  6  6  0  0  0  0  0  0  0  0999 V2000
    1.5000    0.0000    0.0000 C   0  0  0  0  0  0  0  0  0  0  0  0
    0.7500   -1.2990    0.0000 C   0  0  0  0  0  0  0  0  0  0  0  0
   -0.7500   -1.2990    0.0000 C   0  0  0  0  0  0  0  0  0  0  0  0
   -1.5000    0.0000    0.0000 C   0  0  0  0  0  0  0  0  0  0  0  0
   -0.7500    1.2990    0.0000 C   0  0  0  0  0  0  0  0  0  0  0  0
    0.7500    1.2990    0.0000 C   0  0  0  0  0  0  0  0  0  0  0  0
  1  2  2  0
  2  3  1  0
  3  4  2  0
  4  5  1  0
  5  6  2  0
  6  1  1  0
M  END
>  <Title>  (39) 
idAABMgen6

$$$$

     RDKit          2D

  7  7  0  0  0  0  0  0  0  0999 V2000
    3.5260   -1.2990    0.0000 C   0  0  0  0  0  0  0  0  0  0  0  0
    2.7760    0.0000    0.0000 O   0  0  0  0  0  0  0  0  0  0  0  0
    1.2760    0.0000    0.0000 C   0  0  0  0  0  0  0  0  0  0  0  0
    0.3943    1.2135    0.0000 C   0  0  0  0  0  0  0  0  0  0  0  0
   -1.0323    0.7500    0.0000 C   0  0  0  0  0  0  0  0  0  0  0  0
   -1.0323   -0.7500    0.0000 C   0  0  0  0  0  0  0  0  0  0  0  0
    0.3943   -1.2135    0.0000 C   0  0  0  0  0  0  0  0  0  0  0  0
  1  2  1  0
  2  3  1  0
  3  4  2  0
  4  5  1  0
  5  6  2  0
  6  7  1  0
  7  3  1  0
M  END
>  <Title>  (40) 
idAABNgen6

$$$$

     RDKit          2D

  7  7  0  0  0  0  0  0  0  0999 V2000
    3.5260   -1.2990    0.0000 C   0  0  0  0  0  0  0  0  0  0  0  0
    2.7760    0.0000    0.0000 O   0  0  0  0  0  0  0  0  0  0  0  0
    1.2760    0.0000    0.0000 C   0  0  0  0  0  0  0  0  0  0  0  0
    0.3943    1.2135    0.0000 C   0  0  0  0  0  0  0  0  0  0  0  0
   -1.0323    0.7500    0.0000 C   0  0  0  0  0  0  0  0  0  0  0  0
   -1.0323   -0.7500    0.0000 C   0  0  0  0  0  0  0  0  0  0  0  0
    0.3943   -1.2135    0.0000 C   0  0  0  0  0  0  0  0  0  0  0  0
  1  2  1  0
  2  3  1  0
  3  4  2  0
  4  5  1  0
  5  6  2  0
  6  7  1  0
  7  3  1  0
M  END
>  <Title>  (41) 
idAABOgen6

$$$$

     RDKit          2D

 27 30  0  0  0  0  0  0  0  0999 V2000
   -0.7500   -3.8971    0.0000 O   0  0  0  0  0  0  0  0  0  0  0  0
    0.7500   -3.8971    0.0000 C   0  0  0  0  0  0  0  0  0  0  0  0
    1.5000   -2.5981    0.0000 N   0  0  0  0  0  0  0  0  0  0  0  0
    0.7500   -1.2990    0.0000 C   0  0  0  0  0  0  0  0  0  0  0  0
    1.5000    0.0000    0.0000 N   0  0  0  0  0  0  0  0  0  0  0  0
    0.7500    1.2990    0.0000 N   0  0  0  0  0  0  0  0  0  0  0  0
   -0.7500    1.2990    0.0000 N   0  0  0  0  0  0  0  0  0  0  0  0
   -1.5000    0.0000    0.0000 N   0  0  0  0  0  0  0  0  0  0  0  0
   -0.7500   -1.2990    0.0000 N   0  0  0  0  0  0  0  0  0  0  0  0
    1.5000   -5.1962    0.0000 C   0  0  0  0  0  0  0  0  0  0  0  0
    3.0000   -5.1962    0.0000 O   0  0  0  0  0  0  0  0  0  0  0  0
    0.7500   -6.4952    0.0000 N   0  0  0  0  0  0  0  0  0  0  0  0
   -0.7500   -6.4952    0.0000 C   0  0  0  0  0  0  0  0  0  0  0  0
   -1.5000   -7.7942    0.0000 C   0  0  0  0  0  0  0  0  0  0  0  0
   -0.7500   -9.0933    0.0000 C   0  0  0  0  0  0  0  0  0  0  0  0
   -1.5000  -10.3923    0.0000 C   0  0  0  0  0  0  0  0  0  0  0  0
   -0.8899  -11.7626    0.0000 C   0  0  0  0  0  0  0  0  0  0  0  0
   -2.0046  -12.7663    0.0000 C   0  0  0  0  0  0  0  0  0  0  0  0
   -3.3037  -12.0163    0.0000 C   0  0  0  0  0  0  0  0  0  0  0  0
   -4.6740  -12.6264    0.0000 C   0  0  0  0  0  0  0  0  0  0  0  0
   -4.9858  -14.0936    0.0000 C   0  0  0  0  0  0  0  0  0  0  0  0
   -6.4776  -14.2504    0.0000 C   0  0  0  0  0  0  0  0  0  0  0  0
   -7.0877  -12.8801    0.0000 C   0  0  0  0  0  0  0  0  0  0  0  0
   -5.9730  -11.8764    0.0000 C   0  0  0  0  0  0  0  0  0  0  0  0
   -2.9918  -10.5491    0.0000 C   0  0  0  0  0  0  0  0  0  0  0  0
    0.7500   -9.0933    0.0000 C   0  0  0  0  0  0  0  0  0  0  0  0
    1.5000   -7.7942    0.0000 C   0  0  0  0  0  0  0  0  0  0  0  0
  1  2  2  0
  2  3  1  0
  3  4  1  0
  4  5  2  0
  5  6  1  0
  6  7  2  0
  7  8  1  0
  8  9  2  0
  2 10  1  0
 10 11  2  0
 10 12  1  0
 12 13  1  0
 13 14  1  0
 14 15  1  0
 15 16  1  0
 16 17  1  0
 17 18  1  0
 18 19  1  0
 19 20  1  0
 20 21  2  0
 21 22  1  0
 22 23  1  0
 23 24  1  0
 19 25  1  0
 15 26  1  0
 26 27  1  0
  9  4  1  0
 27 12  1  0
 25 16  1  0
 24 20  1  0
M  END
>  <Title>  (42) 
idAABPgen6

$$$$

     RDKit          2D

 26 28  0  0  0  0  0  0  0  0999 V2000
    3.0000    0.0000    0.0000 C   0  0  0  0  0  0  0  0  0  0  0  0
    1.5000    0.0000    0.0000 C   0  0  0  0  0  0  0  0  0  0  0  0
    0.7500   -1.2990    0.0000 C   0  0  0  0  0  0  0  0  0  0  0  0
    1.5000   -2.5981    0.0000 C   0  0  0  0  0  0  0  0  0  0  0  0
    3.0000   -2.5981    0.0000 O   0  0  0  0  0  0  0  0  0  0  0  0
    0.7500   -3.8971    0.0000 O   0  0  0  0  0  0  0  0  0  0  0  0
    1.5000   -5.1962    0.0000 C   0  0  0  0  0  0  0  0  0  0  0  0
    0.7500   -6.4952    0.0000 C   0  0  0  0  0  0  0  0  0  0  0  0
    1.3601   -7.8655    0.0000 C   0  0  0  0  0  0  0  0  0  0  0  0
    0.2454   -8.8692    0.0000 C   0  0  0  0  0  0  0  0  0  0  0  0
   -1.0537   -8.1192    0.0000 C   0  0  0  0  0  0  0  0  0  0  0  0
   -0.7418   -6.6520    0.0000 C   0  0  0  0  0  0  0  0  0  0  0  0
   -1.7455   -5.5373    0.0000 C   0  0  0  0  0  0  0  0  0  0  0  0
   -3.2373   -5.6941    0.0000 C   0  0  0  0  0  0  0  0  0  0  0  0
   -3.8474   -4.3237    0.0000 C   0  0  0  0  0  0  0  0  0  0  0  0
   -2.7326   -3.3200    0.0000 C   0  0  0  0  0  0  0  0  0  0  0  0
   -2.8894   -1.8283    0.0000 C   0  0  0  0  0  0  0  0  0  0  0  0
   -1.6759   -0.9466    0.0000 O   0  0  0  0  0  0  0  0  0  0  0  0
   -4.2598   -1.2182    0.0000 O   0  0  0  0  0  0  0  0  0  0  0  0
   -1.4336   -4.0700    0.0000 C   0  0  0  0  0  0  0  0  0  0  0  0
   -0.0633   -3.4599    0.0000 O   0  0  0  0  0  0  0  0  0  0  0  0
   -0.7500   -1.2990    0.0000 N   0  0  0  0  0  0  0  0  0  0  0  0
   -1.5000    0.0000    0.0000 C   0  0  0  0  0  0  0  0  0  0  0  0
   -3.0000    0.0000    0.0000 O   0  0  0  0  0  0  0  0  0  0  0  0
   -0.7500    1.2990    0.0000 C   0  0  0  0  0  0  0  0  0  0  0  0
    0.7500    1.2990    0.0000 C   0  0  0  0  0  0  0  0  0  0  0  0
  1  2  1  0
  2  3  2  0
  3  4  1  0
  4  5  2  0
  4  6  1  0
  6  7  1  0
  7  8  1  0
  8  9  2  0
  9 10  1  0
 10 11  1  0
 11 12  2  0
 12 13  1  0
 13 14  2  0
 14 15  1  0
 15 16  2  0
 16 17  1  0
 17 18  2  0
 17 19  1  0
 16 20  1  0
 20 21  2  0
  3 22  1  0
 22 23  1  0
 23 24  2  0
 23 25  1  0
 25 26  1  0
 26  2  1  0
 12  8  1  0
 20 13  1  0
M  END
>  <Title>  (43) 
idAABQgen6

$$$$

     RDKit          2D

 14 16  0  0  0  0  0  0  0  0999 V2000
    2.5126   -4.9756    0.0000 C   0  0  0  0  0  0  0  0  0  0  0  0
    1.2135   -4.2256    0.0000 N   0  0  0  0  0  0  0  0  0  0  0  0
   -0.0855   -4.9756    0.0000 C   0  0  0  0  0  0  0  0  0  0  0  0
   -1.3846   -4.2256    0.0000 C   0  0  0  0  0  0  0  0  0  0  0  0
   -1.2135   -2.7256    0.0000 C   0  0  0  0  0  0  0  0  0  0  0  0
   -0.0000   -3.6073    0.0000 C   0  0  0  0  0  0  0  0  0  0  0  0
   -0.1929   -4.3808    0.0000 O   0  0  0  0  0  0  0  0  0  0  0  0
    1.2135   -2.7256    0.0000 N   0  0  0  0  0  0  0  0  0  0  0  0
    0.7500   -1.2990    0.0000 C   0  0  0  0  0  0  0  0  0  0  0  0
    1.5000    0.0000    0.0000 C   0  0  0  0  0  0  0  0  0  0  0  0
    0.7500    1.2990    0.0000 C   0  0  0  0  0  0  0  0  0  0  0  0
   -0.7500    1.2990    0.0000 C   0  0  0  0  0  0  0  0  0  0  0  0
   -1.5000    0.0000    0.0000 C   0  0  0  0  0  0  0  0  0  0  0  0
   -0.7500   -1.2990    0.0000 C   0  0  0  0  0  0  0  0  0  0  0  0
  1  2  1  0
  2  3  1  0
  3  4  1  0
  4  5  1  0
  5  6  1  0
  6  7  2  0
  6  8  1  0
  8  9  1  0
  9 10  2  0
 10 11  1  0
 11 12  2  0
 12 13  1  0
 13 14  2  0
  8  2  1  0
 14  9  1  0
 14  5  1  0
M  END
>  <Title>  (44) 
idAABRgen6

$$$$

     RDKit          2D

 10 10  0  0  0  0  0  0  0  0999 V2000
    4.5000   -2.5981    0.0000 C   0  0  0  0  0  0  0  0  0  0  0  0
    3.7500   -1.2990    0.0000 C   0  0  0  0  0  0  0  0  0  0  0  0
    3.0000    0.0000    0.0000 C   0  0  0  0  0  0  0  0  0  0  0  0
    3.7500    1.2990    0.0000 O   0  0  0  0  0  0  0  0  0  0  0  0
    1.5000    0.0000    0.0000 C   0  0  0  0  0  0  0  0  0  0  0  0
    0.7500   -1.2990    0.0000 C   0  0  0  0  0  0  0  0  0  0  0  0
   -0.7500   -1.2990    0.0000 C   0  0  0  0  0  0  0  0  0  0  0  0
   -1.5000    0.0000    0.0000 C   0  0  0  0  0  0  0  0  0  0  0  0
   -0.7500    1.2990    0.0000 C   0  0  0  0  0  0  0  0  0  0  0  0
    0.7500    1.2990    0.0000 C   0  0  0  0  0  0  0  0  0  0  0  0
  1  2  3  0
  2  3  1  0
  3  4  2  0
  3  5  1  0
  5  6  2  0
  6  7  1  0
  7  8  2  0
  8  9  1  0
  9 10  2  0
 10  5  1  0
M  END
>  <Title>  (45) 
idAABSgen6

$$$$

     RDKit          2D

  5  5  0  0  0  0  0  0  0  0999 V2000
    1.2760    0.0000    0.0000 C   0  0  0  0  0  0  0  0  0  0  0  0
    0.3943    1.2135    0.0000 C   0  0  0  0  0  0  0  0  0  0  0  0
   -1.0323    0.7500    0.0000 C   0  0  0  0  0  0  0  0  0  0  0  0
   -1.0323   -0.7500    0.0000 C   0  0  0  0  0  0  0  0  0  0  0  0
    0.3943   -1.2135    0.0000 C   0  0  0  0  0  0  0  0  0  0  0  0
  1  2  2  0
  2  3  1  0
  3  4  1  0
  4  5  2  0
  5  1  1  0
M  END
>  <Title>  (46) 
idAABTgen6

$$$$

     RDKit          2D

  5  5  0  0  0  0  0  0  0  0999 V2000
    1.2760    0.0000    0.0000 C   0  0  0  0  0  0  0  0  0  0  0  0
    0.3943    1.2135    0.0000 C   0  0  0  0  0  0  0  0  0  0  0  0
   -1.0323    0.7500    0.0000 C   0  0  0  0  0  0  0  0  0  0  0  0
   -1.0323   -0.7500    0.0000 C   0  0  0  0  0  0  0  0  0  0  0  0
    0.3943   -1.2135    0.0000 C   0  0  0  0  0  0  0  0  0  0  0  0
  1  2  2  0
  2  3  1  0
  3  4  1  0
  4  5  2  0
  5  1  1  0
M  END
>  <Title>  (47) 
idAABUgen6

$$$$

     RDKit          2D

  9  9  0  0  0  0  0  0  0  0999 V2000
    7.2760   -0.0000    0.0000 C   0  0  0  0  0  0  0  0  0  0  0  0
    5.7760   -0.0000    0.0000 C   0  0  0  0  0  0  0  0  0  0  0  0
    4.2760   -0.0000    0.0000 C   0  0  0  0  0  0  0  0  0  0  0  0
    2.7760    0.0000    0.0000 C   0  0  0  0  0  0  0  0  0  0  0  0
    1.2760    0.0000    0.0000 C   0  0  0  0  0  0  0  0  0  0  0  0
    0.3943    1.2135    0.0000 C   0  0  0  0  0  0  0  0  0  0  0  0
   -1.0323    0.7500    0.0000 C   0  0  0  0  0  0  0  0  0  0  0  0
   -1.0323   -0.7500    0.0000 C   0  0  0  0  0  0  0  0  0  0  0  0
    0.3943   -1.2135    0.0000 C   0  0  0  0  0  0  0  0  0  0  0  0
  1  2  3  0
  2  3  1  0
  3  4  3  0
  4  5  1  0
  5  6  2  0
  6  7  1  0
  7  8  2  0
  8  9  1  0
  9  5  1  0
M  END
>  <Title>  (48) 
idAABVgen6

$$$$

     RDKit          2D

 14 15  0  0  0  0  0  0  0  0999 V2000
    3.5260    1.2990    0.0000 O   0  0  0  0  0  0  0  0  0  0  0  0
    2.7760    0.0000    0.0000 C   0  0  0  0  0  0  0  0  0  0  0  0
    3.5260   -1.2990    0.0000 O   0  0  0  0  0  0  0  0  0  0  0  0
    1.2760    0.0000    0.0000 C   0  0  0  0  0  0  0  0  0  0  0  0
    0.3943    1.2135    0.0000 C   0  0  0  0  0  0  0  0  0  0  0  0
   -1.0323    0.7500    0.0000 C   0  0  0  0  0  0  0  0  0  0  0  0
   -1.0323   -0.7500    0.0000 C   0  0  0  0  0  0  0  0  0  0  0  0
   -2.2458   -1.6317    0.0000 C   0  0  0  0  0  0  0  0  0  0  0  0
   -2.2458   -3.1317    0.0000 C   0  0  0  0  0  0  0  0  0  0  0  0
   -3.6724   -3.5952    0.0000 C   0  0  0  0  0  0  0  0  0  0  0  0
   -4.5541   -2.3817    0.0000 C   0  0  0  0  0  0  0  0  0  0  0  0
   -3.6724   -1.1682    0.0000 C   0  0  0  0  0  0  0  0  0  0  0  0
    0.3943   -1.2135    0.0000 C   0  0  0  0  0  0  0  0  0  0  0  0
    0.8578   -2.6401    0.0000 O   0  0  0  0  0  0  0  0  0  0  0  0
  1  2  2  0
  2  3  1  0
  2  4  1  0
  4  5  2  0
  5  6  1  0
  6  7  2  0
  7  8  1  0
  8  9  2  0
  9 10  1  0
 10 11  2  0
 11 12  1  0
  7 13  1  0
 13 14  2  0
 13  4  1  0
 12  8  1  0
M  END
>  <Title>  (49) 
idAABWgen6

$$$$

     RDKit          2D

 21 22  0  0  0  0  0  0  0  0999 V2000
    0.7500   -6.4952    0.0000 C   0  0  0  0  0  0  0  0  0  0  0  0
    1.5000   -5.1962    0.0000 C   0  0  0  0  0  0  0  0  0  0  0  0
    3.0000   -5.1962    0.0000 O   0  0  0  0  0  0  0  0  0  0  0  0
    0.7500   -3.8971    0.0000 C   0  0  0  0  0  0  0  0  0  0  0  0
    1.5000   -2.5981    0.0000 C   0  0  0  0  0  0  0  0  0  0  0  0
    0.7500   -1.2990    0.0000 C   0  0  0  0  0  0  0  0  0  0  0  0
    1.5000    0.0000    0.0000 C   0  0  0  0  0  0  0  0  0  0  0  0
    0.7500    1.2990    0.0000 C   0  0  0  0  0  0  0  0  0  0  0  0
   -0.7500    1.2990    0.0000 C   0  0  0  0  0  0  0  0  0  0  0  0
   -1.5000    2.5981    0.0000 C   0  0  0  0  0  0  0  0  0  0  0  0
   -1.5000    0.0000    0.0000 C   0  0  0  0  0  0  0  0  0  0  0  0
   -0.7500   -1.2990    0.0000 C   0  0  0  0  0  0  0  0  0  0  0  0
   -0.7500   -3.8971    0.0000 N   0  0  0  0  0  0  0  0  0  0  0  0
   -1.5000   -5.1962    0.0000 C   0  0  0  0  0  0  0  0  0  0  0  0
   -0.7500   -6.4952    0.0000 O   0  0  0  0  0  0  0  0  0  0  0  0
   -3.0000   -5.1962    0.0000 C   0  0  0  0  0  0  0  0  0  0  0  0
   -3.8817   -6.4097    0.0000 C   0  0  0  0  0  0  0  0  0  0  0  0
   -5.3083   -5.9462    0.0000 C   0  0  0  0  0  0  0  0  0  0  0  0
   -5.3083   -4.4462    0.0000 C   0  0  0  0  0  0  0  0  0  0  0  0
   -6.5218   -3.5645    0.0000 O   0  0  0  0  0  0  0  0  0  0  0  0
   -3.8817   -3.9826    0.0000 N   0  0  0  0  0  0  0  0  0  0  0  0
  1  2  1  0
  2  3  2  0
  2  4  1  0
  4  5  1  0
  5  6  1  0
  6  7  2  0
  7  8  1  0
  8  9  2  0
  9 10  1  0
  9 11  1  0
 11 12  1  0
  4 13  1  0
 13 14  1  0
 14 15  2  0
 14 16  1  0
 16 17  2  0
 17 18  1  0
 18 19  1  0
 19 20  2  0
 19 21  1  0
 12  6  1  0
 21 16  1  0
M  END
>  <Title>  (50) 
idAABXgen6

$$$$

     RDKit          2D

 13 13  0  0  0  0  0  0  0  0999 V2000
    4.3978    0.0000    0.0000 C   0  0  0  0  0  0  0  0  0  0  0  0
    2.8978    0.0000    0.0000 C   0  0  0  0  0  0  0  0  0  0  0  0
    2.5095   -1.4489    0.0000 C   0  0  0  0  0  0  0  0  0  0  0  0
    1.4489   -2.5095    0.0000 C   0  0  0  0  0  0  0  0  0  0  0  0
   -0.0000   -2.8978    0.0000 C   0  0  0  0  0  0  0  0  0  0  0  0
   -1.4489   -2.5095    0.0000 C   0  0  0  0  0  0  0  0  0  0  0  0
   -2.5095   -1.4489    0.0000 C   0  0  0  0  0  0  0  0  0  0  0  0
   -2.8978    0.0000    0.0000 C   0  0  0  0  0  0  0  0  0  0  0  0
   -2.5095    1.4489    0.0000 C   0  0  0  0  0  0  0  0  0  0  0  0
   -1.4489    2.5095    0.0000 C   0  0  0  0  0  0  0  0  0  0  0  0
    0.0000    2.8978    0.0000 C   0  0  0  0  0  0  0  0  0  0  0  0
    1.4489    2.5095    0.0000 C   0  0  0  0  0  0  0  0  0  0  0  0
    2.5095    1.4489    0.0000 C   0  0  0  0  0  0  0  0  0  0  0  0
  1  2  1  0
  2  3  1  0
  3  4  2  0
  4  5  1  0
  5  6  1  0
  6  7  1  0
  7  8  1  0
  8  9  1  0
  9 10  1  0
 10 11  1  0
 11 12  1  0
 12 13  1  0
 13  2  1  0
M  END
>  <Title>  (51) 
idAAAAgen6

$$$$

     RDKit          2D

  7  7  0  0  0  0  0  0  0  0999 V2000
    3.0000    0.0000    0.0000 C   0  0  0  0  0  0  0  0  0  0  0  0
    1.5000    0.0000    0.0000 C   0  0  0  0  0  0  0  0  0  0  0  0
    0.7500   -1.2990    0.0000 C   0  0  0  0  0  0  0  0  0  0  0  0
   -0.7500   -1.2990    0.0000 C   0  0  0  0  0  0  0  0  0  0  0  0
   -1.5000    0.0000    0.0000 C   0  0  0  0  0  0  0  0  0  0  0  0
   -0.7500    1.2990    0.0000 C   0  0  0  0  0  0  0  0  0  0  0  0
    0.7500    1.2990    0.0000 C   0  0  0  0  0  0  0  0  0  0  0  0
  1  2  1  0
  2  3  1  0
  3  4  2  0
  4  5  1  0
  5  6  1  0
  6  7  1  0
  7  2  1  0
M  END
>  <Title>  (52) 
idAAABgen6

$$$$

     RDKit          2D

 14 14  0  0  0  0  0  0  0  0999 V2000
    7.5000   -0.0000    0.0000 C   0  0  0  0  0  0  0  0  0  0  0  0
    6.0000    0.0000    0.0000 C   0  0  0  0  0  0  0  0  0  0  0  0
    5.2500    1.2990    0.0000 O   0  0  0  0  0  0  0  0  0  0  0  0
    5.2500   -1.2990    0.0000 C   0  0  0  0  0  0  0  0  0  0  0  0
    6.0000   -2.5981    0.0000 C   0  0  0  0  0  0  0  0  0  0  0  0
    3.7500   -1.2990    0.0000 N   0  0  0  0  0  0  0  0  0  0  0  0
    3.0000    0.0000    0.0000 C   0  0  0  0  0  0  0  0  0  0  0  0
    3.7500    1.2990    0.0000 O   0  0  0  0  0  0  0  0  0  0  0  0
    1.5000    0.0000    0.0000 C   0  0  0  0  0  0  0  0  0  0  0  0
    0.7500   -1.2990    0.0000 C   0  0  0  0  0  0  0  0  0  0  0  0
   -0.7500   -1.2990    0.0000 C   0  0  0  0  0  0  0  0  0  0  0  0
   -1.5000    0.0000    0.0000 C   0  0  0  0  0  0  0  0  0  0  0  0
   -0.7500    1.2990    0.0000 C   0  0  0  0  0  0  0  0  0  0  0  0
    0.7500    1.2990    0.0000 C   0  0  0  0  0  0  0  0  0  0  0  0
  1  2  1  0
  2  3  2  0
  2  4  1  0
  4  5  1  0
  4  6  1  0
  6  7  1  0
  7  8  2  0
  7  9  1  0
  9 10  2  0
 10 11  1  0
 11 12  2  0
 12 13  1  0
 13 14  2  0
 14  9  1  0
M  END
>  <Title>  (53) 
idAAACgen6

$$$$

     RDKit          2D

 18 20  0  0  0  0  0  0  0  0999 V2000
    3.0000    0.0000    0.0000 C   0  0  0  0  0  0  0  0  0  0  0  0
    1.5000    0.0000    0.0000 C   0  0  0  0  0  0  0  0  0  0  0  0
    0.7500   -1.2990    0.0000 C   0  0  0  0  0  0  0  0  0  0  0  0
   -0.7500   -1.2990    0.0000 C   0  0  0  0  0  0  0  0  0  0  0  0
   -1.5000    0.0000    0.0000 C   0  0  0  0  0  0  0  0  0  0  0  0
   -3.0000    0.0000    0.0000 N   0  0  0  0  0  0  0  0  0  0  0  0
   -3.8817   -1.2135    0.0000 C   0  0  0  0  0  0  0  0  0  0  0  0
   -5.3083   -0.7500    0.0000 C   0  0  0  0  0  0  0  0  0  0  0  0
   -5.3083    0.7500    0.0000 C   0  0  0  0  0  0  0  0  0  0  0  0
   -6.5218    1.6317    0.0000 C   0  0  0  0  0  0  0  0  0  0  0  0
   -6.3650    3.1235    0.0000 C   0  0  0  0  0  0  0  0  0  0  0  0
   -7.5785    4.0051    0.0000 C   0  0  0  0  0  0  0  0  0  0  0  0
   -8.9488    3.3950    0.0000 C   0  0  0  0  0  0  0  0  0  0  0  0
   -9.1056    1.9033    0.0000 C   0  0  0  0  0  0  0  0  0  0  0  0
   -7.8921    1.0216    0.0000 C   0  0  0  0  0  0  0  0  0  0  0  0
   -3.8817    1.2135    0.0000 C   0  0  0  0  0  0  0  0  0  0  0  0
   -0.7500    1.2990    0.0000 O   0  0  0  0  0  0  0  0  0  0  0  0
    0.7500    1.2990    0.0000 C   0  0  0  0  0  0  0  0  0  0  0  0
  1  2  1  0
  2  3  2  0
  3  4  1  0
  4  5  2  0
  5  6  1  0
  6  7  1  0
  7  8  1  0
  8  9  1  0
  9 10  1  0
 10 11  2  0
 11 12  1  0
 12 13  2  0
 13 14  1  0
 14 15  2  0
  9 16  1  0
  5 17  1  0
 17 18  1  0
 18  2  1  0
 16  6  1  0
 15 10  1  0
M  END
>  <Title>  (54) 
idAAADgen6

$$$$

     RDKit          2D

  9  9  0  0  0  0  0  0  0  0999 V2000
    2.7760    0.0000    0.0000 C   0  0  0  0  0  0  0  0  0  0  0  0
    1.2760    0.0000    0.0000 C   0  0  0  0  0  0  0  0  0  0  0  0
    0.3943    1.2135    0.0000 C   0  0  0  0  0  0  0  0  0  0  0  0
   -1.0323    0.7500    0.0000 C   0  0  0  0  0  0  0  0  0  0  0  0
   -1.0323   -0.7500    0.0000 C   0  0  0  0  0  0  0  0  0  0  0  0
   -2.2458   -1.6317    0.0000 C   0  0  0  0  0  0  0  0  0  0  0  0
   -2.0890   -3.1235    0.0000 O   0  0  0  0  0  0  0  0  0  0  0  0
   -3.6161   -1.0216    0.0000 O   0  0  0  0  0  0  0  0  0  0  0  0
    0.3943   -1.2135    0.0000 C   0  0  0  0  0  0  0  0  0  0  0  0
  1  2  1  0
  2  3  1  0
  3  4  1  0
  4  5  1  0
  5  6  1  0
  6  7  2  0
  6  8  1  0
  5  9  1  0
  9  2  1  0
M  END
>  <Title>  (55) 
idAAAEgen6

$$$$

     RDKit          2D

 21 23  0  0  0  0  0  0  0  0999 V2000
   -0.7500   -3.8971    0.0000 O   0  0  0  0  0  0  0  0  0  0  0  0
    0.7500   -3.8971    0.0000 C   0  0  0  0  0  0  0  0  0  0  0  0
    1.5000   -2.5981    0.0000 N   0  0  0  0  0  0  0  0  0  0  0  0
    0.7500   -1.2990    0.0000 C   0  0  0  0  0  0  0  0  0  0  0  0
    1.5000    0.0000    0.0000 C   0  0  0  0  0  0  0  0  0  0  0  0
    0.7500    1.2990    0.0000 C   0  0  0  0  0  0  0  0  0  0  0  0
   -0.7500    1.2990    0.0000 C   0  0  0  0  0  0  0  0  0  0  0  0
   -1.5000    0.0000    0.0000 C   0  0  0  0  0  0  0  0  0  0  0  0
   -0.7500   -1.2990    0.0000 C   0  0  0  0  0  0  0  0  0  0  0  0
    1.5000   -5.1962    0.0000 N   0  0  0  0  0  0  0  0  0  0  0  0
    0.7500   -6.4952    0.0000 C   0  0  0  0  0  0  0  0  0  0  0  0
    1.5000   -7.7942    0.0000 C   0  0  0  0  0  0  0  0  0  0  0  0
    3.0000   -7.7942    0.0000 C   0  0  0  0  0  0  0  0  0  0  0  0
    3.7500   -9.0933    0.0000 C   0  0  0  0  0  0  0  0  0  0  0  0
    3.0000  -10.3923    0.0000 C   0  0  0  0  0  0  0  0  0  0  0  0
    3.7500  -11.6913    0.0000 C   0  0  0  0  0  0  0  0  0  0  0  0
    5.2500  -11.6913    0.0000 C   0  0  0  0  0  0  0  0  0  0  0  0
    6.0000  -10.3923    0.0000 C   0  0  0  0  0  0  0  0  0  0  0  0
    5.2500   -9.0933    0.0000 C   0  0  0  0  0  0  0  0  0  0  0  0
    3.7500   -6.4952    0.0000 C   0  0  0  0  0  0  0  0  0  0  0  0
    3.0000   -5.1962    0.0000 C   0  0  0  0  0  0  0  0  0  0  0  0
  1  2  2  0
  2  3  1  0
  3  4  1  0
  4  5  2  0
  5  6  1  0
  6  7  2  0
  7  8  1  0
  8  9  2  0
  2 10  1  0
 10 11  1  0
 11 12  1  0
 12 13  1  0
 13 14  1  0
 14 15  2  0
 15 16  1  0
 16 17  2  0
 17 18  1  0
 18 19  2  0
 13 20  1  0
 20 21  1  0
  9  4  1  0
 21 10  1  0
 19 14  1  0
M  END
>  <Title>  (56) 
idAAAFgen6

$$$$

     RDKit          2D

 26 29  0  0  0  0  0  0  0  0999 V2000
   -3.7500   -3.8971    0.0000 C   0  0  0  0  0  0  0  0  0  0  0  0
   -3.0000   -2.5981    0.0000 O   0  0  0  0  0  0  0  0  0  0  0  0
   -1.5000   -2.5981    0.0000 C   0  0  0  0  0  0  0  0  0  0  0  0
   -0.7500   -3.8971    0.0000 C   0  0  0  0  0  0  0  0  0  0  0  0
    0.7500   -3.8971    0.0000 C   0  0  0  0  0  0  0  0  0  0  0  0
    1.5000   -2.5981    0.0000 C   0  0  0  0  0  0  0  0  0  0  0  0
    3.0000   -2.5981    0.0000 N   0  0  0  0  0  0  0  0  0  0  0  0
    3.7500   -3.8971    0.0000 C   0  0  0  0  0  0  0  0  0  0  0  0
    5.2500   -3.8971    0.0000 C   0  0  0  0  0  0  0  0  0  0  0  0
    6.0000   -2.5981    0.0000 N   0  0  0  0  0  0  0  0  0  0  0  0
    7.5000   -2.5981    0.0000 C   0  0  0  0  0  0  0  0  0  0  0  0
    8.2500   -1.2990    0.0000 O   0  0  0  0  0  0  0  0  0  0  0  0
    8.2500   -3.8971    0.0000 C   0  0  0  0  0  0  0  0  0  0  0  0
    7.5000   -5.1962    0.0000 C   0  0  0  0  0  0  0  0  0  0  0  0
    8.2500   -6.4952    0.0000 C   0  0  0  0  0  0  0  0  0  0  0  0
    9.7500   -6.4952    0.0000 C   0  0  0  0  0  0  0  0  0  0  0  0
   10.5000   -5.1962    0.0000 C   0  0  0  0  0  0  0  0  0  0  0  0
    9.7500   -3.8971    0.0000 C   0  0  0  0  0  0  0  0  0  0  0  0
    5.2500   -1.2990    0.0000 C   0  0  0  0  0  0  0  0  0  0  0  0
    3.7500   -1.2990    0.0000 C   0  0  0  0  0  0  0  0  0  0  0  0
    0.7500   -1.2990    0.0000 C   0  0  0  0  0  0  0  0  0  0  0  0
    1.5000    0.0000    0.0000 C   0  0  0  0  0  0  0  0  0  0  0  0
    0.7500    1.2990    0.0000 C   0  0  0  0  0  0  0  0  0  0  0  0
   -0.7500    1.2990    0.0000 C   0  0  0  0  0  0  0  0  0  0  0  0
   -1.5000    0.0000    0.0000 C   0  0  0  0  0  0  0  0  0  0  0  0
   -0.7500   -1.2990    0.0000 C   0  0  0  0  0  0  0  0  0  0  0  0
  1  2  1  0
  2  3  1  0
  3  4  2  0
  4  5  1  0
  5  6  2  0
  6  7  1  0
  7  8  1  0
  8  9  1  0
  9 10  1  0
 10 11  1  0
 11 12  2  0
 11 13  1  0
 13 14  2  0
 14 15  1  0
 15 16  2  0
 16 17  1  0
 17 18  2  0
 10 19  1  0
 19 20  1  0
  6 21  1  0
 21 22  2  0
 22 23  1  0
 23 24  2  0
 24 25  1  0
 25 26  2  0
 26  3  1  0
 20  7  1  0
 26 21  1  0
 18 13  1  0
M  END
>  <Title>  (57) 
idAAAGgen6

$$$$

     RDKit          2D

 23 25  0  0  0  0  0  0  0  0999 V2000
   -5.2500   -3.8971    0.0000 C   0  0  0  0  0  0  0  0  0  0  0  0
   -3.7500   -3.8971    0.0000 C   0  0  0  0  0  0  0  0  0  0  0  0
   -3.0000   -2.5981    0.0000 C   0  0  0  0  0  0  0  0  0  0  0  0
   -1.5000   -2.5981    0.0000 C   0  0  0  0  0  0  0  0  0  0  0  0
   -0.7500   -3.8971    0.0000 C   0  0  0  0  0  0  0  0  0  0  0  0
    0.7500   -3.8971    0.0000 C   0  0  0  0  0  0  0  0  0  0  0  0
    1.5000   -2.5981    0.0000 C   0  0  0  0  0  0  0  0  0  0  0  0
    3.0000   -2.5981    0.0000 C   0  0  0  0  0  0  0  0  0  0  0  0
    3.7500   -3.8971    0.0000 C   0  0  0  0  0  0  0  0  0  0  0  0
    3.0000   -5.1962    0.0000 O   0  0  0  0  0  0  0  0  0  0  0  0
    5.2500   -3.8971    0.0000 N   0  0  0  0  0  0  0  0  0  0  0  0
    6.0000   -5.1962    0.0000 C   0  0  0  0  0  0  0  0  0  0  0  0
    5.2500   -6.4952    0.0000 N   0  0  0  0  0  0  0  0  0  0  0  0
    6.0000   -7.7942    0.0000 N   0  0  0  0  0  0  0  0  0  0  0  0
    7.5000   -7.7942    0.0000 N   0  0  0  0  0  0  0  0  0  0  0  0
    8.2500   -6.4952    0.0000 N   0  0  0  0  0  0  0  0  0  0  0  0
    7.5000   -5.1962    0.0000 N   0  0  0  0  0  0  0  0  0  0  0  0
    0.7500   -1.2990    0.0000 C   0  0  0  0  0  0  0  0  0  0  0  0
    1.5000    0.0000    0.0000 C   0  0  0  0  0  0  0  0  0  0  0  0
    0.7500    1.2990    0.0000 C   0  0  0  0  0  0  0  0  0  0  0  0
   -0.7500    1.2990    0.0000 C   0  0  0  0  0  0  0  0  0  0  0  0
   -1.5000    0.0000    0.0000 C   0  0  0  0  0  0  0  0  0  0  0  0
   -0.7500   -1.2990    0.0000 C   0  0  0  0  0  0  0  0  0  0  0  0
  1  2  1  0
  2  3  1  0
  3  4  1  0
  4  5  1  0
  5  6  1  0
  6  7  1  0
  7  8  1  0
  8  9  1  0
  9 10  2  0
  9 11  1  0
 11 12  1  0
 12 13  2  0
 13 14  1  0
 14 15  2  0
 15 16  1  0
 16 17  2  0
  7 18  1  0
 18 19  2  0
 19 20  1  0
 20 21  2  0
 21 22  1  0
 22 23  2  0
 23  4  1  0
 17 12  1  0
 23 18  1  0
M  END
>  <Title>  (58) 
idAAAHgen6

$$$$

     RDKit          2D

  9 10  0  0  0  0  0  0  0  0999 V2000
   -4.3467   -2.2253    0.0000 C   0  0  0  0  0  0  0  0  0  0  0  0
   -2.8978   -1.8371    0.0000 C   0  0  0  0  0  0  0  0  0  0  0  0
   -1.8371   -2.8978    0.0000 C   0  0  0  0  0  0  0  0  0  0  0  0
   -0.3882   -2.5095    0.0000 C   0  0  0  0  0  0  0  0  0  0  0  0
   -0.0000   -1.0607    0.0000 C   0  0  0  0  0  0  0  0  0  0  0  0
    1.0607    0.0000    0.0000 C   0  0  0  0  0  0  0  0  0  0  0  0
    0.0000    1.0607    0.0000 O   0  0  0  0  0  0  0  0  0  0  0  0
   -1.0607    0.0000    0.0000 C   0  0  0  0  0  0  0  0  0  0  0  0
   -2.5095   -0.3882    0.0000 C   0  0  0  0  0  0  0  0  0  0  0  0
  1  2  1  0
  2  3  2  0
  3  4  1  0
  4  5  2  0
  5  6  1  0
  6  7  1  0
  7  8  1  0
  8  9  2  0
  9  2  1  0
  8  5  1  0
M  END
>  <Title>  (59) 
idAAAIgen6

$$$$

     RDKit          2D

  8  8  0  0  0  0  0  0  0  0999 V2000
    3.5260   -1.2990    0.0000 C   0  0  0  0  0  0  0  0  0  0  0  0
    2.7760    0.0000    0.0000 C   0  0  0  0  0  0  0  0  0  0  0  0
    3.5260    1.2990    0.0000 O   0  0  0  0  0  0  0  0  0  0  0  0
    1.2760    0.0000    0.0000 C   0  0  0  0  0  0  0  0  0  0  0  0
    0.3943    1.2135    0.0000 C   0  0  0  0  0  0  0  0  0  0  0  0
   -1.0323    0.7500    0.0000 S   0  0  0  0  0  0  0  0  0  0  0  0
   -1.0323   -0.7500    0.0000 C   0  0  0  0  0  0  0  0  0  0  0  0
    0.3943   -1.2135    0.0000 C   0  0  0  0  0  0  0  0  0  0  0  0
  1  2  1  0
  2  3  2  0
  2  4  1  0
  4  5  2  0
  5  6  1  0
  6  7  1  0
  7  8  1  0
  8  4  1  0
M  END
>  <Title>  (60) 
idAAAJgen6

$$$$

     RDKit          2D

  7  7  0  0  0  0  0  0  0  0999 V2000
    3.0000    0.0000    0.0000 C   0  0  0  0  0  0  0  0  0  0  0  0
    1.5000    0.0000    0.0000 C   0  0  0  0  0  0  0  0  0  0  0  0
    0.7500   -1.2990    0.0000 C   0  0  0  0  0  0  0  0  0  0  0  0
   -0.7500   -1.2990    0.0000 C   0  0  0  0  0  0  0  0  0  0  0  0
   -1.5000    0.0000    0.0000 C   0  0  0  0  0  0  0  0  0  0  0  0
   -0.7500    1.2990    0.0000 C   0  0  0  0  0  0  0  0  0  0  0  0
    0.7500    1.2990    0.0000 C   0  0  0  0  0  0  0  0  0  0  0  0
  1  2  1  0
  2  3  2  0
  3  4  1  0
  4  5  1  0
  5  6  1  0
  6  7  1  0
  7  2  1  0
M  END
>  <Title>  (61) 
idAAAKgen6

$$$$

     RDKit          2D

 22 25  0  0  0  0  0  0  0  0999 V2000
   -0.6897   -4.2571    0.0000 C   0  0  0  0  0  0  0  0  0  0  0  0
    0.7592   -4.6454    0.0000 C   0  0  0  0  0  0  0  0  0  0  0  0
    2.0583   -3.8954    0.0000 C   0  0  0  0  0  0  0  0  0  0  0  0
    2.4465   -2.4465    0.0000 C   0  0  0  0  0  0  0  0  0  0  0  0
    3.8954   -2.0583    0.0000 O   0  0  0  0  0  0  0  0  0  0  0  0
    1.3858   -1.3858    0.0000 N   0  0  0  0  0  0  0  0  0  0  0  0
    1.9598    0.0000    0.0000 C   0  0  0  0  0  0  0  0  0  0  0  0
    1.3858    1.3858    0.0000 C   0  0  0  0  0  0  0  0  0  0  0  0
    0.0000    1.9598    0.0000 C   0  0  0  0  0  0  0  0  0  0  0  0
   -0.5740    3.3457    0.0000 C   0  0  0  0  0  0  0  0  0  0  0  0
   -0.0000    4.7315    0.0000 O   0  0  0  0  0  0  0  0  0  0  0  0
   -1.9598    2.7716    0.0000 N   0  0  0  0  0  0  0  0  0  0  0  0
   -1.3858    1.3858    0.0000 C   0  0  0  0  0  0  0  0  0  0  0  0
   -1.9598    0.0000    0.0000 N   0  0  0  0  0  0  0  0  0  0  0  0
   -1.3858   -1.3858    0.0000 C   0  0  0  0  0  0  0  0  0  0  0  0
   -0.0000   -1.9598    0.0000 N   0  0  0  0  0  0  0  0  0  0  0  0
    2.8083   -5.1944    0.0000 C   0  0  0  0  0  0  0  0  0  0  0  0
    4.1073   -5.9444    0.0000 C   0  0  0  0  0  0  0  0  0  0  0  0
    4.1073   -7.4444    0.0000 C   0  0  0  0  0  0  0  0  0  0  0  0
    2.8083   -8.1944    0.0000 C   0  0  0  0  0  0  0  0  0  0  0  0
    1.5092   -7.4444    0.0000 C   0  0  0  0  0  0  0  0  0  0  0  0
    1.5092   -5.9444    0.0000 C   0  0  0  0  0  0  0  0  0  0  0  0
  1  2  1  0
  2  3  2  0
  3  4  1  0
  4  5  2  0
  4  6  1  0
  6  7  1  0
  7  8  1  0
  8  9  1  0
  9 10  1  0
 10 11  2  0
 10 12  1  0
 12 13  1  0
 13 14  2  0
 14 15  1  0
 15 16  2  0
  3 17  1  0
 17 18  2  0
 18 19  1  0
 19 20  2  0
 20 21  1  0
 21 22  2  0
 22  2  1  0
 16  6  1  0
 22 17  1  0
 13  9  1  0
M  END
>  <Title>  (62) 
idAAALgen6

$$$$

     RDKit          2D

  5  4  0  0  0  0  0  0  0  0999 V2000
    0.0000    0.0000    0.0000 C   0  0  0  0  0  0  0  0  0  0  0  0
    1.2990    0.7500    0.0000 C   0  0  0  0  0  0  0  0  0  0  0  0
    2.5981    1.5000    0.0000 C   0  0  0  0  0  0  0  0  0  0  0  0
    2.0490   -0.5490    0.0000 O   0  0  0  0  0  0  0  0  0  0  0  0
    0.5490    2.0490    0.0000 F   0  0  0  0  0  0  0  0  0  0  0  0
  1  2  1  0
  2  3  1  0
  2  4  1  0
  2  5  1  0
M  END
>  <Title>  (63) 
idAAAMgen6

$$$$

     RDKit          2D

  9  9  0  0  0  0  0  0  0  0999 V2000
    3.7500    1.2990    0.0000 C   0  0  0  0  0  0  0  0  0  0  0  0
    3.0000    0.0000    0.0000 C   0  0  0  0  0  0  0  0  0  0  0  0
    3.7500   -1.2990    0.0000 C   0  0  0  0  0  0  0  0  0  0  0  0
    1.5000    0.0000    0.0000 C   0  0  0  0  0  0  0  0  0  0  0  0
    0.7500   -1.2990    0.0000 C   0  0  0  0  0  0  0  0  0  0  0  0
   -0.7500   -1.2990    0.0000 C   0  0  0  0  0  0  0  0  0  0  0  0
   -1.5000    0.0000    0.0000 C   0  0  0  0  0  0  0  0  0  0  0  0
   -0.7500    1.2990    0.0000 C   0  0  0  0  0  0  0  0  0  0  0  0
    0.7500    1.2990    0.0000 C   0  0  0  0  0  0  0  0  0  0  0  0
  1  2  2  0
  2  3  1  0
  2  4  1  0
  4  5  2  0
  5  6  1  0
  6  7  2  0
  7  8  1  0
  8  9  2  0
  9  4  1  0
M  END
>  <Title>  (64) 
idAAANgen6

$$$$

     RDKit          2D

 23 25  0  0  0  0  0  0  0  0999 V2000
   -3.9891   -0.1631    0.0000 C   0  0  0  0  0  0  0  0  0  0  0  0
   -2.6900   -0.9131    0.0000 C   0  0  0  0  0  0  0  0  0  0  0  0
   -2.8858   -2.4003    0.0000 C   0  0  0  0  0  0  0  0  0  0  0  0
   -1.9727   -3.5903    0.0000 C   0  0  0  0  0  0  0  0  0  0  0  0
   -0.4855   -3.7861    0.0000 C   0  0  0  0  0  0  0  0  0  0  0  0
    0.7045   -2.8730    0.0000 C   0  0  0  0  0  0  0  0  0  0  0  0
    2.0036   -3.6230    0.0000 C   0  0  0  0  0  0  0  0  0  0  0  0
    3.3026   -2.8730    0.0000 O   0  0  0  0  0  0  0  0  0  0  0  0
    2.0036   -5.1230    0.0000 N   0  0  0  0  0  0  0  0  0  0  0  0
    3.3026   -5.8730    0.0000 C   0  0  0  0  0  0  0  0  0  0  0  0
    3.3026   -7.3730    0.0000 N   0  0  0  0  0  0  0  0  0  0  0  0
    4.6016   -8.1230    0.0000 N   0  0  0  0  0  0  0  0  0  0  0  0
    5.9007   -7.3730    0.0000 N   0  0  0  0  0  0  0  0  0  0  0  0
    5.9007   -5.8730    0.0000 N   0  0  0  0  0  0  0  0  0  0  0  0
    4.6016   -5.1230    0.0000 N   0  0  0  0  0  0  0  0  0  0  0  0
    0.7500   -1.2990    0.0000 C   0  0  0  0  0  0  0  0  0  0  0  0
    1.5000    0.0000    0.0000 C   0  0  0  0  0  0  0  0  0  0  0  0
    0.7500    1.2990    0.0000 C   0  0  0  0  0  0  0  0  0  0  0  0
   -0.7500    1.2990    0.0000 C   0  0  0  0  0  0  0  0  0  0  0  0
   -1.5000    2.5981    0.0000 C   0  0  0  0  0  0  0  0  0  0  0  0
   -2.2500    3.8971    0.0000 N   0  0  0  0  0  0  0  0  0  0  0  0
   -1.5000    0.0000    0.0000 C   0  0  0  0  0  0  0  0  0  0  0  0
   -0.7500   -1.2990    0.0000 C   0  0  0  0  0  0  0  0  0  0  0  0
  1  2  1  0
  2  3  1  0
  3  4  2  0
  4  5  1  0
  5  6  1  0
  6  7  1  0
  7  8  2  0
  7  9  1  0
  9 10  1  0
 10 11  2  0
 11 12  1  0
 12 13  2  0
 13 14  1  0
 14 15  2  0
  6 16  1  0
 16 17  2  0
 17 18  1  0
 18 19  2  0
 19 20  1  0
 20 21  3  0
 19 22  1  0
 22 23  1  0
 22  2  1  0
 15 10  1  0
 23 16  1  0
M  END
>  <Title>  (65) 
idAAAOgen6

$$$$

     RDKit          2D

 16 16  0  0  0  0  0  0  0  0999 V2000
    5.1073    0.0000    0.0000 O   0  0  0  0  0  0  0  0  0  0  0  0
    3.6073    0.0000    0.0000 C   0  0  0  0  0  0  0  0  0  0  0  0
    3.2954    1.4672    0.0000 C   0  0  0  0  0  0  0  0  0  0  0  0
    2.4138    2.6807    0.0000 C   0  0  0  0  0  0  0  0  0  0  0  0
    1.1147    3.4307    0.0000 C   0  0  0  0  0  0  0  0  0  0  0  0
   -0.3771    3.5875    0.0000 C   0  0  0  0  0  0  0  0  0  0  0  0
   -1.8037    3.1240    0.0000 C   0  0  0  0  0  0  0  0  0  0  0  0
   -2.9184    2.1203    0.0000 C   0  0  0  0  0  0  0  0  0  0  0  0
   -3.5285    0.7500    0.0000 C   0  0  0  0  0  0  0  0  0  0  0  0
   -3.5285   -0.7500    0.0000 C   0  0  0  0  0  0  0  0  0  0  0  0
   -2.9184   -2.1203    0.0000 C   0  0  0  0  0  0  0  0  0  0  0  0
   -1.8037   -3.1240    0.0000 C   0  0  0  0  0  0  0  0  0  0  0  0
   -0.3771   -3.5875    0.0000 C   0  0  0  0  0  0  0  0  0  0  0  0
    1.1147   -3.4307    0.0000 C   0  0  0  0  0  0  0  0  0  0  0  0
    2.4138   -2.6807    0.0000 C   0  0  0  0  0  0  0  0  0  0  0  0
    3.2954   -1.4672    0.0000 C   0  0  0  0  0  0  0  0  0  0  0  0
  1  2  1  0
  2  3  1  0
  3  4  1  0
  4  5  1  0
  5  6  1  0
  6  7  1  0
  7  8  1  0
  8  9  1  0
  9 10  1  0
 10 11  1  0
 11 12  1  0
 12 13  1  0
 13 14  1  0
 14 15  1  0
 15 16  1  0
 16  2  1  0
M  END
>  <Title>  (66) 
idAAAPgen6

$$$$

     RDKit          2D

 20 22  0  0  0  0  0  0  0  0999 V2000
   -4.1640    0.6645    0.0000 O   0  0  0  0  0  0  0  0  0  0  0  0
   -3.4140    1.9635    0.0000 C   0  0  0  0  0  0  0  0  0  0  0  0
   -4.1640    3.2626    0.0000 N   0  0  0  0  0  0  0  0  0  0  0  0
   -5.6640    3.2626    0.0000 C   0  0  0  0  0  0  0  0  0  0  0  0
   -6.4140    4.5616    0.0000 C   0  0  0  0  0  0  0  0  0  0  0  0
   -7.9140    4.5616    0.0000 C   0  0  0  0  0  0  0  0  0  0  0  0
   -8.6640    3.2626    0.0000 C   0  0  0  0  0  0  0  0  0  0  0  0
  -10.1640    3.2626    0.0000 O   0  0  0  0  0  0  0  0  0  0  0  0
   -7.9140    1.9635    0.0000 C   0  0  0  0  0  0  0  0  0  0  0  0
   -8.6640    0.6645    0.0000 O   0  0  0  0  0  0  0  0  0  0  0  0
   -6.4140    1.9635    0.0000 C   0  0  0  0  0  0  0  0  0  0  0  0
   -5.6640    0.6645    0.0000 O   0  0  0  0  0  0  0  0  0  0  0  0
   -1.9140    1.9635    0.0000 C   0  0  0  0  0  0  0  0  0  0  0  0
   -1.0323    3.1771    0.0000 C   0  0  0  0  0  0  0  0  0  0  0  0
    0.3943    2.7135    0.0000 C   0  0  0  0  0  0  0  0  0  0  0  0
    0.3943    1.2135    0.0000 C   0  0  0  0  0  0  0  0  0  0  0  0
    1.2760    0.0000    0.0000 C   0  0  0  0  0  0  0  0  0  0  0  0
    0.3943   -1.2135    0.0000 C   0  0  0  0  0  0  0  0  0  0  0  0
   -1.0323   -0.7500    0.0000 C   0  0  0  0  0  0  0  0  0  0  0  0
   -1.0323    0.7500    0.0000 C   0  0  0  0  0  0  0  0  0  0  0  0
  1  2  2  0
  2  3  1  0
  3  4  1  0
  4  5  2  0
  5  6  1  0
  6  7  2  0
  7  8  1  0
  7  9  1  0
  9 10  1  0
  9 11  1  0
 11 12  1  0
  2 13  1  0
 13 14  2  0
 14 15  1  0
 15 16  2  0
 16 17  1  0
 17 18  2  0
 18 19  1  0
 19 20  2  0
 11  4  1  0
 20 13  1  0
 20 16  1  0
M  END
>  <Title>  (67) 
idAAAQgen6

$$$$

     RDKit          2D

 17 18  0  0  0  0  0  0  0  0999 V2000
    2.6491    0.9642    0.0000 C   0  0  0  0  0  0  0  0  0  0  0  0
    1.5000    0.0000    0.0000 C   0  0  0  0  0  0  0  0  0  0  0  0
    2.6491   -0.9642    0.0000 O   0  0  0  0  0  0  0  0  0  0  0  0
    0.7500   -1.2990    0.0000 C   0  0  0  0  0  0  0  0  0  0  0  0
   -0.7500   -1.2990    0.0000 C   0  0  0  0  0  0  0  0  0  0  0  0
   -1.5000    0.0000    0.0000 C   0  0  0  0  0  0  0  0  0  0  0  0
   -3.0000    0.0000    0.0000 C   0  0  0  0  0  0  0  0  0  0  0  0
   -3.7500   -1.2990    0.0000 O   0  0  0  0  0  0  0  0  0  0  0  0
   -3.7500    1.2990    0.0000 N   0  0  0  0  0  0  0  0  0  0  0  0
   -5.2500    1.2990    0.0000 C   0  0  0  0  0  0  0  0  0  0  0  0
   -6.0000    2.5981    0.0000 N   0  0  0  0  0  0  0  0  0  0  0  0
   -7.5000    2.5981    0.0000 N   0  0  0  0  0  0  0  0  0  0  0  0
   -8.2500    1.2990    0.0000 N   0  0  0  0  0  0  0  0  0  0  0  0
   -7.5000    0.0000    0.0000 N   0  0  0  0  0  0  0  0  0  0  0  0
   -6.0000    0.0000    0.0000 N   0  0  0  0  0  0  0  0  0  0  0  0
   -0.7500    1.2990    0.0000 C   0  0  0  0  0  0  0  0  0  0  0  0
    0.7500    1.2990    0.0000 C   0  0  0  0  0  0  0  0  0  0  0  0
  1  2  1  0
  2  3  1  0
  2  4  1  0
  4  5  1  0
  5  6  1  0
  6  7  1  0
  7  8  2  0
  7  9  1  0
  9 10  1  0
 10 11  2  0
 11 12  1  0
 12 13  2  0
 13 14  1  0
 14 15  2  0
  6 16  1  0
 16 17  1  0
 17  2  1  0
 15 10  1  0
M  END
>  <Title>  (68) 
idAAARgen6

$$$$

     RDKit          2D

 11 12  0  0  0  0  0  0  0  0999 V2000
    1.5000    0.0000    0.0000 C   0  0  0  0  0  0  0  0  0  0  0  0
    0.7500   -1.2990    0.0000 C   0  0  0  0  0  0  0  0  0  0  0  0
   -0.7500   -1.2990    0.0000 C   0  0  0  0  0  0  0  0  0  0  0  0
   -1.5000    0.0000    0.0000 C   0  0  0  0  0  0  0  0  0  0  0  0
   -0.7500    1.2990    0.0000 C   0  0  0  0  0  0  0  0  0  0  0  0
   -1.5000    2.5981    0.0000 C   0  0  0  0  0  0  0  0  0  0  0  0
   -2.9918    2.7549    0.0000 C   0  0  0  0  0  0  0  0  0  0  0  0
   -3.3037    4.2221    0.0000 C   0  0  0  0  0  0  0  0  0  0  0  0
   -2.0046    4.9721    0.0000 C   0  0  0  0  0  0  0  0  0  0  0  0
   -0.8899    3.9684    0.0000 C   0  0  0  0  0  0  0  0  0  0  0  0
    0.7500    1.2990    0.0000 C   0  0  0  0  0  0  0  0  0  0  0  0
  1  2  2  0
  2  3  1  0
  3  4  1  0
  4  5  1  0
  5  6  1  0
  6  7  2  0
  7  8  1  0
  8  9  2  0
  9 10  1  0
  5 11  2  0
 11  1  1  0
 10  6  1  0
M  END
>  <Title>  (69) 
idAAASgen6

$$$$

     RDKit          2D

  5  4  0  0  0  0  0  0  0  0999 V2000
    0.0000    0.0000    0.0000 C   0  0  0  0  0  0  0  0  0  0  0  0
    1.2990    0.7500    0.0000 C   0  0  0  0  0  0  0  0  0  0  0  0
    2.5981    1.5000    0.0000 F   0  0  0  0  0  0  0  0  0  0  0  0
    2.0490   -0.5490    0.0000 F   0  0  0  0  0  0  0  0  0  0  0  0
    0.5490    2.0490    0.0000 F   0  0  0  0  0  0  0  0  0  0  0  0
  1  2  1  0
  2  3  1  0
  2  4  1  0
  2  5  1  0
M  END
>  <Title>  (70) 
idAAATgen6

$$$$

     RDKit          2D

 28 30  0  0  0  0  0  0  0  0999 V2000
    3.9271    0.0000    0.0000 C   0  0  0  0  0  0  0  0  0  0  0  0
    2.4271    0.0000    0.0000 C   0  0  0  0  0  0  0  0  0  0  0  0
    1.9635   -1.4266    0.0000 O   0  0  0  0  0  0  0  0  0  0  0  0
    0.7500   -2.3083    0.0000 C   0  0  0  0  0  0  0  0  0  0  0  0
   -0.7500   -2.3083    0.0000 C   0  0  0  0  0  0  0  0  0  0  0  0
   -1.9635   -1.4266    0.0000 C   0  0  0  0  0  0  0  0  0  0  0  0
   -2.4271    0.0000    0.0000 C   0  0  0  0  0  0  0  0  0  0  0  0
   -1.9635    1.4266    0.0000 C   0  0  0  0  0  0  0  0  0  0  0  0
   -3.1771    2.3083    0.0000 C   0  0  0  0  0  0  0  0  0  0  0  0
   -3.0203    3.8000    0.0000 C   0  0  0  0  0  0  0  0  0  0  0  0
   -4.2338    4.6817    0.0000 C   0  0  0  0  0  0  0  0  0  0  0  0
   -5.6041    4.0716    0.0000 C   0  0  0  0  0  0  0  0  0  0  0  0
   -5.7609    2.5798    0.0000 C   0  0  0  0  0  0  0  0  0  0  0  0
   -4.5474    1.6982    0.0000 C   0  0  0  0  0  0  0  0  0  0  0  0
   -0.7500    2.3083    0.0000 C   0  0  0  0  0  0  0  0  0  0  0  0
   -1.2135    3.7348    0.0000 O   0  0  0  0  0  0  0  0  0  0  0  0
    0.7500    2.3083    0.0000 N   0  0  0  0  0  0  0  0  0  0  0  0
    1.9635    1.4266    0.0000 C   0  0  0  0  0  0  0  0  0  0  0  0
    3.1771    2.3083    0.0000 N   0  0  0  0  0  0  0  0  0  0  0  0
    4.5474    1.6982    0.0000 N   0  0  0  0  0  0  0  0  0  0  0  0
    5.7609    2.5798    0.0000 N   0  0  0  0  0  0  0  0  0  0  0  0
    7.1312    1.9697    0.0000 N   0  0  0  0  0  0  0  0  0  0  0  0
    8.3447    2.8514    0.0000 C   0  0  0  0  0  0  0  0  0  0  0  0
    8.3447    4.3514    0.0000 C   0  0  0  0  0  0  0  0  0  0  0  0
    9.7713    4.8149    0.0000 C   0  0  0  0  0  0  0  0  0  0  0  0
   10.6530    3.6014    0.0000 C   0  0  0  0  0  0  0  0  0  0  0  0
   12.1530    3.6014    0.0000 O   0  0  0  0  0  0  0  0  0  0  0  0
    9.7713    2.3879    0.0000 O   0  0  0  0  0  0  0  0  0  0  0  0
  1  2  2  0
  2  3  1  0
  3  4  1  0
  4  5  1  0
  5  6  2  0
  6  7  1  0
  7  8  2  0
  8  9  1  0
  9 10  2  0
 10 11  1  0
 11 12  2  0
 12 13  1  0
 13 14  2  0
  8 15  1  0
 15 16  2  0
 15 17  1  0
 17 18  1  0
 18 19  2  3
 19 20  1  0
 20 21  2  3
 21 22  1  0
 22 23  2  3
 23 24  1  0
 24 25  1  0
 25 26  1  0
 26 27  2  0
 26 28  1  0
 18  2  1  0
 28 23  1  0
 14  9  1  0
M  END
>  <Title>  (71) 
idAAAUgen6

$$$$

     RDKit          2D

 12 13  0  0  0  0  0  0  0  0999 V2000
   -0.5773   -4.2803    0.0000 C   0  0  0  0  0  0  0  0  0  0  0  0
    0.8899   -3.9684    0.0000 C   0  0  0  0  0  0  0  0  0  0  0  0
    2.0046   -4.9721    0.0000 C   0  0  0  0  0  0  0  0  0  0  0  0
    3.3037   -4.2221    0.0000 C   0  0  0  0  0  0  0  0  0  0  0  0
    2.9918   -2.7549    0.0000 C   0  0  0  0  0  0  0  0  0  0  0  0
    1.5000   -2.5981    0.0000 C   0  0  0  0  0  0  0  0  0  0  0  0
    0.7500   -1.2990    0.0000 C   0  0  0  0  0  0  0  0  0  0  0  0
    1.5000    0.0000    0.0000 C   0  0  0  0  0  0  0  0  0  0  0  0
    0.7500    1.2990    0.0000 C   0  0  0  0  0  0  0  0  0  0  0  0
   -0.7500    1.2990    0.0000 C   0  0  0  0  0  0  0  0  0  0  0  0
   -1.5000    0.0000    0.0000 C   0  0  0  0  0  0  0  0  0  0  0  0
   -0.7500   -1.2990    0.0000 C   0  0  0  0  0  0  0  0  0  0  0  0
  1  2  1  0
  2  3  1  0
  3  4  2  0
  4  5  1  0
  5  6  2  0
  6  7  1  0
  7  8  2  0
  8  9  1  0
  9 10  2  0
 10 11  1  0
 11 12  2  0
  6  2  1  0
 12  7  1  0
M  END
>  <Title>  (72) 
idAAAVgen6

$$$$

     RDKit          2D

  6  5  0  0  0  0  0  0  0  0999 V2000
    0.0000    0.0000    0.0000 C   0  0  0  0  0  0  0  0  0  0  0  0
    1.2990    0.7500    0.0000 C   0  0  0  0  0  0  0  0  0  0  0  0
    1.2990    2.2500    0.0000 O   0  0  0  0  0  0  0  0  0  0  0  0
    2.5981   -0.0000    0.0000 C   0  0  0  0  0  0  0  0  0  0  0  0
    2.5981   -1.5000    0.0000 O   0  0  0  0  0  0  0  0  0  0  0  0
    3.8971    0.7500    0.0000 O   0  0  0  0  0  0  0  0  0  0  0  0
  1  2  1  0
  2  3  2  0
  2  4  1  0
  4  5  2  0
  4  6  1  0
M  END
>  <Title>  (73) 
idAAAWgen6

$$$$

     RDKit          2D

 27 29  0  0  0  0  0  0  0  0999 V2000
    5.9064   -0.7094    0.0000 C   0  0  0  0  0  0  0  0  0  0  0  0
    4.4177   -0.8926    0.0000 C   0  0  0  0  0  0  0  0  0  0  0  0
    3.8225    0.4843    0.0000 C   0  0  0  0  0  0  0  0  0  0  0  0
    2.5774    1.3209    0.0000 C   0  0  0  0  0  0  0  0  0  0  0  0
    1.0777    1.3515    0.0000 C   0  0  0  0  0  0  0  0  0  0  0  0
    1.7286    0.0000    0.0000 O   0  0  0  0  0  0  0  0  0  0  0  0
    1.0777   -1.3515    0.0000 C   0  0  0  0  0  0  0  0  0  0  0  0
   -0.3846   -1.6852    0.0000 C   0  0  0  0  0  0  0  0  0  0  0  0
    0.2909   -3.4273    0.0000 O   0  0  0  0  0  0  0  0  0  0  0  0
    1.7212   -3.8791    0.0000 C   0  0  0  0  0  0  0  0  0  0  0  0
    3.1687   -3.4860    0.0000 C   0  0  0  0  0  0  0  0  0  0  0  0
    3.9538   -4.7641    0.0000 O   0  0  0  0  0  0  0  0  0  0  0  0
    4.1740   -2.3726    0.0000 C   0  0  0  0  0  0  0  0  0  0  0  0
    5.5254   -3.0234    0.0000 O   0  0  0  0  0  0  0  0  0  0  0  0
   -1.5574   -0.7500    0.0000 C   0  0  0  0  0  0  0  0  0  0  0  0
   -2.9088   -1.4008    0.0000 O   0  0  0  0  0  0  0  0  0  0  0  0
   -1.5574    0.7500    0.0000 N   0  0  0  0  0  0  0  0  0  0  0  0
   -0.3846    1.6852    0.0000 C   0  0  0  0  0  0  0  0  0  0  0  0
   -0.7184    3.1476    0.0000 N   0  0  0  0  0  0  0  0  0  0  0  0
    0.3812    4.1679    0.0000 N   0  0  0  0  0  0  0  0  0  0  0  0
    0.0474    5.6303    0.0000 N   0  0  0  0  0  0  0  0  0  0  0  0
    1.1469    6.6505    0.0000 N   0  0  0  0  0  0  0  0  0  0  0  0
    0.9679    8.1398    0.0000 C   0  0  0  0  0  0  0  0  0  0  0  0
    2.3289    8.7703    0.0000 C   0  0  0  0  0  0  0  0  0  0  0  0
    3.3492    7.6708    0.0000 C   0  0  0  0  0  0  0  0  0  0  0  0
    2.6187    6.3607    0.0000 C   0  0  0  0  0  0  0  0  0  0  0  0
    3.2492    4.9996    0.0000 O   0  0  0  0  0  0  0  0  0  0  0  0
  1  2  1  0
  2  3  2  0
  3  4  1  0
  4  5  2  0
  5  6  1  0
  6  7  1  0
  7  8  1  0
  8  9  1  0
  9 10  1  0
 10 11  1  0
 11 12  1  0
 11 13  1  0
 13 14  1  0
  8 15  1  0
 15 16  2  0
 15 17  1  0
 17 18  1  0
 18 19  2  3
 19 20  1  0
 20 21  2  3
 21 22  1  0
 22 23  1  0
 23 24  1  0
 24 25  1  0
 25 26  1  0
 26 27  2  0
 13  2  1  0
 26 22  1  0
 18  5  1  0
M  END
>  <Title>  (74) 
idAAAXgen6

$$$$

     RDKit          2D

  7  7  0  0  0  0  0  0  0  0999 V2000
    3.0000    0.0000    0.0000 C   0  0  0  0  0  0  0  0  0  0  0  0
    1.5000    0.0000    0.0000 C   0  0  0  0  0  0  0  0  0  0  0  0
    0.7500   -1.2990    0.0000 C   0  0  0  0  0  0  0  0  0  0  0  0
   -0.7500   -1.2990    0.0000 S   0  0  0  0  0  0  0  0  0  0  0  0
   -1.5000    0.0000    0.0000 C   0  0  0  0  0  0  0  0  0  0  0  0
   -0.7500    1.2990    0.0000 C   0  0  0  0  0  0  0  0  0  0  0  0
    0.7500    1.2990    0.0000 C   0  0  0  0  0  0  0  0  0  0  0  0
  1  2  1  0
  2  3  2  0
  3  4  1  0
  4  5  1  0
  5  6  1  0
  6  7  1  0
  7  2  1  0
M  END
>  <Title>  (75) 
idAAAYgen6

$$$$

     RDKit          2D

  5  5  0  0  0  0  0  0  0  0999 V2000
    1.2760    0.0000    0.0000 C   0  0  0  0  0  0  0  0  0  0  0  0
    0.3943    1.2135    0.0000 C   0  0  0  0  0  0  0  0  0  0  0  0
   -1.0323    0.7500    0.0000 C   0  0  0  0  0  0  0  0  0  0  0  0
   -1.0323   -0.7500    0.0000 C   0  0  0  0  0  0  0  0  0  0  0  0
    0.3943   -1.2135    0.0000 C   0  0  0  0  0  0  0  0  0  0  0  0
  1  2  2  0
  2  3  1  0
  3  4  1  0
  4  5  1  0
  5  1  1  0
M  END
>  <Title>  (76) 
idAAAZgen6

$$$$

     RDKit          2D

  7  7  0  0  0  0  0  0  0  0999 V2000
    3.0000    0.0000    0.0000 C   0  0  0  0  0  0  0  0  0  0  0  0
    1.5000    0.0000    0.0000 C   0  0  0  0  0  0  0  0  0  0  0  0
    0.7500   -1.2990    0.0000 C   0  0  0  0  0  0  0  0  0  0  0  0
   -0.7500   -1.2990    0.0000 C   0  0  0  0  0  0  0  0  0  0  0  0
   -1.5000    0.0000    0.0000 C   0  0  0  0  0  0  0  0  0  0  0  0
   -0.7500    1.2990    0.0000 C   0  0  0  0  0  0  0  0  0  0  0  0
    0.7500    1.2990    0.0000 C   0  0  0  0  0  0  0  0  0  0  0  0
  1  2  1  0
  2  3  1  0
  3  4  1  0
  4  5  1  0
  5  6  1  0
  6  7  1  0
  7  2  1  0
M  END
>  <Title>  (77) 
idAABAgen6

$$$$

     RDKit          2D

 10 10  0  0  0  0  0  0  0  0999 V2000
    5.2500   -1.2990    0.0000 C   0  0  0  0  0  0  0  0  0  0  0  0
    3.7500   -1.2990    0.0000 C   0  0  0  0  0  0  0  0  0  0  0  0
    3.0000   -2.5981    0.0000 O   0  0  0  0  0  0  0  0  0  0  0  0
    3.0000    0.0000    0.0000 N   0  0  0  0  0  0  0  0  0  0  0  0
    1.5000    0.0000    0.0000 C   0  0  0  0  0  0  0  0  0  0  0  0
    0.7500   -1.2990    0.0000 C   0  0  0  0  0  0  0  0  0  0  0  0
   -0.7500   -1.2990    0.0000 C   0  0  0  0  0  0  0  0  0  0  0  0
   -1.5000    0.0000    0.0000 C   0  0  0  0  0  0  0  0  0  0  0  0
   -0.7500    1.2990    0.0000 C   0  0  0  0  0  0  0  0  0  0  0  0
    0.7500    1.2990    0.0000 C   0  0  0  0  0  0  0  0  0  0  0  0
  1  2  1  0
  2  3  2  0
  2  4  1  0
  4  5  1  0
  5  6  2  0
  6  7  1  0
  7  8  2  0
  8  9  1  0
  9 10  2  0
 10  5  1  0
M  END
>  <Title>  (78) 
idAABBgen6

$$$$

     RDKit          2D

 14 14  0  0  0  0  0  0  0  0999 V2000
    2.7760    0.0000    0.0000 C   0  0  0  0  0  0  0  0  0  0  0  0
    1.2760    0.0000    0.0000 C   0  0  0  0  0  0  0  0  0  0  0  0
    0.3943    1.2135    0.0000 C   0  0  0  0  0  0  0  0  0  0  0  0
   -1.0323    0.7500    0.0000 C   0  0  0  0  0  0  0  0  0  0  0  0
   -1.0323   -0.7500    0.0000 C   0  0  0  0  0  0  0  0  0  0  0  0
   -2.2458   -1.6317    0.0000 C   0  0  0  0  0  0  0  0  0  0  0  0
   -2.0890   -3.1235    0.0000 O   0  0  0  0  0  0  0  0  0  0  0  0
   -3.6161   -1.0216    0.0000 O   0  0  0  0  0  0  0  0  0  0  0  0
    0.3943   -1.2135    0.0000 C   0  0  0  0  0  0  0  0  0  0  0  0
    0.8578   -2.6401    0.0000 C   0  0  0  0  0  0  0  0  0  0  0  0
   -0.1459   -3.7548    0.0000 C   0  0  0  0  0  0  0  0  0  0  0  0
    0.3177   -5.1814    0.0000 C   0  0  0  0  0  0  0  0  0  0  0  0
    1.7849   -5.4933    0.0000 O   0  0  0  0  0  0  0  0  0  0  0  0
   -0.6860   -6.2961    0.0000 O   0  0  0  0  0  0  0  0  0  0  0  0
  1  2  1  0
  2  3  2  0
  3  4  1  0
  4  5  2  0
  5  6  1  0
  6  7  2  0
  6  8  1  0
  5  9  1  0
  9 10  1  0
 10 11  1  0
 11 12  1  0
 12 13  2  0
 12 14  1  0
  9  2  1  0
M  END
>  <Title>  (79) 
idAABCgen6

$$$$

     RDKit          2D

 15 16  0  0  0  0  0  0  0  0999 V2000
    1.8478   -9.0619    0.0000 C   0  0  0  0  0  0  0  0  0  0  0  0
    2.0046   -7.5702    0.0000 C   0  0  0  0  0  0  0  0  0  0  0  0
    3.3037   -6.8202    0.0000 C   0  0  0  0  0  0  0  0  0  0  0  0
    2.9918   -5.3529    0.0000 C   0  0  0  0  0  0  0  0  0  0  0  0
    1.5000   -5.1962    0.0000 C   0  0  0  0  0  0  0  0  0  0  0  0
    0.7500   -3.8971    0.0000 C   0  0  0  0  0  0  0  0  0  0  0  0
   -0.7500   -3.8971    0.0000 O   0  0  0  0  0  0  0  0  0  0  0  0
    1.5000   -2.5981    0.0000 N   0  0  0  0  0  0  0  0  0  0  0  0
    0.7500   -1.2990    0.0000 C   0  0  0  0  0  0  0  0  0  0  0  0
    1.5000    0.0000    0.0000 N   0  0  0  0  0  0  0  0  0  0  0  0
    0.7500    1.2990    0.0000 N   0  0  0  0  0  0  0  0  0  0  0  0
   -0.7500    1.2990    0.0000 N   0  0  0  0  0  0  0  0  0  0  0  0
   -1.5000    0.0000    0.0000 N   0  0  0  0  0  0  0  0  0  0  0  0
   -0.7500   -1.2990    0.0000 N   0  0  0  0  0  0  0  0  0  0  0  0
    0.8899   -6.5665    0.0000 C   0  0  0  0  0  0  0  0  0  0  0  0
  1  2  1  0
  2  3  1  0
  3  4  1  0
  4  5  1  0
  5  6  1  0
  6  7  2  0
  6  8  1  0
  8  9  1  0
  9 10  2  0
 10 11  1  0
 11 12  2  0
 12 13  1  0
 13 14  2  0
  5 15  1  0
 15  2  1  0
 14  9  1  0
M  END
>  <Title>  (80) 
idAABDgen6

$$$$

     RDKit          2D

 21 23  0  0  0  0  0  0  0  0999 V2000
    1.5629   -8.6879    0.0000 C   0  0  0  0  0  0  0  0  0  0  0  0
    2.2502   -7.3547    0.0000 O   0  0  0  0  0  0  0  0  0  0  0  0
    1.4392   -6.0928    0.0000 C   0  0  0  0  0  0  0  0  0  0  0  0
    2.4215   -4.9592    0.0000 C   0  0  0  0  0  0  0  0  0  0  0  0
    2.6350   -3.4744    0.0000 C   0  0  0  0  0  0  0  0  0  0  0  0
    2.0119   -2.1100    0.0000 C   0  0  0  0  0  0  0  0  0  0  0  0
    3.1455   -1.1277    0.0000 C   0  0  0  0  0  0  0  0  0  0  0  0
    4.6417   -1.2347    0.0000 C   0  0  0  0  0  0  0  0  0  0  0  0
    4.7487    0.2615    0.0000 C   0  0  0  0  0  0  0  0  0  0  0  0
    3.2525    0.3685    0.0000 C   0  0  0  0  0  0  0  0  0  0  0  0
    0.7500   -1.2990    0.0000 C   0  0  0  0  0  0  0  0  0  0  0  0
    1.5000    0.0000    0.0000 N   0  0  0  0  0  0  0  0  0  0  0  0
    0.7500    1.2990    0.0000 N   0  0  0  0  0  0  0  0  0  0  0  0
   -0.7500    1.2990    0.0000 N   0  0  0  0  0  0  0  0  0  0  0  0
   -1.5000    0.0000    0.0000 N   0  0  0  0  0  0  0  0  0  0  0  0
   -0.7500   -1.2990    0.0000 C   0  0  0  0  0  0  0  0  0  0  0  0
   -2.0119   -2.1100    0.0000 C   0  0  0  0  0  0  0  0  0  0  0  0
   -2.6350   -3.4744    0.0000 C   0  0  0  0  0  0  0  0  0  0  0  0
   -2.4215   -4.9592    0.0000 C   0  0  0  0  0  0  0  0  0  0  0  0
   -1.4392   -6.0928    0.0000 C   0  0  0  0  0  0  0  0  0  0  0  0
   -0.0000   -6.5154    0.0000 C   0  0  0  0  0  0  0  0  0  0  0  0
  1  2  1  0
  2  3  1  0
  3  4  2  0
  4  5  1  0
  5  6  2  0
  6  7  1  0
  7  8  1  0
  8  9  1  0
  9 10  1  0
  6 11  1  0
 11 12  1  0
 12 13  2  0
 13 14  1  0
 14 15  2  0
 15 16  1  0
 16 17  2  0
 17 18  1  0
 18 19  2  0
 19 20  1  0
 20 21  2  0
 21  3  1  0
 10  7  1  0
 16 11  1  0
M  END
>  <Title>  (81) 
idAABEgen6

$$$$

     RDKit          2D

 16 17  0  0  0  0  0  0  0  0999 V2000
    4.2098   -1.2990    0.0000 C   0  0  0  0  0  0  0  0  0  0  0  0
    3.4598   -0.0000    0.0000 O   0  0  0  0  0  0  0  0  0  0  0  0
    1.9598    0.0000    0.0000 C   0  0  0  0  0  0  0  0  0  0  0  0
    1.3858   -1.3858    0.0000 C   0  0  0  0  0  0  0  0  0  0  0  0
   -0.0000   -1.9598    0.0000 C   0  0  0  0  0  0  0  0  0  0  0  0
   -1.3858   -1.3858    0.0000 C   0  0  0  0  0  0  0  0  0  0  0  0
   -1.9598    0.0000    0.0000 C   0  0  0  0  0  0  0  0  0  0  0  0
   -1.3858    1.3858    0.0000 C   0  0  0  0  0  0  0  0  0  0  0  0
   -2.4465    2.4465    0.0000 N   0  0  0  0  0  0  0  0  0  0  0  0
   -3.9280    2.2118    0.0000 C   0  0  0  0  0  0  0  0  0  0  0  0
   -4.6090    3.5483    0.0000 C   0  0  0  0  0  0  0  0  0  0  0  0
   -3.5483    4.6090    0.0000 C   0  0  0  0  0  0  0  0  0  0  0  0
   -2.2118    3.9280    0.0000 C   0  0  0  0  0  0  0  0  0  0  0  0
   -0.8753    4.6090    0.0000 O   0  0  0  0  0  0  0  0  0  0  0  0
    0.0000    1.9598    0.0000 N   0  0  0  0  0  0  0  0  0  0  0  0
    1.3858    1.3858    0.0000 C   0  0  0  0  0  0  0  0  0  0  0  0
  1  2  1  0
  2  3  1  0
  3  4  2  0
  4  5  1  0
  5  6  2  0
  6  7  1  0
  7  8  2  0
  8  9  1  0
  9 10  1  0
 10 11  1  0
 11 12  1  0
 12 13  1  0
 13 14  2  0
  8 15  1  0
 15 16  1  0
 16  3  1  0
 13  9  1  0
M  END
>  <Title>  (82) 
idAABFgen6

$$$$

     RDKit          2D

  8  7  0  0  0  0  0  0  0  0999 V2000
    0.0000    0.0000    0.0000 C   0  0  0  0  0  0  0  0  0  0  0  0
    1.2990    0.7500    0.0000 C   0  0  0  0  0  0  0  0  0  0  0  0
    2.5981   -0.0000    0.0000 C   0  0  0  0  0  0  0  0  0  0  0  0
    2.5981   -1.5000    0.0000 O   0  0  0  0  0  0  0  0  0  0  0  0
    3.8971    0.7500    0.0000 C   0  0  0  0  0  0  0  0  0  0  0  0
    5.1962    1.5000    0.0000 C   0  0  0  0  0  0  0  0  0  0  0  0
    6.4952    2.2500    0.0000 C   0  0  0  0  0  0  0  0  0  0  0  0
    7.7942    3.0000    0.0000 N   0  0  0  0  0  0  0  0  0  0  0  0
  1  2  1  0
  2  3  1  0
  3  4  1  0
  3  5  1  0
  5  6  3  0
  6  7  1  0
  7  8  3  0
M  END
>  <Title>  (83) 
idAABGgen6

$$$$

     RDKit          2D

 37 41  0  0  0  0  0  0  0  0999 V2000
    5.2216  -11.3424    0.0000 C   0  0  0  0  0  0  0  0  0  0  0  0
    4.7581   -9.9158    0.0000 C   0  0  0  0  0  0  0  0  0  0  0  0
    3.2909   -9.6040    0.0000 N   0  0  0  0  0  0  0  0  0  0  0  0
    2.8273   -8.1774    0.0000 C   0  0  0  0  0  0  0  0  0  0  0  0
    3.8310   -7.0627    0.0000 O   0  0  0  0  0  0  0  0  0  0  0  0
    1.3601   -7.8655    0.0000 C   0  0  0  0  0  0  0  0  0  0  0  0
    0.2454   -8.8692    0.0000 C   0  0  0  0  0  0  0  0  0  0  0  0
   -1.0537   -8.1192    0.0000 C   0  0  0  0  0  0  0  0  0  0  0  0
   -0.7418   -6.6520    0.0000 C   0  0  0  0  0  0  0  0  0  0  0  0
    0.7500   -6.4952    0.0000 C   0  0  0  0  0  0  0  0  0  0  0  0
    1.5000   -5.1962    0.0000 C   0  0  0  0  0  0  0  0  0  0  0  0
    0.7500   -3.8971    0.0000 C   0  0  0  0  0  0  0  0  0  0  0  0
    1.5000   -2.5981    0.0000 C   0  0  0  0  0  0  0  0  0  0  0  0
    3.0000   -2.5981    0.0000 O   0  0  0  0  0  0  0  0  0  0  0  0
    0.7500   -1.2990    0.0000 N   0  0  0  0  0  0  0  0  0  0  0  0
    1.5000    0.0000    0.0000 C   0  0  0  0  0  0  0  0  0  0  0  0
    0.7500    1.2990    0.0000 C   0  0  0  0  0  0  0  0  0  0  0  0
   -0.7500    1.2990    0.0000 C   0  0  0  0  0  0  0  0  0  0  0  0
   -1.5000    2.5981    0.0000 N   0  0  0  0  0  0  0  0  0  0  0  0
   -2.9918    2.7549    0.0000 C   0  0  0  0  0  0  0  0  0  0  0  0
   -3.3037    4.2221    0.0000 C   0  0  0  0  0  0  0  0  0  0  0  0
   -2.0046    4.9721    0.0000 N   0  0  0  0  0  0  0  0  0  0  0  0
   -1.8478    6.4639    0.0000 C   0  0  0  0  0  0  0  0  0  0  0  0
   -3.0613    7.3456    0.0000 O   0  0  0  0  0  0  0  0  0  0  0  0
   -0.4775    7.0740    0.0000 C   0  0  0  0  0  0  0  0  0  0  0  0
    0.9229    6.5364    0.0000 C   0  0  0  0  0  0  0  0  0  0  0  0
    1.4604    7.9368    0.0000 C   0  0  0  0  0  0  0  0  0  0  0  0
    0.0601    8.4743    0.0000 C   0  0  0  0  0  0  0  0  0  0  0  0
   -0.8899    3.9684    0.0000 C   0  0  0  0  0  0  0  0  0  0  0  0
   -1.5000    0.0000    0.0000 C   0  0  0  0  0  0  0  0  0  0  0  0
   -0.7500   -1.2990    0.0000 C   0  0  0  0  0  0  0  0  0  0  0  0
    5.7618   -8.8011    0.0000 C   0  0  0  0  0  0  0  0  0  0  0  0
    7.2290   -9.1130    0.0000 C   0  0  0  0  0  0  0  0  0  0  0  0
    8.2327   -7.9983    0.0000 C   0  0  0  0  0  0  0  0  0  0  0  0
    7.7692   -6.5717    0.0000 C   0  0  0  0  0  0  0  0  0  0  0  0
    6.3019   -6.2598    0.0000 C   0  0  0  0  0  0  0  0  0  0  0  0
    5.2982   -7.3745    0.0000 C   0  0  0  0  0  0  0  0  0  0  0  0
  1  2  1  0
  2  3  1  0
  3  4  1  0
  4  5  2  0
  4  6  1  0
  6  7  1  0
  7  8  1  0
  8  9  1  0
  9 10  1  0
 10 11  1  0
 11 12  1  0
 12 13  1  0
 13 14  2  0
 13 15  1  0
 15 16  1  0
 16 17  1  0
 17 18  1  0
 18 19  1  0
 19 20  1  0
 20 21  1  0
 21 22  1  0
 22 23  1  0
 23 24  2  0
 23 25  1  0
 25 26  1  0
 26 27  1  0
 27 28  1  0
 22 29  1  0
 18 30  1  0
 30 31  1  0
  2 32  1  0
 32 33  1  0
 33 34  1  0
 34 35  1  0
 35 36  1  0
 36 37  1  0
 10  6  1  0
 31 15  1  0
 37 32  1  0
 29 19  1  0
 28 25  1  0
M  END
>  <Title>  (84) 
idAABHgen6

$$$$

     RDKit          2D

 21 22  0  0  0  0  0  0  0  0999 V2000
    5.5816    0.0000    0.0000 C   0  0  0  0  0  0  0  0  0  0  0  0
    4.0816    0.0000    0.0000 C   0  0  0  0  0  0  0  0  0  0  0  0
    3.8060    1.4745    0.0000 C   0  0  0  0  0  0  0  0  0  0  0  0
    3.0164    2.7498    0.0000 C   0  0  0  0  0  0  0  0  0  0  0  0
    1.8193    3.6537    0.0000 C   0  0  0  0  0  0  0  0  0  0  0  0
    0.3766    4.0642    0.0000 C   0  0  0  0  0  0  0  0  0  0  0  0
   -1.1170    3.9258    0.0000 C   0  0  0  0  0  0  0  0  0  0  0  0
   -2.4597    3.2572    0.0000 C   0  0  0  0  0  0  0  0  0  0  0  0
   -3.4703    2.1487    0.0000 C   0  0  0  0  0  0  0  0  0  0  0  0
   -4.0121    0.7500    0.0000 C   0  0  0  0  0  0  0  0  0  0  0  0
   -4.0121   -0.7500    0.0000 C   0  0  0  0  0  0  0  0  0  0  0  0
   -3.4703   -2.1487    0.0000 C   0  0  0  0  0  0  0  0  0  0  0  0
   -2.4597   -3.2572    0.0000 C   0  0  0  0  0  0  0  0  0  0  0  0
   -1.1170   -3.9258    0.0000 C   0  0  0  0  0  0  0  0  0  0  0  0
   -1.2554   -5.4194    0.0000 C   0  0  0  0  0  0  0  0  0  0  0  0
   -2.4094   -6.3777    0.0000 O   0  0  0  0  0  0  0  0  0  0  0  0
    0.2382   -5.5578    0.0000 N   0  0  0  0  0  0  0  0  0  0  0  0
    0.3766   -4.0642    0.0000 C   0  0  0  0  0  0  0  0  0  0  0  0
    1.8193   -3.6537    0.0000 N   0  0  0  0  0  0  0  0  0  0  0  0
    3.0164   -2.7498    0.0000 N   0  0  0  0  0  0  0  0  0  0  0  0
    3.8060   -1.4745    0.0000 N   0  0  0  0  0  0  0  0  0  0  0  0
  1  2  1  0
  2  3  1  0
  3  4  1  0
  4  5  1  0
  5  6  1  0
  6  7  1  0
  7  8  1  0
  8  9  1  0
  9 10  1  0
 10 11  1  0
 11 12  1  0
 12 13  1  0
 13 14  1  0
 14 15  1  0
 15 16  2  0
 15 17  1  0
 17 18  1  0
 18 19  2  0
 19 20  1  0
 20 21  2  0
 21  2  1  0
 18 14  1  0
M  END
>  <Title>  (85) 
idAABIgen6

$$$$

     RDKit          2D

 22 24  0  0  0  0  0  0  0  0999 V2000
   -3.0000   -2.5981    0.0000 C   0  0  0  0  0  0  0  0  0  0  0  0
   -1.5000   -2.5981    0.0000 C   0  0  0  0  0  0  0  0  0  0  0  0
   -0.7500   -3.8971    0.0000 C   0  0  0  0  0  0  0  0  0  0  0  0
    0.7500   -3.8971    0.0000 C   0  0  0  0  0  0  0  0  0  0  0  0
    1.5000   -2.5981    0.0000 C   0  0  0  0  0  0  0  0  0  0  0  0
    3.0000   -2.5981    0.0000 C   0  0  0  0  0  0  0  0  0  0  0  0
    3.7500   -1.2990    0.0000 O   0  0  0  0  0  0  0  0  0  0  0  0
    3.7500   -3.8971    0.0000 N   0  0  0  0  0  0  0  0  0  0  0  0
    5.2500   -3.8971    0.0000 C   0  0  0  0  0  0  0  0  0  0  0  0
    6.0000   -5.1962    0.0000 N   0  0  0  0  0  0  0  0  0  0  0  0
    7.5000   -5.1962    0.0000 N   0  0  0  0  0  0  0  0  0  0  0  0
    8.2500   -3.8971    0.0000 N   0  0  0  0  0  0  0  0  0  0  0  0
    7.5000   -2.5981    0.0000 N   0  0  0  0  0  0  0  0  0  0  0  0
    6.0000   -2.5981    0.0000 N   0  0  0  0  0  0  0  0  0  0  0  0
    0.7500   -1.2990    0.0000 C   0  0  0  0  0  0  0  0  0  0  0  0
    1.5000    0.0000    0.0000 C   0  0  0  0  0  0  0  0  0  0  0  0
    0.7500    1.2990    0.0000 C   0  0  0  0  0  0  0  0  0  0  0  0
   -0.7500    1.2990    0.0000 C   0  0  0  0  0  0  0  0  0  0  0  0
   -1.5000    2.5981    0.0000 C   0  0  0  0  0  0  0  0  0  0  0  0
   -2.2500    3.8971    0.0000 N   0  0  0  0  0  0  0  0  0  0  0  0
   -1.5000    0.0000    0.0000 C   0  0  0  0  0  0  0  0  0  0  0  0
   -0.7500   -1.2990    0.0000 C   0  0  0  0  0  0  0  0  0  0  0  0
  1  2  1  0
  2  3  1  0
  3  4  1  0
  4  5  1  0
  5  6  1  0
  6  7  2  0
  6  8  1  0
  8  9  1  0
  9 10  2  0
 10 11  1  0
 11 12  2  0
 12 13  1  0
 13 14  2  0
  5 15  1  0
 15 16  2  0
 16 17  1  0
 17 18  2  0
 18 19  1  0
 19 20  3  0
 18 21  1  0
 21 22  2  0
 22  2  1  0
 14  9  1  0
 22 15  1  0
M  END
>  <Title>  (86) 
idAABJgen6

$$$$

     RDKit          2D

 18 19  0  0  0  0  0  0  0  0999 V2000
    3.2286   -0.0000    0.0000 C   0  0  0  0  0  0  0  0  0  0  0  0
    1.7286    0.0000    0.0000 C   0  0  0  0  0  0  0  0  0  0  0  0
    1.0777    1.3515    0.0000 C   0  0  0  0  0  0  0  0  0  0  0  0
   -0.3846    1.6852    0.0000 C   0  0  0  0  0  0  0  0  0  0  0  0
   -1.5574    0.7500    0.0000 C   0  0  0  0  0  0  0  0  0  0  0  0
   -1.5574   -0.7500    0.0000 C   0  0  0  0  0  0  0  0  0  0  0  0
   -2.9088   -1.4008    0.0000 C   0  0  0  0  0  0  0  0  0  0  0  0
   -3.0209   -2.8966    0.0000 O   0  0  0  0  0  0  0  0  0  0  0  0
   -4.1482   -0.5558    0.0000 N   0  0  0  0  0  0  0  0  0  0  0  0
   -5.4997   -1.2067    0.0000 C   0  0  0  0  0  0  0  0  0  0  0  0
   -6.7390   -0.3617    0.0000 N   0  0  0  0  0  0  0  0  0  0  0  0
   -8.0905   -1.0125    0.0000 N   0  0  0  0  0  0  0  0  0  0  0  0
   -8.2026   -2.5083    0.0000 N   0  0  0  0  0  0  0  0  0  0  0  0
   -6.9632   -3.3533    0.0000 N   0  0  0  0  0  0  0  0  0  0  0  0
   -5.6118   -2.7025    0.0000 N   0  0  0  0  0  0  0  0  0  0  0  0
   -0.3846   -1.6852    0.0000 C   0  0  0  0  0  0  0  0  0  0  0  0
    1.0777   -1.3515    0.0000 C   0  0  0  0  0  0  0  0  0  0  0  0
    2.0130   -2.5242    0.0000 O   0  0  0  0  0  0  0  0  0  0  0  0
  1  2  1  0
  2  3  1  0
  3  4  2  0
  4  5  1  0
  5  6  1  0
  6  7  1  0
  7  8  2  0
  7  9  1  0
  9 10  1  0
 10 11  2  0
 11 12  1  0
 12 13  2  0
 13 14  1  0
 14 15  2  0
  6 16  1  0
 16 17  2  0
 17 18  1  0
 17  2  1  0
 15 10  1  0
M  END
>  <Title>  (87) 
idAABKgen6

$$$$

     RDKit          2D

 10 11  0  0  0  0  0  0  0  0999 V2000
    1.5000    0.0000    0.0000 C   0  0  0  0  0  0  0  0  0  0  0  0
    0.7500   -1.2990    0.0000 C   0  0  0  0  0  0  0  0  0  0  0  0
   -0.7500   -1.2990    0.0000 C   0  0  0  0  0  0  0  0  0  0  0  0
   -1.5000   -2.5981    0.0000 C   0  0  0  0  0  0  0  0  0  0  0  0
   -3.0000   -2.5981    0.0000 C   0  0  0  0  0  0  0  0  0  0  0  0
   -3.7500   -1.2990    0.0000 C   0  0  0  0  0  0  0  0  0  0  0  0
   -3.0000    0.0000    0.0000 C   0  0  0  0  0  0  0  0  0  0  0  0
   -1.5000    0.0000    0.0000 C   0  0  0  0  0  0  0  0  0  0  0  0
   -0.7500    1.2990    0.0000 C   0  0  0  0  0  0  0  0  0  0  0  0
    0.7500    1.2990    0.0000 C   0  0  0  0  0  0  0  0  0  0  0  0
  1  2  2  0
  2  3  1  0
  3  4  1  0
  4  5  1  0
  5  6  1  0
  6  7  1  0
  7  8  1  0
  8  9  1  0
  9 10  1  0
 10  1  1  0
  8  3  1  0
M  END
>  <Title>  (88) 
idAABLgen6

$$$$

     RDKit          2D

 10 11  0  0  0  0  0  0  0  0999 V2000
    2.7760    0.0000    0.0000 C   0  0  0  0  0  0  0  0  0  0  0  0
    1.2760    0.0000    0.0000 C   0  0  0  0  0  0  0  0  0  0  0  0
    0.3943    1.2135    0.0000 C   0  0  0  0  0  0  0  0  0  0  0  0
   -1.0323    0.7500    0.0000 C   0  0  0  0  0  0  0  0  0  0  0  0
   -1.0323   -0.7500    0.0000 C   0  0  0  0  0  0  0  0  0  0  0  0
   -1.9140   -1.9635    0.0000 C   0  0  0  0  0  0  0  0  0  0  0  0
   -3.4140   -1.9635    0.0000 O   0  0  0  0  0  0  0  0  0  0  0  0
   -1.0323   -3.1771    0.0000 N   0  0  0  0  0  0  0  0  0  0  0  0
    0.3943   -2.7135    0.0000 C   0  0  0  0  0  0  0  0  0  0  0  0
    0.3943   -1.2135    0.0000 C   0  0  0  0  0  0  0  0  0  0  0  0
  1  2  1  0
  2  3  2  0
  3  4  1  0
  4  5  2  0
  5  6  1  0
  6  7  2  0
  6  8  1  0
  8  9  1  0
  9 10  2  0
 10  2  1  0
 10  5  1  0
M  END
>  <Title>  (89) 
idAABMgen6

$$$$

     RDKit          2D

 41 43  0  0  0  0  0  0  0  0999 V2000
    1.5000  -10.3923    0.0000 C   0  0  0  0  0  0  0  0  0  0  0  0
    0.7500   -9.0933    0.0000 C   0  0  0  0  0  0  0  0  0  0  0  0
   -0.7500   -9.0933    0.0000 O   0  0  0  0  0  0  0  0  0  0  0  0
    1.5000   -7.7942    0.0000 C   0  0  0  0  0  0  0  0  0  0  0  0
    0.7500   -6.4952    0.0000 C   0  0  0  0  0  0  0  0  0  0  0  0
    1.5000   -5.1962    0.0000 C   0  0  0  0  0  0  0  0  0  0  0  0
    3.0000   -5.1962    0.0000 O   0  0  0  0  0  0  0  0  0  0  0  0
    0.7500   -3.8971    0.0000 C   0  0  0  0  0  0  0  0  0  0  0  0
    1.5000   -2.5981    0.0000 C   0  0  0  0  0  0  0  0  0  0  0  0
    0.7500   -1.2990    0.0000 C   0  0  0  0  0  0  0  0  0  0  0  0
    1.5000    0.0000    0.0000 C   0  0  0  0  0  0  0  0  0  0  0  0
    0.7500    1.2990    0.0000 C   0  0  0  0  0  0  0  0  0  0  0  0
   -0.7500    1.2990    0.0000 C   0  0  0  0  0  0  0  0  0  0  0  0
   -1.5000    2.5981    0.0000 O   0  0  0  0  0  0  0  0  0  0  0  0
   -0.7500    3.8971    0.0000 C   0  0  0  0  0  0  0  0  0  0  0  0
    0.7500    3.8971    0.0000 O   0  0  0  0  0  0  0  0  0  0  0  0
   -1.5000    5.1962    0.0000 C   0  0  0  0  0  0  0  0  0  0  0  0
   -0.7500    6.4952    0.0000 C   0  0  0  0  0  0  0  0  0  0  0  0
   -1.5000    7.7942    0.0000 C   0  0  0  0  0  0  0  0  0  0  0  0
   -3.0000    7.7942    0.0000 C   0  0  0  0  0  0  0  0  0  0  0  0
   -3.7500    6.4952    0.0000 C   0  0  0  0  0  0  0  0  0  0  0  0
   -3.0000    5.1962    0.0000 C   0  0  0  0  0  0  0  0  0  0  0  0
   -1.5000    0.0000    0.0000 C   0  0  0  0  0  0  0  0  0  0  0  0
   -0.7500   -1.2990    0.0000 C   0  0  0  0  0  0  0  0  0  0  0  0
   -0.7500   -3.8971    0.0000 N   0  0  0  0  0  0  0  0  0  0  0  0
   -1.5000   -5.1962    0.0000 C   0  0  0  0  0  0  0  0  0  0  0  0
   -0.7500   -6.4952    0.0000 O   0  0  0  0  0  0  0  0  0  0  0  0
   -3.0000   -5.1962    0.0000 C   0  0  0  0  0  0  0  0  0  0  0  0
   -3.7500   -6.4952    0.0000 C   0  0  0  0  0  0  0  0  0  0  0  0
   -5.2500   -6.4952    0.0000 C   0  0  0  0  0  0  0  0  0  0  0  0
   -6.0000   -5.1962    0.0000 C   0  0  0  0  0  0  0  0  0  0  0  0
   -7.5000   -5.1962    0.0000 C   0  0  0  0  0  0  0  0  0  0  0  0
   -8.2500   -6.4952    0.0000 C   0  0  0  0  0  0  0  0  0  0  0  0
   -7.5000   -7.7942    0.0000 C   0  0  0  0  0  0  0  0  0  0  0  0
   -6.0000   -7.7942    0.0000 C   0  0  0  0  0  0  0  0  0  0  0  0
   -3.7500   -3.8971    0.0000 N   0  0  0  0  0  0  0  0  0  0  0  0
   -3.0000   -2.5981    0.0000 C   0  0  0  0  0  0  0  0  0  0  0  0
   -1.5000   -2.5981    0.0000 O   0  0  0  0  0  0  0  0  0  0  0  0
   -3.7500   -1.2990    0.0000 C   0  0  0  0  0  0  0  0  0  0  0  0
   -3.0000   -0.0000    0.0000 C   0  0  0  0  0  0  0  0  0  0  0  0
   -5.2500   -1.2990    0.0000 C   0  0  0  0  0  0  0  0  0  0  0  0
  1  2  1  0
  2  3  2  0
  2  4  1  0
  4  5  1  0
  5  6  1  0
  6  7  2  0
  6  8  1  0
  8  9  1  0
  9 10  1  0
 10 11  2  0
 11 12  1  0
 12 13  2  0
 13 14  1  0
 14 15  1  0
 15 16  2  0
 15 17  1  0
 17 18  2  0
 18 19  1  0
 19 20  2  0
 20 21  1  0
 21 22  2  0
 13 23  1  0
 23 24  1  0
  8 25  1  0
 25 26  1  0
 26 27  2  0
 26 28  1  0
 28 29  1  0
 29 30  1  0
 30 31  2  0
 31 32  1  0
 32 33  2  0
 33 34  1  0
 34 35  2  0
 28 36  1  0
 36 37  1  0
 37 38  2  0
 37 39  1  0
 39 40  1  0
 39 41  1  0
 24 10  1  0
 35 30  1  0
 22 17  1  0
M  END
>  <Title>  (90) 
idAABNgen6

$$$$

     RDKit          2D

 24 26  0  0  0  0  0  0  0  0999 V2000
   -1.2527   -3.3544    0.0000 O   0  0  0  0  0  0  0  0  0  0  0  0
   -2.5332   -2.5732    0.0000 C   0  0  0  0  0  0  0  0  0  0  0  0
   -3.8500   -3.2916    0.0000 N   0  0  0  0  0  0  0  0  0  0  0  0
   -3.8862   -4.7912    0.0000 C   0  0  0  0  0  0  0  0  0  0  0  0
   -5.2030   -5.5096    0.0000 N   0  0  0  0  0  0  0  0  0  0  0  0
   -5.2392   -7.0091    0.0000 N   0  0  0  0  0  0  0  0  0  0  0  0
   -3.9587   -7.7903    0.0000 N   0  0  0  0  0  0  0  0  0  0  0  0
   -2.6419   -7.0719    0.0000 N   0  0  0  0  0  0  0  0  0  0  0  0
   -2.6057   -5.5724    0.0000 N   0  0  0  0  0  0  0  0  0  0  0  0
   -2.4969   -1.0737    0.0000 C   0  0  0  0  0  0  0  0  0  0  0  0
   -3.9443   -0.6796    0.0000 C   0  0  0  0  0  0  0  0  0  0  0  0
   -5.0427    0.3419    0.0000 C   0  0  0  0  0  0  0  0  0  0  0  0
   -5.5405    1.7569    0.0000 C   0  0  0  0  0  0  0  0  0  0  0  0
   -5.3238    3.2411    0.0000 C   0  0  0  0  0  0  0  0  0  0  0  0
   -4.4421    4.4547    0.0000 C   0  0  0  0  0  0  0  0  0  0  0  0
   -3.0975    5.1194    0.0000 C   0  0  0  0  0  0  0  0  0  0  0  0
   -1.5979    5.0832    0.0000 C   0  0  0  0  0  0  0  0  0  0  0  0
   -0.2870    4.3542    0.0000 C   0  0  0  0  0  0  0  0  0  0  0  0
    0.5351    3.0995    0.0000 C   0  0  0  0  0  0  0  0  0  0  0  0
    0.3943    1.2135    0.0000 C   0  0  0  0  0  0  0  0  0  0  0  0
    1.2760    0.0000    0.0000 C   0  0  0  0  0  0  0  0  0  0  0  0
    0.3943   -1.2135    0.0000 C   0  0  0  0  0  0  0  0  0  0  0  0
   -1.0323   -0.7500    0.0000 C   0  0  0  0  0  0  0  0  0  0  0  0
   -1.0323    0.7500    0.0000 N   0  0  0  0  0  0  0  0  0  0  0  0
  1  2  2  0
  2  3  1  0
  3  4  1  0
  4  5  2  0
  5  6  1  0
  6  7  2  0
  7  8  1  0
  8  9  2  0
  2 10  1  0
 10 11  1  0
 11 12  1  0
 12 13  1  0
 13 14  1  0
 14 15  1  0
 15 16  1  0
 16 17  1  0
 17 18  1  0
 18 19  1  0
 19 20  1  0
 20 21  1  0
 21 22  1  0
 22 23  1  0
 23 24  1  0
  9  4  1  0
 23 10  1  0
 24 20  1  0
M  END
>  <Title>  (91) 
idAABOgen6

$$$$

     RDKit          2D

  8  7  0  0  0  0  0  0  0  0999 V2000
    0.0000    0.0000    0.0000 C   0  0  0  0  0  0  0  0  0  0  0  0
    1.2990    0.7500    0.0000 C   0  0  0  0  0  0  0  0  0  0  0  0
    2.5981   -0.0000    0.0000 C   0  0  0  0  0  0  0  0  0  0  0  0
    3.8971   -0.7500    0.0000 C   0  0  0  0  0  0  0  0  0  0  0  0
    5.1962   -1.5000    0.0000 C   0  0  0  0  0  0  0  0  0  0  0  0
    6.4952   -0.7500    0.0000 C   0  0  0  0  0  0  0  0  0  0  0  0
    5.1962   -3.0000    0.0000 O   0  0  0  0  0  0  0  0  0  0  0  0
    3.8971   -3.7500    0.0000 C   0  0  0  0  0  0  0  0  0  0  0  0
  1  2  1  0
  2  3  1  0
  3  4  3  0
  4  5  1  0
  5  6  1  0
  5  7  1  0
  7  8  1  0
M  END
>  <Title>  (92) 
idAABPgen6

$$$$

     RDKit          2D

 12 12  0  0  0  0  0  0  0  0999 V2000
    6.0000   -2.5981    0.0000 C   0  0  0  0  0  0  0  0  0  0  0  0
    5.2500   -1.2990    0.0000 C   0  0  0  0  0  0  0  0  0  0  0  0
    6.0000    0.0000    0.0000 O   0  0  0  0  0  0  0  0  0  0  0  0
    3.7500   -1.2990    0.0000 O   0  0  0  0  0  0  0  0  0  0  0  0
    3.0000    0.0000    0.0000 C   0  0  0  0  0  0  0  0  0  0  0  0
    1.5000    0.0000    0.0000 C   0  0  0  0  0  0  0  0  0  0  0  0
    0.7500   -1.2990    0.0000 C   0  0  0  0  0  0  0  0  0  0  0  0
   -0.7500   -1.2990    0.0000 N   0  0  0  0  0  0  0  0  0  0  0  0
   -1.5000    0.0000    0.0000 C   0  0  0  0  0  0  0  0  0  0  0  0
   -3.0000    0.0000    0.0000 O   0  0  0  0  0  0  0  0  0  0  0  0
   -0.7500    1.2990    0.0000 C   0  0  0  0  0  0  0  0  0  0  0  0
    0.7500    1.2990    0.0000 C   0  0  0  0  0  0  0  0  0  0  0  0
  1  2  1  0
  2  3  2  0
  2  4  1  0
  4  5  1  0
  5  6  1  0
  6  7  2  0
  7  8  1  0
  8  9  2  0
  9 10  1  0
  9 11  1  0
 11 12  1  0
 12  6  1  0
M  END
>  <Title>  (93) 
idAABQgen6

$$$$

     RDKit          2D

 26 28  0  0  0  0  0  0  0  0999 V2000
   -6.0000   -5.1962    0.0000 C   0  0  0  0  0  0  0  0  0  0  0  0
   -5.2500   -3.8971    0.0000 C   0  0  0  0  0  0  0  0  0  0  0  0
   -6.0000   -2.5981    0.0000 O   0  0  0  0  0  0  0  0  0  0  0  0
   -3.7500   -3.8971    0.0000 C   0  0  0  0  0  0  0  0  0  0  0  0
   -3.0000   -5.1962    0.0000 C   0  0  0  0  0  0  0  0  0  0  0  0
   -1.5000   -5.1962    0.0000 O   0  0  0  0  0  0  0  0  0  0  0  0
   -3.7500   -6.4952    0.0000 O   0  0  0  0  0  0  0  0  0  0  0  0
   -3.0000   -2.5981    0.0000 C   0  0  0  0  0  0  0  0  0  0  0  0
   -3.7500   -1.2990    0.0000 O   0  0  0  0  0  0  0  0  0  0  0  0
   -1.5000   -2.5981    0.0000 N   0  0  0  0  0  0  0  0  0  0  0  0
   -0.7500   -3.8971    0.0000 C   0  0  0  0  0  0  0  0  0  0  0  0
    0.7500   -3.8971    0.0000 C   0  0  0  0  0  0  0  0  0  0  0  0
    1.5000   -2.5981    0.0000 C   0  0  0  0  0  0  0  0  0  0  0  0
    3.0000   -2.5981    0.0000 C   0  0  0  0  0  0  0  0  0  0  0  0
    3.7500   -3.8971    0.0000 C   0  0  0  0  0  0  0  0  0  0  0  0
    5.2500   -3.8971    0.0000 C   0  0  0  0  0  0  0  0  0  0  0  0
    6.0000   -2.5981    0.0000 C   0  0  0  0  0  0  0  0  0  0  0  0
    5.2500   -1.2990    0.0000 C   0  0  0  0  0  0  0  0  0  0  0  0
    3.7500   -1.2990    0.0000 C   0  0  0  0  0  0  0  0  0  0  0  0
    0.7500   -1.2990    0.0000 C   0  0  0  0  0  0  0  0  0  0  0  0
    1.5000    0.0000    0.0000 C   0  0  0  0  0  0  0  0  0  0  0  0
    0.7500    1.2990    0.0000 C   0  0  0  0  0  0  0  0  0  0  0  0
   -0.7500    1.2990    0.0000 C   0  0  0  0  0  0  0  0  0  0  0  0
   -1.5000    2.5981    0.0000 O   0  0  0  0  0  0  0  0  0  0  0  0
   -1.5000    0.0000    0.0000 C   0  0  0  0  0  0  0  0  0  0  0  0
   -0.7500   -1.2990    0.0000 C   0  0  0  0  0  0  0  0  0  0  0  0
  1  2  1  0
  2  3  2  0
  2  4  1  0
  4  5  1  0
  5  6  2  0
  5  7  1  0
  4  8  1  0
  8  9  2  0
  8 10  1  0
 10 11  1  0
 11 12  1  0
 12 13  1  0
 13 14  1  0
 14 15  2  0
 15 16  1  0
 16 17  2  0
 17 18  1  0
 18 19  2  0
 13 20  1  0
 20 21  2  0
 21 22  1  0
 22 23  2  0
 23 24  1  0
 23 25  1  0
 25 26  2  0
 26 10  1  0
 19 14  1  0
 26 20  1  0
M  END
>  <Title>  (94) 
idAABRgen6

$$$$

     RDKit          2D

 25 26  0  0  0  0  0  0  0  0999 V2000
    3.7873   -4.8217    0.0000 C   0  0  0  0  0  0  0  0  0  0  0  0
    2.8050   -3.6880    0.0000 C   0  0  0  0  0  0  0  0  0  0  0  0
    3.6706   -2.4630    0.0000 C   0  0  0  0  0  0  0  0  0  0  0  0
    3.8677   -0.9760    0.0000 C   0  0  0  0  0  0  0  0  0  0  0  0
    3.3513    0.4323    0.0000 C   0  0  0  0  0  0  0  0  0  0  0  0
    4.5950    1.2708    0.0000 O   0  0  0  0  0  0  0  0  0  0  0  0
    2.2395    1.4392    0.0000 N   0  0  0  0  0  0  0  0  0  0  0  0
    2.6621    0.0000    0.0000 C   0  0  0  0  0  0  0  0  0  0  0  0
    2.2395   -1.4392    0.0000 C   0  0  0  0  0  0  0  0  0  0  0  0
    1.1059   -2.4215    0.0000 C   0  0  0  0  0  0  0  0  0  0  0  0
    1.7290   -3.7860    0.0000 C   0  0  0  0  0  0  0  0  0  0  0  0
    0.8589   -5.0078    0.0000 O   0  0  0  0  0  0  0  0  0  0  0  0
    2.5173   -3.6675    0.0000 O   0  0  0  0  0  0  0  0  0  0  0  0
   -0.3789   -2.6350    0.0000 C   0  0  0  0  0  0  0  0  0  0  0  0
    0.1299   -4.0461    0.0000 O   0  0  0  0  0  0  0  0  0  0  0  0
   -1.7433   -2.0119    0.0000 C   0  0  0  0  0  0  0  0  0  0  0  0
   -2.5543   -0.7500    0.0000 N   0  0  0  0  0  0  0  0  0  0  0  0
   -2.5543    0.7500    0.0000 N   0  0  0  0  0  0  0  0  0  0  0  0
   -1.7433    2.0119    0.0000 N   0  0  0  0  0  0  0  0  0  0  0  0
   -0.3789    2.6350    0.0000 N   0  0  0  0  0  0  0  0  0  0  0  0
    1.1059    2.4215    0.0000 N   0  0  0  0  0  0  0  0  0  0  0  0
   -1.3511   -3.6424    0.0000 N   0  0  0  0  0  0  0  0  0  0  0  0
   -0.0307   -4.3540    0.0000 C   0  0  0  0  0  0  0  0  0  0  0  0
   -0.4056   -5.8064    0.0000 O   0  0  0  0  0  0  0  0  0  0  0  0
    1.4692   -4.3705    0.0000 C   0  0  0  0  0  0  0  0  0  0  0  0
  1  2  1  0
  2  3  1  0
  3  4  1  0
  4  5  1  0
  5  6  2  0
  5  7  1  0
  7  8  1  0
  8  9  1  0
  9 10  1  0
 10 11  1  0
 11 12  2  0
 11 13  1  0
 10 14  1  0
 14 15  2  0
 14 16  1  0
 16 17  2  0
 17 18  1  0
 18 19  2  0
 19 20  1  0
 20 21  2  0
 16 22  1  0
 22 23  1  0
 23 24  2  0
 23 25  1  0
 25  2  1  0
 21  7  1  0
M  END
>  <Title>  (95) 
idAABSgen6

$$$$

     RDKit          2D

  9  8  0  0  0  0  0  0  0  0999 V2000
    0.0000    0.0000    0.0000 C   0  0  0  0  0  0  0  0  0  0  0  0
    1.2990    0.7500    0.0000 C   0  0  0  0  0  0  0  0  0  0  0  0
    2.5981    1.5000    0.0000 C   0  0  0  0  0  0  0  0  0  0  0  0
    2.0490   -0.5490    0.0000 C   0  0  0  0  0  0  0  0  0  0  0  0
    0.5490    2.0490    0.0000 C   0  0  0  0  0  0  0  0  0  0  0  0
   -0.2010    3.3481    0.0000 C   0  0  0  0  0  0  0  0  0  0  0  0
   -0.9510    4.6471    0.0000 C   0  0  0  0  0  0  0  0  0  0  0  0
   -0.2010    5.9462    0.0000 C   0  0  0  0  0  0  0  0  0  0  0  0
    0.5490    7.2452    0.0000 N   0  0  0  0  0  0  0  0  0  0  0  0
  1  2  1  0
  2  3  1  0
  2  4  1  0
  2  5  1  0
  5  6  3  0
  6  7  1  0
  7  8  1  0
  8  9  3  0
M  END
>  <Title>  (96) 
idAABTgen6

$$$$

     RDKit          2D

 26 29  0  0  0  0  0  0  0  0999 V2000
   -3.1476   -2.1380    0.0000 C   0  0  0  0  0  0  0  0  0  0  0  0
   -1.6852   -2.4718    0.0000 C   0  0  0  0  0  0  0  0  0  0  0  0
   -1.3515   -3.9342    0.0000 C   0  0  0  0  0  0  0  0  0  0  0  0
   -0.0000   -4.5850    0.0000 C   0  0  0  0  0  0  0  0  0  0  0  0
    1.3515   -3.9342    0.0000 C   0  0  0  0  0  0  0  0  0  0  0  0
    2.5242   -4.8694    0.0000 N   0  0  0  0  0  0  0  0  0  0  0  0
    3.9701   -4.4704    0.0000 C   0  0  0  0  0  0  0  0  0  0  0  0
    4.7965   -5.7222    0.0000 C   0  0  0  0  0  0  0  0  0  0  0  0
    3.8613   -6.8950    0.0000 C   0  0  0  0  0  0  0  0  0  0  0  0
    4.2603   -8.3409    0.0000 C   0  0  0  0  0  0  0  0  0  0  0  0
    5.7121   -8.7183    0.0000 O   0  0  0  0  0  0  0  0  0  0  0  0
    3.2076   -9.4095    0.0000 N   0  0  0  0  0  0  0  0  0  0  0  0
    3.6067  -10.8554    0.0000 C   0  0  0  0  0  0  0  0  0  0  0  0
    2.5540  -11.9240    0.0000 N   0  0  0  0  0  0  0  0  0  0  0  0
    2.9530  -13.3699    0.0000 N   0  0  0  0  0  0  0  0  0  0  0  0
    4.4048  -13.7473    0.0000 N   0  0  0  0  0  0  0  0  0  0  0  0
    5.4575  -12.6787    0.0000 N   0  0  0  0  0  0  0  0  0  0  0  0
    5.0584  -11.2328    0.0000 N   0  0  0  0  0  0  0  0  0  0  0  0
    2.4569   -6.3679    0.0000 C   0  0  0  0  0  0  0  0  0  0  0  0
    1.6852   -2.4718    0.0000 O   0  0  0  0  0  0  0  0  0  0  0  0
    0.7500   -1.2990    0.0000 C   0  0  0  0  0  0  0  0  0  0  0  0
    1.5000    0.0000    0.0000 C   0  0  0  0  0  0  0  0  0  0  0  0
    0.7500    1.2990    0.0000 C   0  0  0  0  0  0  0  0  0  0  0  0
   -0.7500    1.2990    0.0000 C   0  0  0  0  0  0  0  0  0  0  0  0
   -1.5000    0.0000    0.0000 C   0  0  0  0  0  0  0  0  0  0  0  0
   -0.7500   -1.2990    0.0000 C   0  0  0  0  0  0  0  0  0  0  0  0
  1  2  1  0
  2  3  2  0
  3  4  1  0
  4  5  2  0
  5  6  1  0
  6  7  1  0
  7  8  1  0
  8  9  1  0
  9 10  1  0
 10 11  2  0
 10 12  1  0
 12 13  1  0
 13 14  2  0
 14 15  1  0
 15 16  2  0
 16 17  1  0
 17 18  2  0
  9 19  1  0
  5 20  1  0
 20 21  1  0
 21 22  2  0
 22 23  1  0
 23 24  2  0
 24 25  1  0
 25 26  2  0
 26  2  1  0
 19  6  1  0
 26 21  1  0
 18 13  1  0
M  END
>  <Title>  (97) 
idAABUgen6

$$$$

     RDKit          2D

 53 56  0  0  0  0  0  0  0  0999 V2000
  -10.3171    6.0521    0.0000 C   0  0  0  0  0  0  0  0  0  0  0  0
   -8.8650    5.6761    0.0000 O   0  0  0  0  0  0  0  0  0  0  0  0
   -8.4645    4.2305    0.0000 C   0  0  0  0  0  0  0  0  0  0  0  0
   -9.8622    3.6859    0.0000 C   0  0  0  0  0  0  0  0  0  0  0  0
  -11.1215    2.8711    0.0000 C   0  0  0  0  0  0  0  0  0  0  0  0
  -12.1911    1.8194    0.0000 C   0  0  0  0  0  0  0  0  0  0  0  0
  -13.0271    0.5740    0.0000 C   0  0  0  0  0  0  0  0  0  0  0  0
  -13.5953   -0.8143    0.0000 C   0  0  0  0  0  0  0  0  0  0  0  0
  -13.8724   -2.2884    0.0000 C   0  0  0  0  0  0  0  0  0  0  0  0
  -13.8470   -3.7882    0.0000 C   0  0  0  0  0  0  0  0  0  0  0  0
  -13.5203   -5.2522    0.0000 C   0  0  0  0  0  0  0  0  0  0  0  0
  -12.9056   -6.6205    0.0000 C   0  0  0  0  0  0  0  0  0  0  0  0
  -12.0280   -7.8370    0.0000 C   0  0  0  0  0  0  0  0  0  0  0  0
  -10.9235   -8.8519    0.0000 C   0  0  0  0  0  0  0  0  0  0  0  0
   -9.6373   -9.6237    0.0000 C   0  0  0  0  0  0  0  0  0  0  0  0
   -8.2221  -10.1209    0.0000 C   0  0  0  0  0  0  0  0  0  0  0  0
   -6.7358  -10.3229    0.0000 C   0  0  0  0  0  0  0  0  0  0  0  0
   -5.2392  -10.2217    0.0000 C   0  0  0  0  0  0  0  0  0  0  0  0
   -3.7936   -9.8212    0.0000 C   0  0  0  0  0  0  0  0  0  0  0  0
   -2.4583   -9.1380    0.0000 C   0  0  0  0  0  0  0  0  0  0  0  0
   -1.2878   -8.1999    0.0000 C   0  0  0  0  0  0  0  0  0  0  0  0
   -0.3301   -7.0454    0.0000 C   0  0  0  0  0  0  0  0  0  0  0  0
    0.3756   -5.7218    0.0000 C   0  0  0  0  0  0  0  0  0  0  0  0
    0.8004   -4.2832    0.0000 C   0  0  0  0  0  0  0  0  0  0  0  0
    0.9269   -2.7886    0.0000 C   0  0  0  0  0  0  0  0  0  0  0  0
    2.4267   -2.7632    0.0000 C   0  0  0  0  0  0  0  0  0  0  0  0
    3.1547   -1.4517    0.0000 O   0  0  0  0  0  0  0  0  0  0  0  0
    3.1986   -4.0494    0.0000 N   0  0  0  0  0  0  0  0  0  0  0  0
    4.6983   -4.0241    0.0000 C   0  0  0  0  0  0  0  0  0  0  0  0
    5.4702   -5.3103    0.0000 N   0  0  0  0  0  0  0  0  0  0  0  0
    6.9700   -5.2849    0.0000 N   0  0  0  0  0  0  0  0  0  0  0  0
    7.6979   -3.9734    0.0000 N   0  0  0  0  0  0  0  0  0  0  0  0
    6.9261   -2.6872    0.0000 N   0  0  0  0  0  0  0  0  0  0  0  0
    5.4263   -2.7126    0.0000 N   0  0  0  0  0  0  0  0  0  0  0  0
    0.7500   -1.2990    0.0000 C   0  0  0  0  0  0  0  0  0  0  0  0
    1.5000    0.0000    0.0000 C   0  0  0  0  0  0  0  0  0  0  0  0
    0.7500    1.2990    0.0000 C   0  0  0  0  0  0  0  0  0  0  0  0
   -0.7500    1.2990    0.0000 C   0  0  0  0  0  0  0  0  0  0  0  0
   -1.5000    0.0000    0.0000 C   0  0  0  0  0  0  0  0  0  0  0  0
   -0.7500   -1.2990    0.0000 C   0  0  0  0  0  0  0  0  0  0  0  0
   -1.5000   -2.5981    0.0000 C   0  0  0  0  0  0  0  0  0  0  0  0
   -0.7500   -3.8971    0.0000 O   0  0  0  0  0  0  0  0  0  0  0  0
   -3.0000   -2.5981    0.0000 O   0  0  0  0  0  0  0  0  0  0  0  0
   -2.6708    3.4429    0.0000 N   0  0  0  0  0  0  0  0  0  0  0  0
   -4.0285    4.0806    0.0000 C   0  0  0  0  0  0  0  0  0  0  0  0
   -3.5313    5.4959    0.0000 O   0  0  0  0  0  0  0  0  0  0  0  0
   -5.4867    4.4320    0.0000 C   0  0  0  0  0  0  0  0  0  0  0  0
   -4.6933    5.7050    0.0000 C   0  0  0  0  0  0  0  0  0  0  0  0
   -5.3990    7.0286    0.0000 C   0  0  0  0  0  0  0  0  0  0  0  0
   -6.8981    7.0793    0.0000 C   0  0  0  0  0  0  0  0  0  0  0  0
   -7.6038    8.4029    0.0000 O   0  0  0  0  0  0  0  0  0  0  0  0
   -7.6916    5.8063    0.0000 C   0  0  0  0  0  0  0  0  0  0  0  0
   -6.9859    4.4827    0.0000 C   0  0  0  0  0  0  0  0  0  0  0  0
  1  2  1  0
  2  3  1  0
  3  4  1  0
  4  5  1  0
  5  6  1  0
  6  7  1  0
  7  8  1  0
  8  9  1  0
  9 10  1  0
 10 11  1  0
 11 12  1  0
 12 13  1  0
 13 14  1  0
 14 15  1  0
 15 16  1  0
 16 17  1  0
 17 18  1  0
 18 19  1  0
 19 20  2  0
 20 21  1  0
 21 22  2  0
 22 23  1  0
 23 24  1  0
 24 25  1  0
 25 26  1  0
 26 27  2  0
 26 28  1  0
 28 29  1  0
 29 30  2  0
 30 31  1  0
 31 32  2  0
 32 33  1  0
 33 34  2  0
 25 35  1  0
 35 36  2  0
 36 37  1  0
 37 38  2  0
 38 39  1  0
 39 40  2  0
 40 41  1  0
 41 42  2  0
 41 43  1  0
 38 44  1  0
 44 45  1  0
 45 46  2  0
 45 47  1  0
 47 48  2  0
 48 49  1  0
 49 50  2  0
 50 51  1  0
 50 52  1  0
 52 53  2  0
 53  3  1  0
 34 29  1  0
 40 35  1  0
 53 47  1  0
M  END
>  <Title>  (98) 
idAABVgen6

$$$$

     RDKit          2D

 13 13  0  0  0  0  0  0  0  0999 V2000
    7.5000   -2.5981    0.0000 C   0  0  0  0  0  0  0  0  0  0  0  0
    6.0000   -2.5981    0.0000 C   0  0  0  0  0  0  0  0  0  0  0  0
    5.2500   -3.8971    0.0000 O   0  0  0  0  0  0  0  0  0  0  0  0
    5.2500   -1.2990    0.0000 C   0  0  0  0  0  0  0  0  0  0  0  0
    3.7500   -1.2990    0.0000 N   0  0  0  0  0  0  0  0  0  0  0  0
    3.0000    0.0000    0.0000 C   0  0  0  0  0  0  0  0  0  0  0  0
    3.7500    1.2990    0.0000 O   0  0  0  0  0  0  0  0  0  0  0  0
    1.5000    0.0000    0.0000 C   0  0  0  0  0  0  0  0  0  0  0  0
    0.7500   -1.2990    0.0000 C   0  0  0  0  0  0  0  0  0  0  0  0
   -0.7500   -1.2990    0.0000 C   0  0  0  0  0  0  0  0  0  0  0  0
   -1.5000    0.0000    0.0000 C   0  0  0  0  0  0  0  0  0  0  0  0
   -0.7500    1.2990    0.0000 C   0  0  0  0  0  0  0  0  0  0  0  0
    0.7500    1.2990    0.0000 C   0  0  0  0  0  0  0  0  0  0  0  0
  1  2  1  0
  2  3  2  0
  2  4  1  0
  4  5  1  0
  5  6  1  0
  6  7  2  0
  6  8  1  0
  8  9  2  0
  9 10  1  0
 10 11  2  0
 11 12  1  0
 12 13  2  0
 13  8  1  0
M  END
>  <Title>  (99) 
idAABWgen6

$$$$

     RDKit          2D

 27 28  0  0  0  0  0  0  0  0999 V2000
   -3.0000   -7.7942    0.0000 C   0  0  0  0  0  0  0  0  0  0  0  0
   -1.5000   -7.7942    0.0000 C   0  0  0  0  0  0  0  0  0  0  0  0
   -0.7500   -6.4952    0.0000 C   0  0  0  0  0  0  0  0  0  0  0  0
    0.7500   -6.4952    0.0000 N   0  0  0  0  0  0  0  0  0  0  0  0
    1.5000   -7.7942    0.0000 C   0  0  0  0  0  0  0  0  0  0  0  0
    1.5000   -5.1962    0.0000 C   0  0  0  0  0  0  0  0  0  0  0  0
    3.0000   -5.1962    0.0000 O   0  0  0  0  0  0  0  0  0  0  0  0
    0.7500   -3.8971    0.0000 C   0  0  0  0  0  0  0  0  0  0  0  0
    1.5000   -2.5981    0.0000 C   0  0  0  0  0  0  0  0  0  0  0  0
    3.0000   -2.5981    0.0000 C   0  0  0  0  0  0  0  0  0  0  0  0
    3.7500   -1.2990    0.0000 C   0  0  0  0  0  0  0  0  0  0  0  0
    5.2500   -1.2990    0.0000 C   0  0  0  0  0  0  0  0  0  0  0  0
    6.0000   -2.5981    0.0000 C   0  0  0  0  0  0  0  0  0  0  0  0
    5.2500   -3.8971    0.0000 C   0  0  0  0  0  0  0  0  0  0  0  0
    3.7500   -3.8971    0.0000 C   0  0  0  0  0  0  0  0  0  0  0  0
   -0.7500   -3.8971    0.0000 O   0  0  0  0  0  0  0  0  0  0  0  0
   -1.5000   -2.5981    0.0000 C   0  0  0  0  0  0  0  0  0  0  0  0
   -0.7500   -1.2990    0.0000 O   0  0  0  0  0  0  0  0  0  0  0  0
   -3.0000   -2.5981    0.0000 C   0  0  0  0  0  0  0  0  0  0  0  0
   -3.8817   -1.3846    0.0000 C   0  0  0  0  0  0  0  0  0  0  0  0
   -5.3083   -1.8481    0.0000 C   0  0  0  0  0  0  0  0  0  0  0  0
   -5.3083   -3.3481    0.0000 C   0  0  0  0  0  0  0  0  0  0  0  0
   -6.5218   -4.2298    0.0000 O   0  0  0  0  0  0  0  0  0  0  0  0
   -3.8817   -3.8116    0.0000 C   0  0  0  0  0  0  0  0  0  0  0  0
   -3.4182   -5.2382    0.0000 C   0  0  0  0  0  0  0  0  0  0  0  0
   -1.9509   -5.5501    0.0000 O   0  0  0  0  0  0  0  0  0  0  0  0
   -4.4218   -6.3529    0.0000 O   0  0  0  0  0  0  0  0  0  0  0  0
  1  2  2  0
  2  3  1  0
  3  4  1  0
  4  5  1  0
  4  6  1  0
  6  7  2  0
  6  8  1  0
  8  9  1  0
  9 10  1  0
 10 11  2  0
 11 12  1  0
 12 13  2  0
 13 14  1  0
 14 15  2  0
  8 16  1  0
 16 17  1  0
 17 18  2  0
 17 19  1  0
 19 20  2  0
 20 21  1  0
 21 22  2  0
 22 23  1  0
 22 24  1  0
 24 25  1  0
 25 26  2  0
 25 27  1  0
 15 10  1  0
 24 19  1  0
M  END
>  <Title>  (100) 
idAABXgen6

$$$$

     RDKit          2D

 25 26  0  0  0  0  0  0  0  0999 V2000
    5.7760    2.5981    0.0000 C   0  0  0  0  0  0  0  0  0  0  0  0
    5.0260    1.2990    0.0000 C   0  0  0  0  0  0  0  0  0  0  0  0
    5.7760   -0.0000    0.0000 O   0  0  0  0  0  0  0  0  0  0  0  0
    3.5260    1.2990    0.0000 C   0  0  0  0  0  0  0  0  0  0  0  0
    2.7760    0.0000    0.0000 C   0  0  0  0  0  0  0  0  0  0  0  0
    1.2760    0.0000    0.0000 C   0  0  0  0  0  0  0  0  0  0  0  0
    0.3943    1.2135    0.0000 C   0  0  0  0  0  0  0  0  0  0  0  0
   -1.0323    0.7500    0.0000 C   0  0  0  0  0  0  0  0  0  0  0  0
   -1.0323   -0.7500    0.0000 C   0  0  0  0  0  0  0  0  0  0  0  0
   -2.2458   -1.6317    0.0000 O   0  0  0  0  0  0  0  0  0  0  0  0
    0.3943   -1.2135    0.0000 C   0  0  0  0  0  0  0  0  0  0  0  0
    0.8578   -2.6401    0.0000 C   0  0  0  0  0  0  0  0  0  0  0  0
    2.3250   -2.9520    0.0000 O   0  0  0  0  0  0  0  0  0  0  0  0
   -0.1459   -3.7548    0.0000 N   0  0  0  0  0  0  0  0  0  0  0  0
   -1.6377   -3.5980    0.0000 C   0  0  0  0  0  0  0  0  0  0  0  0
   -2.2478   -4.9684    0.0000 C   0  0  0  0  0  0  0  0  0  0  0  0
   -1.1330   -5.9720    0.0000 C   0  0  0  0  0  0  0  0  0  0  0  0
   -1.2898   -7.4638    0.0000 C   0  0  0  0  0  0  0  0  0  0  0  0
   -2.6602   -8.0739    0.0000 O   0  0  0  0  0  0  0  0  0  0  0  0
   -0.0763   -8.3455    0.0000 O   0  0  0  0  0  0  0  0  0  0  0  0
    0.1660   -5.2220    0.0000 C   0  0  0  0  0  0  0  0  0  0  0  0
    1.5363   -5.8322    0.0000 O   0  0  0  0  0  0  0  0  0  0  0  0
    2.7760    2.5981    0.0000 C   0  0  0  0  0  0  0  0  0  0  0  0
    1.2760    2.5981    0.0000 O   0  0  0  0  0  0  0  0  0  0  0  0
    3.5260    3.8971    0.0000 O   0  0  0  0  0  0  0  0  0  0  0  0
  1  2  1  0
  2  3  2  0
  2  4  1  0
  4  5  1  0
  5  6  1  0
  6  7  2  0
  7  8  1  0
  8  9  2  0
  9 10  1  0
  9 11  1  0
 11 12  1  0
 12 13  2  0
 12 14  1  0
 14 15  1  0
 15 16  1  0
 16 17  1  0
 17 18  1  0
 18 19  2  0
 18 20  1  0
 17 21  1  0
 21 22  2  0
  4 23  1  0
 23 24  2  0
 23 25  1  0
 11  6  1  0
 21 14  1  0
M  END
>  <Title>  (101) 
idAABYgen6

$$$$

     RDKit          2D

 30 33  0  0  0  0  0  0  0  0999 V2000
    1.1893   -6.3181    0.0000 O   0  0  0  0  0  0  0  0  0  0  0  0
   -0.3107   -6.3181    0.0000 C   0  0  0  0  0  0  0  0  0  0  0  0
   -1.0607   -7.6172    0.0000 N   0  0  0  0  0  0  0  0  0  0  0  0
   -0.3107   -8.9162    0.0000 C   0  0  0  0  0  0  0  0  0  0  0  0
    1.1811   -9.0730    0.0000 N   0  0  0  0  0  0  0  0  0  0  0  0
    1.4930  -10.5402    0.0000 N   0  0  0  0  0  0  0  0  0  0  0  0
    0.1940  -11.2902    0.0000 N   0  0  0  0  0  0  0  0  0  0  0  0
   -0.9208  -10.2865    0.0000 N   0  0  0  0  0  0  0  0  0  0  0  0
   -2.3880  -10.5984    0.0000 N   0  0  0  0  0  0  0  0  0  0  0  0
   -3.3917   -9.4837    0.0000 C   0  0  0  0  0  0  0  0  0  0  0  0
   -4.8589   -9.7955    0.0000 C   0  0  0  0  0  0  0  0  0  0  0  0
   -5.3224  -11.2221    0.0000 C   0  0  0  0  0  0  0  0  0  0  0  0
   -4.3187  -12.3369    0.0000 C   0  0  0  0  0  0  0  0  0  0  0  0
   -2.8515  -12.0250    0.0000 C   0  0  0  0  0  0  0  0  0  0  0  0
   -1.0607   -5.0191    0.0000 C   0  0  0  0  0  0  0  0  0  0  0  0
    0.0000   -3.9584    0.0000 C   0  0  0  0  0  0  0  0  0  0  0  0
    0.3882   -2.5095    0.0000 C   0  0  0  0  0  0  0  0  0  0  0  0
   -0.0000   -1.0607    0.0000 C   0  0  0  0  0  0  0  0  0  0  0  0
    1.0607    0.0000    0.0000 C   0  0  0  0  0  0  0  0  0  0  0  0
    2.5607    0.0000    0.0000 O   0  0  0  0  0  0  0  0  0  0  0  0
    0.0000    1.0607    0.0000 N   0  0  0  0  0  0  0  0  0  0  0  0
   -1.0607    0.0000    0.0000 C   0  0  0  0  0  0  0  0  0  0  0  0
   -2.5095    0.3882    0.0000 N   0  0  0  0  0  0  0  0  0  0  0  0
   -3.9584    0.0000    0.0000 N   0  0  0  0  0  0  0  0  0  0  0  0
   -5.0191   -1.0607    0.0000 C   0  0  0  0  0  0  0  0  0  0  0  0
   -5.4073   -2.5095    0.0000 C   0  0  0  0  0  0  0  0  0  0  0  0
   -5.0191   -3.9584    0.0000 C   0  0  0  0  0  0  0  0  0  0  0  0
   -3.9584   -5.0191    0.0000 C   0  0  0  0  0  0  0  0  0  0  0  0
   -2.5095   -5.4073    0.0000 C   0  0  0  0  0  0  0  0  0  0  0  0
   -2.5095   -6.9073    0.0000 O   0  0  0  0  0  0  0  0  0  0  0  0
  1  2  2  0
  2  3  1  0
  3  4  1  0
  4  5  2  0
  5  6  1  0
  6  7  2  0
  7  8  1  0
  8  9  1  0
  9 10  1  0
 10 11  1  0
 11 12  1  0
 12 13  1  0
 13 14  1  0
  2 15  1  0
 15 16  2  0
 16 17  1  0
 17 18  2  0
 18 19  1  0
 19 20  2  0
 19 21  1  0
 21 22  1  0
 22 23  2  0
 23 24  1  0
 24 25  2  0
 25 26  1  0
 26 27  2  0
 27 28  1  0
 28 29  2  0
 29 30  1  0
  8  4  1  0
 14  9  1  0
 29 15  1  0
 22 18  1  0
M  END
>  <Title>  (102) 
idAABZgen6

$$$$

     RDKit          2D

 26 29  0  0  0  0  0  0  0  0999 V2000
   -3.4268    0.1972    0.0000 C   0  0  0  0  0  0  0  0  0  0  0  0
   -2.4231    1.3119    0.0000 C   0  0  0  0  0  0  0  0  0  0  0  0
   -3.1273    2.6363    0.0000 C   0  0  0  0  0  0  0  0  0  0  0  0
   -2.8154    4.1036    0.0000 C   0  0  0  0  0  0  0  0  0  0  0  0
   -1.6334    5.0270    0.0000 C   0  0  0  0  0  0  0  0  0  0  0  0
   -0.1343    4.9747    0.0000 C   0  0  0  0  0  0  0  0  0  0  0  0
    0.9804    3.9710    0.0000 C   0  0  0  0  0  0  0  0  0  0  0  0
    1.1892    2.4856    0.0000 C   0  0  0  0  0  0  0  0  0  0  0  0
    0.3943    1.2135    0.0000 C   0  0  0  0  0  0  0  0  0  0  0  0
    1.2760    0.0000    0.0000 C   0  0  0  0  0  0  0  0  0  0  0  0
    0.3943   -1.2135    0.0000 C   0  0  0  0  0  0  0  0  0  0  0  0
   -1.0323   -0.7500    0.0000 C   0  0  0  0  0  0  0  0  0  0  0  0
   -1.0323    0.7500    0.0000 C   0  0  0  0  0  0  0  0  0  0  0  0
    0.3787    6.3842    0.0000 C   0  0  0  0  0  0  0  0  0  0  0  0
    1.8206    6.7977    0.0000 O   0  0  0  0  0  0  0  0  0  0  0  0
   -0.8033    7.3077    0.0000 N   0  0  0  0  0  0  0  0  0  0  0  0
   -2.0468    6.4689    0.0000 C   0  0  0  0  0  0  0  0  0  0  0  0
   -3.4564    6.9820    0.0000 N   0  0  0  0  0  0  0  0  0  0  0  0
   -3.7169    8.4592    0.0000 N   0  0  0  0  0  0  0  0  0  0  0  0
   -5.1264    8.9722    0.0000 N   0  0  0  0  0  0  0  0  0  0  0  0
   -5.3869   10.4494    0.0000 N   0  0  0  0  0  0  0  0  0  0  0  0
   -6.7351   11.1070    0.0000 C   0  0  0  0  0  0  0  0  0  0  0  0
   -6.5263   12.5924    0.0000 C   0  0  0  0  0  0  0  0  0  0  0  0
   -5.0491   12.8529    0.0000 C   0  0  0  0  0  0  0  0  0  0  0  0
   -4.3449   11.5284    0.0000 C   0  0  0  0  0  0  0  0  0  0  0  0
   -2.8595   11.3197    0.0000 O   0  0  0  0  0  0  0  0  0  0  0  0
  1  2  1  0
  2  3  1  0
  3  4  1  0
  4  5  1  0
  5  6  1  0
  6  7  2  0
  7  8  1  0
  8  9  2  0
  9 10  1  0
 10 11  2  0
 11 12  1  0
 12 13  2  0
  6 14  1  0
 14 15  2  0
 14 16  1  0
 16 17  1  0
 17 18  2  3
 18 19  1  0
 19 20  2  3
 20 21  1  0
 21 22  1  0
 22 23  1  0
 23 24  1  0
 24 25  1  0
 25 26  2  0
 13  2  1  0
 25 21  1  0
 17  5  1  0
 13  9  1  0
M  END
>  <Title>  (103) 
idAACAgen6

$$$$

     RDKit          2D

  6  5  0  0  0  0  0  0  0  0999 V2000
    0.0000    0.0000    0.0000 C   0  0  0  0  0  0  0  0  0  0  0  0
   -0.0000   -1.5000    0.0000 C   0  0  0  0  0  0  0  0  0  0  0  0
   -0.0000   -3.0000    0.0000 C   0  0  0  0  0  0  0  0  0  0  0  0
   -0.0000   -4.5000    0.0000 C   0  0  0  0  0  0  0  0  0  0  0  0
   -0.0000   -6.0000    0.0000 C   0  0  0  0  0  0  0  0  0  0  0  0
   -0.0000   -7.5000    0.0000 C   0  0  0  0  0  0  0  0  0  0  0  0
  1  2  3  0
  2  3  1  0
  3  4  3  0
  4  5  1  0
  5  6  3  0
M  END
>  <Title>  (104) 
idAACBgen6

$$$$

     RDKit          2D

 21 22  0  0  0  0  0  0  0  0999 V2000
   -4.5426   -1.1734    0.0000 C   0  0  0  0  0  0  0  0  0  0  0  0
   -3.0729   -0.8734    0.0000 C   0  0  0  0  0  0  0  0  0  0  0  0
   -2.0782   -1.9961    0.0000 C   0  0  0  0  0  0  0  0  0  0  0  0
   -2.9303   -3.2306    0.0000 C   0  0  0  0  0  0  0  0  0  0  0  0
   -3.1111   -4.7197    0.0000 C   0  0  0  0  0  0  0  0  0  0  0  0
   -2.5792   -6.1222    0.0000 C   0  0  0  0  0  0  0  0  0  0  0  0
   -3.8137   -6.9743    0.0000 C   0  0  0  0  0  0  0  0  0  0  0  0
   -1.4564   -7.1169    0.0000 C   0  0  0  0  0  0  0  0  0  0  0  0
   -0.0000   -7.4758    0.0000 C   0  0  0  0  0  0  0  0  0  0  0  0
    1.4564   -7.1169    0.0000 C   0  0  0  0  0  0  0  0  0  0  0  0
    2.5792   -6.1222    0.0000 C   0  0  0  0  0  0  0  0  0  0  0  0
    3.1111   -4.7197    0.0000 C   0  0  0  0  0  0  0  0  0  0  0  0
    2.9303   -3.2306    0.0000 C   0  0  0  0  0  0  0  0  0  0  0  0
    2.0782   -1.9961    0.0000 C   0  0  0  0  0  0  0  0  0  0  0  0
    3.0729   -0.8734    0.0000 O   0  0  0  0  0  0  0  0  0  0  0  0
    0.7500   -1.2990    0.0000 C   0  0  0  0  0  0  0  0  0  0  0  0
    1.5000    0.0000    0.0000 C   0  0  0  0  0  0  0  0  0  0  0  0
    0.7500    1.2990    0.0000 C   0  0  0  0  0  0  0  0  0  0  0  0
   -0.7500    1.2990    0.0000 C   0  0  0  0  0  0  0  0  0  0  0  0
   -1.5000    0.0000    0.0000 C   0  0  0  0  0  0  0  0  0  0  0  0
   -0.7500   -1.2990    0.0000 C   0  0  0  0  0  0  0  0  0  0  0  0
  1  2  1  0
  2  3  1  0
  3  4  2  0
  4  5  1  0
  5  6  2  0
  6  7  1  0
  6  8  1  0
  8  9  2  0
  9 10  1  0
 10 11  2  0
 11 12  1  0
 12 13  1  0
 13 14  1  0
 14 15  2  0
 14 16  1  0
 16 17  2  0
 17 18  1  0
 18 19  2  0
 19 20  1  0
 20 21  2  0
 21  3  1  0
 21 16  1  0
M  END
>  <Title>  (105) 
idAACCgen6

$$$$

     RDKit          2D

 26 26  0  0  0  0  0  0  0  0999 V2000
    6.2222    0.0000    0.0000 C   0  0  0  0  0  0  0  0  0  0  0  0
    6.0414   -1.4891    0.0000 C   0  0  0  0  0  0  0  0  0  0  0  0
    5.5095   -2.8916    0.0000 C   0  0  0  0  0  0  0  0  0  0  0  0
    4.6574   -4.1261    0.0000 C   0  0  0  0  0  0  0  0  0  0  0  0
    3.5346   -5.1207    0.0000 C   0  0  0  0  0  0  0  0  0  0  0  0
    2.2064   -5.8178    0.0000 C   0  0  0  0  0  0  0  0  0  0  0  0
    0.7500   -6.1768    0.0000 C   0  0  0  0  0  0  0  0  0  0  0  0
   -0.7500   -6.1768    0.0000 C   0  0  0  0  0  0  0  0  0  0  0  0
   -2.2064   -5.8178    0.0000 C   0  0  0  0  0  0  0  0  0  0  0  0
   -3.5346   -5.1207    0.0000 C   0  0  0  0  0  0  0  0  0  0  0  0
   -4.6574   -4.1261    0.0000 C   0  0  0  0  0  0  0  0  0  0  0  0
   -5.5095   -2.8916    0.0000 C   0  0  0  0  0  0  0  0  0  0  0  0
   -6.0414   -1.4891    0.0000 C   0  0  0  0  0  0  0  0  0  0  0  0
   -6.2222    0.0000    0.0000 C   0  0  0  0  0  0  0  0  0  0  0  0
   -6.0414    1.4891    0.0000 C   0  0  0  0  0  0  0  0  0  0  0  0
   -5.5095    2.8916    0.0000 C   0  0  0  0  0  0  0  0  0  0  0  0
   -4.6574    4.1261    0.0000 C   0  0  0  0  0  0  0  0  0  0  0  0
   -3.5346    5.1207    0.0000 C   0  0  0  0  0  0  0  0  0  0  0  0
   -2.2064    5.8178    0.0000 C   0  0  0  0  0  0  0  0  0  0  0  0
   -0.7500    6.1768    0.0000 C   0  0  0  0  0  0  0  0  0  0  0  0
    0.7500    6.1768    0.0000 C   0  0  0  0  0  0  0  0  0  0  0  0
    2.2064    5.8178    0.0000 C   0  0  0  0  0  0  0  0  0  0  0  0
    3.5346    5.1207    0.0000 C   0  0  0  0  0  0  0  0  0  0  0  0
    4.6574    4.1261    0.0000 C   0  0  0  0  0  0  0  0  0  0  0  0
    5.5095    2.8916    0.0000 C   0  0  0  0  0  0  0  0  0  0  0  0
    6.0414    1.4891    0.0000 C   0  0  0  0  0  0  0  0  0  0  0  0
  1  2  1  0
  2  3  1  0
  3  4  1  0
  4  5  1  0
  5  6  1  0
  6  7  1  0
  7  8  1  0
  8  9  1  0
  9 10  1  0
 10 11  1  0
 11 12  1  0
 12 13  1  0
 13 14  1  0
 14 15  1  0
 15 16  1  0
 16 17  1  0
 17 18  1  0
 18 19  1  0
 19 20  1  0
 20 21  1  0
 21 22  1  0
 22 23  1  0
 23 24  1  0
 24 25  1  0
 25 26  1  0
 26  1  1  0
M  END
>  <Title>  (106) 
idAACDgen6

$$$$

     RDKit          2D

 20 22  0  0  0  0  0  0  0  0999 V2000
   -0.7500   -3.8971    0.0000 O   0  0  0  0  0  0  0  0  0  0  0  0
    0.7500   -3.8971    0.0000 C   0  0  0  0  0  0  0  0  0  0  0  0
    1.5000   -2.5981    0.0000 N   0  0  0  0  0  0  0  0  0  0  0  0
    0.7500   -1.2990    0.0000 C   0  0  0  0  0  0  0  0  0  0  0  0
    1.5000    0.0000    0.0000 N   0  0  0  0  0  0  0  0  0  0  0  0
    0.7500    1.2990    0.0000 N   0  0  0  0  0  0  0  0  0  0  0  0
   -0.7500    1.2990    0.0000 N   0  0  0  0  0  0  0  0  0  0  0  0
   -1.5000    0.0000    0.0000 N   0  0  0  0  0  0  0  0  0  0  0  0
   -0.7500   -1.2990    0.0000 N   0  0  0  0  0  0  0  0  0  0  0  0
    1.5000   -5.1962    0.0000 N   0  0  0  0  0  0  0  0  0  0  0  0
    2.9918   -5.3529    0.0000 C   0  0  0  0  0  0  0  0  0  0  0  0
    3.3037   -6.8202    0.0000 C   0  0  0  0  0  0  0  0  0  0  0  0
    2.0046   -7.5702    0.0000 C   0  0  0  0  0  0  0  0  0  0  0  0
    1.8478   -9.0619    0.0000 C   0  0  0  0  0  0  0  0  0  0  0  0
    0.4775   -9.6721    0.0000 C   0  0  0  0  0  0  0  0  0  0  0  0
    0.3207  -11.1638    0.0000 C   0  0  0  0  0  0  0  0  0  0  0  0
    1.5342  -12.0455    0.0000 C   0  0  0  0  0  0  0  0  0  0  0  0
    2.9046  -11.4354    0.0000 C   0  0  0  0  0  0  0  0  0  0  0  0
    3.0613   -9.9436    0.0000 C   0  0  0  0  0  0  0  0  0  0  0  0
    0.8899   -6.5665    0.0000 C   0  0  0  0  0  0  0  0  0  0  0  0
  1  2  2  0
  2  3  1  0
  3  4  1  0
  4  5  2  0
  5  6  1  0
  6  7  2  0
  7  8  1  0
  8  9  2  0
  2 10  1  0
 10 11  1  0
 11 12  1  0
 12 13  1  0
 13 14  1  0
 14 15  2  0
 15 16  1  0
 16 17  2  0
 17 18  1  0
 18 19  2  0
 13 20  1  0
  9  4  1  0
 20 10  1  0
 19 14  1  0
M  END
>  <Title>  (107) 
idAACEgen6

$$$$

     RDKit          2D

 23 25  0  0  0  0  0  0  0  0999 V2000
    0.7500   -9.0933    0.0000 C   0  0  0  0  0  0  0  0  0  0  0  0
    1.5000   -7.7942    0.0000 C   0  0  0  0  0  0  0  0  0  0  0  0
    3.0000   -7.7942    0.0000 O   0  0  0  0  0  0  0  0  0  0  0  0
    0.7500   -6.4952    0.0000 O   0  0  0  0  0  0  0  0  0  0  0  0
    1.5000   -5.1962    0.0000 C   0  0  0  0  0  0  0  0  0  0  0  0
    3.0000   -5.1962    0.0000 O   0  0  0  0  0  0  0  0  0  0  0  0
    0.7500   -3.8971    0.0000 C   0  0  0  0  0  0  0  0  0  0  0  0
    1.5000   -2.5981    0.0000 C   0  0  0  0  0  0  0  0  0  0  0  0
    0.7500   -1.2990    0.0000 C   0  0  0  0  0  0  0  0  0  0  0  0
    1.5000    0.0000    0.0000 C   0  0  0  0  0  0  0  0  0  0  0  0
    0.7500    1.2990    0.0000 C   0  0  0  0  0  0  0  0  0  0  0  0
   -0.7500    1.2990    0.0000 C   0  0  0  0  0  0  0  0  0  0  0  0
   -1.5000    0.0000    0.0000 C   0  0  0  0  0  0  0  0  0  0  0  0
   -0.7500   -1.2990    0.0000 C   0  0  0  0  0  0  0  0  0  0  0  0
   -0.7500   -3.8971    0.0000 N   0  0  0  0  0  0  0  0  0  0  0  0
   -1.5000   -2.5981    0.0000 C   0  0  0  0  0  0  0  0  0  0  0  0
   -3.0000   -2.5981    0.0000 C   0  0  0  0  0  0  0  0  0  0  0  0
   -3.7500   -3.8971    0.0000 N   0  0  0  0  0  0  0  0  0  0  0  0
   -5.2500   -3.8971    0.0000 C   0  0  0  0  0  0  0  0  0  0  0  0
   -6.5490   -4.6471    0.0000 C   0  0  0  0  0  0  0  0  0  0  0  0
   -6.5490   -3.1471    0.0000 C   0  0  0  0  0  0  0  0  0  0  0  0
   -3.0000   -5.1962    0.0000 C   0  0  0  0  0  0  0  0  0  0  0  0
   -1.5000   -5.1962    0.0000 C   0  0  0  0  0  0  0  0  0  0  0  0
  1  2  1  0
  2  3  2  0
  2  4  1  0
  4  5  1  0
  5  6  2  0
  5  7  1  0
  7  8  1  0
  8  9  1  0
  9 10  2  0
 10 11  1  0
 11 12  2  0
 12 13  1  0
 13 14  2  0
  7 15  1  0
 15 16  1  0
 16 17  1  0
 17 18  1  0
 18 19  1  0
 19 20  1  0
 20 21  1  0
 18 22  1  0
 22 23  1  0
 14  9  1  0
 23 15  1  0
 21 19  1  0
M  END
>  <Title>  (108) 
idAACFgen6

$$$$

     RDKit          2D

 13 14  0  0  0  0  0  0  0  0999 V2000
    3.5260   -1.2990    0.0000 C   0  0  0  0  0  0  0  0  0  0  0  0
    2.7760    0.0000    0.0000 O   0  0  0  0  0  0  0  0  0  0  0  0
    1.2760    0.0000    0.0000 C   0  0  0  0  0  0  0  0  0  0  0  0
    0.3943    1.2135    0.0000 C   0  0  0  0  0  0  0  0  0  0  0  0
    0.7062    2.6807    0.0000 C   0  0  0  0  0  0  0  0  0  0  0  0
    2.1328    3.1443    0.0000 O   0  0  0  0  0  0  0  0  0  0  0  0
   -0.4086    3.6844    0.0000 C   0  0  0  0  0  0  0  0  0  0  0  0
   -0.0967    5.1517    0.0000 O   0  0  0  0  0  0  0  0  0  0  0  0
   -1.8351    3.2209    0.0000 C   0  0  0  0  0  0  0  0  0  0  0  0
   -2.1470    1.7537    0.0000 C   0  0  0  0  0  0  0  0  0  0  0  0
   -1.0323    0.7500    0.0000 C   0  0  0  0  0  0  0  0  0  0  0  0
   -1.0323   -0.7500    0.0000 C   0  0  0  0  0  0  0  0  0  0  0  0
    0.3943   -1.2135    0.0000 C   0  0  0  0  0  0  0  0  0  0  0  0
  1  2  1  0
  2  3  1  0
  3  4  2  0
  4  5  1  0
  5  6  2  0
  5  7  1  0
  7  8  1  0
  7  9  2  0
  9 10  1  0
 10 11  2  0
 11 12  1  0
 12 13  2  0
 13  3  1  0
 11  4  1  0
M  END
>  <Title>  (109) 
idAACGgen6

$$$$

     RDKit          2D

 36 40  0  0  0  0  0  0  0  0999 V2000
   -0.0000   -7.0525    0.0000 C   0  0  0  0  0  0  0  0  0  0  0  0
   -0.0000   -5.5525    0.0000 C   0  0  0  0  0  0  0  0  0  0  0  0
    1.4095   -5.0395    0.0000 C   0  0  0  0  0  0  0  0  0  0  0  0
    2.1595   -3.7404    0.0000 C   0  0  0  0  0  0  0  0  0  0  0  0
    1.8991   -2.2632    0.0000 C   0  0  0  0  0  0  0  0  0  0  0  0
    3.1981   -1.5132    0.0000 C   0  0  0  0  0  0  0  0  0  0  0  0
    3.1981   -0.0132    0.0000 O   0  0  0  0  0  0  0  0  0  0  0  0
    4.4971   -2.2632    0.0000 N   0  0  0  0  0  0  0  0  0  0  0  0
    5.7962   -1.5132    0.0000 C   0  0  0  0  0  0  0  0  0  0  0  0
    7.0952   -2.2632    0.0000 N   0  0  0  0  0  0  0  0  0  0  0  0
    8.3943   -1.5132    0.0000 N   0  0  0  0  0  0  0  0  0  0  0  0
    8.3943   -0.0132    0.0000 N   0  0  0  0  0  0  0  0  0  0  0  0
    7.0952    0.7368    0.0000 N   0  0  0  0  0  0  0  0  0  0  0  0
    5.7962   -0.0132    0.0000 N   0  0  0  0  0  0  0  0  0  0  0  0
    0.7500   -1.2990    0.0000 C   0  0  0  0  0  0  0  0  0  0  0  0
    1.5000    0.0000    0.0000 C   0  0  0  0  0  0  0  0  0  0  0  0
    0.7500    1.2990    0.0000 C   0  0  0  0  0  0  0  0  0  0  0  0
   -0.7500    1.2990    0.0000 C   0  0  0  0  0  0  0  0  0  0  0  0
   -1.5000    0.0000    0.0000 C   0  0  0  0  0  0  0  0  0  0  0  0
   -0.7500   -1.2990    0.0000 C   0  0  0  0  0  0  0  0  0  0  0  0
   -1.8991   -2.2632    0.0000 C   0  0  0  0  0  0  0  0  0  0  0  0
   -3.3379   -2.7413    0.0000 C   0  0  0  0  0  0  0  0  0  0  0  0
   -3.8509   -4.1509    0.0000 C   0  0  0  0  0  0  0  0  0  0  0  0
   -2.8868   -5.2999    0.0000 C   0  0  0  0  0  0  0  0  0  0  0  0
   -3.3998   -6.7095    0.0000 C   0  0  0  0  0  0  0  0  0  0  0  0
   -3.9128   -8.1190    0.0000 N   0  0  0  0  0  0  0  0  0  0  0  0
   -1.4095   -5.0395    0.0000 C   0  0  0  0  0  0  0  0  0  0  0  0
   -2.1595   -3.7404    0.0000 C   0  0  0  0  0  0  0  0  0  0  0  0
   -3.6368   -4.0009    0.0000 C   0  0  0  0  0  0  0  0  0  0  0  0
   -4.6009   -2.8518    0.0000 C   0  0  0  0  0  0  0  0  0  0  0  0
   -6.0781   -3.1123    0.0000 C   0  0  0  0  0  0  0  0  0  0  0  0
   -7.0423   -1.9632    0.0000 C   0  0  0  0  0  0  0  0  0  0  0  0
   -8.5195   -2.2237    0.0000 C   0  0  0  0  0  0  0  0  0  0  0  0
   -9.0326   -3.6333    0.0000 C   0  0  0  0  0  0  0  0  0  0  0  0
   -8.0684   -4.7823    0.0000 C   0  0  0  0  0  0  0  0  0  0  0  0
   -6.5912   -4.5218    0.0000 C   0  0  0  0  0  0  0  0  0  0  0  0
  1  2  1  0
  2  3  1  0
  3  4  2  0
  4  5  1  0
  5  6  1  0
  6  7  2  0
  6  8  1  0
  8  9  1  0
  9 10  2  0
 10 11  1  0
 11 12  2  0
 12 13  1  0
 13 14  2  0
  5 15  1  0
 15 16  2  0
 16 17  1  0
 17 18  2  0
 18 19  1  0
 19 20  2  0
 20 21  1  0
 21 22  2  0
 22 23  1  0
 23 24  2  0
 24 25  1  0
 25 26  3  0
 24 27  1  0
 27 28  2  0
 28 29  1  0
 29 30  1  0
 30 31  1  0
 31 32  2  0
 32 33  1  0
 33 34  2  0
 34 35  1  0
 35 36  2  0
 27  2  1  0
 36 31  1  0
 14  9  1  0
 20 15  1  0
 28 21  1  0
M  END
>  <Title>  (110) 
idAACHgen6

$$$$

     RDKit          2D

 12 12  0  0  0  0  0  0  0  0999 V2000
    2.8978    0.0000    0.0000 C   0  0  0  0  0  0  0  0  0  0  0  0
    2.5095   -1.4489    0.0000 C   0  0  0  0  0  0  0  0  0  0  0  0
    1.4489   -2.5095    0.0000 C   0  0  0  0  0  0  0  0  0  0  0  0
   -0.0000   -2.8978    0.0000 C   0  0  0  0  0  0  0  0  0  0  0  0
   -1.4489   -2.5095    0.0000 C   0  0  0  0  0  0  0  0  0  0  0  0
   -2.5095   -1.4489    0.0000 C   0  0  0  0  0  0  0  0  0  0  0  0
   -2.8978    0.0000    0.0000 C   0  0  0  0  0  0  0  0  0  0  0  0
   -2.5095    1.4489    0.0000 C   0  0  0  0  0  0  0  0  0  0  0  0
   -1.4489    2.5095    0.0000 C   0  0  0  0  0  0  0  0  0  0  0  0
    0.0000    2.8978    0.0000 C   0  0  0  0  0  0  0  0  0  0  0  0
    1.4489    2.5095    0.0000 C   0  0  0  0  0  0  0  0  0  0  0  0
    2.5095    1.4489    0.0000 C   0  0  0  0  0  0  0  0  0  0  0  0
  1  2  1  0
  2  3  1  0
  3  4  1  0
  4  5  1  0
  5  6  1  0
  6  7  1  0
  7  8  1  0
  8  9  1  0
  9 10  1  0
 10 11  1  0
 11 12  1  0
 12  1  1  0
M  END
>  <Title>  (111) 
idAACIgen6

$$$$

     RDKit          2D

 27 31  0  0  0  0  0  0  0  0999 V2000
   -4.1640   -0.8355    0.0000 O   0  0  0  0  0  0  0  0  0  0  0  0
   -3.4140    0.4635    0.0000 C   0  0  0  0  0  0  0  0  0  0  0  0
   -4.1640    1.7626    0.0000 C   0  0  0  0  0  0  0  0  0  0  0  0
   -3.4140    3.0616    0.0000 C   0  0  0  0  0  0  0  0  0  0  0  0
   -4.1640    4.3606    0.0000 C   0  0  0  0  0  0  0  0  0  0  0  0
   -5.6640    4.3606    0.0000 C   0  0  0  0  0  0  0  0  0  0  0  0
   -6.4140    5.6597    0.0000 N   0  0  0  0  0  0  0  0  0  0  0  0
   -5.6640    6.9587    0.0000 C   0  0  0  0  0  0  0  0  0  0  0  0
   -6.4140    8.2578    0.0000 C   0  0  0  0  0  0  0  0  0  0  0  0
   -7.9140    8.2578    0.0000 C   0  0  0  0  0  0  0  0  0  0  0  0
   -8.6640    9.5568    0.0000 C   0  0  0  0  0  0  0  0  0  0  0  0
   -7.9140   10.8558    0.0000 C   0  0  0  0  0  0  0  0  0  0  0  0
   -8.6640   12.1549    0.0000 C   0  0  0  0  0  0  0  0  0  0  0  0
  -10.1640   12.1549    0.0000 C   0  0  0  0  0  0  0  0  0  0  0  0
  -10.9140   10.8558    0.0000 C   0  0  0  0  0  0  0  0  0  0  0  0
  -10.1640    9.5568    0.0000 C   0  0  0  0  0  0  0  0  0  0  0  0
   -8.6640    6.9587    0.0000 C   0  0  0  0  0  0  0  0  0  0  0  0
   -7.9140    5.6597    0.0000 C   0  0  0  0  0  0  0  0  0  0  0  0
   -6.4140    3.0616    0.0000 C   0  0  0  0  0  0  0  0  0  0  0  0
   -5.6640    1.7626    0.0000 C   0  0  0  0  0  0  0  0  0  0  0  0
   -1.9140    0.4635    0.0000 N   0  0  0  0  0  0  0  0  0  0  0  0
   -1.0323    1.6771    0.0000 C   0  0  0  0  0  0  0  0  0  0  0  0
    0.3943    1.2135    0.0000 C   0  0  0  0  0  0  0  0  0  0  0  0
    1.2760    0.0000    0.0000 C   0  0  0  0  0  0  0  0  0  0  0  0
    0.3943   -1.2135    0.0000 C   0  0  0  0  0  0  0  0  0  0  0  0
   -1.0323   -0.7500    0.0000 C   0  0  0  0  0  0  0  0  0  0  0  0
   -1.0323    0.7500    0.0000 C   0  0  0  0  0  0  0  0  0  0  0  0
  1  2  2  0
  2  3  1  0
  3  4  2  0
  4  5  1  0
  5  6  2  0
  6  7  1  0
  7  8  1  0
  8  9  1  0
  9 10  1  0
 10 11  1  0
 11 12  2  0
 12 13  1  0
 13 14  2  0
 14 15  1  0
 15 16  2  0
 10 17  1  0
 17 18  1  0
  6 19  1  0
 19 20  1  0
  2 21  1  0
 21 22  1  0
 22 23  1  0
 23 24  1  0
 24 25  1  0
 25 26  1  0
 26 27  1  0
 20  3  1  0
 26 21  1  0
 18  7  1  0
 27 23  1  0
 16 11  1  0
M  END
>  <Title>  (112) 
idAACJgen6

$$$$

     RDKit          2D

 48 54  0  0  0  0  0  0  0  0999 V2000
    0.1082   13.6047    0.0000 C   0  0  0  0  0  0  0  0  0  0  0  0
   -1.2621   12.9946    0.0000 C   0  0  0  0  0  0  0  0  0  0  0  0
   -2.4756   13.8763    0.0000 C   0  0  0  0  0  0  0  0  0  0  0  0
   -3.8459   13.2662    0.0000 C   0  0  0  0  0  0  0  0  0  0  0  0
   -4.0027   11.7744    0.0000 C   0  0  0  0  0  0  0  0  0  0  0  0
   -5.3730   11.1643    0.0000 C   0  0  0  0  0  0  0  0  0  0  0  0
   -6.5866   12.0460    0.0000 O   0  0  0  0  0  0  0  0  0  0  0  0
   -5.5298    9.6725    0.0000 N   0  0  0  0  0  0  0  0  0  0  0  0
   -6.9002    9.0624    0.0000 C   0  0  0  0  0  0  0  0  0  0  0  0
   -8.1992    9.8124    0.0000 N   0  0  0  0  0  0  0  0  0  0  0  0
   -9.3139    8.8087    0.0000 N   0  0  0  0  0  0  0  0  0  0  0  0
   -8.7038    7.4384    0.0000 N   0  0  0  0  0  0  0  0  0  0  0  0
   -7.2120    7.5952    0.0000 N   0  0  0  0  0  0  0  0  0  0  0  0
   -6.2083    6.4805    0.0000 C   0  0  0  0  0  0  0  0  0  0  0  0
   -4.7411    6.7923    0.0000 C   0  0  0  0  0  0  0  0  0  0  0  0
   -3.7374    5.6776    0.0000 C   0  0  0  0  0  0  0  0  0  0  0  0
   -4.2009    4.2510    0.0000 C   0  0  0  0  0  0  0  0  0  0  0  0
   -5.6682    3.9391    0.0000 C   0  0  0  0  0  0  0  0  0  0  0  0
   -6.6718    5.0539    0.0000 C   0  0  0  0  0  0  0  0  0  0  0  0
   -8.1391    4.7420    0.0000 C   0  0  0  0  0  0  0  0  0  0  0  0
   -9.1428    5.8567    0.0000 C   0  0  0  0  0  0  0  0  0  0  0  0
  -10.6100    5.5448    0.0000 C   0  0  0  0  0  0  0  0  0  0  0  0
  -11.0735    4.1183    0.0000 C   0  0  0  0  0  0  0  0  0  0  0  0
  -10.0698    3.0035    0.0000 C   0  0  0  0  0  0  0  0  0  0  0  0
   -8.6026    3.3154    0.0000 C   0  0  0  0  0  0  0  0  0  0  0  0
   -7.5989    2.2007    0.0000 C   0  0  0  0  0  0  0  0  0  0  0  0
   -6.1317    2.5126    0.0000 C   0  0  0  0  0  0  0  0  0  0  0  0
   -5.1280    1.3978    0.0000 C   0  0  0  0  0  0  0  0  0  0  0  0
   -5.5915   -0.0287    0.0000 C   0  0  0  0  0  0  0  0  0  0  0  0
   -7.0587   -0.3406    0.0000 C   0  0  0  0  0  0  0  0  0  0  0  0
   -8.0624    0.7741    0.0000 C   0  0  0  0  0  0  0  0  0  0  0  0
   -9.5296    0.4622    0.0000 C   0  0  0  0  0  0  0  0  0  0  0  0
  -10.5333    1.5770    0.0000 C   0  0  0  0  0  0  0  0  0  0  0  0
  -12.0006    1.2651    0.0000 C   0  0  0  0  0  0  0  0  0  0  0  0
  -12.4641   -0.1615    0.0000 C   0  0  0  0  0  0  0  0  0  0  0  0
  -13.9313   -0.4734    0.0000 C   0  0  0  0  0  0  0  0  0  0  0  0
  -15.3985   -0.7852    0.0000 N   0  0  0  0  0  0  0  0  0  0  0  0
  -11.4604   -1.2762    0.0000 C   0  0  0  0  0  0  0  0  0  0  0  0
   -9.9932   -0.9643    0.0000 C   0  0  0  0  0  0  0  0  0  0  0  0
   -8.9895   -2.0791    0.0000 C   0  0  0  0  0  0  0  0  0  0  0  0
   -7.5223   -1.7672    0.0000 C   0  0  0  0  0  0  0  0  0  0  0  0
   -6.5186   -2.8819    0.0000 C   0  0  0  0  0  0  0  0  0  0  0  0
   -6.9821   -4.3085    0.0000 C   0  0  0  0  0  0  0  0  0  0  0  0
   -8.4493   -4.6204    0.0000 C   0  0  0  0  0  0  0  0  0  0  0  0
   -9.4530   -3.5056    0.0000 C   0  0  0  0  0  0  0  0  0  0  0  0
  -10.9202   -3.8175    0.0000 O   0  0  0  0  0  0  0  0  0  0  0  0
   -2.7892   10.8927    0.0000 C   0  0  0  0  0  0  0  0  0  0  0  0
   -1.4189   11.5028    0.0000 C   0  0  0  0  0  0  0  0  0  0  0  0
  1  2  1  0
  2  3  1  0
  3  4  2  0
  4  5  1  0
  5  6  1  0
  6  7  2  0
  6  8  1  0
  8  9  1  0
  9 10  2  0
 10 11  1  0
 11 12  2  0
 12 13  1  0
 13 14  1  0
 14 15  2  0
 15 16  1  0
 16 17  2  0
 17 18  1  0
 18 19  2  0
 19 20  1  0
 20 21  2  0
 21 22  1  0
 22 23  2  0
 23 24  1  0
 24 25  2  0
 25 26  1  0
 26 27  2  0
 27 28  1  0
 28 29  2  0
 29 30  1  0
 30 31  2  0
 31 32  1  0
 32 33  2  0
 33 34  1  0
 34 35  2  0
 35 36  1  0
 36 37  3  0
 35 38  1  0
 38 39  2  0
 39 40  1  0
 40 41  2  0
 41 42  1  0
 42 43  2  0
 43 44  1  0
 44 45  2  0
 45 46  1  0
  5 47  1  0
 47 48  1  0
 48  2  1  0
 13  9  1  0
 19 14  1  0
 25 20  1  0
 31 26  1  0
 39 32  1  0
 45 40  1  0
M  END
>  <Title>  (113) 
idAACKgen6

$$$$

     RDKit          2D

 15 16  0  0  0  0  0  0  0  0999 V2000
   -0.7500   -3.8971    0.0000 O   0  0  0  0  0  0  0  0  0  0  0  0
    0.7500   -3.8971    0.0000 C   0  0  0  0  0  0  0  0  0  0  0  0
    1.5000   -2.5981    0.0000 N   0  0  0  0  0  0  0  0  0  0  0  0
    0.7500   -1.2990    0.0000 C   0  0  0  0  0  0  0  0  0  0  0  0
    1.5000    0.0000    0.0000 C   0  0  0  0  0  0  0  0  0  0  0  0
    0.7500    1.2990    0.0000 C   0  0  0  0  0  0  0  0  0  0  0  0
   -0.7500    1.2990    0.0000 C   0  0  0  0  0  0  0  0  0  0  0  0
   -1.5000    0.0000    0.0000 C   0  0  0  0  0  0  0  0  0  0  0  0
   -0.7500   -1.2990    0.0000 C   0  0  0  0  0  0  0  0  0  0  0  0
    1.5000   -5.1962    0.0000 N   0  0  0  0  0  0  0  0  0  0  0  0
    2.9918   -5.3529    0.0000 C   0  0  0  0  0  0  0  0  0  0  0  0
    3.3037   -6.8202    0.0000 C   0  0  0  0  0  0  0  0  0  0  0  0
    2.0046   -7.5702    0.0000 N   0  0  0  0  0  0  0  0  0  0  0  0
    1.8478   -9.0619    0.0000 F   0  0  0  0  0  0  0  0  0  0  0  0
    0.8899   -6.5665    0.0000 C   0  0  0  0  0  0  0  0  0  0  0  0
  1  2  2  0
  2  3  1  0
  3  4  1  0
  4  5  2  0
  5  6  1  0
  6  7  2  0
  7  8  1  0
  8  9  2  0
  2 10  1  0
 10 11  1  0
 11 12  1  0
 12 13  1  0
 13 14  1  0
 13 15  1  0
  9  4  1  0
 15 10  1  0
M  END
>  <Title>  (114) 
idAACLgen6

$$$$

     RDKit          2D

 20 22  0  0  0  0  0  0  0  0999 V2000
   -3.0000   -2.5981    0.0000 C   0  0  0  0  0  0  0  0  0  0  0  0
   -1.5000   -2.5981    0.0000 C   0  0  0  0  0  0  0  0  0  0  0  0
   -0.7500   -3.8971    0.0000 C   0  0  0  0  0  0  0  0  0  0  0  0
    0.7500   -3.8971    0.0000 C   0  0  0  0  0  0  0  0  0  0  0  0
    1.5000   -2.5981    0.0000 C   0  0  0  0  0  0  0  0  0  0  0  0
    3.0000   -2.5981    0.0000 C   0  0  0  0  0  0  0  0  0  0  0  0
    3.7500   -1.2990    0.0000 O   0  0  0  0  0  0  0  0  0  0  0  0
    3.7500   -3.8971    0.0000 N   0  0  0  0  0  0  0  0  0  0  0  0
    5.2500   -3.8971    0.0000 C   0  0  0  0  0  0  0  0  0  0  0  0
    6.0000   -5.1962    0.0000 N   0  0  0  0  0  0  0  0  0  0  0  0
    7.5000   -5.1962    0.0000 N   0  0  0  0  0  0  0  0  0  0  0  0
    8.2500   -3.8971    0.0000 N   0  0  0  0  0  0  0  0  0  0  0  0
    7.5000   -2.5981    0.0000 N   0  0  0  0  0  0  0  0  0  0  0  0
    6.0000   -2.5981    0.0000 N   0  0  0  0  0  0  0  0  0  0  0  0
    0.7500   -1.2990    0.0000 C   0  0  0  0  0  0  0  0  0  0  0  0
    1.5000    0.0000    0.0000 C   0  0  0  0  0  0  0  0  0  0  0  0
    0.7500    1.2990    0.0000 C   0  0  0  0  0  0  0  0  0  0  0  0
   -0.7500    1.2990    0.0000 C   0  0  0  0  0  0  0  0  0  0  0  0
   -1.5000    0.0000    0.0000 C   0  0  0  0  0  0  0  0  0  0  0  0
   -0.7500   -1.2990    0.0000 C   0  0  0  0  0  0  0  0  0  0  0  0
  1  2  1  0
  2  3  2  0
  3  4  1  0
  4  5  2  0
  5  6  1  0
  6  7  2  0
  6  8  1  0
  8  9  1  0
  9 10  2  0
 10 11  1  0
 11 12  2  0
 12 13  1  0
 13 14  2  0
  5 15  1  0
 15 16  2  0
 16 17  1  0
 17 18  2  0
 18 19  1  0
 19 20  2  0
 20  2  1  0
 14  9  1  0
 20 15  1  0
M  END
>  <Title>  (115) 
idAACMgen6

$$$$

     RDKit          2D

 17 18  0  0  0  0  0  0  0  0999 V2000
    3.2286   -0.0000    0.0000 C   0  0  0  0  0  0  0  0  0  0  0  0
    1.7286    0.0000    0.0000 C   0  0  0  0  0  0  0  0  0  0  0  0
    1.0777    1.3515    0.0000 C   0  0  0  0  0  0  0  0  0  0  0  0
   -0.3846    1.6852    0.0000 C   0  0  0  0  0  0  0  0  0  0  0  0
   -1.5574    0.7500    0.0000 C   0  0  0  0  0  0  0  0  0  0  0  0
   -1.5574   -0.7500    0.0000 C   0  0  0  0  0  0  0  0  0  0  0  0
   -2.9088   -1.4008    0.0000 C   0  0  0  0  0  0  0  0  0  0  0  0
   -3.0209   -2.8966    0.0000 O   0  0  0  0  0  0  0  0  0  0  0  0
   -4.1482   -0.5558    0.0000 N   0  0  0  0  0  0  0  0  0  0  0  0
   -5.4997   -1.2067    0.0000 C   0  0  0  0  0  0  0  0  0  0  0  0
   -6.7390   -0.3617    0.0000 C   0  0  0  0  0  0  0  0  0  0  0  0
   -8.0905   -1.0125    0.0000 N   0  0  0  0  0  0  0  0  0  0  0  0
   -8.2026   -2.5083    0.0000 N   0  0  0  0  0  0  0  0  0  0  0  0
   -6.9632   -3.3533    0.0000 N   0  0  0  0  0  0  0  0  0  0  0  0
   -5.6118   -2.7025    0.0000 N   0  0  0  0  0  0  0  0  0  0  0  0
   -0.3846   -1.6852    0.0000 C   0  0  0  0  0  0  0  0  0  0  0  0
    1.0777   -1.3515    0.0000 C   0  0  0  0  0  0  0  0  0  0  0  0
  1  2  1  0
  2  3  1  0
  3  4  2  0
  4  5  1  0
  5  6  1  0
  6  7  1  0
  7  8  2  0
  7  9  1  0
  9 10  1  0
 10 11  2  0
 11 12  1  0
 12 13  2  0
 13 14  1  0
 14 15  2  0
  6 16  1  0
 16 17  2  0
 17  2  1  0
 15 10  1  0
M  END
>  <Title>  (116) 
idAACNgen6

$$$$

     RDKit          2D

 17 18  0  0  0  0  0  0  0  0999 V2000
    3.3705    0.0000    0.0000 C   0  0  0  0  0  0  0  0  0  0  0  0
    3.0367   -1.4624    0.0000 C   0  0  0  0  0  0  0  0  0  0  0  0
    2.1015   -2.6351    0.0000 C   0  0  0  0  0  0  0  0  0  0  0  0
    0.7500   -3.2860    0.0000 C   0  0  0  0  0  0  0  0  0  0  0  0
   -0.7500   -3.2860    0.0000 C   0  0  0  0  0  0  0  0  0  0  0  0
   -2.1015   -2.6351    0.0000 C   0  0  0  0  0  0  0  0  0  0  0  0
   -3.0367   -1.4624    0.0000 C   0  0  0  0  0  0  0  0  0  0  0  0
   -4.5367   -1.1357    0.0000 C   0  0  0  0  0  0  0  0  0  0  0  0
   -5.2867    0.1634    0.0000 C   0  0  0  0  0  0  0  0  0  0  0  0
   -4.5367    1.4624    0.0000 C   0  0  0  0  0  0  0  0  0  0  0  0
   -3.0367    1.4624    0.0000 N   0  0  0  0  0  0  0  0  0  0  0  0
   -2.1015    2.6351    0.0000 C   0  0  0  0  0  0  0  0  0  0  0  0
   -0.7500    3.2860    0.0000 C   0  0  0  0  0  0  0  0  0  0  0  0
    0.7500    3.2860    0.0000 C   0  0  0  0  0  0  0  0  0  0  0  0
    2.1015    2.6351    0.0000 C   0  0  0  0  0  0  0  0  0  0  0  0
    3.0367    1.4624    0.0000 C   0  0  0  0  0  0  0  0  0  0  0  0
   -3.3705    0.0000    0.0000 C   0  0  0  0  0  0  0  0  0  0  0  0
  1  2  1  0
  2  3  1  0
  3  4  1  0
  4  5  1  0
  5  6  1  0
  6  7  1  0
  7  8  1  0
  8  9  1  0
  9 10  1  0
 10 11  1  0
 11 12  1  0
 12 13  1  0
 13 14  1  0
 14 15  1  0
 15 16  1  0
 11 17  1  0
 16  1  1  0
 17  7  1  0
M  END
>  <Title>  (117) 
idAACOgen6

$$$$

     RDKit          2D

  8  8  0  0  0  0  0  0  0  0999 V2000
    4.5000    0.0000    0.0000 N   0  0  0  0  0  0  0  0  0  0  0  0
    3.0000    0.0000    0.0000 C   0  0  0  0  0  0  0  0  0  0  0  0
    1.5000    0.0000    0.0000 C   0  0  0  0  0  0  0  0  0  0  0  0
    0.7500   -1.2990    0.0000 C   0  0  0  0  0  0  0  0  0  0  0  0
   -0.7500   -1.2990    0.0000 C   0  0  0  0  0  0  0  0  0  0  0  0
   -1.5000    0.0000    0.0000 C   0  0  0  0  0  0  0  0  0  0  0  0
   -0.7500    1.2990    0.0000 C   0  0  0  0  0  0  0  0  0  0  0  0
    0.7500    1.2990    0.0000 N   0  0  0  0  0  0  0  0  0  0  0  0
  1  2  3  0
  2  3  1  0
  3  4  2  0
  4  5  1  0
  5  6  2  0
  6  7  1  0
  7  8  2  0
  8  3  1  0
M  END
>  <Title>  (118) 
idAACPgen6

$$$$

     RDKit          2D

 15 15  0  0  0  0  0  0  0  0999 V2000
    3.5260    3.8971    0.0000 C   0  0  0  0  0  0  0  0  0  0  0  0
    2.7760    2.5981    0.0000 C   0  0  0  0  0  0  0  0  0  0  0  0
    3.5260    1.2990    0.0000 C   0  0  0  0  0  0  0  0  0  0  0  0
    5.0260    1.2990    0.0000 C   0  0  0  0  0  0  0  0  0  0  0  0
    2.7760    0.0000    0.0000 C   0  0  0  0  0  0  0  0  0  0  0  0
    3.5260   -1.2990    0.0000 O   0  0  0  0  0  0  0  0  0  0  0  0
    1.2760    0.0000    0.0000 N   0  0  0  0  0  0  0  0  0  0  0  0
    0.3943    1.2135    0.0000 C   0  0  0  0  0  0  0  0  0  0  0  0
   -1.0323    0.7500    0.0000 C   0  0  0  0  0  0  0  0  0  0  0  0
   -1.0323   -0.7500    0.0000 C   0  0  0  0  0  0  0  0  0  0  0  0
   -2.2458   -1.6317    0.0000 C   0  0  0  0  0  0  0  0  0  0  0  0
   -2.0890   -3.1235    0.0000 O   0  0  0  0  0  0  0  0  0  0  0  0
   -3.6161   -1.0216    0.0000 O   0  0  0  0  0  0  0  0  0  0  0  0
    0.3943   -1.2135    0.0000 C   0  0  0  0  0  0  0  0  0  0  0  0
    0.8578   -2.6401    0.0000 O   0  0  0  0  0  0  0  0  0  0  0  0
  1  2  1  0
  2  3  1  0
  3  4  1  0
  3  5  1  0
  5  6  2  0
  5  7  1  0
  7  8  1  0
  8  9  1  0
  9 10  1  0
 10 11  1  0
 11 12  2  0
 11 13  1  0
 10 14  1  0
 14 15  2  0
 14  7  1  0
M  END
>  <Title>  (119) 
idAACQgen6

$$$$

     RDKit          2D

 12 12  0  0  0  0  0  0  0  0999 V2000
    3.0000    0.0000    0.0000 C   0  0  0  0  0  0  0  0  0  0  0  0
    1.5000    0.0000    0.0000 C   0  0  0  0  0  0  0  0  0  0  0  0
    0.7500   -1.2990    0.0000 C   0  0  0  0  0  0  0  0  0  0  0  0
   -0.7500   -1.2990    0.0000 C   0  0  0  0  0  0  0  0  0  0  0  0
   -1.5000    0.0000    0.0000 C   0  0  0  0  0  0  0  0  0  0  0  0
   -3.0000    0.0000    0.0000 O   0  0  0  0  0  0  0  0  0  0  0  0
   -0.7500    1.2990    0.0000 C   0  0  0  0  0  0  0  0  0  0  0  0
    0.7500    1.2990    0.0000 C   0  0  0  0  0  0  0  0  0  0  0  0
    2.1595    1.8121    0.0000 O   0  0  0  0  0  0  0  0  0  0  0  0
    0.4895    2.7762    0.0000 C   0  0  0  0  0  0  0  0  0  0  0  0
    1.6386    3.7404    0.0000 C   0  0  0  0  0  0  0  0  0  0  0  0
    2.7877    4.7046    0.0000 N   0  0  0  0  0  0  0  0  0  0  0  0
  1  2  1  0
  2  3  1  0
  3  4  1  0
  4  5  1  0
  5  6  1  0
  5  7  1  0
  7  8  1  0
  8  9  1  0
  8 10  1  0
 10 11  1  0
 11 12  3  0
  8  2  1  0
M  END
>  <Title>  (120) 
idAACRgen6

$$$$

     RDKit          2D

 24 25  0  0  0  0  0  0  0  0999 V2000
    5.2500   -3.8971    0.0000 C   0  0  0  0  0  0  0  0  0  0  0  0
    3.7500   -3.8971    0.0000 C   0  0  0  0  0  0  0  0  0  0  0  0
    3.0000   -5.1962    0.0000 O   0  0  0  0  0  0  0  0  0  0  0  0
    3.0000   -2.5981    0.0000 C   0  0  0  0  0  0  0  0  0  0  0  0
    1.5000   -2.5981    0.0000 C   0  0  0  0  0  0  0  0  0  0  0  0
    0.7500   -1.2990    0.0000 C   0  0  0  0  0  0  0  0  0  0  0  0
    1.5000    0.0000    0.0000 C   0  0  0  0  0  0  0  0  0  0  0  0
    0.7500    1.2990    0.0000 C   0  0  0  0  0  0  0  0  0  0  0  0
   -0.7500    1.2990    0.0000 C   0  0  0  0  0  0  0  0  0  0  0  0
   -1.5000    0.0000    0.0000 C   0  0  0  0  0  0  0  0  0  0  0  0
   -0.7500   -1.2990    0.0000 C   0  0  0  0  0  0  0  0  0  0  0  0
   -1.5000   -2.5981    0.0000 C   0  0  0  0  0  0  0  0  0  0  0  0
    3.7500   -1.2990    0.0000 N   0  0  0  0  0  0  0  0  0  0  0  0
    5.2500   -1.2990    0.0000 C   0  0  0  0  0  0  0  0  0  0  0  0
    6.0000   -2.5981    0.0000 O   0  0  0  0  0  0  0  0  0  0  0  0
    6.0000   -0.0000    0.0000 C   0  0  0  0  0  0  0  0  0  0  0  0
    5.3899    1.3703    0.0000 C   0  0  0  0  0  0  0  0  0  0  0  0
    6.5046    2.3740    0.0000 C   0  0  0  0  0  0  0  0  0  0  0  0
    7.8037    1.6240    0.0000 C   0  0  0  0  0  0  0  0  0  0  0  0
    9.1740    2.2341    0.0000 C   0  0  0  0  0  0  0  0  0  0  0  0
    9.3308    3.7259    0.0000 O   0  0  0  0  0  0  0  0  0  0  0  0
   10.3875    1.3524    0.0000 O   0  0  0  0  0  0  0  0  0  0  0  0
    7.4918    0.1568    0.0000 C   0  0  0  0  0  0  0  0  0  0  0  0
    8.4955   -0.9579    0.0000 O   0  0  0  0  0  0  0  0  0  0  0  0
  1  2  1  0
  2  3  2  0
  2  4  1  0
  4  5  1  0
  5  6  1  0
  6  7  2  0
  7  8  1  0
  8  9  2  0
  9 10  1  0
 10 11  2  0
 11 12  1  0
  4 13  1  0
 13 14  1  0
 14 15  2  0
 14 16  1  0
 16 17  1  0
 17 18  1  0
 18 19  1  0
 19 20  1  0
 20 21  2  0
 20 22  1  0
 19 23  1  0
 23 24  2  0
 11  6  1  0
 23 16  1  0
M  END
>  <Title>  (121) 
idAACSgen6

$$$$

     RDKit          2D

 22 24  0  0  0  0  0  0  0  0999 V2000
   -2.5242   -4.8694    0.0000 C   0  0  0  0  0  0  0  0  0  0  0  0
   -1.3515   -3.9342    0.0000 C   0  0  0  0  0  0  0  0  0  0  0  0
   -0.0000   -4.5850    0.0000 C   0  0  0  0  0  0  0  0  0  0  0  0
    1.3515   -3.9342    0.0000 C   0  0  0  0  0  0  0  0  0  0  0  0
    1.6852   -2.4718    0.0000 C   0  0  0  0  0  0  0  0  0  0  0  0
    3.1476   -2.1380    0.0000 C   0  0  0  0  0  0  0  0  0  0  0  0
    3.5898   -0.7046    0.0000 O   0  0  0  0  0  0  0  0  0  0  0  0
    4.1679   -3.2376    0.0000 N   0  0  0  0  0  0  0  0  0  0  0  0
    5.6303   -2.9038    0.0000 C   0  0  0  0  0  0  0  0  0  0  0  0
    6.6505   -4.0034    0.0000 N   0  0  0  0  0  0  0  0  0  0  0  0
    8.1129   -3.6696    0.0000 N   0  0  0  0  0  0  0  0  0  0  0  0
    8.5551   -2.2362    0.0000 N   0  0  0  0  0  0  0  0  0  0  0  0
    7.5348   -1.1367    0.0000 N   0  0  0  0  0  0  0  0  0  0  0  0
    6.0724   -1.4704    0.0000 N   0  0  0  0  0  0  0  0  0  0  0  0
    0.7500   -1.2990    0.0000 C   0  0  0  0  0  0  0  0  0  0  0  0
    1.5000    0.0000    0.0000 C   0  0  0  0  0  0  0  0  0  0  0  0
    0.7500    1.2990    0.0000 C   0  0  0  0  0  0  0  0  0  0  0  0
   -0.7500    1.2990    0.0000 C   0  0  0  0  0  0  0  0  0  0  0  0
   -1.5000    0.0000    0.0000 C   0  0  0  0  0  0  0  0  0  0  0  0
   -0.7500   -1.2990    0.0000 C   0  0  0  0  0  0  0  0  0  0  0  0
   -1.6852   -2.4718    0.0000 C   0  0  0  0  0  0  0  0  0  0  0  0
   -3.1476   -2.1380    0.0000 O   0  0  0  0  0  0  0  0  0  0  0  0
  1  2  1  0
  2  3  1  0
  3  4  1  0
  4  5  1  0
  5  6  1  0
  6  7  2  0
  6  8  1  0
  8  9  1  0
  9 10  2  0
 10 11  1  0
 11 12  2  0
 12 13  1  0
 13 14  2  0
  5 15  1  0
 15 16  2  0
 16 17  1  0
 17 18  2  0
 18 19  1  0
 19 20  2  0
 20 21  1  0
 21 22  2  0
 21  2  1  0
 14  9  1  0
 20 15  1  0
M  END
>  <Title>  (122) 
idAACTgen6

$$$$

     RDKit          2D

 18 19  0  0  0  0  0  0  0  0999 V2000
   -8.8374   -1.1051    0.0000 C   0  0  0  0  0  0  0  0  0  0  0  0
   -7.7227   -2.1088    0.0000 C   0  0  0  0  0  0  0  0  0  0  0  0
   -8.0346   -3.5760    0.0000 O   0  0  0  0  0  0  0  0  0  0  0  0
   -6.2961   -1.6453    0.0000 C   0  0  0  0  0  0  0  0  0  0  0  0
   -5.1814   -2.6490    0.0000 N   0  0  0  0  0  0  0  0  0  0  0  0
   -3.7548   -2.1855    0.0000 C   0  0  0  0  0  0  0  0  0  0  0  0
   -3.4430   -0.7182    0.0000 O   0  0  0  0  0  0  0  0  0  0  0  0
   -2.6401   -3.1891    0.0000 C   0  0  0  0  0  0  0  0  0  0  0  0
   -1.2135   -2.7256    0.0000 N   0  0  0  0  0  0  0  0  0  0  0  0
   -0.0000   -3.6073    0.0000 C   0  0  0  0  0  0  0  0  0  0  0  0
   -0.0000   -5.1073    0.0000 O   0  0  0  0  0  0  0  0  0  0  0  0
    1.2135   -2.7256    0.0000 O   0  0  0  0  0  0  0  0  0  0  0  0
    0.7500   -1.2990    0.0000 C   0  0  0  0  0  0  0  0  0  0  0  0
    1.5000    0.0000    0.0000 C   0  0  0  0  0  0  0  0  0  0  0  0
    0.7500    1.2990    0.0000 C   0  0  0  0  0  0  0  0  0  0  0  0
   -0.7500    1.2990    0.0000 C   0  0  0  0  0  0  0  0  0  0  0  0
   -1.5000    0.0000    0.0000 C   0  0  0  0  0  0  0  0  0  0  0  0
   -0.7500   -1.2990    0.0000 C   0  0  0  0  0  0  0  0  0  0  0  0
  1  2  1  0
  2  3  2  0
  2  4  1  0
  4  5  1  0
  5  6  1  0
  6  7  2  0
  6  8  1  0
  8  9  1  0
  9 10  1  0
 10 11  2  0
 10 12  1  0
 12 13  1  0
 13 14  2  0
 14 15  1  0
 15 16  2  0
 16 17  1  0
 17 18  2  0
 18  9  1  0
 18 13  1  0
M  END
>  <Title>  (123) 
idAACUgen6

$$$$

     RDKit          2D

 14 14  0  0  0  0  0  0  0  0999 V2000
    4.6160   -1.2990    0.0000 C   0  0  0  0  0  0  0  0  0  0  0  0
    3.1160   -1.2990    0.0000 C   0  0  0  0  0  0  0  0  0  0  0  0
    2.3660   -2.5981    0.0000 O   0  0  0  0  0  0  0  0  0  0  0  0
    2.3660    0.0000    0.0000 C   0  0  0  0  0  0  0  0  0  0  0  0
    3.1160    1.2990    0.0000 O   0  0  0  0  0  0  0  0  0  0  0  0
    0.8660    0.0000    0.0000 C   0  0  0  0  0  0  0  0  0  0  0  0
   -0.4330    0.7500    0.0000 C   0  0  0  0  0  0  0  0  0  0  0  0
   -0.4330   -0.7500    0.0000 C   0  0  0  0  0  0  0  0  0  0  0  0
   -1.9102   -1.0105    0.0000 O   0  0  0  0  0  0  0  0  0  0  0  0
    0.0800   -2.1595    0.0000 C   0  0  0  0  0  0  0  0  0  0  0  0
   -0.8842   -3.3086    0.0000 C   0  0  0  0  0  0  0  0  0  0  0  0
   -0.3711   -4.7181    0.0000 C   0  0  0  0  0  0  0  0  0  0  0  0
   -1.3353   -5.8672    0.0000 C   0  0  0  0  0  0  0  0  0  0  0  0
    1.1061   -4.9786    0.0000 C   0  0  0  0  0  0  0  0  0  0  0  0
  1  2  1  0
  2  3  2  0
  2  4  1  0
  4  5  2  0
  4  6  1  0
  6  7  1  0
  7  8  1  0
  8  9  1  0
  8 10  1  0
 10 11  1  0
 11 12  1  0
 12 13  1  0
 12 14  1  0
  8  6  1  0
M  END
>  <Title>  (124) 
idAACVgen6

$$$$

     RDKit          2D

  9  9  0  0  0  0  0  0  0  0999 V2000
    3.7500   -1.2990    0.0000 C   0  0  0  0  0  0  0  0  0  0  0  0
    3.0000    0.0000    0.0000 N   0  0  0  0  0  0  0  0  0  0  0  0
    3.7500    1.2990    0.0000 C   0  0  0  0  0  0  0  0  0  0  0  0
    1.5000    0.0000    0.0000 C   0  0  0  0  0  0  0  0  0  0  0  0
    0.7500   -1.2990    0.0000 C   0  0  0  0  0  0  0  0  0  0  0  0
   -0.7500   -1.2990    0.0000 C   0  0  0  0  0  0  0  0  0  0  0  0
   -1.5000    0.0000    0.0000 C   0  0  0  0  0  0  0  0  0  0  0  0
   -0.7500    1.2990    0.0000 C   0  0  0  0  0  0  0  0  0  0  0  0
    0.7500    1.2990    0.0000 C   0  0  0  0  0  0  0  0  0  0  0  0
  1  2  1  0
  2  3  1  0
  2  4  1  0
  4  5  2  0
  5  6  1  0
  6  7  2  0
  7  8  1  0
  8  9  2  0
  9  4  1  0
M  END
>  <Title>  (125) 
idAACWgen6

$$$$

     RDKit          2D

  7  7  0  0  0  0  0  0  0  0999 V2000
    1.7286    0.0000    0.0000 C   0  0  0  0  0  0  0  0  0  0  0  0
    1.0777    1.3515    0.0000 C   0  0  0  0  0  0  0  0  0  0  0  0
   -0.3846    1.6852    0.0000 C   0  0  0  0  0  0  0  0  0  0  0  0
   -1.5574    0.7500    0.0000 C   0  0  0  0  0  0  0  0  0  0  0  0
   -1.5574   -0.7500    0.0000 C   0  0  0  0  0  0  0  0  0  0  0  0
   -0.3846   -1.6852    0.0000 C   0  0  0  0  0  0  0  0  0  0  0  0
    1.0777   -1.3515    0.0000 C   0  0  0  0  0  0  0  0  0  0  0  0
  1  2  1  0
  2  3  1  0
  3  4  1  0
  4  5  1  0
  5  6  1  0
  6  7  1  0
  7  1  1  0
M  END
>  <Title>  (126) 
idAACXgen6

$$$$

     RDKit          2D

 24 26  0  0  0  0  0  0  0  0999 V2000
   -3.1965   -1.7857    0.0000 C   0  0  0  0  0  0  0  0  0  0  0  0
   -1.8107   -2.3597    0.0000 C   0  0  0  0  0  0  0  0  0  0  0  0
   -1.8107   -3.8597    0.0000 C   0  0  0  0  0  0  0  0  0  0  0  0
   -0.7500   -4.9204    0.0000 C   0  0  0  0  0  0  0  0  0  0  0  0
    0.7500   -4.9204    0.0000 C   0  0  0  0  0  0  0  0  0  0  0  0
    1.3240   -6.3062    0.0000 C   0  0  0  0  0  0  0  0  0  0  0  0
    2.8112   -6.5020    0.0000 O   0  0  0  0  0  0  0  0  0  0  0  0
    0.4109   -7.4962    0.0000 O   0  0  0  0  0  0  0  0  0  0  0  0
    0.9849   -8.8820    0.0000 C   0  0  0  0  0  0  0  0  0  0  0  0
    0.0718  -10.0721    0.0000 N   0  0  0  0  0  0  0  0  0  0  0  0
    0.6458  -11.4579    0.0000 N   0  0  0  0  0  0  0  0  0  0  0  0
    2.1330  -11.6537    0.0000 N   0  0  0  0  0  0  0  0  0  0  0  0
    3.0461  -10.4636    0.0000 N   0  0  0  0  0  0  0  0  0  0  0  0
    2.4721   -9.0778    0.0000 C   0  0  0  0  0  0  0  0  0  0  0  0
    3.3852   -7.8878    0.0000 O   0  0  0  0  0  0  0  0  0  0  0  0
    1.8107   -3.8597    0.0000 C   0  0  0  0  0  0  0  0  0  0  0  0
    3.1965   -4.4337    0.0000 O   0  0  0  0  0  0  0  0  0  0  0  0
    1.8107   -2.3597    0.0000 O   0  0  0  0  0  0  0  0  0  0  0  0
    0.7500   -1.2990    0.0000 C   0  0  0  0  0  0  0  0  0  0  0  0
    1.5000    0.0000    0.0000 C   0  0  0  0  0  0  0  0  0  0  0  0
    0.7500    1.2990    0.0000 C   0  0  0  0  0  0  0  0  0  0  0  0
   -0.7500    1.2990    0.0000 C   0  0  0  0  0  0  0  0  0  0  0  0
   -1.5000    0.0000    0.0000 C   0  0  0  0  0  0  0  0  0  0  0  0
   -0.7500   -1.2990    0.0000 C   0  0  0  0  0  0  0  0  0  0  0  0
  1  2  1  0
  2  3  1  0
  3  4  1  0
  4  5  1  0
  5  6  1  0
  6  7  2  0
  6  8  1  0
  8  9  1  0
  9 10  2  0
 10 11  1  0
 11 12  2  0
 12 13  1  0
 13 14  1  0
 14 15  2  0
  5 16  1  0
 16 17  2  0
 16 18  1  0
 18 19  1  0
 19 20  2  0
 20 21  1  0
 21 22  2  0
 22 23  1  0
 23 24  2  0
 24  2  1  0
 14  9  1  0
 24 19  1  0
M  END
>  <Title>  (127) 
idAACYgen6

$$$$

     RDKit          2D

 32 36  0  0  0  0  0  0  0  0999 V2000
    3.1771   -5.9156    0.0000 C   0  0  0  0  0  0  0  0  0  0  0  0
    1.9635   -5.0339    0.0000 C   0  0  0  0  0  0  0  0  0  0  0  0
    2.4271   -3.6073    0.0000 C   0  0  0  0  0  0  0  0  0  0  0  0
    1.9635   -2.1807    0.0000 S   0  0  0  0  0  0  0  0  0  0  0  0
    0.7500   -1.2990    0.0000 C   0  0  0  0  0  0  0  0  0  0  0  0
    1.5000    0.0000    0.0000 C   0  0  0  0  0  0  0  0  0  0  0  0
    0.7500    1.2990    0.0000 C   0  0  0  0  0  0  0  0  0  0  0  0
   -0.7500    1.2990    0.0000 C   0  0  0  0  0  0  0  0  0  0  0  0
   -1.5000    0.0000    0.0000 C   0  0  0  0  0  0  0  0  0  0  0  0
   -0.7500   -1.2990    0.0000 C   0  0  0  0  0  0  0  0  0  0  0  0
   -1.9635   -2.1807    0.0000 C   0  0  0  0  0  0  0  0  0  0  0  0
   -3.1771   -1.2990    0.0000 C   0  0  0  0  0  0  0  0  0  0  0  0
   -4.5474   -1.9091    0.0000 O   0  0  0  0  0  0  0  0  0  0  0  0
   -3.0203    0.1927    0.0000 N   0  0  0  0  0  0  0  0  0  0  0  0
   -4.2338    1.0744    0.0000 C   0  0  0  0  0  0  0  0  0  0  0  0
   -4.0770    2.5662    0.0000 N   0  0  0  0  0  0  0  0  0  0  0  0
   -5.2905    3.4479    0.0000 N   0  0  0  0  0  0  0  0  0  0  0  0
   -6.6608    2.8378    0.0000 N   0  0  0  0  0  0  0  0  0  0  0  0
   -6.8176    1.3460    0.0000 N   0  0  0  0  0  0  0  0  0  0  0  0
   -5.6041    0.4643    0.0000 N   0  0  0  0  0  0  0  0  0  0  0  0
   -2.4271   -3.6073    0.0000 C   0  0  0  0  0  0  0  0  0  0  0  0
   -3.8943   -3.2954    0.0000 C   0  0  0  0  0  0  0  0  0  0  0  0
   -4.8980   -4.4102    0.0000 C   0  0  0  0  0  0  0  0  0  0  0  0
   -4.4344   -5.8367    0.0000 C   0  0  0  0  0  0  0  0  0  0  0  0
   -2.9672   -6.1486    0.0000 C   0  0  0  0  0  0  0  0  0  0  0  0
   -1.9635   -5.0339    0.0000 C   0  0  0  0  0  0  0  0  0  0  0  0
   -0.7500   -5.9156    0.0000 C   0  0  0  0  0  0  0  0  0  0  0  0
   -1.5000   -7.2146    0.0000 C   0  0  0  0  0  0  0  0  0  0  0  0
   -0.7500   -8.5136    0.0000 C   0  0  0  0  0  0  0  0  0  0  0  0
    0.7500   -8.5136    0.0000 C   0  0  0  0  0  0  0  0  0  0  0  0
    1.5000   -7.2146    0.0000 C   0  0  0  0  0  0  0  0  0  0  0  0
    0.7500   -5.9156    0.0000 C   0  0  0  0  0  0  0  0  0  0  0  0
  1  2  1  0
  2  3  2  0
  3  4  1  0
  4  5  1  0
  5  6  2  0
  6  7  1  0
  7  8  2  0
  8  9  1  0
  9 10  2  0
 10 11  1  0
 11 12  1  0
 12 13  2  0
 12 14  1  0
 14 15  1  0
 15 16  2  0
 16 17  1  0
 17 18  2  0
 18 19  1  0
 19 20  2  0
 11 21  1  0
 21 22  2  0
 22 23  1  0
 23 24  2  0
 24 25  1  0
 25 26  2  0
 26 27  1  0
 27 28  2  0
 28 29  1  0
 29 30  2  0
 30 31  1  0
 31 32  2  0
 32  2  1  0
 10  5  1  0
 20 15  1  0
 26 21  1  0
 32 27  1  0
M  END
>  <Title>  (128) 
idAACZgen6

$$$$

     RDKit          2D

 34 38  0  0  0  0  0  0  0  0999 V2000
    1.2135   -7.3421    0.0000 C   0  0  0  0  0  0  0  0  0  0  0  0
    0.7500   -5.9156    0.0000 C   0  0  0  0  0  0  0  0  0  0  0  0
    1.9635   -5.0339    0.0000 C   0  0  0  0  0  0  0  0  0  0  0  0
    2.4271   -3.6073    0.0000 C   0  0  0  0  0  0  0  0  0  0  0  0
    1.9635   -2.1807    0.0000 C   0  0  0  0  0  0  0  0  0  0  0  0
    3.1771   -1.2990    0.0000 C   0  0  0  0  0  0  0  0  0  0  0  0
    3.0203    0.1927    0.0000 O   0  0  0  0  0  0  0  0  0  0  0  0
    4.5474   -1.9091    0.0000 N   0  0  0  0  0  0  0  0  0  0  0  0
    5.7609   -1.0275    0.0000 C   0  0  0  0  0  0  0  0  0  0  0  0
    7.1312   -1.6376    0.0000 N   0  0  0  0  0  0  0  0  0  0  0  0
    8.3447   -0.7559    0.0000 N   0  0  0  0  0  0  0  0  0  0  0  0
    8.1879    0.7359    0.0000 N   0  0  0  0  0  0  0  0  0  0  0  0
    6.8176    1.3460    0.0000 N   0  0  0  0  0  0  0  0  0  0  0  0
    5.6041    0.4643    0.0000 N   0  0  0  0  0  0  0  0  0  0  0  0
    0.7500   -1.2990    0.0000 C   0  0  0  0  0  0  0  0  0  0  0  0
    1.5000    0.0000    0.0000 C   0  0  0  0  0  0  0  0  0  0  0  0
    0.7500    1.2990    0.0000 C   0  0  0  0  0  0  0  0  0  0  0  0
   -0.7500    1.2990    0.0000 C   0  0  0  0  0  0  0  0  0  0  0  0
   -1.5000    0.0000    0.0000 C   0  0  0  0  0  0  0  0  0  0  0  0
   -0.7500   -1.2990    0.0000 C   0  0  0  0  0  0  0  0  0  0  0  0
   -1.9635   -2.1807    0.0000 C   0  0  0  0  0  0  0  0  0  0  0  0
   -2.9672   -1.0660    0.0000 C   0  0  0  0  0  0  0  0  0  0  0  0
   -4.4344   -1.3779    0.0000 C   0  0  0  0  0  0  0  0  0  0  0  0
   -4.8980   -2.8045    0.0000 C   0  0  0  0  0  0  0  0  0  0  0  0
   -3.8943   -3.9192    0.0000 C   0  0  0  0  0  0  0  0  0  0  0  0
   -2.4271   -3.6073    0.0000 C   0  0  0  0  0  0  0  0  0  0  0  0
   -1.9635   -5.0339    0.0000 C   0  0  0  0  0  0  0  0  0  0  0  0
   -3.3338   -5.6440    0.0000 C   0  0  0  0  0  0  0  0  0  0  0  0
   -3.4906   -7.1358    0.0000 C   0  0  0  0  0  0  0  0  0  0  0  0
   -2.2771   -8.0175    0.0000 C   0  0  0  0  0  0  0  0  0  0  0  0
   -2.4339   -9.5092    0.0000 C   0  0  0  0  0  0  0  0  0  0  0  0
   -2.5907  -11.0010    0.0000 N   0  0  0  0  0  0  0  0  0  0  0  0
   -0.9068   -7.4073    0.0000 C   0  0  0  0  0  0  0  0  0  0  0  0
   -0.7500   -5.9156    0.0000 C   0  0  0  0  0  0  0  0  0  0  0  0
  1  2  1  0
  2  3  1  0
  3  4  2  0
  4  5  1  0
  5  6  1  0
  6  7  2  0
  6  8  1  0
  8  9  1  0
  9 10  2  0
 10 11  1  0
 11 12  2  0
 12 13  1  0
 13 14  2  0
  5 15  1  0
 15 16  2  0
 16 17  1  0
 17 18  2  0
 18 19  1  0
 19 20  2  0
 20 21  1  0
 21 22  2  0
 22 23  1  0
 23 24  2  0
 24 25  1  0
 25 26  2  0
 26 27  1  0
 27 28  2  0
 28 29  1  0
 29 30  2  0
 30 31  1  0
 31 32  3  0
 30 33  1  0
 33 34  2  0
 34  2  1  0
 14  9  1  0
 20 15  1  0
 26 21  1  0
 34 27  1  0
M  END
>  <Title>  (129) 
idAADAgen6

$$$$

     RDKit          2D

 33 36  0  0  0  0  0  0  0  0999 V2000
   -3.1965   -1.7857    0.0000 C   0  0  0  0  0  0  0  0  0  0  0  0
   -1.8107   -2.3597    0.0000 C   0  0  0  0  0  0  0  0  0  0  0  0
   -1.8107   -3.8597    0.0000 C   0  0  0  0  0  0  0  0  0  0  0  0
   -0.7500   -4.9204    0.0000 C   0  0  0  0  0  0  0  0  0  0  0  0
    0.7500   -4.9204    0.0000 C   0  0  0  0  0  0  0  0  0  0  0  0
    1.3240   -6.3062    0.0000 O   0  0  0  0  0  0  0  0  0  0  0  0
    0.4109   -7.4962    0.0000 C   0  0  0  0  0  0  0  0  0  0  0  0
    0.9849   -8.8820    0.0000 C   0  0  0  0  0  0  0  0  0  0  0  0
    2.4721   -9.0778    0.0000 O   0  0  0  0  0  0  0  0  0  0  0  0
    0.0718  -10.0721    0.0000 C   0  0  0  0  0  0  0  0  0  0  0  0
    0.4978  -11.5103    0.0000 C   0  0  0  0  0  0  0  0  0  0  0  0
   -0.7384  -12.3599    0.0000 C   0  0  0  0  0  0  0  0  0  0  0  0
   -1.9284  -11.4468    0.0000 C   0  0  0  0  0  0  0  0  0  0  0  0
   -3.3667  -11.8728    0.0000 C   0  0  0  0  0  0  0  0  0  0  0  0
   -3.7168  -13.3313    0.0000 O   0  0  0  0  0  0  0  0  0  0  0  0
   -4.4547  -10.8402    0.0000 N   0  0  0  0  0  0  0  0  0  0  0  0
   -5.8930  -11.2663    0.0000 C   0  0  0  0  0  0  0  0  0  0  0  0
   -6.9810  -10.2337    0.0000 C   0  0  0  0  0  0  0  0  0  0  0  0
   -8.4192  -10.6598    0.0000 C   0  0  0  0  0  0  0  0  0  0  0  0
   -8.7694  -12.1183    0.0000 C   0  0  0  0  0  0  0  0  0  0  0  0
   -7.6813  -13.1508    0.0000 C   0  0  0  0  0  0  0  0  0  0  0  0
   -6.2431  -12.7248    0.0000 C   0  0  0  0  0  0  0  0  0  0  0  0
   -1.4277  -10.0328    0.0000 C   0  0  0  0  0  0  0  0  0  0  0  0
   -2.2773   -8.7966    0.0000 O   0  0  0  0  0  0  0  0  0  0  0  0
    1.8107   -3.8597    0.0000 C   0  0  0  0  0  0  0  0  0  0  0  0
    3.1965   -4.4337    0.0000 O   0  0  0  0  0  0  0  0  0  0  0  0
    1.8107   -2.3597    0.0000 O   0  0  0  0  0  0  0  0  0  0  0  0
    0.7500   -1.2990    0.0000 C   0  0  0  0  0  0  0  0  0  0  0  0
    1.5000    0.0000    0.0000 C   0  0  0  0  0  0  0  0  0  0  0  0
    0.7500    1.2990    0.0000 C   0  0  0  0  0  0  0  0  0  0  0  0
   -0.7500    1.2990    0.0000 C   0  0  0  0  0  0  0  0  0  0  0  0
   -1.5000    0.0000    0.0000 C   0  0  0  0  0  0  0  0  0  0  0  0
   -0.7500   -1.2990    0.0000 C   0  0  0  0  0  0  0  0  0  0  0  0
  1  2  1  0
  2  3  1  0
  3  4  1  0
  4  5  1  0
  5  6  1  0
  6  7  1  0
  7  8  1  0
  8  9  2  0
  8 10  1  0
 10 11  2  0
 11 12  1  0
 12 13  2  0
 13 14  1  0
 14 15  2  0
 14 16  1  0
 16 17  1  0
 17 18  2  0
 18 19  1  0
 19 20  2  0
 20 21  1  0
 21 22  2  0
 13 23  1  0
 23 24  2  0
  5 25  1  0
 25 26  2  0
 25 27  1  0
 27 28  1  0
 28 29  2  0
 29 30  1  0
 30 31  2  0
 31 32  1  0
 32 33  2  0
 33  2  1  0
 23 10  1  0
 33 28  1  0
 22 17  1  0
M  END
>  <Title>  (130) 
idAADBgen6

$$$$

     RDKit          2D

  9  9  0  0  0  0  0  0  0  0999 V2000
    3.0000    0.0000    0.0000 C   0  0  0  0  0  0  0  0  0  0  0  0
    1.5000    0.0000    0.0000 C   0  0  0  0  0  0  0  0  0  0  0  0
    0.7500   -1.2990    0.0000 C   0  0  0  0  0  0  0  0  0  0  0  0
   -0.7500   -1.2990    0.0000 C   0  0  0  0  0  0  0  0  0  0  0  0
   -1.5000    0.0000    0.0000 C   0  0  0  0  0  0  0  0  0  0  0  0
   -3.0000    0.0000    0.0000 O   0  0  0  0  0  0  0  0  0  0  0  0
   -0.7500    1.2990    0.0000 C   0  0  0  0  0  0  0  0  0  0  0  0
    0.7500    1.2990    0.0000 C   0  0  0  0  0  0  0  0  0  0  0  0
    1.5000    2.5981    0.0000 C   0  0  0  0  0  0  0  0  0  0  0  0
  1  2  1  0
  2  3  1  0
  3  4  1  0
  4  5  1  0
  5  6  1  0
  5  7  1  0
  7  8  1  0
  8  9  1  0
  8  2  1  0
M  END
>  <Title>  (131) 
idAADCgen6

$$$$

     RDKit          2D

 31 33  0  0  0  0  0  0  0  0999 V2000
    3.7500   -6.4952    0.0000 C   0  0  0  0  0  0  0  0  0  0  0  0
    3.0000   -5.1962    0.0000 C   0  0  0  0  0  0  0  0  0  0  0  0
    3.7500   -3.8971    0.0000 O   0  0  0  0  0  0  0  0  0  0  0  0
    1.5000   -5.1962    0.0000 C   0  0  0  0  0  0  0  0  0  0  0  0
    0.7500   -6.4952    0.0000 O   0  0  0  0  0  0  0  0  0  0  0  0
    0.7500   -3.8971    0.0000 C   0  0  0  0  0  0  0  0  0  0  0  0
    1.5000   -2.5981    0.0000 C   0  0  0  0  0  0  0  0  0  0  0  0
    0.7500   -1.2990    0.0000 C   0  0  0  0  0  0  0  0  0  0  0  0
    1.5000   -0.0000    0.0000 C   0  0  0  0  0  0  0  0  0  0  0  0
    0.7500    1.2990    0.0000 C   0  0  0  0  0  0  0  0  0  0  0  0
   -0.7500    1.2990    0.0000 C   0  0  0  0  0  0  0  0  0  0  0  0
   -1.5000    0.0000    0.0000 C   0  0  0  0  0  0  0  0  0  0  0  0
   -0.7500   -1.2990    0.0000 C   0  0  0  0  0  0  0  0  0  0  0  0
   -0.7500   -3.8971    0.0000 N   0  0  0  0  0  0  0  0  0  0  0  0
   -1.5000   -5.1962    0.0000 C   0  0  0  0  0  0  0  0  0  0  0  0
   -0.7500   -6.4952    0.0000 O   0  0  0  0  0  0  0  0  0  0  0  0
   -3.0000   -5.1962    0.0000 C   0  0  0  0  0  0  0  0  0  0  0  0
   -3.7500   -6.4952    0.0000 C   0  0  0  0  0  0  0  0  0  0  0  0
   -5.2500   -6.4952    0.0000 C   0  0  0  0  0  0  0  0  0  0  0  0
   -6.0000   -5.1962    0.0000 C   0  0  0  0  0  0  0  0  0  0  0  0
   -7.5000   -5.1962    0.0000 C   0  0  0  0  0  0  0  0  0  0  0  0
   -8.2500   -6.4952    0.0000 C   0  0  0  0  0  0  0  0  0  0  0  0
   -7.5000   -7.7942    0.0000 C   0  0  0  0  0  0  0  0  0  0  0  0
   -6.0000   -7.7942    0.0000 C   0  0  0  0  0  0  0  0  0  0  0  0
   -3.7500   -3.8971    0.0000 C   0  0  0  0  0  0  0  0  0  0  0  0
   -3.0000   -2.5981    0.0000 C   0  0  0  0  0  0  0  0  0  0  0  0
   -3.7500   -1.2990    0.0000 C   0  0  0  0  0  0  0  0  0  0  0  0
   -5.2500   -1.2990    0.0000 C   0  0  0  0  0  0  0  0  0  0  0  0
   -6.0000    0.0000    0.0000 O   0  0  0  0  0  0  0  0  0  0  0  0
   -6.0000   -2.5981    0.0000 C   0  0  0  0  0  0  0  0  0  0  0  0
   -5.2500   -3.8971    0.0000 C   0  0  0  0  0  0  0  0  0  0  0  0
  1  2  1  0
  2  3  2  0
  2  4  1  0
  4  5  2  0
  4  6  1  0
  6  7  1  0
  7  8  1  0
  8  9  2  0
  9 10  1  0
 10 11  2  0
 11 12  1  0
 12 13  2  0
  6 14  1  0
 14 15  1  0
 15 16  2  0
 15 17  1  0
 17 18  1  0
 18 19  1  0
 19 20  2  0
 20 21  1  0
 21 22  2  0
 22 23  1  0
 23 24  2  0
 17 25  1  0
 25 26  2  0
 26 27  1  0
 27 28  2  0
 28 29  1  0
 28 30  1  0
 30 31  1  0
 13  8  1  0
 24 19  1  0
 31 25  1  0
M  END
>  <Title>  (132) 
idAADDgen6

$$$$

     RDKit          2D

 33 37  0  0  0  0  0  0  0  0999 V2000
    3.0000    0.0000    0.0000 C   0  0  0  0  0  0  0  0  0  0  0  0
    1.5000    0.0000    0.0000 C   0  0  0  0  0  0  0  0  0  0  0  0
    0.7500   -1.2990    0.0000 C   0  0  0  0  0  0  0  0  0  0  0  0
   -0.7500   -1.2990    0.0000 C   0  0  0  0  0  0  0  0  0  0  0  0
   -1.5000    0.0000    0.0000 C   0  0  0  0  0  0  0  0  0  0  0  0
   -3.0000    0.0000    0.0000 C   0  0  0  0  0  0  0  0  0  0  0  0
   -3.7500   -1.2990    0.0000 O   0  0  0  0  0  0  0  0  0  0  0  0
   -3.7500    1.2990    0.0000 N   0  0  0  0  0  0  0  0  0  0  0  0
   -5.2500    1.2990    0.0000 C   0  0  0  0  0  0  0  0  0  0  0  0
   -6.1317    0.0855    0.0000 N   0  0  0  0  0  0  0  0  0  0  0  0
   -7.5583    0.5490    0.0000 N   0  0  0  0  0  0  0  0  0  0  0  0
   -7.5583    2.0490    0.0000 N   0  0  0  0  0  0  0  0  0  0  0  0
   -6.1317    2.5126    0.0000 N   0  0  0  0  0  0  0  0  0  0  0  0
   -5.6682    3.9391    0.0000 C   0  0  0  0  0  0  0  0  0  0  0  0
   -4.2009    4.2510    0.0000 C   0  0  0  0  0  0  0  0  0  0  0  0
   -3.7374    5.6776    0.0000 C   0  0  0  0  0  0  0  0  0  0  0  0
   -4.7411    6.7923    0.0000 C   0  0  0  0  0  0  0  0  0  0  0  0
   -6.2083    6.4805    0.0000 C   0  0  0  0  0  0  0  0  0  0  0  0
   -6.6718    5.0539    0.0000 C   0  0  0  0  0  0  0  0  0  0  0  0
   -8.1391    4.7420    0.0000 C   0  0  0  0  0  0  0  0  0  0  0  0
   -8.6026    3.3154    0.0000 C   0  0  0  0  0  0  0  0  0  0  0  0
  -10.0698    3.0035    0.0000 C   0  0  0  0  0  0  0  0  0  0  0  0
  -11.0735    4.1183    0.0000 C   0  0  0  0  0  0  0  0  0  0  0  0
  -10.6100    5.5448    0.0000 C   0  0  0  0  0  0  0  0  0  0  0  0
   -9.1428    5.8567    0.0000 C   0  0  0  0  0  0  0  0  0  0  0  0
   -8.6792    7.2833    0.0000 C   0  0  0  0  0  0  0  0  0  0  0  0
   -9.6829    8.3980    0.0000 C   0  0  0  0  0  0  0  0  0  0  0  0
   -9.2194    9.8246    0.0000 C   0  0  0  0  0  0  0  0  0  0  0  0
   -7.7522   10.1365    0.0000 C   0  0  0  0  0  0  0  0  0  0  0  0
   -6.7485    9.0218    0.0000 C   0  0  0  0  0  0  0  0  0  0  0  0
   -7.2120    7.5952    0.0000 C   0  0  0  0  0  0  0  0  0  0  0  0
   -0.7500    1.2990    0.0000 C   0  0  0  0  0  0  0  0  0  0  0  0
    0.7500    1.2990    0.0000 C   0  0  0  0  0  0  0  0  0  0  0  0
  1  2  1  0
  2  3  2  0
  3  4  1  0
  4  5  2  0
  5  6  1  0
  6  7  2  0
  6  8  1  0
  8  9  1  0
  9 10  2  0
 10 11  1  0
 11 12  2  0
 12 13  1  0
 13 14  1  0
 14 15  2  0
 15 16  1  0
 16 17  2  0
 17 18  1  0
 18 19  2  0
 19 20  1  0
 20 21  2  0
 21 22  1  0
 22 23  2  0
 23 24  1  0
 24 25  2  0
 25 26  1  0
 26 27  2  0
 27 28  1  0
 28 29  2  0
 29 30  1  0
 30 31  2  0
  5 32  1  0
 32 33  2  0
 33  2  1  0
 13  9  1  0
 19 14  1  0
 25 20  1  0
 31 26  1  0
M  END
>  <Title>  (133) 
idAADEgen6

$$$$

     RDKit          2D

 28 30  0  0  0  0  0  0  0  0999 V2000
    6.0000   -2.5981    0.0000 C   0  0  0  0  0  0  0  0  0  0  0  0
    5.2500   -1.2990    0.0000 C   0  0  0  0  0  0  0  0  0  0  0  0
    6.0000    0.0000    0.0000 O   0  0  0  0  0  0  0  0  0  0  0  0
    3.7500   -1.2990    0.0000 O   0  0  0  0  0  0  0  0  0  0  0  0
    3.0000    0.0000    0.0000 C   0  0  0  0  0  0  0  0  0  0  0  0
    3.7500    1.2990    0.0000 O   0  0  0  0  0  0  0  0  0  0  0  0
    1.5000    0.0000    0.0000 C   0  0  0  0  0  0  0  0  0  0  0  0
    0.7500   -1.2990    0.0000 C   0  0  0  0  0  0  0  0  0  0  0  0
   -0.7500   -1.2990    0.0000 C   0  0  0  0  0  0  0  0  0  0  0  0
   -1.5000    0.0000    0.0000 C   0  0  0  0  0  0  0  0  0  0  0  0
   -3.0000    0.0000    0.0000 O   0  0  0  0  0  0  0  0  0  0  0  0
   -3.7500    1.2990    0.0000 C   0  0  0  0  0  0  0  0  0  0  0  0
   -5.2500    1.2990    0.0000 C   0  0  0  0  0  0  0  0  0  0  0  0
   -6.1317    0.0855    0.0000 C   0  0  0  0  0  0  0  0  0  0  0  0
   -7.5583    0.5490    0.0000 C   0  0  0  0  0  0  0  0  0  0  0  0
   -7.5583    2.0490    0.0000 C   0  0  0  0  0  0  0  0  0  0  0  0
   -8.7718    2.9307    0.0000 N   0  0  0  0  0  0  0  0  0  0  0  0
   -8.6150    4.4225    0.0000 C   0  0  0  0  0  0  0  0  0  0  0  0
   -7.2447    5.0326    0.0000 O   0  0  0  0  0  0  0  0  0  0  0  0
   -9.8285    5.3042    0.0000 C   0  0  0  0  0  0  0  0  0  0  0  0
   -9.6717    6.7960    0.0000 C   0  0  0  0  0  0  0  0  0  0  0  0
  -10.8853    7.6776    0.0000 C   0  0  0  0  0  0  0  0  0  0  0  0
  -12.2556    7.0675    0.0000 C   0  0  0  0  0  0  0  0  0  0  0  0
  -12.4124    5.5757    0.0000 C   0  0  0  0  0  0  0  0  0  0  0  0
  -11.1988    4.6941    0.0000 C   0  0  0  0  0  0  0  0  0  0  0  0
   -6.1317    2.5126    0.0000 C   0  0  0  0  0  0  0  0  0  0  0  0
   -0.7500    1.2990    0.0000 C   0  0  0  0  0  0  0  0  0  0  0  0
    0.7500    1.2990    0.0000 C   0  0  0  0  0  0  0  0  0  0  0  0
  1  2  1  0
  2  3  2  0
  2  4  1  0
  4  5  1  0
  5  6  2  0
  5  7  1  0
  7  8  2  0
  8  9  1  0
  9 10  2  0
 10 11  1  0
 11 12  1  0
 12 13  1  0
 13 14  2  0
 14 15  1  0
 15 16  2  0
 16 17  1  0
 17 18  1  0
 18 19  2  0
 18 20  1  0
 20 21  2  0
 21 22  1  0
 22 23  2  0
 23 24  1  0
 24 25  2  0
 16 26  1  0
 10 27  1  0
 27 28  1  0
 28  7  1  0
 26 13  1  0
 25 20  1  0
M  END
>  <Title>  (134) 
idAADFgen6

$$$$

     RDKit          2D

 35 38  0  0  0  0  0  0  0  0999 V2000
   -3.5554   -4.6154    0.0000 C   0  0  0  0  0  0  0  0  0  0  0  0
   -3.1133   -3.1820    0.0000 C   0  0  0  0  0  0  0  0  0  0  0  0
   -1.6509   -2.8482    0.0000 N   0  0  0  0  0  0  0  0  0  0  0  0
   -0.7156   -4.0210    0.0000 C   0  0  0  0  0  0  0  0  0  0  0  0
    0.7844   -4.0210    0.0000 C   0  0  0  0  0  0  0  0  0  0  0  0
    1.4352   -5.3724    0.0000 C   0  0  0  0  0  0  0  0  0  0  0  0
    2.9310   -5.4845    0.0000 O   0  0  0  0  0  0  0  0  0  0  0  0
    0.5902   -6.6118    0.0000 N   0  0  0  0  0  0  0  0  0  0  0  0
    1.2410   -7.9632    0.0000 C   0  0  0  0  0  0  0  0  0  0  0  0
    0.3961   -9.2026    0.0000 N   0  0  0  0  0  0  0  0  0  0  0  0
    1.0469  -10.5540    0.0000 N   0  0  0  0  0  0  0  0  0  0  0  0
    2.5427  -10.6661    0.0000 N   0  0  0  0  0  0  0  0  0  0  0  0
    3.3877   -9.4268    0.0000 N   0  0  0  0  0  0  0  0  0  0  0  0
    2.7368   -8.0753    0.0000 N   0  0  0  0  0  0  0  0  0  0  0  0
    1.7196   -2.8482    0.0000 C   0  0  0  0  0  0  0  0  0  0  0  0
    3.1820   -3.1820    0.0000 C   0  0  0  0  0  0  0  0  0  0  0  0
    4.2023   -2.0824    0.0000 O   0  0  0  0  0  0  0  0  0  0  0  0
    3.6241   -4.6154    0.0000 N   0  0  0  0  0  0  0  0  0  0  0  0
    5.0865   -4.9491    0.0000 C   0  0  0  0  0  0  0  0  0  0  0  0
    5.5286   -6.3825    0.0000 C   0  0  0  0  0  0  0  0  0  0  0  0
    6.9910   -6.7163    0.0000 C   0  0  0  0  0  0  0  0  0  0  0  0
    8.0113   -5.6167    0.0000 C   0  0  0  0  0  0  0  0  0  0  0  0
    9.4737   -5.9505    0.0000 C   0  0  0  0  0  0  0  0  0  0  0  0
   10.9361   -6.2843    0.0000 N   0  0  0  0  0  0  0  0  0  0  0  0
    7.5692   -4.1833    0.0000 C   0  0  0  0  0  0  0  0  0  0  0  0
    6.1068   -3.8496    0.0000 C   0  0  0  0  0  0  0  0  0  0  0  0
    1.3858   -1.3858    0.0000 C   0  0  0  0  0  0  0  0  0  0  0  0
    1.9598    0.0000    0.0000 C   0  0  0  0  0  0  0  0  0  0  0  0
    1.3858    1.3858    0.0000 C   0  0  0  0  0  0  0  0  0  0  0  0
    0.0000    1.9598    0.0000 C   0  0  0  0  0  0  0  0  0  0  0  0
    0.0000    3.4598    0.0000 C   0  0  0  0  0  0  0  0  0  0  0  0
   -1.3858    1.3858    0.0000 C   0  0  0  0  0  0  0  0  0  0  0  0
   -1.9598    0.0000    0.0000 C   0  0  0  0  0  0  0  0  0  0  0  0
   -1.3858   -1.3858    0.0000 C   0  0  0  0  0  0  0  0  0  0  0  0
   -0.0000   -1.9598    0.0000 C   0  0  0  0  0  0  0  0  0  0  0  0
  1  2  1  0
  2  3  1  0
  3  4  1  0
  4  5  2  0
  5  6  1  0
  6  7  2  0
  6  8  1  0
  8  9  1  0
  9 10  2  0
 10 11  1  0
 11 12  2  0
 12 13  1  0
 13 14  2  0
  5 15  1  0
 15 16  1  0
 16 17  2  0
 16 18  1  0
 18 19  1  0
 19 20  2  0
 20 21  1  0
 21 22  2  0
 22 23  1  0
 23 24  3  0
 22 25  1  0
 25 26  2  0
 15 27  1  0
 27 28  2  0
 28 29  1  0
 29 30  2  0
 30 31  1  0
 30 32  1  0
 32 33  2  0
 33 34  1  0
 34 35  1  0
 34  3  1  0
 14  9  1  0
 26 19  1  0
 35 27  1  0
M  END
>  <Title>  (135) 
idAADGgen6

$$$$

     RDKit          2D

 28 30  0  0  0  0  0  0  0  0999 V2000
    7.5000   -2.5981    0.0000 C   0  0  0  0  0  0  0  0  0  0  0  0
    6.0000   -2.5981    0.0000 C   0  0  0  0  0  0  0  0  0  0  0  0
    5.2500   -3.8971    0.0000 O   0  0  0  0  0  0  0  0  0  0  0  0
    5.2500   -1.2990    0.0000 O   0  0  0  0  0  0  0  0  0  0  0  0
    3.7500   -1.2990    0.0000 C   0  0  0  0  0  0  0  0  0  0  0  0
    3.0000   -2.5981    0.0000 O   0  0  0  0  0  0  0  0  0  0  0  0
    3.0000    0.0000    0.0000 C   0  0  0  0  0  0  0  0  0  0  0  0
    1.5000    0.0000    0.0000 C   0  0  0  0  0  0  0  0  0  0  0  0
    0.7500   -1.2990    0.0000 C   0  0  0  0  0  0  0  0  0  0  0  0
   -0.7500   -1.2990    0.0000 C   0  0  0  0  0  0  0  0  0  0  0  0
   -1.5000    0.0000    0.0000 C   0  0  0  0  0  0  0  0  0  0  0  0
   -3.0000    0.0000    0.0000 O   0  0  0  0  0  0  0  0  0  0  0  0
   -3.7500    1.2990    0.0000 C   0  0  0  0  0  0  0  0  0  0  0  0
   -3.0000    2.5981    0.0000 O   0  0  0  0  0  0  0  0  0  0  0  0
   -5.2500    1.2990    0.0000 C   0  0  0  0  0  0  0  0  0  0  0  0
   -6.0000    2.5981    0.0000 C   0  0  0  0  0  0  0  0  0  0  0  0
   -7.5000    2.5981    0.0000 C   0  0  0  0  0  0  0  0  0  0  0  0
   -8.2500    1.2990    0.0000 C   0  0  0  0  0  0  0  0  0  0  0  0
   -7.5000    0.0000    0.0000 C   0  0  0  0  0  0  0  0  0  0  0  0
   -6.0000    0.0000    0.0000 C   0  0  0  0  0  0  0  0  0  0  0  0
   -5.2500   -1.2990    0.0000 C   0  0  0  0  0  0  0  0  0  0  0  0
   -6.0000   -2.5981    0.0000 C   0  0  0  0  0  0  0  0  0  0  0  0
   -5.2500   -3.8971    0.0000 C   0  0  0  0  0  0  0  0  0  0  0  0
   -3.7500   -3.8971    0.0000 C   0  0  0  0  0  0  0  0  0  0  0  0
   -3.0000   -2.5981    0.0000 C   0  0  0  0  0  0  0  0  0  0  0  0
   -3.7500   -1.2990    0.0000 C   0  0  0  0  0  0  0  0  0  0  0  0
   -0.7500    1.2990    0.0000 C   0  0  0  0  0  0  0  0  0  0  0  0
    0.7500    1.2990    0.0000 C   0  0  0  0  0  0  0  0  0  0  0  0
  1  2  1  0
  2  3  2  0
  2  4  1  0
  4  5  1  0
  5  6  2  0
  5  7  1  0
  7  8  1  0
  8  9  2  0
  9 10  1  0
 10 11  2  0
 11 12  1  0
 12 13  1  0
 13 14  2  0
 13 15  1  0
 15 16  2  0
 16 17  1  0
 17 18  2  0
 18 19  1  0
 19 20  2  0
 20 21  1  0
 21 22  2  0
 22 23  1  0
 23 24  2  0
 24 25  1  0
 25 26  2  0
 11 27  1  0
 27 28  1  0
 28  8  1  0
 20 15  1  0
 26 21  1  0
M  END
>  <Title>  (136) 
idAADHgen6

$$$$

     RDKit          2D

 26 29  0  0  0  0  0  0  0  0999 V2000
   -3.1476   -2.1380    0.0000 C   0  0  0  0  0  0  0  0  0  0  0  0
   -1.6852   -2.4718    0.0000 C   0  0  0  0  0  0  0  0  0  0  0  0
   -1.3515   -3.9342    0.0000 C   0  0  0  0  0  0  0  0  0  0  0  0
   -0.0000   -4.5850    0.0000 C   0  0  0  0  0  0  0  0  0  0  0  0
    1.3515   -3.9342    0.0000 C   0  0  0  0  0  0  0  0  0  0  0  0
    1.6852   -2.4718    0.0000 C   0  0  0  0  0  0  0  0  0  0  0  0
    3.1476   -2.1380    0.0000 N   0  0  0  0  0  0  0  0  0  0  0  0
    3.7372   -0.7587    0.0000 C   0  0  0  0  0  0  0  0  0  0  0  0
    5.2311   -0.8932    0.0000 C   0  0  0  0  0  0  0  0  0  0  0  0
    5.5649   -2.3556    0.0000 C   0  0  0  0  0  0  0  0  0  0  0  0
    6.9442   -2.9451    0.0000 C   0  0  0  0  0  0  0  0  0  0  0  0
    8.1444   -2.0454    0.0000 O   0  0  0  0  0  0  0  0  0  0  0  0
    7.1233   -4.4344    0.0000 N   0  0  0  0  0  0  0  0  0  0  0  0
    8.5026   -5.0239    0.0000 C   0  0  0  0  0  0  0  0  0  0  0  0
    8.6817   -6.5132    0.0000 N   0  0  0  0  0  0  0  0  0  0  0  0
   10.0610   -7.1027    0.0000 N   0  0  0  0  0  0  0  0  0  0  0  0
   11.2612   -6.2030    0.0000 N   0  0  0  0  0  0  0  0  0  0  0  0
   11.0821   -4.7137    0.0000 N   0  0  0  0  0  0  0  0  0  0  0  0
    9.7028   -4.1242    0.0000 N   0  0  0  0  0  0  0  0  0  0  0  0
    4.2772   -3.1249    0.0000 C   0  0  0  0  0  0  0  0  0  0  0  0
    0.7500   -1.2990    0.0000 C   0  0  0  0  0  0  0  0  0  0  0  0
    1.5000    0.0000    0.0000 C   0  0  0  0  0  0  0  0  0  0  0  0
    0.7500    1.2990    0.0000 C   0  0  0  0  0  0  0  0  0  0  0  0
   -0.7500    1.2990    0.0000 C   0  0  0  0  0  0  0  0  0  0  0  0
   -1.5000    0.0000    0.0000 N   0  0  0  0  0  0  0  0  0  0  0  0
   -0.7500   -1.2990    0.0000 C   0  0  0  0  0  0  0  0  0  0  0  0
  1  2  1  0
  2  3  1  0
  3  4  2  0
  4  5  1  0
  5  6  2  0
  6  7  1  0
  7  8  1  0
  8  9  1  0
  9 10  1  0
 10 11  1  0
 11 12  2  0
 11 13  1  0
 13 14  1  0
 14 15  2  0
 15 16  1  0
 16 17  2  0
 17 18  1  0
 18 19  2  0
 10 20  1  0
  6 21  1  0
 21 22  2  0
 22 23  1  0
 23 24  2  0
 24 25  1  0
 25 26  2  0
 26  2  1  0
 20  7  1  0
 26 21  1  0
 19 14  1  0
M  END
>  <Title>  (137) 
idAADIgen6

$$$$

     RDKit          2D

 22 24  0  0  0  0  0  0  0  0999 V2000
    1.4650    3.9205    0.0000 O   0  0  0  0  0  0  0  0  0  0  0  0
    2.0130    2.5242    0.0000 C   0  0  0  0  0  0  0  0  0  0  0  0
    1.0777    1.3515    0.0000 C   0  0  0  0  0  0  0  0  0  0  0  0
    1.7286    0.0000    0.0000 C   0  0  0  0  0  0  0  0  0  0  0  0
    1.0777   -1.3515    0.0000 C   0  0  0  0  0  0  0  0  0  0  0  0
   -0.3846   -1.6852    0.0000 C   0  0  0  0  0  0  0  0  0  0  0  0
   -0.7184   -3.1476    0.0000 O   0  0  0  0  0  0  0  0  0  0  0  0
   -1.5574   -0.7500    0.0000 C   0  0  0  0  0  0  0  0  0  0  0  0
   -1.5574    0.7500    0.0000 C   0  0  0  0  0  0  0  0  0  0  0  0
   -0.3846    1.6852    0.0000 C   0  0  0  0  0  0  0  0  0  0  0  0
    3.4962    2.3006    0.0000 N   0  0  0  0  0  0  0  0  0  0  0  0
    4.0442    0.9043    0.0000 C   0  0  0  0  0  0  0  0  0  0  0  0
    5.5275    0.6808    0.0000 C   0  0  0  0  0  0  0  0  0  0  0  0
    6.4627    1.8535    0.0000 C   0  0  0  0  0  0  0  0  0  0  0  0
    7.9460    1.6299    0.0000 C   0  0  0  0  0  0  0  0  0  0  0  0
    8.4940    0.2336    0.0000 C   0  0  0  0  0  0  0  0  0  0  0  0
    9.9772    0.0101    0.0000 C   0  0  0  0  0  0  0  0  0  0  0  0
   10.9125    1.1828    0.0000 C   0  0  0  0  0  0  0  0  0  0  0  0
   10.3644    2.5791    0.0000 C   0  0  0  0  0  0  0  0  0  0  0  0
    8.8812    2.8027    0.0000 C   0  0  0  0  0  0  0  0  0  0  0  0
    5.9147    3.2498    0.0000 C   0  0  0  0  0  0  0  0  0  0  0  0
    4.4315    3.4734    0.0000 C   0  0  0  0  0  0  0  0  0  0  0  0
  1  2  2  0
  2  3  1  0
  3  4  2  0
  4  5  1  0
  5  6  2  0
  6  7  1  0
  6  8  1  0
  8  9  2  0
  9 10  1  0
  2 11  1  0
 11 12  1  0
 12 13  1  0
 13 14  1  0
 14 15  1  0
 15 16  2  0
 16 17  1  0
 17 18  2  0
 18 19  1  0
 19 20  2  0
 14 21  1  0
 21 22  1  0
 10  3  1  0
 22 11  1  0
 20 15  1  0
M  END
>  <Title>  (138) 
idAADJgen6

$$$$

     RDKit          2D

 46 51  0  0  0  0  0  0  0  0999 V2000
   12.3797    3.8503    0.0000 C   0  0  0  0  0  0  0  0  0  0  0  0
   11.9161    2.4237    0.0000 C   0  0  0  0  0  0  0  0  0  0  0  0
   11.4526    0.9972    0.0000 C   0  0  0  0  0  0  0  0  0  0  0  0
    9.9854    0.6853    0.0000 C   0  0  0  0  0  0  0  0  0  0  0  0
    9.5219   -0.7413    0.0000 C   0  0  0  0  0  0  0  0  0  0  0  0
   10.5256   -1.8560    0.0000 C   0  0  0  0  0  0  0  0  0  0  0  0
   10.0620   -3.2826    0.0000 C   0  0  0  0  0  0  0  0  0  0  0  0
   11.0657   -4.3973    0.0000 C   0  0  0  0  0  0  0  0  0  0  0  0
   10.6022   -5.8239    0.0000 C   0  0  0  0  0  0  0  0  0  0  0  0
    9.1350   -6.1358    0.0000 C   0  0  0  0  0  0  0  0  0  0  0  0
    8.1313   -5.0210    0.0000 C   0  0  0  0  0  0  0  0  0  0  0  0
    8.5948   -3.5945    0.0000 C   0  0  0  0  0  0  0  0  0  0  0  0
    7.5911   -2.4797    0.0000 C   0  0  0  0  0  0  0  0  0  0  0  0
    8.0546   -1.0532    0.0000 C   0  0  0  0  0  0  0  0  0  0  0  0
    7.0509    0.0616    0.0000 C   0  0  0  0  0  0  0  0  0  0  0  0
    7.5145    1.4881    0.0000 O   0  0  0  0  0  0  0  0  0  0  0  0
    5.5837   -0.2503    0.0000 C   0  0  0  0  0  0  0  0  0  0  0  0
    5.1202   -1.6769    0.0000 C   0  0  0  0  0  0  0  0  0  0  0  0
    6.1239   -2.7916    0.0000 C   0  0  0  0  0  0  0  0  0  0  0  0
    5.6604   -4.2182    0.0000 N   0  0  0  0  0  0  0  0  0  0  0  0
    6.5420   -5.4317    0.0000 N   0  0  0  0  0  0  0  0  0  0  0  0
    5.6604   -6.6452    0.0000 N   0  0  0  0  0  0  0  0  0  0  0  0
    4.2338   -6.1817    0.0000 N   0  0  0  0  0  0  0  0  0  0  0  0
    4.2338   -4.6817    0.0000 C   0  0  0  0  0  0  0  0  0  0  0  0
    3.0203   -3.8000    0.0000 N   0  0  0  0  0  0  0  0  0  0  0  0
    1.6499   -4.4102    0.0000 C   0  0  0  0  0  0  0  0  0  0  0  0
    1.4931   -5.9019    0.0000 O   0  0  0  0  0  0  0  0  0  0  0  0
    0.4364   -3.5285    0.0000 C   0  0  0  0  0  0  0  0  0  0  0  0
   -0.7771   -4.4102    0.0000 C   0  0  0  0  0  0  0  0  0  0  0  0
   -2.2771   -4.4102    0.0000 C   0  0  0  0  0  0  0  0  0  0  0  0
   -3.4906   -3.5285    0.0000 C   0  0  0  0  0  0  0  0  0  0  0  0
   -3.9542   -2.1019    0.0000 C   0  0  0  0  0  0  0  0  0  0  0  0
   -3.4906   -0.6753    0.0000 C   0  0  0  0  0  0  0  0  0  0  0  0
   -4.7042    0.2064    0.0000 C   0  0  0  0  0  0  0  0  0  0  0  0
   -2.2771    0.2064    0.0000 C   0  0  0  0  0  0  0  0  0  0  0  0
   -0.7771    0.2064    0.0000 C   0  0  0  0  0  0  0  0  0  0  0  0
    0.4364   -0.6753    0.0000 C   0  0  0  0  0  0  0  0  0  0  0  0
    0.8999   -2.1019    0.0000 C   0  0  0  0  0  0  0  0  0  0  0  0
   11.9928   -1.5441    0.0000 N   0  0  0  0  0  0  0  0  0  0  0  0
   12.9965   -2.6589    0.0000 C   0  0  0  0  0  0  0  0  0  0  0  0
   14.4637   -2.3470    0.0000 C   0  0  0  0  0  0  0  0  0  0  0  0
   15.4674   -3.4617    0.0000 C   0  0  0  0  0  0  0  0  0  0  0  0
   15.0039   -4.8883    0.0000 C   0  0  0  0  0  0  0  0  0  0  0  0
   13.5366   -5.2002    0.0000 C   0  0  0  0  0  0  0  0  0  0  0  0
   12.5330   -4.0854    0.0000 C   0  0  0  0  0  0  0  0  0  0  0  0
   12.4563   -0.1176    0.0000 O   0  0  0  0  0  0  0  0  0  0  0  0
  1  2  3  0
  2  3  1  0
  3  4  2  0
  4  5  1  0
  5  6  2  0
  6  7  1  0
  7  8  2  0
  8  9  1  0
  9 10  2  0
 10 11  1  0
 11 12  2  0
 12 13  1  0
 13 14  2  0
 14 15  1  0
 15 16  1  0
 15 17  2  0
 17 18  1  0
 18 19  2  0
 19 20  1  0
 20 21  1  0
 21 22  2  0
 22 23  1  0
 23 24  2  0
 24 25  1  0
 25 26  1  0
 26 27  2  0
 26 28  1  0
 28 29  1  0
 29 30  2  0
 30 31  1  0
 31 32  2  0
 32 33  1  0
 33 34  1  0
 33 35  1  0
 35 36  1  0
 36 37  1  0
 37 38  1  0
  6 39  1  0
 39 40  1  0
 40 41  2  0
 41 42  1  0
 42 43  2  0
 43 44  1  0
 44 45  2  0
 39 46  1  0
 46  3  1  0
 12  7  1  0
 19 13  1  0
 24 20  1  0
 38 28  1  0
 45 40  1  0
M  END
>  <Title>  (139) 
idAADKgen6

$$$$

     RDKit          2D

 53 58  0  0  0  0  0  0  0  0999 V2000
   10.7516   -1.5660    0.0000 C   0  0  0  0  0  0  0  0  0  0  0  0
    9.3027   -1.9542    0.0000 C   0  0  0  0  0  0  0  0  0  0  0  0
    8.2420   -0.8936    0.0000 O   0  0  0  0  0  0  0  0  0  0  0  0
    8.9145   -3.4031    0.0000 N   0  0  0  0  0  0  0  0  0  0  0  0
    7.4656   -3.7913    0.0000 C   0  0  0  0  0  0  0  0  0  0  0  0
    6.4049   -2.7307    0.0000 O   0  0  0  0  0  0  0  0  0  0  0  0
    7.0773   -5.2402    0.0000 C   0  0  0  0  0  0  0  0  0  0  0  0
    8.1380   -6.3009    0.0000 C   0  0  0  0  0  0  0  0  0  0  0  0
    9.5869   -5.9127    0.0000 C   0  0  0  0  0  0  0  0  0  0  0  0
   10.6476   -6.9733    0.0000 C   0  0  0  0  0  0  0  0  0  0  0  0
   12.0964   -6.5851    0.0000 C   0  0  0  0  0  0  0  0  0  0  0  0
   12.4847   -5.1362    0.0000 C   0  0  0  0  0  0  0  0  0  0  0  0
   13.9336   -4.7480    0.0000 N   0  0  0  0  0  0  0  0  0  0  0  0
   14.9942   -5.8086    0.0000 C   0  0  0  0  0  0  0  0  0  0  0  0
   16.4431   -5.4204    0.0000 C   0  0  0  0  0  0  0  0  0  0  0  0
   16.8313   -3.9715    0.0000 C   0  0  0  0  0  0  0  0  0  0  0  0
   18.2802   -3.5833    0.0000 C   0  0  0  0  0  0  0  0  0  0  0  0
   19.3409   -4.6440    0.0000 C   0  0  0  0  0  0  0  0  0  0  0  0
   20.7898   -4.2557    0.0000 C   0  0  0  0  0  0  0  0  0  0  0  0
   21.1780   -2.8068    0.0000 C   0  0  0  0  0  0  0  0  0  0  0  0
   20.1173   -1.7462    0.0000 C   0  0  0  0  0  0  0  0  0  0  0  0
   18.6685   -2.1344    0.0000 C   0  0  0  0  0  0  0  0  0  0  0  0
   15.7707   -2.9109    0.0000 C   0  0  0  0  0  0  0  0  0  0  0  0
   14.3218   -3.2991    0.0000 C   0  0  0  0  0  0  0  0  0  0  0  0
   11.4240   -4.0755    0.0000 C   0  0  0  0  0  0  0  0  0  0  0  0
    9.9751   -4.4638    0.0000 C   0  0  0  0  0  0  0  0  0  0  0  0
    5.6285   -5.6285    0.0000 N   0  0  0  0  0  0  0  0  0  0  0  0
    4.5678   -4.5678    0.0000 C   0  0  0  0  0  0  0  0  0  0  0  0
    4.9560   -3.1189    0.0000 O   0  0  0  0  0  0  0  0  0  0  0  0
    3.1189   -4.9560    0.0000 C   0  0  0  0  0  0  0  0  0  0  0  0
    2.7307   -6.4049    0.0000 C   0  0  0  0  0  0  0  0  0  0  0  0
    3.7913   -7.4656    0.0000 C   0  0  0  0  0  0  0  0  0  0  0  0
    3.4031   -8.9145    0.0000 C   0  0  0  0  0  0  0  0  0  0  0  0
    4.4638   -9.9751    0.0000 C   0  0  0  0  0  0  0  0  0  0  0  0
    5.9127   -9.5869    0.0000 C   0  0  0  0  0  0  0  0  0  0  0  0
    6.3009   -8.1380    0.0000 C   0  0  0  0  0  0  0  0  0  0  0  0
    5.2402   -7.0773    0.0000 C   0  0  0  0  0  0  0  0  0  0  0  0
    2.0583   -3.8954    0.0000 N   0  0  0  0  0  0  0  0  0  0  0  0
    2.4465   -2.4465    0.0000 C   0  0  0  0  0  0  0  0  0  0  0  0
    3.8954   -2.0583    0.0000 O   0  0  0  0  0  0  0  0  0  0  0  0
    1.3858   -1.3858    0.0000 N   0  0  0  0  0  0  0  0  0  0  0  0
    1.9598    0.0000    0.0000 C   0  0  0  0  0  0  0  0  0  0  0  0
    1.3858    1.3858    0.0000 C   0  0  0  0  0  0  0  0  0  0  0  0
    0.0000    1.9598    0.0000 C   0  0  0  0  0  0  0  0  0  0  0  0
   -1.3858    1.3858    0.0000 C   0  0  0  0  0  0  0  0  0  0  0  0
   -1.9598    0.0000    0.0000 C   0  0  0  0  0  0  0  0  0  0  0  0
   -1.3858   -1.3858    0.0000 C   0  0  0  0  0  0  0  0  0  0  0  0
   -0.0000   -1.9598    0.0000 C   0  0  0  0  0  0  0  0  0  0  0  0
   -2.8978    1.1834    0.0000 C   0  0  0  0  0  0  0  0  0  0  0  0
   -4.3467    0.7952    0.0000 O   0  0  0  0  0  0  0  0  0  0  0  0
   -2.5095    2.6323    0.0000 O   0  0  0  0  0  0  0  0  0  0  0  0
   -1.0607    3.0205    0.0000 C   0  0  0  0  0  0  0  0  0  0  0  0
   -0.6724    4.4694    0.0000 O   0  0  0  0  0  0  0  0  0  0  0  0
  1  2  1  0
  2  3  2  0
  2  4  1  0
  4  5  1  0
  5  6  2  0
  5  7  1  0
  7  8  1  0
  8  9  1  0
  9 10  2  0
 10 11  1  0
 11 12  2  0
 12 13  1  0
 13 14  1  0
 14 15  1  0
 15 16  1  0
 16 17  1  0
 17 18  2  0
 18 19  1  0
 19 20  2  0
 20 21  1  0
 21 22  2  0
 16 23  1  0
 23 24  1  0
 12 25  1  0
 25 26  1  0
  7 27  1  0
 27 28  1  0
 28 29  2  0
 28 30  1  0
 30 31  1  0
 31 32  1  0
 32 33  2  0
 33 34  1  0
 34 35  2  0
 35 36  1  0
 36 37  2  0
 30 38  1  0
 38 39  1  0
 39 40  2  0
 39 41  1  0
 41 42  1  0
 42 43  2  0
 43 44  1  0
 44 45  1  0
 45 46  1  0
 46 47  1  0
 47 48  1  0
 46 49  1  0
 49 50  2  0
 49 51  1  0
 51 52  1  0
 52 53  2  0
 26  9  1  0
 37 32  1  0
 48 41  1  0
 24 13  1  0
 52 44  1  0
 22 17  1  0
M  END
>  <Title>  (140) 
idAADLgen6

$$$$

     RDKit          2D

 22 24  0  0  0  0  0  0  0  0999 V2000
   10.0355    0.6881    0.0000 C   0  0  0  0  0  0  0  0  0  0  0  0
    8.5683    0.3762    0.0000 C   0  0  0  0  0  0  0  0  0  0  0  0
    7.4536    1.3799    0.0000 C   0  0  0  0  0  0  0  0  0  0  0  0
    6.1545    0.6299    0.0000 C   0  0  0  0  0  0  0  0  0  0  0  0
    6.4664   -0.8373    0.0000 C   0  0  0  0  0  0  0  0  0  0  0  0
    5.4627   -1.9520    0.0000 C   0  0  0  0  0  0  0  0  0  0  0  0
    5.9262   -3.3786    0.0000 O   0  0  0  0  0  0  0  0  0  0  0  0
    3.9955   -1.6402    0.0000 N   0  0  0  0  0  0  0  0  0  0  0  0
    2.9918   -2.7549    0.0000 C   0  0  0  0  0  0  0  0  0  0  0  0
    3.3037   -4.2221    0.0000 N   0  0  0  0  0  0  0  0  0  0  0  0
    2.0046   -4.9721    0.0000 N   0  0  0  0  0  0  0  0  0  0  0  0
    0.8899   -3.9684    0.0000 N   0  0  0  0  0  0  0  0  0  0  0  0
    1.5000   -2.5981    0.0000 N   0  0  0  0  0  0  0  0  0  0  0  0
    0.7500   -1.2990    0.0000 C   0  0  0  0  0  0  0  0  0  0  0  0
    1.5000    0.0000    0.0000 C   0  0  0  0  0  0  0  0  0  0  0  0
    0.7500    1.2990    0.0000 C   0  0  0  0  0  0  0  0  0  0  0  0
   -0.7500    1.2990    0.0000 C   0  0  0  0  0  0  0  0  0  0  0  0
   -1.5000    2.5981    0.0000 C   0  0  0  0  0  0  0  0  0  0  0  0
   -2.2500    3.8971    0.0000 N   0  0  0  0  0  0  0  0  0  0  0  0
   -1.5000    0.0000    0.0000 C   0  0  0  0  0  0  0  0  0  0  0  0
   -0.7500   -1.2990    0.0000 C   0  0  0  0  0  0  0  0  0  0  0  0
    7.9582   -0.9941    0.0000 C   0  0  0  0  0  0  0  0  0  0  0  0
  1  2  1  0
  2  3  1  0
  3  4  2  0
  4  5  1  0
  5  6  1  0
  6  7  2  0
  6  8  1  0
  8  9  1  0
  9 10  2  0
 10 11  1  0
 11 12  2  0
 12 13  1  0
 13 14  1  0
 14 15  2  0
 15 16  1  0
 16 17  2  0
 17 18  1  0
 18 19  3  0
 17 20  1  0
 20 21  2  0
  5 22  2  0
 22  2  1  0
 13  9  1  0
 21 14  1  0
M  END
>  <Title>  (141) 
idAADMgen6

$$$$

     RDKit          2D

 27 30  0  0  0  0  0  0  0  0999 V2000
    3.0000   -2.5981    0.0000 O   0  0  0  0  0  0  0  0  0  0  0  0
    1.5000   -2.5981    0.0000 C   0  0  0  0  0  0  0  0  0  0  0  0
    0.7500   -3.8971    0.0000 O   0  0  0  0  0  0  0  0  0  0  0  0
    1.5000   -5.1962    0.0000 C   0  0  0  0  0  0  0  0  0  0  0  0
    2.9918   -5.3529    0.0000 C   0  0  0  0  0  0  0  0  0  0  0  0
    3.3037   -6.8202    0.0000 C   0  0  0  0  0  0  0  0  0  0  0  0
    2.0046   -7.5702    0.0000 C   0  0  0  0  0  0  0  0  0  0  0  0
    1.8478   -9.0619    0.0000 C   0  0  0  0  0  0  0  0  0  0  0  0
    2.9625  -10.0656    0.0000 C   0  0  0  0  0  0  0  0  0  0  0  0
    2.3524  -11.4360    0.0000 N   0  0  0  0  0  0  0  0  0  0  0  0
    3.1024  -12.7350    0.0000 C   0  0  0  0  0  0  0  0  0  0  0  0
    4.6024  -12.7350    0.0000 O   0  0  0  0  0  0  0  0  0  0  0  0
    2.3524  -14.0340    0.0000 N   0  0  0  0  0  0  0  0  0  0  0  0
    3.1024  -15.3331    0.0000 C   0  0  0  0  0  0  0  0  0  0  0  0
    4.5942  -15.4899    0.0000 C   0  0  0  0  0  0  0  0  0  0  0  0
    4.9061  -16.9571    0.0000 C   0  0  0  0  0  0  0  0  0  0  0  0
    3.6070  -17.7071    0.0000 C   0  0  0  0  0  0  0  0  0  0  0  0
    2.4923  -16.7034    0.0000 C   0  0  0  0  0  0  0  0  0  0  0  0
    0.8606  -11.2792    0.0000 C   0  0  0  0  0  0  0  0  0  0  0  0
    0.5488   -9.8119    0.0000 C   0  0  0  0  0  0  0  0  0  0  0  0
    0.8899   -6.5665    0.0000 C   0  0  0  0  0  0  0  0  0  0  0  0
    0.7500   -1.2990    0.0000 C   0  0  0  0  0  0  0  0  0  0  0  0
    1.5000    0.0000    0.0000 C   0  0  0  0  0  0  0  0  0  0  0  0
    0.7500    1.2990    0.0000 C   0  0  0  0  0  0  0  0  0  0  0  0
   -0.7500    1.2990    0.0000 C   0  0  0  0  0  0  0  0  0  0  0  0
   -1.5000    0.0000    0.0000 C   0  0  0  0  0  0  0  0  0  0  0  0
   -0.7500   -1.2990    0.0000 C   0  0  0  0  0  0  0  0  0  0  0  0
  1  2  2  0
  2  3  1  0
  3  4  1  0
  4  5  1  0
  5  6  1  0
  6  7  1  0
  7  8  1  0
  8  9  2  0
  9 10  1  0
 10 11  1  0
 11 12  2  0
 11 13  1  0
 13 14  1  0
 14 15  2  0
 15 16  1  0
 16 17  2  0
 17 18  1  0
 10 19  1  0
 19 20  1  0
  7 21  1  0
  2 22  1  0
 22 23  2  0
 23 24  1  0
 24 25  2  0
 25 26  1  0
 26 27  2  0
 21  4  1  0
 27 22  1  0
 20  8  1  0
 18 14  1  0
M  END
>  <Title>  (142) 
idAADNgen6

$$$$

     RDKit          2D

 39 39  0  0  0  0  0  0  0  0999 V2000
    9.3206    0.0000    0.0000 C   0  0  0  0  0  0  0  0  0  0  0  0
    9.1999    1.4951    0.0000 C   0  0  0  0  0  0  0  0  0  0  0  0
    8.8410    2.9515    0.0000 C   0  0  0  0  0  0  0  0  0  0  0  0
    8.2530    4.3315    0.0000 C   0  0  0  0  0  0  0  0  0  0  0  0
    7.4513    5.5993    0.0000 C   0  0  0  0  0  0  0  0  0  0  0  0
    6.4566    6.7221    0.0000 C   0  0  0  0  0  0  0  0  0  0  0  0
    5.2947    7.6707    0.0000 C   0  0  0  0  0  0  0  0  0  0  0  0
    3.9957    8.4207    0.0000 C   0  0  0  0  0  0  0  0  0  0  0  0
    2.5932    8.9526    0.0000 C   0  0  0  0  0  0  0  0  0  0  0  0
    1.1235    9.2527    0.0000 C   0  0  0  0  0  0  0  0  0  0  0  0
   -0.3753    9.3131    0.0000 C   0  0  0  0  0  0  0  0  0  0  0  0
   -1.8644    9.1323    0.0000 C   0  0  0  0  0  0  0  0  0  0  0  0
   -3.3051    8.7150    0.0000 C   0  0  0  0  0  0  0  0  0  0  0  0
   -4.6603    8.0719    0.0000 C   0  0  0  0  0  0  0  0  0  0  0  0
   -5.8948    7.2198    0.0000 C   0  0  0  0  0  0  0  0  0  0  0  0
   -6.9766    6.1807    0.0000 C   0  0  0  0  0  0  0  0  0  0  0  0
   -7.8777    4.9816    0.0000 C   0  0  0  0  0  0  0  0  0  0  0  0
   -8.5748    3.6534    0.0000 C   0  0  0  0  0  0  0  0  0  0  0  0
   -9.0498    2.2306    0.0000 C   0  0  0  0  0  0  0  0  0  0  0  0
   -9.2904    0.7500    0.0000 C   0  0  0  0  0  0  0  0  0  0  0  0
   -9.2904   -0.7500    0.0000 C   0  0  0  0  0  0  0  0  0  0  0  0
   -9.0498   -2.2306    0.0000 C   0  0  0  0  0  0  0  0  0  0  0  0
   -8.5748   -3.6534    0.0000 C   0  0  0  0  0  0  0  0  0  0  0  0
   -7.8777   -4.9816    0.0000 C   0  0  0  0  0  0  0  0  0  0  0  0
   -6.9766   -6.1807    0.0000 C   0  0  0  0  0  0  0  0  0  0  0  0
   -5.8948   -7.2198    0.0000 C   0  0  0  0  0  0  0  0  0  0  0  0
   -4.6603   -8.0719    0.0000 C   0  0  0  0  0  0  0  0  0  0  0  0
   -3.3051   -8.7150    0.0000 C   0  0  0  0  0  0  0  0  0  0  0  0
   -1.8644   -9.1323    0.0000 C   0  0  0  0  0  0  0  0  0  0  0  0
   -0.3753   -9.3131    0.0000 C   0  0  0  0  0  0  0  0  0  0  0  0
    1.1235   -9.2527    0.0000 C   0  0  0  0  0  0  0  0  0  0  0  0
    2.5932   -8.9526    0.0000 C   0  0  0  0  0  0  0  0  0  0  0  0
    3.9957   -8.4207    0.0000 C   0  0  0  0  0  0  0  0  0  0  0  0
    5.2947   -7.6707    0.0000 C   0  0  0  0  0  0  0  0  0  0  0  0
    6.4566   -6.7221    0.0000 C   0  0  0  0  0  0  0  0  0  0  0  0
    7.4513   -5.5993    0.0000 C   0  0  0  0  0  0  0  0  0  0  0  0
    8.2530   -4.3315    0.0000 C   0  0  0  0  0  0  0  0  0  0  0  0
    8.8410   -2.9515    0.0000 C   0  0  0  0  0  0  0  0  0  0  0  0
    9.1999   -1.4951    0.0000 C   0  0  0  0  0  0  0  0  0  0  0  0
  1  2  2  0
  2  3  1  0
  3  4  1  0
  4  5  1  0
  5  6  1  0
  6  7  1  0
  7  8  1  0
  8  9  1  0
  9 10  1  0
 10 11  1  0
 11 12  1  0
 12 13  1  0
 13 14  1  0
 14 15  1  0
 15 16  1  0
 16 17  1  0
 17 18  1  0
 18 19  1  0
 19 20  1  0
 20 21  1  0
 21 22  1  0
 22 23  1  0
 23 24  1  0
 24 25  1  0
 25 26  1  0
 26 27  1  0
 27 28  1  0
 28 29  1  0
 29 30  1  0
 30 31  1  0
 31 32  1  0
 32 33  1  0
 33 34  1  0
 34 35  1  0
 35 36  1  0
 36 37  1  0
 37 38  1  0
 38 39  1  0
 39  1  1  0
M  END
>  <Title>  (143) 
idAADOgen6

$$$$

     RDKit          2D

  6  5  0  0  0  0  0  0  0  0999 V2000
    0.0000    0.0000    0.0000 C   0  0  0  0  0  0  0  0  0  0  0  0
   -0.0000   -1.5000    0.0000 C   0  0  0  0  0  0  0  0  0  0  0  0
   -0.0000   -3.0000    0.0000 C   0  0  0  0  0  0  0  0  0  0  0  0
   -1.5000   -3.0000    0.0000 C   0  0  0  0  0  0  0  0  0  0  0  0
    1.5000   -3.0000    0.0000 C   0  0  0  0  0  0  0  0  0  0  0  0
   -0.0000   -4.5000    0.0000 N   0  0  0  0  0  0  0  0  0  0  0  0
  1  2  3  0
  2  3  1  0
  3  4  1  0
  3  5  1  0
  3  6  1  0
M  END
>  <Title>  (144) 
idAADPgen6

$$$$

     RDKit          2D

 13 14  0  0  0  0  0  0  0  0999 V2000
    4.2098   -1.2990    0.0000 C   0  0  0  0  0  0  0  0  0  0  0  0
    3.4598   -0.0000    0.0000 O   0  0  0  0  0  0  0  0  0  0  0  0
    1.9598    0.0000    0.0000 C   0  0  0  0  0  0  0  0  0  0  0  0
    1.3858   -1.3858    0.0000 C   0  0  0  0  0  0  0  0  0  0  0  0
   -0.0000   -1.9598    0.0000 C   0  0  0  0  0  0  0  0  0  0  0  0
   -1.3858   -1.3858    0.0000 C   0  0  0  0  0  0  0  0  0  0  0  0
   -2.7716   -1.9598    0.0000 C   0  0  0  0  0  0  0  0  0  0  0  0
   -3.3457   -3.3457    0.0000 O   0  0  0  0  0  0  0  0  0  0  0  0
   -3.3457   -0.5740    0.0000 O   0  0  0  0  0  0  0  0  0  0  0  0
   -1.9598    0.0000    0.0000 C   0  0  0  0  0  0  0  0  0  0  0  0
   -1.3858    1.3858    0.0000 N   0  0  0  0  0  0  0  0  0  0  0  0
    0.0000    1.9598    0.0000 N   0  0  0  0  0  0  0  0  0  0  0  0
    1.3858    1.3858    0.0000 N   0  0  0  0  0  0  0  0  0  0  0  0
  1  2  1  0
  2  3  1  0
  3  4  2  0
  4  5  1  0
  5  6  2  0
  6  7  1  0
  7  8  2  0
  7  9  1  0
  9 10  1  0
 10 11  2  0
 11 12  1  0
 12 13  2  0
 13  3  1  0
 10  6  1  0
M  END
>  <Title>  (145) 
idAADQgen6

$$$$

     RDKit          2D

 59 63  0  0  0  0  0  0  0  0999 V2000
    2.5752    2.6031    0.0000 C   0  0  0  0  0  0  0  0  0  0  0  0
    1.4605    3.6068    0.0000 C   0  0  0  0  0  0  0  0  0  0  0  0
    1.7724    5.0740    0.0000 C   0  0  0  0  0  0  0  0  0  0  0  0
    3.1990    5.5375    0.0000 O   0  0  0  0  0  0  0  0  0  0  0  0
    0.0339    3.1433    0.0000 N   0  0  0  0  0  0  0  0  0  0  0  0
   -1.0808    4.1470    0.0000 C   0  0  0  0  0  0  0  0  0  0  0  0
   -0.7689    5.6142    0.0000 O   0  0  0  0  0  0  0  0  0  0  0  0
   -2.5074    3.6834    0.0000 C   0  0  0  0  0  0  0  0  0  0  0  0
   -3.6221    4.6871    0.0000 N   0  0  0  0  0  0  0  0  0  0  0  0
   -5.0487    4.2236    0.0000 C   0  0  0  0  0  0  0  0  0  0  0  0
   -5.3605    2.7564    0.0000 O   0  0  0  0  0  0  0  0  0  0  0  0
   -6.1634    5.2273    0.0000 C   0  0  0  0  0  0  0  0  0  0  0  0
   -5.8515    6.6945    0.0000 C   0  0  0  0  0  0  0  0  0  0  0  0
   -4.4249    7.1580    0.0000 C   0  0  0  0  0  0  0  0  0  0  0  0
   -3.3102    6.1544    0.0000 C   0  0  0  0  0  0  0  0  0  0  0  0
   -1.8836    6.6179    0.0000 C   0  0  0  0  0  0  0  0  0  0  0  0
   -1.5718    8.0851    0.0000 C   0  0  0  0  0  0  0  0  0  0  0  0
   -0.1452    8.5486    0.0000 O   0  0  0  0  0  0  0  0  0  0  0  0
   -2.6865    9.0888    0.0000 C   0  0  0  0  0  0  0  0  0  0  0  0
   -4.1131    8.6253    0.0000 C   0  0  0  0  0  0  0  0  0  0  0  0
   -7.5900    4.7638    0.0000 N   0  0  0  0  0  0  0  0  0  0  0  0
   -7.9018    3.2966    0.0000 C   0  0  0  0  0  0  0  0  0  0  0  0
   -6.7871    2.2929    0.0000 O   0  0  0  0  0  0  0  0  0  0  0  0
   -9.3284    2.8330    0.0000 C   0  0  0  0  0  0  0  0  0  0  0  0
  -10.4431    3.8367    0.0000 C   0  0  0  0  0  0  0  0  0  0  0  0
  -10.1313    5.3039    0.0000 C   0  0  0  0  0  0  0  0  0  0  0  0
   -8.7047    5.7675    0.0000 C   0  0  0  0  0  0  0  0  0  0  0  0
   -8.3928    7.2347    0.0000 C   0  0  0  0  0  0  0  0  0  0  0  0
   -9.5075    8.2384    0.0000 C   0  0  0  0  0  0  0  0  0  0  0  0
  -10.9341    7.7749    0.0000 C   0  0  0  0  0  0  0  0  0  0  0  0
  -11.2460    6.3076    0.0000 C   0  0  0  0  0  0  0  0  0  0  0  0
   -9.6403    1.3658    0.0000 N   0  0  0  0  0  0  0  0  0  0  0  0
   -8.5256    0.3621    0.0000 C   0  0  0  0  0  0  0  0  0  0  0  0
   -7.0990    0.8256    0.0000 O   0  0  0  0  0  0  0  0  0  0  0  0
   -8.8374   -1.1051    0.0000 C   0  0  0  0  0  0  0  0  0  0  0  0
   -7.7227   -2.1088    0.0000 C   0  0  0  0  0  0  0  0  0  0  0  0
   -6.2961   -1.6453    0.0000 C   0  0  0  0  0  0  0  0  0  0  0  0
   -5.9843   -0.1781    0.0000 O   0  0  0  0  0  0  0  0  0  0  0  0
   -5.1814   -2.6490    0.0000 N   0  0  0  0  0  0  0  0  0  0  0  0
   -3.7548   -2.1855    0.0000 C   0  0  0  0  0  0  0  0  0  0  0  0
   -3.4430   -0.7182    0.0000 O   0  0  0  0  0  0  0  0  0  0  0  0
   -2.6401   -3.1891    0.0000 C   0  0  0  0  0  0  0  0  0  0  0  0
   -1.2135   -2.7256    0.0000 N   0  0  0  0  0  0  0  0  0  0  0  0
   -0.0000   -3.6073    0.0000 C   0  0  0  0  0  0  0  0  0  0  0  0
    0.0000   -5.1073    0.0000 O   0  0  0  0  0  0  0  0  0  0  0  0
    1.2135   -2.7256    0.0000 O   0  0  0  0  0  0  0  0  0  0  0  0
    0.7500   -1.2990    0.0000 C   0  0  0  0  0  0  0  0  0  0  0  0
    1.5000    0.0000    0.0000 C   0  0  0  0  0  0  0  0  0  0  0  0
    0.7500    1.2990    0.0000 C   0  0  0  0  0  0  0  0  0  0  0  0
   -0.7500    1.2990    0.0000 C   0  0  0  0  0  0  0  0  0  0  0  0
   -1.5000    0.0000    0.0000 C   0  0  0  0  0  0  0  0  0  0  0  0
   -0.7500   -1.2990    0.0000 C   0  0  0  0  0  0  0  0  0  0  0  0
  -10.2640   -1.5686    0.0000 C   0  0  0  0  0  0  0  0  0  0  0  0
  -11.3787   -0.5649    0.0000 C   0  0  0  0  0  0  0  0  0  0  0  0
  -11.0669    0.9023    0.0000 C   0  0  0  0  0  0  0  0  0  0  0  0
  -12.1816    1.9060    0.0000 C   0  0  0  0  0  0  0  0  0  0  0  0
  -13.6082    1.4425    0.0000 C   0  0  0  0  0  0  0  0  0  0  0  0
  -13.9200   -0.0248    0.0000 C   0  0  0  0  0  0  0  0  0  0  0  0
  -12.8053   -1.0285    0.0000 C   0  0  0  0  0  0  0  0  0  0  0  0
  1  2  1  0
  2  3  1  0
  3  4  1  0
  2  5  1  0
  5  6  1  0
  6  7  2  0
  6  8  1  0
  8  9  1  0
  9 10  1  0
 10 11  2  0
 10 12  1  0
 12 13  1  0
 13 14  1  0
 14 15  2  0
 15 16  1  0
 16 17  2  0
 17 18  1  0
 17 19  1  0
 19 20  2  0
 12 21  1  0
 21 22  1  0
 22 23  2  0
 22 24  1  0
 24 25  1  0
 25 26  1  0
 26 27  2  0
 27 28  1  0
 28 29  2  0
 29 30  1  0
 30 31  2  0
 24 32  1  0
 32 33  1  0
 33 34  2  0
 33 35  1  0
 35 36  1  0
 36 37  1  0
 37 38  2  0
 37 39  1  0
 39 40  1  0
 40 41  2  0
 40 42  1  0
 42 43  1  0
 43 44  1  0
 44 45  2  0
 44 46  1  0
 46 47  1  0
 47 48  2  0
 48 49  1  0
 49 50  2  0
 50 51  1  0
 51 52  2  0
 35 53  1  0
 53 54  1  0
 54 55  2  0
 55 56  1  0
 56 57  2  0
 57 58  1  0
 58 59  2  0
 20 14  1  0
 31 26  1  0
 52 43  1  0
 59 54  1  0
 52 47  1  0
M  END
>  <Title>  (146) 
idAADRgen6

$$$$

     RDKit          2D

 27 29  0  0  0  0  0  0  0  0999 V2000
   -6.0000   -5.1962    0.0000 C   0  0  0  0  0  0  0  0  0  0  0  0
   -5.2500   -3.8971    0.0000 C   0  0  0  0  0  0  0  0  0  0  0  0
   -3.7500   -3.8971    0.0000 N   0  0  0  0  0  0  0  0  0  0  0  0
   -3.0000   -2.5981    0.0000 C   0  0  0  0  0  0  0  0  0  0  0  0
   -3.7500   -1.2990    0.0000 O   0  0  0  0  0  0  0  0  0  0  0  0
   -1.5000   -2.5981    0.0000 C   0  0  0  0  0  0  0  0  0  0  0  0
   -0.7500   -3.8971    0.0000 C   0  0  0  0  0  0  0  0  0  0  0  0
    0.7500   -3.8971    0.0000 C   0  0  0  0  0  0  0  0  0  0  0  0
    1.5000   -2.5981    0.0000 C   0  0  0  0  0  0  0  0  0  0  0  0
    3.0000   -2.5981    0.0000 C   0  0  0  0  0  0  0  0  0  0  0  0
    3.7500   -1.2990    0.0000 O   0  0  0  0  0  0  0  0  0  0  0  0
    3.7500   -3.8971    0.0000 N   0  0  0  0  0  0  0  0  0  0  0  0
    5.2500   -3.8971    0.0000 C   0  0  0  0  0  0  0  0  0  0  0  0
    6.0000   -5.1962    0.0000 N   0  0  0  0  0  0  0  0  0  0  0  0
    7.5000   -5.1962    0.0000 N   0  0  0  0  0  0  0  0  0  0  0  0
    8.2500   -3.8971    0.0000 N   0  0  0  0  0  0  0  0  0  0  0  0
    7.5000   -2.5981    0.0000 N   0  0  0  0  0  0  0  0  0  0  0  0
    6.0000   -2.5981    0.0000 N   0  0  0  0  0  0  0  0  0  0  0  0
    0.7500   -1.2990    0.0000 C   0  0  0  0  0  0  0  0  0  0  0  0
    1.5000    0.0000    0.0000 C   0  0  0  0  0  0  0  0  0  0  0  0
    0.7500    1.2990    0.0000 C   0  0  0  0  0  0  0  0  0  0  0  0
   -0.7500    1.2990    0.0000 C   0  0  0  0  0  0  0  0  0  0  0  0
   -1.5000    0.0000    0.0000 C   0  0  0  0  0  0  0  0  0  0  0  0
   -0.7500   -1.2990    0.0000 C   0  0  0  0  0  0  0  0  0  0  0  0
   -6.0000   -2.5981    0.0000 C   0  0  0  0  0  0  0  0  0  0  0  0
   -5.2500   -1.2990    0.0000 O   0  0  0  0  0  0  0  0  0  0  0  0
   -7.5000   -2.5981    0.0000 O   0  0  0  0  0  0  0  0  0  0  0  0
  1  2  1  0
  2  3  1  0
  3  4  1  0
  4  5  2  0
  4  6  1  0
  6  7  1  0
  7  8  2  0
  8  9  1  0
  9 10  1  0
 10 11  2  0
 10 12  1  0
 12 13  1  0
 13 14  2  0
 14 15  1  0
 15 16  2  0
 16 17  1  0
 17 18  2  0
  9 19  1  0
 19 20  2  0
 20 21  1  0
 21 22  2  0
 22 23  1  0
 23 24  2  0
  2 25  1  0
 25 26  2  0
 25 27  1  0
 24  6  1  0
 18 13  1  0
 24 19  1  0
M  END
>  <Title>  (147) 
idAADSgen6

$$$$

     RDKit          2D

 23 26  0  0  0  0  0  0  0  0999 V2000
   -0.0502    7.4364    0.0000 C   0  0  0  0  0  0  0  0  0  0  0  0
   -0.4316    5.9857    0.0000 C   0  0  0  0  0  0  0  0  0  0  0  0
    0.8530    5.2111    0.0000 C   0  0  0  0  0  0  0  0  0  0  0  0
    1.5148    3.8650    0.0000 C   0  0  0  0  0  0  0  0  0  0  0  0
    1.3438    2.3747    0.0000 C   0  0  0  0  0  0  0  0  0  0  0  0
    0.3943    1.2135    0.0000 C   0  0  0  0  0  0  0  0  0  0  0  0
    1.2760    0.0000    0.0000 C   0  0  0  0  0  0  0  0  0  0  0  0
    0.3943   -1.2135    0.0000 C   0  0  0  0  0  0  0  0  0  0  0  0
   -1.0323   -0.7500    0.0000 C   0  0  0  0  0  0  0  0  0  0  0  0
   -1.0323    0.7500    0.0000 C   0  0  0  0  0  0  0  0  0  0  0  0
   -2.4830    1.1313    0.0000 C   0  0  0  0  0  0  0  0  0  0  0  0
   -3.4973    2.2364    0.0000 C   0  0  0  0  0  0  0  0  0  0  0  0
   -3.7531    3.7145    0.0000 C   0  0  0  0  0  0  0  0  0  0  0  0
   -3.1691    5.0962    0.0000 C   0  0  0  0  0  0  0  0  0  0  0  0
   -1.9309    5.9428    0.0000 C   0  0  0  0  0  0  0  0  0  0  0  0
   -3.4150    2.1172    0.0000 N   0  0  0  0  0  0  0  0  0  0  0  0
   -5.2489    0.9533    0.0000 C   0  0  0  0  0  0  0  0  0  0  0  0
   -5.5047   -0.5247    0.0000 C   0  0  0  0  0  0  0  0  0  0  0  0
   -6.9894   -0.7382    0.0000 C   0  0  0  0  0  0  0  0  0  0  0  0
   -7.6513    0.6079    0.0000 C   0  0  0  0  0  0  0  0  0  0  0  0
   -9.1293    0.8637    0.0000 C   0  0  0  0  0  0  0  0  0  0  0  0
   -6.5756    1.6533    0.0000 C   0  0  0  0  0  0  0  0  0  0  0  0
   -6.7890    3.1381    0.0000 O   0  0  0  0  0  0  0  0  0  0  0  0
  1  2  1  0
  2  3  2  0
  3  4  1  0
  4  5  1  0
  5  6  1  0
  6  7  1  0
  7  8  1  0
  8  9  1  0
  9 10  1  0
 10 11  1  0
 11 12  1  0
 12 13  1  0
 13 14  1  0
 14 15  1  0
 13 16  1  0
 16 17  1  0
 17 18  2  0
 18 19  1  0
 19 20  2  0
 20 21  1  0
 20 22  1  0
 22 23  2  0
 15  2  1  0
 22 17  1  0
 10  6  1  0
 16 11  1  0
M  END
>  <Title>  (148) 
idAADTgen6

$$$$

     RDKit          2D

 21 22  0  0  0  0  0  0  0  0999 V2000
    3.7500   -6.4952    0.0000 C   0  0  0  0  0  0  0  0  0  0  0  0
    3.0000   -5.1962    0.0000 C   0  0  0  0  0  0  0  0  0  0  0  0
    3.7500   -3.8971    0.0000 O   0  0  0  0  0  0  0  0  0  0  0  0
    1.5000   -5.1962    0.0000 C   0  0  0  0  0  0  0  0  0  0  0  0
    0.7500   -6.4952    0.0000 C   0  0  0  0  0  0  0  0  0  0  0  0
    1.5000   -7.7942    0.0000 C   0  0  0  0  0  0  0  0  0  0  0  0
    2.9918   -7.9510    0.0000 C   0  0  0  0  0  0  0  0  0  0  0  0
    3.3037   -9.4182    0.0000 C   0  0  0  0  0  0  0  0  0  0  0  0
    2.0046  -10.1682    0.0000 C   0  0  0  0  0  0  0  0  0  0  0  0
    1.8478  -11.6600    0.0000 O   0  0  0  0  0  0  0  0  0  0  0  0
    0.8899   -9.1645    0.0000 C   0  0  0  0  0  0  0  0  0  0  0  0
   -0.5773   -9.4764    0.0000 O   0  0  0  0  0  0  0  0  0  0  0  0
    0.7500   -3.8971    0.0000 N   0  0  0  0  0  0  0  0  0  0  0  0
    1.5000   -2.5981    0.0000 C   0  0  0  0  0  0  0  0  0  0  0  0
    3.0000   -2.5981    0.0000 O   0  0  0  0  0  0  0  0  0  0  0  0
    0.7500   -1.2990    0.0000 C   0  0  0  0  0  0  0  0  0  0  0  0
    1.5000    0.0000    0.0000 C   0  0  0  0  0  0  0  0  0  0  0  0
    0.7500    1.2990    0.0000 C   0  0  0  0  0  0  0  0  0  0  0  0
   -0.7500    1.2990    0.0000 C   0  0  0  0  0  0  0  0  0  0  0  0
   -1.5000    0.0000    0.0000 C   0  0  0  0  0  0  0  0  0  0  0  0
   -0.7500   -1.2990    0.0000 C   0  0  0  0  0  0  0  0  0  0  0  0
  1  2  1  0
  2  3  2  0
  2  4  1  0
  4  5  1  0
  5  6  1  0
  6  7  2  0
  7  8  1  0
  8  9  2  0
  9 10  1  0
  9 11  1  0
 11 12  2  0
  4 13  1  0
 13 14  1  0
 14 15  2  0
 14 16  1  0
 16 17  2  0
 17 18  1  0
 18 19  2  0
 19 20  1  0
 20 21  2  0
 11  6  1  0
 21 16  1  0
M  END
>  <Title>  (149) 
idAADUgen6

$$$$

     RDKit          2D

 12 12  0  0  0  0  0  0  0  0999 V2000
    5.7760   -2.5981    0.0000 C   0  0  0  0  0  0  0  0  0  0  0  0
    5.0260   -1.2990    0.0000 C   0  0  0  0  0  0  0  0  0  0  0  0
    5.7760    0.0000    0.0000 O   0  0  0  0  0  0  0  0  0  0  0  0
    3.5260   -1.2990    0.0000 O   0  0  0  0  0  0  0  0  0  0  0  0
    2.7760    0.0000    0.0000 C   0  0  0  0  0  0  0  0  0  0  0  0
    3.5260    1.2990    0.0000 O   0  0  0  0  0  0  0  0  0  0  0  0
    1.2760    0.0000    0.0000 C   0  0  0  0  0  0  0  0  0  0  0  0
    0.3943    1.2135    0.0000 C   0  0  0  0  0  0  0  0  0  0  0  0
   -1.0323    0.7500    0.0000 C   0  0  0  0  0  0  0  0  0  0  0  0
   -1.0323   -0.7500    0.0000 C   0  0  0  0  0  0  0  0  0  0  0  0
   -2.2458   -1.6317    0.0000 O   0  0  0  0  0  0  0  0  0  0  0  0
    0.3943   -1.2135    0.0000 N   0  0  0  0  0  0  0  0  0  0  0  0
  1  2  1  0
  2  3  2  0
  2  4  1  0
  4  5  1  0
  5  6  2  0
  5  7  1  0
  7  8  1  0
  8  9  1  0
  9 10  1  0
 10 11  2  0
 10 12  1  0
 12  7  1  0
M  END
>  <Title>  (150) 
idAADVgen6

$$$$

     RDKit          2D

  7  7  0  0  0  0  0  0  0  0999 V2000
    2.7760    0.0000    0.0000 C   0  0  0  0  0  0  0  0  0  0  0  0
    1.2760    0.0000    0.0000 C   0  0  0  0  0  0  0  0  0  0  0  0
    0.3943    1.2135    0.0000 C   0  0  0  0  0  0  0  0  0  0  0  0
   -1.0323    0.7500    0.0000 C   0  0  0  0  0  0  0  0  0  0  0  0
   -1.0323   -0.7500    0.0000 C   0  0  0  0  0  0  0  0  0  0  0  0
   -2.2458   -1.6317    0.0000 O   0  0  0  0  0  0  0  0  0  0  0  0
    0.3943   -1.2135    0.0000 C   0  0  0  0  0  0  0  0  0  0  0  0
  1  2  1  0
  2  3  1  0
  3  4  1  0
  4  5  1  0
  5  6  1  0
  5  7  1  0
  7  2  1  0
M  END
>  <Title>  (151) 
idAADWgen6

$$$$

     RDKit          2D

 23 25  0  0  0  0  0  0  0  0999 V2000
    4.1679   -3.2376    0.0000 C   0  0  0  0  0  0  0  0  0  0  0  0
    3.1476   -2.1380    0.0000 C   0  0  0  0  0  0  0  0  0  0  0  0
    1.6852   -2.4718    0.0000 C   0  0  0  0  0  0  0  0  0  0  0  0
    0.7500   -1.2990    0.0000 C   0  0  0  0  0  0  0  0  0  0  0  0
    1.5000    0.0000    0.0000 C   0  0  0  0  0  0  0  0  0  0  0  0
    0.7500    1.2990    0.0000 C   0  0  0  0  0  0  0  0  0  0  0  0
   -0.7500    1.2990    0.0000 C   0  0  0  0  0  0  0  0  0  0  0  0
   -1.5000    0.0000    0.0000 C   0  0  0  0  0  0  0  0  0  0  0  0
   -0.7500   -1.2990    0.0000 C   0  0  0  0  0  0  0  0  0  0  0  0
   -1.6852   -2.4718    0.0000 C   0  0  0  0  0  0  0  0  0  0  0  0
   -3.1476   -2.1380    0.0000 C   0  0  0  0  0  0  0  0  0  0  0  0
   -3.5898   -0.7046    0.0000 O   0  0  0  0  0  0  0  0  0  0  0  0
   -4.1679   -3.2376    0.0000 N   0  0  0  0  0  0  0  0  0  0  0  0
   -5.6303   -2.9038    0.0000 C   0  0  0  0  0  0  0  0  0  0  0  0
   -6.0724   -1.4704    0.0000 N   0  0  0  0  0  0  0  0  0  0  0  0
   -7.5348   -1.1367    0.0000 N   0  0  0  0  0  0  0  0  0  0  0  0
   -8.5551   -2.2362    0.0000 N   0  0  0  0  0  0  0  0  0  0  0  0
   -8.1129   -3.6696    0.0000 N   0  0  0  0  0  0  0  0  0  0  0  0
   -6.6505   -4.0034    0.0000 N   0  0  0  0  0  0  0  0  0  0  0  0
   -1.3515   -3.9342    0.0000 C   0  0  0  0  0  0  0  0  0  0  0  0
   -0.0000   -4.5850    0.0000 C   0  0  0  0  0  0  0  0  0  0  0  0
    1.3515   -3.9342    0.0000 C   0  0  0  0  0  0  0  0  0  0  0  0
    2.5242   -4.8694    0.0000 C   0  0  0  0  0  0  0  0  0  0  0  0
  1  2  1  0
  2  3  1  0
  3  4  1  0
  4  5  2  0
  5  6  1  0
  6  7  2  0
  7  8  1  0
  8  9  2  0
  9 10  1  0
 10 11  1  0
 11 12  2  0
 11 13  1  0
 13 14  1  0
 14 15  2  0
 15 16  1  0
 16 17  2  0
 17 18  1  0
 18 19  2  0
 10 20  1  0
 20 21  1  0
 21 22  1  0
 22 23  1  0
 22  3  1  0
  9  4  1  0
 19 14  1  0
M  END
>  <Title>  (152) 
idAADXgen6

$$$$

     RDKit          2D

 34 37  0  0  0  0  0  0  0  0999 V2000
   -5.2500   -3.8971    0.0000 C   0  0  0  0  0  0  0  0  0  0  0  0
   -3.7500   -3.8971    0.0000 C   0  0  0  0  0  0  0  0  0  0  0  0
   -3.0000   -5.1962    0.0000 O   0  0  0  0  0  0  0  0  0  0  0  0
   -3.0000   -2.5981    0.0000 C   0  0  0  0  0  0  0  0  0  0  0  0
   -3.7500   -1.2990    0.0000 O   0  0  0  0  0  0  0  0  0  0  0  0
   -1.5000   -2.5981    0.0000 N   0  0  0  0  0  0  0  0  0  0  0  0
   -0.7500   -3.8971    0.0000 C   0  0  0  0  0  0  0  0  0  0  0  0
    0.7500   -3.8971    0.0000 C   0  0  0  0  0  0  0  0  0  0  0  0
    1.5000   -2.5981    0.0000 C   0  0  0  0  0  0  0  0  0  0  0  0
    3.0000   -2.5981    0.0000 C   0  0  0  0  0  0  0  0  0  0  0  0
    3.7500   -1.2990    0.0000 O   0  0  0  0  0  0  0  0  0  0  0  0
    3.7500   -3.8971    0.0000 N   0  0  0  0  0  0  0  0  0  0  0  0
    5.2458   -3.7850    0.0000 C   0  0  0  0  0  0  0  0  0  0  0  0
    6.2661   -4.8846    0.0000 C   0  0  0  0  0  0  0  0  0  0  0  0
    6.0425   -6.3678    0.0000 C   0  0  0  0  0  0  0  0  0  0  0  0
    7.2819   -7.2128    0.0000 C   0  0  0  0  0  0  0  0  0  0  0  0
    4.7435   -7.1178    0.0000 C   0  0  0  0  0  0  0  0  0  0  0  0
    4.8556   -8.6136    0.0000 C   0  0  0  0  0  0  0  0  0  0  0  0
    6.2070   -9.2645    0.0000 O   0  0  0  0  0  0  0  0  0  0  0  0
    3.6162   -9.4586    0.0000 N   0  0  0  0  0  0  0  0  0  0  0  0
    3.7283  -10.9544    0.0000 C   0  0  0  0  0  0  0  0  0  0  0  0
    2.4889  -11.7994    0.0000 C   0  0  0  0  0  0  0  0  0  0  0  0
    2.6010  -13.2952    0.0000 C   0  0  0  0  0  0  0  0  0  0  0  0
    3.9525  -13.9460    0.0000 C   0  0  0  0  0  0  0  0  0  0  0  0
    5.1918  -13.1011    0.0000 C   0  0  0  0  0  0  0  0  0  0  0  0
    5.0797  -11.6053    0.0000 C   0  0  0  0  0  0  0  0  0  0  0  0
    3.3472   -6.5698    0.0000 C   0  0  0  0  0  0  0  0  0  0  0  0
    2.9050   -5.1365    0.0000 C   0  0  0  0  0  0  0  0  0  0  0  0
    0.7500   -1.2990    0.0000 C   0  0  0  0  0  0  0  0  0  0  0  0
    1.5000    0.0000    0.0000 C   0  0  0  0  0  0  0  0  0  0  0  0
    0.7500    1.2990    0.0000 C   0  0  0  0  0  0  0  0  0  0  0  0
   -0.7500    1.2990    0.0000 C   0  0  0  0  0  0  0  0  0  0  0  0
   -1.5000    0.0000    0.0000 C   0  0  0  0  0  0  0  0  0  0  0  0
   -0.7500   -1.2990    0.0000 C   0  0  0  0  0  0  0  0  0  0  0  0
  1  2  1  0
  2  3  2  0
  2  4  1  0
  4  5  2  0
  4  6  1  0
  6  7  1  0
  7  8  1  0
  8  9  1  0
  9 10  1  0
 10 11  2  0
 10 12  1  0
 12 13  1  0
 13 14  2  0
 14 15  1  0
 15 16  1  0
 15 17  1  0
 17 18  1  0
 18 19  2  0
 18 20  1  0
 20 21  1  0
 21 22  2  0
 22 23  1  0
 23 24  2  0
 24 25  1  0
 25 26  2  0
 17 27  1  0
 27 28  1  0
  9 29  1  0
 29 30  2  0
 30 31  1  0
 31 32  2  0
 32 33  1  0
 33 34  2  0
 34  6  1  0
 28 12  1  0
 34 29  1  0
 26 21  1  0
M  END
>  <Title>  (153) 
idAADYgen6

$$$$

     RDKit          2D

 34 38  0  0  0  0  0  0  0  0999 V2000
   -6.0798   -5.2312    0.0000 O   0  0  0  0  0  0  0  0  0  0  0  0
   -6.1023   -3.7314    0.0000 C   0  0  0  0  0  0  0  0  0  0  0  0
   -7.4124   -3.0009    0.0000 C   0  0  0  0  0  0  0  0  0  0  0  0
   -7.4348   -1.5011    0.0000 C   0  0  0  0  0  0  0  0  0  0  0  0
   -6.1472   -0.7317    0.0000 N   0  0  0  0  0  0  0  0  0  0  0  0
   -6.1696    0.7681    0.0000 C   0  0  0  0  0  0  0  0  0  0  0  0
   -4.8819    1.5375    0.0000 C   0  0  0  0  0  0  0  0  0  0  0  0
   -3.5718    0.8070    0.0000 C   0  0  0  0  0  0  0  0  0  0  0  0
   -2.2841    1.5763    0.0000 N   0  0  0  0  0  0  0  0  0  0  0  0
   -2.4186    3.0703    0.0000 C   0  0  0  0  0  0  0  0  0  0  0  0
   -1.3344    4.1069    0.0000 C   0  0  0  0  0  0  0  0  0  0  0  0
    0.1520    3.9056    0.0000 C   0  0  0  0  0  0  0  0  0  0  0  0
    0.9784    5.1574    0.0000 O   0  0  0  0  0  0  0  0  0  0  0  0
    0.9214    2.6179    0.0000 N   0  0  0  0  0  0  0  0  0  0  0  0
    0.3943    1.2135    0.0000 C   0  0  0  0  0  0  0  0  0  0  0  0
    1.2760    0.0000    0.0000 N   0  0  0  0  0  0  0  0  0  0  0  0
    0.3943   -1.2135    0.0000 N   0  0  0  0  0  0  0  0  0  0  0  0
   -1.0323   -0.7500    0.0000 N   0  0  0  0  0  0  0  0  0  0  0  0
   -1.0323    0.7500    0.0000 N   0  0  0  0  0  0  0  0  0  0  0  0
   -7.4797    1.4986    0.0000 N   0  0  0  0  0  0  0  0  0  0  0  0
   -7.5022    2.9984    0.0000 C   0  0  0  0  0  0  0  0  0  0  0  0
   -8.8123    3.7289    0.0000 C   0  0  0  0  0  0  0  0  0  0  0  0
  -10.0999    2.9596    0.0000 C   0  0  0  0  0  0  0  0  0  0  0  0
  -11.4101    3.6901    0.0000 C   0  0  0  0  0  0  0  0  0  0  0  0
  -11.4325    5.1899    0.0000 C   0  0  0  0  0  0  0  0  0  0  0  0
  -12.7426    5.9204    0.0000 C   0  0  0  0  0  0  0  0  0  0  0  0
  -14.0303    5.1510    0.0000 C   0  0  0  0  0  0  0  0  0  0  0  0
  -14.0078    3.6512    0.0000 C   0  0  0  0  0  0  0  0  0  0  0  0
  -12.6977    2.9207    0.0000 C   0  0  0  0  0  0  0  0  0  0  0  0
  -10.0775    1.4597    0.0000 C   0  0  0  0  0  0  0  0  0  0  0  0
   -8.7674    0.7293    0.0000 C   0  0  0  0  0  0  0  0  0  0  0  0
   -4.8371   -1.4622    0.0000 C   0  0  0  0  0  0  0  0  0  0  0  0
   -3.5494   -0.6928    0.0000 O   0  0  0  0  0  0  0  0  0  0  0  0
   -4.8146   -2.9620    0.0000 N   0  0  0  0  0  0  0  0  0  0  0  0
  1  2  2  0
  2  3  1  0
  3  4  1  0
  4  5  1  0
  5  6  1  0
  6  7  1  0
  7  8  1  0
  8  9  1  0
  9 10  1  0
 10 11  1  0
 11 12  1  0
 12 13  2  0
 12 14  1  0
 14 15  1  0
 15 16  2  0
 16 17  1  0
 17 18  2  0
 18 19  1  0
  6 20  1  0
 20 21  1  0
 21 22  1  0
 22 23  1  0
 23 24  1  0
 24 25  2  0
 25 26  1  0
 26 27  2  0
 27 28  1  0
 28 29  2  0
 23 30  1  0
 30 31  1  0
  5 32  1  0
 32 33  2  0
 32 34  1  0
 34  2  1  0
 19  9  1  0
 31 20  1  0
 19 15  1  0
 29 24  1  0
M  END
>  <Title>  (154) 
idAADZgen6

$$$$

     RDKit          2D

 10 11  0  0  0  0  0  0  0  0999 V2000
    1.5000    0.0000    0.0000 C   0  0  0  0  0  0  0  0  0  0  0  0
    0.7500   -1.2990    0.0000 C   0  0  0  0  0  0  0  0  0  0  0  0
   -0.7500   -1.2990    0.0000 C   0  0  0  0  0  0  0  0  0  0  0  0
   -1.5000    0.0000    0.0000 C   0  0  0  0  0  0  0  0  0  0  0  0
   -3.0000    0.0000    0.0000 C   0  0  0  0  0  0  0  0  0  0  0  0
   -3.7500    1.2990    0.0000 C   0  0  0  0  0  0  0  0  0  0  0  0
   -3.0000    2.5981    0.0000 C   0  0  0  0  0  0  0  0  0  0  0  0
   -1.5000    2.5981    0.0000 C   0  0  0  0  0  0  0  0  0  0  0  0
   -0.7500    1.2990    0.0000 C   0  0  0  0  0  0  0  0  0  0  0  0
    0.7500    1.2990    0.0000 C   0  0  0  0  0  0  0  0  0  0  0  0
  1  2  2  0
  2  3  1  0
  3  4  2  0
  4  5  1  0
  5  6  1  0
  6  7  1  0
  7  8  2  0
  8  9  1  0
  9 10  2  0
 10  1  1  0
  9  4  1  0
M  END
>  <Title>  (155) 
idAAEAgen6

$$$$

     RDKit          2D

 22 23  0  0  0  0  0  0  0  0999 V2000
   -3.1097   -0.9884    0.0000 C   0  0  0  0  0  0  0  0  0  0  0  0
   -2.0490   -2.0490    0.0000 C   0  0  0  0  0  0  0  0  0  0  0  0
   -2.7990   -3.3481    0.0000 C   0  0  0  0  0  0  0  0  0  0  0  0
   -2.7990   -4.8481    0.0000 C   0  0  0  0  0  0  0  0  0  0  0  0
   -2.0490   -6.1471    0.0000 C   0  0  0  0  0  0  0  0  0  0  0  0
   -3.1097   -7.2078    0.0000 O   0  0  0  0  0  0  0  0  0  0  0  0
   -0.7500   -6.8971    0.0000 C   0  0  0  0  0  0  0  0  0  0  0  0
   -1.1382   -8.3460    0.0000 O   0  0  0  0  0  0  0  0  0  0  0  0
    0.7500   -6.8971    0.0000 N   0  0  0  0  0  0  0  0  0  0  0  0
    2.0490   -6.1471    0.0000 C   0  0  0  0  0  0  0  0  0  0  0  0
    2.7990   -4.8481    0.0000 C   0  0  0  0  0  0  0  0  0  0  0  0
    2.7990   -3.3481    0.0000 C   0  0  0  0  0  0  0  0  0  0  0  0
    4.2479   -2.9598    0.0000 O   0  0  0  0  0  0  0  0  0  0  0  0
    2.0490   -2.0490    0.0000 O   0  0  0  0  0  0  0  0  0  0  0  0
    0.7500   -1.2990    0.0000 C   0  0  0  0  0  0  0  0  0  0  0  0
    1.5000    0.0000    0.0000 C   0  0  0  0  0  0  0  0  0  0  0  0
    0.7500    1.2990    0.0000 C   0  0  0  0  0  0  0  0  0  0  0  0
   -0.7500    1.2990    0.0000 C   0  0  0  0  0  0  0  0  0  0  0  0
   -1.5000    2.5981    0.0000 C   0  0  0  0  0  0  0  0  0  0  0  0
   -2.2500    3.8971    0.0000 N   0  0  0  0  0  0  0  0  0  0  0  0
   -1.5000    0.0000    0.0000 C   0  0  0  0  0  0  0  0  0  0  0  0
   -0.7500   -1.2990    0.0000 C   0  0  0  0  0  0  0  0  0  0  0  0
  1  2  1  0
  2  3  1  0
  3  4  1  0
  4  5  1  0
  5  6  1  0
  5  7  1  0
  7  8  2  0
  7  9  1  0
  9 10  1  0
 10 11  1  0
 11 12  1  0
 12 13  2  0
 12 14  1  0
 14 15  1  0
 15 16  2  0
 16 17  1  0
 17 18  2  0
 18 19  1  0
 19 20  3  0
 18 21  1  0
 21 22  2  0
 22  2  1  0
 22 15  1  0
M  END
>  <Title>  (156) 
idAAEBgen6

$$$$

     RDKit          2D

 26 29  0  0  0  0  0  0  0  0999 V2000
   -0.7500   -3.8971    0.0000 O   0  0  0  0  0  0  0  0  0  0  0  0
    0.7500   -3.8971    0.0000 C   0  0  0  0  0  0  0  0  0  0  0  0
    1.5000   -2.5981    0.0000 N   0  0  0  0  0  0  0  0  0  0  0  0
    0.7500   -1.2990    0.0000 C   0  0  0  0  0  0  0  0  0  0  0  0
    1.5000    0.0000    0.0000 C   0  0  0  0  0  0  0  0  0  0  0  0
    0.7500    1.2990    0.0000 C   0  0  0  0  0  0  0  0  0  0  0  0
   -0.7500    1.2990    0.0000 C   0  0  0  0  0  0  0  0  0  0  0  0
   -1.5000    0.0000    0.0000 C   0  0  0  0  0  0  0  0  0  0  0  0
   -0.7500   -1.2990    0.0000 C   0  0  0  0  0  0  0  0  0  0  0  0
    1.5000   -5.1962    0.0000 N   0  0  0  0  0  0  0  0  0  0  0  0
    0.7500   -6.4952    0.0000 C   0  0  0  0  0  0  0  0  0  0  0  0
    1.5000   -7.7942    0.0000 C   0  0  0  0  0  0  0  0  0  0  0  0
    3.0000   -7.7942    0.0000 C   0  0  0  0  0  0  0  0  0  0  0  0
    3.7500   -9.0933    0.0000 N   0  0  0  0  0  0  0  0  0  0  0  0
    5.2418   -9.2501    0.0000 C   0  0  0  0  0  0  0  0  0  0  0  0
    5.5537  -10.7173    0.0000 C   0  0  0  0  0  0  0  0  0  0  0  0
    4.2546  -11.4673    0.0000 C   0  0  0  0  0  0  0  0  0  0  0  0
    4.0978  -12.9591    0.0000 C   0  0  0  0  0  0  0  0  0  0  0  0
    2.7275  -13.5692    0.0000 C   0  0  0  0  0  0  0  0  0  0  0  0
    2.5707  -15.0610    0.0000 C   0  0  0  0  0  0  0  0  0  0  0  0
    3.7842  -15.9426    0.0000 C   0  0  0  0  0  0  0  0  0  0  0  0
    5.1546  -15.3325    0.0000 C   0  0  0  0  0  0  0  0  0  0  0  0
    5.3113  -13.8407    0.0000 C   0  0  0  0  0  0  0  0  0  0  0  0
    3.1399  -10.4636    0.0000 C   0  0  0  0  0  0  0  0  0  0  0  0
    3.7500   -6.4952    0.0000 C   0  0  0  0  0  0  0  0  0  0  0  0
    3.0000   -5.1962    0.0000 C   0  0  0  0  0  0  0  0  0  0  0  0
  1  2  2  0
  2  3  1  0
  3  4  1  0
  4  5  2  0
  5  6  1  0
  6  7  2  0
  7  8  1  0
  8  9  2  0
  2 10  1  0
 10 11  1  0
 11 12  1  0
 12 13  1  0
 13 14  1  0
 14 15  1  0
 15 16  1  0
 16 17  1  0
 17 18  1  0
 18 19  2  0
 19 20  1  0
 20 21  2  0
 21 22  1  0
 22 23  2  0
 17 24  1  0
 13 25  1  0
 25 26  1  0
  9  4  1  0
 26 10  1  0
 24 14  1  0
 23 18  1  0
M  END
>  <Title>  (157) 
idAAECgen6

$$$$

     RDKit          2D

 13 13  0  0  0  0  0  0  0  0999 V2000
    5.0260   -1.2990    0.0000 C   0  0  0  0  0  0  0  0  0  0  0  0
    3.5260   -1.2990    0.0000 C   0  0  0  0  0  0  0  0  0  0  0  0
    2.7760   -2.5981    0.0000 O   0  0  0  0  0  0  0  0  0  0  0  0
    2.7760    0.0000    0.0000 C   0  0  0  0  0  0  0  0  0  0  0  0
    3.5260    1.2990    0.0000 O   0  0  0  0  0  0  0  0  0  0  0  0
    1.2760    0.0000    0.0000 C   0  0  0  0  0  0  0  0  0  0  0  0
    0.3943    1.2135    0.0000 C   0  0  0  0  0  0  0  0  0  0  0  0
   -1.0323    0.7500    0.0000 C   0  0  0  0  0  0  0  0  0  0  0  0
   -1.0323   -0.7500    0.0000 C   0  0  0  0  0  0  0  0  0  0  0  0
   -2.2458   -1.6317    0.0000 C   0  0  0  0  0  0  0  0  0  0  0  0
   -2.0890   -3.1235    0.0000 O   0  0  0  0  0  0  0  0  0  0  0  0
   -3.6161   -1.0216    0.0000 O   0  0  0  0  0  0  0  0  0  0  0  0
    0.3943   -1.2135    0.0000 C   0  0  0  0  0  0  0  0  0  0  0  0
  1  2  1  0
  2  3  2  0
  2  4  1  0
  4  5  2  0
  4  6  1  0
  6  7  1  0
  7  8  1  0
  8  9  1  0
  9 10  1  0
 10 11  2  0
 10 12  1  0
  9 13  1  0
 13  6  1  0
M  END
>  <Title>  (158) 
idAAEDgen6

$$$$

     RDKit          2D

  8  7  0  0  0  0  0  0  0  0999 V2000
    0.0000    0.0000    0.0000 C   0  0  0  0  0  0  0  0  0  0  0  0
    1.2990    0.7500    0.0000 C   0  0  0  0  0  0  0  0  0  0  0  0
    2.5981   -0.0000    0.0000 C   0  0  0  0  0  0  0  0  0  0  0  0
    3.8971    0.7500    0.0000 C   0  0  0  0  0  0  0  0  0  0  0  0
    5.1962   -0.0000    0.0000 C   0  0  0  0  0  0  0  0  0  0  0  0
    3.8971    2.2500    0.0000 C   0  0  0  0  0  0  0  0  0  0  0  0
    5.1962    3.0000    0.0000 C   0  0  0  0  0  0  0  0  0  0  0  0
    2.5981    3.0000    0.0000 O   0  0  0  0  0  0  0  0  0  0  0  0
  1  2  1  0
  2  3  1  0
  3  4  2  3
  4  5  1  0
  4  6  1  0
  6  7  1  0
  6  8  2  0
M  END
>  <Title>  (159) 
idAAEEgen6

$$$$

     RDKit          2D

  4  3  0  0  0  0  0  0  0  0999 V2000
    0.0000    0.0000    0.0000 C   0  0  0  0  0  0  0  0  0  0  0  0
    1.2990    0.7500    0.0000 C   0  0  0  0  0  0  0  0  0  0  0  0
    2.5981   -0.0000    0.0000 C   0  0  0  0  0  0  0  0  0  0  0  0
    3.8971    0.7500    0.0000 C   0  0  0  0  0  0  0  0  0  0  0  0
  1  2  2  0
  2  3  1  0
  3  4  1  0
M  END
>  <Title>  (160) 
idAAEFgen6

$$$$

     RDKit          2D

 52 57  0  0  0  0  0  0  0  0999 V2000
   -4.2479   -5.2363    0.0000 C   0  0  0  0  0  0  0  0  0  0  0  0
   -2.7990   -4.8481    0.0000 C   0  0  0  0  0  0  0  0  0  0  0  0
   -2.0490   -6.1471    0.0000 C   0  0  0  0  0  0  0  0  0  0  0  0
   -0.7500   -6.8971    0.0000 C   0  0  0  0  0  0  0  0  0  0  0  0
    0.7500   -6.8971    0.0000 C   0  0  0  0  0  0  0  0  0  0  0  0
    1.1382   -8.3460    0.0000 C   0  0  0  0  0  0  0  0  0  0  0  0
    0.0776   -9.4067    0.0000 C   0  0  0  0  0  0  0  0  0  0  0  0
    0.4658  -10.8556    0.0000 N   0  0  0  0  0  0  0  0  0  0  0  0
    2.5871   -8.7342    0.0000 N   0  0  0  0  0  0  0  0  0  0  0  0
    2.9753  -10.1831    0.0000 C   0  0  0  0  0  0  0  0  0  0  0  0
    1.9147  -11.2438    0.0000 N   0  0  0  0  0  0  0  0  0  0  0  0
    2.3029  -12.6927    0.0000 N   0  0  0  0  0  0  0  0  0  0  0  0
    3.7518  -13.0809    0.0000 N   0  0  0  0  0  0  0  0  0  0  0  0
    4.8125  -12.0202    0.0000 N   0  0  0  0  0  0  0  0  0  0  0  0
    4.4242  -10.5713    0.0000 N   0  0  0  0  0  0  0  0  0  0  0  0
    2.0490   -6.1471    0.0000 C   0  0  0  0  0  0  0  0  0  0  0  0
    2.7990   -4.8481    0.0000 C   0  0  0  0  0  0  0  0  0  0  0  0
    2.7990   -3.3481    0.0000 C   0  0  0  0  0  0  0  0  0  0  0  0
    2.0490   -2.0490    0.0000 C   0  0  0  0  0  0  0  0  0  0  0  0
    3.4756   -1.7565    0.0000 N   0  0  0  0  0  0  0  0  0  0  0  0
    4.9022   -2.2201    0.0000 C   0  0  0  0  0  0  0  0  0  0  0  0
    5.7839   -1.0065    0.0000 O   0  0  0  0  0  0  0  0  0  0  0  0
    5.7839   -3.4336    0.0000 C   0  0  0  0  0  0  0  0  0  0  0  0
    7.2105   -2.9701    0.0000 C   0  0  0  0  0  0  0  0  0  0  0  0
    7.5223   -1.5028    0.0000 O   0  0  0  0  0  0  0  0  0  0  0  0
    8.3252   -3.9738    0.0000 N   0  0  0  0  0  0  0  0  0  0  0  0
    9.7518   -3.5102    0.0000 C   0  0  0  0  0  0  0  0  0  0  0  0
   10.0636   -2.0430    0.0000 O   0  0  0  0  0  0  0  0  0  0  0  0
   10.8665   -4.5139    0.0000 C   0  0  0  0  0  0  0  0  0  0  0  0
   10.5546   -5.9812    0.0000 C   0  0  0  0  0  0  0  0  0  0  0  0
   11.6693   -6.9848    0.0000 C   0  0  0  0  0  0  0  0  0  0  0  0
   13.0959   -6.5213    0.0000 C   0  0  0  0  0  0  0  0  0  0  0  0
   13.4078   -5.0541    0.0000 C   0  0  0  0  0  0  0  0  0  0  0  0
   12.2931   -4.0504    0.0000 C   0  0  0  0  0  0  0  0  0  0  0  0
    5.7839   -4.9336    0.0000 C   0  0  0  0  0  0  0  0  0  0  0  0
    7.2105   -5.3971    0.0000 O   0  0  0  0  0  0  0  0  0  0  0  0
    4.9022   -6.1471    0.0000 N   0  0  0  0  0  0  0  0  0  0  0  0
    3.4756   -6.6106    0.0000 C   0  0  0  0  0  0  0  0  0  0  0  0
    3.4756   -8.1106    0.0000 O   0  0  0  0  0  0  0  0  0  0  0  0
    0.7500   -1.2990    0.0000 C   0  0  0  0  0  0  0  0  0  0  0  0
    1.5000    0.0000    0.0000 C   0  0  0  0  0  0  0  0  0  0  0  0
    0.7500    1.2990    0.0000 C   0  0  0  0  0  0  0  0  0  0  0  0
   -0.7500    1.2990    0.0000 C   0  0  0  0  0  0  0  0  0  0  0  0
   -1.5000    0.0000    0.0000 C   0  0  0  0  0  0  0  0  0  0  0  0
   -0.7500   -1.2990    0.0000 C   0  0  0  0  0  0  0  0  0  0  0  0
   -2.0490   -2.0490    0.0000 C   0  0  0  0  0  0  0  0  0  0  0  0
   -2.7990   -0.7500    0.0000 C   0  0  0  0  0  0  0  0  0  0  0  0
   -4.2990   -0.7500    0.0000 C   0  0  0  0  0  0  0  0  0  0  0  0
   -5.0490   -2.0490    0.0000 C   0  0  0  0  0  0  0  0  0  0  0  0
   -6.5490   -2.0490    0.0000 O   0  0  0  0  0  0  0  0  0  0  0  0
   -4.2990   -3.3481    0.0000 C   0  0  0  0  0  0  0  0  0  0  0  0
   -2.7990   -3.3481    0.0000 C   0  0  0  0  0  0  0  0  0  0  0  0
  1  2  1  0
  2  3  1  0
  3  4  1  0
  4  5  1  0
  5  6  1  0
  6  7  1  0
  7  8  1  0
  6  9  1  0
  9 10  1  0
 10 11  2  0
 11 12  1  0
 12 13  2  0
 13 14  1  0
 14 15  2  0
  5 16  1  0
 16 17  2  0
 17 18  1  0
 18 19  2  0
 19 20  1  0
 20 21  1  0
 21 22  2  0
 21 23  1  0
 23 24  1  0
 24 25  2  0
 24 26  1  0
 26 27  1  0
 27 28  2  0
 27 29  1  0
 29 30  2  0
 30 31  1  0
 31 32  2  0
 32 33  1  0
 33 34  2  0
 23 35  1  0
 35 36  2  0
 35 37  1  0
 37 38  1  0
 38 39  2  0
 19 40  1  0
 40 41  2  0
 41 42  1  0
 42 43  2  0
 43 44  1  0
 44 45  2  0
 45 46  1  0
 46 47  2  0
 47 48  1  0
 48 49  2  0
 49 50  1  0
 49 51  1  0
 51 52  2  0
 52  2  1  0
 15 10  1  0
 38 16  1  0
 45 40  1  0
 52 46  1  0
 34 29  1  0
M  END
>  <Title>  (161) 
idAAEGgen6

$$$$

     RDKit          2D

 12 12  0  0  0  0  0  0  0  0999 V2000
    6.0000   -2.5981    0.0000 C   0  0  0  0  0  0  0  0  0  0  0  0
    5.2500   -1.2990    0.0000 C   0  0  0  0  0  0  0  0  0  0  0  0
    6.0000    0.0000    0.0000 O   0  0  0  0  0  0  0  0  0  0  0  0
    3.7500   -1.2990    0.0000 C   0  0  0  0  0  0  0  0  0  0  0  0
    3.0000   -2.5981    0.0000 O   0  0  0  0  0  0  0  0  0  0  0  0
    3.0000    0.0000    0.0000 N   0  0  0  0  0  0  0  0  0  0  0  0
    1.5000    0.0000    0.0000 C   0  0  0  0  0  0  0  0  0  0  0  0
    0.7500   -1.2990    0.0000 C   0  0  0  0  0  0  0  0  0  0  0  0
   -0.7500   -1.2990    0.0000 C   0  0  0  0  0  0  0  0  0  0  0  0
   -1.5000    0.0000    0.0000 C   0  0  0  0  0  0  0  0  0  0  0  0
   -0.7500    1.2990    0.0000 C   0  0  0  0  0  0  0  0  0  0  0  0
    0.7500    1.2990    0.0000 C   0  0  0  0  0  0  0  0  0  0  0  0
  1  2  1  0
  2  3  2  0
  2  4  1  0
  4  5  2  0
  4  6  1  0
  6  7  1  0
  7  8  2  0
  8  9  1  0
  9 10  2  0
 10 11  1  0
 11 12  2  0
 12  7  1  0
M  END
>  <Title>  (162) 
idAAEHgen6

$$$$

     RDKit          2D

 10 10  0  0  0  0  0  0  0  0999 V2000
    5.0260   -1.2990    0.0000 C   0  0  0  0  0  0  0  0  0  0  0  0
    3.5260   -1.2990    0.0000 N   0  0  0  0  0  0  0  0  0  0  0  0
    2.7760   -2.5981    0.0000 C   0  0  0  0  0  0  0  0  0  0  0  0
    2.7760    0.0000    0.0000 C   0  0  0  0  0  0  0  0  0  0  0  0
    3.5260    1.2990    0.0000 O   0  0  0  0  0  0  0  0  0  0  0  0
    1.2760    0.0000    0.0000 C   0  0  0  0  0  0  0  0  0  0  0  0
    0.3943    1.2135    0.0000 C   0  0  0  0  0  0  0  0  0  0  0  0
   -1.0323    0.7500    0.0000 C   0  0  0  0  0  0  0  0  0  0  0  0
   -1.0323   -0.7500    0.0000 C   0  0  0  0  0  0  0  0  0  0  0  0
    0.3943   -1.2135    0.0000 C   0  0  0  0  0  0  0  0  0  0  0  0
  1  2  1  0
  2  3  1  0
  2  4  1  0
  4  5  2  0
  4  6  1  0
  6  7  1  0
  7  8  1  0
  8  9  1  0
  9 10  1  0
 10  6  1  0
M  END
>  <Title>  (163) 
idAAEIgen6

$$$$

     RDKit          2D

 38 43  0  0  0  0  0  0  0  0999 V2000
   -0.7500   -3.8971    0.0000 O   0  0  0  0  0  0  0  0  0  0  0  0
    0.7500   -3.8971    0.0000 C   0  0  0  0  0  0  0  0  0  0  0  0
    1.5000   -2.5981    0.0000 N   0  0  0  0  0  0  0  0  0  0  0  0
    0.7500   -1.2990    0.0000 C   0  0  0  0  0  0  0  0  0  0  0  0
    1.5000    0.0000    0.0000 N   0  0  0  0  0  0  0  0  0  0  0  0
    0.7500    1.2990    0.0000 N   0  0  0  0  0  0  0  0  0  0  0  0
   -0.7500    1.2990    0.0000 N   0  0  0  0  0  0  0  0  0  0  0  0
   -1.5000    0.0000    0.0000 N   0  0  0  0  0  0  0  0  0  0  0  0
   -0.7500   -1.2990    0.0000 N   0  0  0  0  0  0  0  0  0  0  0  0
    1.5000   -5.1962    0.0000 C   0  0  0  0  0  0  0  0  0  0  0  0
    0.7500   -6.4952    0.0000 C   0  0  0  0  0  0  0  0  0  0  0  0
    1.5000   -7.7942    0.0000 C   0  0  0  0  0  0  0  0  0  0  0  0
    3.0000   -7.7942    0.0000 N   0  0  0  0  0  0  0  0  0  0  0  0
    3.7500   -9.0933    0.0000 C   0  0  0  0  0  0  0  0  0  0  0  0
    5.2418   -9.2501    0.0000 C   0  0  0  0  0  0  0  0  0  0  0  0
    5.5537  -10.7173    0.0000 C   0  0  0  0  0  0  0  0  0  0  0  0
    4.2546  -11.4673    0.0000 N   0  0  0  0  0  0  0  0  0  0  0  0
    4.0978  -12.9591    0.0000 C   0  0  0  0  0  0  0  0  0  0  0  0
    2.7275  -13.5692    0.0000 C   0  0  0  0  0  0  0  0  0  0  0  0
    2.5707  -15.0610    0.0000 C   0  0  0  0  0  0  0  0  0  0  0  0
    3.7842  -15.9426    0.0000 N   0  0  0  0  0  0  0  0  0  0  0  0
    3.6274  -17.4344    0.0000 C   0  0  0  0  0  0  0  0  0  0  0  0
    4.8410  -18.3161    0.0000 O   0  0  0  0  0  0  0  0  0  0  0  0
    2.2571  -18.0445    0.0000 N   0  0  0  0  0  0  0  0  0  0  0  0
    1.9453  -19.5117    0.0000 C   0  0  0  0  0  0  0  0  0  0  0  0
    0.4535  -19.6685    0.0000 C   0  0  0  0  0  0  0  0  0  0  0  0
   -0.1566  -18.2982    0.0000 C   0  0  0  0  0  0  0  0  0  0  0  0
   -1.6239  -17.9863    0.0000 N   0  0  0  0  0  0  0  0  0  0  0  0
   -2.7386  -18.9900    0.0000 C   0  0  0  0  0  0  0  0  0  0  0  0
   -4.0376  -18.2400    0.0000 C   0  0  0  0  0  0  0  0  0  0  0  0
   -3.7257  -16.7728    0.0000 C   0  0  0  0  0  0  0  0  0  0  0  0
   -2.2340  -16.6160    0.0000 C   0  0  0  0  0  0  0  0  0  0  0  0
    0.9581  -17.2945    0.0000 C   0  0  0  0  0  0  0  0  0  0  0  0
    5.1546  -15.3325    0.0000 C   0  0  0  0  0  0  0  0  0  0  0  0
    5.3113  -13.8407    0.0000 C   0  0  0  0  0  0  0  0  0  0  0  0
    3.1399  -10.4636    0.0000 C   0  0  0  0  0  0  0  0  0  0  0  0
    3.7500   -6.4952    0.0000 C   0  0  0  0  0  0  0  0  0  0  0  0
    3.0000   -5.1962    0.0000 C   0  0  0  0  0  0  0  0  0  0  0  0
  1  2  2  0
  2  3  1  0
  3  4  1  0
  4  5  2  0
  5  6  1  0
  6  7  2  0
  7  8  1  0
  8  9  2  0
  2 10  1  0
 10 11  1  0
 11 12  1  0
 12 13  1  0
 13 14  1  0
 14 15  1  0
 15 16  1  0
 16 17  1  0
 17 18  1  0
 18 19  1  0
 19 20  1  0
 20 21  1  0
 21 22  1  0
 22 23  2  0
 22 24  1  0
 24 25  1  0
 25 26  1  0
 26 27  1  0
 27 28  1  0
 28 29  1  0
 29 30  1  0
 30 31  1  0
 31 32  1  0
 27 33  1  0
 21 34  1  0
 34 35  1  0
 17 36  1  0
 13 37  1  0
 37 38  1  0
  9  4  1  0
 38 10  1  0
 36 14  1  0
 35 18  1  0
 33 24  1  0
 32 28  1  0
M  END
>  <Title>  (164) 
idAAEJgen6

$$$$

     RDKit          2D

 32 35  0  0  0  0  0  0  0  0999 V2000
   -3.4947    1.4951    0.0000 C   0  0  0  0  0  0  0  0  0  0  0  0
   -4.2727    2.7775    0.0000 C   0  0  0  0  0  0  0  0  0  0  0  0
   -5.7676    2.9018    0.0000 C   0  0  0  0  0  0  0  0  0  0  0  0
   -6.1113    4.3619    0.0000 C   0  0  0  0  0  0  0  0  0  0  0  0
   -7.4946    4.9420    0.0000 O   0  0  0  0  0  0  0  0  0  0  0  0
   -4.8289    5.1400    0.0000 C   0  0  0  0  0  0  0  0  0  0  0  0
   -3.6926    4.1608    0.0000 C   0  0  0  0  0  0  0  0  0  0  0  0
   -2.2325    4.5045    0.0000 C   0  0  0  0  0  0  0  0  0  0  0  0
   -1.8001    5.9408    0.0000 O   0  0  0  0  0  0  0  0  0  0  0  0
   -1.2048    3.4119    0.0000 C   0  0  0  0  0  0  0  0  0  0  0  0
    0.2255    3.8638    0.0000 C   0  0  0  0  0  0  0  0  0  0  0  0
    0.4390    5.3485    0.0000 O   0  0  0  0  0  0  0  0  0  0  0  0
    1.4706    3.0272    0.0000 N   0  0  0  0  0  0  0  0  0  0  0  0
    2.2395    1.4392    0.0000 C   0  0  0  0  0  0  0  0  0  0  0  0
    2.6621    0.0000    0.0000 C   0  0  0  0  0  0  0  0  0  0  0  0
    2.2395   -1.4392    0.0000 C   0  0  0  0  0  0  0  0  0  0  0  0
    1.1059   -2.4215    0.0000 C   0  0  0  0  0  0  0  0  0  0  0  0
    1.7290   -3.7860    0.0000 O   0  0  0  0  0  0  0  0  0  0  0  0
    0.8589   -5.0078    0.0000 C   0  0  0  0  0  0  0  0  0  0  0  0
    1.4820   -6.3723    0.0000 C   0  0  0  0  0  0  0  0  0  0  0  0
    0.6120   -7.5942    0.0000 C   0  0  0  0  0  0  0  0  0  0  0  0
    1.2351   -8.9586    0.0000 C   0  0  0  0  0  0  0  0  0  0  0  0
    2.7283   -9.1012    0.0000 C   0  0  0  0  0  0  0  0  0  0  0  0
    3.5984   -7.8793    0.0000 C   0  0  0  0  0  0  0  0  0  0  0  0
    2.9752   -6.5149    0.0000 C   0  0  0  0  0  0  0  0  0  0  0  0
   -0.3789   -2.6350    0.0000 C   0  0  0  0  0  0  0  0  0  0  0  0
   -1.7433   -2.0119    0.0000 C   0  0  0  0  0  0  0  0  0  0  0  0
   -2.5543   -0.7500    0.0000 C   0  0  0  0  0  0  0  0  0  0  0  0
   -2.5543    0.7500    0.0000 C   0  0  0  0  0  0  0  0  0  0  0  0
   -1.7433    2.0119    0.0000 C   0  0  0  0  0  0  0  0  0  0  0  0
   -0.2792    1.9421    0.0000 C   0  0  0  0  0  0  0  0  0  0  0  0
    0.8151    1.7848    0.0000 C   0  0  0  0  0  0  0  0  0  0  0  0
  1  2  1  0
  2  3  1  0
  3  4  2  0
  4  5  1  0
  4  6  1  0
  6  7  1  0
  7  8  1  0
  8  9  2  0
  8 10  1  0
 10 11  1  0
 11 12  2  0
 11 13  1  0
 13 14  1  0
 14 15  2  0
 15 16  1  0
 16 17  2  0
 17 18  1  0
 18 19  1  0
 19 20  1  0
 20 21  2  0
 21 22  1  0
 22 23  2  0
 23 24  1  0
 24 25  2  0
 17 26  1  0
 26 27  1  0
 27 28  2  0
 28 29  1  0
 29 30  2  0
 30 31  1  0
 31 32  1  0
  7  2  1  0
 30 10  1  0
 32 14  1  0
 25 20  1  0
M  END
>  <Title>  (165) 
idAAEKgen6

$$$$

     RDKit          2D

 44 48  0  0  0  0  0  0  0  0999 V2000
   -7.1551   -7.6222    0.0000 C   0  0  0  0  0  0  0  0  0  0  0  0
   -7.0766   -6.1243    0.0000 C   0  0  0  0  0  0  0  0  0  0  0  0
   -5.7401   -5.4433    0.0000 C   0  0  0  0  0  0  0  0  0  0  0  0
   -5.6615   -3.9454    0.0000 C   0  0  0  0  0  0  0  0  0  0  0  0
   -4.3250   -3.2644    0.0000 C   0  0  0  0  0  0  0  0  0  0  0  0
   -3.2644   -4.3250    0.0000 C   0  0  0  0  0  0  0  0  0  0  0  0
   -1.7828   -4.5597    0.0000 C   0  0  0  0  0  0  0  0  0  0  0  0
   -0.4463   -3.8787    0.0000 C   0  0  0  0  0  0  0  0  0  0  0  0
    0.2347   -2.5422    0.0000 C   0  0  0  0  0  0  0  0  0  0  0  0
   -0.0000   -1.0607    0.0000 C   0  0  0  0  0  0  0  0  0  0  0  0
    1.0607    0.0000    0.0000 N   0  0  0  0  0  0  0  0  0  0  0  0
    0.0000    1.0607    0.0000 C   0  0  0  0  0  0  0  0  0  0  0  0
    0.0000    2.5607    0.0000 O   0  0  0  0  0  0  0  0  0  0  0  0
   -1.0607    0.0000    0.0000 C   0  0  0  0  0  0  0  0  0  0  0  0
   -2.5422    0.2347    0.0000 C   0  0  0  0  0  0  0  0  0  0  0  0
   -3.8787   -0.4463    0.0000 C   0  0  0  0  0  0  0  0  0  0  0  0
   -4.5597   -1.7828    0.0000 C   0  0  0  0  0  0  0  0  0  0  0  0
   -6.0412   -1.5482    0.0000 C   0  0  0  0  0  0  0  0  0  0  0  0
   -4.4820   -6.2603    0.0000 C   0  0  0  0  0  0  0  0  0  0  0  0
   -3.1455   -5.5793    0.0000 O   0  0  0  0  0  0  0  0  0  0  0  0
   -4.5605   -7.7582    0.0000 N   0  0  0  0  0  0  0  0  0  0  0  0
   -3.3025   -8.5752    0.0000 C   0  0  0  0  0  0  0  0  0  0  0  0
   -1.9660   -7.8942    0.0000 O   0  0  0  0  0  0  0  0  0  0  0  0
   -3.3810  -10.0731    0.0000 C   0  0  0  0  0  0  0  0  0  0  0  0
   -2.1230  -10.8901    0.0000 C   0  0  0  0  0  0  0  0  0  0  0  0
   -2.2015  -12.3880    0.0000 C   0  0  0  0  0  0  0  0  0  0  0  0
   -3.5381  -13.0690    0.0000 C   0  0  0  0  0  0  0  0  0  0  0  0
   -3.6166  -14.5669    0.0000 C   0  0  0  0  0  0  0  0  0  0  0  0
   -2.3586  -15.3839    0.0000 C   0  0  0  0  0  0  0  0  0  0  0  0
   -1.0220  -14.7029    0.0000 C   0  0  0  0  0  0  0  0  0  0  0  0
   -0.9435  -13.2050    0.0000 C   0  0  0  0  0  0  0  0  0  0  0  0
   -4.7176  -10.7541    0.0000 C   0  0  0  0  0  0  0  0  0  0  0  0
   -5.1561   -9.3196    0.0000 O   0  0  0  0  0  0  0  0  0  0  0  0
   -3.8148  -11.9521    0.0000 C   0  0  0  0  0  0  0  0  0  0  0  0
   -4.4009  -13.3328    0.0000 C   0  0  0  0  0  0  0  0  0  0  0  0
   -5.8897  -13.5156    0.0000 C   0  0  0  0  0  0  0  0  0  0  0  0
   -6.4758  -14.8964    0.0000 C   0  0  0  0  0  0  0  0  0  0  0  0
   -7.9647  -15.0792    0.0000 C   0  0  0  0  0  0  0  0  0  0  0  0
   -8.5508  -16.4599    0.0000 C   0  0  0  0  0  0  0  0  0  0  0  0
   -7.6480  -17.6579    0.0000 C   0  0  0  0  0  0  0  0  0  0  0  0
   -6.1592  -17.4751    0.0000 C   0  0  0  0  0  0  0  0  0  0  0  0
   -5.5731  -16.0943    0.0000 C   0  0  0  0  0  0  0  0  0  0  0  0
   -6.7925  -12.3177    0.0000 C   0  0  0  0  0  0  0  0  0  0  0  0
   -6.2064  -10.9369    0.0000 C   0  0  0  0  0  0  0  0  0  0  0  0
  1  2  1  0
  2  3  2  3
  3  4  1  0
  4  5  1  0
  5  6  2  0
  6  7  1  0
  7  8  2  0
  8  9  1  0
  9 10  2  0
 10 11  1  0
 11 12  1  0
 12 13  2  0
 12 14  1  0
 14 15  2  0
 15 16  1  0
 16 17  2  0
 17 18  1  0
  3 19  1  0
 19 20  2  0
 19 21  1  0
 21 22  1  0
 22 23  2  0
 22 24  1  0
 24 25  1  0
 25 26  1  0
 26 27  2  0
 27 28  1  0
 28 29  2  0
 29 30  1  0
 30 31  2  0
 24 32  1  0
 32 33  1  0
 32 34  1  0
 34 35  1  0
 35 36  1  0
 36 37  1  0
 37 38  2  0
 38 39  1  0
 39 40  2  0
 40 41  1  0
 41 42  2  0
 36 43  1  0
 43 44  1  0
 17  5  1  0
 31 26  1  0
 44 32  1  0
 14 10  1  0
 42 37  1  0
M  END
>  <Title>  (166) 
idAAELgen6

$$$$

     RDKit          2D

 22 24  0  0  0  0  0  0  0  0999 V2000
   -4.8556   -7.7934    0.0000 C   0  0  0  0  0  0  0  0  0  0  0  0
   -4.3181   -6.3930    0.0000 C   0  0  0  0  0  0  0  0  0  0  0  0
   -2.8365   -6.6277    0.0000 C   0  0  0  0  0  0  0  0  0  0  0  0
   -1.3877   -6.2395    0.0000 C   0  0  0  0  0  0  0  0  0  0  0  0
   -0.2219   -5.2955    0.0000 C   0  0  0  0  0  0  0  0  0  0  0  0
    0.4590   -3.9590    0.0000 C   0  0  0  0  0  0  0  0  0  0  0  0
    0.5376   -2.4610    0.0000 C   0  0  0  0  0  0  0  0  0  0  0  0
   -0.0000   -1.0607    0.0000 C   0  0  0  0  0  0  0  0  0  0  0  0
    1.0607    0.0000    0.0000 C   0  0  0  0  0  0  0  0  0  0  0  0
    2.5607    0.0000    0.0000 O   0  0  0  0  0  0  0  0  0  0  0  0
    0.0000    1.0607    0.0000 N   0  0  0  0  0  0  0  0  0  0  0  0
   -1.0607    0.0000    0.0000 C   0  0  0  0  0  0  0  0  0  0  0  0
   -2.4610    0.5376    0.0000 C   0  0  0  0  0  0  0  0  0  0  0  0
   -3.9590    0.4590    0.0000 N   0  0  0  0  0  0  0  0  0  0  0  0
   -5.2955   -0.2219    0.0000 C   0  0  0  0  0  0  0  0  0  0  0  0
   -6.4612    0.7220    0.0000 C   0  0  0  0  0  0  0  0  0  0  0  0
   -6.6180    2.2138    0.0000 O   0  0  0  0  0  0  0  0  0  0  0  0
   -7.4052   -0.4437    0.0000 O   0  0  0  0  0  0  0  0  0  0  0  0
   -6.2395   -1.3877    0.0000 C   0  0  0  0  0  0  0  0  0  0  0  0
   -6.6277   -2.8365    0.0000 N   0  0  0  0  0  0  0  0  0  0  0  0
   -6.3930   -4.3181    0.0000 N   0  0  0  0  0  0  0  0  0  0  0  0
   -5.5761   -5.5761    0.0000 N   0  0  0  0  0  0  0  0  0  0  0  0
  1  2  1  0
  2  3  1  0
  3  4  1  0
  4  5  1  0
  5  6  1  0
  6  7  1  0
  7  8  2  0
  8  9  1  0
  9 10  2  0
  9 11  1  0
 11 12  1  0
 12 13  2  0
 13 14  1  0
 14 15  2  0
 15 16  1  0
 16 17  2  0
 16 18  1  0
 18 19  1  0
 19 20  2  0
 20 21  1  0
 21 22  2  0
 22  2  1  0
 12  8  1  0
 19 15  1  0
M  END
>  <Title>  (167) 
idAAEMgen6

$$$$

     RDKit          2D

  6  6  0  0  0  0  0  0  0  0999 V2000
    2.5607    0.0000    0.0000 C   0  0  0  0  0  0  0  0  0  0  0  0
    1.0607    0.0000    0.0000 C   0  0  0  0  0  0  0  0  0  0  0  0
   -0.0000   -1.0607    0.0000 C   0  0  0  0  0  0  0  0  0  0  0  0
   -1.0607    0.0000    0.0000 C   0  0  0  0  0  0  0  0  0  0  0  0
   -2.5607    0.0000    0.0000 C   0  0  0  0  0  0  0  0  0  0  0  0
    0.0000    1.0607    0.0000 C   0  0  0  0  0  0  0  0  0  0  0  0
  1  2  1  0
  2  3  2  0
  3  4  1  0
  4  5  1  0
  4  6  2  0
  6  2  1  0
M  END
>  <Title>  (168) 
idAAENgen6

$$$$

     RDKit          2D

 34 36  0  0  0  0  0  0  0  0999 V2000
    7.2372    6.9916    0.0000 C   0  0  0  0  0  0  0  0  0  0  0  0
    6.3019    5.8189    0.0000 C   0  0  0  0  0  0  0  0  0  0  0  0
    4.8187    6.0424    0.0000 O   0  0  0  0  0  0  0  0  0  0  0  0
    6.8499    4.4226    0.0000 C   0  0  0  0  0  0  0  0  0  0  0  0
    8.3332    4.1990    0.0000 C   0  0  0  0  0  0  0  0  0  0  0  0
    9.2684    5.3718    0.0000 C   0  0  0  0  0  0  0  0  0  0  0  0
   10.7517    5.1482    0.0000 C   0  0  0  0  0  0  0  0  0  0  0  0
   11.6869    6.3209    0.0000 C   0  0  0  0  0  0  0  0  0  0  0  0
   11.1389    7.7172    0.0000 C   0  0  0  0  0  0  0  0  0  0  0  0
    9.6556    7.9408    0.0000 C   0  0  0  0  0  0  0  0  0  0  0  0
    8.7204    6.7681    0.0000 C   0  0  0  0  0  0  0  0  0  0  0  0
    5.9147    3.2498    0.0000 N   0  0  0  0  0  0  0  0  0  0  0  0
    4.4315    3.4734    0.0000 C   0  0  0  0  0  0  0  0  0  0  0  0
    3.8835    4.8697    0.0000 O   0  0  0  0  0  0  0  0  0  0  0  0
    3.4962    2.3006    0.0000 C   0  0  0  0  0  0  0  0  0  0  0  0
    2.0130    2.5242    0.0000 C   0  0  0  0  0  0  0  0  0  0  0  0
    1.0777    1.3515    0.0000 C   0  0  0  0  0  0  0  0  0  0  0  0
    1.7286    0.0000    0.0000 C   0  0  0  0  0  0  0  0  0  0  0  0
    1.0777   -1.3515    0.0000 C   0  0  0  0  0  0  0  0  0  0  0  0
   -0.3846   -1.6852    0.0000 C   0  0  0  0  0  0  0  0  0  0  0  0
   -0.7184   -3.1476    0.0000 O   0  0  0  0  0  0  0  0  0  0  0  0
   -2.1518   -3.5898    0.0000 C   0  0  0  0  0  0  0  0  0  0  0  0
   -3.2514   -2.5695    0.0000 C   0  0  0  0  0  0  0  0  0  0  0  0
   -4.6847   -3.0116    0.0000 C   0  0  0  0  0  0  0  0  0  0  0  0
   -5.0185   -4.4740    0.0000 C   0  0  0  0  0  0  0  0  0  0  0  0
   -3.9189   -5.4943    0.0000 C   0  0  0  0  0  0  0  0  0  0  0  0
   -2.4856   -5.0522    0.0000 C   0  0  0  0  0  0  0  0  0  0  0  0
   -1.5574   -0.7500    0.0000 C   0  0  0  0  0  0  0  0  0  0  0  0
   -1.5574    0.7500    0.0000 C   0  0  0  0  0  0  0  0  0  0  0  0
   -2.9088    1.4008    0.0000 O   0  0  0  0  0  0  0  0  0  0  0  0
   -0.3846    1.6852    0.0000 N   0  0  0  0  0  0  0  0  0  0  0  0
    4.0442    0.9043    0.0000 C   0  0  0  0  0  0  0  0  0  0  0  0
    3.1090   -0.2684    0.0000 O   0  0  0  0  0  0  0  0  0  0  0  0
    5.5275    0.6808    0.0000 O   0  0  0  0  0  0  0  0  0  0  0  0
  1  2  1  0
  2  3  2  0
  2  4  1  0
  4  5  1  0
  5  6  1  0
  6  7  2  0
  7  8  1  0
  8  9  2  0
  9 10  1  0
 10 11  2  0
  4 12  1  0
 12 13  1  0
 13 14  2  0
 13 15  1  0
 15 16  1  0
 16 17  1  0
 17 18  2  0
 18 19  1  0
 19 20  2  0
 20 21  1  0
 21 22  1  0
 22 23  2  0
 23 24  1  0
 24 25  2  0
 25 26  1  0
 26 27  2  0
 20 28  1  0
 28 29  1  0
 29 30  2  0
 29 31  1  0
 15 32  1  0
 32 33  2  0
 32 34  1  0
 11  6  1  0
 31 17  1  0
 27 22  1  0
M  END
>  <Title>  (169) 
idAAEOgen6

$$$$

     RDKit          2D

 23 25  0  0  0  0  0  0  0  0999 V2000
   -3.7579    8.8906    0.0000 C   0  0  0  0  0  0  0  0  0  0  0  0
   -3.7579    7.3906    0.0000 C   0  0  0  0  0  0  0  0  0  0  0  0
   -2.4589    6.6406    0.0000 C   0  0  0  0  0  0  0  0  0  0  0  0
   -2.4589    5.1406    0.0000 C   0  0  0  0  0  0  0  0  0  0  0  0
   -3.8855    5.6041    0.0000 C   0  0  0  0  0  0  0  0  0  0  0  0
   -1.0323    5.6041    0.0000 C   0  0  0  0  0  0  0  0  0  0  0  0
    0.3943    5.1406    0.0000 C   0  0  0  0  0  0  0  0  0  0  0  0
    1.2760    3.9271    0.0000 C   0  0  0  0  0  0  0  0  0  0  0  0
    1.2760    2.4271    0.0000 C   0  0  0  0  0  0  0  0  0  0  0  0
    0.3943    1.2135    0.0000 C   0  0  0  0  0  0  0  0  0  0  0  0
    1.2760    0.0000    0.0000 C   0  0  0  0  0  0  0  0  0  0  0  0
    0.3943   -1.2135    0.0000 C   0  0  0  0  0  0  0  0  0  0  0  0
   -1.0323   -0.7500    0.0000 C   0  0  0  0  0  0  0  0  0  0  0  0
   -1.0323    0.7500    0.0000 C   0  0  0  0  0  0  0  0  0  0  0  0
   -2.4589    1.2135    0.0000 C   0  0  0  0  0  0  0  0  0  0  0  0
   -3.3405    2.4271    0.0000 C   0  0  0  0  0  0  0  0  0  0  0  0
   -4.7671    1.9635    0.0000 C   0  0  0  0  0  0  0  0  0  0  0  0
   -5.8819    2.9672    0.0000 C   0  0  0  0  0  0  0  0  0  0  0  0
   -7.3491    2.6554    0.0000 C   0  0  0  0  0  0  0  0  0  0  0  0
   -8.0991    3.9544    0.0000 C   0  0  0  0  0  0  0  0  0  0  0  0
   -7.0954    5.0691    0.0000 C   0  0  0  0  0  0  0  0  0  0  0  0
   -5.7251    4.4590    0.0000 C   0  0  0  0  0  0  0  0  0  0  0  0
   -3.3405    3.9271    0.0000 C   0  0  0  0  0  0  0  0  0  0  0  0
  1  2  1  0
  2  3  1  0
  3  4  1  0
  4  5  1  0
  4  6  1  0
  6  7  2  0
  7  8  1  0
  8  9  2  0
  9 10  1  0
 10 11  2  0
 11 12  1  0
 12 13  2  0
 13 14  1  0
 14 15  1  0
 15 16  1  0
 16 17  1  0
 17 18  1  0
 18 19  2  0
 19 20  1  0
 20 21  2  0
 21 22  1  0
 16 23  1  0
 23  4  1  0
 14 10  1  0
 22 18  1  0
M  END
>  <Title>  (170) 
idAAEPgen6

$$$$

     RDKit          2D

  6  5  0  0  0  0  0  0  0  0999 V2000
    0.0000    0.0000    0.0000 C   0  0  0  0  0  0  0  0  0  0  0  0
    1.2990    0.7500    0.0000 C   0  0  0  0  0  0  0  0  0  0  0  0
    1.2990    2.2500    0.0000 O   0  0  0  0  0  0  0  0  0  0  0  0
    2.5981   -0.0000    0.0000 C   0  0  0  0  0  0  0  0  0  0  0  0
    3.8971    0.7500    0.0000 C   0  0  0  0  0  0  0  0  0  0  0  0
    2.5981   -1.5000    0.0000 C   0  0  0  0  0  0  0  0  0  0  0  0
  1  2  1  0
  2  3  2  0
  2  4  1  0
  4  5  1  0
  4  6  1  0
M  END
>  <Title>  (171) 
idAAEQgen6

$$$$

     RDKit          2D

 58 65  0  0  0  0  0  0  0  0999 V2000
    9.1103    6.0689    0.0000 C   0  0  0  0  0  0  0  0  0  0  0  0
    7.9203    5.1557    0.0000 C   0  0  0  0  0  0  0  0  0  0  0  0
    8.1161    3.6686    0.0000 C   0  0  0  0  0  0  0  0  0  0  0  0
    9.5019    3.0945    0.0000 C   0  0  0  0  0  0  0  0  0  0  0  0
    9.6977    1.6074    0.0000 C   0  0  0  0  0  0  0  0  0  0  0  0
   11.0835    1.0333    0.0000 C   0  0  0  0  0  0  0  0  0  0  0  0
   11.2793   -0.4538    0.0000 C   0  0  0  0  0  0  0  0  0  0  0  0
   10.0893   -1.3670    0.0000 C   0  0  0  0  0  0  0  0  0  0  0  0
    8.7034   -0.7929    0.0000 C   0  0  0  0  0  0  0  0  0  0  0  0
    8.5076    0.6942    0.0000 C   0  0  0  0  0  0  0  0  0  0  0  0
    7.1218    1.2682    0.0000 C   0  0  0  0  0  0  0  0  0  0  0  0
    6.9260    2.7554    0.0000 C   0  0  0  0  0  0  0  0  0  0  0  0
    5.5402    3.3294    0.0000 C   0  0  0  0  0  0  0  0  0  0  0  0
    4.3502    2.4163    0.0000 C   0  0  0  0  0  0  0  0  0  0  0  0
    4.5460    0.9291    0.0000 C   0  0  0  0  0  0  0  0  0  0  0  0
    5.9318    0.3551    0.0000 C   0  0  0  0  0  0  0  0  0  0  0  0
    6.1276   -1.1321    0.0000 C   0  0  0  0  0  0  0  0  0  0  0  0
    7.5134   -1.7061    0.0000 C   0  0  0  0  0  0  0  0  0  0  0  0
    7.7092   -3.1933    0.0000 C   0  0  0  0  0  0  0  0  0  0  0  0
    6.5192   -4.1064    0.0000 C   0  0  0  0  0  0  0  0  0  0  0  0
    5.1333   -3.5324    0.0000 C   0  0  0  0  0  0  0  0  0  0  0  0
    4.9376   -2.0452    0.0000 C   0  0  0  0  0  0  0  0  0  0  0  0
    3.5517   -1.4712    0.0000 C   0  0  0  0  0  0  0  0  0  0  0  0
    3.3559    0.0160    0.0000 C   0  0  0  0  0  0  0  0  0  0  0  0
    1.9701    0.5900    0.0000 C   0  0  0  0  0  0  0  0  0  0  0  0
    0.7801   -0.3231    0.0000 C   0  0  0  0  0  0  0  0  0  0  0  0
    0.9759   -1.8103    0.0000 C   0  0  0  0  0  0  0  0  0  0  0  0
    2.3617   -2.3843    0.0000 C   0  0  0  0  0  0  0  0  0  0  0  0
    2.5575   -3.8715    0.0000 C   0  0  0  0  0  0  0  0  0  0  0  0
    3.9433   -4.4455    0.0000 C   0  0  0  0  0  0  0  0  0  0  0  0
    4.1391   -5.9327    0.0000 C   0  0  0  0  0  0  0  0  0  0  0  0
    2.9491   -6.8458    0.0000 C   0  0  0  0  0  0  0  0  0  0  0  0
    1.5633   -6.2718    0.0000 C   0  0  0  0  0  0  0  0  0  0  0  0
    1.3675   -4.7846    0.0000 C   0  0  0  0  0  0  0  0  0  0  0  0
   -0.0184   -4.2106    0.0000 C   0  0  0  0  0  0  0  0  0  0  0  0
   -0.2141   -2.7234    0.0000 C   0  0  0  0  0  0  0  0  0  0  0  0
   -1.6000   -2.1494    0.0000 C   0  0  0  0  0  0  0  0  0  0  0  0
   -2.7900   -3.0626    0.0000 C   0  0  0  0  0  0  0  0  0  0  0  0
   -2.5942   -4.5497    0.0000 C   0  0  0  0  0  0  0  0  0  0  0  0
   -1.2084   -5.1237    0.0000 C   0  0  0  0  0  0  0  0  0  0  0  0
   -1.0126   -6.6109    0.0000 N   0  0  0  0  0  0  0  0  0  0  0  0
   -2.4330   -7.0931    0.0000 C   0  0  0  0  0  0  0  0  0  0  0  0
   -3.5607   -8.0821    0.0000 C   0  0  0  0  0  0  0  0  0  0  0  0
   -4.2242   -9.4274    0.0000 C   0  0  0  0  0  0  0  0  0  0  0  0
   -4.3223  -10.9242    0.0000 C   0  0  0  0  0  0  0  0  0  0  0  0
   -3.8401  -12.3446    0.0000 C   0  0  0  0  0  0  0  0  0  0  0  0
   -2.8511  -13.4723    0.0000 C   0  0  0  0  0  0  0  0  0  0  0  0
   -1.5058  -14.1358    0.0000 C   0  0  0  0  0  0  0  0  0  0  0  0
   -0.0090  -14.2339    0.0000 C   0  0  0  0  0  0  0  0  0  0  0  0
    1.4114  -13.7517    0.0000 C   0  0  0  0  0  0  0  0  0  0  0  0
    2.5391  -12.7627    0.0000 C   0  0  0  0  0  0  0  0  0  0  0  0
    3.2026  -11.4174    0.0000 C   0  0  0  0  0  0  0  0  0  0  0  0
    3.3007   -9.9206    0.0000 C   0  0  0  0  0  0  0  0  0  0  0  0
    2.8185   -8.5002    0.0000 C   0  0  0  0  0  0  0  0  0  0  0  0
    1.8295   -7.3725    0.0000 C   0  0  0  0  0  0  0  0  0  0  0  0
    0.4842   -6.7090    0.0000 C   0  0  0  0  0  0  0  0  0  0  0  0
   10.6919    4.0077    0.0000 C   0  0  0  0  0  0  0  0  0  0  0  0
   10.4961    5.4948    0.0000 C   0  0  0  0  0  0  0  0  0  0  0  0
  1  2  2  0
  2  3  1  0
  3  4  2  0
  4  5  1  0
  5  6  2  0
  6  7  1  0
  7  8  2  0
  8  9  1  0
  9 10  2  0
 10 11  1  0
 11 12  2  0
 12 13  1  0
 13 14  2  0
 14 15  1  0
 15 16  2  0
 16 17  1  0
 17 18  2  0
 18 19  1  0
 19 20  2  0
 20 21  1  0
 21 22  2  0
 22 23  1  0
 23 24  2  0
 24 25  1  0
 25 26  2  0
 26 27  1  0
 27 28  2  0
 28 29  1  0
 29 30  2  0
 30 31  1  0
 31 32  2  0
 32 33  1  0
 33 34  2  0
 34 35  1  0
 35 36  2  0
 36 37  1  0
 37 38  2  0
 38 39  1  0
 39 40  2  0
 40 41  1  0
 41 42  1  0
 42 43  1  0
 43 44  1  0
 44 45  1  0
 45 46  1  0
 46 47  1  0
 47 48  1  0
 48 49  1  0
 49 50  1  0
 50 51  1  0
 51 52  1  0
 52 53  1  0
 53 54  1  0
 54 55  1  0
 55 56  1  0
  4 57  1  0
 57 58  2  0
 58  1  1  0
 10  5  1  0
 16 11  1  0
 22 17  1  0
 28 23  1  0
 34 29  1  0
 40 35  1  0
 56 41  1  0
M  END
>  <Title>  (172) 
idAAERgen6

$$$$

     RDKit          2D

  3  2  0  0  0  0  0  0  0  0999 V2000
    0.0000    0.0000    0.0000 C   0  0  0  0  0  0  0  0  0  0  0  0
    1.2990    0.7500    0.0000 N   0  0  0  0  0  0  0  0  0  0  0  0
    2.5981   -0.0000    0.0000 C   0  0  0  0  0  0  0  0  0  0  0  0
  1  2  1  0
  2  3  1  0
M  END
>  <Title>  (173) 
idAAESgen6

$$$$

     RDKit          2D

  8  8  0  0  0  0  0  0  0  0999 V2000
    3.5260   -1.2990    0.0000 C   0  0  0  0  0  0  0  0  0  0  0  0
    2.7760    0.0000    0.0000 C   0  0  0  0  0  0  0  0  0  0  0  0
    3.5260    1.2990    0.0000 O   0  0  0  0  0  0  0  0  0  0  0  0
    1.2760    0.0000    0.0000 C   0  0  0  0  0  0  0  0  0  0  0  0
    0.3943    1.2135    0.0000 C   0  0  0  0  0  0  0  0  0  0  0  0
   -1.0323    0.7500    0.0000 C   0  0  0  0  0  0  0  0  0  0  0  0
   -1.0323   -0.7500    0.0000 C   0  0  0  0  0  0  0  0  0  0  0  0
    0.3943   -1.2135    0.0000 C   0  0  0  0  0  0  0  0  0  0  0  0
  1  2  2  0
  2  3  1  0
  2  4  1  0
  4  5  2  0
  5  6  1  0
  6  7  1  0
  7  8  2  0
  8  4  1  0
M  END
>  <Title>  (174) 
idAAETgen6

$$$$

     RDKit          2D

  7  7  0  0  0  0  0  0  0  0999 V2000
    3.0000    0.0000    0.0000 C   0  0  0  0  0  0  0  0  0  0  0  0
    1.5000    0.0000    0.0000 C   0  0  0  0  0  0  0  0  0  0  0  0
    0.7500   -1.2990    0.0000 C   0  0  0  0  0  0  0  0  0  0  0  0
   -0.7500   -1.2990    0.0000 C   0  0  0  0  0  0  0  0  0  0  0  0
   -1.5000    0.0000    0.0000 C   0  0  0  0  0  0  0  0  0  0  0  0
   -0.7500    1.2990    0.0000 C   0  0  0  0  0  0  0  0  0  0  0  0
    0.7500    1.2990    0.0000 C   0  0  0  0  0  0  0  0  0  0  0  0
  1  2  1  0
  2  3  2  0
  3  4  1  0
  4  5  2  0
  5  6  1  0
  6  7  2  0
  7  2  1  0
M  END
>  <Title>  (175) 
idAAEUgen6

$$$$

     RDKit          2D

  8  7  0  0  0  0  0  0  0  0999 V2000
    0.0000    0.0000    0.0000 C   0  0  0  0  0  0  0  0  0  0  0  0
    1.2990    0.7500    0.0000 C   0  0  0  0  0  0  0  0  0  0  0  0
    2.5981   -0.0000    0.0000 C   0  0  0  0  0  0  0  0  0  0  0  0
    3.8971    0.7500    0.0000 C   0  0  0  0  0  0  0  0  0  0  0  0
    5.1962   -0.0000    0.0000 C   0  0  0  0  0  0  0  0  0  0  0  0
    6.4952    0.7500    0.0000 C   0  0  0  0  0  0  0  0  0  0  0  0
    6.4952    2.2500    0.0000 O   0  0  0  0  0  0  0  0  0  0  0  0
    7.7942   -0.0000    0.0000 O   0  0  0  0  0  0  0  0  0  0  0  0
  1  2  1  0
  2  3  2  3
  3  4  1  0
  4  5  1  0
  5  6  1  0
  6  7  2  0
  6  8  1  0
M  END
>  <Title>  (176) 
idAAEVgen6

$$$$

     RDKit          2D

  8  7  0  0  0  0  0  0  0  0999 V2000
    0.0000    0.0000    0.0000 C   0  0  0  0  0  0  0  0  0  0  0  0
   -0.0000   -1.5000    0.0000 C   0  0  0  0  0  0  0  0  0  0  0  0
   -0.0000   -3.0000    0.0000 N   0  0  0  0  0  0  0  0  0  0  0  0
    1.2990   -3.7500    0.0000 C   0  0  0  0  0  0  0  0  0  0  0  0
   -1.2990   -3.7500    0.0000 C   0  0  0  0  0  0  0  0  0  0  0  0
   -2.5981   -3.0000    0.0000 C   0  0  0  0  0  0  0  0  0  0  0  0
   -3.8971   -3.7500    0.0000 C   0  0  0  0  0  0  0  0  0  0  0  0
   -2.5981   -1.5000    0.0000 O   0  0  0  0  0  0  0  0  0  0  0  0
  1  2  3  0
  2  3  1  0
  3  4  1  0
  3  5  1  0
  5  6  1  0
  6  7  1  0
  6  8  2  0
M  END
>  <Title>  (177) 
idAAEWgen6

$$$$

     RDKit          2D

 17 17  0  0  0  0  0  0  0  0999 V2000
    4.0816    0.0000    0.0000 C   0  0  0  0  0  0  0  0  0  0  0  0
    3.8060    1.4745    0.0000 C   0  0  0  0  0  0  0  0  0  0  0  0
    3.0164    2.7498    0.0000 C   0  0  0  0  0  0  0  0  0  0  0  0
    1.8193    3.6537    0.0000 C   0  0  0  0  0  0  0  0  0  0  0  0
    0.3766    4.0642    0.0000 C   0  0  0  0  0  0  0  0  0  0  0  0
   -1.1170    3.9258    0.0000 C   0  0  0  0  0  0  0  0  0  0  0  0
   -2.4597    3.2572    0.0000 C   0  0  0  0  0  0  0  0  0  0  0  0
   -3.4703    2.1487    0.0000 C   0  0  0  0  0  0  0  0  0  0  0  0
   -4.0121    0.7500    0.0000 C   0  0  0  0  0  0  0  0  0  0  0  0
   -4.0121   -0.7500    0.0000 C   0  0  0  0  0  0  0  0  0  0  0  0
   -3.4703   -2.1487    0.0000 C   0  0  0  0  0  0  0  0  0  0  0  0
   -2.4597   -3.2572    0.0000 C   0  0  0  0  0  0  0  0  0  0  0  0
   -1.1170   -3.9258    0.0000 C   0  0  0  0  0  0  0  0  0  0  0  0
    0.3766   -4.0642    0.0000 C   0  0  0  0  0  0  0  0  0  0  0  0
    1.8193   -3.6537    0.0000 C   0  0  0  0  0  0  0  0  0  0  0  0
    3.0164   -2.7498    0.0000 C   0  0  0  0  0  0  0  0  0  0  0  0
    3.8060   -1.4745    0.0000 C   0  0  0  0  0  0  0  0  0  0  0  0
  1  2  1  0
  2  3  1  0
  3  4  1  0
  4  5  1  0
  5  6  1  0
  6  7  1  0
  7  8  1  0
  8  9  1  0
  9 10  1  0
 10 11  1  0
 11 12  1  0
 12 13  1  0
 13 14  1  0
 14 15  1  0
 15 16  1  0
 16 17  1  0
 17  1  1  0
M  END
>  <Title>  (178) 
idAAEXgen6

$$$$

     RDKit          2D

 10  9  0  0  0  0  0  0  0  0999 V2000
    0.0000    0.0000    0.0000 C   0  0  0  0  0  0  0  0  0  0  0  0
    1.2990    0.7500    0.0000 C   0  0  0  0  0  0  0  0  0  0  0  0
    2.5981   -0.0000    0.0000 C   0  0  0  0  0  0  0  0  0  0  0  0
    1.2990    2.2500    0.0000 C   0  0  0  0  0  0  0  0  0  0  0  0
    2.5981    3.0000    0.0000 C   0  0  0  0  0  0  0  0  0  0  0  0
    3.8971    3.7500    0.0000 C   0  0  0  0  0  0  0  0  0  0  0  0
    5.1962    4.5000    0.0000 C   0  0  0  0  0  0  0  0  0  0  0  0
    6.4952    5.2500    0.0000 C   0  0  0  0  0  0  0  0  0  0  0  0
    7.7942    6.0000    0.0000 C   0  0  0  0  0  0  0  0  0  0  0  0
    9.0933    6.7500    0.0000 N   0  0  0  0  0  0  0  0  0  0  0  0
  1  2  1  0
  2  3  1  0
  2  4  1  0
  4  5  1  0
  5  6  3  0
  6  7  1  0
  7  8  3  0
  8  9  1  0
  9 10  3  0
M  END
>  <Title>  (179) 
idAAEYgen6

$$$$

     RDKit          2D

 21 23  0  0  0  0  0  0  0  0999 V2000
    3.0000    0.0000    0.0000 C   0  0  0  0  0  0  0  0  0  0  0  0
    1.5000    0.0000    0.0000 C   0  0  0  0  0  0  0  0  0  0  0  0
    0.7500   -1.2990    0.0000 C   0  0  0  0  0  0  0  0  0  0  0  0
   -0.7500   -1.2990    0.0000 C   0  0  0  0  0  0  0  0  0  0  0  0
   -1.5000    0.0000    0.0000 C   0  0  0  0  0  0  0  0  0  0  0  0
   -3.0000    0.0000    0.0000 C   0  0  0  0  0  0  0  0  0  0  0  0
   -3.8817   -1.2135    0.0000 C   0  0  0  0  0  0  0  0  0  0  0  0
   -5.3083   -0.7500    0.0000 C   0  0  0  0  0  0  0  0  0  0  0  0
   -5.3083    0.7500    0.0000 C   0  0  0  0  0  0  0  0  0  0  0  0
   -6.5218    1.6317    0.0000 N   0  0  0  0  0  0  0  0  0  0  0  0
   -6.3650    3.1235    0.0000 C   0  0  0  0  0  0  0  0  0  0  0  0
   -4.9947    3.7336    0.0000 O   0  0  0  0  0  0  0  0  0  0  0  0
   -7.5785    4.0051    0.0000 C   0  0  0  0  0  0  0  0  0  0  0  0
   -7.4217    5.4969    0.0000 C   0  0  0  0  0  0  0  0  0  0  0  0
   -8.6353    6.3786    0.0000 C   0  0  0  0  0  0  0  0  0  0  0  0
  -10.0056    5.7685    0.0000 C   0  0  0  0  0  0  0  0  0  0  0  0
  -10.1624    4.2767    0.0000 C   0  0  0  0  0  0  0  0  0  0  0  0
   -8.9488    3.3950    0.0000 C   0  0  0  0  0  0  0  0  0  0  0  0
   -3.8817    1.2135    0.0000 C   0  0  0  0  0  0  0  0  0  0  0  0
   -0.7500    1.2990    0.0000 C   0  0  0  0  0  0  0  0  0  0  0  0
    0.7500    1.2990    0.0000 C   0  0  0  0  0  0  0  0  0  0  0  0
  1  2  1  0
  2  3  1  0
  3  4  1  0
  4  5  1  0
  5  6  1  0
  6  7  2  0
  7  8  1  0
  8  9  2  0
  9 10  1  0
 10 11  1  0
 11 12  2  0
 11 13  1  0
 13 14  2  0
 14 15  1  0
 15 16  2  0
 16 17  1  0
 17 18  2  0
  9 19  1  0
  5 20  1  0
 20 21  1  0
 21  2  1  0
 19  6  1  0
 18 13  1  0
M  END
>  <Title>  (180) 
idAAEZgen6

$$$$

     RDKit          2D

 37 41  0  0  0  0  0  0  0  0999 V2000
  -10.5000   -5.1962    0.0000 O   0  0  0  0  0  0  0  0  0  0  0  0
   -9.7500   -3.8971    0.0000 C   0  0  0  0  0  0  0  0  0  0  0  0
  -10.5000   -2.5981    0.0000 N   0  0  0  0  0  0  0  0  0  0  0  0
  -12.0000   -2.5981    0.0000 C   0  0  0  0  0  0  0  0  0  0  0  0
  -12.7500   -1.2990    0.0000 N   0  0  0  0  0  0  0  0  0  0  0  0
  -14.2500   -1.2990    0.0000 N   0  0  0  0  0  0  0  0  0  0  0  0
  -15.0000   -2.5981    0.0000 N   0  0  0  0  0  0  0  0  0  0  0  0
  -14.2500   -3.8971    0.0000 N   0  0  0  0  0  0  0  0  0  0  0  0
  -12.7500   -3.8971    0.0000 N   0  0  0  0  0  0  0  0  0  0  0  0
   -8.2500   -3.8971    0.0000 C   0  0  0  0  0  0  0  0  0  0  0  0
   -7.5000   -5.1962    0.0000 C   0  0  0  0  0  0  0  0  0  0  0  0
   -6.0000   -5.1962    0.0000 C   0  0  0  0  0  0  0  0  0  0  0  0
   -5.2500   -3.8971    0.0000 C   0  0  0  0  0  0  0  0  0  0  0  0
   -3.7500   -3.8971    0.0000 N   0  0  0  0  0  0  0  0  0  0  0  0
   -3.0000   -2.5981    0.0000 C   0  0  0  0  0  0  0  0  0  0  0  0
   -3.7500   -1.2990    0.0000 O   0  0  0  0  0  0  0  0  0  0  0  0
   -1.5000   -2.5981    0.0000 N   0  0  0  0  0  0  0  0  0  0  0  0
   -0.7500   -3.8971    0.0000 C   0  0  0  0  0  0  0  0  0  0  0  0
    0.7500   -3.8971    0.0000 C   0  0  0  0  0  0  0  0  0  0  0  0
    1.5000   -2.5981    0.0000 C   0  0  0  0  0  0  0  0  0  0  0  0
    3.0000   -2.5981    0.0000 C   0  0  0  0  0  0  0  0  0  0  0  0
    3.7500   -1.2990    0.0000 O   0  0  0  0  0  0  0  0  0  0  0  0
    3.7500   -3.8971    0.0000 N   0  0  0  0  0  0  0  0  0  0  0  0
    5.2500   -3.8971    0.0000 C   0  0  0  0  0  0  0  0  0  0  0  0
    6.0000   -5.1962    0.0000 N   0  0  0  0  0  0  0  0  0  0  0  0
    7.5000   -5.1962    0.0000 N   0  0  0  0  0  0  0  0  0  0  0  0
    8.2500   -3.8971    0.0000 N   0  0  0  0  0  0  0  0  0  0  0  0
    7.5000   -2.5981    0.0000 N   0  0  0  0  0  0  0  0  0  0  0  0
    6.0000   -2.5981    0.0000 N   0  0  0  0  0  0  0  0  0  0  0  0
    0.7500   -1.2990    0.0000 C   0  0  0  0  0  0  0  0  0  0  0  0
    1.5000    0.0000    0.0000 C   0  0  0  0  0  0  0  0  0  0  0  0
    0.7500    1.2990    0.0000 C   0  0  0  0  0  0  0  0  0  0  0  0
   -0.7500    1.2990    0.0000 C   0  0  0  0  0  0  0  0  0  0  0  0
   -1.5000    0.0000    0.0000 C   0  0  0  0  0  0  0  0  0  0  0  0
   -0.7500   -1.2990    0.0000 C   0  0  0  0  0  0  0  0  0  0  0  0
   -6.0000   -2.5981    0.0000 C   0  0  0  0  0  0  0  0  0  0  0  0
   -7.5000   -2.5981    0.0000 C   0  0  0  0  0  0  0  0  0  0  0  0
  1  2  2  0
  2  3  1  0
  3  4  1  0
  4  5  2  0
  5  6  1  0
  6  7  2  0
  7  8  1  0
  8  9  2  0
  2 10  1  0
 10 11  1  0
 11 12  1  0
 12 13  1  0
 13 14  1  0
 14 15  1  0
 15 16  2  0
 15 17  1  0
 17 18  1  0
 18 19  1  0
 19 20  1  0
 20 21  1  0
 21 22  2  0
 21 23  1  0
 23 24  1  0
 24 25  2  0
 25 26  1  0
 26 27  2  0
 27 28  1  0
 28 29  2  0
 20 30  1  0
 30 31  2  0
 31 32  1  0
 32 33  2  0
 33 34  1  0
 34 35  2  0
 13 36  1  0
 36 37  1  0
  9  4  1  0
 37 10  1  0
 35 17  1  0
 29 24  1  0
 35 30  1  0
M  END
>  <Title>  (181) 
idAAFAgen6

$$$$

     RDKit          2D

 26 29  0  0  0  0  0  0  0  0999 V2000
   -3.1476   -2.1380    0.0000 C   0  0  0  0  0  0  0  0  0  0  0  0
   -1.6852   -2.4718    0.0000 C   0  0  0  0  0  0  0  0  0  0  0  0
   -1.3515   -3.9342    0.0000 C   0  0  0  0  0  0  0  0  0  0  0  0
   -0.0000   -4.5850    0.0000 C   0  0  0  0  0  0  0  0  0  0  0  0
    1.3515   -3.9342    0.0000 C   0  0  0  0  0  0  0  0  0  0  0  0
    1.6852   -2.4718    0.0000 C   0  0  0  0  0  0  0  0  0  0  0  0
    3.1476   -2.1380    0.0000 C   0  0  0  0  0  0  0  0  0  0  0  0
    4.4177   -2.9361    0.0000 C   0  0  0  0  0  0  0  0  0  0  0  0
    5.2158   -1.6660    0.0000 C   0  0  0  0  0  0  0  0  0  0  0  0
    6.6782   -1.3322    0.0000 C   0  0  0  0  0  0  0  0  0  0  0  0
    7.1203    0.1012    0.0000 O   0  0  0  0  0  0  0  0  0  0  0  0
    7.6984   -2.4318    0.0000 N   0  0  0  0  0  0  0  0  0  0  0  0
    9.1608   -2.0980    0.0000 C   0  0  0  0  0  0  0  0  0  0  0  0
   10.1811   -3.1976    0.0000 N   0  0  0  0  0  0  0  0  0  0  0  0
   11.6435   -2.8638    0.0000 N   0  0  0  0  0  0  0  0  0  0  0  0
   12.0856   -1.4304    0.0000 N   0  0  0  0  0  0  0  0  0  0  0  0
   11.0653   -0.3308    0.0000 N   0  0  0  0  0  0  0  0  0  0  0  0
    9.6029   -0.6646    0.0000 N   0  0  0  0  0  0  0  0  0  0  0  0
    3.9457   -0.8679    0.0000 C   0  0  0  0  0  0  0  0  0  0  0  0
    0.7500   -1.2990    0.0000 C   0  0  0  0  0  0  0  0  0  0  0  0
    1.5000    0.0000    0.0000 C   0  0  0  0  0  0  0  0  0  0  0  0
    0.7500    1.2990    0.0000 C   0  0  0  0  0  0  0  0  0  0  0  0
   -0.7500    1.2990    0.0000 C   0  0  0  0  0  0  0  0  0  0  0  0
   -1.5000    2.5981    0.0000 O   0  0  0  0  0  0  0  0  0  0  0  0
   -1.5000    0.0000    0.0000 C   0  0  0  0  0  0  0  0  0  0  0  0
   -0.7500   -1.2990    0.0000 C   0  0  0  0  0  0  0  0  0  0  0  0
  1  2  1  0
  2  3  1  0
  3  4  2  0
  4  5  1  0
  5  6  2  0
  6  7  1  0
  7  8  1  0
  8  9  1  0
  9 10  1  0
 10 11  2  0
 10 12  1  0
 12 13  1  0
 13 14  2  0
 14 15  1  0
 15 16  2  0
 16 17  1  0
 17 18  2  0
  9 19  1  0
  6 20  1  0
 20 21  2  0
 21 22  1  0
 22 23  2  0
 23 24  1  0
 23 25  1  0
 25 26  2  0
 26  2  1  0
 19  7  1  0
 26 20  1  0
 18 13  1  0
M  END
>  <Title>  (182) 
idAAFBgen6

$$$$

     RDKit          2D

 11 10  0  0  0  0  0  0  0  0999 V2000
    0.0000    0.0000    0.0000 C   0  0  0  0  0  0  0  0  0  0  0  0
    1.2990    0.7500    0.0000 C   0  0  0  0  0  0  0  0  0  0  0  0
    2.5981   -0.0000    0.0000 C   0  0  0  0  0  0  0  0  0  0  0  0
    3.8971    0.7500    0.0000 C   0  0  0  0  0  0  0  0  0  0  0  0
    5.1962   -0.0000    0.0000 C   0  0  0  0  0  0  0  0  0  0  0  0
    6.4952    0.7500    0.0000 C   0  0  0  0  0  0  0  0  0  0  0  0
    7.7942   -0.0000    0.0000 C   0  0  0  0  0  0  0  0  0  0  0  0
    9.0933    0.7500    0.0000 C   0  0  0  0  0  0  0  0  0  0  0  0
   10.3923    1.5000    0.0000 C   0  0  0  0  0  0  0  0  0  0  0  0
   11.6913    2.2500    0.0000 C   0  0  0  0  0  0  0  0  0  0  0  0
   12.9904    3.0000    0.0000 N   0  0  0  0  0  0  0  0  0  0  0  0
  1  2  1  0
  2  3  1  0
  3  4  1  0
  4  5  1  0
  5  6  1  0
  6  7  1  0
  7  8  1  0
  8  9  3  0
  9 10  1  0
 10 11  3  0
M  END
>  <Title>  (183) 
idAAFCgen6

$$$$

     RDKit          2D

 50 56  0  0  0  0  0  0  0  0999 V2000
   -3.3410   -1.8498    0.0000 C   0  0  0  0  0  0  0  0  0  0  0  0
   -1.8991   -2.2632    0.0000 C   0  0  0  0  0  0  0  0  0  0  0  0
   -2.1595   -3.7404    0.0000 C   0  0  0  0  0  0  0  0  0  0  0  0
   -1.4095   -5.0395    0.0000 C   0  0  0  0  0  0  0  0  0  0  0  0
   -0.0000   -5.5525    0.0000 C   0  0  0  0  0  0  0  0  0  0  0  0
    1.4095   -5.0395    0.0000 C   0  0  0  0  0  0  0  0  0  0  0  0
    2.1595   -3.7404    0.0000 C   0  0  0  0  0  0  0  0  0  0  0  0
    1.8991   -2.2632    0.0000 C   0  0  0  0  0  0  0  0  0  0  0  0
    3.1981   -1.5132    0.0000 C   0  0  0  0  0  0  0  0  0  0  0  0
    3.1981   -0.0132    0.0000 O   0  0  0  0  0  0  0  0  0  0  0  0
    4.4971   -2.2632    0.0000 N   0  0  0  0  0  0  0  0  0  0  0  0
    5.7962   -1.5132    0.0000 C   0  0  0  0  0  0  0  0  0  0  0  0
    5.9530   -0.0214    0.0000 N   0  0  0  0  0  0  0  0  0  0  0  0
    7.4202    0.2904    0.0000 N   0  0  0  0  0  0  0  0  0  0  0  0
    8.1702   -1.0086    0.0000 N   0  0  0  0  0  0  0  0  0  0  0  0
    7.1665   -2.1233    0.0000 N   0  0  0  0  0  0  0  0  0  0  0  0
    7.4784   -3.5905    0.0000 C   0  0  0  0  0  0  0  0  0  0  0  0
    6.3636   -4.5942    0.0000 C   0  0  0  0  0  0  0  0  0  0  0  0
    6.6755   -6.0615    0.0000 C   0  0  0  0  0  0  0  0  0  0  0  0
    8.1021   -6.5250    0.0000 C   0  0  0  0  0  0  0  0  0  0  0  0
    9.2168   -5.5213    0.0000 C   0  0  0  0  0  0  0  0  0  0  0  0
    8.9050   -4.0541    0.0000 C   0  0  0  0  0  0  0  0  0  0  0  0
   10.0197   -3.0504    0.0000 C   0  0  0  0  0  0  0  0  0  0  0  0
   11.4463   -3.5139    0.0000 C   0  0  0  0  0  0  0  0  0  0  0  0
   12.5610   -2.5102    0.0000 C   0  0  0  0  0  0  0  0  0  0  0  0
   12.2491   -1.0430    0.0000 C   0  0  0  0  0  0  0  0  0  0  0  0
   13.3638   -0.0393    0.0000 C   0  0  0  0  0  0  0  0  0  0  0  0
   14.4785    0.9644    0.0000 N   0  0  0  0  0  0  0  0  0  0  0  0
   10.8225   -0.5795    0.0000 C   0  0  0  0  0  0  0  0  0  0  0  0
    9.7078   -1.5832    0.0000 C   0  0  0  0  0  0  0  0  0  0  0  0
    0.7500   -1.2990    0.0000 C   0  0  0  0  0  0  0  0  0  0  0  0
    1.5000    0.0000    0.0000 C   0  0  0  0  0  0  0  0  0  0  0  0
    0.7500    1.2990    0.0000 C   0  0  0  0  0  0  0  0  0  0  0  0
   -0.7500    1.2990    0.0000 C   0  0  0  0  0  0  0  0  0  0  0  0
   -1.5000    0.0000    0.0000 C   0  0  0  0  0  0  0  0  0  0  0  0
   -3.0000    0.0000    0.0000 C   0  0  0  0  0  0  0  0  0  0  0  0
   -3.7500    1.2990    0.0000 C   0  0  0  0  0  0  0  0  0  0  0  0
   -5.2372    1.1032    0.0000 C   0  0  0  0  0  0  0  0  0  0  0  0
   -6.4272    2.0164    0.0000 C   0  0  0  0  0  0  0  0  0  0  0  0
   -6.6230    3.5036    0.0000 C   0  0  0  0  0  0  0  0  0  0  0  0
   -5.7098    4.6936    0.0000 C   0  0  0  0  0  0  0  0  0  0  0  0
   -4.2227    4.8894    0.0000 C   0  0  0  0  0  0  0  0  0  0  0  0
   -3.0326    3.9762    0.0000 C   0  0  0  0  0  0  0  0  0  0  0  0
   -2.8369    2.4891    0.0000 C   0  0  0  0  0  0  0  0  0  0  0  0
   -1.6468    1.5759    0.0000 C   0  0  0  0  0  0  0  0  0  0  0  0
   -1.4510    0.0888    0.0000 C   0  0  0  0  0  0  0  0  0  0  0  0
   -2.3642   -1.1013    0.0000 C   0  0  0  0  0  0  0  0  0  0  0  0
   -3.8513   -1.2971    0.0000 C   0  0  0  0  0  0  0  0  0  0  0  0
   -5.0414   -0.3839    0.0000 C   0  0  0  0  0  0  0  0  0  0  0  0
   -0.7500   -1.2990    0.0000 C   0  0  0  0  0  0  0  0  0  0  0  0
  1  2  1  0
  2  3  1  0
  3  4  1  0
  4  5  1  0
  5  6  1  0
  6  7  1  0
  7  8  1  0
  8  9  1  0
  9 10  2  0
  9 11  1  0
 11 12  1  0
 12 13  2  0
 13 14  1  0
 14 15  2  0
 15 16  1  0
 16 17  1  0
 17 18  2  0
 18 19  1  0
 19 20  2  0
 20 21  1  0
 21 22  2  0
 22 23  1  0
 23 24  2  0
 24 25  1  0
 25 26  2  0
 26 27  1  0
 27 28  3  0
 26 29  1  0
 29 30  2  0
  8 31  1  0
 31 32  2  0
 32 33  1  0
 33 34  2  0
 34 35  1  0
 35 36  1  0
 36 37  2  3
 37 38  1  0
 38 39  2  0
 39 40  1  0
 40 41  2  0
 41 42  1  0
 42 43  2  0
 43 44  1  0
 44 45  2  0
 45 46  1  0
 46 47  2  0
 47 48  1  0
 48 49  2  0
 35 50  2  0
 50  2  1  0
 16 12  1  0
 22 17  1  0
 30 23  1  0
 50 31  1  0
 44 37  1  0
 49 38  1  0
M  END
>  <Title>  (184) 
idAAFDgen6

$$$$

     RDKit          2D

 29 32  0  0  0  0  0  0  0  0999 V2000
    4.5000    0.0000    0.0000 N   0  0  0  0  0  0  0  0  0  0  0  0
    3.0000    0.0000    0.0000 C   0  0  0  0  0  0  0  0  0  0  0  0
    1.5000    0.0000    0.0000 C   0  0  0  0  0  0  0  0  0  0  0  0
    0.7500   -1.2990    0.0000 C   0  0  0  0  0  0  0  0  0  0  0  0
   -0.7500   -1.2990    0.0000 C   0  0  0  0  0  0  0  0  0  0  0  0
   -1.5000    0.0000    0.0000 C   0  0  0  0  0  0  0  0  0  0  0  0
   -3.0000    0.0000    0.0000 C   0  0  0  0  0  0  0  0  0  0  0  0
   -3.7500    1.2990    0.0000 C   0  0  0  0  0  0  0  0  0  0  0  0
   -5.2500    1.2990    0.0000 C   0  0  0  0  0  0  0  0  0  0  0  0
   -6.0000    0.0000    0.0000 C   0  0  0  0  0  0  0  0  0  0  0  0
   -5.2500   -1.2990    0.0000 C   0  0  0  0  0  0  0  0  0  0  0  0
   -6.0000   -2.5981    0.0000 N   0  0  0  0  0  0  0  0  0  0  0  0
   -7.5000   -2.5981    0.0000 C   0  0  0  0  0  0  0  0  0  0  0  0
   -8.2500   -3.8971    0.0000 C   0  0  0  0  0  0  0  0  0  0  0  0
   -7.5000   -5.1962    0.0000 N   0  0  0  0  0  0  0  0  0  0  0  0
   -8.2500   -6.4952    0.0000 C   0  0  0  0  0  0  0  0  0  0  0  0
   -7.5000   -7.7942    0.0000 O   0  0  0  0  0  0  0  0  0  0  0  0
   -9.7500   -6.4952    0.0000 N   0  0  0  0  0  0  0  0  0  0  0  0
  -10.5000   -7.7942    0.0000 C   0  0  0  0  0  0  0  0  0  0  0  0
  -12.0000   -7.7942    0.0000 C   0  0  0  0  0  0  0  0  0  0  0  0
  -12.7500   -9.0933    0.0000 C   0  0  0  0  0  0  0  0  0  0  0  0
  -12.0000  -10.3923    0.0000 C   0  0  0  0  0  0  0  0  0  0  0  0
  -10.5000  -10.3923    0.0000 C   0  0  0  0  0  0  0  0  0  0  0  0
   -9.7500   -9.0933    0.0000 C   0  0  0  0  0  0  0  0  0  0  0  0
   -6.0000   -5.1962    0.0000 C   0  0  0  0  0  0  0  0  0  0  0  0
   -5.2500   -3.8971    0.0000 C   0  0  0  0  0  0  0  0  0  0  0  0
   -3.7500   -1.2990    0.0000 C   0  0  0  0  0  0  0  0  0  0  0  0
   -0.7500    1.2990    0.0000 C   0  0  0  0  0  0  0  0  0  0  0  0
    0.7500    1.2990    0.0000 C   0  0  0  0  0  0  0  0  0  0  0  0
  1  2  3  0
  2  3  1  0
  3  4  2  0
  4  5  1  0
  5  6  2  0
  6  7  1  0
  7  8  1  0
  8  9  2  0
  9 10  1  0
 10 11  2  0
 11 12  1  0
 12 13  1  0
 13 14  1  0
 14 15  1  0
 15 16  1  0
 16 17  2  0
 16 18  1  0
 18 19  1  0
 19 20  2  0
 20 21  1  0
 21 22  2  0
 22 23  1  0
 23 24  2  0
 15 25  1  0
 25 26  1  0
 11 27  1  0
  6 28  1  0
 28 29  2  0
 29  3  1  0
 27  7  1  0
 26 12  1  0
 24 19  1  0
M  END
>  <Title>  (185) 
idAAFEgen6

$$$$

     RDKit          2D

 34 38  0  0  0  0  0  0  0  0999 V2000
    3.0000    0.0000    0.0000 C   0  0  0  0  0  0  0  0  0  0  0  0
    1.5000    0.0000    0.0000 C   0  0  0  0  0  0  0  0  0  0  0  0
    0.7500   -1.2990    0.0000 C   0  0  0  0  0  0  0  0  0  0  0  0
   -0.7500   -1.2990    0.0000 C   0  0  0  0  0  0  0  0  0  0  0  0
   -1.5000    0.0000    0.0000 C   0  0  0  0  0  0  0  0  0  0  0  0
   -3.0000    0.0000    0.0000 C   0  0  0  0  0  0  0  0  0  0  0  0
   -3.7500   -1.2990    0.0000 O   0  0  0  0  0  0  0  0  0  0  0  0
   -3.7500    1.2990    0.0000 N   0  0  0  0  0  0  0  0  0  0  0  0
   -5.2500    1.2990    0.0000 C   0  0  0  0  0  0  0  0  0  0  0  0
   -6.1317    0.0855    0.0000 N   0  0  0  0  0  0  0  0  0  0  0  0
   -7.5583    0.5490    0.0000 N   0  0  0  0  0  0  0  0  0  0  0  0
   -7.5583    2.0490    0.0000 N   0  0  0  0  0  0  0  0  0  0  0  0
   -6.1317    2.5126    0.0000 N   0  0  0  0  0  0  0  0  0  0  0  0
   -5.6682    3.9391    0.0000 C   0  0  0  0  0  0  0  0  0  0  0  0
   -4.2009    4.2510    0.0000 C   0  0  0  0  0  0  0  0  0  0  0  0
   -3.7374    5.6776    0.0000 C   0  0  0  0  0  0  0  0  0  0  0  0
   -4.7411    6.7923    0.0000 C   0  0  0  0  0  0  0  0  0  0  0  0
   -4.2776    8.2189    0.0000 N   0  0  0  0  0  0  0  0  0  0  0  0
   -2.8104    8.5308    0.0000 C   0  0  0  0  0  0  0  0  0  0  0  0
   -2.3468    9.9574    0.0000 C   0  0  0  0  0  0  0  0  0  0  0  0
   -3.3505   11.0721    0.0000 C   0  0  0  0  0  0  0  0  0  0  0  0
   -2.8870   12.4987    0.0000 C   0  0  0  0  0  0  0  0  0  0  0  0
   -1.4198   12.8105    0.0000 C   0  0  0  0  0  0  0  0  0  0  0  0
   -0.9563   14.2371    0.0000 C   0  0  0  0  0  0  0  0  0  0  0  0
   -1.9599   15.3518    0.0000 C   0  0  0  0  0  0  0  0  0  0  0  0
   -1.4964   16.7784    0.0000 O   0  0  0  0  0  0  0  0  0  0  0  0
   -3.4272   15.0400    0.0000 C   0  0  0  0  0  0  0  0  0  0  0  0
   -3.8907   13.6134    0.0000 C   0  0  0  0  0  0  0  0  0  0  0  0
   -4.8177   10.7602    0.0000 C   0  0  0  0  0  0  0  0  0  0  0  0
   -5.2813    9.3336    0.0000 C   0  0  0  0  0  0  0  0  0  0  0  0
   -6.2083    6.4805    0.0000 O   0  0  0  0  0  0  0  0  0  0  0  0
   -6.6718    5.0539    0.0000 C   0  0  0  0  0  0  0  0  0  0  0  0
   -0.7500    1.2990    0.0000 C   0  0  0  0  0  0  0  0  0  0  0  0
    0.7500    1.2990    0.0000 C   0  0  0  0  0  0  0  0  0  0  0  0
  1  2  1  0
  2  3  1  0
  3  4  1  0
  4  5  1  0
  5  6  1  0
  6  7  2  0
  6  8  1  0
  8  9  1  0
  9 10  2  0
 10 11  1  0
 11 12  2  0
 12 13  1  0
 13 14  1  0
 14 15  2  0
 15 16  1  0
 16 17  2  0
 17 18  1  0
 18 19  1  0
 19 20  1  0
 20 21  1  0
 21 22  1  0
 22 23  2  0
 23 24  1  0
 24 25  2  0
 25 26  1  0
 25 27  1  0
 27 28  2  0
 21 29  1  0
 29 30  1  0
 17 31  1  0
 31 32  1  0
  5 33  1  0
 33 34  1  0
 34  2  1  0
 13  9  1  0
 32 14  1  0
 30 18  1  0
 28 22  1  0
M  END
>  <Title>  (186) 
idAAFFgen6

$$$$

     RDKit          2D

 51 56  0  0  0  0  0  0  0  0999 V2000
   -6.4163   -0.3298    0.0000 C   0  0  0  0  0  0  0  0  0  0  0  0
   -5.6192   -0.3159    0.0000 C   0  0  0  0  0  0  0  0  0  0  0  0
   -5.2310    1.1329    0.0000 O   0  0  0  0  0  0  0  0  0  0  0  0
   -4.5586   -1.3766    0.0000 C   0  0  0  0  0  0  0  0  0  0  0  0
   -3.1097   -0.9884    0.0000 C   0  0  0  0  0  0  0  0  0  0  0  0
   -2.0490   -2.0490    0.0000 C   0  0  0  0  0  0  0  0  0  0  0  0
   -2.7990   -3.3481    0.0000 C   0  0  0  0  0  0  0  0  0  0  0  0
   -2.7990   -4.8481    0.0000 N   0  0  0  0  0  0  0  0  0  0  0  0
   -2.0490   -6.1471    0.0000 C   0  0  0  0  0  0  0  0  0  0  0  0
   -3.1097   -7.2078    0.0000 N   0  0  0  0  0  0  0  0  0  0  0  0
   -2.8750   -8.6893    0.0000 C   0  0  0  0  0  0  0  0  0  0  0  0
   -4.2116   -9.3703    0.0000 C   0  0  0  0  0  0  0  0  0  0  0  0
   -5.2722   -8.3096    0.0000 N   0  0  0  0  0  0  0  0  0  0  0  0
   -6.7537   -8.5443    0.0000 C   0  0  0  0  0  0  0  0  0  0  0  0
   -7.2913   -9.9447    0.0000 O   0  0  0  0  0  0  0  0  0  0  0  0
   -7.6977   -7.3786    0.0000 C   0  0  0  0  0  0  0  0  0  0  0  0
   -7.5409   -5.8868    0.0000 C   0  0  0  0  0  0  0  0  0  0  0  0
   -9.0327   -5.7300    0.0000 C   0  0  0  0  0  0  0  0  0  0  0  0
   -9.1895   -7.2218    0.0000 C   0  0  0  0  0  0  0  0  0  0  0  0
   -4.5912   -6.9731    0.0000 C   0  0  0  0  0  0  0  0  0  0  0  0
   -0.7500   -6.8971    0.0000 C   0  0  0  0  0  0  0  0  0  0  0  0
    0.7500   -6.8971    0.0000 C   0  0  0  0  0  0  0  0  0  0  0  0
    1.1382   -8.3460    0.0000 C   0  0  0  0  0  0  0  0  0  0  0  0
    2.5871   -8.7342    0.0000 O   0  0  0  0  0  0  0  0  0  0  0  0
    0.0776   -9.4067    0.0000 O   0  0  0  0  0  0  0  0  0  0  0  0
    0.4658  -10.8556    0.0000 C   0  0  0  0  0  0  0  0  0  0  0  0
   -0.5949  -11.9162    0.0000 C   0  0  0  0  0  0  0  0  0  0  0  0
   -0.2066  -13.3651    0.0000 C   0  0  0  0  0  0  0  0  0  0  0  0
    1.2423  -13.7533    0.0000 C   0  0  0  0  0  0  0  0  0  0  0  0
    2.3029  -12.6927    0.0000 C   0  0  0  0  0  0  0  0  0  0  0  0
    1.9147  -11.2438    0.0000 C   0  0  0  0  0  0  0  0  0  0  0  0
    2.0490   -6.1471    0.0000 C   0  0  0  0  0  0  0  0  0  0  0  0
    2.7990   -4.8481    0.0000 C   0  0  0  0  0  0  0  0  0  0  0  0
    2.7990   -3.3481    0.0000 C   0  0  0  0  0  0  0  0  0  0  0  0
    4.2479   -2.9598    0.0000 O   0  0  0  0  0  0  0  0  0  0  0  0
    2.0490   -2.0490    0.0000 O   0  0  0  0  0  0  0  0  0  0  0  0
    0.7500   -1.2990    0.0000 C   0  0  0  0  0  0  0  0  0  0  0  0
    1.5000    0.0000    0.0000 C   0  0  0  0  0  0  0  0  0  0  0  0
    0.7500    1.2990    0.0000 C   0  0  0  0  0  0  0  0  0  0  0  0
   -0.7500    1.2990    0.0000 C   0  0  0  0  0  0  0  0  0  0  0  0
   -1.5000    0.0000    0.0000 C   0  0  0  0  0  0  0  0  0  0  0  0
   -0.7500   -1.2990    0.0000 C   0  0  0  0  0  0  0  0  0  0  0  0
   -4.9468   -2.8255    0.0000 O   0  0  0  0  0  0  0  0  0  0  0  0
   -6.3957   -3.2137    0.0000 C   0  0  0  0  0  0  0  0  0  0  0  0
   -6.7839   -4.6626    0.0000 O   0  0  0  0  0  0  0  0  0  0  0  0
   -7.4564   -2.1531    0.0000 C   0  0  0  0  0  0  0  0  0  0  0  0
   -7.0681   -0.7042    0.0000 C   0  0  0  0  0  0  0  0  0  0  0  0
   -8.1288    0.3565    0.0000 C   0  0  0  0  0  0  0  0  0  0  0  0
   -9.5777   -0.0317    0.0000 C   0  0  0  0  0  0  0  0  0  0  0  0
   -9.9659   -1.4806    0.0000 C   0  0  0  0  0  0  0  0  0  0  0  0
   -8.9053   -2.5413    0.0000 C   0  0  0  0  0  0  0  0  0  0  0  0
  1  2  1  0
  2  3  2  0
  2  4  1  0
  4  5  1  0
  5  6  1  0
  6  7  2  0
  7  8  1  0
  8  9  2  0
  9 10  1  0
 10 11  1  0
 11 12  1  0
 12 13  1  0
 13 14  1  0
 14 15  2  0
 14 16  1  0
 16 17  1  0
 17 18  1  0
 18 19  1  0
 13 20  1  0
  9 21  1  0
 21 22  1  0
 22 23  1  0
 23 24  2  0
 23 25  1  0
 25 26  1  0
 26 27  2  0
 27 28  1  0
 28 29  2  0
 29 30  1  0
 30 31  2  0
 22 32  1  0
 32 33  1  0
 33 34  1  0
 34 35  2  0
 34 36  1  0
 36 37  1  0
 37 38  2  0
 38 39  1  0
 39 40  2  0
 40 41  1  0
 41 42  2  0
  4 43  1  0
 43 44  1  0
 44 45  2  0
 44 46  1  0
 46 47  2  0
 47 48  1  0
 48 49  2  0
 49 50  1  0
 50 51  2  0
 42  6  1  0
 51 46  1  0
 20 10  1  0
 31 26  1  0
 42 37  1  0
 19 16  1  0
M  END
>  <Title>  (187) 
idAAFGgen6

$$$$

     RDKit          2D

  9  8  0  0  0  0  0  0  0  0999 V2000
    0.0000    0.0000    0.0000 C   0  0  0  0  0  0  0  0  0  0  0  0
    1.2990    0.7500    0.0000 C   0  0  0  0  0  0  0  0  0  0  0  0
    2.5981   -0.0000    0.0000 C   0  0  0  0  0  0  0  0  0  0  0  0
    1.2990    2.2500    0.0000 C   0  0  0  0  0  0  0  0  0  0  0  0
    2.5981    3.0000    0.0000 C   0  0  0  0  0  0  0  0  0  0  0  0
    3.8971    2.2500    0.0000 O   0  0  0  0  0  0  0  0  0  0  0  0
    2.5981    4.5000    0.0000 C   0  0  0  0  0  0  0  0  0  0  0  0
    3.8971    5.2500    0.0000 C   0  0  0  0  0  0  0  0  0  0  0  0
    5.1962    6.0000    0.0000 N   0  0  0  0  0  0  0  0  0  0  0  0
  1  2  1  0
  2  3  1  0
  2  4  1  0
  4  5  1  0
  5  6  1  0
  5  7  1  0
  7  8  1  0
  8  9  3  0
M  END
>  <Title>  (188) 
idAAFHgen6

$$$$

     RDKit          2D

 49 53  0  0  0  0  0  0  0  0999 V2000
   -3.0020   -0.6956    0.0000 C   0  0  0  0  0  0  0  0  0  0  0  0
   -2.1203   -1.9091    0.0000 C   0  0  0  0  0  0  0  0  0  0  0  0
   -3.1240   -3.0239    0.0000 C   0  0  0  0  0  0  0  0  0  0  0  0
   -3.5875   -4.4504    0.0000 C   0  0  0  0  0  0  0  0  0  0  0  0
   -3.4307   -5.9422    0.0000 C   0  0  0  0  0  0  0  0  0  0  0  0
   -2.6807   -7.2413    0.0000 C   0  0  0  0  0  0  0  0  0  0  0  0
   -1.4672   -8.1229    0.0000 C   0  0  0  0  0  0  0  0  0  0  0  0
   -0.0000   -8.4348    0.0000 C   0  0  0  0  0  0  0  0  0  0  0  0
    1.4672   -8.1229    0.0000 C   0  0  0  0  0  0  0  0  0  0  0  0
    2.6807   -7.2413    0.0000 C   0  0  0  0  0  0  0  0  0  0  0  0
    3.4307   -5.9422    0.0000 C   0  0  0  0  0  0  0  0  0  0  0  0
    3.5875   -4.4504    0.0000 C   0  0  0  0  0  0  0  0  0  0  0  0
    3.1240   -3.0239    0.0000 C   0  0  0  0  0  0  0  0  0  0  0  0
    2.1203   -1.9091    0.0000 C   0  0  0  0  0  0  0  0  0  0  0  0
    3.0020   -0.6956    0.0000 C   0  0  0  0  0  0  0  0  0  0  0  0
    2.3919    0.6747    0.0000 O   0  0  0  0  0  0  0  0  0  0  0  0
    4.4938   -0.8524    0.0000 N   0  0  0  0  0  0  0  0  0  0  0  0
    5.3755    0.3611    0.0000 C   0  0  0  0  0  0  0  0  0  0  0  0
    6.7882   -0.1430    0.0000 N   0  0  0  0  0  0  0  0  0  0  0  0
    8.2492    0.1968    0.0000 N   0  0  0  0  0  0  0  0  0  0  0  0
    9.2946    1.2725    0.0000 C   0  0  0  0  0  0  0  0  0  0  0  0
   10.6213    0.5725    0.0000 C   0  0  0  0  0  0  0  0  0  0  0  0
   10.6784   -0.9264    0.0000 C   0  0  0  0  0  0  0  0  0  0  0  0
   12.0051   -1.6264    0.0000 C   0  0  0  0  0  0  0  0  0  0  0  0
   13.2746   -0.8275    0.0000 C   0  0  0  0  0  0  0  0  0  0  0  0
   13.2175    0.6714    0.0000 C   0  0  0  0  0  0  0  0  0  0  0  0
   11.8908    1.3714    0.0000 C   0  0  0  0  0  0  0  0  0  0  0  0
    9.5925    2.7426    0.0000 N   0  0  0  0  0  0  0  0  0  0  0  0
   11.0247    2.2966    0.0000 C   0  0  0  0  0  0  0  0  0  0  0  0
   12.2663    3.1382    0.0000 C   0  0  0  0  0  0  0  0  0  0  0  0
   12.3825    4.6337    0.0000 C   0  0  0  0  0  0  0  0  0  0  0  0
   13.7803    5.1779    0.0000 C   0  0  0  0  0  0  0  0  0  0  0  0
   14.0079    6.6605    0.0000 O   0  0  0  0  0  0  0  0  0  0  0  0
   14.9505    4.2395    0.0000 O   0  0  0  0  0  0  0  0  0  0  0  0
   11.2857    5.6569    0.0000 C   0  0  0  0  0  0  0  0  0  0  0  0
   11.7317    7.0891    0.0000 O   0  0  0  0  0  0  0  0  0  0  0  0
    9.8019    5.4374    0.0000 O   0  0  0  0  0  0  0  0  0  0  0  0
    9.0483    4.1404    0.0000 C   0  0  0  0  0  0  0  0  0  0  0  0
    7.8348    5.0221    0.0000 C   0  0  0  0  0  0  0  0  0  0  0  0
    6.3372    5.1077    0.0000 C   0  0  0  0  0  0  0  0  0  0  0  0
    5.0311    4.3701    0.0000 C   0  0  0  0  0  0  0  0  0  0  0  0
    4.3311    3.0435    0.0000 C   0  0  0  0  0  0  0  0  0  0  0  0
    4.4595    1.5490    0.0000 C   0  0  0  0  0  0  0  0  0  0  0  0
    0.7500   -1.2990    0.0000 C   0  0  0  0  0  0  0  0  0  0  0  0
    1.5000    0.0000    0.0000 C   0  0  0  0  0  0  0  0  0  0  0  0
    0.7500    1.2990    0.0000 C   0  0  0  0  0  0  0  0  0  0  0  0
   -0.7500    1.2990    0.0000 C   0  0  0  0  0  0  0  0  0  0  0  0
   -1.5000    0.0000    0.0000 C   0  0  0  0  0  0  0  0  0  0  0  0
   -0.7500   -1.2990    0.0000 C   0  0  0  0  0  0  0  0  0  0  0  0
  1  2  1  0
  2  3  1  0
  3  4  1  0
  4  5  1  0
  5  6  1  0
  6  7  1  0
  7  8  1  0
  8  9  1  0
  9 10  1  0
 10 11  1  0
 11 12  1  0
 12 13  1  0
 13 14  1  0
 14 15  1  0
 15 16  2  0
 15 17  1  0
 17 18  1  0
 18 19  2  0
 19 20  1  0
 20 21  2  0
 21 22  1  0
 22 23  2  0
 23 24  1  0
 24 25  2  0
 25 26  1  0
 26 27  2  0
 21 28  1  0
 28 29  1  0
 29 30  1  0
 30 31  1  0
 31 32  1  0
 32 33  2  0
 32 34  1  0
 31 35  1  0
 35 36  2  0
 35 37  1  0
 37 38  1  0
 38 39  2  0
 39 40  1  0
 40 41  2  0
 41 42  1  0
 42 43  2  0
 14 44  1  0
 44 45  2  0
 45 46  1  0
 46 47  2  0
 47 48  1  0
 48 49  2  0
 49  2  1  0
 43 18  1  0
 49 44  1  0
 27 22  1  0
 38 28  1  0
M  END
>  <Title>  (189) 
idAAFIgen6

$$$$

     RDKit          2D

  7  7  0  0  0  0  0  0  0  0999 V2000
    3.5260   -1.2990    0.0000 C   0  0  0  0  0  0  0  0  0  0  0  0
    2.7760    0.0000    0.0000 O   0  0  0  0  0  0  0  0  0  0  0  0
    1.2760    0.0000    0.0000 C   0  0  0  0  0  0  0  0  0  0  0  0
    0.3943    1.2135    0.0000 C   0  0  0  0  0  0  0  0  0  0  0  0
   -1.0323    0.7500    0.0000 C   0  0  0  0  0  0  0  0  0  0  0  0
   -1.0323   -0.7500    0.0000 C   0  0  0  0  0  0  0  0  0  0  0  0
    0.3943   -1.2135    0.0000 N   0  0  0  0  0  0  0  0  0  0  0  0
  1  2  1  0
  2  3  1  0
  3  4  1  0
  4  5  2  0
  5  6  1  0
  6  7  2  0
  7  3  1  0
M  END
>  <Title>  (190) 
idAAFJgen6

$$$$

     RDKit          2D

 15 16  0  0  0  0  0  0  0  0999 V2000
    1.8478   -9.0619    0.0000 O   0  0  0  0  0  0  0  0  0  0  0  0
    2.0046   -7.5702    0.0000 C   0  0  0  0  0  0  0  0  0  0  0  0
    3.3037   -6.8202    0.0000 C   0  0  0  0  0  0  0  0  0  0  0  0
    2.9918   -5.3529    0.0000 C   0  0  0  0  0  0  0  0  0  0  0  0
    1.5000   -5.1962    0.0000 C   0  0  0  0  0  0  0  0  0  0  0  0
    0.7500   -3.8971    0.0000 C   0  0  0  0  0  0  0  0  0  0  0  0
   -0.7500   -3.8971    0.0000 O   0  0  0  0  0  0  0  0  0  0  0  0
    1.5000   -2.5981    0.0000 N   0  0  0  0  0  0  0  0  0  0  0  0
    0.7500   -1.2990    0.0000 C   0  0  0  0  0  0  0  0  0  0  0  0
    1.5000    0.0000    0.0000 C   0  0  0  0  0  0  0  0  0  0  0  0
    0.7500    1.2990    0.0000 C   0  0  0  0  0  0  0  0  0  0  0  0
   -0.7500    1.2990    0.0000 C   0  0  0  0  0  0  0  0  0  0  0  0
   -1.5000    0.0000    0.0000 C   0  0  0  0  0  0  0  0  0  0  0  0
   -0.7500   -1.2990    0.0000 C   0  0  0  0  0  0  0  0  0  0  0  0
    0.8899   -6.5665    0.0000 N   0  0  0  0  0  0  0  0  0  0  0  0
  1  2  2  0
  2  3  1  0
  3  4  1  0
  4  5  1  0
  5  6  1  0
  6  7  2  0
  6  8  1  0
  8  9  1  0
  9 10  2  0
 10 11  1  0
 11 12  2  0
 12 13  1  0
 13 14  2  0
  5 15  1  0
 15  2  1  0
 14  9  1  0
M  END
>  <Title>  (191) 
idAAFKgen6

$$$$

     RDKit          2D

 21 23  0  0  0  0  0  0  0  0999 V2000
   -3.1476   -2.1380    0.0000 C   0  0  0  0  0  0  0  0  0  0  0  0
   -1.6852   -2.4718    0.0000 C   0  0  0  0  0  0  0  0  0  0  0  0
   -1.3515   -3.9342    0.0000 C   0  0  0  0  0  0  0  0  0  0  0  0
   -0.0000   -4.5850    0.0000 C   0  0  0  0  0  0  0  0  0  0  0  0
    1.3515   -3.9342    0.0000 C   0  0  0  0  0  0  0  0  0  0  0  0
    1.6852   -2.4718    0.0000 C   0  0  0  0  0  0  0  0  0  0  0  0
    3.1476   -2.1380    0.0000 C   0  0  0  0  0  0  0  0  0  0  0  0
    3.5898   -0.7046    0.0000 O   0  0  0  0  0  0  0  0  0  0  0  0
    4.1679   -3.2376    0.0000 N   0  0  0  0  0  0  0  0  0  0  0  0
    5.6303   -2.9038    0.0000 C   0  0  0  0  0  0  0  0  0  0  0  0
    6.6505   -4.0034    0.0000 N   0  0  0  0  0  0  0  0  0  0  0  0
    8.1129   -3.6696    0.0000 N   0  0  0  0  0  0  0  0  0  0  0  0
    8.5551   -2.2362    0.0000 N   0  0  0  0  0  0  0  0  0  0  0  0
    7.5348   -1.1367    0.0000 N   0  0  0  0  0  0  0  0  0  0  0  0
    6.0724   -1.4704    0.0000 N   0  0  0  0  0  0  0  0  0  0  0  0
    0.7500   -1.2990    0.0000 C   0  0  0  0  0  0  0  0  0  0  0  0
    1.5000    0.0000    0.0000 C   0  0  0  0  0  0  0  0  0  0  0  0
    0.7500    1.2990    0.0000 C   0  0  0  0  0  0  0  0  0  0  0  0
   -0.7500    1.2990    0.0000 C   0  0  0  0  0  0  0  0  0  0  0  0
   -1.5000    0.0000    0.0000 C   0  0  0  0  0  0  0  0  0  0  0  0
   -0.7500   -1.2990    0.0000 C   0  0  0  0  0  0  0  0  0  0  0  0
  1  2  1  0
  2  3  1  0
  3  4  1  0
  4  5  1  0
  5  6  1  0
  6  7  1  0
  7  8  2  0
  7  9  1  0
  9 10  1  0
 10 11  2  0
 11 12  1  0
 12 13  2  0
 13 14  1  0
 14 15  2  0
  6 16  1  0
 16 17  2  0
 17 18  1  0
 18 19  2  0
 19 20  1  0
 20 21  2  0
 21  2  1  0
 15 10  1  0
 21 16  1  0
M  END
>  <Title>  (192) 
idAAFLgen6

$$$$

     RDKit          2D

 13 14  0  0  0  0  0  0  0  0999 V2000
    3.2286   -0.0000    0.0000 C   0  0  0  0  0  0  0  0  0  0  0  0
    1.7286    0.0000    0.0000 C   0  0  0  0  0  0  0  0  0  0  0  0
    1.0777    1.3515    0.0000 C   0  0  0  0  0  0  0  0  0  0  0  0
   -0.3846    1.6852    0.0000 C   0  0  0  0  0  0  0  0  0  0  0  0
   -1.5574    0.7500    0.0000 C   0  0  0  0  0  0  0  0  0  0  0  0
   -2.9840    1.2135    0.0000 C   0  0  0  0  0  0  0  0  0  0  0  0
   -3.4475    2.6401    0.0000 O   0  0  0  0  0  0  0  0  0  0  0  0
   -3.8657    0.0000    0.0000 O   0  0  0  0  0  0  0  0  0  0  0  0
   -2.9840   -1.2135    0.0000 C   0  0  0  0  0  0  0  0  0  0  0  0
   -3.4475   -2.6401    0.0000 O   0  0  0  0  0  0  0  0  0  0  0  0
   -1.5574   -0.7500    0.0000 C   0  0  0  0  0  0  0  0  0  0  0  0
   -0.3846   -1.6852    0.0000 C   0  0  0  0  0  0  0  0  0  0  0  0
    1.0777   -1.3515    0.0000 C   0  0  0  0  0  0  0  0  0  0  0  0
  1  2  1  0
  2  3  1  0
  3  4  1  0
  4  5  1  0
  5  6  1  0
  6  7  2  0
  6  8  1  0
  8  9  1  0
  9 10  2  0
  9 11  1  0
 11 12  1  0
 12 13  1  0
 13  2  1  0
 11  5  1  0
M  END
>  <Title>  (193) 
idAAFMgen6

$$$$

     RDKit          2D

 27 30  0  0  0  0  0  0  0  0999 V2000
   -3.1476   -2.1380    0.0000 C   0  0  0  0  0  0  0  0  0  0  0  0
   -1.6852   -2.4718    0.0000 C   0  0  0  0  0  0  0  0  0  0  0  0
   -1.3515   -3.9342    0.0000 C   0  0  0  0  0  0  0  0  0  0  0  0
   -0.0000   -4.5850    0.0000 C   0  0  0  0  0  0  0  0  0  0  0  0
   -0.0000   -6.0850    0.0000 C   0  0  0  0  0  0  0  0  0  0  0  0
   -1.2990   -6.8350    0.0000 C   0  0  0  0  0  0  0  0  0  0  0  0
   -2.5981   -6.0850    0.0000 O   0  0  0  0  0  0  0  0  0  0  0  0
   -1.2990   -8.3350    0.0000 N   0  0  0  0  0  0  0  0  0  0  0  0
   -2.5981   -9.0850    0.0000 C   0  0  0  0  0  0  0  0  0  0  0  0
   -3.8971   -8.3350    0.0000 N   0  0  0  0  0  0  0  0  0  0  0  0
   -5.1962   -9.0850    0.0000 N   0  0  0  0  0  0  0  0  0  0  0  0
   -5.1962  -10.5850    0.0000 N   0  0  0  0  0  0  0  0  0  0  0  0
   -3.8971  -11.3350    0.0000 N   0  0  0  0  0  0  0  0  0  0  0  0
   -2.5981  -10.5850    0.0000 N   0  0  0  0  0  0  0  0  0  0  0  0
    1.3515   -3.9342    0.0000 C   0  0  0  0  0  0  0  0  0  0  0  0
    2.4510   -4.9544    0.0000 C   0  0  0  0  0  0  0  0  0  0  0  0
    3.8844   -4.5123    0.0000 C   0  0  0  0  0  0  0  0  0  0  0  0
    4.2182   -3.0499    0.0000 C   0  0  0  0  0  0  0  0  0  0  0  0
    5.6515   -2.6078    0.0000 O   0  0  0  0  0  0  0  0  0  0  0  0
    3.1186   -2.0297    0.0000 C   0  0  0  0  0  0  0  0  0  0  0  0
    1.6852   -2.4718    0.0000 C   0  0  0  0  0  0  0  0  0  0  0  0
    0.7500   -1.2990    0.0000 C   0  0  0  0  0  0  0  0  0  0  0  0
    1.5000    0.0000    0.0000 C   0  0  0  0  0  0  0  0  0  0  0  0
    0.7500    1.2990    0.0000 C   0  0  0  0  0  0  0  0  0  0  0  0
   -0.7500    1.2990    0.0000 C   0  0  0  0  0  0  0  0  0  0  0  0
   -1.5000    0.0000    0.0000 C   0  0  0  0  0  0  0  0  0  0  0  0
   -0.7500   -1.2990    0.0000 C   0  0  0  0  0  0  0  0  0  0  0  0
  1  2  1  0
  2  3  1  0
  3  4  1  0
  4  5  1  0
  5  6  1  0
  6  7  2  0
  6  8  1  0
  8  9  1  0
  9 10  2  0
 10 11  1  0
 11 12  2  0
 12 13  1  0
 13 14  2  0
  4 15  1  0
 15 16  2  0
 16 17  1  0
 17 18  2  0
 18 19  1  0
 18 20  1  0
 20 21  2  0
 21 22  1  0
 22 23  2  0
 23 24  1  0
 24 25  2  0
 25 26  1  0
 26 27  2  0
 27  2  1  0
 14  9  1  0
 21 15  1  0
 27 22  1  0
M  END
>  <Title>  (194) 
idAAFNgen6

$$$$

     RDKit          2D

  8  7  0  0  0  0  0  0  0  0999 V2000
    0.0000    0.0000    0.0000 C   0  0  0  0  0  0  0  0  0  0  0  0
    1.2990    0.7500    0.0000 C   0  0  0  0  0  0  0  0  0  0  0  0
    2.5981   -0.0000    0.0000 C   0  0  0  0  0  0  0  0  0  0  0  0
    3.8971    0.7500    0.0000 C   0  0  0  0  0  0  0  0  0  0  0  0
    5.1962   -0.0000    0.0000 C   0  0  0  0  0  0  0  0  0  0  0  0
    6.4952   -0.7500    0.0000 C   0  0  0  0  0  0  0  0  0  0  0  0
    7.7942   -1.5000    0.0000 C   0  0  0  0  0  0  0  0  0  0  0  0
    9.0933   -2.2500    0.0000 N   0  0  0  0  0  0  0  0  0  0  0  0
  1  2  1  0
  2  3  1  0
  3  4  2  3
  4  5  1  0
  5  6  3  0
  6  7  1  0
  7  8  3  0
M  END
>  <Title>  (195) 
idAAFOgen6

$$$$

     RDKit          2D

 42 48  0  0  0  0  0  0  0  0999 V2000
   -5.3489    6.8056    0.0000 C   0  0  0  0  0  0  0  0  0  0  0  0
   -3.8817    6.4937    0.0000 O   0  0  0  0  0  0  0  0  0  0  0  0
   -3.4182    5.0672    0.0000 C   0  0  0  0  0  0  0  0  0  0  0  0
   -1.9916    4.6036    0.0000 C   0  0  0  0  0  0  0  0  0  0  0  0
   -1.9916    3.1036    0.0000 C   0  0  0  0  0  0  0  0  0  0  0  0
   -3.4182    2.6401    0.0000 C   0  0  0  0  0  0  0  0  0  0  0  0
   -3.8817    1.2135    0.0000 C   0  0  0  0  0  0  0  0  0  0  0  0
   -5.3083    0.7500    0.0000 N   0  0  0  0  0  0  0  0  0  0  0  0
   -5.3083   -0.7500    0.0000 N   0  0  0  0  0  0  0  0  0  0  0  0
   -3.8817   -1.2135    0.0000 N   0  0  0  0  0  0  0  0  0  0  0  0
   -3.0000    0.0000    0.0000 N   0  0  0  0  0  0  0  0  0  0  0  0
   -1.5000    0.0000    0.0000 C   0  0  0  0  0  0  0  0  0  0  0  0
   -0.7500    1.2990    0.0000 C   0  0  0  0  0  0  0  0  0  0  0  0
    0.7500    1.2990    0.0000 C   0  0  0  0  0  0  0  0  0  0  0  0
    1.5000   -0.0000    0.0000 C   0  0  0  0  0  0  0  0  0  0  0  0
    0.7500   -1.2990    0.0000 C   0  0  0  0  0  0  0  0  0  0  0  0
   -0.7500   -1.2990    0.0000 C   0  0  0  0  0  0  0  0  0  0  0  0
   -1.5000   -2.5981    0.0000 C   0  0  0  0  0  0  0  0  0  0  0  0
   -3.0000   -2.5981    0.0000 C   0  0  0  0  0  0  0  0  0  0  0  0
   -3.7500   -3.8971    0.0000 C   0  0  0  0  0  0  0  0  0  0  0  0
   -3.0000   -5.1962    0.0000 C   0  0  0  0  0  0  0  0  0  0  0  0
   -1.5000   -5.1962    0.0000 C   0  0  0  0  0  0  0  0  0  0  0  0
   -0.7500   -3.8971    0.0000 C   0  0  0  0  0  0  0  0  0  0  0  0
    0.7500   -3.8971    0.0000 C   0  0  0  0  0  0  0  0  0  0  0  0
    1.5000   -2.5981    0.0000 C   0  0  0  0  0  0  0  0  0  0  0  0
    3.0000   -2.5981    0.0000 C   0  0  0  0  0  0  0  0  0  0  0  0
    3.7500   -3.8971    0.0000 C   0  0  0  0  0  0  0  0  0  0  0  0
    3.0000   -5.1962    0.0000 C   0  0  0  0  0  0  0  0  0  0  0  0
    1.5000   -5.1962    0.0000 C   0  0  0  0  0  0  0  0  0  0  0  0
    0.7500   -6.4952    0.0000 C   0  0  0  0  0  0  0  0  0  0  0  0
   -0.7500   -6.4952    0.0000 C   0  0  0  0  0  0  0  0  0  0  0  0
   -1.5000   -7.7942    0.0000 C   0  0  0  0  0  0  0  0  0  0  0  0
   -0.7500   -9.0933    0.0000 C   0  0  0  0  0  0  0  0  0  0  0  0
    0.7500   -9.0933    0.0000 C   0  0  0  0  0  0  0  0  0  0  0  0
    1.5000   -7.7942    0.0000 C   0  0  0  0  0  0  0  0  0  0  0  0
    3.0000   -7.7942    0.0000 C   0  0  0  0  0  0  0  0  0  0  0  0
    3.8817   -6.5807    0.0000 C   0  0  0  0  0  0  0  0  0  0  0  0
    5.3083   -7.0442    0.0000 C   0  0  0  0  0  0  0  0  0  0  0  0
    5.3083   -8.5442    0.0000 C   0  0  0  0  0  0  0  0  0  0  0  0
    3.8817   -9.0078    0.0000 C   0  0  0  0  0  0  0  0  0  0  0  0
    3.4182  -10.4343    0.0000 O   0  0  0  0  0  0  0  0  0  0  0  0
   -4.2998    3.8536    0.0000 N   0  0  0  0  0  0  0  0  0  0  0  0
  1  2  1  0
  2  3  1  0
  3  4  1  0
  4  5  2  0
  5  6  1  0
  6  7  1  0
  7  8  2  0
  8  9  1  0
  9 10  2  0
 10 11  1  0
 11 12  1  0
 12 13  2  0
 13 14  1  0
 14 15  2  0
 15 16  1  0
 16 17  2  0
 17 18  1  0
 18 19  2  0
 19 20  1  0
 20 21  2  0
 21 22  1  0
 22 23  2  0
 23 24  1  0
 24 25  2  0
 25 26  1  0
 26 27  2  0
 27 28  1  0
 28 29  2  0
 29 30  1  0
 30 31  2  0
 31 32  1  0
 32 33  2  0
 33 34  1  0
 34 35  2  0
 35 36  1  0
 36 37  2  0
 37 38  1  0
 38 39  1  0
 39 40  1  0
 40 41  2  0
  6 42  1  0
 42  3  1  0
 11  7  1  0
 17 12  1  0
 23 18  1  0
 29 24  1  0
 35 30  1  0
 40 36  1  0
M  END
>  <Title>  (196) 
idAAFPgen6

$$$$

     RDKit          2D

 29 32  0  0  0  0  0  0  0  0999 V2000
   -3.1476   -2.1380    0.0000 C   0  0  0  0  0  0  0  0  0  0  0  0
   -1.6852   -2.4718    0.0000 C   0  0  0  0  0  0  0  0  0  0  0  0
   -1.3515   -3.9342    0.0000 C   0  0  0  0  0  0  0  0  0  0  0  0
   -0.0000   -4.5850    0.0000 C   0  0  0  0  0  0  0  0  0  0  0  0
    1.3515   -3.9342    0.0000 C   0  0  0  0  0  0  0  0  0  0  0  0
    2.5242   -4.8694    0.0000 O   0  0  0  0  0  0  0  0  0  0  0  0
    1.6852   -2.4718    0.0000 C   0  0  0  0  0  0  0  0  0  0  0  0
    3.1476   -2.1380    0.0000 C   0  0  0  0  0  0  0  0  0  0  0  0
    4.1679   -3.2376    0.0000 C   0  0  0  0  0  0  0  0  0  0  0  0
    5.6572   -3.0585    0.0000 C   0  0  0  0  0  0  0  0  0  0  0  0
    6.2877   -4.4195    0.0000 C   0  0  0  0  0  0  0  0  0  0  0  0
    5.1881   -5.4398    0.0000 C   0  0  0  0  0  0  0  0  0  0  0  0
    5.3672   -6.9291    0.0000 C   0  0  0  0  0  0  0  0  0  0  0  0
    6.7465   -7.5186    0.0000 O   0  0  0  0  0  0  0  0  0  0  0  0
    4.1670   -7.8288    0.0000 N   0  0  0  0  0  0  0  0  0  0  0  0
    4.3461   -9.3181    0.0000 C   0  0  0  0  0  0  0  0  0  0  0  0
    3.1459  -10.2178    0.0000 N   0  0  0  0  0  0  0  0  0  0  0  0
    3.3250  -11.7071    0.0000 N   0  0  0  0  0  0  0  0  0  0  0  0
    4.7043  -12.2966    0.0000 N   0  0  0  0  0  0  0  0  0  0  0  0
    5.9045  -11.3969    0.0000 N   0  0  0  0  0  0  0  0  0  0  0  0
    5.7254   -9.9076    0.0000 N   0  0  0  0  0  0  0  0  0  0  0  0
    3.8780   -4.7093    0.0000 C   0  0  0  0  0  0  0  0  0  0  0  0
    0.7500   -1.2990    0.0000 C   0  0  0  0  0  0  0  0  0  0  0  0
    1.5000    0.0000    0.0000 C   0  0  0  0  0  0  0  0  0  0  0  0
    0.7500    1.2990    0.0000 C   0  0  0  0  0  0  0  0  0  0  0  0
   -0.7500    1.2990    0.0000 C   0  0  0  0  0  0  0  0  0  0  0  0
   -1.5000    2.5981    0.0000 O   0  0  0  0  0  0  0  0  0  0  0  0
   -1.5000    0.0000    0.0000 C   0  0  0  0  0  0  0  0  0  0  0  0
   -0.7500   -1.2990    0.0000 C   0  0  0  0  0  0  0  0  0  0  0  0
  1  2  1  0
  2  3  1  0
  3  4  1  0
  4  5  1  0
  5  6  1  0
  5  7  1  0
  7  8  1  0
  8  9  1  0
  9 10  1  0
 10 11  1  0
 11 12  1  0
 12 13  1  0
 13 14  2  0
 13 15  1  0
 15 16  1  0
 16 17  2  0
 17 18  1  0
 18 19  2  0
 19 20  1  0
 20 21  2  0
 12 22  1  0
  7 23  1  0
 23 24  2  0
 24 25  1  0
 25 26  2  0
 26 27  1  0
 26 28  1  0
 28 29  2  0
 29  2  1  0
 22  9  1  0
 29 23  1  0
 21 16  1  0
M  END
>  <Title>  (197) 
idAAFQgen6

$$$$

     RDKit          2D

 14 15  0  0  0  0  0  0  0  0999 V2000
    3.2286   -0.0000    0.0000 C   0  0  0  0  0  0  0  0  0  0  0  0
    1.7286    0.0000    0.0000 C   0  0  0  0  0  0  0  0  0  0  0  0
    1.0777    1.3515    0.0000 C   0  0  0  0  0  0  0  0  0  0  0  0
   -0.3846    1.6852    0.0000 S   0  0  0  0  0  0  0  0  0  0  0  0
   -1.5574    0.7500    0.0000 C   0  0  0  0  0  0  0  0  0  0  0  0
   -1.5574   -0.7500    0.0000 C   0  0  0  0  0  0  0  0  0  0  0  0
   -1.7890   -2.2357    0.0000 C   0  0  0  0  0  0  0  0  0  0  0  0
   -3.2223   -2.6779    0.0000 O   0  0  0  0  0  0  0  0  0  0  0  0
   -0.6894   -3.2560    0.0000 N   0  0  0  0  0  0  0  0  0  0  0  0
    0.7440   -2.8138    0.0000 C   0  0  0  0  0  0  0  0  0  0  0  0
    1.8435   -3.8341    0.0000 O   0  0  0  0  0  0  0  0  0  0  0  0
    1.0777   -1.3515    0.0000 C   0  0  0  0  0  0  0  0  0  0  0  0
   -0.3846   -1.6852    0.0000 C   0  0  0  0  0  0  0  0  0  0  0  0
   -0.3687   -2.4822    0.0000 O   0  0  0  0  0  0  0  0  0  0  0  0
  1  2  1  0
  2  3  2  0
  3  4  1  0
  4  5  1  0
  5  6  2  0
  6  7  1  0
  7  8  2  0
  7  9  1  0
  9 10  1  0
 10 11  2  0
 10 12  1  0
 12 13  1  0
 13 14  2  0
 12  2  1  0
 13  6  1  0
M  END
>  <Title>  (198) 
idAAFRgen6

$$$$

     RDKit          2D

 24 25  0  0  0  0  0  0  0  0999 V2000
   15.2865    0.5590    0.0000 C   0  0  0  0  0  0  0  0  0  0  0  0
   14.0247   -0.2519    0.0000 C   0  0  0  0  0  0  0  0  0  0  0  0
   12.6914    0.4354    0.0000 C   0  0  0  0  0  0  0  0  0  0  0  0
   12.6200    1.9337    0.0000 C   0  0  0  0  0  0  0  0  0  0  0  0
   11.2868    2.6211    0.0000 N   0  0  0  0  0  0  0  0  0  0  0  0
   10.0249    1.8101    0.0000 C   0  0  0  0  0  0  0  0  0  0  0  0
    8.6916    2.4974    0.0000 C   0  0  0  0  0  0  0  0  0  0  0  0
    7.4298    1.6865    0.0000 C   0  0  0  0  0  0  0  0  0  0  0  0
    6.0965    2.3738    0.0000 C   0  0  0  0  0  0  0  0  0  0  0  0
    4.8346    1.5629    0.0000 C   0  0  0  0  0  0  0  0  0  0  0  0
    3.5014    2.2502    0.0000 C   0  0  0  0  0  0  0  0  0  0  0  0
    2.2395    1.4392    0.0000 C   0  0  0  0  0  0  0  0  0  0  0  0
    2.6621    0.0000    0.0000 C   0  0  0  0  0  0  0  0  0  0  0  0
    2.2395   -1.4392    0.0000 C   0  0  0  0  0  0  0  0  0  0  0  0
    1.1059   -2.4215    0.0000 C   0  0  0  0  0  0  0  0  0  0  0  0
   -0.3789   -2.6350    0.0000 C   0  0  0  0  0  0  0  0  0  0  0  0
   -1.7433   -2.0119    0.0000 C   0  0  0  0  0  0  0  0  0  0  0  0
   -2.5543   -0.7500    0.0000 C   0  0  0  0  0  0  0  0  0  0  0  0
   -2.5543    0.7500    0.0000 C   0  0  0  0  0  0  0  0  0  0  0  0
   -1.7433    2.0119    0.0000 C   0  0  0  0  0  0  0  0  0  0  0  0
   -0.3789    2.6350    0.0000 C   0  0  0  0  0  0  0  0  0  0  0  0
    1.1059    2.4215    0.0000 C   0  0  0  0  0  0  0  0  0  0  0  0
   13.8819    2.7447    0.0000 C   0  0  0  0  0  0  0  0  0  0  0  0
   15.2152    2.0573    0.0000 C   0  0  0  0  0  0  0  0  0  0  0  0
  1  2  2  0
  2  3  1  0
  3  4  2  0
  4  5  1  0
  5  6  1  0
  6  7  1  0
  7  8  1  0
  8  9  1  0
  9 10  1  0
 10 11  1  0
 11 12  1  0
 12 13  1  0
 13 14  1  0
 14 15  1  0
 15 16  1  0
 16 17  1  0
 17 18  1  0
 18 19  1  0
 19 20  1  0
 20 21  1  0
 21 22  1  0
  4 23  1  0
 23 24  2  0
 24  1  1  0
 22 12  1  0
M  END
>  <Title>  (199) 
idAAFSgen6

$$$$

     RDKit          2D

 35 36  0  0  0  0  0  0  0  0999 V2000
    8.3449   -0.6923    0.0000 O   0  0  0  0  0  0  0  0  0  0  0  0
    8.7751    0.7447    0.0000 C   0  0  0  0  0  0  0  0  0  0  0  0
    7.7458    1.8358    0.0000 N   0  0  0  0  0  0  0  0  0  0  0  0
    6.2862    1.4899    0.0000 C   0  0  0  0  0  0  0  0  0  0  0  0
    6.4603    0.0000    0.0000 C   0  0  0  0  0  0  0  0  0  0  0  0
    6.2862   -1.4899    0.0000 C   0  0  0  0  0  0  0  0  0  0  0  0
    5.7732   -2.8994    0.0000 C   0  0  0  0  0  0  0  0  0  0  0  0
    4.9489   -4.1526    0.0000 C   0  0  0  0  0  0  0  0  0  0  0  0
    3.8578   -5.1820    0.0000 C   0  0  0  0  0  0  0  0  0  0  0  0
    2.5588   -5.9320    0.0000 C   0  0  0  0  0  0  0  0  0  0  0  0
    1.1218   -6.3622    0.0000 C   0  0  0  0  0  0  0  0  0  0  0  0
   -0.3756   -6.4494    0.0000 C   0  0  0  0  0  0  0  0  0  0  0  0
   -1.8528   -6.1889    0.0000 C   0  0  0  0  0  0  0  0  0  0  0  0
   -3.2302   -5.5948    0.0000 C   0  0  0  0  0  0  0  0  0  0  0  0
   -4.4334   -4.6991    0.0000 C   0  0  0  0  0  0  0  0  0  0  0  0
   -5.3975   -3.5500    0.0000 C   0  0  0  0  0  0  0  0  0  0  0  0
   -6.0707   -2.2096    0.0000 C   0  0  0  0  0  0  0  0  0  0  0  0
   -6.4167   -0.7500    0.0000 C   0  0  0  0  0  0  0  0  0  0  0  0
   -6.4167    0.7500    0.0000 C   0  0  0  0  0  0  0  0  0  0  0  0
   -6.0707    2.2096    0.0000 C   0  0  0  0  0  0  0  0  0  0  0  0
   -5.3975    3.5500    0.0000 C   0  0  0  0  0  0  0  0  0  0  0  0
   -4.4334    4.6991    0.0000 C   0  0  0  0  0  0  0  0  0  0  0  0
   -3.2302    5.5948    0.0000 C   0  0  0  0  0  0  0  0  0  0  0  0
   -1.8528    6.1889    0.0000 C   0  0  0  0  0  0  0  0  0  0  0  0
   -0.3756    6.4494    0.0000 C   0  0  0  0  0  0  0  0  0  0  0  0
    1.1218    6.3622    0.0000 C   0  0  0  0  0  0  0  0  0  0  0  0
    2.5588    5.9320    0.0000 C   0  0  0  0  0  0  0  0  0  0  0  0
    3.8578    5.1820    0.0000 C   0  0  0  0  0  0  0  0  0  0  0  0
    4.9489    4.1526    0.0000 C   0  0  0  0  0  0  0  0  0  0  0  0
    5.7732    2.8994    0.0000 C   0  0  0  0  0  0  0  0  0  0  0  0
   10.2347    1.0906    0.0000 C   0  0  0  0  0  0  0  0  0  0  0  0
   10.8128    2.4748    0.0000 C   0  0  0  0  0  0  0  0  0  0  0  0
   12.3078    2.3528    0.0000 C   0  0  0  0  0  0  0  0  0  0  0  0
   12.6537    0.8932    0.0000 C   0  0  0  0  0  0  0  0  0  0  0  0
   11.3725    0.1132    0.0000 C   0  0  0  0  0  0  0  0  0  0  0  0
  1  2  2  0
  2  3  1  0
  3  4  1  0
  4  5  1  0
  5  6  1  0
  6  7  1  0
  7  8  1  0
  8  9  1  0
  9 10  1  0
 10 11  1  0
 11 12  1  0
 12 13  1  0
 13 14  1  0
 14 15  1  0
 15 16  1  0
 16 17  1  0
 17 18  1  0
 18 19  1  0
 19 20  1  0
 20 21  1  0
 21 22  1  0
 22 23  1  0
 23 24  1  0
 24 25  1  0
 25 26  1  0
 26 27  1  0
 27 28  1  0
 28 29  1  0
 29 30  1  0
  2 31  1  0
 31 32  2  0
 32 33  1  0
 33 34  2  0
 34 35  1  0
 30  4  1  0
 35 31  1  0
M  END
>  <Title>  (200) 
idAAFTgen6

$$$$

     RDKit          2D

 30 33  0  0  0  0  0  0  0  0999 V2000
    9.2414   11.3457    0.0000 C   0  0  0  0  0  0  0  0  0  0  0  0
    8.6972    9.9479    0.0000 C   0  0  0  0  0  0  0  0  0  0  0  0
    9.6356    8.7777    0.0000 O   0  0  0  0  0  0  0  0  0  0  0  0
    7.2146    9.7203    0.0000 C   0  0  0  0  0  0  0  0  0  0  0  0
    6.2762   10.8905    0.0000 O   0  0  0  0  0  0  0  0  0  0  0  0
    6.6704    8.3225    0.0000 N   0  0  0  0  0  0  0  0  0  0  0  0
    7.6088    7.1523    0.0000 C   0  0  0  0  0  0  0  0  0  0  0  0
    7.0646    5.7545    0.0000 C   0  0  0  0  0  0  0  0  0  0  0  0
    5.5819    5.5269    0.0000 C   0  0  0  0  0  0  0  0  0  0  0  0
    5.0377    4.1291    0.0000 N   0  0  0  0  0  0  0  0  0  0  0  0
    5.8487    2.8672    0.0000 C   0  0  0  0  0  0  0  0  0  0  0  0
    4.8992    1.7060    0.0000 C   0  0  0  0  0  0  0  0  0  0  0  0
    3.5014    2.2502    0.0000 C   0  0  0  0  0  0  0  0  0  0  0  0
    2.2395    1.4392    0.0000 N   0  0  0  0  0  0  0  0  0  0  0  0
    2.6621    0.0000    0.0000 C   0  0  0  0  0  0  0  0  0  0  0  0
    2.2395   -1.4392    0.0000 C   0  0  0  0  0  0  0  0  0  0  0  0
    1.1059   -2.4215    0.0000 C   0  0  0  0  0  0  0  0  0  0  0  0
   -0.3789   -2.6350    0.0000 C   0  0  0  0  0  0  0  0  0  0  0  0
   -1.7433   -2.0119    0.0000 C   0  0  0  0  0  0  0  0  0  0  0  0
   -2.5543   -0.7500    0.0000 N   0  0  0  0  0  0  0  0  0  0  0  0
   -2.5543    0.7500    0.0000 N   0  0  0  0  0  0  0  0  0  0  0  0
   -1.7433    2.0119    0.0000 N   0  0  0  0  0  0  0  0  0  0  0  0
   -0.3789    2.6350    0.0000 N   0  0  0  0  0  0  0  0  0  0  0  0
    1.1059    2.4215    0.0000 N   0  0  0  0  0  0  0  0  0  0  0  0
   -1.0695   -0.5365    0.0000 N   0  0  0  0  0  0  0  0  0  0  0  0
    0.2949   -1.1597    0.0000 C   0  0  0  0  0  0  0  0  0  0  0  0
    1.2772   -0.0260    0.0000 O   0  0  0  0  0  0  0  0  0  0  0  0
    3.5870    3.7478    0.0000 C   0  0  0  0  0  0  0  0  0  0  0  0
    4.6435    6.6971    0.0000 C   0  0  0  0  0  0  0  0  0  0  0  0
    5.1877    8.0949    0.0000 C   0  0  0  0  0  0  0  0  0  0  0  0
  1  2  1  0
  2  3  2  0
  2  4  1  0
  4  5  2  0
  4  6  1  0
  6  7  1  0
  7  8  1  0
  8  9  1  0
  9 10  1  0
 10 11  1  0
 11 12  1  0
 12 13  1  0
 13 14  1  0
 14 15  1  0
 15 16  1  0
 16 17  1  0
 17 18  1  0
 18 19  1  0
 19 20  1  0
 20 21  1  0
 21 22  2  0
 22 23  1  0
 23 24  2  0
 20 25  1  0
 25 26  1  0
 26 27  2  0
 13 28  1  0
  9 29  1  0
 29 30  1  0
 30  6  1  0
 28 10  1  0
 24 14  1  0
 26 17  1  0
M  END
>  <Title>  (201) 
idAAFUgen6

$$$$

     RDKit          2D

 32 35  0  0  0  0  0  0  0  0999 V2000
   -3.0729   -0.8734    0.0000 C   0  0  0  0  0  0  0  0  0  0  0  0
   -2.0782   -1.9961    0.0000 C   0  0  0  0  0  0  0  0  0  0  0  0
   -2.9303   -3.2306    0.0000 C   0  0  0  0  0  0  0  0  0  0  0  0
   -3.1111   -4.7197    0.0000 C   0  0  0  0  0  0  0  0  0  0  0  0
   -2.5792   -6.1222    0.0000 C   0  0  0  0  0  0  0  0  0  0  0  0
   -1.4564   -7.1169    0.0000 C   0  0  0  0  0  0  0  0  0  0  0  0
   -0.0000   -7.4758    0.0000 C   0  0  0  0  0  0  0  0  0  0  0  0
    1.4564   -7.1169    0.0000 C   0  0  0  0  0  0  0  0  0  0  0  0
    2.4511   -8.2396    0.0000 C   0  0  0  0  0  0  0  0  0  0  0  0
    2.3605   -9.7369    0.0000 O   0  0  0  0  0  0  0  0  0  0  0  0
    3.5739   -7.2450    0.0000 N   0  0  0  0  0  0  0  0  0  0  0  0
    2.5792   -6.1222    0.0000 C   0  0  0  0  0  0  0  0  0  0  0  0
    3.1111   -4.7197    0.0000 C   0  0  0  0  0  0  0  0  0  0  0  0
    2.9303   -3.2306    0.0000 C   0  0  0  0  0  0  0  0  0  0  0  0
    2.0782   -1.9961    0.0000 C   0  0  0  0  0  0  0  0  0  0  0  0
    3.0729   -0.8734    0.0000 C   0  0  0  0  0  0  0  0  0  0  0  0
    2.5979    0.5494    0.0000 O   0  0  0  0  0  0  0  0  0  0  0  0
    4.5426   -1.1734    0.0000 N   0  0  0  0  0  0  0  0  0  0  0  0
    5.5372   -0.0506    0.0000 C   0  0  0  0  0  0  0  0  0  0  0  0
    7.0069   -0.3507    0.0000 C   0  0  0  0  0  0  0  0  0  0  0  0
    8.0016    0.7721    0.0000 C   0  0  0  0  0  0  0  0  0  0  0  0
    7.5266    2.1949    0.0000 C   0  0  0  0  0  0  0  0  0  0  0  0
    6.0569    2.4949    0.0000 C   0  0  0  0  0  0  0  0  0  0  0  0
    5.0622    1.3722    0.0000 C   0  0  0  0  0  0  0  0  0  0  0  0
    0.7500   -1.2990    0.0000 C   0  0  0  0  0  0  0  0  0  0  0  0
    1.5000    0.0000    0.0000 C   0  0  0  0  0  0  0  0  0  0  0  0
    0.7500    1.2990    0.0000 C   0  0  0  0  0  0  0  0  0  0  0  0
   -0.7500    1.2990    0.0000 C   0  0  0  0  0  0  0  0  0  0  0  0
   -1.5000    2.5981    0.0000 C   0  0  0  0  0  0  0  0  0  0  0  0
   -2.2500    3.8971    0.0000 N   0  0  0  0  0  0  0  0  0  0  0  0
   -1.5000    0.0000    0.0000 C   0  0  0  0  0  0  0  0  0  0  0  0
   -0.7500   -1.2990    0.0000 C   0  0  0  0  0  0  0  0  0  0  0  0
  1  2  1  0
  2  3  1  0
  3  4  2  0
  4  5  1  0
  5  6  2  0
  6  7  1  0
  7  8  2  0
  8  9  1  0
  9 10  2  0
  9 11  1  0
 11 12  1  0
 12 13  2  0
 13 14  1  0
 14 15  2  0
 15 16  1  0
 16 17  2  0
 16 18  1  0
 18 19  1  0
 19 20  2  0
 20 21  1  0
 21 22  2  0
 22 23  1  0
 23 24  2  0
 15 25  1  0
 25 26  2  0
 26 27  1  0
 27 28  2  0
 28 29  1  0
 29 30  3  0
 28 31  1  0
 31 32  2  0
 32  2  1  0
 12  8  1  0
 24 19  1  0
 32 25  1  0
M  END
>  <Title>  (202) 
idAAFVgen6

$$$$

     RDKit          2D

 24 25  0  0  0  0  0  0  0  0999 V2000
    0.7500   -6.4952    0.0000 C   0  0  0  0  0  0  0  0  0  0  0  0
    1.5000   -5.1962    0.0000 C   0  0  0  0  0  0  0  0  0  0  0  0
    3.0000   -5.1962    0.0000 O   0  0  0  0  0  0  0  0  0  0  0  0
    0.7500   -3.8971    0.0000 C   0  0  0  0  0  0  0  0  0  0  0  0
    1.5000   -2.5981    0.0000 C   0  0  0  0  0  0  0  0  0  0  0  0
    0.7500   -1.2990    0.0000 C   0  0  0  0  0  0  0  0  0  0  0  0
    1.5000    0.0000    0.0000 C   0  0  0  0  0  0  0  0  0  0  0  0
    0.7500    1.2990    0.0000 C   0  0  0  0  0  0  0  0  0  0  0  0
   -0.7500    1.2990    0.0000 C   0  0  0  0  0  0  0  0  0  0  0  0
   -1.5000    0.0000    0.0000 C   0  0  0  0  0  0  0  0  0  0  0  0
   -0.7500   -1.2990    0.0000 C   0  0  0  0  0  0  0  0  0  0  0  0
   -0.7500   -3.8971    0.0000 C   0  0  0  0  0  0  0  0  0  0  0  0
   -1.5000   -2.5981    0.0000 O   0  0  0  0  0  0  0  0  0  0  0  0
   -1.5000   -5.1962    0.0000 N   0  0  0  0  0  0  0  0  0  0  0  0
   -3.0000   -5.1962    0.0000 C   0  0  0  0  0  0  0  0  0  0  0  0
   -3.7500   -3.8971    0.0000 O   0  0  0  0  0  0  0  0  0  0  0  0
   -3.7500   -6.4952    0.0000 C   0  0  0  0  0  0  0  0  0  0  0  0
   -5.2500   -6.4952    0.0000 C   0  0  0  0  0  0  0  0  0  0  0  0
   -6.0000   -7.7942    0.0000 C   0  0  0  0  0  0  0  0  0  0  0  0
   -5.2500   -9.0933    0.0000 C   0  0  0  0  0  0  0  0  0  0  0  0
   -6.0000  -10.3923    0.0000 O   0  0  0  0  0  0  0  0  0  0  0  0
   -3.7500   -9.0933    0.0000 C   0  0  0  0  0  0  0  0  0  0  0  0
   -3.0000   -7.7942    0.0000 C   0  0  0  0  0  0  0  0  0  0  0  0
   -1.5000   -7.7942    0.0000 O   0  0  0  0  0  0  0  0  0  0  0  0
  1  2  1  0
  2  3  2  0
  2  4  1  0
  4  5  1  0
  5  6  1  0
  6  7  2  0
  7  8  1  0
  8  9  2  0
  9 10  1  0
 10 11  2  0
  4 12  1  0
 12 13  2  0
 12 14  1  0
 14 15  1  0
 15 16  2  0
 15 17  1  0
 17 18  2  0
 18 19  1  0
 19 20  2  0
 20 21  1  0
 20 22  1  0
 22 23  2  0
 23 24  1  0
 11  6  1  0
 23 17  1  0
M  END
>  <Title>  (203) 
idAAFWgen6

$$$$

     RDKit          2D

 26 28  0  0  0  0  0  0  0  0999 V2000
   -3.1965   -1.7857    0.0000 C   0  0  0  0  0  0  0  0  0  0  0  0
   -1.8107   -2.3597    0.0000 C   0  0  0  0  0  0  0  0  0  0  0  0
   -1.8107   -3.8597    0.0000 C   0  0  0  0  0  0  0  0  0  0  0  0
   -0.7500   -4.9204    0.0000 C   0  0  0  0  0  0  0  0  0  0  0  0
    0.7500   -4.9204    0.0000 C   0  0  0  0  0  0  0  0  0  0  0  0
    1.8107   -3.8597    0.0000 C   0  0  0  0  0  0  0  0  0  0  0  0
    3.1965   -4.4337    0.0000 C   0  0  0  0  0  0  0  0  0  0  0  0
    4.5823   -5.0077    0.0000 N   0  0  0  0  0  0  0  0  0  0  0  0
    1.8107   -2.3597    0.0000 C   0  0  0  0  0  0  0  0  0  0  0  0
    3.1965   -1.7857    0.0000 C   0  0  0  0  0  0  0  0  0  0  0  0
    3.3923   -0.2985    0.0000 O   0  0  0  0  0  0  0  0  0  0  0  0
    4.3865   -2.6988    0.0000 N   0  0  0  0  0  0  0  0  0  0  0  0
    5.7723   -2.1248    0.0000 C   0  0  0  0  0  0  0  0  0  0  0  0
    6.9624   -3.0379    0.0000 N   0  0  0  0  0  0  0  0  0  0  0  0
    8.3482   -2.4639    0.0000 N   0  0  0  0  0  0  0  0  0  0  0  0
    8.5440   -0.9767    0.0000 N   0  0  0  0  0  0  0  0  0  0  0  0
    7.3539   -0.0636    0.0000 N   0  0  0  0  0  0  0  0  0  0  0  0
    5.9681   -0.6376    0.0000 N   0  0  0  0  0  0  0  0  0  0  0  0
    0.7500   -1.2990    0.0000 C   0  0  0  0  0  0  0  0  0  0  0  0
    1.5000    0.0000    0.0000 C   0  0  0  0  0  0  0  0  0  0  0  0
    0.7500    1.2990    0.0000 C   0  0  0  0  0  0  0  0  0  0  0  0
   -0.7500    1.2990    0.0000 C   0  0  0  0  0  0  0  0  0  0  0  0
   -1.5000    2.5981    0.0000 C   0  0  0  0  0  0  0  0  0  0  0  0
   -2.2500    3.8971    0.0000 N   0  0  0  0  0  0  0  0  0  0  0  0
   -1.5000    0.0000    0.0000 C   0  0  0  0  0  0  0  0  0  0  0  0
   -0.7500   -1.2990    0.0000 C   0  0  0  0  0  0  0  0  0  0  0  0
  1  2  1  0
  2  3  1  0
  3  4  2  0
  4  5  1  0
  5  6  1  0
  6  7  1  0
  7  8  3  0
  6  9  1  0
  9 10  1  0
 10 11  2  0
 10 12  1  0
 12 13  1  0
 13 14  2  0
 14 15  1  0
 15 16  2  0
 16 17  1  0
 17 18  2  0
  9 19  1  0
 19 20  2  0
 20 21  1  0
 21 22  2  0
 22 23  1  0
 23 24  3  0
 22 25  1  0
 25 26  2  0
 26  2  1  0
 18 13  1  0
 26 19  1  0
M  END
>  <Title>  (204) 
idAAFXgen6

$$$$

     RDKit          2D

 27 30  0  0  0  0  0  0  0  0999 V2000
   -3.1965   -4.4337    0.0000 C   0  0  0  0  0  0  0  0  0  0  0  0
   -1.8107   -3.8597    0.0000 C   0  0  0  0  0  0  0  0  0  0  0  0
   -0.7500   -4.9204    0.0000 C   0  0  0  0  0  0  0  0  0  0  0  0
    0.7500   -4.9204    0.0000 C   0  0  0  0  0  0  0  0  0  0  0  0
    1.8107   -3.8597    0.0000 C   0  0  0  0  0  0  0  0  0  0  0  0
    3.1965   -4.4337    0.0000 O   0  0  0  0  0  0  0  0  0  0  0  0
    3.3923   -5.9209    0.0000 C   0  0  0  0  0  0  0  0  0  0  0  0
    2.2022   -6.8340    0.0000 C   0  0  0  0  0  0  0  0  0  0  0  0
    2.3980   -8.3212    0.0000 C   0  0  0  0  0  0  0  0  0  0  0  0
    3.7838   -8.8952    0.0000 C   0  0  0  0  0  0  0  0  0  0  0  0
    4.9739   -7.9821    0.0000 C   0  0  0  0  0  0  0  0  0  0  0  0
    4.7781   -6.4949    0.0000 C   0  0  0  0  0  0  0  0  0  0  0  0
    5.9681   -5.5818    0.0000 C   0  0  0  0  0  0  0  0  0  0  0  0
    7.3539   -6.1558    0.0000 N   0  0  0  0  0  0  0  0  0  0  0  0
    8.5440   -5.2427    0.0000 N   0  0  0  0  0  0  0  0  0  0  0  0
    8.3482   -3.7555    0.0000 N   0  0  0  0  0  0  0  0  0  0  0  0
    6.9624   -3.1815    0.0000 N   0  0  0  0  0  0  0  0  0  0  0  0
    5.7723   -4.0946    0.0000 N   0  0  0  0  0  0  0  0  0  0  0  0
    1.8107   -2.3597    0.0000 C   0  0  0  0  0  0  0  0  0  0  0  0
    3.1965   -1.7857    0.0000 O   0  0  0  0  0  0  0  0  0  0  0  0
    0.7500   -1.2990    0.0000 C   0  0  0  0  0  0  0  0  0  0  0  0
    1.5000    0.0000    0.0000 C   0  0  0  0  0  0  0  0  0  0  0  0
    0.7500    1.2990    0.0000 C   0  0  0  0  0  0  0  0  0  0  0  0
   -0.7500    1.2990    0.0000 C   0  0  0  0  0  0  0  0  0  0  0  0
   -1.5000    0.0000    0.0000 C   0  0  0  0  0  0  0  0  0  0  0  0
   -0.7500   -1.2990    0.0000 C   0  0  0  0  0  0  0  0  0  0  0  0
   -1.8107   -2.3597    0.0000 C   0  0  0  0  0  0  0  0  0  0  0  0
  1  2  1  0
  2  3  1  0
  3  4  1  0
  4  5  1  0
  5  6  1  0
  6  7  1  0
  7  8  2  0
  8  9  1  0
  9 10  2  0
 10 11  1  0
 11 12  2  0
 12 13  1  0
 13 14  2  0
 14 15  1  0
 15 16  2  0
 16 17  1  0
 17 18  2  0
  5 19  1  0
 19 20  2  0
 19 21  1  0
 21 22  2  0
 22 23  1  0
 23 24  2  0
 24 25  1  0
 25 26  2  0
 26 27  1  0
 27  2  1  0
 12  7  1  0
 18 13  1  0
 26 21  1  0
M  END
>  <Title>  (205) 
idAAFYgen6

$$$$

     RDKit          2D

 21 23  0  0  0  0  0  0  0  0999 V2000
   -3.1097   -0.9884    0.0000 C   0  0  0  0  0  0  0  0  0  0  0  0
   -2.0490   -2.0490    0.0000 C   0  0  0  0  0  0  0  0  0  0  0  0
   -2.7990   -3.3481    0.0000 C   0  0  0  0  0  0  0  0  0  0  0  0
   -2.7990   -4.8481    0.0000 C   0  0  0  0  0  0  0  0  0  0  0  0
   -2.0490   -6.1471    0.0000 C   0  0  0  0  0  0  0  0  0  0  0  0
   -0.7500   -6.8971    0.0000 C   0  0  0  0  0  0  0  0  0  0  0  0
    0.7500   -6.8971    0.0000 C   0  0  0  0  0  0  0  0  0  0  0  0
    2.0490   -6.1471    0.0000 C   0  0  0  0  0  0  0  0  0  0  0  0
    3.1097   -7.2078    0.0000 O   0  0  0  0  0  0  0  0  0  0  0  0
    2.7990   -4.8481    0.0000 N   0  0  0  0  0  0  0  0  0  0  0  0
    2.7990   -3.3481    0.0000 C   0  0  0  0  0  0  0  0  0  0  0  0
    4.2663   -3.0362    0.0000 N   0  0  0  0  0  0  0  0  0  0  0  0
    4.4231   -1.5444    0.0000 N   0  0  0  0  0  0  0  0  0  0  0  0
    3.0527   -0.9343    0.0000 N   0  0  0  0  0  0  0  0  0  0  0  0
    2.0490   -2.0490    0.0000 N   0  0  0  0  0  0  0  0  0  0  0  0
    0.7500   -1.2990    0.0000 C   0  0  0  0  0  0  0  0  0  0  0  0
    1.5000    0.0000    0.0000 C   0  0  0  0  0  0  0  0  0  0  0  0
    0.7500    1.2990    0.0000 C   0  0  0  0  0  0  0  0  0  0  0  0
   -0.7500    1.2990    0.0000 C   0  0  0  0  0  0  0  0  0  0  0  0
   -1.5000    0.0000    0.0000 C   0  0  0  0  0  0  0  0  0  0  0  0
   -0.7500   -1.2990    0.0000 C   0  0  0  0  0  0  0  0  0  0  0  0
  1  2  1  0
  2  3  1  0
  3  4  1  0
  4  5  1  0
  5  6  1  0
  6  7  1  0
  7  8  1  0
  8  9  2  0
  8 10  1  0
 10 11  1  0
 11 12  2  0
 12 13  1  0
 13 14  2  0
 14 15  1  0
 15 16  1  0
 16 17  2  0
 17 18  1  0
 18 19  2  0
 19 20  1  0
 20 21  2  0
 21  2  1  0
 15 11  1  0
 21 16  1  0
M  END
>  <Title>  (206) 
idAAFZgen6

$$$$

     RDKit          2D

 16 16  0  0  0  0  0  0  0  0999 V2000
    6.2286   -2.5981    0.0000 C   0  0  0  0  0  0  0  0  0  0  0  0
    5.4786   -1.2990    0.0000 C   0  0  0  0  0  0  0  0  0  0  0  0
    6.2286   -0.0000    0.0000 O   0  0  0  0  0  0  0  0  0  0  0  0
    3.9786   -1.2990    0.0000 O   0  0  0  0  0  0  0  0  0  0  0  0
    3.2286   -0.0000    0.0000 C   0  0  0  0  0  0  0  0  0  0  0  0
    3.9786    1.2990    0.0000 O   0  0  0  0  0  0  0  0  0  0  0  0
    1.7286    0.0000    0.0000 C   0  0  0  0  0  0  0  0  0  0  0  0
    1.0777    1.3515    0.0000 C   0  0  0  0  0  0  0  0  0  0  0  0
   -0.3846    1.6852    0.0000 C   0  0  0  0  0  0  0  0  0  0  0  0
   -1.5574    0.7500    0.0000 C   0  0  0  0  0  0  0  0  0  0  0  0
   -1.5574   -0.7500    0.0000 C   0  0  0  0  0  0  0  0  0  0  0  0
   -0.3846   -1.6852    0.0000 C   0  0  0  0  0  0  0  0  0  0  0  0
   -0.7184   -3.1476    0.0000 C   0  0  0  0  0  0  0  0  0  0  0  0
    0.3812   -4.1679    0.0000 O   0  0  0  0  0  0  0  0  0  0  0  0
   -2.1518   -3.5898    0.0000 O   0  0  0  0  0  0  0  0  0  0  0  0
    1.0777   -1.3515    0.0000 C   0  0  0  0  0  0  0  0  0  0  0  0
  1  2  1  0
  2  3  2  0
  2  4  1  0
  4  5  1  0
  5  6  2  0
  5  7  1  0
  7  8  1  0
  8  9  1  0
  9 10  2  0
 10 11  1  0
 11 12  2  0
 12 13  1  0
 13 14  2  0
 13 15  1  0
 12 16  1  0
 16  7  1  0
M  END
>  <Title>  (207) 
idAAGAgen6

$$$$

     RDKit          2D

 41 46  0  0  0  0  0  0  0  0999 V2000
    4.4660   -9.4151    0.0000 C   0  0  0  0  0  0  0  0  0  0  0  0
    2.9692   -9.5132    0.0000 C   0  0  0  0  0  0  0  0  0  0  0  0
    2.3057  -10.8585    0.0000 O   0  0  0  0  0  0  0  0  0  0  0  0
    2.1358   -8.2660    0.0000 C   0  0  0  0  0  0  0  0  0  0  0  0
    3.1965   -7.2054    0.0000 C   0  0  0  0  0  0  0  0  0  0  0  0
    3.7705   -5.8195    0.0000 C   0  0  0  0  0  0  0  0  0  0  0  0
    3.7705   -4.3195    0.0000 C   0  0  0  0  0  0  0  0  0  0  0  0
    3.1965   -2.9337    0.0000 C   0  0  0  0  0  0  0  0  0  0  0  0
    2.1358   -1.8731    0.0000 C   0  0  0  0  0  0  0  0  0  0  0  0
    2.9692   -0.6259    0.0000 C   0  0  0  0  0  0  0  0  0  0  0  0
    0.7500   -1.2990    0.0000 C   0  0  0  0  0  0  0  0  0  0  0  0
    1.5000    0.0000    0.0000 C   0  0  0  0  0  0  0  0  0  0  0  0
    0.7500    1.2990    0.0000 C   0  0  0  0  0  0  0  0  0  0  0  0
   -0.7500    1.2990    0.0000 C   0  0  0  0  0  0  0  0  0  0  0  0
   -1.5000    0.0000    0.0000 C   0  0  0  0  0  0  0  0  0  0  0  0
   -0.7500   -1.2990    0.0000 C   0  0  0  0  0  0  0  0  0  0  0  0
   -2.1358   -1.8731    0.0000 C   0  0  0  0  0  0  0  0  0  0  0  0
   -2.5240   -0.4242    0.0000 C   0  0  0  0  0  0  0  0  0  0  0  0
   -3.9729   -0.0359    0.0000 C   0  0  0  0  0  0  0  0  0  0  0  0
   -5.0336   -1.0966    0.0000 C   0  0  0  0  0  0  0  0  0  0  0  0
   -4.6454   -2.5455    0.0000 C   0  0  0  0  0  0  0  0  0  0  0  0
   -3.1965   -2.9337    0.0000 C   0  0  0  0  0  0  0  0  0  0  0  0
   -3.7705   -4.3195    0.0000 C   0  0  0  0  0  0  0  0  0  0  0  0
   -5.0695   -3.5695    0.0000 C   0  0  0  0  0  0  0  0  0  0  0  0
   -6.3686   -4.3195    0.0000 C   0  0  0  0  0  0  0  0  0  0  0  0
   -6.3686   -5.8195    0.0000 C   0  0  0  0  0  0  0  0  0  0  0  0
   -5.0695   -6.5695    0.0000 C   0  0  0  0  0  0  0  0  0  0  0  0
   -3.7705   -5.8195    0.0000 C   0  0  0  0  0  0  0  0  0  0  0  0
   -3.1965   -7.2054    0.0000 C   0  0  0  0  0  0  0  0  0  0  0  0
   -4.6454   -7.5936    0.0000 C   0  0  0  0  0  0  0  0  0  0  0  0
   -5.0336   -9.0425    0.0000 C   0  0  0  0  0  0  0  0  0  0  0  0
   -3.9729  -10.1031    0.0000 C   0  0  0  0  0  0  0  0  0  0  0  0
   -2.5240   -9.7149    0.0000 C   0  0  0  0  0  0  0  0  0  0  0  0
   -2.1358   -8.2660    0.0000 C   0  0  0  0  0  0  0  0  0  0  0  0
   -0.7500   -8.8400    0.0000 C   0  0  0  0  0  0  0  0  0  0  0  0
   -1.5000  -10.1391    0.0000 C   0  0  0  0  0  0  0  0  0  0  0  0
   -0.7500  -11.4381    0.0000 C   0  0  0  0  0  0  0  0  0  0  0  0
   -1.5000  -12.7372    0.0000 O   0  0  0  0  0  0  0  0  0  0  0  0
    0.7500  -11.4381    0.0000 C   0  0  0  0  0  0  0  0  0  0  0  0
    1.5000  -10.1391    0.0000 C   0  0  0  0  0  0  0  0  0  0  0  0
    0.7500   -8.8400    0.0000 C   0  0  0  0  0  0  0  0  0  0  0  0
  1  2  1  0
  2  3  2  0
  2  4  1  0
  4  5  1  0
  5  6  1  0
  6  7  1  0
  7  8  1  0
  8  9  1  0
  9 10  1  0
  9 11  1  0
 11 12  2  0
 12 13  1  0
 13 14  2  0
 14 15  1  0
 15 16  2  0
 16 17  1  0
 17 18  2  0
 18 19  1  0
 19 20  2  0
 20 21  1  0
 21 22  2  0
 22 23  1  0
 23 24  2  0
 24 25  1  0
 25 26  2  0
 26 27  1  0
 27 28  2  0
 28 29  1  0
 29 30  2  0
 30 31  1  0
 31 32  2  0
 32 33  1  0
 33 34  2  0
 34 35  1  0
 35 36  2  0
 36 37  1  0
 37 38  1  0
 37 39  2  0
 39 40  1  0
 40 41  2  0
 41  4  1  0
 16 11  1  0
 22 17  1  0
 28 23  1  0
 34 29  1  0
 41 35  1  0
M  END
>  <Title>  (208) 
idAAGBgen6

$$$$

     RDKit          2D

 26 29  0  0  0  0  0  0  0  0999 V2000
   -3.0000   -2.5981    0.0000 C   0  0  0  0  0  0  0  0  0  0  0  0
   -1.5000   -2.5981    0.0000 C   0  0  0  0  0  0  0  0  0  0  0  0
   -0.7500   -3.8971    0.0000 C   0  0  0  0  0  0  0  0  0  0  0  0
    0.7500   -3.8971    0.0000 C   0  0  0  0  0  0  0  0  0  0  0  0
    1.5000   -2.5981    0.0000 C   0  0  0  0  0  0  0  0  0  0  0  0
    3.0000   -2.5981    0.0000 C   0  0  0  0  0  0  0  0  0  0  0  0
    3.7500   -1.2990    0.0000 O   0  0  0  0  0  0  0  0  0  0  0  0
    3.7500   -3.8971    0.0000 N   0  0  0  0  0  0  0  0  0  0  0  0
    5.2500   -3.8971    0.0000 C   0  0  0  0  0  0  0  0  0  0  0  0
    6.1317   -2.6836    0.0000 N   0  0  0  0  0  0  0  0  0  0  0  0
    7.5583   -3.1471    0.0000 N   0  0  0  0  0  0  0  0  0  0  0  0
    7.5583   -4.6471    0.0000 N   0  0  0  0  0  0  0  0  0  0  0  0
    6.1317   -5.1106    0.0000 N   0  0  0  0  0  0  0  0  0  0  0  0
    5.6682   -6.5372    0.0000 C   0  0  0  0  0  0  0  0  0  0  0  0
    4.2009   -6.8491    0.0000 C   0  0  0  0  0  0  0  0  0  0  0  0
    3.7374   -8.2757    0.0000 C   0  0  0  0  0  0  0  0  0  0  0  0
    4.7411   -9.3904    0.0000 C   0  0  0  0  0  0  0  0  0  0  0  0
    6.2083   -9.0785    0.0000 C   0  0  0  0  0  0  0  0  0  0  0  0
    6.6718   -7.6519    0.0000 C   0  0  0  0  0  0  0  0  0  0  0  0
    0.7500   -1.2990    0.0000 C   0  0  0  0  0  0  0  0  0  0  0  0
    1.5000    0.0000    0.0000 C   0  0  0  0  0  0  0  0  0  0  0  0
    0.7500    1.2990    0.0000 C   0  0  0  0  0  0  0  0  0  0  0  0
   -0.7500    1.2990    0.0000 C   0  0  0  0  0  0  0  0  0  0  0  0
   -1.5000    2.5981    0.0000 O   0  0  0  0  0  0  0  0  0  0  0  0
   -1.5000    0.0000    0.0000 C   0  0  0  0  0  0  0  0  0  0  0  0
   -0.7500   -1.2990    0.0000 C   0  0  0  0  0  0  0  0  0  0  0  0
  1  2  1  0
  2  3  1  0
  3  4  1  0
  4  5  1  0
  5  6  1  0
  6  7  2  0
  6  8  1  0
  8  9  1  0
  9 10  2  0
 10 11  1  0
 11 12  2  0
 12 13  1  0
 13 14  1  0
 14 15  2  0
 15 16  1  0
 16 17  2  0
 17 18  1  0
 18 19  2  0
  5 20  1  0
 20 21  2  0
 21 22  1  0
 22 23  2  0
 23 24  1  0
 23 25  1  0
 25 26  2  0
 26  2  1  0
 13  9  1  0
 19 14  1  0
 26 20  1  0
M  END
>  <Title>  (209) 
idAAGCgen6

$$$$

     RDKit          2D

  8  8  0  0  0  0  0  0  0  0999 V2000
    2.7760    0.0000    0.0000 C   0  0  0  0  0  0  0  0  0  0  0  0
    1.2760    0.0000    0.0000 C   0  0  0  0  0  0  0  0  0  0  0  0
    0.3943    1.2135    0.0000 C   0  0  0  0  0  0  0  0  0  0  0  0
   -1.0323    0.7500    0.0000 C   0  0  0  0  0  0  0  0  0  0  0  0
   -1.0323   -0.7500    0.0000 C   0  0  0  0  0  0  0  0  0  0  0  0
   -2.2458   -1.6317    0.0000 O   0  0  0  0  0  0  0  0  0  0  0  0
    0.3943   -1.2135    0.0000 C   0  0  0  0  0  0  0  0  0  0  0  0
    0.8578   -2.6401    0.0000 C   0  0  0  0  0  0  0  0  0  0  0  0
  1  2  1  0
  2  3  1  0
  3  4  1  0
  4  5  1  0
  5  6  1  0
  5  7  1  0
  7  8  1  0
  7  2  1  0
M  END
>  <Title>  (210) 
idAAGDgen6

$$$$

     RDKit          2D

 23 25  0  0  0  0  0  0  0  0999 V2000
   -3.1476   -2.1380    0.0000 C   0  0  0  0  0  0  0  0  0  0  0  0
   -1.6852   -2.4718    0.0000 C   0  0  0  0  0  0  0  0  0  0  0  0
   -1.3515   -3.9342    0.0000 C   0  0  0  0  0  0  0  0  0  0  0  0
   -0.0000   -4.5850    0.0000 C   0  0  0  0  0  0  0  0  0  0  0  0
    1.3515   -3.9342    0.0000 C   0  0  0  0  0  0  0  0  0  0  0  0
    1.6852   -2.4718    0.0000 C   0  0  0  0  0  0  0  0  0  0  0  0
    3.1476   -2.1380    0.0000 C   0  0  0  0  0  0  0  0  0  0  0  0
    3.5898   -0.7046    0.0000 O   0  0  0  0  0  0  0  0  0  0  0  0
    4.1679   -3.2376    0.0000 N   0  0  0  0  0  0  0  0  0  0  0  0
    5.6303   -2.9038    0.0000 C   0  0  0  0  0  0  0  0  0  0  0  0
    6.6505   -4.0034    0.0000 N   0  0  0  0  0  0  0  0  0  0  0  0
    8.1129   -3.6696    0.0000 N   0  0  0  0  0  0  0  0  0  0  0  0
    8.5551   -2.2362    0.0000 N   0  0  0  0  0  0  0  0  0  0  0  0
    7.5348   -1.1367    0.0000 N   0  0  0  0  0  0  0  0  0  0  0  0
    6.0724   -1.4704    0.0000 N   0  0  0  0  0  0  0  0  0  0  0  0
    0.7500   -1.2990    0.0000 C   0  0  0  0  0  0  0  0  0  0  0  0
    1.5000    0.0000    0.0000 C   0  0  0  0  0  0  0  0  0  0  0  0
    0.7500    1.2990    0.0000 C   0  0  0  0  0  0  0  0  0  0  0  0
   -0.7500    1.2990    0.0000 C   0  0  0  0  0  0  0  0  0  0  0  0
   -1.5000    2.5981    0.0000 C   0  0  0  0  0  0  0  0  0  0  0  0
   -2.2500    3.8971    0.0000 N   0  0  0  0  0  0  0  0  0  0  0  0
   -1.5000    0.0000    0.0000 C   0  0  0  0  0  0  0  0  0  0  0  0
   -0.7500   -1.2990    0.0000 C   0  0  0  0  0  0  0  0  0  0  0  0
  1  2  1  0
  2  3  1  0
  3  4  2  0
  4  5  1  0
  5  6  1  0
  6  7  1  0
  7  8  2  0
  7  9  1  0
  9 10  1  0
 10 11  2  0
 11 12  1  0
 12 13  2  0
 13 14  1  0
 14 15  2  0
  6 16  1  0
 16 17  2  0
 17 18  1  0
 18 19  2  0
 19 20  1  0
 20 21  3  0
 19 22  1  0
 22 23  2  0
 23  2  1  0
 15 10  1  0
 23 16  1  0
M  END
>  <Title>  (211) 
idAAGEgen6

$$$$

     RDKit          2D

 16 16  0  0  0  0  0  0  0  0999 V2000
    5.1073    0.0000    0.0000 C   0  0  0  0  0  0  0  0  0  0  0  0
    3.6073    0.0000    0.0000 C   0  0  0  0  0  0  0  0  0  0  0  0
    3.2954    1.4672    0.0000 C   0  0  0  0  0  0  0  0  0  0  0  0
    2.4138    2.6807    0.0000 C   0  0  0  0  0  0  0  0  0  0  0  0
    1.1147    3.4307    0.0000 C   0  0  0  0  0  0  0  0  0  0  0  0
   -0.3771    3.5875    0.0000 C   0  0  0  0  0  0  0  0  0  0  0  0
   -1.8037    3.1240    0.0000 C   0  0  0  0  0  0  0  0  0  0  0  0
   -2.9184    2.1203    0.0000 C   0  0  0  0  0  0  0  0  0  0  0  0
   -3.5285    0.7500    0.0000 C   0  0  0  0  0  0  0  0  0  0  0  0
   -3.5285   -0.7500    0.0000 C   0  0  0  0  0  0  0  0  0  0  0  0
   -2.9184   -2.1203    0.0000 C   0  0  0  0  0  0  0  0  0  0  0  0
   -1.8037   -3.1240    0.0000 C   0  0  0  0  0  0  0  0  0  0  0  0
   -0.3771   -3.5875    0.0000 C   0  0  0  0  0  0  0  0  0  0  0  0
    1.1147   -3.4307    0.0000 C   0  0  0  0  0  0  0  0  0  0  0  0
    2.4138   -2.6807    0.0000 C   0  0  0  0  0  0  0  0  0  0  0  0
    3.2954   -1.4672    0.0000 C   0  0  0  0  0  0  0  0  0  0  0  0
  1  2  1  0
  2  3  1  0
  3  4  2  0
  4  5  1  0
  5  6  1  0
  6  7  1  0
  7  8  1  0
  8  9  1  0
  9 10  1  0
 10 11  1  0
 11 12  1  0
 12 13  1  0
 13 14  1  0
 14 15  1  0
 15 16  1  0
 16  2  1  0
M  END
>  <Title>  (212) 
idAAGFgen6

$$$$

     RDKit          2D

 21 21  0  0  0  0  0  0  0  0999 V2000
    5.0321    0.0000    0.0000 C   0  0  0  0  0  0  0  0  0  0  0  0
    4.8086    1.4832    0.0000 C   0  0  0  0  0  0  0  0  0  0  0  0
    4.1577    2.8347    0.0000 C   0  0  0  0  0  0  0  0  0  0  0  0
    3.1375    3.9343    0.0000 C   0  0  0  0  0  0  0  0  0  0  0  0
    1.8384    4.6843    0.0000 C   0  0  0  0  0  0  0  0  0  0  0  0
    0.3761    5.0181    0.0000 C   0  0  0  0  0  0  0  0  0  0  0  0
   -1.1198    4.9060    0.0000 C   0  0  0  0  0  0  0  0  0  0  0  0
   -2.5161    4.3580    0.0000 C   0  0  0  0  0  0  0  0  0  0  0  0
   -3.6888    3.4227    0.0000 C   0  0  0  0  0  0  0  0  0  0  0  0
   -4.5338    2.1834    0.0000 C   0  0  0  0  0  0  0  0  0  0  0  0
   -4.9759    0.7500    0.0000 C   0  0  0  0  0  0  0  0  0  0  0  0
   -4.9759   -0.7500    0.0000 C   0  0  0  0  0  0  0  0  0  0  0  0
   -4.5338   -2.1834    0.0000 C   0  0  0  0  0  0  0  0  0  0  0  0
   -3.6888   -3.4227    0.0000 C   0  0  0  0  0  0  0  0  0  0  0  0
   -2.5161   -4.3580    0.0000 C   0  0  0  0  0  0  0  0  0  0  0  0
   -1.1198   -4.9060    0.0000 C   0  0  0  0  0  0  0  0  0  0  0  0
    0.3761   -5.0181    0.0000 C   0  0  0  0  0  0  0  0  0  0  0  0
    1.8384   -4.6843    0.0000 C   0  0  0  0  0  0  0  0  0  0  0  0
    3.1375   -3.9343    0.0000 C   0  0  0  0  0  0  0  0  0  0  0  0
    4.1577   -2.8347    0.0000 C   0  0  0  0  0  0  0  0  0  0  0  0
    4.8086   -1.4832    0.0000 C   0  0  0  0  0  0  0  0  0  0  0  0
  1  2  1  0
  2  3  1  0
  3  4  1  0
  4  5  1  0
  5  6  1  0
  6  7  1  0
  7  8  1  0
  8  9  1  0
  9 10  1  0
 10 11  1  0
 11 12  1  0
 12 13  1  0
 13 14  1  0
 14 15  1  0
 15 16  1  0
 16 17  1  0
 17 18  1  0
 18 19  1  0
 19 20  1  0
 20 21  1  0
 21  1  1  0
M  END
>  <Title>  (213) 
idAAGGgen6

$$$$

     RDKit          2D

 31 34  0  0  0  0  0  0  0  0999 V2000
   -3.1097   -0.9884    0.0000 C   0  0  0  0  0  0  0  0  0  0  0  0
   -2.0490   -2.0490    0.0000 C   0  0  0  0  0  0  0  0  0  0  0  0
   -2.7990   -3.3481    0.0000 C   0  0  0  0  0  0  0  0  0  0  0  0
   -2.7990   -4.8481    0.0000 C   0  0  0  0  0  0  0  0  0  0  0  0
   -2.0490   -6.1471    0.0000 C   0  0  0  0  0  0  0  0  0  0  0  0
   -0.7500   -6.8971    0.0000 C   0  0  0  0  0  0  0  0  0  0  0  0
    0.7500   -6.8971    0.0000 C   0  0  0  0  0  0  0  0  0  0  0  0
    2.0490   -6.1471    0.0000 C   0  0  0  0  0  0  0  0  0  0  0  0
    2.7990   -4.8481    0.0000 C   0  0  0  0  0  0  0  0  0  0  0  0
    3.2412   -6.2814    0.0000 C   0  0  0  0  0  0  0  0  0  0  0  0
    4.7244   -6.5050    0.0000 O   0  0  0  0  0  0  0  0  0  0  0  0
    2.3962   -7.5208    0.0000 N   0  0  0  0  0  0  0  0  0  0  0  0
    0.9004   -7.6329    0.0000 C   0  0  0  0  0  0  0  0  0  0  0  0
    0.3524   -9.0292    0.0000 N   0  0  0  0  0  0  0  0  0  0  0  0
    1.2876  -10.2019    0.0000 N   0  0  0  0  0  0  0  0  0  0  0  0
    0.7396  -11.5983    0.0000 N   0  0  0  0  0  0  0  0  0  0  0  0
    1.6748  -12.7710    0.0000 N   0  0  0  0  0  0  0  0  0  0  0  0
    1.5069  -14.2616    0.0000 C   0  0  0  0  0  0  0  0  0  0  0  0
    0.3341  -15.1968    0.0000 O   0  0  0  0  0  0  0  0  0  0  0  0
    2.9975  -14.4295    0.0000 O   0  0  0  0  0  0  0  0  0  0  0  0
    3.1654  -12.9390    0.0000 C   0  0  0  0  0  0  0  0  0  0  0  0
    4.3381  -12.0037    0.0000 O   0  0  0  0  0  0  0  0  0  0  0  0
    2.7990   -3.3481    0.0000 C   0  0  0  0  0  0  0  0  0  0  0  0
    4.2479   -2.9598    0.0000 O   0  0  0  0  0  0  0  0  0  0  0  0
    2.0490   -2.0490    0.0000 O   0  0  0  0  0  0  0  0  0  0  0  0
    0.7500   -1.2990    0.0000 C   0  0  0  0  0  0  0  0  0  0  0  0
    1.5000    0.0000    0.0000 C   0  0  0  0  0  0  0  0  0  0  0  0
    0.7500    1.2990    0.0000 C   0  0  0  0  0  0  0  0  0  0  0  0
   -0.7500    1.2990    0.0000 C   0  0  0  0  0  0  0  0  0  0  0  0
   -1.5000    0.0000    0.0000 C   0  0  0  0  0  0  0  0  0  0  0  0
   -0.7500   -1.2990    0.0000 C   0  0  0  0  0  0  0  0  0  0  0  0
  1  2  1  0
  2  3  1  0
  3  4  1  0
  4  5  1  0
  5  6  2  0
  6  7  1  0
  7  8  1  0
  8  9  1  0
  9 10  1  0
 10 11  2  0
 10 12  1  0
 12 13  1  0
 13 14  2  3
 14 15  1  0
 15 16  2  3
 16 17  1  0
 17 18  1  0
 18 19  2  0
 18 20  1  0
 20 21  1  0
 21 22  2  0
  9 23  1  0
 23 24  2  0
 23 25  1  0
 25 26  1  0
 26 27  2  0
 27 28  1  0
 28 29  2  0
 29 30  1  0
 30 31  2  0
 31  2  1  0
 13  6  1  0
 21 17  1  0
 31 26  1  0
M  END
>  <Title>  (214) 
idAAGHgen6

$$$$

     RDKit          2D

 31 35  0  0  0  0  0  0  0  0999 V2000
   -3.0000   -2.5981    0.0000 C   0  0  0  0  0  0  0  0  0  0  0  0
   -1.5000   -2.5981    0.0000 C   0  0  0  0  0  0  0  0  0  0  0  0
   -0.7500   -3.8971    0.0000 C   0  0  0  0  0  0  0  0  0  0  0  0
    0.7500   -3.8971    0.0000 C   0  0  0  0  0  0  0  0  0  0  0  0
    1.5000   -2.5981    0.0000 C   0  0  0  0  0  0  0  0  0  0  0  0
    3.0000   -2.5981    0.0000 C   0  0  0  0  0  0  0  0  0  0  0  0
    3.7500   -1.2990    0.0000 O   0  0  0  0  0  0  0  0  0  0  0  0
    3.7500   -3.8971    0.0000 N   0  0  0  0  0  0  0  0  0  0  0  0
    5.2500   -3.8971    0.0000 C   0  0  0  0  0  0  0  0  0  0  0  0
    6.1317   -2.6836    0.0000 N   0  0  0  0  0  0  0  0  0  0  0  0
    7.5583   -3.1471    0.0000 N   0  0  0  0  0  0  0  0  0  0  0  0
    7.5583   -4.6471    0.0000 N   0  0  0  0  0  0  0  0  0  0  0  0
    6.1317   -5.1106    0.0000 N   0  0  0  0  0  0  0  0  0  0  0  0
    5.6682   -6.5372    0.0000 C   0  0  0  0  0  0  0  0  0  0  0  0
    4.2009   -6.8491    0.0000 C   0  0  0  0  0  0  0  0  0  0  0  0
    3.7374   -8.2757    0.0000 C   0  0  0  0  0  0  0  0  0  0  0  0
    4.7411   -9.3904    0.0000 C   0  0  0  0  0  0  0  0  0  0  0  0
    4.2776  -10.8170    0.0000 N   0  0  0  0  0  0  0  0  0  0  0  0
    5.1593  -12.0305    0.0000 C   0  0  0  0  0  0  0  0  0  0  0  0
    4.2776  -13.2440    0.0000 C   0  0  0  0  0  0  0  0  0  0  0  0
    2.8510  -12.7805    0.0000 C   0  0  0  0  0  0  0  0  0  0  0  0
    2.8510  -11.2805    0.0000 C   0  0  0  0  0  0  0  0  0  0  0  0
    1.6375  -10.3988    0.0000 O   0  0  0  0  0  0  0  0  0  0  0  0
    6.2083   -9.0785    0.0000 C   0  0  0  0  0  0  0  0  0  0  0  0
    6.6718   -7.6519    0.0000 C   0  0  0  0  0  0  0  0  0  0  0  0
    0.7500   -1.2990    0.0000 C   0  0  0  0  0  0  0  0  0  0  0  0
    1.5000    0.0000    0.0000 C   0  0  0  0  0  0  0  0  0  0  0  0
    0.7500    1.2990    0.0000 C   0  0  0  0  0  0  0  0  0  0  0  0
   -0.7500    1.2990    0.0000 C   0  0  0  0  0  0  0  0  0  0  0  0
   -1.5000    0.0000    0.0000 C   0  0  0  0  0  0  0  0  0  0  0  0
   -0.7500   -1.2990    0.0000 C   0  0  0  0  0  0  0  0  0  0  0  0
  1  2  1  0
  2  3  1  0
  3  4  1  0
  4  5  1  0
  5  6  1  0
  6  7  2  0
  6  8  1  0
  8  9  1  0
  9 10  2  0
 10 11  1  0
 11 12  2  0
 12 13  1  0
 13 14  1  0
 14 15  2  0
 15 16  1  0
 16 17  2  0
 17 18  1  0
 18 19  1  0
 19 20  1  0
 20 21  1  0
 21 22  1  0
 22 23  2  0
 17 24  1  0
 24 25  1  0
  5 26  1  0
 26 27  2  0
 27 28  1  0
 28 29  2  0
 29 30  1  0
 30 31  2  0
 31  2  1  0
 13  9  1  0
 25 14  1  0
 31 26  1  0
 22 18  1  0
M  END
>  <Title>  (215) 
idAAGIgen6

$$$$

     RDKit          2D

 28 32  0  0  0  0  0  0  0  0999 V2000
   -3.0000   -2.5981    0.0000 C   0  0  0  0  0  0  0  0  0  0  0  0
   -1.5000   -2.5981    0.0000 C   0  0  0  0  0  0  0  0  0  0  0  0
   -0.7500   -3.8971    0.0000 C   0  0  0  0  0  0  0  0  0  0  0  0
    0.7500   -3.8971    0.0000 C   0  0  0  0  0  0  0  0  0  0  0  0
    1.5000   -2.5981    0.0000 C   0  0  0  0  0  0  0  0  0  0  0  0
    3.0000   -2.5981    0.0000 C   0  0  0  0  0  0  0  0  0  0  0  0
    3.7500   -1.2990    0.0000 O   0  0  0  0  0  0  0  0  0  0  0  0
    3.7500   -3.8971    0.0000 N   0  0  0  0  0  0  0  0  0  0  0  0
    5.2500   -3.8971    0.0000 C   0  0  0  0  0  0  0  0  0  0  0  0
    6.1317   -2.6836    0.0000 N   0  0  0  0  0  0  0  0  0  0  0  0
    7.5583   -3.1471    0.0000 N   0  0  0  0  0  0  0  0  0  0  0  0
    7.5583   -4.6471    0.0000 N   0  0  0  0  0  0  0  0  0  0  0  0
    6.1317   -5.1106    0.0000 N   0  0  0  0  0  0  0  0  0  0  0  0
    5.6682   -6.5372    0.0000 N   0  0  0  0  0  0  0  0  0  0  0  0
    4.2416   -7.0008    0.0000 C   0  0  0  0  0  0  0  0  0  0  0  0
    4.2416   -8.5008    0.0000 C   0  0  0  0  0  0  0  0  0  0  0  0
    5.6682   -8.9643    0.0000 C   0  0  0  0  0  0  0  0  0  0  0  0
    6.2783  -10.3346    0.0000 C   0  0  0  0  0  0  0  0  0  0  0  0
    7.7700  -10.4914    0.0000 C   0  0  0  0  0  0  0  0  0  0  0  0
    8.6517   -9.2779    0.0000 C   0  0  0  0  0  0  0  0  0  0  0  0
    8.0416   -7.9075    0.0000 C   0  0  0  0  0  0  0  0  0  0  0  0
    6.5498   -7.7508    0.0000 C   0  0  0  0  0  0  0  0  0  0  0  0
    0.7500   -1.2990    0.0000 C   0  0  0  0  0  0  0  0  0  0  0  0
    1.5000    0.0000    0.0000 C   0  0  0  0  0  0  0  0  0  0  0  0
    0.7500    1.2990    0.0000 C   0  0  0  0  0  0  0  0  0  0  0  0
   -0.7500    1.2990    0.0000 C   0  0  0  0  0  0  0  0  0  0  0  0
   -1.5000    0.0000    0.0000 C   0  0  0  0  0  0  0  0  0  0  0  0
   -0.7500   -1.2990    0.0000 C   0  0  0  0  0  0  0  0  0  0  0  0
  1  2  1  0
  2  3  1  0
  3  4  2  0
  4  5  1  0
  5  6  1  0
  6  7  2  0
  6  8  1  0
  8  9  1  0
  9 10  2  0
 10 11  1  0
 11 12  2  0
 12 13  1  0
 13 14  1  0
 14 15  1  0
 15 16  1  0
 16 17  1  0
 17 18  2  0
 18 19  1  0
 19 20  2  0
 20 21  1  0
 21 22  2  0
  5 23  1  0
 23 24  2  0
 24 25  1  0
 25 26  2  0
 26 27  1  0
 27 28  2  0
 28  2  1  0
 13  9  1  0
 22 14  1  0
 28 23  1  0
 22 17  1  0
M  END
>  <Title>  (216) 
idAAGJgen6

$$$$

     RDKit          2D

 22 23  0  0  0  0  0  0  0  0999 V2000
    0.7500   -6.4952    0.0000 C   0  0  0  0  0  0  0  0  0  0  0  0
    1.5000   -5.1962    0.0000 C   0  0  0  0  0  0  0  0  0  0  0  0
    3.0000   -5.1962    0.0000 O   0  0  0  0  0  0  0  0  0  0  0  0
    0.7500   -3.8971    0.0000 C   0  0  0  0  0  0  0  0  0  0  0  0
    1.5000   -2.5981    0.0000 C   0  0  0  0  0  0  0  0  0  0  0  0
    0.7500   -1.2990    0.0000 C   0  0  0  0  0  0  0  0  0  0  0  0
    1.5000    0.0000    0.0000 C   0  0  0  0  0  0  0  0  0  0  0  0
    0.7500    1.2990    0.0000 C   0  0  0  0  0  0  0  0  0  0  0  0
   -0.7500    1.2990    0.0000 C   0  0  0  0  0  0  0  0  0  0  0  0
   -1.5000    0.0000    0.0000 C   0  0  0  0  0  0  0  0  0  0  0  0
   -0.7500   -1.2990    0.0000 C   0  0  0  0  0  0  0  0  0  0  0  0
   -0.7500   -3.8971    0.0000 N   0  0  0  0  0  0  0  0  0  0  0  0
   -1.5000   -5.1962    0.0000 C   0  0  0  0  0  0  0  0  0  0  0  0
   -0.7500   -6.4952    0.0000 O   0  0  0  0  0  0  0  0  0  0  0  0
   -3.0000   -5.1962    0.0000 C   0  0  0  0  0  0  0  0  0  0  0  0
   -3.8817   -6.4097    0.0000 C   0  0  0  0  0  0  0  0  0  0  0  0
   -5.3083   -5.9462    0.0000 C   0  0  0  0  0  0  0  0  0  0  0  0
   -5.3083   -4.4462    0.0000 C   0  0  0  0  0  0  0  0  0  0  0  0
   -6.5218   -3.5645    0.0000 C   0  0  0  0  0  0  0  0  0  0  0  0
   -7.8921   -4.1746    0.0000 O   0  0  0  0  0  0  0  0  0  0  0  0
   -6.3650   -2.0727    0.0000 O   0  0  0  0  0  0  0  0  0  0  0  0
   -3.8817   -3.9826    0.0000 C   0  0  0  0  0  0  0  0  0  0  0  0
  1  2  1  0
  2  3  2  0
  2  4  1  0
  4  5  1  0
  5  6  1  0
  6  7  2  0
  7  8  1  0
  8  9  2  0
  9 10  1  0
 10 11  2  0
  4 12  1  0
 12 13  1  0
 13 14  2  0
 13 15  1  0
 15 16  1  0
 16 17  1  0
 17 18  1  0
 18 19  1  0
 19 20  2  0
 19 21  1  0
 18 22  1  0
 11  6  1  0
 22 15  1  0
M  END
>  <Title>  (217) 
idAAGKgen6

$$$$

     RDKit          2D

 33 35  0  0  0  0  0  0  0  0999 V2000
    0.7500  -16.8875    0.0000 C   0  0  0  0  0  0  0  0  0  0  0  0
    1.5000  -15.5885    0.0000 C   0  0  0  0  0  0  0  0  0  0  0  0
    0.7500  -14.2894    0.0000 C   0  0  0  0  0  0  0  0  0  0  0  0
    1.5000  -12.9904    0.0000 C   0  0  0  0  0  0  0  0  0  0  0  0
    0.7500  -11.6913    0.0000 C   0  0  0  0  0  0  0  0  0  0  0  0
    1.5000  -10.3923    0.0000 C   0  0  0  0  0  0  0  0  0  0  0  0
    0.7500   -9.0933    0.0000 C   0  0  0  0  0  0  0  0  0  0  0  0
    1.5000   -7.7942    0.0000 O   0  0  0  0  0  0  0  0  0  0  0  0
    0.7500   -6.4952    0.0000 C   0  0  0  0  0  0  0  0  0  0  0  0
    1.5000   -5.1962    0.0000 C   0  0  0  0  0  0  0  0  0  0  0  0
    0.7500   -3.8971    0.0000 C   0  0  0  0  0  0  0  0  0  0  0  0
   -0.7500   -3.8971    0.0000 O   0  0  0  0  0  0  0  0  0  0  0  0
    1.5000   -2.5981    0.0000 N   0  0  0  0  0  0  0  0  0  0  0  0
    0.7500   -1.2990    0.0000 C   0  0  0  0  0  0  0  0  0  0  0  0
    1.5000    0.0000    0.0000 N   0  0  0  0  0  0  0  0  0  0  0  0
    0.7500    1.2990    0.0000 N   0  0  0  0  0  0  0  0  0  0  0  0
   -0.7500    1.2990    0.0000 N   0  0  0  0  0  0  0  0  0  0  0  0
   -1.5000    0.0000    0.0000 N   0  0  0  0  0  0  0  0  0  0  0  0
   -0.7500   -1.2990    0.0000 N   0  0  0  0  0  0  0  0  0  0  0  0
   -0.7500   -9.0933    0.0000 C   0  0  0  0  0  0  0  0  0  0  0  0
   -1.5000   -7.7942    0.0000 C   0  0  0  0  0  0  0  0  0  0  0  0
   -3.0000   -7.7942    0.0000 C   0  0  0  0  0  0  0  0  0  0  0  0
   -3.7500   -9.0933    0.0000 C   0  0  0  0  0  0  0  0  0  0  0  0
   -5.2500   -9.0933    0.0000 O   0  0  0  0  0  0  0  0  0  0  0  0
   -6.0000   -7.7942    0.0000 C   0  0  0  0  0  0  0  0  0  0  0  0
   -7.5000   -7.7942    0.0000 C   0  0  0  0  0  0  0  0  0  0  0  0
   -8.2500   -6.4952    0.0000 C   0  0  0  0  0  0  0  0  0  0  0  0
   -9.7500   -6.4952    0.0000 C   0  0  0  0  0  0  0  0  0  0  0  0
  -10.5000   -7.7942    0.0000 C   0  0  0  0  0  0  0  0  0  0  0  0
   -9.7500   -9.0933    0.0000 C   0  0  0  0  0  0  0  0  0  0  0  0
   -8.2500   -9.0933    0.0000 C   0  0  0  0  0  0  0  0  0  0  0  0
   -3.0000  -10.3923    0.0000 C   0  0  0  0  0  0  0  0  0  0  0  0
   -1.5000  -10.3923    0.0000 C   0  0  0  0  0  0  0  0  0  0  0  0
  1  2  2  0
  2  3  1  0
  3  4  1  0
  4  5  1  0
  5  6  1  0
  6  7  1  0
  7  8  1  0
  8  9  1  0
  9 10  1  0
 10 11  1  0
 11 12  2  0
 11 13  1  0
 13 14  1  0
 14 15  2  0
 15 16  1  0
 16 17  2  0
 17 18  1  0
 18 19  2  0
  7 20  1  0
 20 21  2  0
 21 22  1  0
 22 23  2  0
 23 24  1  0
 24 25  1  0
 25 26  1  0
 26 27  2  0
 27 28  1  0
 28 29  2  0
 29 30  1  0
 30 31  2  0
 23 32  1  0
 32 33  1  0
 19 14  1  0
 33 20  1  0
 31 26  1  0
M  END
>  <Title>  (218) 
idAAGLgen6

$$$$

     RDKit          2D

 18 19  0  0  0  0  0  0  0  0999 V2000
    5.0260    1.2990    0.0000 C   0  0  0  0  0  0  0  0  0  0  0  0
    3.5260    1.2990    0.0000 C   0  0  0  0  0  0  0  0  0  0  0  0
    2.7760    2.5981    0.0000 O   0  0  0  0  0  0  0  0  0  0  0  0
    2.7760   -0.0000    0.0000 N   0  0  0  0  0  0  0  0  0  0  0  0
    1.2760   -0.0000    0.0000 C   0  0  0  0  0  0  0  0  0  0  0  0
    0.3943    1.2135    0.0000 N   0  0  0  0  0  0  0  0  0  0  0  0
   -1.0323    0.7500    0.0000 N   0  0  0  0  0  0  0  0  0  0  0  0
   -1.0323   -0.7500    0.0000 N   0  0  0  0  0  0  0  0  0  0  0  0
    0.3943   -1.2135    0.0000 N   0  0  0  0  0  0  0  0  0  0  0  0
    0.8578   -2.6401    0.0000 N   0  0  0  0  0  0  0  0  0  0  0  0
    2.2844   -3.1036    0.0000 C   0  0  0  0  0  0  0  0  0  0  0  0
    2.2844   -4.6036    0.0000 C   0  0  0  0  0  0  0  0  0  0  0  0
    0.8578   -5.0672    0.0000 C   0  0  0  0  0  0  0  0  0  0  0  0
    0.3943   -6.4937    0.0000 C   0  0  0  0  0  0  0  0  0  0  0  0
    1.3980   -7.6085    0.0000 O   0  0  0  0  0  0  0  0  0  0  0  0
   -1.0729   -6.8056    0.0000 O   0  0  0  0  0  0  0  0  0  0  0  0
   -0.0239   -3.8536    0.0000 C   0  0  0  0  0  0  0  0  0  0  0  0
   -1.5239   -3.8536    0.0000 O   0  0  0  0  0  0  0  0  0  0  0  0
  1  2  1  0
  2  3  2  0
  2  4  1  0
  4  5  1  0
  5  6  2  0
  6  7  1  0
  7  8  2  0
  8  9  1  0
  9 10  1  0
 10 11  1  0
 11 12  1  0
 12 13  1  0
 13 14  1  0
 14 15  2  0
 14 16  1  0
 13 17  1  0
 17 18  2  0
  9  5  1  0
 17 10  1  0
M  END
>  <Title>  (219) 
idAAGMgen6

$$$$

     RDKit          2D

 25 27  0  0  0  0  0  0  0  0999 V2000
   -5.1994   -1.9166    0.0000 C   0  0  0  0  0  0  0  0  0  0  0  0
   -4.6004   -0.5415    0.0000 C   0  0  0  0  0  0  0  0  0  0  0  0
   -5.4918    0.6649    0.0000 O   0  0  0  0  0  0  0  0  0  0  0  0
   -3.1099   -0.3727    0.0000 C   0  0  0  0  0  0  0  0  0  0  0  0
   -2.2185   -1.5790    0.0000 O   0  0  0  0  0  0  0  0  0  0  0  0
   -2.5109    1.0025    0.0000 C   0  0  0  0  0  0  0  0  0  0  0  0
   -3.7027    1.9133    0.0000 C   0  0  0  0  0  0  0  0  0  0  0  0
   -4.3348    3.2736    0.0000 C   0  0  0  0  0  0  0  0  0  0  0  0
   -4.2624    4.7718    0.0000 C   0  0  0  0  0  0  0  0  0  0  0  0
   -5.6997    5.2008    0.0000 O   0  0  0  0  0  0  0  0  0  0  0  0
   -3.5019    6.0648    0.0000 C   0  0  0  0  0  0  0  0  0  0  0  0
   -2.2277    6.8563    0.0000 C   0  0  0  0  0  0  0  0  0  0  0  0
   -0.7317    6.9649    0.0000 C   0  0  0  0  0  0  0  0  0  0  0  0
    0.6435    6.3659    0.0000 C   0  0  0  0  0  0  0  0  0  0  0  0
    1.5828    5.1963    0.0000 C   0  0  0  0  0  0  0  0  0  0  0  0
    1.8710    3.7243    0.0000 C   0  0  0  0  0  0  0  0  0  0  0  0
    3.3084    3.2954    0.0000 C   0  0  0  0  0  0  0  0  0  0  0  0
    4.6280    4.0085    0.0000 O   0  0  0  0  0  0  0  0  0  0  0  0
    2.8794    1.8580    0.0000 O   0  0  0  0  0  0  0  0  0  0  0  0
    1.4421    2.2869    0.0000 C   0  0  0  0  0  0  0  0  0  0  0  0
    0.3943    1.2135    0.0000 C   0  0  0  0  0  0  0  0  0  0  0  0
    1.2760    0.0000    0.0000 C   0  0  0  0  0  0  0  0  0  0  0  0
    0.3943   -1.2135    0.0000 C   0  0  0  0  0  0  0  0  0  0  0  0
   -1.0323   -0.7500    0.0000 C   0  0  0  0  0  0  0  0  0  0  0  0
   -1.0323    0.7500    0.0000 C   0  0  0  0  0  0  0  0  0  0  0  0
  1  2  1  0
  2  3  2  0
  2  4  1  0
  4  5  2  0
  4  6  1  0
  6  7  2  0
  7  8  1  0
  8  9  2  0
  9 10  1  0
  9 11  1  0
 11 12  2  0
 12 13  1  0
 13 14  2  0
 14 15  1  0
 15 16  2  0
 16 17  1  0
 17 18  2  0
 17 19  1  0
 19 20  1  0
 20 21  2  0
 21 22  1  0
 22 23  2  0
 23 24  1  0
 24 25  2  0
 25  6  1  0
 20 16  1  0
 25 21  1  0
M  END
>  <Title>  (220) 
idAAGNgen6

$$$$

     RDKit          2D

 19 19  0  0  0  0  0  0  0  0999 V2000
    5.8191    0.0000    0.0000 C   0  0  0  0  0  0  0  0  0  0  0  0
    4.3191    0.0000    0.0000 C   0  0  0  0  0  0  0  0  0  0  0  0
    4.0586   -1.4772    0.0000 C   0  0  0  0  0  0  0  0  0  0  0  0
    3.3086   -2.7762    0.0000 C   0  0  0  0  0  0  0  0  0  0  0  0
    2.1595   -3.7404    0.0000 C   0  0  0  0  0  0  0  0  0  0  0  0
    0.7500   -4.2535    0.0000 C   0  0  0  0  0  0  0  0  0  0  0  0
   -0.7500   -4.2535    0.0000 C   0  0  0  0  0  0  0  0  0  0  0  0
   -2.1595   -3.7404    0.0000 C   0  0  0  0  0  0  0  0  0  0  0  0
   -3.3086   -2.7762    0.0000 C   0  0  0  0  0  0  0  0  0  0  0  0
   -4.0586   -1.4772    0.0000 C   0  0  0  0  0  0  0  0  0  0  0  0
   -4.3191    0.0000    0.0000 C   0  0  0  0  0  0  0  0  0  0  0  0
   -4.0586    1.4772    0.0000 C   0  0  0  0  0  0  0  0  0  0  0  0
   -3.3086    2.7762    0.0000 C   0  0  0  0  0  0  0  0  0  0  0  0
   -2.1595    3.7404    0.0000 C   0  0  0  0  0  0  0  0  0  0  0  0
   -0.7500    4.2535    0.0000 C   0  0  0  0  0  0  0  0  0  0  0  0
    0.7500    4.2535    0.0000 C   0  0  0  0  0  0  0  0  0  0  0  0
    2.1595    3.7404    0.0000 C   0  0  0  0  0  0  0  0  0  0  0  0
    3.3086    2.7762    0.0000 C   0  0  0  0  0  0  0  0  0  0  0  0
    4.0586    1.4772    0.0000 C   0  0  0  0  0  0  0  0  0  0  0  0
  1  2  1  0
  2  3  1  0
  3  4  1  0
  4  5  1  0
  5  6  1  0
  6  7  1  0
  7  8  1  0
  8  9  1  0
  9 10  1  0
 10 11  1  0
 11 12  1  0
 12 13  1  0
 13 14  1  0
 14 15  1  0
 15 16  1  0
 16 17  1  0
 17 18  1  0
 18 19  1  0
 19  2  1  0
M  END
>  <Title>  (221) 
idAAGOgen6

$$$$

     RDKit          2D

 21 23  0  0  0  0  0  0  0  0999 V2000
   -0.7500   -3.8971    0.0000 O   0  0  0  0  0  0  0  0  0  0  0  0
    0.7500   -3.8971    0.0000 C   0  0  0  0  0  0  0  0  0  0  0  0
    1.5000   -2.5981    0.0000 N   0  0  0  0  0  0  0  0  0  0  0  0
    0.7500   -1.2990    0.0000 C   0  0  0  0  0  0  0  0  0  0  0  0
    1.5000    0.0000    0.0000 C   0  0  0  0  0  0  0  0  0  0  0  0
    0.7500    1.2990    0.0000 C   0  0  0  0  0  0  0  0  0  0  0  0
   -0.7500    1.2990    0.0000 C   0  0  0  0  0  0  0  0  0  0  0  0
   -1.5000    0.0000    0.0000 C   0  0  0  0  0  0  0  0  0  0  0  0
   -0.7500   -1.2990    0.0000 C   0  0  0  0  0  0  0  0  0  0  0  0
    1.5000   -5.1962    0.0000 N   0  0  0  0  0  0  0  0  0  0  0  0
    0.7500   -6.4952    0.0000 C   0  0  0  0  0  0  0  0  0  0  0  0
    1.5000   -7.7942    0.0000 C   0  0  0  0  0  0  0  0  0  0  0  0
    3.0000   -7.7942    0.0000 N   0  0  0  0  0  0  0  0  0  0  0  0
    3.7500   -9.0933    0.0000 C   0  0  0  0  0  0  0  0  0  0  0  0
    3.0000  -10.3923    0.0000 C   0  0  0  0  0  0  0  0  0  0  0  0
    3.7500  -11.6913    0.0000 C   0  0  0  0  0  0  0  0  0  0  0  0
    5.2500  -11.6913    0.0000 C   0  0  0  0  0  0  0  0  0  0  0  0
    6.0000  -10.3923    0.0000 C   0  0  0  0  0  0  0  0  0  0  0  0
    5.2500   -9.0933    0.0000 C   0  0  0  0  0  0  0  0  0  0  0  0
    3.7500   -6.4952    0.0000 C   0  0  0  0  0  0  0  0  0  0  0  0
    3.0000   -5.1962    0.0000 C   0  0  0  0  0  0  0  0  0  0  0  0
  1  2  2  0
  2  3  1  0
  3  4  1  0
  4  5  2  0
  5  6  1  0
  6  7  2  0
  7  8  1  0
  8  9  2  0
  2 10  1  0
 10 11  1  0
 11 12  1  0
 12 13  1  0
 13 14  1  0
 14 15  2  0
 15 16  1  0
 16 17  2  0
 17 18  1  0
 18 19  2  0
 13 20  1  0
 20 21  1  0
  9  4  1  0
 21 10  1  0
 19 14  1  0
M  END
>  <Title>  (222) 
idAAGPgen6

$$$$

     RDKit          2D

 46 49  0  0  0  0  0  0  0  0999 V2000
   -6.6558   -5.4096    0.0000 C   0  0  0  0  0  0  0  0  0  0  0  0
   -7.1767   -6.8162    0.0000 C   0  0  0  0  0  0  0  0  0  0  0  0
   -7.4039   -8.2989    0.0000 C   0  0  0  0  0  0  0  0  0  0  0  0
   -7.3279   -9.7970    0.0000 C   0  0  0  0  0  0  0  0  0  0  0  0
   -6.9519  -11.2491    0.0000 C   0  0  0  0  0  0  0  0  0  0  0  0
   -6.2913  -12.5958    0.0000 C   0  0  0  0  0  0  0  0  0  0  0  0
   -5.3732  -13.7820    0.0000 C   0  0  0  0  0  0  0  0  0  0  0  0
   -4.2350  -14.7590    0.0000 C   0  0  0  0  0  0  0  0  0  0  0  0
   -2.9235  -15.4870    0.0000 C   0  0  0  0  0  0  0  0  0  0  0  0
   -1.4923  -15.9360    0.0000 C   0  0  0  0  0  0  0  0  0  0  0  0
   -0.0000  -16.0878    0.0000 C   0  0  0  0  0  0  0  0  0  0  0  0
    1.4923  -15.9360    0.0000 C   0  0  0  0  0  0  0  0  0  0  0  0
    2.9235  -15.4870    0.0000 C   0  0  0  0  0  0  0  0  0  0  0  0
    4.2350  -14.7590    0.0000 C   0  0  0  0  0  0  0  0  0  0  0  0
    5.3732  -13.7820    0.0000 C   0  0  0  0  0  0  0  0  0  0  0  0
    6.2913  -12.5958    0.0000 C   0  0  0  0  0  0  0  0  0  0  0  0
    6.9519  -11.2491    0.0000 C   0  0  0  0  0  0  0  0  0  0  0  0
    7.3279   -9.7970    0.0000 C   0  0  0  0  0  0  0  0  0  0  0  0
    7.4039   -8.2989    0.0000 C   0  0  0  0  0  0  0  0  0  0  0  0
    7.1767   -6.8162    0.0000 C   0  0  0  0  0  0  0  0  0  0  0  0
    6.6558   -5.4096    0.0000 C   0  0  0  0  0  0  0  0  0  0  0  0
    5.8623   -4.1366    0.0000 C   0  0  0  0  0  0  0  0  0  0  0  0
    4.8289   -3.0494    0.0000 C   0  0  0  0  0  0  0  0  0  0  0  0
    3.5977   -2.1925    0.0000 C   0  0  0  0  0  0  0  0  0  0  0  0
    2.2193   -1.6010    0.0000 C   0  0  0  0  0  0  0  0  0  0  0  0
    0.7500   -1.2990    0.0000 C   0  0  0  0  0  0  0  0  0  0  0  0
    1.5000    0.0000    0.0000 C   0  0  0  0  0  0  0  0  0  0  0  0
    0.7500    1.2990    0.0000 C   0  0  0  0  0  0  0  0  0  0  0  0
   -0.7500    1.2990    0.0000 C   0  0  0  0  0  0  0  0  0  0  0  0
   -1.5000    0.0000    0.0000 C   0  0  0  0  0  0  0  0  0  0  0  0
   -0.7500   -1.2990    0.0000 C   0  0  0  0  0  0  0  0  0  0  0  0
   -2.2193   -1.6010    0.0000 C   0  0  0  0  0  0  0  0  0  0  0  0
   -2.9483   -4.9098    0.0000 C   0  0  0  0  0  0  0  0  0  0  0  0
   -2.7588   -6.3978    0.0000 C   0  0  0  0  0  0  0  0  0  0  0  0
   -3.3386   -7.7812    0.0000 C   0  0  0  0  0  0  0  0  0  0  0  0
   -4.5325   -8.6893    0.0000 C   0  0  0  0  0  0  0  0  0  0  0  0
   -3.9643  -10.0775    0.0000 C   0  0  0  0  0  0  0  0  0  0  0  0
   -4.8825  -11.2637    0.0000 C   0  0  0  0  0  0  0  0  0  0  0  0
   -4.3143  -12.6519    0.0000 C   0  0  0  0  0  0  0  0  0  0  0  0
   -2.8280  -12.8540    0.0000 C   0  0  0  0  0  0  0  0  0  0  0  0
   -1.9098  -11.6678    0.0000 C   0  0  0  0  0  0  0  0  0  0  0  0
   -2.4780  -10.2796    0.0000 C   0  0  0  0  0  0  0  0  0  0  0  0
   -6.0205   -8.8788    0.0000 C   0  0  0  0  0  0  0  0  0  0  0  0
   -3.5977   -2.1925    0.0000 C   0  0  0  0  0  0  0  0  0  0  0  0
   -4.8289   -3.0494    0.0000 C   0  0  0  0  0  0  0  0  0  0  0  0
   -5.8623   -4.1366    0.0000 C   0  0  0  0  0  0  0  0  0  0  0  0
  1  2  2  0
  2  3  1  0
  3  4  1  0
  4  5  1  0
  5  6  1  0
  6  7  1  0
  7  8  1  0
  8  9  1  0
  9 10  1  0
 10 11  1  0
 11 12  1  0
 12 13  1  0
 13 14  1  0
 14 15  1  0
 15 16  1  0
 16 17  1  0
 17 18  1  0
 18 19  1  0
 19 20  1  0
 20 21  1  0
 21 22  1  0
 22 23  1  0
 23 24  1  0
 24 25  1  0
 25 26  1  0
 26 27  2  0
 27 28  1  0
 28 29  2  0
 29 30  1  0
 30 31  2  0
 31 32  1  0
 32 33  2  0
 33 34  1  0
 34 35  1  0
 35 36  1  0
 36 37  1  0
 37 38  2  0
 38 39  1  0
 39 40  2  0
 40 41  1  0
 41 42  2  0
 36 43  1  0
 32 44  1  0
 44 45  1  0
 45 46  1  0
 46  1  1  0
 43  3  1  0
 31 26  1  0
 42 37  1  0
M  END
>  <Title>  (223) 
idAAGQgen6

$$$$

     RDKit          2D

  9  8  0  0  0  0  0  0  0  0999 V2000
    0.0000    0.0000    0.0000 C   0  0  0  0  0  0  0  0  0  0  0  0
    1.2990    0.7500    0.0000 N   0  0  0  0  0  0  0  0  0  0  0  0
    2.5981   -0.0000    0.0000 C   0  0  0  0  0  0  0  0  0  0  0  0
    3.3481    1.2990    0.0000 C   0  0  0  0  0  0  0  0  0  0  0  0
    1.8481   -1.2990    0.0000 C   0  0  0  0  0  0  0  0  0  0  0  0
    3.8971   -0.7500    0.0000 C   0  0  0  0  0  0  0  0  0  0  0  0
    5.1962   -1.5000    0.0000 C   0  0  0  0  0  0  0  0  0  0  0  0
    6.4952   -2.2500    0.0000 C   0  0  0  0  0  0  0  0  0  0  0  0
    7.7942   -3.0000    0.0000 N   0  0  0  0  0  0  0  0  0  0  0  0
  1  2  1  0
  2  3  1  0
  3  4  1  0
  3  5  1  0
  3  6  1  0
  6  7  3  0
  7  8  1  0
  8  9  3  0
M  END
>  <Title>  (224) 
idAAGRgen6

$$$$

     RDKit          2D

 59 67  0  0  0  0  0  0  0  0999 V2000
    0.1082   13.6047    0.0000 C   0  0  0  0  0  0  0  0  0  0  0  0
   -1.2621   12.9946    0.0000 C   0  0  0  0  0  0  0  0  0  0  0  0
   -2.4756   13.8763    0.0000 C   0  0  0  0  0  0  0  0  0  0  0  0
   -3.8459   13.2662    0.0000 C   0  0  0  0  0  0  0  0  0  0  0  0
   -4.0027   11.7744    0.0000 C   0  0  0  0  0  0  0  0  0  0  0  0
   -5.3730   11.1643    0.0000 C   0  0  0  0  0  0  0  0  0  0  0  0
   -6.5866   12.0460    0.0000 O   0  0  0  0  0  0  0  0  0  0  0  0
   -5.5298    9.6725    0.0000 N   0  0  0  0  0  0  0  0  0  0  0  0
   -6.9002    9.0624    0.0000 C   0  0  0  0  0  0  0  0  0  0  0  0
   -8.1992    9.8124    0.0000 N   0  0  0  0  0  0  0  0  0  0  0  0
   -9.3139    8.8087    0.0000 N   0  0  0  0  0  0  0  0  0  0  0  0
   -8.7038    7.4384    0.0000 N   0  0  0  0  0  0  0  0  0  0  0  0
   -7.2120    7.5952    0.0000 N   0  0  0  0  0  0  0  0  0  0  0  0
   -6.2083    6.4805    0.0000 C   0  0  0  0  0  0  0  0  0  0  0  0
   -4.7411    6.7923    0.0000 C   0  0  0  0  0  0  0  0  0  0  0  0
   -3.7374    5.6776    0.0000 C   0  0  0  0  0  0  0  0  0  0  0  0
   -4.2009    4.2510    0.0000 C   0  0  0  0  0  0  0  0  0  0  0  0
   -5.6682    3.9391    0.0000 C   0  0  0  0  0  0  0  0  0  0  0  0
   -6.6718    5.0539    0.0000 C   0  0  0  0  0  0  0  0  0  0  0  0
   -8.1391    4.7420    0.0000 C   0  0  0  0  0  0  0  0  0  0  0  0
   -9.1428    5.8567    0.0000 C   0  0  0  0  0  0  0  0  0  0  0  0
  -10.6100    5.5448    0.0000 C   0  0  0  0  0  0  0  0  0  0  0  0
  -11.0735    4.1183    0.0000 C   0  0  0  0  0  0  0  0  0  0  0  0
  -12.5407    3.8064    0.0000 O   0  0  0  0  0  0  0  0  0  0  0  0
  -10.0698    3.0035    0.0000 C   0  0  0  0  0  0  0  0  0  0  0  0
   -8.6026    3.3154    0.0000 C   0  0  0  0  0  0  0  0  0  0  0  0
   -7.5989    2.2007    0.0000 C   0  0  0  0  0  0  0  0  0  0  0  0
   -6.1317    2.5126    0.0000 C   0  0  0  0  0  0  0  0  0  0  0  0
   -5.1280    1.3978    0.0000 C   0  0  0  0  0  0  0  0  0  0  0  0
   -5.5915   -0.0287    0.0000 C   0  0  0  0  0  0  0  0  0  0  0  0
   -7.0587   -0.3406    0.0000 C   0  0  0  0  0  0  0  0  0  0  0  0
   -8.0624    0.7741    0.0000 C   0  0  0  0  0  0  0  0  0  0  0  0
   -9.5296    0.4622    0.0000 C   0  0  0  0  0  0  0  0  0  0  0  0
  -10.5333    1.5770    0.0000 C   0  0  0  0  0  0  0  0  0  0  0  0
  -12.0006    1.2651    0.0000 C   0  0  0  0  0  0  0  0  0  0  0  0
  -12.4641   -0.1615    0.0000 C   0  0  0  0  0  0  0  0  0  0  0  0
  -11.4604   -1.2762    0.0000 C   0  0  0  0  0  0  0  0  0  0  0  0
   -9.9932   -0.9643    0.0000 C   0  0  0  0  0  0  0  0  0  0  0  0
   -8.9895   -2.0791    0.0000 C   0  0  0  0  0  0  0  0  0  0  0  0
   -7.4977   -1.9223    0.0000 C   0  0  0  0  0  0  0  0  0  0  0  0
   -6.8876   -3.2926    0.0000 C   0  0  0  0  0  0  0  0  0  0  0  0
   -5.4204   -3.6045    0.0000 C   0  0  0  0  0  0  0  0  0  0  0  0
   -4.9568   -5.0310    0.0000 C   0  0  0  0  0  0  0  0  0  0  0  0
   -3.4896   -5.3429    0.0000 C   0  0  0  0  0  0  0  0  0  0  0  0
   -2.4859   -4.2282    0.0000 C   0  0  0  0  0  0  0  0  0  0  0  0
   -2.9494   -2.8016    0.0000 C   0  0  0  0  0  0  0  0  0  0  0  0
   -4.4167   -2.4897    0.0000 C   0  0  0  0  0  0  0  0  0  0  0  0
   -8.0023   -4.2963    0.0000 N   0  0  0  0  0  0  0  0  0  0  0  0
   -9.3013   -3.5463    0.0000 C   0  0  0  0  0  0  0  0  0  0  0  0
  -10.6717   -4.1564    0.0000 O   0  0  0  0  0  0  0  0  0  0  0  0
   -2.7892   10.8927    0.0000 N   0  0  0  0  0  0  0  0  0  0  0  0
   -2.9460    9.4009    0.0000 C   0  0  0  0  0  0  0  0  0  0  0  0
   -1.7325    8.5192    0.0000 C   0  0  0  0  0  0  0  0  0  0  0  0
   -0.3621    9.1293    0.0000 C   0  0  0  0  0  0  0  0  0  0  0  0
    0.8514    8.2477    0.0000 C   0  0  0  0  0  0  0  0  0  0  0  0
    0.6946    6.7559    0.0000 C   0  0  0  0  0  0  0  0  0  0  0  0
   -0.6757    6.1458    0.0000 C   0  0  0  0  0  0  0  0  0  0  0  0
   -1.8893    7.0275    0.0000 C   0  0  0  0  0  0  0  0  0  0  0  0
   -1.4189   11.5028    0.0000 C   0  0  0  0  0  0  0  0  0  0  0  0
  1  2  1  0
  2  3  1  0
  3  4  2  0
  4  5  1  0
  5  6  1  0
  6  7  2  0
  6  8  1  0
  8  9  1  0
  9 10  2  0
 10 11  1  0
 11 12  2  0
 12 13  1  0
 13 14  1  0
 14 15  2  0
 15 16  1  0
 16 17  2  0
 17 18  1  0
 18 19  2  0
 19 20  1  0
 20 21  2  0
 21 22  1  0
 22 23  2  0
 23 24  1  0
 23 25  1  0
 25 26  2  0
 26 27  1  0
 27 28  2  0
 28 29  1  0
 29 30  2  0
 30 31  1  0
 31 32  2  0
 32 33  1  0
 33 34  2  0
 34 35  1  0
 35 36  2  0
 36 37  1  0
 37 38  2  0
 38 39  1  0
 39 40  2  0
 40 41  1  0
 41 42  1  0
 42 43  2  0
 43 44  1  0
 44 45  2  0
 45 46  1  0
 46 47  2  0
 41 48  1  0
 48 49  1  0
 49 50  2  0
  5 51  1  0
 51 52  1  0
 52 53  1  0
 53 54  2  0
 54 55  1  0
 55 56  2  0
 56 57  1  0
 57 58  2  0
 51 59  1  0
 59  2  1  0
 13  9  1  0
 19 14  1  0
 26 20  1  0
 32 27  1  0
 38 33  1  0
 49 39  1  0
 58 53  1  0
 47 42  1  0
M  END
>  <Title>  (225) 
idAAGSgen6

$$$$

     RDKit          2D

 62 70  0  0  0  0  0  0  0  0999 V2000
    0.1699    6.6946    0.0000 C   0  0  0  0  0  0  0  0  0  0  0  0
    0.4212    5.2158    0.0000 C   0  0  0  0  0  0  0  0  0  0  0  0
    1.8836    4.8820    0.0000 C   0  0  0  0  0  0  0  0  0  0  0  0
    2.6816    3.6119    0.0000 C   0  0  0  0  0  0  0  0  0  0  0  0
    4.1604    3.8632    0.0000 C   0  0  0  0  0  0  0  0  0  0  0  0
    4.6822    5.2695    0.0000 O   0  0  0  0  0  0  0  0  0  0  0  0
    5.3685    2.9740    0.0000 O   0  0  0  0  0  0  0  0  0  0  0  0
    2.3478    2.1495    0.0000 C   0  0  0  0  0  0  0  0  0  0  0  0
    3.5712    1.2815    0.0000 C   0  0  0  0  0  0  0  0  0  0  0  0
    3.4311   -0.2120    0.0000 O   0  0  0  0  0  0  0  0  0  0  0  0
    4.9346    1.9069    0.0000 O   0  0  0  0  0  0  0  0  0  0  0  0
    6.1579    1.0389    0.0000 C   0  0  0  0  0  0  0  0  0  0  0  0
    6.0179   -0.4545    0.0000 C   0  0  0  0  0  0  0  0  0  0  0  0
    7.2412   -1.3225    0.0000 C   0  0  0  0  0  0  0  0  0  0  0  0
    8.6046   -0.6971    0.0000 C   0  0  0  0  0  0  0  0  0  0  0  0
    8.7446    0.7964    0.0000 C   0  0  0  0  0  0  0  0  0  0  0  0
    7.5213    1.6644    0.0000 C   0  0  0  0  0  0  0  0  0  0  0  0
    7.6613    3.1578    0.0000 C   0  0  0  0  0  0  0  0  0  0  0  0
    6.5354    4.1489    0.0000 C   0  0  0  0  0  0  0  0  0  0  0  0
    7.1301    5.5260    0.0000 C   0  0  0  0  0  0  0  0  0  0  0  0
    8.6236    5.3860    0.0000 C   0  0  0  0  0  0  0  0  0  0  0  0
    9.6147    6.5119    0.0000 N   0  0  0  0  0  0  0  0  0  0  0  0
   11.0853    6.2165    0.0000 C   0  0  0  0  0  0  0  0  0  0  0  0
   12.0764    7.3424    0.0000 C   0  0  0  0  0  0  0  0  0  0  0  0
   11.5969    8.7637    0.0000 C   0  0  0  0  0  0  0  0  0  0  0  0
   12.5881    9.8896    0.0000 C   0  0  0  0  0  0  0  0  0  0  0  0
   12.1086   11.3109    0.0000 O   0  0  0  0  0  0  0  0  0  0  0  0
   14.0587    9.5942    0.0000 N   0  0  0  0  0  0  0  0  0  0  0  0
   15.0498   10.7201    0.0000 C   0  0  0  0  0  0  0  0  0  0  0  0
   16.5205   10.4247    0.0000 N   0  0  0  0  0  0  0  0  0  0  0  0
   17.5116   11.5507    0.0000 N   0  0  0  0  0  0  0  0  0  0  0  0
   17.0321   12.9719    0.0000 N   0  0  0  0  0  0  0  0  0  0  0  0
   15.5614   13.2673    0.0000 N   0  0  0  0  0  0  0  0  0  0  0  0
   14.5703   12.1414    0.0000 N   0  0  0  0  0  0  0  0  0  0  0  0
   10.1263    9.0591    0.0000 C   0  0  0  0  0  0  0  0  0  0  0  0
    9.1352    7.9332    0.0000 C   0  0  0  0  0  0  0  0  0  0  0  0
    8.9519    3.9223    0.0000 C   0  0  0  0  0  0  0  0  0  0  0  0
   10.3290    3.3277    0.0000 C   0  0  0  0  0  0  0  0  0  0  0  0
   10.5025    1.8377    0.0000 C   0  0  0  0  0  0  0  0  0  0  0  0
   11.8796    1.2430    0.0000 C   0  0  0  0  0  0  0  0  0  0  0  0
   13.0831    2.1383    0.0000 C   0  0  0  0  0  0  0  0  0  0  0  0
   12.9096    3.6282    0.0000 C   0  0  0  0  0  0  0  0  0  0  0  0
   11.5325    4.2229    0.0000 C   0  0  0  0  0  0  0  0  0  0  0  0
   11.3590    5.7128    0.0000 C   0  0  0  0  0  0  0  0  0  0  0  0
   12.5625    6.6081    0.0000 C   0  0  0  0  0  0  0  0  0  0  0  0
   12.3890    8.0980    0.0000 C   0  0  0  0  0  0  0  0  0  0  0  0
   11.0120    8.6927    0.0000 C   0  0  0  0  0  0  0  0  0  0  0  0
    9.8084    7.7974    0.0000 C   0  0  0  0  0  0  0  0  0  0  0  0
    9.9819    6.3075    0.0000 C   0  0  0  0  0  0  0  0  0  0  0  0
    1.0777    1.3515    0.0000 C   0  0  0  0  0  0  0  0  0  0  0  0
    1.7286   -0.0000    0.0000 C   0  0  0  0  0  0  0  0  0  0  0  0
    1.0777   -1.3515    0.0000 C   0  0  0  0  0  0  0  0  0  0  0  0
   -0.3846   -1.6852    0.0000 C   0  0  0  0  0  0  0  0  0  0  0  0
   -1.5574   -0.7500    0.0000 C   0  0  0  0  0  0  0  0  0  0  0  0
   -1.5574    0.7500    0.0000 C   0  0  0  0  0  0  0  0  0  0  0  0
   -0.3846    1.6852    0.0000 C   0  0  0  0  0  0  0  0  0  0  0  0
   -1.1827    2.9553    0.0000 C   0  0  0  0  0  0  0  0  0  0  0  0
   -2.6161    2.5132    0.0000 C   0  0  0  0  0  0  0  0  0  0  0  0
   -3.7156    3.5334    0.0000 C   0  0  0  0  0  0  0  0  0  0  0  0
   -3.3818    4.9958    0.0000 C   0  0  0  0  0  0  0  0  0  0  0  0
   -1.9485    5.4380    0.0000 C   0  0  0  0  0  0  0  0  0  0  0  0
   -0.8489    4.4177    0.0000 C   0  0  0  0  0  0  0  0  0  0  0  0
  1  2  2  0
  2  3  1  0
  3  4  2  0
  4  5  1  0
  5  6  2  0
  5  7  1  0
  4  8  1  0
  8  9  1  0
  9 10  2  0
  9 11  1  0
 11 12  1  0
 12 13  2  0
 13 14  1  0
 14 15  2  0
 15 16  1  0
 16 17  2  0
 17 18  1  0
 18 19  2  0
 19 20  1  0
 20 21  2  0
 21 22  1  0
 22 23  1  0
 23 24  1  0
 24 25  1  0
 25 26  1  0
 26 27  2  0
 26 28  1  0
 28 29  1  0
 29 30  2  0
 30 31  1  0
 31 32  2  0
 32 33  1  0
 33 34  2  0
 25 35  1  0
 35 36  1  0
 21 37  1  0
 37 38  1  0
 38 39  2  0
 39 40  1  0
 40 41  2  0
 41 42  1  0
 42 43  2  0
 43 44  1  0
 44 45  2  0
 45 46  1  0
 46 47  2  0
 47 48  1  0
 48 49  2  0
  8 50  1  0
 50 51  2  0
 51 52  1  0
 52 53  2  0
 53 54  2  0
 54 55  1  0
 55 56  2  0
 56 57  1  0
 57 58  2  0
 58 59  1  0
 59 60  2  0
 60 61  1  0
 61 62  2  0
 62  2  1  0
 17 12  1  0
 37 18  1  0
 43 38  1  0
 49 44  1  0
 56 50  1  0
 62 57  1  0
 36 22  1  0
 34 29  1  0
M  END
>  <Title>  (226) 
idAAGTgen6

$$$$

     RDKit          2D

 39 42  0  0  0  0  0  0  0  0999 V2000
    5.3444    0.0000    0.0000 C   0  0  0  0  0  0  0  0  0  0  0  0
    3.8444    0.0000    0.0000 C   0  0  0  0  0  0  0  0  0  0  0  0
    3.5517   -1.4712    0.0000 C   0  0  0  0  0  0  0  0  0  0  0  0
    2.7184   -2.7184    0.0000 C   0  0  0  0  0  0  0  0  0  0  0  0
    1.4712   -3.5517    0.0000 C   0  0  0  0  0  0  0  0  0  0  0  0
   -0.0000   -3.8444    0.0000 C   0  0  0  0  0  0  0  0  0  0  0  0
   -1.4712   -3.5517    0.0000 C   0  0  0  0  0  0  0  0  0  0  0  0
   -2.7184   -2.7184    0.0000 C   0  0  0  0  0  0  0  0  0  0  0  0
   -3.5517   -1.4712    0.0000 C   0  0  0  0  0  0  0  0  0  0  0  0
   -3.8444    0.0000    0.0000 C   0  0  0  0  0  0  0  0  0  0  0  0
   -3.5517    1.4712    0.0000 C   0  0  0  0  0  0  0  0  0  0  0  0
   -2.7184    2.7184    0.0000 C   0  0  0  0  0  0  0  0  0  0  0  0
   -1.4712    3.5517    0.0000 C   0  0  0  0  0  0  0  0  0  0  0  0
    0.0000    3.8444    0.0000 C   0  0  0  0  0  0  0  0  0  0  0  0
    1.4712    3.5517    0.0000 C   0  0  0  0  0  0  0  0  0  0  0  0
    2.7184    2.7184    0.0000 N   0  0  0  0  0  0  0  0  0  0  0  0
    3.7790    3.7790    0.0000 C   0  0  0  0  0  0  0  0  0  0  0  0
    5.2279    3.3908    0.0000 C   0  0  0  0  0  0  0  0  0  0  0  0
    6.2886    4.4515    0.0000 C   0  0  0  0  0  0  0  0  0  0  0  0
    5.9004    5.9004    0.0000 C   0  0  0  0  0  0  0  0  0  0  0  0
    6.9610    6.9610    0.0000 N   0  0  0  0  0  0  0  0  0  0  0  0
    8.4099    6.5728    0.0000 C   0  0  0  0  0  0  0  0  0  0  0  0
    9.4706    7.6335    0.0000 C   0  0  0  0  0  0  0  0  0  0  0  0
    9.0823    9.0823    0.0000 C   0  0  0  0  0  0  0  0  0  0  0  0
   10.1430   10.1430    0.0000 N   0  0  0  0  0  0  0  0  0  0  0  0
   11.5919    9.7548    0.0000 C   0  0  0  0  0  0  0  0  0  0  0  0
   11.9801    8.3059    0.0000 O   0  0  0  0  0  0  0  0  0  0  0  0
   12.6526   10.8154    0.0000 O   0  0  0  0  0  0  0  0  0  0  0  0
   14.1014   10.4272    0.0000 C   0  0  0  0  0  0  0  0  0  0  0  0
   14.4897    8.9783    0.0000 C   0  0  0  0  0  0  0  0  0  0  0  0
   15.9386    8.5901    0.0000 C   0  0  0  0  0  0  0  0  0  0  0  0
   16.9992    9.6507    0.0000 C   0  0  0  0  0  0  0  0  0  0  0  0
   16.6110   11.0996    0.0000 C   0  0  0  0  0  0  0  0  0  0  0  0
   15.1621   11.4879    0.0000 C   0  0  0  0  0  0  0  0  0  0  0  0
    7.6335    9.4706    0.0000 C   0  0  0  0  0  0  0  0  0  0  0  0
    6.5728    8.4099    0.0000 C   0  0  0  0  0  0  0  0  0  0  0  0
    4.4515    6.2886    0.0000 C   0  0  0  0  0  0  0  0  0  0  0  0
    3.3908    5.2279    0.0000 C   0  0  0  0  0  0  0  0  0  0  0  0
    3.5517    1.4712    0.0000 C   0  0  0  0  0  0  0  0  0  0  0  0
  1  2  1  0
  2  3  1  0
  3  4  1  0
  4  5  1  0
  5  6  1  0
  6  7  1  0
  7  8  1  0
  8  9  1  0
  9 10  1  0
 10 11  1  0
 11 12  1  0
 12 13  1  0
 13 14  1  0
 14 15  1  0
 15 16  1  0
 16 17  1  0
 17 18  1  0
 18 19  1  0
 19 20  1  0
 20 21  1  0
 21 22  1  0
 22 23  1  0
 23 24  1  0
 24 25  1  0
 25 26  1  0
 26 27  2  0
 26 28  1  0
 28 29  1  0
 29 30  2  0
 30 31  1  0
 31 32  2  0
 32 33  1  0
 33 34  2  0
 24 35  1  0
 35 36  1  0
 20 37  1  0
 37 38  1  0
 16 39  1  0
 39  2  1  0
 38 17  1  0
 36 21  1  0
 34 29  1  0
M  END
>  <Title>  (227) 
idAAGUgen6

$$$$

     RDKit          2D

  5  4  0  0  0  0  0  0  0  0999 V2000
    0.0000    0.0000    0.0000 C   0  0  0  0  0  0  0  0  0  0  0  0
    1.2990    0.7500    0.0000 C   0  0  0  0  0  0  0  0  0  0  0  0
    2.5981   -0.0000    0.0000 C   0  0  0  0  0  0  0  0  0  0  0  0
    3.8971    0.7500    0.0000 C   0  0  0  0  0  0  0  0  0  0  0  0
    2.5981   -1.5000    0.0000 C   0  0  0  0  0  0  0  0  0  0  0  0
  1  2  1  0
  2  3  2  3
  3  4  1  0
  3  5  1  0
M  END
>  <Title>  (228) 
idAAGVgen6

$$$$

     RDKit          2D

 16 16  0  0  0  0  0  0  0  0999 V2000
    5.1073    0.0000    0.0000 C   0  0  0  0  0  0  0  0  0  0  0  0
    3.6073    0.0000    0.0000 C   0  0  0  0  0  0  0  0  0  0  0  0
    3.2954    1.4672    0.0000 C   0  0  0  0  0  0  0  0  0  0  0  0
    2.4138    2.6807    0.0000 C   0  0  0  0  0  0  0  0  0  0  0  0
    1.1147    3.4307    0.0000 C   0  0  0  0  0  0  0  0  0  0  0  0
   -0.3771    3.5875    0.0000 C   0  0  0  0  0  0  0  0  0  0  0  0
   -1.8037    3.1240    0.0000 C   0  0  0  0  0  0  0  0  0  0  0  0
   -2.9184    2.1203    0.0000 C   0  0  0  0  0  0  0  0  0  0  0  0
   -3.5285    0.7500    0.0000 C   0  0  0  0  0  0  0  0  0  0  0  0
   -3.5285   -0.7500    0.0000 C   0  0  0  0  0  0  0  0  0  0  0  0
   -2.9184   -2.1203    0.0000 C   0  0  0  0  0  0  0  0  0  0  0  0
   -1.8037   -3.1240    0.0000 C   0  0  0  0  0  0  0  0  0  0  0  0
   -0.3771   -3.5875    0.0000 C   0  0  0  0  0  0  0  0  0  0  0  0
    1.1147   -3.4307    0.0000 C   0  0  0  0  0  0  0  0  0  0  0  0
    2.4138   -2.6807    0.0000 C   0  0  0  0  0  0  0  0  0  0  0  0
    3.2954   -1.4672    0.0000 C   0  0  0  0  0  0  0  0  0  0  0  0
  1  2  1  0
  2  3  1  0
  3  4  1  0
  4  5  1  0
  5  6  1  0
  6  7  1  0
  7  8  1  0
  8  9  1  0
  9 10  1  0
 10 11  1  0
 11 12  1  0
 12 13  1  0
 13 14  1  0
 14 15  1  0
 15 16  1  0
 16  2  1  0
M  END
>  <Title>  (229) 
idAAGWgen6

$$$$

     RDKit          2D

 23 25  0  0  0  0  0  0  0  0999 V2000
   -5.2500   -3.8971    0.0000 C   0  0  0  0  0  0  0  0  0  0  0  0
   -3.7500   -3.8971    0.0000 C   0  0  0  0  0  0  0  0  0  0  0  0
   -3.0000   -5.1962    0.0000 O   0  0  0  0  0  0  0  0  0  0  0  0
   -3.0000   -2.5981    0.0000 N   0  0  0  0  0  0  0  0  0  0  0  0
   -1.5000   -2.5981    0.0000 C   0  0  0  0  0  0  0  0  0  0  0  0
   -0.7500   -3.8971    0.0000 C   0  0  0  0  0  0  0  0  0  0  0  0
    0.7500   -3.8971    0.0000 C   0  0  0  0  0  0  0  0  0  0  0  0
    1.5000   -2.5981    0.0000 C   0  0  0  0  0  0  0  0  0  0  0  0
    3.0000   -2.5981    0.0000 C   0  0  0  0  0  0  0  0  0  0  0  0
    3.7500   -1.2990    0.0000 O   0  0  0  0  0  0  0  0  0  0  0  0
    3.7500   -3.8971    0.0000 N   0  0  0  0  0  0  0  0  0  0  0  0
    5.2500   -3.8971    0.0000 C   0  0  0  0  0  0  0  0  0  0  0  0
    6.0000   -5.1962    0.0000 C   0  0  0  0  0  0  0  0  0  0  0  0
    7.5000   -5.1962    0.0000 C   0  0  0  0  0  0  0  0  0  0  0  0
    8.2500   -3.8971    0.0000 C   0  0  0  0  0  0  0  0  0  0  0  0
    7.5000   -2.5981    0.0000 C   0  0  0  0  0  0  0  0  0  0  0  0
    6.0000   -2.5981    0.0000 C   0  0  0  0  0  0  0  0  0  0  0  0
    0.7500   -1.2990    0.0000 C   0  0  0  0  0  0  0  0  0  0  0  0
    1.5000    0.0000    0.0000 C   0  0  0  0  0  0  0  0  0  0  0  0
    0.7500    1.2990    0.0000 C   0  0  0  0  0  0  0  0  0  0  0  0
   -0.7500    1.2990    0.0000 C   0  0  0  0  0  0  0  0  0  0  0  0
   -1.5000    0.0000    0.0000 C   0  0  0  0  0  0  0  0  0  0  0  0
   -0.7500   -1.2990    0.0000 C   0  0  0  0  0  0  0  0  0  0  0  0
  1  2  1  0
  2  3  2  0
  2  4  1  0
  4  5  1  0
  5  6  2  0
  6  7  1  0
  7  8  2  0
  8  9  1  0
  9 10  2  0
  9 11  1  0
 11 12  1  0
 12 13  2  0
 13 14  1  0
 14 15  2  0
 15 16  1  0
 16 17  2  0
  8 18  1  0
 18 19  2  0
 19 20  1  0
 20 21  2  0
 21 22  1  0
 22 23  2  0
 23  5  1  0
 17 12  1  0
 23 18  1  0
M  END
>  <Title>  (230) 
idAAGXgen6

$$$$

     RDKit          2D

  5  4  0  0  0  0  0  0  0  0999 V2000
    1.5000    0.0000    0.0000 O   0  0  0  0  0  0  0  0  0  0  0  0
    0.0000    0.0000    0.0000 C   0  0  0  0  0  0  0  0  0  0  0  0
   -1.5000    0.0000    0.0000 F   0  0  0  0  0  0  0  0  0  0  0  0
    0.0000    1.5000    0.0000 F   0  0  0  0  0  0  0  0  0  0  0  0
   -0.0000   -1.5000    0.0000 F   0  0  0  0  0  0  0  0  0  0  0  0
  1  2  1  0
  2  3  1  0
  2  4  1  0
  2  5  1  0
M  END
>  <Title>  (231) 
idAAGYgen6

$$$$

     RDKit          2D

 12 12  0  0  0  0  0  0  0  0999 V2000
    6.0000   -2.5981    0.0000 C   0  0  0  0  0  0  0  0  0  0  0  0
    5.2500   -1.2990    0.0000 C   0  0  0  0  0  0  0  0  0  0  0  0
    6.0000    0.0000    0.0000 O   0  0  0  0  0  0  0  0  0  0  0  0
    3.7500   -1.2990    0.0000 O   0  0  0  0  0  0  0  0  0  0  0  0
    3.0000    0.0000    0.0000 C   0  0  0  0  0  0  0  0  0  0  0  0
    3.7500    1.2990    0.0000 O   0  0  0  0  0  0  0  0  0  0  0  0
    1.5000    0.0000    0.0000 C   0  0  0  0  0  0  0  0  0  0  0  0
    0.7500   -1.2990    0.0000 C   0  0  0  0  0  0  0  0  0  0  0  0
   -0.7500   -1.2990    0.0000 C   0  0  0  0  0  0  0  0  0  0  0  0
   -1.5000    0.0000    0.0000 C   0  0  0  0  0  0  0  0  0  0  0  0
   -0.7500    1.2990    0.0000 C   0  0  0  0  0  0  0  0  0  0  0  0
    0.7500    1.2990    0.0000 C   0  0  0  0  0  0  0  0  0  0  0  0
  1  2  1  0
  2  3  2  0
  2  4  1  0
  4  5  1  0
  5  6  2  0
  5  7  1  0
  7  8  2  0
  8  9  1  0
  9 10  2  0
 10 11  1  0
 11 12  2  0
 12  7  1  0
M  END
>  <Title>  (232) 
idAAGZgen6

$$$$

     RDKit          2D

 22 24  0  0  0  0  0  0  0  0999 V2000
    5.2500   -1.2990    0.0000 C   0  0  0  0  0  0  0  0  0  0  0  0
    3.7500   -1.2990    0.0000 C   0  0  0  0  0  0  0  0  0  0  0  0
    3.0000   -2.5981    0.0000 O   0  0  0  0  0  0  0  0  0  0  0  0
    3.0000    0.0000    0.0000 C   0  0  0  0  0  0  0  0  0  0  0  0
    3.7500    1.2990    0.0000 O   0  0  0  0  0  0  0  0  0  0  0  0
    1.5000    0.0000    0.0000 N   0  0  0  0  0  0  0  0  0  0  0  0
    0.7500   -1.2990    0.0000 C   0  0  0  0  0  0  0  0  0  0  0  0
   -0.7500   -1.2990    0.0000 C   0  0  0  0  0  0  0  0  0  0  0  0
   -1.5000    0.0000    0.0000 C   0  0  0  0  0  0  0  0  0  0  0  0
   -3.0000    0.0000    0.0000 C   0  0  0  0  0  0  0  0  0  0  0  0
   -3.8817   -1.2135    0.0000 C   0  0  0  0  0  0  0  0  0  0  0  0
   -5.3083   -0.7500    0.0000 C   0  0  0  0  0  0  0  0  0  0  0  0
   -5.3083    0.7500    0.0000 C   0  0  0  0  0  0  0  0  0  0  0  0
   -6.5218    1.6317    0.0000 C   0  0  0  0  0  0  0  0  0  0  0  0
   -6.3650    3.1235    0.0000 C   0  0  0  0  0  0  0  0  0  0  0  0
   -7.5785    4.0051    0.0000 C   0  0  0  0  0  0  0  0  0  0  0  0
   -8.9488    3.3950    0.0000 C   0  0  0  0  0  0  0  0  0  0  0  0
   -9.1056    1.9033    0.0000 C   0  0  0  0  0  0  0  0  0  0  0  0
   -7.8921    1.0216    0.0000 C   0  0  0  0  0  0  0  0  0  0  0  0
   -3.8817    1.2135    0.0000 C   0  0  0  0  0  0  0  0  0  0  0  0
   -0.7500    1.2990    0.0000 C   0  0  0  0  0  0  0  0  0  0  0  0
    0.7500    1.2990    0.0000 C   0  0  0  0  0  0  0  0  0  0  0  0
  1  2  1  0
  2  3  2  0
  2  4  1  0
  4  5  2  0
  4  6  1  0
  6  7  1  0
  7  8  1  0
  8  9  1  0
  9 10  1  0
 10 11  1  0
 11 12  1  0
 12 13  1  0
 13 14  1  0
 14 15  2  0
 15 16  1  0
 16 17  2  0
 17 18  1  0
 18 19  2  0
 13 20  1  0
  9 21  1  0
 21 22  1  0
 22  6  1  0
 20 10  1  0
 19 14  1  0
M  END
>  <Title>  (233) 
idAAHAgen6

$$$$

     RDKit          2D

 11 11  0  0  0  0  0  0  0  0999 V2000
    3.7500   -1.2990    0.0000 C   0  0  0  0  0  0  0  0  0  0  0  0
    3.0000    0.0000    0.0000 O   0  0  0  0  0  0  0  0  0  0  0  0
    1.5000    0.0000    0.0000 C   0  0  0  0  0  0  0  0  0  0  0  0
    0.7500   -1.2990    0.0000 C   0  0  0  0  0  0  0  0  0  0  0  0
   -0.7500   -1.2990    0.0000 C   0  0  0  0  0  0  0  0  0  0  0  0
   -1.5000    0.0000    0.0000 C   0  0  0  0  0  0  0  0  0  0  0  0
   -0.7500    1.2990    0.0000 C   0  0  0  0  0  0  0  0  0  0  0  0
   -1.5000    2.5981    0.0000 N   0  0  0  0  0  0  0  0  0  0  0  0
   -0.7500    3.8971    0.0000 C   0  0  0  0  0  0  0  0  0  0  0  0
   -3.0000    2.5981    0.0000 C   0  0  0  0  0  0  0  0  0  0  0  0
    0.7500    1.2990    0.0000 C   0  0  0  0  0  0  0  0  0  0  0  0
  1  2  1  0
  2  3  1  0
  3  4  1  0
  4  5  2  0
  5  6  1  0
  6  7  2  0
  7  8  1  0
  8  9  1  0
  8 10  1  0
  7 11  1  0
 11  3  1  0
M  END
>  <Title>  (234) 
idAAHBgen6

$$$$

     RDKit          2D

 26 28  0  0  0  0  0  0  0  0999 V2000
   -9.8285    0.1080    0.0000 C   0  0  0  0  0  0  0  0  0  0  0  0
   -8.6150   -0.7737    0.0000 C   0  0  0  0  0  0  0  0  0  0  0  0
   -7.2447   -0.1635    0.0000 O   0  0  0  0  0  0  0  0  0  0  0  0
   -8.7718   -2.2654    0.0000 C   0  0  0  0  0  0  0  0  0  0  0  0
  -10.1421   -2.8755    0.0000 O   0  0  0  0  0  0  0  0  0  0  0  0
   -7.5583   -3.1471    0.0000 N   0  0  0  0  0  0  0  0  0  0  0  0
   -7.5583   -4.6471    0.0000 C   0  0  0  0  0  0  0  0  0  0  0  0
   -6.1317   -5.1106    0.0000 C   0  0  0  0  0  0  0  0  0  0  0  0
   -5.2500   -3.8971    0.0000 N   0  0  0  0  0  0  0  0  0  0  0  0
   -3.7500   -3.8971    0.0000 C   0  0  0  0  0  0  0  0  0  0  0  0
   -3.0000   -5.1962    0.0000 O   0  0  0  0  0  0  0  0  0  0  0  0
   -3.0000   -2.5981    0.0000 C   0  0  0  0  0  0  0  0  0  0  0  0
   -1.5000   -2.5981    0.0000 C   0  0  0  0  0  0  0  0  0  0  0  0
   -0.7500   -3.8971    0.0000 C   0  0  0  0  0  0  0  0  0  0  0  0
    0.7500   -3.8971    0.0000 C   0  0  0  0  0  0  0  0  0  0  0  0
    1.5000   -2.5981    0.0000 C   0  0  0  0  0  0  0  0  0  0  0  0
    3.0000   -2.5981    0.0000 C   0  0  0  0  0  0  0  0  0  0  0  0
    0.7500   -1.2990    0.0000 C   0  0  0  0  0  0  0  0  0  0  0  0
    1.5000    0.0000    0.0000 C   0  0  0  0  0  0  0  0  0  0  0  0
    0.7500    1.2990    0.0000 C   0  0  0  0  0  0  0  0  0  0  0  0
    1.5000    2.5981    0.0000 F   0  0  0  0  0  0  0  0  0  0  0  0
   -0.7500    1.2990    0.0000 C   0  0  0  0  0  0  0  0  0  0  0  0
   -1.5000    0.0000    0.0000 C   0  0  0  0  0  0  0  0  0  0  0  0
   -0.7500   -1.2990    0.0000 C   0  0  0  0  0  0  0  0  0  0  0  0
   -6.1317   -2.6836    0.0000 C   0  0  0  0  0  0  0  0  0  0  0  0
   -5.6682   -1.2570    0.0000 O   0  0  0  0  0  0  0  0  0  0  0  0
  1  2  1  0
  2  3  2  0
  2  4  1  0
  4  5  2  0
  4  6  1  0
  6  7  1  0
  7  8  1  0
  8  9  1  0
  9 10  1  0
 10 11  2  0
 10 12  1  0
 12 13  1  0
 13 14  1  0
 14 15  1  0
 15 16  1  0
 16 17  1  0
 16 18  1  0
 18 19  2  0
 19 20  1  0
 20 21  1  0
 20 22  2  0
 22 23  1  0
 23 24  2  0
  9 25  1  0
 25 26  2  0
 25  6  1  0
 24 13  1  0
 24 18  1  0
M  END
>  <Title>  (235) 
idAAHCgen6

$$$$

     RDKit          2D

 35 38  0  0  0  0  0  0  0  0999 V2000
    3.9271    0.0000    0.0000 C   0  0  0  0  0  0  0  0  0  0  0  0
    2.4271    0.0000    0.0000 C   0  0  0  0  0  0  0  0  0  0  0  0
    1.9635   -1.4266    0.0000 C   0  0  0  0  0  0  0  0  0  0  0  0
    0.7500   -2.3083    0.0000 C   0  0  0  0  0  0  0  0  0  0  0  0
   -0.7500   -2.3083    0.0000 C   0  0  0  0  0  0  0  0  0  0  0  0
   -1.9635   -1.4266    0.0000 C   0  0  0  0  0  0  0  0  0  0  0  0
   -2.4271    0.0000    0.0000 C   0  0  0  0  0  0  0  0  0  0  0  0
   -1.9635    1.4266    0.0000 C   0  0  0  0  0  0  0  0  0  0  0  0
   -0.7500    2.3083    0.0000 C   0  0  0  0  0  0  0  0  0  0  0  0
    0.7500    2.3083    0.0000 C   0  0  0  0  0  0  0  0  0  0  0  0
    1.2135    3.7348    0.0000 C   0  0  0  0  0  0  0  0  0  0  0  0
    2.5500    4.4158    0.0000 C   0  0  0  0  0  0  0  0  0  0  0  0
    1.8690    5.7523    0.0000 C   0  0  0  0  0  0  0  0  0  0  0  0
    0.5325    5.0714    0.0000 C   0  0  0  0  0  0  0  0  0  0  0  0
   -0.8940    5.5349    0.0000 N   0  0  0  0  0  0  0  0  0  0  0  0
   -1.2059    7.0021    0.0000 C   0  0  0  0  0  0  0  0  0  0  0  0
   -0.0912    8.0058    0.0000 O   0  0  0  0  0  0  0  0  0  0  0  0
   -2.6325    7.4656    0.0000 C   0  0  0  0  0  0  0  0  0  0  0  0
   -2.9444    8.9329    0.0000 C   0  0  0  0  0  0  0  0  0  0  0  0
   -4.3709    9.3964    0.0000 C   0  0  0  0  0  0  0  0  0  0  0  0
   -4.6828   10.8636    0.0000 C   0  0  0  0  0  0  0  0  0  0  0  0
   -6.1094   11.3271    0.0000 C   0  0  0  0  0  0  0  0  0  0  0  0
   -7.2241   10.3234    0.0000 C   0  0  0  0  0  0  0  0  0  0  0  0
   -6.9123    8.8562    0.0000 C   0  0  0  0  0  0  0  0  0  0  0  0
   -5.4857    8.3927    0.0000 C   0  0  0  0  0  0  0  0  0  0  0  0
   -3.7472    6.4619    0.0000 C   0  0  0  0  0  0  0  0  0  0  0  0
   -3.4353    4.9947    0.0000 O   0  0  0  0  0  0  0  0  0  0  0  0
   -5.1738    6.9255    0.0000 N   0  0  0  0  0  0  0  0  0  0  0  0
   -6.2885    5.9218    0.0000 C   0  0  0  0  0  0  0  0  0  0  0  0
   -7.7151    6.3853    0.0000 N   0  0  0  0  0  0  0  0  0  0  0  0
   -8.8298    5.3816    0.0000 N   0  0  0  0  0  0  0  0  0  0  0  0
   -8.5180    3.9144    0.0000 N   0  0  0  0  0  0  0  0  0  0  0  0
   -7.0914    3.4508    0.0000 N   0  0  0  0  0  0  0  0  0  0  0  0
   -5.9766    4.4545    0.0000 N   0  0  0  0  0  0  0  0  0  0  0  0
    1.9635    1.4266    0.0000 C   0  0  0  0  0  0  0  0  0  0  0  0
  1  2  1  0
  2  3  1  0
  3  4  2  0
  4  5  1  0
  5  6  2  0
  6  7  1  0
  7  8  2  0
  8  9  1  0
  9 10  2  0
 10 11  1  0
 11 12  1  0
 12 13  1  0
 13 14  1  0
 14 15  1  0
 15 16  1  0
 16 17  2  0
 16 18  1  0
 18 19  1  0
 19 20  1  0
 20 21  2  0
 21 22  1  0
 22 23  2  0
 23 24  1  0
 24 25  2  0
 18 26  1  0
 26 27  2  0
 26 28  1  0
 28 29  1  0
 29 30  2  0
 30 31  1  0
 31 32  2  0
 32 33  1  0
 33 34  2  0
 10 35  1  0
 35  2  1  0
 14 11  1  0
 25 20  1  0
 34 29  1  0
M  END
>  <Title>  (236) 
idAAHDgen6

$$$$

     RDKit          2D

  7  6  0  0  0  0  0  0  0  0999 V2000
    0.0000    0.0000    0.0000 C   0  0  0  0  0  0  0  0  0  0  0  0
    1.2990    0.7500    0.0000 C   0  0  0  0  0  0  0  0  0  0  0  0
    1.2990    2.2500    0.0000 O   0  0  0  0  0  0  0  0  0  0  0  0
    2.5981   -0.0000    0.0000 C   0  0  0  0  0  0  0  0  0  0  0  0
    3.8971    0.7500    0.0000 C   0  0  0  0  0  0  0  0  0  0  0  0
    5.1962   -0.0000    0.0000 C   0  0  0  0  0  0  0  0  0  0  0  0
    6.4952   -0.7500    0.0000 N   0  0  0  0  0  0  0  0  0  0  0  0
  1  2  1  0
  2  3  2  0
  2  4  1  0
  4  5  2  3
  5  6  1  0
  6  7  3  0
M  END
>  <Title>  (237) 
idAAHEgen6

$$$$

     RDKit          2D

 21 23  0  0  0  0  0  0  0  0999 V2000
    3.0000    0.0000    0.0000 C   0  0  0  0  0  0  0  0  0  0  0  0
    1.5000    0.0000    0.0000 C   0  0  0  0  0  0  0  0  0  0  0  0
    0.7500   -1.2990    0.0000 C   0  0  0  0  0  0  0  0  0  0  0  0
   -0.7500   -1.2990    0.0000 C   0  0  0  0  0  0  0  0  0  0  0  0
   -1.5000    0.0000    0.0000 C   0  0  0  0  0  0  0  0  0  0  0  0
   -3.0000    0.0000    0.0000 C   0  0  0  0  0  0  0  0  0  0  0  0
   -3.7500   -1.2990    0.0000 C   0  0  0  0  0  0  0  0  0  0  0  0
   -3.0000   -2.5981    0.0000 O   0  0  0  0  0  0  0  0  0  0  0  0
   -5.2500   -1.2990    0.0000 N   0  0  0  0  0  0  0  0  0  0  0  0
   -6.0000   -2.5981    0.0000 C   0  0  0  0  0  0  0  0  0  0  0  0
   -7.5000   -2.5981    0.0000 N   0  0  0  0  0  0  0  0  0  0  0  0
   -8.2500   -3.8971    0.0000 N   0  0  0  0  0  0  0  0  0  0  0  0
   -7.5000   -5.1962    0.0000 N   0  0  0  0  0  0  0  0  0  0  0  0
   -6.0000   -5.1962    0.0000 N   0  0  0  0  0  0  0  0  0  0  0  0
   -5.2500   -3.8971    0.0000 N   0  0  0  0  0  0  0  0  0  0  0  0
   -3.7500    1.2990    0.0000 C   0  0  0  0  0  0  0  0  0  0  0  0
   -3.0000    2.5981    0.0000 C   0  0  0  0  0  0  0  0  0  0  0  0
   -1.5000    2.5981    0.0000 C   0  0  0  0  0  0  0  0  0  0  0  0
   -0.7500    3.8971    0.0000 C   0  0  0  0  0  0  0  0  0  0  0  0
   -0.7500    1.2990    0.0000 C   0  0  0  0  0  0  0  0  0  0  0  0
    0.7500    1.2990    0.0000 C   0  0  0  0  0  0  0  0  0  0  0  0
  1  2  1  0
  2  3  2  0
  3  4  1  0
  4  5  2  0
  5  6  1  0
  6  7  1  0
  7  8  2  0
  7  9  1  0
  9 10  1  0
 10 11  2  0
 11 12  1  0
 12 13  2  0
 13 14  1  0
 14 15  2  0
  6 16  2  0
 16 17  1  0
 17 18  2  0
 18 19  1  0
 18 20  1  0
 20 21  2  0
 21  2  1  0
 20  5  1  0
 15 10  1  0
M  END
>  <Title>  (238) 
idAAHFgen6

$$$$

     RDKit          2D

 17 18  0  0  0  0  0  0  0  0999 V2000
    8.0288    2.8847    0.0000 C   0  0  0  0  0  0  0  0  0  0  0  0
    6.8468    3.8082    0.0000 C   0  0  0  0  0  0  0  0  0  0  0  0
    7.0555    5.2936    0.0000 O   0  0  0  0  0  0  0  0  0  0  0  0
    5.4560    3.2463    0.0000 C   0  0  0  0  0  0  0  0  0  0  0  0
    5.2472    1.7609    0.0000 O   0  0  0  0  0  0  0  0  0  0  0  0
    4.2740    4.1698    0.0000 C   0  0  0  0  0  0  0  0  0  0  0  0
    3.7121    5.5606    0.0000 C   0  0  0  0  0  0  0  0  0  0  0  0
    2.7886    4.3786    0.0000 C   0  0  0  0  0  0  0  0  0  0  0  0
    1.4641    5.0828    0.0000 O   0  0  0  0  0  0  0  0  0  0  0  0
    2.3250    2.9520    0.0000 C   0  0  0  0  0  0  0  0  0  0  0  0
    0.8578    2.6401    0.0000 C   0  0  0  0  0  0  0  0  0  0  0  0
   -0.1459    3.7548    0.0000 O   0  0  0  0  0  0  0  0  0  0  0  0
    0.3943    1.2135    0.0000 C   0  0  0  0  0  0  0  0  0  0  0  0
    1.2760    0.0000    0.0000 C   0  0  0  0  0  0  0  0  0  0  0  0
    0.3943   -1.2135    0.0000 C   0  0  0  0  0  0  0  0  0  0  0  0
   -1.0323   -0.7500    0.0000 C   0  0  0  0  0  0  0  0  0  0  0  0
   -1.0323    0.7500    0.0000 C   0  0  0  0  0  0  0  0  0  0  0  0
  1  2  1  0
  2  3  2  0
  2  4  1  0
  4  5  2  0
  4  6  1  0
  6  7  1  0
  7  8  1  0
  8  9  1  0
  8 10  1  0
 10 11  1  0
 11 12  2  0
 11 13  1  0
 13 14  1  0
 14 15  2  0
 15 16  1  0
 16 17  1  0
  8  6  1  0
 17 13  1  0
M  END
>  <Title>  (239) 
idAAHGgen6

$$$$

     RDKit          2D

 10 10  0  0  0  0  0  0  0  0999 V2000
    3.5260   -1.2990    0.0000 C   0  0  0  0  0  0  0  0  0  0  0  0
    2.7760    0.0000    0.0000 O   0  0  0  0  0  0  0  0  0  0  0  0
    1.2760    0.0000    0.0000 C   0  0  0  0  0  0  0  0  0  0  0  0
    0.3943    1.2135    0.0000 C   0  0  0  0  0  0  0  0  0  0  0  0
   -1.0323    0.7500    0.0000 C   0  0  0  0  0  0  0  0  0  0  0  0
   -1.0323   -0.7500    0.0000 C   0  0  0  0  0  0  0  0  0  0  0  0
   -2.2458   -1.6317    0.0000 C   0  0  0  0  0  0  0  0  0  0  0  0
   -2.0890   -3.1235    0.0000 O   0  0  0  0  0  0  0  0  0  0  0  0
   -3.6161   -1.0216    0.0000 O   0  0  0  0  0  0  0  0  0  0  0  0
    0.3943   -1.2135    0.0000 C   0  0  0  0  0  0  0  0  0  0  0  0
  1  2  1  0
  2  3  1  0
  3  4  2  0
  4  5  1  0
  5  6  2  0
  6  7  1  0
  7  8  2  0
  7  9  1  0
  6 10  1  0
 10  3  1  0
M  END
>  <Title>  (240) 
idAAHHgen6

$$$$

     RDKit          2D

  6  6  0  0  0  0  0  0  0  0999 V2000
    2.7760    0.0000    0.0000 O   0  0  0  0  0  0  0  0  0  0  0  0
    1.2760    0.0000    0.0000 C   0  0  0  0  0  0  0  0  0  0  0  0
    0.3943    1.2135    0.0000 C   0  0  0  0  0  0  0  0  0  0  0  0
   -1.0323    0.7500    0.0000 C   0  0  0  0  0  0  0  0  0  0  0  0
   -1.0323   -0.7500    0.0000 C   0  0  0  0  0  0  0  0  0  0  0  0
    0.3943   -1.2135    0.0000 C   0  0  0  0  0  0  0  0  0  0  0  0
  1  2  2  0
  2  3  1  0
  3  4  2  0
  4  5  1  0
  5  6  2  0
  6  2  1  0
M  END
>  <Title>  (241) 
idAAHIgen6

$$$$

     RDKit          2D

 26 29  0  0  0  0  0  0  0  0999 V2000
    3.0000    0.0000    0.0000 C   0  0  0  0  0  0  0  0  0  0  0  0
    1.5000    0.0000    0.0000 C   0  0  0  0  0  0  0  0  0  0  0  0
    0.7500   -1.2990    0.0000 C   0  0  0  0  0  0  0  0  0  0  0  0
   -0.7500   -1.2990    0.0000 C   0  0  0  0  0  0  0  0  0  0  0  0
   -1.5000    0.0000    0.0000 C   0  0  0  0  0  0  0  0  0  0  0  0
   -3.0000    0.0000    0.0000 C   0  0  0  0  0  0  0  0  0  0  0  0
   -3.7500   -1.2990    0.0000 O   0  0  0  0  0  0  0  0  0  0  0  0
   -3.7500    1.2990    0.0000 N   0  0  0  0  0  0  0  0  0  0  0  0
   -5.2500    1.2990    0.0000 C   0  0  0  0  0  0  0  0  0  0  0  0
   -6.1317    0.0855    0.0000 N   0  0  0  0  0  0  0  0  0  0  0  0
   -7.5583    0.5490    0.0000 N   0  0  0  0  0  0  0  0  0  0  0  0
   -7.5583    2.0490    0.0000 N   0  0  0  0  0  0  0  0  0  0  0  0
   -6.1317    2.5126    0.0000 N   0  0  0  0  0  0  0  0  0  0  0  0
   -5.6682    3.9391    0.0000 C   0  0  0  0  0  0  0  0  0  0  0  0
   -6.5498    5.1527    0.0000 C   0  0  0  0  0  0  0  0  0  0  0  0
   -5.6682    6.3662    0.0000 C   0  0  0  0  0  0  0  0  0  0  0  0
   -4.2416    5.9027    0.0000 C   0  0  0  0  0  0  0  0  0  0  0  0
   -3.0280    6.7844    0.0000 C   0  0  0  0  0  0  0  0  0  0  0  0
   -1.6577    6.1742    0.0000 C   0  0  0  0  0  0  0  0  0  0  0  0
   -0.4442    7.0559    0.0000 C   0  0  0  0  0  0  0  0  0  0  0  0
   -0.6010    8.5477    0.0000 C   0  0  0  0  0  0  0  0  0  0  0  0
   -1.9713    9.1578    0.0000 C   0  0  0  0  0  0  0  0  0  0  0  0
   -3.1848    8.2761    0.0000 C   0  0  0  0  0  0  0  0  0  0  0  0
   -4.2416    4.4027    0.0000 C   0  0  0  0  0  0  0  0  0  0  0  0
   -0.7500    1.2990    0.0000 C   0  0  0  0  0  0  0  0  0  0  0  0
    0.7500    1.2990    0.0000 C   0  0  0  0  0  0  0  0  0  0  0  0
  1  2  1  0
  2  3  1  0
  3  4  1  0
  4  5  1  0
  5  6  1  0
  6  7  2  0
  6  8  1  0
  8  9  1  0
  9 10  2  0
 10 11  1  0
 11 12  2  0
 12 13  1  0
 13 14  1  0
 14 15  2  0
 15 16  1  0
 16 17  2  0
 17 18  1  0
 18 19  2  0
 19 20  1  0
 20 21  2  0
 21 22  1  0
 22 23  2  0
 17 24  1  0
  5 25  1  0
 25 26  1  0
 26  2  1  0
 13  9  1  0
 24 14  1  0
 23 18  1  0
M  END
>  <Title>  (242) 
idAAHJgen6

$$$$

     RDKit          2D

  6  6  0  0  0  0  0  0  0  0999 V2000
    1.5000    0.0000    0.0000 C   0  0  0  0  0  0  0  0  0  0  0  0
    0.7500   -1.2990    0.0000 C   0  0  0  0  0  0  0  0  0  0  0  0
   -0.7500   -1.2990    0.0000 C   0  0  0  0  0  0  0  0  0  0  0  0
   -1.5000    0.0000    0.0000 C   0  0  0  0  0  0  0  0  0  0  0  0
   -0.7500    1.2990    0.0000 C   0  0  0  0  0  0  0  0  0  0  0  0
    0.7500    1.2990    0.0000 C   0  0  0  0  0  0  0  0  0  0  0  0
  1  2  2  0
  2  3  1  0
  3  4  2  0
  4  5  1  0
  5  6  2  0
  6  1  1  0
M  END
>  <Title>  (243) 
idAAHKgen6

$$$$

     RDKit          2D

 15 16  0  0  0  0  0  0  0  0999 V2000
    3.9409    3.4027    0.0000 C   0  0  0  0  0  0  0  0  0  0  0  0
    2.8073    4.3850    0.0000 C   0  0  0  0  0  0  0  0  0  0  0  0
    1.3898    3.8944    0.0000 C   0  0  0  0  0  0  0  0  0  0  0  0
    1.1059    2.4215    0.0000 C   0  0  0  0  0  0  0  0  0  0  0  0
    2.2395    1.4392    0.0000 C   0  0  0  0  0  0  0  0  0  0  0  0
    3.6570    1.9298    0.0000 C   0  0  0  0  0  0  0  0  0  0  0  0
    2.6621    0.0000    0.0000 C   0  0  0  0  0  0  0  0  0  0  0  0
    2.2395   -1.4392    0.0000 C   0  0  0  0  0  0  0  0  0  0  0  0
    1.1059   -2.4215    0.0000 C   0  0  0  0  0  0  0  0  0  0  0  0
   -0.3789   -2.6350    0.0000 C   0  0  0  0  0  0  0  0  0  0  0  0
   -1.7433   -2.0119    0.0000 C   0  0  0  0  0  0  0  0  0  0  0  0
   -2.5543   -0.7500    0.0000 C   0  0  0  0  0  0  0  0  0  0  0  0
   -2.5543    0.7500    0.0000 C   0  0  0  0  0  0  0  0  0  0  0  0
   -1.7433    2.0119    0.0000 C   0  0  0  0  0  0  0  0  0  0  0  0
   -0.3789    2.6350    0.0000 C   0  0  0  0  0  0  0  0  0  0  0  0
  1  2  2  0
  2  3  1  0
  3  4  2  0
  4  5  1  0
  5  6  2  0
  5  7  1  0
  7  8  1  0
  8  9  1  0
  9 10  1  0
 10 11  1  0
 11 12  1  0
 12 13  1  0
 13 14  1  0
 14 15  1  0
  6  1  1  0
 15  4  1  0
M  END
>  <Title>  (244) 
idAAHLgen6

$$$$

     RDKit          2D

 68 76  0  0  0  0  0  0  0  0999 V2000
  -19.1746    3.5827    0.0000 C   0  0  0  0  0  0  0  0  0  0  0  0
  -18.4246    4.8818    0.0000 C   0  0  0  0  0  0  0  0  0  0  0  0
  -16.9288    4.7697    0.0000 C   0  0  0  0  0  0  0  0  0  0  0  0
  -16.3807    3.3734    0.0000 O   0  0  0  0  0  0  0  0  0  0  0  0
  -15.9085    5.8693    0.0000 C   0  0  0  0  0  0  0  0  0  0  0  0
  -16.1321    7.3525    0.0000 C   0  0  0  0  0  0  0  0  0  0  0  0
  -14.8927    8.1975    0.0000 C   0  0  0  0  0  0  0  0  0  0  0  0
  -15.0048    9.6933    0.0000 O   0  0  0  0  0  0  0  0  0  0  0  0
  -13.5412    7.5467    0.0000 N   0  0  0  0  0  0  0  0  0  0  0  0
  -12.3019    8.3916    0.0000 C   0  0  0  0  0  0  0  0  0  0  0  0
  -12.2570    9.8910    0.0000 N   0  0  0  0  0  0  0  0  0  0  0  0
  -10.8172   10.3116    0.0000 N   0  0  0  0  0  0  0  0  0  0  0  0
   -9.9722    9.0723    0.0000 N   0  0  0  0  0  0  0  0  0  0  0  0
  -10.8898    7.8856    0.0000 N   0  0  0  0  0  0  0  0  0  0  0  0
  -10.4692    6.4458    0.0000 C   0  0  0  0  0  0  0  0  0  0  0  0
  -11.5058    5.3616    0.0000 C   0  0  0  0  0  0  0  0  0  0  0  0
  -11.0851    3.9218    0.0000 C   0  0  0  0  0  0  0  0  0  0  0  0
   -9.6279    3.5662    0.0000 C   0  0  0  0  0  0  0  0  0  0  0  0
   -8.5913    4.6504    0.0000 C   0  0  0  0  0  0  0  0  0  0  0  0
   -9.0119    6.0902    0.0000 C   0  0  0  0  0  0  0  0  0  0  0  0
   -7.9753    7.1744    0.0000 C   0  0  0  0  0  0  0  0  0  0  0  0
   -8.3960    8.6142    0.0000 C   0  0  0  0  0  0  0  0  0  0  0  0
   -7.3594    9.6984    0.0000 C   0  0  0  0  0  0  0  0  0  0  0  0
   -5.9022    9.3428    0.0000 C   0  0  0  0  0  0  0  0  0  0  0  0
   -4.8656   10.4270    0.0000 C   0  0  0  0  0  0  0  0  0  0  0  0
   -3.8290   11.5112    0.0000 N   0  0  0  0  0  0  0  0  0  0  0  0
   -5.4815    7.9030    0.0000 C   0  0  0  0  0  0  0  0  0  0  0  0
   -6.5181    6.8188    0.0000 C   0  0  0  0  0  0  0  0  0  0  0  0
   -6.0975    5.3790    0.0000 C   0  0  0  0  0  0  0  0  0  0  0  0
   -7.1341    4.2948    0.0000 C   0  0  0  0  0  0  0  0  0  0  0  0
   -6.7134    2.8550    0.0000 C   0  0  0  0  0  0  0  0  0  0  0  0
   -5.2562    2.4993    0.0000 C   0  0  0  0  0  0  0  0  0  0  0  0
   -4.2196    3.5835    0.0000 C   0  0  0  0  0  0  0  0  0  0  0  0
   -4.6402    5.0234    0.0000 C   0  0  0  0  0  0  0  0  0  0  0  0
   -3.6036    6.1075    0.0000 C   0  0  0  0  0  0  0  0  0  0  0  0
   -4.0243    7.5474    0.0000 C   0  0  0  0  0  0  0  0  0  0  0  0
   -2.9877    8.6315    0.0000 C   0  0  0  0  0  0  0  0  0  0  0  0
   -1.5304    8.2759    0.0000 C   0  0  0  0  0  0  0  0  0  0  0  0
   -0.4939    9.3601    0.0000 C   0  0  0  0  0  0  0  0  0  0  0  0
    0.5427   10.4443    0.0000 N   0  0  0  0  0  0  0  0  0  0  0  0
   -1.1098    6.8361    0.0000 C   0  0  0  0  0  0  0  0  0  0  0  0
   -2.1464    5.7519    0.0000 C   0  0  0  0  0  0  0  0  0  0  0  0
   -1.7258    4.3121    0.0000 C   0  0  0  0  0  0  0  0  0  0  0  0
   -2.7624    3.2279    0.0000 C   0  0  0  0  0  0  0  0  0  0  0  0
   -2.3417    1.7881    0.0000 C   0  0  0  0  0  0  0  0  0  0  0  0
   -0.8845    1.4325    0.0000 C   0  0  0  0  0  0  0  0  0  0  0  0
    0.1521    2.5167    0.0000 C   0  0  0  0  0  0  0  0  0  0  0  0
   -0.2685    3.9565    0.0000 C   0  0  0  0  0  0  0  0  0  0  0  0
    0.7681    5.0407    0.0000 C   0  0  0  0  0  0  0  0  0  0  0  0
    2.2253    4.6851    0.0000 C   0  0  0  0  0  0  0  0  0  0  0  0
    3.2619    5.7693    0.0000 C   0  0  0  0  0  0  0  0  0  0  0  0
    2.8413    7.2091    0.0000 C   0  0  0  0  0  0  0  0  0  0  0  0
    3.8779    8.2933    0.0000 C   0  0  0  0  0  0  0  0  0  0  0  0
    5.3351    7.9376    0.0000 C   0  0  0  0  0  0  0  0  0  0  0  0
    5.7557    6.4978    0.0000 O   0  0  0  0  0  0  0  0  0  0  0  0
    6.3717    9.0218    0.0000 N   0  0  0  0  0  0  0  0  0  0  0  0
    7.8289    8.6662    0.0000 C   0  0  0  0  0  0  0  0  0  0  0  0
    8.2496    7.2264    0.0000 N   0  0  0  0  0  0  0  0  0  0  0  0
    9.7068    6.8708    0.0000 N   0  0  0  0  0  0  0  0  0  0  0  0
   10.7434    7.9550    0.0000 N   0  0  0  0  0  0  0  0  0  0  0  0
   10.3227    9.3948    0.0000 N   0  0  0  0  0  0  0  0  0  0  0  0
    8.8655    9.7504    0.0000 N   0  0  0  0  0  0  0  0  0  0  0  0
    1.3840    7.5647    0.0000 C   0  0  0  0  0  0  0  0  0  0  0  0
    0.3474    6.4805    0.0000 C   0  0  0  0  0  0  0  0  0  0  0  0
  -17.4311    8.1025    0.0000 C   0  0  0  0  0  0  0  0  0  0  0  0
  -18.8274    7.5545    0.0000 C   0  0  0  0  0  0  0  0  0  0  0  0
  -19.2695    6.1211    0.0000 C   0  0  0  0  0  0  0  0  0  0  0  0
  -20.7528    5.8976    0.0000 C   0  0  0  0  0  0  0  0  0  0  0  0
  1  2  2  0
  2  3  1  0
  3  4  1  0
  3  5  2  0
  5  6  1  0
  6  7  1  0
  7  8  2  0
  7  9  1  0
  9 10  1  0
 10 11  2  0
 11 12  1  0
 12 13  2  0
 13 14  1  0
 14 15  1  0
 15 16  2  0
 16 17  1  0
 17 18  2  0
 18 19  1  0
 19 20  2  0
 20 21  1  0
 21 22  2  0
 22 23  1  0
 23 24  2  0
 24 25  1  0
 25 26  3  0
 24 27  1  0
 27 28  2  0
 28 29  1  0
 29 30  2  0
 30 31  1  0
 31 32  2  0
 32 33  1  0
 33 34  2  0
 34 35  1  0
 35 36  2  0
 36 37  1  0
 37 38  2  0
 38 39  1  0
 39 40  3  0
 38 41  1  0
 41 42  2  0
 42 43  1  0
 43 44  2  0
 44 45  1  0
 45 46  2  0
 46 47  1  0
 47 48  2  0
 48 49  1  0
 49 50  2  0
 50 51  1  0
 51 52  2  0
 52 53  1  0
 53 54  1  0
 54 55  2  0
 54 56  1  0
 56 57  1  0
 57 58  2  0
 58 59  1  0
 59 60  2  0
 60 61  1  0
 61 62  2  0
 52 63  1  0
 63 64  1  0
  6 65  1  0
 65 66  1  0
 66 67  1  0
 67 68  1  0
 67  2  1  0
 14 10  1  0
 20 15  1  0
 28 21  1  0
 34 29  1  0
 42 35  1  0
 48 43  1  0
 64 49  1  0
 62 57  1  0
M  END
>  <Title>  (245) 
idAAHMgen6

$$$$

     RDKit          2D

 11 11  0  0  0  0  0  0  0  0999 V2000
    5.2500   -1.2990    0.0000 C   0  0  0  0  0  0  0  0  0  0  0  0
    3.7500   -1.2990    0.0000 C   0  0  0  0  0  0  0  0  0  0  0  0
    3.0000   -2.5981    0.0000 O   0  0  0  0  0  0  0  0  0  0  0  0
    3.0000    0.0000    0.0000 C   0  0  0  0  0  0  0  0  0  0  0  0
    3.7500    1.2990    0.0000 O   0  0  0  0  0  0  0  0  0  0  0  0
    1.5000    0.0000    0.0000 C   0  0  0  0  0  0  0  0  0  0  0  0
    0.7500   -1.2990    0.0000 C   0  0  0  0  0  0  0  0  0  0  0  0
   -0.7500   -1.2990    0.0000 C   0  0  0  0  0  0  0  0  0  0  0  0
   -1.5000    0.0000    0.0000 C   0  0  0  0  0  0  0  0  0  0  0  0
   -0.7500    1.2990    0.0000 C   0  0  0  0  0  0  0  0  0  0  0  0
    0.7500    1.2990    0.0000 C   0  0  0  0  0  0  0  0  0  0  0  0
  1  2  1  0
  2  3  2  0
  2  4  1  0
  4  5  2  0
  4  6  1  0
  6  7  2  0
  7  8  1  0
  8  9  2  0
  9 10  1  0
 10 11  2  0
 11  6  1  0
M  END
>  <Title>  (246) 
idAAHNgen6

$$$$

     RDKit          2D

 20 21  0  0  0  0  0  0  0  0999 V2000
    5.7120   -2.9146    0.0000 C   0  0  0  0  0  0  0  0  0  0  0  0
    4.8786   -4.1618    0.0000 C   0  0  0  0  0  0  0  0  0  0  0  0
    3.3818   -4.0637    0.0000 C   0  0  0  0  0  0  0  0  0  0  0  0
    2.7184   -2.7184    0.0000 C   0  0  0  0  0  0  0  0  0  0  0  0
    3.5517   -1.4712    0.0000 C   0  0  0  0  0  0  0  0  0  0  0  0
    5.0485   -1.5693    0.0000 C   0  0  0  0  0  0  0  0  0  0  0  0
    3.8444    0.0000    0.0000 C   0  0  0  0  0  0  0  0  0  0  0  0
    3.5517    1.4712    0.0000 C   0  0  0  0  0  0  0  0  0  0  0  0
    2.7184    2.7184    0.0000 C   0  0  0  0  0  0  0  0  0  0  0  0
    1.4712    3.5517    0.0000 C   0  0  0  0  0  0  0  0  0  0  0  0
    0.0000    3.8444    0.0000 C   0  0  0  0  0  0  0  0  0  0  0  0
   -1.4712    3.5517    0.0000 C   0  0  0  0  0  0  0  0  0  0  0  0
   -2.7184    2.7184    0.0000 C   0  0  0  0  0  0  0  0  0  0  0  0
   -3.5517    1.4712    0.0000 C   0  0  0  0  0  0  0  0  0  0  0  0
   -3.8444    0.0000    0.0000 C   0  0  0  0  0  0  0  0  0  0  0  0
   -3.5517   -1.4712    0.0000 C   0  0  0  0  0  0  0  0  0  0  0  0
   -2.7184   -2.7184    0.0000 C   0  0  0  0  0  0  0  0  0  0  0  0
   -1.4712   -3.5517    0.0000 C   0  0  0  0  0  0  0  0  0  0  0  0
   -0.0000   -3.8444    0.0000 C   0  0  0  0  0  0  0  0  0  0  0  0
    1.4712   -3.5517    0.0000 N   0  0  0  0  0  0  0  0  0  0  0  0
  1  2  2  0
  2  3  1  0
  3  4  2  0
  4  5  1  0
  5  6  2  0
  5  7  1  0
  7  8  1  0
  8  9  1  0
  9 10  1  0
 10 11  1  0
 11 12  1  0
 12 13  1  0
 13 14  1  0
 14 15  1  0
 15 16  1  0
 16 17  1  0
 17 18  1  0
 18 19  1  0
 19 20  1  0
  6  1  1  0
 20  4  1  0
M  END
>  <Title>  (247) 
idAAHOgen6

$$$$

     RDKit          2D

 20 22  0  0  0  0  0  0  0  0999 V2000
   -2.9520   -4.6564    0.0000 C   0  0  0  0  0  0  0  0  0  0  0  0
   -2.6401   -3.1891    0.0000 O   0  0  0  0  0  0  0  0  0  0  0  0
   -1.2135   -2.7256    0.0000 C   0  0  0  0  0  0  0  0  0  0  0  0
   -0.0000   -3.6073    0.0000 C   0  0  0  0  0  0  0  0  0  0  0  0
    1.2135   -2.7256    0.0000 C   0  0  0  0  0  0  0  0  0  0  0  0
    2.6401   -3.1891    0.0000 C   0  0  0  0  0  0  0  0  0  0  0  0
    3.7548   -2.1855    0.0000 O   0  0  0  0  0  0  0  0  0  0  0  0
    2.9520   -4.6564    0.0000 N   0  0  0  0  0  0  0  0  0  0  0  0
    4.3786   -5.1199    0.0000 C   0  0  0  0  0  0  0  0  0  0  0  0
    4.6904   -6.5871    0.0000 N   0  0  0  0  0  0  0  0  0  0  0  0
    6.1170   -7.0506    0.0000 N   0  0  0  0  0  0  0  0  0  0  0  0
    7.2317   -6.0469    0.0000 N   0  0  0  0  0  0  0  0  0  0  0  0
    6.9199   -4.5797    0.0000 N   0  0  0  0  0  0  0  0  0  0  0  0
    5.4933   -4.1162    0.0000 N   0  0  0  0  0  0  0  0  0  0  0  0
    0.7500   -1.2990    0.0000 C   0  0  0  0  0  0  0  0  0  0  0  0
    1.5000    0.0000    0.0000 C   0  0  0  0  0  0  0  0  0  0  0  0
    0.7500    1.2990    0.0000 C   0  0  0  0  0  0  0  0  0  0  0  0
   -0.7500    1.2990    0.0000 C   0  0  0  0  0  0  0  0  0  0  0  0
   -1.5000    0.0000    0.0000 C   0  0  0  0  0  0  0  0  0  0  0  0
   -0.7500   -1.2990    0.0000 C   0  0  0  0  0  0  0  0  0  0  0  0
  1  2  1  0
  2  3  1  0
  3  4  2  0
  4  5  1  0
  5  6  1  0
  6  7  2  0
  6  8  1  0
  8  9  1  0
  9 10  2  0
 10 11  1  0
 11 12  2  0
 12 13  1  0
 13 14  2  0
  5 15  1  0
 15 16  2  0
 16 17  1  0
 17 18  2  0
 18 19  1  0
 19 20  2  0
 20  3  1  0
 14  9  1  0
 20 15  1  0
M  END
>  <Title>  (248) 
idAAHPgen6

$$$$

     RDKit          2D

 26 29  0  0  0  0  0  0  0  0999 V2000
    3.0000   -2.5981    0.0000 O   0  0  0  0  0  0  0  0  0  0  0  0
    1.5000   -2.5981    0.0000 C   0  0  0  0  0  0  0  0  0  0  0  0
    0.7500   -3.8971    0.0000 N   0  0  0  0  0  0  0  0  0  0  0  0
    1.5000   -5.1962    0.0000 C   0  0  0  0  0  0  0  0  0  0  0  0
    2.9918   -5.3529    0.0000 N   0  0  0  0  0  0  0  0  0  0  0  0
    3.3037   -6.8202    0.0000 N   0  0  0  0  0  0  0  0  0  0  0  0
    2.0046   -7.5702    0.0000 N   0  0  0  0  0  0  0  0  0  0  0  0
    0.8899   -6.5665    0.0000 N   0  0  0  0  0  0  0  0  0  0  0  0
   -0.5773   -6.8783    0.0000 N   0  0  0  0  0  0  0  0  0  0  0  0
   -1.1874   -8.2487    0.0000 C   0  0  0  0  0  0  0  0  0  0  0  0
   -2.6792   -8.0919    0.0000 C   0  0  0  0  0  0  0  0  0  0  0  0
   -2.9911   -6.6246    0.0000 C   0  0  0  0  0  0  0  0  0  0  0  0
   -1.6920   -5.8746    0.0000 C   0  0  0  0  0  0  0  0  0  0  0  0
   -1.5353   -4.3829    0.0000 O   0  0  0  0  0  0  0  0  0  0  0  0
    0.7500   -1.2990    0.0000 N   0  0  0  0  0  0  0  0  0  0  0  0
    1.5000    0.0000    0.0000 C   0  0  0  0  0  0  0  0  0  0  0  0
    0.7500    1.2990    0.0000 C   0  0  0  0  0  0  0  0  0  0  0  0
   -0.7500    1.2990    0.0000 C   0  0  0  0  0  0  0  0  0  0  0  0
   -1.5000    2.5981    0.0000 C   0  0  0  0  0  0  0  0  0  0  0  0
   -0.7500    3.8971    0.0000 C   0  0  0  0  0  0  0  0  0  0  0  0
   -1.5000    5.1962    0.0000 C   0  0  0  0  0  0  0  0  0  0  0  0
   -3.0000    5.1962    0.0000 C   0  0  0  0  0  0  0  0  0  0  0  0
   -3.7500    3.8971    0.0000 C   0  0  0  0  0  0  0  0  0  0  0  0
   -3.0000    2.5981    0.0000 C   0  0  0  0  0  0  0  0  0  0  0  0
   -1.5000    0.0000    0.0000 C   0  0  0  0  0  0  0  0  0  0  0  0
   -0.7500   -1.2990    0.0000 C   0  0  0  0  0  0  0  0  0  0  0  0
  1  2  2  0
  2  3  1  0
  3  4  1  0
  4  5  2  0
  5  6  1  0
  6  7  2  0
  7  8  1  0
  8  9  1  0
  9 10  1  0
 10 11  1  0
 11 12  1  0
 12 13  1  0
 13 14  2  0
  2 15  1  0
 15 16  1  0
 16 17  1  0
 17 18  1  0
 18 19  1  0
 19 20  2  0
 20 21  1  0
 21 22  2  0
 22 23  1  0
 23 24  2  0
 18 25  1  0
 25 26  1  0
  8  4  1  0
 13  9  1  0
 26 15  1  0
 24 19  1  0
M  END
>  <Title>  (249) 
idAAHQgen6

$$$$

     RDKit          2D

 10 10  0  0  0  0  0  0  0  0999 V2000
    3.0000    0.0000    0.0000 C   0  0  0  0  0  0  0  0  0  0  0  0
    1.5000    0.0000    0.0000 C   0  0  0  0  0  0  0  0  0  0  0  0
    0.7500   -1.2990    0.0000 C   0  0  0  0  0  0  0  0  0  0  0  0
   -0.7500   -1.2990    0.0000 C   0  0  0  0  0  0  0  0  0  0  0  0
   -1.5000    0.0000    0.0000 C   0  0  0  0  0  0  0  0  0  0  0  0
   -0.7500    1.2990    0.0000 C   0  0  0  0  0  0  0  0  0  0  0  0
   -1.5000    2.5981    0.0000 N   0  0  0  0  0  0  0  0  0  0  0  0
   -0.7500    3.8971    0.0000 C   0  0  0  0  0  0  0  0  0  0  0  0
   -3.0000    2.5981    0.0000 C   0  0  0  0  0  0  0  0  0  0  0  0
    0.7500    1.2990    0.0000 C   0  0  0  0  0  0  0  0  0  0  0  0
  1  2  1  0
  2  3  1  0
  3  4  2  0
  4  5  1  0
  5  6  2  0
  6  7  1  0
  7  8  1  0
  7  9  1  0
  6 10  1  0
 10  2  1  0
M  END
>  <Title>  (250) 
idAAHRgen6

$$$$

     RDKit          2D

 22 23  0  0  0  0  0  0  0  0999 V2000
    8.3063   -0.5677    0.0000 C   0  0  0  0  0  0  0  0  0  0  0  0
    6.9360   -1.1778    0.0000 C   0  0  0  0  0  0  0  0  0  0  0  0
    5.7225   -0.2961    0.0000 C   0  0  0  0  0  0  0  0  0  0  0  0
    5.8793    1.1956    0.0000 C   0  0  0  0  0  0  0  0  0  0  0  0
    4.6658    2.0773    0.0000 N   0  0  0  0  0  0  0  0  0  0  0  0
    3.2954    1.4672    0.0000 C   0  0  0  0  0  0  0  0  0  0  0  0
    3.6073    0.0000    0.0000 C   0  0  0  0  0  0  0  0  0  0  0  0
    3.2954   -1.4672    0.0000 C   0  0  0  0  0  0  0  0  0  0  0  0
    2.4138   -2.6807    0.0000 C   0  0  0  0  0  0  0  0  0  0  0  0
    1.1147   -3.4307    0.0000 C   0  0  0  0  0  0  0  0  0  0  0  0
   -0.3771   -3.5875    0.0000 C   0  0  0  0  0  0  0  0  0  0  0  0
   -1.8037   -3.1240    0.0000 C   0  0  0  0  0  0  0  0  0  0  0  0
   -2.9184   -2.1203    0.0000 C   0  0  0  0  0  0  0  0  0  0  0  0
   -3.5285   -0.7500    0.0000 C   0  0  0  0  0  0  0  0  0  0  0  0
   -3.5285    0.7500    0.0000 C   0  0  0  0  0  0  0  0  0  0  0  0
   -2.9184    2.1203    0.0000 C   0  0  0  0  0  0  0  0  0  0  0  0
   -1.8037    3.1240    0.0000 C   0  0  0  0  0  0  0  0  0  0  0  0
   -0.3771    3.5875    0.0000 C   0  0  0  0  0  0  0  0  0  0  0  0
    1.1147    3.4307    0.0000 C   0  0  0  0  0  0  0  0  0  0  0  0
    2.4138    2.6807    0.0000 C   0  0  0  0  0  0  0  0  0  0  0  0
    7.2496    1.8058    0.0000 C   0  0  0  0  0  0  0  0  0  0  0  0
    8.4631    0.9241    0.0000 C   0  0  0  0  0  0  0  0  0  0  0  0
  1  2  2  0
  2  3  1  0
  3  4  2  0
  4  5  1  0
  5  6  1  0
  6  7  1  0
  7  8  1  0
  8  9  1  0
  9 10  1  0
 10 11  1  0
 11 12  1  0
 12 13  1  0
 13 14  1  0
 14 15  1  0
 15 16  1  0
 16 17  1  0
 17 18  1  0
 18 19  1  0
 19 20  1  0
  4 21  1  0
 21 22  2  0
 22  1  1  0
 20  6  1  0
M  END
>  <Title>  (251) 
idAAHSgen6

$$$$

     RDKit          2D

  8  7  0  0  0  0  0  0  0  0999 V2000
    0.0000    0.0000    0.0000 C   0  0  0  0  0  0  0  0  0  0  0  0
    1.2990    0.7500    0.0000 C   0  0  0  0  0  0  0  0  0  0  0  0
    2.5981    1.5000    0.0000 C   0  0  0  0  0  0  0  0  0  0  0  0
    3.8971    2.2500    0.0000 C   0  0  0  0  0  0  0  0  0  0  0  0
    5.1962    1.5000    0.0000 C   0  0  0  0  0  0  0  0  0  0  0  0
    6.4952    0.7500    0.0000 C   0  0  0  0  0  0  0  0  0  0  0  0
    7.7942   -0.0000    0.0000 C   0  0  0  0  0  0  0  0  0  0  0  0
    9.0933   -0.7500    0.0000 N   0  0  0  0  0  0  0  0  0  0  0  0
  1  2  1  0
  2  3  3  0
  3  4  1  0
  4  5  1  0
  5  6  3  0
  6  7  1  0
  7  8  3  0
M  END
>  <Title>  (252) 
idAAHTgen6

$$$$

     RDKit          2D

  5  4  0  0  0  0  0  0  0  0999 V2000
    0.0000    0.0000    0.0000 C   0  0  0  0  0  0  0  0  0  0  0  0
    1.2990    0.7500    0.0000 C   0  0  0  0  0  0  0  0  0  0  0  0
    2.5981   -0.0000    0.0000 C   0  0  0  0  0  0  0  0  0  0  0  0
    3.8971    0.7500    0.0000 C   0  0  0  0  0  0  0  0  0  0  0  0
    2.5981   -1.5000    0.0000 O   0  0  0  0  0  0  0  0  0  0  0  0
  1  2  1  0
  2  3  2  3
  3  4  1  0
  3  5  1  0
M  END
>  <Title>  (253) 
idAAHUgen6

$$$$

     RDKit          2D

 34 37  0  0  0  0  0  0  0  0999 V2000
   -3.1771   -1.2990    0.0000 C   0  0  0  0  0  0  0  0  0  0  0  0
   -1.9635   -2.1807    0.0000 C   0  0  0  0  0  0  0  0  0  0  0  0
   -2.4271   -3.6073    0.0000 C   0  0  0  0  0  0  0  0  0  0  0  0
   -1.9635   -5.0339    0.0000 C   0  0  0  0  0  0  0  0  0  0  0  0
   -0.7500   -5.9156    0.0000 C   0  0  0  0  0  0  0  0  0  0  0  0
   -0.7901   -7.3857    0.0000 C   0  0  0  0  0  0  0  0  0  0  0  0
   -2.2167   -7.8493    0.0000 O   0  0  0  0  0  0  0  0  0  0  0  0
    0.1840   -8.5264    0.0000 N   0  0  0  0  0  0  0  0  0  0  0  0
    1.6794   -8.6440    0.0000 C   0  0  0  0  0  0  0  0  0  0  0  0
    2.1429  -10.0706    0.0000 O   0  0  0  0  0  0  0  0  0  0  0  0
    2.8200   -7.6699    0.0000 C   0  0  0  0  0  0  0  0  0  0  0  0
    4.1565   -8.3509    0.0000 C   0  0  0  0  0  0  0  0  0  0  0  0
    5.4145   -7.5339    0.0000 O   0  0  0  0  0  0  0  0  0  0  0  0
    4.2350   -9.8488    0.0000 N   0  0  0  0  0  0  0  0  0  0  0  0
    5.5715  -10.5298    0.0000 C   0  0  0  0  0  0  0  0  0  0  0  0
    5.6500  -12.0277    0.0000 C   0  0  0  0  0  0  0  0  0  0  0  0
    6.9865  -12.7087    0.0000 C   0  0  0  0  0  0  0  0  0  0  0  0
    8.2446  -11.8918    0.0000 C   0  0  0  0  0  0  0  0  0  0  0  0
    8.1660  -10.3938    0.0000 C   0  0  0  0  0  0  0  0  0  0  0  0
    6.8295   -9.7128    0.0000 C   0  0  0  0  0  0  0  0  0  0  0  0
    2.9377   -6.1745    0.0000 C   0  0  0  0  0  0  0  0  0  0  0  0
    4.3643   -5.7110    0.0000 O   0  0  0  0  0  0  0  0  0  0  0  0
    1.9635   -5.0339    0.0000 N   0  0  0  0  0  0  0  0  0  0  0  0
    2.4271   -3.6073    0.0000 C   0  0  0  0  0  0  0  0  0  0  0  0
    3.9271   -3.6073    0.0000 O   0  0  0  0  0  0  0  0  0  0  0  0
    1.9635   -2.1807    0.0000 O   0  0  0  0  0  0  0  0  0  0  0  0
    0.7500   -1.2990    0.0000 C   0  0  0  0  0  0  0  0  0  0  0  0
    1.5000    0.0000    0.0000 C   0  0  0  0  0  0  0  0  0  0  0  0
    0.7500    1.2990    0.0000 C   0  0  0  0  0  0  0  0  0  0  0  0
   -0.7500    1.2990    0.0000 C   0  0  0  0  0  0  0  0  0  0  0  0
   -1.5000    0.0000    0.0000 C   0  0  0  0  0  0  0  0  0  0  0  0
   -0.7500   -1.2990    0.0000 C   0  0  0  0  0  0  0  0  0  0  0  0
    0.7500   -5.9156    0.0000 C   0  0  0  0  0  0  0  0  0  0  0  0
    1.2135   -7.3421    0.0000 O   0  0  0  0  0  0  0  0  0  0  0  0
  1  2  1  0
  2  3  1  0
  3  4  1  0
  4  5  1  0
  5  6  1  0
  6  7  2  0
  6  8  1  0
  8  9  1  0
  9 10  2  0
  9 11  1  0
 11 12  1  0
 12 13  2  0
 12 14  1  0
 14 15  1  0
 15 16  2  0
 16 17  1  0
 17 18  2  0
 18 19  1  0
 19 20  2  0
 11 21  1  0
 21 22  2  0
 21 23  1  0
 23 24  1  0
 24 25  2  0
 24 26  1  0
 26 27  1  0
 27 28  2  0
 28 29  1  0
 29 30  2  0
 30 31  1  0
 31 32  2  0
 23 33  1  0
 33 34  2  0
 32  2  1  0
 33  5  1  0
 20 15  1  0
 32 27  1  0
M  END
>  <Title>  (254) 
idAAHVgen6

$$$$

     RDKit          2D

  5  4  0  0  0  0  0  0  0  0999 V2000
    0.0000    0.0000    0.0000 C   0  0  0  0  0  0  0  0  0  0  0  0
    1.2990    0.7500    0.0000 C   0  0  0  0  0  0  0  0  0  0  0  0
    2.5981    1.5000    0.0000 C   0  0  0  0  0  0  0  0  0  0  0  0
    2.0490   -0.5490    0.0000 C   0  0  0  0  0  0  0  0  0  0  0  0
    0.5490    2.0490    0.0000 N   0  0  0  0  0  0  0  0  0  0  0  0
  1  2  1  0
  2  3  1  0
  2  4  1  0
  2  5  1  0
M  END
>  <Title>  (255) 
idAAHWgen6

$$$$

     RDKit          2D

 22 23  0  0  0  0  0  0  0  0999 V2000
  -12.8053   -1.0285    0.0000 C   0  0  0  0  0  0  0  0  0  0  0  0
  -11.3787   -0.5649    0.0000 C   0  0  0  0  0  0  0  0  0  0  0  0
  -11.0669    0.9023    0.0000 O   0  0  0  0  0  0  0  0  0  0  0  0
  -10.2640   -1.5686    0.0000 C   0  0  0  0  0  0  0  0  0  0  0  0
   -8.8374   -1.1051    0.0000 N   0  0  0  0  0  0  0  0  0  0  0  0
   -7.7227   -2.1088    0.0000 C   0  0  0  0  0  0  0  0  0  0  0  0
   -8.0346   -3.5760    0.0000 O   0  0  0  0  0  0  0  0  0  0  0  0
   -6.2961   -1.6453    0.0000 C   0  0  0  0  0  0  0  0  0  0  0  0
   -5.1814   -2.6490    0.0000 N   0  0  0  0  0  0  0  0  0  0  0  0
   -3.7548   -2.1855    0.0000 C   0  0  0  0  0  0  0  0  0  0  0  0
   -3.4430   -0.7182    0.0000 O   0  0  0  0  0  0  0  0  0  0  0  0
   -2.6401   -3.1891    0.0000 C   0  0  0  0  0  0  0  0  0  0  0  0
   -1.2135   -2.7256    0.0000 N   0  0  0  0  0  0  0  0  0  0  0  0
   -0.0000   -3.6073    0.0000 C   0  0  0  0  0  0  0  0  0  0  0  0
   -0.0000   -5.1073    0.0000 O   0  0  0  0  0  0  0  0  0  0  0  0
    1.2135   -2.7256    0.0000 O   0  0  0  0  0  0  0  0  0  0  0  0
    0.7500   -1.2990    0.0000 C   0  0  0  0  0  0  0  0  0  0  0  0
    1.5000    0.0000    0.0000 C   0  0  0  0  0  0  0  0  0  0  0  0
    0.7500    1.2990    0.0000 C   0  0  0  0  0  0  0  0  0  0  0  0
   -0.7500    1.2990    0.0000 C   0  0  0  0  0  0  0  0  0  0  0  0
   -1.5000    0.0000    0.0000 C   0  0  0  0  0  0  0  0  0  0  0  0
   -0.7500   -1.2990    0.0000 C   0  0  0  0  0  0  0  0  0  0  0  0
  1  2  1  0
  2  3  2  0
  2  4  1  0
  4  5  1  0
  5  6  1  0
  6  7  2  0
  6  8  1  0
  8  9  1  0
  9 10  1  0
 10 11  2  0
 10 12  1  0
 12 13  1  0
 13 14  1  0
 14 15  2  0
 14 16  1  0
 16 17  1  0
 17 18  2  0
 18 19  1  0
 19 20  2  0
 20 21  1  0
 21 22  2  0
 22 13  1  0
 22 17  1  0
M  END
>  <Title>  (256) 
idAAHXgen6

$$$$

     RDKit          2D

  8  8  0  0  0  0  0  0  0  0999 V2000
    3.7500   -1.2990    0.0000 C   0  0  0  0  0  0  0  0  0  0  0  0
    3.0000    0.0000    0.0000 O   0  0  0  0  0  0  0  0  0  0  0  0
    1.5000    0.0000    0.0000 C   0  0  0  0  0  0  0  0  0  0  0  0
    0.7500   -1.2990    0.0000 C   0  0  0  0  0  0  0  0  0  0  0  0
   -0.7500   -1.2990    0.0000 C   0  0  0  0  0  0  0  0  0  0  0  0
   -1.5000    0.0000    0.0000 C   0  0  0  0  0  0  0  0  0  0  0  0
   -0.7500    1.2990    0.0000 C   0  0  0  0  0  0  0  0  0  0  0  0
    0.7500    1.2990    0.0000 C   0  0  0  0  0  0  0  0  0  0  0  0
  1  2  1  0
  2  3  1  0
  3  4  2  0
  4  5  1  0
  5  6  1  0
  6  7  1  0
  7  8  1  0
  8  3  1  0
M  END
>  <Title>  (257) 
idAAHYgen6

$$$$

     RDKit          2D

 24 25  0  0  0  0  0  0  0  0999 V2000
    0.7500   -6.4952    0.0000 C   0  0  0  0  0  0  0  0  0  0  0  0
    1.5000   -5.1962    0.0000 C   0  0  0  0  0  0  0  0  0  0  0  0
    3.0000   -5.1962    0.0000 O   0  0  0  0  0  0  0  0  0  0  0  0
    0.7500   -3.8971    0.0000 C   0  0  0  0  0  0  0  0  0  0  0  0
    1.5000   -2.5981    0.0000 C   0  0  0  0  0  0  0  0  0  0  0  0
    0.7500   -1.2990    0.0000 C   0  0  0  0  0  0  0  0  0  0  0  0
    1.5000    0.0000    0.0000 C   0  0  0  0  0  0  0  0  0  0  0  0
    0.7500    1.2990    0.0000 C   0  0  0  0  0  0  0  0  0  0  0  0
   -0.7500    1.2990    0.0000 C   0  0  0  0  0  0  0  0  0  0  0  0
   -1.5000    0.0000    0.0000 C   0  0  0  0  0  0  0  0  0  0  0  0
   -0.7500   -1.2990    0.0000 C   0  0  0  0  0  0  0  0  0  0  0  0
   -0.7500   -3.8971    0.0000 N   0  0  0  0  0  0  0  0  0  0  0  0
   -1.5000   -5.1962    0.0000 C   0  0  0  0  0  0  0  0  0  0  0  0
   -0.7500   -6.4952    0.0000 O   0  0  0  0  0  0  0  0  0  0  0  0
   -3.0000   -5.1962    0.0000 C   0  0  0  0  0  0  0  0  0  0  0  0
   -3.7500   -3.8971    0.0000 C   0  0  0  0  0  0  0  0  0  0  0  0
   -5.2500   -3.8971    0.0000 O   0  0  0  0  0  0  0  0  0  0  0  0
   -3.7500   -6.4952    0.0000 C   0  0  0  0  0  0  0  0  0  0  0  0
   -5.2500   -6.4952    0.0000 C   0  0  0  0  0  0  0  0  0  0  0  0
   -6.0000   -5.1962    0.0000 C   0  0  0  0  0  0  0  0  0  0  0  0
   -7.5000   -5.1962    0.0000 C   0  0  0  0  0  0  0  0  0  0  0  0
   -8.2500   -6.4952    0.0000 C   0  0  0  0  0  0  0  0  0  0  0  0
   -7.5000   -7.7942    0.0000 C   0  0  0  0  0  0  0  0  0  0  0  0
   -6.0000   -7.7942    0.0000 C   0  0  0  0  0  0  0  0  0  0  0  0
  1  2  1  0
  2  3  2  0
  2  4  1  0
  4  5  1  0
  5  6  1  0
  6  7  2  0
  7  8  1  0
  8  9  2  0
  9 10  1  0
 10 11  1  0
  4 12  1  0
 12 13  1  0
 13 14  2  0
 13 15  1  0
 15 16  1  0
 16 17  2  0
 15 18  1  0
 18 19  1  0
 19 20  2  0
 20 21  1  0
 21 22  2  0
 22 23  1  0
 23 24  2  0
 11  6  1  0
 24 19  1  0
M  END
>  <Title>  (258) 
idAAHZgen6

$$$$

     RDKit          2D

 43 44  0  0  0  0  0  0  0  0999 V2000
    9.3901    0.0000    0.0000 C   0  0  0  0  0  0  0  0  0  0  0  0
    7.8901    0.0000    0.0000 C   0  0  0  0  0  0  0  0  0  0  0  0
    7.7475    1.4932    0.0000 C   0  0  0  0  0  0  0  0  0  0  0  0
    7.3249    2.9324    0.0000 C   0  0  0  0  0  0  0  0  0  0  0  0
    6.6376    4.2657    0.0000 C   0  0  0  0  0  0  0  0  0  0  0  0
    5.7103    5.4448    0.0000 C   0  0  0  0  0  0  0  0  0  0  0  0
    4.5767    6.4271    0.0000 C   0  0  0  0  0  0  0  0  0  0  0  0
    3.2777    7.1771    0.0000 C   0  0  0  0  0  0  0  0  0  0  0  0
    1.8602    7.6677    0.0000 C   0  0  0  0  0  0  0  0  0  0  0  0
    0.3754    7.8811    0.0000 C   0  0  0  0  0  0  0  0  0  0  0  0
   -1.1229    7.8098    0.0000 C   0  0  0  0  0  0  0  0  0  0  0  0
   -2.5806    7.4561    0.0000 C   0  0  0  0  0  0  0  0  0  0  0  0
   -3.9450    6.8330    0.0000 C   0  0  0  0  0  0  0  0  0  0  0  0
   -5.1669    5.9629    0.0000 C   0  0  0  0  0  0  0  0  0  0  0  0
   -6.2020    4.8773    0.0000 C   0  0  0  0  0  0  0  0  0  0  0  0
   -7.0130    3.6154    0.0000 C   0  0  0  0  0  0  0  0  0  0  0  0
   -7.5705    2.2229    0.0000 C   0  0  0  0  0  0  0  0  0  0  0  0
   -7.8544    0.7500    0.0000 C   0  0  0  0  0  0  0  0  0  0  0  0
   -7.8544   -0.7500    0.0000 C   0  0  0  0  0  0  0  0  0  0  0  0
   -7.5705   -2.2229    0.0000 C   0  0  0  0  0  0  0  0  0  0  0  0
   -7.0130   -3.6154    0.0000 C   0  0  0  0  0  0  0  0  0  0  0  0
   -6.2020   -4.8773    0.0000 C   0  0  0  0  0  0  0  0  0  0  0  0
   -5.1669   -5.9629    0.0000 C   0  0  0  0  0  0  0  0  0  0  0  0
   -3.9450   -6.8330    0.0000 C   0  0  0  0  0  0  0  0  0  0  0  0
   -2.5806   -7.4561    0.0000 C   0  0  0  0  0  0  0  0  0  0  0  0
   -1.1229   -7.8098    0.0000 C   0  0  0  0  0  0  0  0  0  0  0  0
    0.3754   -7.8811    0.0000 C   0  0  0  0  0  0  0  0  0  0  0  0
    1.8602   -7.6677    0.0000 C   0  0  0  0  0  0  0  0  0  0  0  0
    3.2777   -7.1771    0.0000 C   0  0  0  0  0  0  0  0  0  0  0  0
    4.5767   -6.4271    0.0000 C   0  0  0  0  0  0  0  0  0  0  0  0
    5.7103   -5.4448    0.0000 C   0  0  0  0  0  0  0  0  0  0  0  0
    6.6376   -4.2657    0.0000 C   0  0  0  0  0  0  0  0  0  0  0  0
    7.3249   -2.9324    0.0000 C   0  0  0  0  0  0  0  0  0  0  0  0
    8.7175   -3.4899    0.0000 C   0  0  0  0  0  0  0  0  0  0  0  0
    9.8965   -2.5627    0.0000 O   0  0  0  0  0  0  0  0  0  0  0  0
    8.9309   -4.9747    0.0000 N   0  0  0  0  0  0  0  0  0  0  0  0
   10.3235   -5.5322    0.0000 C   0  0  0  0  0  0  0  0  0  0  0  0
   10.5369   -7.0169    0.0000 N   0  0  0  0  0  0  0  0  0  0  0  0
   11.9295   -7.5744    0.0000 N   0  0  0  0  0  0  0  0  0  0  0  0
   13.1086   -6.6472    0.0000 N   0  0  0  0  0  0  0  0  0  0  0  0
   12.8951   -5.1624    0.0000 N   0  0  0  0  0  0  0  0  0  0  0  0
   11.5026   -4.6049    0.0000 N   0  0  0  0  0  0  0  0  0  0  0  0
    7.7475   -1.4932    0.0000 C   0  0  0  0  0  0  0  0  0  0  0  0
  1  2  1  0
  2  3  1  0
  3  4  1  0
  4  5  1  0
  5  6  2  0
  6  7  1  0
  7  8  2  0
  8  9  1  0
  9 10  2  0
 10 11  1  0
 11 12  2  0
 12 13  1  0
 13 14  1  0
 14 15  1  0
 15 16  1  0
 16 17  1  0
 17 18  1  0
 18 19  1  0
 19 20  1  0
 20 21  1  0
 21 22  1  0
 22 23  1  0
 23 24  1  0
 24 25  1  0
 25 26  1  0
 26 27  1  0
 27 28  1  0
 28 29  1  0
 29 30  1  0
 30 31  2  0
 31 32  1  0
 32 33  2  0
 33 34  1  0
 34 35  2  0
 34 36  1  0
 36 37  1  0
 37 38  2  0
 38 39  1  0
 39 40  2  0
 40 41  1  0
 41 42  2  0
 33 43  1  0
 43  2  1  0
 42 37  1  0
M  END
>  <Title>  (259) 
idAAIAgen6

$$$$

     RDKit          2D

 38 41  0  0  0  0  0  0  0  0999 V2000
    4.3978    0.0000    0.0000 C   0  0  0  0  0  0  0  0  0  0  0  0
    2.8978    0.0000    0.0000 C   0  0  0  0  0  0  0  0  0  0  0  0
    2.5095   -1.4489    0.0000 C   0  0  0  0  0  0  0  0  0  0  0  0
    1.4489   -2.5095    0.0000 C   0  0  0  0  0  0  0  0  0  0  0  0
   -0.0000   -2.8978    0.0000 C   0  0  0  0  0  0  0  0  0  0  0  0
   -0.0000   -4.3978    0.0000 Cl  0  0  0  0  0  0  0  0  0  0  0  0
   -1.4489   -2.5095    0.0000 C   0  0  0  0  0  0  0  0  0  0  0  0
   -2.5095   -1.4489    0.0000 C   0  0  0  0  0  0  0  0  0  0  0  0
   -3.8086   -2.1989    0.0000 N   0  0  0  0  0  0  0  0  0  0  0  0
   -5.1076   -1.4489    0.0000 C   0  0  0  0  0  0  0  0  0  0  0  0
   -5.1076    0.0511    0.0000 O   0  0  0  0  0  0  0  0  0  0  0  0
   -6.4067   -2.1989    0.0000 C   0  0  0  0  0  0  0  0  0  0  0  0
   -7.7057   -1.4489    0.0000 C   0  0  0  0  0  0  0  0  0  0  0  0
   -9.0047   -2.1989    0.0000 C   0  0  0  0  0  0  0  0  0  0  0  0
   -9.0047   -3.6989    0.0000 C   0  0  0  0  0  0  0  0  0  0  0  0
   -7.7057   -4.4489    0.0000 C   0  0  0  0  0  0  0  0  0  0  0  0
   -6.4067   -3.6989    0.0000 C   0  0  0  0  0  0  0  0  0  0  0  0
   -5.1076   -4.4489    0.0000 C   0  0  0  0  0  0  0  0  0  0  0  0
   -3.7373   -3.8388    0.0000 C   0  0  0  0  0  0  0  0  0  0  0  0
   -2.7336   -4.9535    0.0000 C   0  0  0  0  0  0  0  0  0  0  0  0
   -3.4836   -6.2525    0.0000 C   0  0  0  0  0  0  0  0  0  0  0  0
   -2.8735   -7.6229    0.0000 C   0  0  0  0  0  0  0  0  0  0  0  0
   -1.3817   -7.7797    0.0000 O   0  0  0  0  0  0  0  0  0  0  0  0
   -3.7552   -8.8364    0.0000 O   0  0  0  0  0  0  0  0  0  0  0  0
   -3.1451  -10.2067    0.0000 C   0  0  0  0  0  0  0  0  0  0  0  0
   -4.0268  -11.4202    0.0000 C   0  0  0  0  0  0  0  0  0  0  0  0
   -3.4167  -12.7905    0.0000 C   0  0  0  0  0  0  0  0  0  0  0  0
   -1.9249  -12.9473    0.0000 C   0  0  0  0  0  0  0  0  0  0  0  0
   -1.3148  -14.3177    0.0000 O   0  0  0  0  0  0  0  0  0  0  0  0
   -1.0432  -11.7338    0.0000 C   0  0  0  0  0  0  0  0  0  0  0  0
   -1.6533  -10.3635    0.0000 C   0  0  0  0  0  0  0  0  0  0  0  0
   -4.9508   -5.9407    0.0000 C   0  0  0  0  0  0  0  0  0  0  0  0
   -2.8978    0.0000    0.0000 C   0  0  0  0  0  0  0  0  0  0  0  0
   -2.5095    1.4489    0.0000 C   0  0  0  0  0  0  0  0  0  0  0  0
   -1.4489    2.5095    0.0000 C   0  0  0  0  0  0  0  0  0  0  0  0
    0.0000    2.8978    0.0000 C   0  0  0  0  0  0  0  0  0  0  0  0
    1.4489    2.5095    0.0000 C   0  0  0  0  0  0  0  0  0  0  0  0
    2.5095    1.4489    0.0000 C   0  0  0  0  0  0  0  0  0  0  0  0
  1  2  1  0
  2  3  1  0
  3  4  2  0
  4  5  1  0
  5  6  1  0
  5  7  2  0
  7  8  1  0
  8  9  1  0
  9 10  1  0
 10 11  2  0
 10 12  1  0
 12 13  2  0
 13 14  1  0
 14 15  2  0
 15 16  1  0
 16 17  2  0
 17 18  1  0
 18 19  2  0
 19 20  1  0
 20 21  2  0
 21 22  1  0
 22 23  2  0
 22 24  1  0
 24 25  1  0
 25 26  2  0
 26 27  1  0
 27 28  2  0
 28 29  1  0
 28 30  1  0
 30 31  1  0
 21 32  1  0
  8 33  1  0
 33 34  1  0
 34 35  1  0
 35 36  1  0
 36 37  1  0
 37 38  1  0
 38  2  1  0
 17 12  1  0
 32 18  1  0
 31 25  1  0
M  END
>  <Title>  (260) 
idAAIBgen6

$$$$

     RDKit          2D

 20 21  0  0  0  0  0  0  0  0999 V2000
    5.2500   -1.2990    0.0000 C   0  0  0  0  0  0  0  0  0  0  0  0
    3.7500   -1.2990    0.0000 C   0  0  0  0  0  0  0  0  0  0  0  0
    3.0000   -2.5981    0.0000 O   0  0  0  0  0  0  0  0  0  0  0  0
    3.0000    0.0000    0.0000 C   0  0  0  0  0  0  0  0  0  0  0  0
    3.7500    1.2990    0.0000 O   0  0  0  0  0  0  0  0  0  0  0  0
    1.5000    0.0000    0.0000 N   0  0  0  0  0  0  0  0  0  0  0  0
    0.7500   -1.2990    0.0000 C   0  0  0  0  0  0  0  0  0  0  0  0
   -0.7500   -1.2990    0.0000 C   0  0  0  0  0  0  0  0  0  0  0  0
   -1.5000    0.0000    0.0000 C   0  0  0  0  0  0  0  0  0  0  0  0
   -3.0000    0.0000    0.0000 C   0  0  0  0  0  0  0  0  0  0  0  0
   -3.7500   -1.2990    0.0000 O   0  0  0  0  0  0  0  0  0  0  0  0
   -3.7500    1.2990    0.0000 O   0  0  0  0  0  0  0  0  0  0  0  0
   -5.2500    1.2990    0.0000 C   0  0  0  0  0  0  0  0  0  0  0  0
   -6.0000    2.5981    0.0000 C   0  0  0  0  0  0  0  0  0  0  0  0
   -7.5000    2.5981    0.0000 C   0  0  0  0  0  0  0  0  0  0  0  0
   -8.2500    1.2990    0.0000 C   0  0  0  0  0  0  0  0  0  0  0  0
   -7.5000    0.0000    0.0000 C   0  0  0  0  0  0  0  0  0  0  0  0
   -6.0000    0.0000    0.0000 C   0  0  0  0  0  0  0  0  0  0  0  0
   -0.7500    1.2990    0.0000 C   0  0  0  0  0  0  0  0  0  0  0  0
    0.7500    1.2990    0.0000 C   0  0  0  0  0  0  0  0  0  0  0  0
  1  2  1  0
  2  3  2  0
  2  4  1  0
  4  5  2  0
  4  6  1  0
  6  7  1  0
  7  8  1  0
  8  9  1  0
  9 10  1  0
 10 11  2  0
 10 12  1  0
 12 13  1  0
 13 14  2  0
 14 15  1  0
 15 16  2  0
 16 17  1  0
 17 18  2  0
  9 19  1  0
 19 20  1  0
 20  6  1  0
 18 13  1  0
M  END
>  <Title>  (261) 
idAAICgen6

$$$$

     RDKit          2D

 24 27  0  0  0  0  0  0  0  0999 V2000
   -3.7500   -3.8971    0.0000 C   0  0  0  0  0  0  0  0  0  0  0  0
   -3.0000   -2.5981    0.0000 O   0  0  0  0  0  0  0  0  0  0  0  0
   -1.5000   -2.5981    0.0000 C   0  0  0  0  0  0  0  0  0  0  0  0
   -0.7500   -3.8971    0.0000 C   0  0  0  0  0  0  0  0  0  0  0  0
    0.7500   -3.8971    0.0000 C   0  0  0  0  0  0  0  0  0  0  0  0
    1.5000   -2.5981    0.0000 C   0  0  0  0  0  0  0  0  0  0  0  0
    3.0000   -2.5981    0.0000 C   0  0  0  0  0  0  0  0  0  0  0  0
    4.0607   -3.6587    0.0000 C   0  0  0  0  0  0  0  0  0  0  0  0
    5.1213   -2.5981    0.0000 C   0  0  0  0  0  0  0  0  0  0  0  0
    4.0607   -1.5374    0.0000 C   0  0  0  0  0  0  0  0  0  0  0  0
    4.0607   -0.0374    0.0000 C   0  0  0  0  0  0  0  0  0  0  0  0
    2.8471    0.8443    0.0000 C   0  0  0  0  0  0  0  0  0  0  0  0
    3.3107    2.2708    0.0000 C   0  0  0  0  0  0  0  0  0  0  0  0
    4.8107    2.2708    0.0000 C   0  0  0  0  0  0  0  0  0  0  0  0
    5.2742    0.8443    0.0000 C   0  0  0  0  0  0  0  0  0  0  0  0
    0.7500   -1.2990    0.0000 C   0  0  0  0  0  0  0  0  0  0  0  0
    1.5000    0.0000    0.0000 C   0  0  0  0  0  0  0  0  0  0  0  0
    0.7500    1.2990    0.0000 C   0  0  0  0  0  0  0  0  0  0  0  0
   -0.7500    1.2990    0.0000 C   0  0  0  0  0  0  0  0  0  0  0  0
   -1.5000    2.5981    0.0000 C   0  0  0  0  0  0  0  0  0  0  0  0
   -3.0000    2.5981    0.0000 O   0  0  0  0  0  0  0  0  0  0  0  0
   -0.7500    3.8971    0.0000 O   0  0  0  0  0  0  0  0  0  0  0  0
   -1.5000    0.0000    0.0000 C   0  0  0  0  0  0  0  0  0  0  0  0
   -0.7500   -1.2990    0.0000 C   0  0  0  0  0  0  0  0  0  0  0  0
  1  2  1  0
  2  3  1  0
  3  4  2  0
  4  5  1  0
  5  6  2  0
  6  7  1  0
  7  8  1  0
  8  9  1  0
  9 10  1  0
 10 11  1  0
 11 12  1  0
 12 13  2  0
 13 14  1  0
 14 15  2  0
  6 16  1  0
 16 17  2  0
 17 18  1  0
 18 19  2  0
 19 20  1  0
 20 21  2  0
 20 22  1  0
 19 23  1  0
 23 24  2  0
 24  3  1  0
 10  7  1  0
 15 11  1  0
 24 16  1  0
M  END
>  <Title>  (262) 
idAAIDgen6

$$$$

     RDKit          2D

 22 24  0  0  0  0  0  0  0  0999 V2000
   -0.7500   -3.8971    0.0000 O   0  0  0  0  0  0  0  0  0  0  0  0
    0.7500   -3.8971    0.0000 C   0  0  0  0  0  0  0  0  0  0  0  0
    1.5000   -2.5981    0.0000 N   0  0  0  0  0  0  0  0  0  0  0  0
    0.7500   -1.2990    0.0000 C   0  0  0  0  0  0  0  0  0  0  0  0
    1.5000    0.0000    0.0000 C   0  0  0  0  0  0  0  0  0  0  0  0
    0.7500    1.2990    0.0000 C   0  0  0  0  0  0  0  0  0  0  0  0
   -0.7500    1.2990    0.0000 C   0  0  0  0  0  0  0  0  0  0  0  0
   -1.5000    0.0000    0.0000 C   0  0  0  0  0  0  0  0  0  0  0  0
   -0.7500   -1.2990    0.0000 C   0  0  0  0  0  0  0  0  0  0  0  0
    1.5000   -5.1962    0.0000 N   0  0  0  0  0  0  0  0  0  0  0  0
    0.7500   -6.4952    0.0000 C   0  0  0  0  0  0  0  0  0  0  0  0
    1.5000   -7.7942    0.0000 C   0  0  0  0  0  0  0  0  0  0  0  0
    3.0000   -7.7942    0.0000 C   0  0  0  0  0  0  0  0  0  0  0  0
    3.7500   -9.0933    0.0000 C   0  0  0  0  0  0  0  0  0  0  0  0
    3.0000  -10.3923    0.0000 C   0  0  0  0  0  0  0  0  0  0  0  0
    3.7500  -11.6913    0.0000 C   0  0  0  0  0  0  0  0  0  0  0  0
    5.2500  -11.6913    0.0000 C   0  0  0  0  0  0  0  0  0  0  0  0
    6.0000  -12.9904    0.0000 O   0  0  0  0  0  0  0  0  0  0  0  0
    6.0000  -10.3923    0.0000 C   0  0  0  0  0  0  0  0  0  0  0  0
    5.2500   -9.0933    0.0000 C   0  0  0  0  0  0  0  0  0  0  0  0
    3.7500   -6.4952    0.0000 C   0  0  0  0  0  0  0  0  0  0  0  0
    3.0000   -5.1962    0.0000 C   0  0  0  0  0  0  0  0  0  0  0  0
  1  2  2  0
  2  3  1  0
  3  4  1  0
  4  5  2  0
  5  6  1  0
  6  7  2  0
  7  8  1  0
  8  9  2  0
  2 10  1  0
 10 11  1  0
 11 12  1  0
 12 13  1  0
 13 14  1  0
 14 15  1  0
 15 16  2  0
 16 17  1  0
 17 18  1  0
 17 19  1  0
 19 20  1  0
 13 21  1  0
 21 22  1  0
  9  4  1  0
 22 10  1  0
 20 14  1  0
M  END
>  <Title>  (263) 
idAAIEgen6

$$$$

     RDKit          2D

 52 58  0  0  0  0  0  0  0  0999 V2000
   -6.2168   -7.0190    0.0000 C   0  0  0  0  0  0  0  0  0  0  0  0
   -4.7353   -6.7844    0.0000 C   0  0  0  0  0  0  0  0  0  0  0  0
   -4.2718   -8.2109    0.0000 C   0  0  0  0  0  0  0  0  0  0  0  0
   -3.3901   -9.4245    0.0000 C   0  0  0  0  0  0  0  0  0  0  0  0
   -2.1766  -10.3061    0.0000 C   0  0  0  0  0  0  0  0  0  0  0  0
   -0.7500  -10.7697    0.0000 C   0  0  0  0  0  0  0  0  0  0  0  0
    0.7500  -10.7697    0.0000 C   0  0  0  0  0  0  0  0  0  0  0  0
    2.1766  -10.3061    0.0000 C   0  0  0  0  0  0  0  0  0  0  0  0
    2.8576  -11.6426    0.0000 O   0  0  0  0  0  0  0  0  0  0  0  0
    3.3901   -9.4245    0.0000 C   0  0  0  0  0  0  0  0  0  0  0  0
    4.2718   -8.2109    0.0000 C   0  0  0  0  0  0  0  0  0  0  0  0
    4.7353   -6.7844    0.0000 C   0  0  0  0  0  0  0  0  0  0  0  0
    4.7353   -5.2844    0.0000 C   0  0  0  0  0  0  0  0  0  0  0  0
    6.2353   -5.2844    0.0000 C   0  0  0  0  0  0  0  0  0  0  0  0
    6.6988   -3.8578    0.0000 C   0  0  0  0  0  0  0  0  0  0  0  0
    5.4853   -2.9761    0.0000 N   0  0  0  0  0  0  0  0  0  0  0  0
    5.4853   -1.4761    0.0000 C   0  0  0  0  0  0  0  0  0  0  0  0
    4.9119   -0.9223    0.0000 O   0  0  0  0  0  0  0  0  0  0  0  0
    6.7844   -0.7261    0.0000 N   0  0  0  0  0  0  0  0  0  0  0  0
    6.7844    0.7739    0.0000 C   0  0  0  0  0  0  0  0  0  0  0  0
    8.0834    1.5239    0.0000 C   0  0  0  0  0  0  0  0  0  0  0  0
    8.0834    3.0239    0.0000 C   0  0  0  0  0  0  0  0  0  0  0  0
    6.7844    3.7739    0.0000 C   0  0  0  0  0  0  0  0  0  0  0  0
    5.4853    3.0239    0.0000 C   0  0  0  0  0  0  0  0  0  0  0  0
    5.4853    1.5239    0.0000 C   0  0  0  0  0  0  0  0  0  0  0  0
    4.2718   -3.8578    0.0000 C   0  0  0  0  0  0  0  0  0  0  0  0
    3.3901   -2.6442    0.0000 C   0  0  0  0  0  0  0  0  0  0  0  0
    4.7604   -2.0341    0.0000 C   0  0  0  0  0  0  0  0  0  0  0  0
    4.9172   -0.5424    0.0000 C   0  0  0  0  0  0  0  0  0  0  0  0
    3.7037    0.3393    0.0000 C   0  0  0  0  0  0  0  0  0  0  0  0
    3.8605    1.8311    0.0000 C   0  0  0  0  0  0  0  0  0  0  0  0
    4.0173    3.3229    0.0000 N   0  0  0  0  0  0  0  0  0  0  0  0
    2.3334   -0.2708    0.0000 C   0  0  0  0  0  0  0  0  0  0  0  0
    2.1766   -1.7626    0.0000 C   0  0  0  0  0  0  0  0  0  0  0  0
    0.7500   -1.2990    0.0000 C   0  0  0  0  0  0  0  0  0  0  0  0
    1.5000    0.0000    0.0000 C   0  0  0  0  0  0  0  0  0  0  0  0
    0.7500    1.2990    0.0000 C   0  0  0  0  0  0  0  0  0  0  0  0
   -0.7500    1.2990    0.0000 C   0  0  0  0  0  0  0  0  0  0  0  0
   -1.5000    0.0000    0.0000 C   0  0  0  0  0  0  0  0  0  0  0  0
   -0.7500   -1.2990    0.0000 C   0  0  0  0  0  0  0  0  0  0  0  0
   -2.1766   -1.7626    0.0000 C   0  0  0  0  0  0  0  0  0  0  0  0
   -2.3334   -0.2708    0.0000 C   0  0  0  0  0  0  0  0  0  0  0  0
   -3.7037    0.3393    0.0000 C   0  0  0  0  0  0  0  0  0  0  0  0
   -4.9172   -0.5424    0.0000 C   0  0  0  0  0  0  0  0  0  0  0  0
   -4.7604   -2.0341    0.0000 C   0  0  0  0  0  0  0  0  0  0  0  0
   -3.3901   -2.6442    0.0000 C   0  0  0  0  0  0  0  0  0  0  0  0
   -4.2718   -3.8578    0.0000 C   0  0  0  0  0  0  0  0  0  0  0  0
   -5.2755   -2.7430    0.0000 C   0  0  0  0  0  0  0  0  0  0  0  0
   -6.7427   -3.0549    0.0000 C   0  0  0  0  0  0  0  0  0  0  0  0
   -7.2062   -4.4815    0.0000 C   0  0  0  0  0  0  0  0  0  0  0  0
   -6.2025   -5.5962    0.0000 C   0  0  0  0  0  0  0  0  0  0  0  0
   -4.7353   -5.2844    0.0000 C   0  0  0  0  0  0  0  0  0  0  0  0
  1  2  1  0
  2  3  1  0
  3  4  2  0
  4  5  1  0
  5  6  1  0
  6  7  1  0
  7  8  1  0
  8  9  1  0
  8 10  1  0
 10 11  1  0
 11 12  1  0
 12 13  1  0
 13 14  1  0
 14 15  1  0
 15 16  1  0
 16 17  1  0
 17 18  2  0
 17 19  1  0
 19 20  1  0
 20 21  2  0
 21 22  1  0
 22 23  2  0
 23 24  1  0
 24 25  2  0
 16 26  1  0
 26 27  1  0
 27 28  2  0
 28 29  1  0
 29 30  2  0
 30 31  1  0
 31 32  3  0
 30 33  1  0
 33 34  2  0
 34 35  1  0
 35 36  2  0
 36 37  1  0
 37 38  2  0
 38 39  1  0
 39 40  2  0
 40 41  1  0
 41 42  2  0
 42 43  1  0
 43 44  2  0
 44 45  1  0
 45 46  2  0
 46 47  1  0
 47 48  2  0
 48 49  1  0
 49 50  2  0
 50 51  1  0
 51 52  2  0
 52  2  1  0
 26 13  1  0
 34 27  1  0
 40 35  1  0
 46 41  1  0
 52 47  1  0
 25 20  1  0
M  END
>  <Title>  (264) 
idAAIFgen6

$$$$

     RDKit          2D

 21 23  0  0  0  0  0  0  0  0999 V2000
   -0.7500   -3.8971    0.0000 O   0  0  0  0  0  0  0  0  0  0  0  0
    0.7500   -3.8971    0.0000 C   0  0  0  0  0  0  0  0  0  0  0  0
    1.5000   -2.5981    0.0000 N   0  0  0  0  0  0  0  0  0  0  0  0
    0.7500   -1.2990    0.0000 C   0  0  0  0  0  0  0  0  0  0  0  0
    1.5000    0.0000    0.0000 N   0  0  0  0  0  0  0  0  0  0  0  0
    0.7500    1.2990    0.0000 N   0  0  0  0  0  0  0  0  0  0  0  0
   -0.7500    1.2990    0.0000 N   0  0  0  0  0  0  0  0  0  0  0  0
   -1.5000    0.0000    0.0000 N   0  0  0  0  0  0  0  0  0  0  0  0
   -0.7500   -1.2990    0.0000 N   0  0  0  0  0  0  0  0  0  0  0  0
    1.5000   -5.1962    0.0000 N   0  0  0  0  0  0  0  0  0  0  0  0
    0.7500   -6.4952    0.0000 C   0  0  0  0  0  0  0  0  0  0  0  0
    1.5000   -7.7942    0.0000 C   0  0  0  0  0  0  0  0  0  0  0  0
    3.0000   -7.7942    0.0000 N   0  0  0  0  0  0  0  0  0  0  0  0
    3.7500   -9.0933    0.0000 C   0  0  0  0  0  0  0  0  0  0  0  0
    5.2500   -9.0933    0.0000 O   0  0  0  0  0  0  0  0  0  0  0  0
    3.0000  -10.3923    0.0000 C   0  0  0  0  0  0  0  0  0  0  0  0
    1.5511  -10.7805    0.0000 C   0  0  0  0  0  0  0  0  0  0  0  0
    1.9393  -12.2294    0.0000 C   0  0  0  0  0  0  0  0  0  0  0  0
    3.3882  -11.8412    0.0000 C   0  0  0  0  0  0  0  0  0  0  0  0
    3.7500   -6.4952    0.0000 C   0  0  0  0  0  0  0  0  0  0  0  0
    3.0000   -5.1962    0.0000 C   0  0  0  0  0  0  0  0  0  0  0  0
  1  2  2  0
  2  3  1  0
  3  4  1  0
  4  5  2  0
  5  6  1  0
  6  7  2  0
  7  8  1  0
  8  9  2  0
  2 10  1  0
 10 11  1  0
 11 12  1  0
 12 13  1  0
 13 14  1  0
 14 15  2  0
 14 16  1  0
 16 17  1  0
 17 18  1  0
 18 19  1  0
 13 20  1  0
 20 21  1  0
  9  4  1  0
 21 10  1  0
 19 16  1  0
M  END
>  <Title>  (265) 
idAAIGgen6

$$$$

     RDKit          2D

 25 27  0  0  0  0  0  0  0  0999 V2000
   -6.0000   -5.1962    0.0000 C   0  0  0  0  0  0  0  0  0  0  0  0
   -5.2500   -3.8971    0.0000 C   0  0  0  0  0  0  0  0  0  0  0  0
   -6.0000   -2.5981    0.0000 O   0  0  0  0  0  0  0  0  0  0  0  0
   -3.7500   -3.8971    0.0000 O   0  0  0  0  0  0  0  0  0  0  0  0
   -3.0000   -2.5981    0.0000 C   0  0  0  0  0  0  0  0  0  0  0  0
   -3.7500   -1.2990    0.0000 O   0  0  0  0  0  0  0  0  0  0  0  0
   -1.5000   -2.5981    0.0000 C   0  0  0  0  0  0  0  0  0  0  0  0
   -0.7500   -3.8971    0.0000 C   0  0  0  0  0  0  0  0  0  0  0  0
    0.7500   -3.8971    0.0000 C   0  0  0  0  0  0  0  0  0  0  0  0
    1.5000   -2.5981    0.0000 C   0  0  0  0  0  0  0  0  0  0  0  0
    3.0000   -2.5981    0.0000 C   0  0  0  0  0  0  0  0  0  0  0  0
    3.7500   -1.2990    0.0000 O   0  0  0  0  0  0  0  0  0  0  0  0
    3.7500   -3.8971    0.0000 N   0  0  0  0  0  0  0  0  0  0  0  0
    5.2500   -3.8971    0.0000 C   0  0  0  0  0  0  0  0  0  0  0  0
    6.0000   -5.1962    0.0000 N   0  0  0  0  0  0  0  0  0  0  0  0
    7.5000   -5.1962    0.0000 N   0  0  0  0  0  0  0  0  0  0  0  0
    8.2500   -3.8971    0.0000 N   0  0  0  0  0  0  0  0  0  0  0  0
    7.5000   -2.5981    0.0000 N   0  0  0  0  0  0  0  0  0  0  0  0
    6.0000   -2.5981    0.0000 N   0  0  0  0  0  0  0  0  0  0  0  0
    0.7500   -1.2990    0.0000 C   0  0  0  0  0  0  0  0  0  0  0  0
    1.5000    0.0000    0.0000 C   0  0  0  0  0  0  0  0  0  0  0  0
    0.7500    1.2990    0.0000 C   0  0  0  0  0  0  0  0  0  0  0  0
   -0.7500    1.2990    0.0000 C   0  0  0  0  0  0  0  0  0  0  0  0
   -1.5000    0.0000    0.0000 C   0  0  0  0  0  0  0  0  0  0  0  0
   -0.7500   -1.2990    0.0000 C   0  0  0  0  0  0  0  0  0  0  0  0
  1  2  1  0
  2  3  2  0
  2  4  1  0
  4  5  1  0
  5  6  2  0
  5  7  1  0
  7  8  1  0
  8  9  1  0
  9 10  1  0
 10 11  1  0
 11 12  2  0
 11 13  1  0
 13 14  1  0
 14 15  2  0
 15 16  1  0
 16 17  2  0
 17 18  1  0
 18 19  2  0
 10 20  1  0
 20 21  2  0
 21 22  1  0
 22 23  2  0
 23 24  1  0
 24 25  2  0
 25  7  1  0
 19 14  1  0
 25 20  1  0
M  END
>  <Title>  (266) 
idAAIHgen6

$$$$

     RDKit          2D

 19 21  0  0  0  0  0  0  0  0999 V2000
    3.6929    0.0000    0.0000 O   0  0  0  0  0  0  0  0  0  0  0  0
    2.1929    0.0000    0.0000 C   0  0  0  0  0  0  0  0  0  0  0  0
    1.6798    1.4095    0.0000 C   0  0  0  0  0  0  0  0  0  0  0  0
    0.3808    2.1595    0.0000 C   0  0  0  0  0  0  0  0  0  0  0  0
   -1.0964    1.8991    0.0000 C   0  0  0  0  0  0  0  0  0  0  0  0
   -2.0606    0.7500    0.0000 C   0  0  0  0  0  0  0  0  0  0  0  0
   -2.0606   -0.7500    0.0000 C   0  0  0  0  0  0  0  0  0  0  0  0
   -1.0964   -1.8991    0.0000 C   0  0  0  0  0  0  0  0  0  0  0  0
    0.3808   -2.1595    0.0000 C   0  0  0  0  0  0  0  0  0  0  0  0
    0.6927   -3.6268    0.0000 C   0  0  0  0  0  0  0  0  0  0  0  0
    2.1844   -3.7836    0.0000 C   0  0  0  0  0  0  0  0  0  0  0  0
    2.7945   -2.4132    0.0000 N   0  0  0  0  0  0  0  0  0  0  0  0
    4.2618   -2.1014    0.0000 C   0  0  0  0  0  0  0  0  0  0  0  0
    5.2655   -3.2161    0.0000 C   0  0  0  0  0  0  0  0  0  0  0  0
    6.7327   -2.9042    0.0000 C   0  0  0  0  0  0  0  0  0  0  0  0
    7.1962   -1.4776    0.0000 C   0  0  0  0  0  0  0  0  0  0  0  0
    6.1925   -0.3629    0.0000 C   0  0  0  0  0  0  0  0  0  0  0  0
    4.7253   -0.6748    0.0000 C   0  0  0  0  0  0  0  0  0  0  0  0
    1.6798   -1.4095    0.0000 C   0  0  0  0  0  0  0  0  0  0  0  0
  1  2  1  0
  2  3  1  0
  3  4  1  0
  4  5  1  0
  5  6  1  0
  6  7  1  0
  7  8  1  0
  8  9  1  0
  9 10  1  0
 10 11  1  0
 11 12  1  0
 12 13  1  0
 13 14  2  0
 14 15  1  0
 15 16  2  0
 16 17  1  0
 17 18  2  0
 12 19  1  0
 19  2  1  0
 19  9  1  0
 18 13  1  0
M  END
>  <Title>  (267) 
idAAIIgen6

$$$$

     RDKit          2D

 16 17  0  0  0  0  0  0  0  0999 V2000
    4.3305    8.4738    0.0000 C   0  0  0  0  0  0  0  0  0  0  0  0
    2.9039    8.9374    0.0000 C   0  0  0  0  0  0  0  0  0  0  0  0
    1.4773    9.4009    0.0000 C   0  0  0  0  0  0  0  0  0  0  0  0
    3.3674   10.3639    0.0000 C   0  0  0  0  0  0  0  0  0  0  0  0
    2.4404    7.5108    0.0000 C   0  0  0  0  0  0  0  0  0  0  0  0
    1.9769    6.0842    0.0000 C   0  0  0  0  0  0  0  0  0  0  0  0
    1.5133    4.6576    0.0000 C   0  0  0  0  0  0  0  0  0  0  0  0
    2.1943    3.3211    0.0000 C   0  0  0  0  0  0  0  0  0  0  0  0
    0.8578    2.6401    0.0000 C   0  0  0  0  0  0  0  0  0  0  0  0
    0.3943    1.2135    0.0000 N   0  0  0  0  0  0  0  0  0  0  0  0
    1.2760    0.0000    0.0000 C   0  0  0  0  0  0  0  0  0  0  0  0
    0.3943   -1.2135    0.0000 C   0  0  0  0  0  0  0  0  0  0  0  0
   -1.0323   -0.7500    0.0000 C   0  0  0  0  0  0  0  0  0  0  0  0
   -1.0323    0.7500    0.0000 C   0  0  0  0  0  0  0  0  0  0  0  0
   -2.2458    1.6317    0.0000 O   0  0  0  0  0  0  0  0  0  0  0  0
    0.1768    3.9766    0.0000 N   0  0  0  0  0  0  0  0  0  0  0  0
  1  2  1  0
  2  3  1  0
  2  4  1  0
  2  5  1  0
  5  6  3  0
  6  7  1  0
  7  8  2  0
  8  9  1  0
  9 10  1  0
 10 11  1  0
 11 12  1  0
 12 13  1  0
 13 14  1  0
 14 15  2  0
  9 16  1  0
 16  7  1  0
 14 10  1  0
M  END
>  <Title>  (268) 
idAAIJgen6

$$$$

     RDKit          2D

  9  8  0  0  0  0  0  0  0  0999 V2000
    0.0000    0.0000    0.0000 C   0  0  0  0  0  0  0  0  0  0  0  0
    1.2990    0.7500    0.0000 C   0  0  0  0  0  0  0  0  0  0  0  0
    2.5981   -0.0000    0.0000 C   0  0  0  0  0  0  0  0  0  0  0  0
    3.8971    0.7500    0.0000 C   0  0  0  0  0  0  0  0  0  0  0  0
    5.1962    1.5000    0.0000 C   0  0  0  0  0  0  0  0  0  0  0  0
    6.4952    2.2500    0.0000 C   0  0  0  0  0  0  0  0  0  0  0  0
    7.2452    0.9510    0.0000 C   0  0  0  0  0  0  0  0  0  0  0  0
    5.7452    3.5490    0.0000 C   0  0  0  0  0  0  0  0  0  0  0  0
    7.7942    3.0000    0.0000 C   0  0  0  0  0  0  0  0  0  0  0  0
  1  2  1  0
  2  3  1  0
  3  4  1  0
  4  5  3  0
  5  6  1  0
  6  7  1  0
  6  8  1  0
  6  9  1  0
M  END
>  <Title>  (269) 
idAAIKgen6

$$$$

     RDKit          2D

 29 31  0  0  0  0  0  0  0  0999 V2000
   -7.5900    4.7638    0.0000 C   0  0  0  0  0  0  0  0  0  0  0  0
   -7.9018    3.2966    0.0000 C   0  0  0  0  0  0  0  0  0  0  0  0
   -9.3284    2.8330    0.0000 O   0  0  0  0  0  0  0  0  0  0  0  0
   -6.7871    2.2929    0.0000 C   0  0  0  0  0  0  0  0  0  0  0  0
   -7.0990    0.8256    0.0000 C   0  0  0  0  0  0  0  0  0  0  0  0
   -5.9843   -0.1781    0.0000 C   0  0  0  0  0  0  0  0  0  0  0  0
   -4.5577    0.2855    0.0000 O   0  0  0  0  0  0  0  0  0  0  0  0
   -6.2961   -1.6453    0.0000 C   0  0  0  0  0  0  0  0  0  0  0  0
   -7.7227   -2.1088    0.0000 C   0  0  0  0  0  0  0  0  0  0  0  0
   -8.8374   -1.1051    0.0000 C   0  0  0  0  0  0  0  0  0  0  0  0
   -8.5256    0.3621    0.0000 C   0  0  0  0  0  0  0  0  0  0  0  0
   -9.6403    1.3658    0.0000 C   0  0  0  0  0  0  0  0  0  0  0  0
  -11.0669    0.9023    0.0000 C   0  0  0  0  0  0  0  0  0  0  0  0
  -11.3787   -0.5649    0.0000 C   0  0  0  0  0  0  0  0  0  0  0  0
  -10.2640   -1.5686    0.0000 C   0  0  0  0  0  0  0  0  0  0  0  0
   -5.1814   -2.6490    0.0000 N   0  0  0  0  0  0  0  0  0  0  0  0
   -3.7548   -2.1855    0.0000 C   0  0  0  0  0  0  0  0  0  0  0  0
   -3.4430   -0.7182    0.0000 O   0  0  0  0  0  0  0  0  0  0  0  0
   -2.6401   -3.1891    0.0000 C   0  0  0  0  0  0  0  0  0  0  0  0
   -1.2135   -2.7256    0.0000 N   0  0  0  0  0  0  0  0  0  0  0  0
   -0.0000   -3.6073    0.0000 C   0  0  0  0  0  0  0  0  0  0  0  0
    0.0000   -5.1073    0.0000 O   0  0  0  0  0  0  0  0  0  0  0  0
    1.2135   -2.7256    0.0000 O   0  0  0  0  0  0  0  0  0  0  0  0
    0.7500   -1.2990    0.0000 C   0  0  0  0  0  0  0  0  0  0  0  0
    1.5000    0.0000    0.0000 C   0  0  0  0  0  0  0  0  0  0  0  0
    0.7500    1.2990    0.0000 C   0  0  0  0  0  0  0  0  0  0  0  0
   -0.7500    1.2990    0.0000 C   0  0  0  0  0  0  0  0  0  0  0  0
   -1.5000    0.0000    0.0000 C   0  0  0  0  0  0  0  0  0  0  0  0
   -0.7500   -1.2990    0.0000 C   0  0  0  0  0  0  0  0  0  0  0  0
  1  2  1  0
  2  3  2  0
  2  4  1  0
  4  5  1  0
  5  6  1  0
  6  7  2  0
  6  8  1  0
  8  9  1  0
  9 10  1  0
 10 11  2  0
 11 12  1  0
 12 13  2  0
 13 14  1  0
 14 15  2  0
  8 16  1  0
 16 17  1  0
 17 18  2  0
 17 19  1  0
 19 20  1  0
 20 21  1  0
 21 22  2  0
 21 23  1  0
 23 24  1  0
 24 25  2  0
 25 26  1  0
 26 27  2  0
 27 28  1  0
 28 29  2  0
 15 10  1  0
 29 20  1  0
 29 24  1  0
M  END
>  <Title>  (270) 
idAAILgen6

$$$$

     RDKit          2D

 25 27  0  0  0  0  0  0  0  0999 V2000
    1.5000   -7.7942    0.0000 C   0  0  0  0  0  0  0  0  0  0  0  0
    0.7500   -6.4952    0.0000 C   0  0  0  0  0  0  0  0  0  0  0  0
   -0.7500   -6.4952    0.0000 O   0  0  0  0  0  0  0  0  0  0  0  0
    1.5000   -5.1962    0.0000 C   0  0  0  0  0  0  0  0  0  0  0  0
    0.7500   -3.8971    0.0000 C   0  0  0  0  0  0  0  0  0  0  0  0
   -0.7500   -3.8971    0.0000 O   0  0  0  0  0  0  0  0  0  0  0  0
    1.5000   -2.5981    0.0000 N   0  0  0  0  0  0  0  0  0  0  0  0
    0.7500   -1.2990    0.0000 C   0  0  0  0  0  0  0  0  0  0  0  0
    1.5000    0.0000    0.0000 C   0  0  0  0  0  0  0  0  0  0  0  0
    0.7500    1.2990    0.0000 C   0  0  0  0  0  0  0  0  0  0  0  0
   -0.7500    1.2990    0.0000 C   0  0  0  0  0  0  0  0  0  0  0  0
   -1.5000    0.0000    0.0000 C   0  0  0  0  0  0  0  0  0  0  0  0
   -0.7500   -1.2990    0.0000 C   0  0  0  0  0  0  0  0  0  0  0  0
    3.0000   -5.1962    0.0000 N   0  0  0  0  0  0  0  0  0  0  0  0
    3.7500   -6.4952    0.0000 C   0  0  0  0  0  0  0  0  0  0  0  0
    5.2500   -6.4952    0.0000 C   0  0  0  0  0  0  0  0  0  0  0  0
    6.0000   -5.1962    0.0000 C   0  0  0  0  0  0  0  0  0  0  0  0
    7.5000   -5.1962    0.0000 C   0  0  0  0  0  0  0  0  0  0  0  0
    8.2500   -6.4952    0.0000 C   0  0  0  0  0  0  0  0  0  0  0  0
    9.7500   -6.4952    0.0000 C   0  0  0  0  0  0  0  0  0  0  0  0
   10.5000   -5.1962    0.0000 C   0  0  0  0  0  0  0  0  0  0  0  0
    9.7500   -3.8971    0.0000 C   0  0  0  0  0  0  0  0  0  0  0  0
    8.2500   -3.8971    0.0000 C   0  0  0  0  0  0  0  0  0  0  0  0
    5.2500   -3.8971    0.0000 C   0  0  0  0  0  0  0  0  0  0  0  0
    3.7500   -3.8971    0.0000 C   0  0  0  0  0  0  0  0  0  0  0  0
  1  2  1  0
  2  3  2  0
  2  4  1  0
  4  5  1  0
  5  6  2  0
  5  7  1  0
  7  8  1  0
  8  9  2  0
  9 10  1  0
 10 11  2  0
 11 12  1  0
 12 13  2  0
  4 14  1  0
 14 15  1  0
 15 16  2  0
 16 17  1  0
 17 18  1  0
 18 19  2  0
 19 20  1  0
 20 21  2  0
 21 22  1  0
 22 23  2  0
 17 24  1  0
 24 25  1  0
 13  8  1  0
 25 14  1  0
 23 18  1  0
M  END
>  <Title>  (271) 
idAAIMgen6

$$$$

     RDKit          2D

 10 10  0  0  0  0  0  0  0  0999 V2000
    5.0260   -1.2990    0.0000 C   0  0  0  0  0  0  0  0  0  0  0  0
    3.5260   -1.2990    0.0000 C   0  0  0  0  0  0  0  0  0  0  0  0
    2.7760   -2.5981    0.0000 O   0  0  0  0  0  0  0  0  0  0  0  0
    2.7760    0.0000    0.0000 O   0  0  0  0  0  0  0  0  0  0  0  0
    1.2760    0.0000    0.0000 C   0  0  0  0  0  0  0  0  0  0  0  0
    0.3943    1.2135    0.0000 C   0  0  0  0  0  0  0  0  0  0  0  0
   -1.0323    0.7500    0.0000 C   0  0  0  0  0  0  0  0  0  0  0  0
   -1.0323   -0.7500    0.0000 C   0  0  0  0  0  0  0  0  0  0  0  0
   -2.2458   -1.6317    0.0000 O   0  0  0  0  0  0  0  0  0  0  0  0
    0.3943   -1.2135    0.0000 C   0  0  0  0  0  0  0  0  0  0  0  0
  1  2  1  0
  2  3  2  0
  2  4  1  0
  4  5  1  0
  5  6  2  0
  6  7  1  0
  7  8  2  0
  8  9  1  0
  8 10  1  0
 10  5  1  0
M  END
>  <Title>  (272) 
idAAINgen6

$$$$

     RDKit          2D

 12 13  0  0  0  0  0  0  0  0999 V2000
    3.0000    0.0000    0.0000 C   0  0  0  0  0  0  0  0  0  0  0  0
    1.5000    0.0000    0.0000 C   0  0  0  0  0  0  0  0  0  0  0  0
    0.7500   -1.2990    0.0000 C   0  0  0  0  0  0  0  0  0  0  0  0
   -0.7500   -1.2990    0.0000 C   0  0  0  0  0  0  0  0  0  0  0  0
   -1.5000    0.0000    0.0000 C   0  0  0  0  0  0  0  0  0  0  0  0
   -3.0000    0.0000    0.0000 C   0  0  0  0  0  0  0  0  0  0  0  0
   -3.7500    1.2990    0.0000 C   0  0  0  0  0  0  0  0  0  0  0  0
   -3.0000    2.5981    0.0000 C   0  0  0  0  0  0  0  0  0  0  0  0
   -3.7500    3.8971    0.0000 O   0  0  0  0  0  0  0  0  0  0  0  0
   -1.5000    2.5981    0.0000 C   0  0  0  0  0  0  0  0  0  0  0  0
   -0.7500    1.2990    0.0000 C   0  0  0  0  0  0  0  0  0  0  0  0
    0.7500    1.2990    0.0000 C   0  0  0  0  0  0  0  0  0  0  0  0
  1  2  1  0
  2  3  2  0
  3  4  1  0
  4  5  2  0
  5  6  1  0
  6  7  2  0
  7  8  1  0
  8  9  1  0
  8 10  2  0
 10 11  1  0
 11 12  2  0
 12  2  1  0
 11  5  1  0
M  END
>  <Title>  (273) 
idAAIOgen6

$$$$

     RDKit          2D

 20 22  0  0  0  0  0  0  0  0999 V2000
    3.7500   -1.2990    0.0000 C   0  0  0  0  0  0  0  0  0  0  0  0
    3.0000    0.0000    0.0000 O   0  0  0  0  0  0  0  0  0  0  0  0
    1.5000    0.0000    0.0000 C   0  0  0  0  0  0  0  0  0  0  0  0
    0.7500   -1.2990    0.0000 C   0  0  0  0  0  0  0  0  0  0  0  0
   -0.7500   -1.2990    0.0000 C   0  0  0  0  0  0  0  0  0  0  0  0
   -1.5000    0.0000    0.0000 C   0  0  0  0  0  0  0  0  0  0  0  0
   -3.0000    0.0000    0.0000 N   0  0  0  0  0  0  0  0  0  0  0  0
   -3.7500    1.2990    0.0000 C   0  0  0  0  0  0  0  0  0  0  0  0
   -5.2500    1.2990    0.0000 C   0  0  0  0  0  0  0  0  0  0  0  0
   -6.0000    0.0000    0.0000 C   0  0  0  0  0  0  0  0  0  0  0  0
   -7.5000    0.0000    0.0000 C   0  0  0  0  0  0  0  0  0  0  0  0
   -8.2500    1.2990    0.0000 C   0  0  0  0  0  0  0  0  0  0  0  0
   -9.7500    1.2990    0.0000 C   0  0  0  0  0  0  0  0  0  0  0  0
  -10.5000    0.0000    0.0000 C   0  0  0  0  0  0  0  0  0  0  0  0
   -9.7500   -1.2990    0.0000 C   0  0  0  0  0  0  0  0  0  0  0  0
   -8.2500   -1.2990    0.0000 C   0  0  0  0  0  0  0  0  0  0  0  0
   -5.2500   -1.2990    0.0000 C   0  0  0  0  0  0  0  0  0  0  0  0
   -3.7500   -1.2990    0.0000 C   0  0  0  0  0  0  0  0  0  0  0  0
   -0.7500    1.2990    0.0000 C   0  0  0  0  0  0  0  0  0  0  0  0
    0.7500    1.2990    0.0000 C   0  0  0  0  0  0  0  0  0  0  0  0
  1  2  1  0
  2  3  1  0
  3  4  2  0
  4  5  1  0
  5  6  2  0
  6  7  1  0
  7  8  1  0
  8  9  1  0
  9 10  1  0
 10 11  1  0
 11 12  2  0
 12 13  1  0
 13 14  2  0
 14 15  1  0
 15 16  2  0
 10 17  1  0
 17 18  1  0
  6 19  1  0
 19 20  1  0
 20  3  1  0
 18  7  1  0
 16 11  1  0
M  END
>  <Title>  (274) 
idAAIPgen6

$$$$

     RDKit          2D

 12 13  0  0  0  0  0  0  0  0999 V2000
    3.0000    0.0000    0.0000 O   0  0  0  0  0  0  0  0  0  0  0  0
    1.5000    0.0000    0.0000 C   0  0  0  0  0  0  0  0  0  0  0  0
    0.7500   -1.2990    0.0000 C   0  0  0  0  0  0  0  0  0  0  0  0
   -0.7500   -1.2990    0.0000 C   0  0  0  0  0  0  0  0  0  0  0  0
   -1.5000    0.0000    0.0000 C   0  0  0  0  0  0  0  0  0  0  0  0
   -3.0000    0.0000    0.0000 C   0  0  0  0  0  0  0  0  0  0  0  0
   -3.8817   -1.2135    0.0000 C   0  0  0  0  0  0  0  0  0  0  0  0
   -5.3083   -0.7500    0.0000 C   0  0  0  0  0  0  0  0  0  0  0  0
   -5.3083    0.7500    0.0000 C   0  0  0  0  0  0  0  0  0  0  0  0
   -3.8817    1.2135    0.0000 C   0  0  0  0  0  0  0  0  0  0  0  0
   -0.7500    1.2990    0.0000 C   0  0  0  0  0  0  0  0  0  0  0  0
    0.7500    1.2990    0.0000 C   0  0  0  0  0  0  0  0  0  0  0  0
  1  2  1  0
  2  3  2  0
  3  4  1  0
  4  5  2  0
  5  6  1  0
  6  7  2  0
  7  8  1  0
  8  9  2  0
  9 10  1  0
  5 11  1  0
 11 12  1  0
 12  2  1  0
 10  6  1  0
M  END
>  <Title>  (275) 
idAAIQgen6

$$$$

     RDKit          2D

 12 12  0  0  0  0  0  0  0  0999 V2000
    4.4429   -1.2990    0.0000 C   0  0  0  0  0  0  0  0  0  0  0  0
    3.6929    0.0000    0.0000 O   0  0  0  0  0  0  0  0  0  0  0  0
    2.1929    0.0000    0.0000 C   0  0  0  0  0  0  0  0  0  0  0  0
    1.6798    1.4095    0.0000 C   0  0  0  0  0  0  0  0  0  0  0  0
    0.3808    2.1595    0.0000 C   0  0  0  0  0  0  0  0  0  0  0  0
   -1.0964    1.8991    0.0000 C   0  0  0  0  0  0  0  0  0  0  0  0
   -2.0606    0.7500    0.0000 C   0  0  0  0  0  0  0  0  0  0  0  0
   -2.0606   -0.7500    0.0000 C   0  0  0  0  0  0  0  0  0  0  0  0
   -1.0964   -1.8991    0.0000 C   0  0  0  0  0  0  0  0  0  0  0  0
    0.3808   -2.1595    0.0000 C   0  0  0  0  0  0  0  0  0  0  0  0
    1.6798   -1.4095    0.0000 N   0  0  0  0  0  0  0  0  0  0  0  0
    2.8289   -2.3737    0.0000 C   0  0  0  0  0  0  0  0  0  0  0  0
  1  2  1  0
  2  3  1  0
  3  4  1  0
  4  5  2  0
  5  6  1  0
  6  7  1  0
  7  8  1  0
  8  9  1  0
  9 10  1  0
 10 11  1  0
 11 12  1  0
 11  3  1  0
M  END
>  <Title>  (276) 
idAAIRgen6

$$$$

     RDKit          2D

 22 23  0  0  0  0  0  0  0  0999 V2000
   -1.5000   -5.1962    0.0000 C   0  0  0  0  0  0  0  0  0  0  0  0
   -0.7500   -3.8971    0.0000 C   0  0  0  0  0  0  0  0  0  0  0  0
   -1.5000   -2.5981    0.0000 O   0  0  0  0  0  0  0  0  0  0  0  0
    0.7500   -3.8971    0.0000 C   0  0  0  0  0  0  0  0  0  0  0  0
    1.5000   -2.5981    0.0000 C   0  0  0  0  0  0  0  0  0  0  0  0
    0.7500   -1.2990    0.0000 C   0  0  0  0  0  0  0  0  0  0  0  0
    1.5000    0.0000    0.0000 C   0  0  0  0  0  0  0  0  0  0  0  0
    0.7500    1.2990    0.0000 C   0  0  0  0  0  0  0  0  0  0  0  0
   -0.7500    1.2990    0.0000 C   0  0  0  0  0  0  0  0  0  0  0  0
   -1.5000    0.0000    0.0000 C   0  0  0  0  0  0  0  0  0  0  0  0
   -0.7500   -1.2990    0.0000 C   0  0  0  0  0  0  0  0  0  0  0  0
    1.5000   -5.1962    0.0000 C   0  0  0  0  0  0  0  0  0  0  0  0
    0.7500   -6.4952    0.0000 C   0  0  0  0  0  0  0  0  0  0  0  0
   -0.7500   -6.4952    0.0000 O   0  0  0  0  0  0  0  0  0  0  0  0
    1.5000   -7.7942    0.0000 C   0  0  0  0  0  0  0  0  0  0  0  0
    2.9918   -7.9510    0.0000 C   0  0  0  0  0  0  0  0  0  0  0  0
    3.3037   -9.4182    0.0000 C   0  0  0  0  0  0  0  0  0  0  0  0
    2.0046  -10.1682    0.0000 C   0  0  0  0  0  0  0  0  0  0  0  0
    1.8478  -11.6600    0.0000 C   0  0  0  0  0  0  0  0  0  0  0  0
    3.0613  -12.5417    0.0000 O   0  0  0  0  0  0  0  0  0  0  0  0
    0.4775  -12.2701    0.0000 O   0  0  0  0  0  0  0  0  0  0  0  0
    0.8899   -9.1645    0.0000 C   0  0  0  0  0  0  0  0  0  0  0  0
  1  2  1  0
  2  3  2  0
  2  4  1  0
  4  5  1  0
  5  6  1  0
  6  7  2  0
  7  8  1  0
  8  9  2  0
  9 10  1  0
 10 11  2  0
  4 12  1  0
 12 13  1  0
 13 14  1  0
 13 15  1  0
 15 16  1  0
 16 17  1  0
 17 18  1  0
 18 19  1  0
 19 20  2  0
 19 21  1  0
 18 22  1  0
 11  6  1  0
 22 15  1  0
M  END
>  <Title>  (277) 
idAAISgen6

$$$$

     RDKit          2D

 13 14  0  0  0  0  0  0  0  0999 V2000
    3.6929    0.0000    0.0000 C   0  0  0  0  0  0  0  0  0  0  0  0
    2.1929    0.0000    0.0000 C   0  0  0  0  0  0  0  0  0  0  0  0
    1.6798    1.4095    0.0000 C   0  0  0  0  0  0  0  0  0  0  0  0
    0.3808    2.1595    0.0000 C   0  0  0  0  0  0  0  0  0  0  0  0
   -1.0964    1.8991    0.0000 C   0  0  0  0  0  0  0  0  0  0  0  0
   -2.2455    2.8632    0.0000 C   0  0  0  0  0  0  0  0  0  0  0  0
   -2.3762    4.3575    0.0000 O   0  0  0  0  0  0  0  0  0  0  0  0
   -3.2097    1.7142    0.0000 N   0  0  0  0  0  0  0  0  0  0  0  0
   -2.0606    0.7500    0.0000 C   0  0  0  0  0  0  0  0  0  0  0  0
   -2.0606   -0.7500    0.0000 C   0  0  0  0  0  0  0  0  0  0  0  0
   -1.0964   -1.8991    0.0000 C   0  0  0  0  0  0  0  0  0  0  0  0
    0.3808   -2.1595    0.0000 C   0  0  0  0  0  0  0  0  0  0  0  0
    1.6798   -1.4095    0.0000 C   0  0  0  0  0  0  0  0  0  0  0  0
  1  2  1  0
  2  3  2  0
  3  4  1  0
  4  5  1  0
  5  6  1  0
  6  7  2  0
  6  8  1  0
  8  9  1  0
  9 10  2  0
 10 11  1  0
 11 12  2  0
 12 13  1  0
 13  2  1  0
  9  5  1  0
M  END
>  <Title>  (278) 
idAAITgen6

$$$$

     RDKit          2D

 21 22  0  0  0  0  0  0  0  0999 V2000
   -4.0258    0.0614    0.0000 C   0  0  0  0  0  0  0  0  0  0  0  0
   -3.1624    1.2880    0.0000 C   0  0  0  0  0  0  0  0  0  0  0  0
   -4.1827    2.3876    0.0000 C   0  0  0  0  0  0  0  0  0  0  0  0
   -4.6675    3.8071    0.0000 C   0  0  0  0  0  0  0  0  0  0  0  0
   -4.5330    5.3010    0.0000 C   0  0  0  0  0  0  0  0  0  0  0  0
   -3.8025    6.6112    0.0000 C   0  0  0  0  0  0  0  0  0  0  0  0
   -2.6023    7.5109    0.0000 C   0  0  0  0  0  0  0  0  0  0  0  0
   -1.1400    7.8447    0.0000 C   0  0  0  0  0  0  0  0  0  0  0  0
    0.3318    7.5548    0.0000 C   0  0  0  0  0  0  0  0  0  0  0  0
    1.5583    6.6914    0.0000 C   0  0  0  0  0  0  0  0  0  0  0  0
    2.3277    5.4037    0.0000 C   0  0  0  0  0  0  0  0  0  0  0  0
    2.5068    3.9144    0.0000 C   0  0  0  0  0  0  0  0  0  0  0  0
    2.0647    2.4811    0.0000 C   0  0  0  0  0  0  0  0  0  0  0  0
    1.0777    1.3515    0.0000 C   0  0  0  0  0  0  0  0  0  0  0  0
    1.7286    0.0000    0.0000 C   0  0  0  0  0  0  0  0  0  0  0  0
    1.0777   -1.3515    0.0000 C   0  0  0  0  0  0  0  0  0  0  0  0
   -0.3846   -1.6852    0.0000 C   0  0  0  0  0  0  0  0  0  0  0  0
   -1.5574   -0.7500    0.0000 C   0  0  0  0  0  0  0  0  0  0  0  0
   -1.5574    0.7500    0.0000 C   0  0  0  0  0  0  0  0  0  0  0  0
   -0.3846    1.6852    0.0000 C   0  0  0  0  0  0  0  0  0  0  0  0
   -0.7184    3.1476    0.0000 O   0  0  0  0  0  0  0  0  0  0  0  0
  1  2  1  0
  2  3  1  0
  3  4  1  0
  4  5  1  0
  5  6  1  0
  6  7  1  0
  7  8  1  0
  8  9  1  0
  9 10  1  0
 10 11  1  0
 11 12  1  0
 12 13  1  0
 13 14  1  0
 14 15  1  0
 15 16  1  0
 16 17  2  0
 17 18  1  0
 18 19  2  0
 19 20  1  0
 20 21  2  0
 19  2  1  0
 20 14  1  0
M  END
>  <Title>  (279) 
idAAIUgen6

$$$$

     RDKit          2D

 12 12  0  0  0  0  0  0  0  0999 V2000
    3.5260   -1.2990    0.0000 C   0  0  0  0  0  0  0  0  0  0  0  0
    2.7760    0.0000    0.0000 O   0  0  0  0  0  0  0  0  0  0  0  0
    1.2760    0.0000    0.0000 C   0  0  0  0  0  0  0  0  0  0  0  0
    0.3943    1.2135    0.0000 C   0  0  0  0  0  0  0  0  0  0  0  0
   -1.0323    0.7500    0.0000 C   0  0  0  0  0  0  0  0  0  0  0  0
   -1.0323   -0.7500    0.0000 C   0  0  0  0  0  0  0  0  0  0  0  0
   -2.2458   -1.6317    0.0000 C   0  0  0  0  0  0  0  0  0  0  0  0
   -2.0890   -3.1235    0.0000 O   0  0  0  0  0  0  0  0  0  0  0  0
   -3.6161   -1.0216    0.0000 N   0  0  0  0  0  0  0  0  0  0  0  0
   -4.8297   -1.9033    0.0000 C   0  0  0  0  0  0  0  0  0  0  0  0
   -3.7729    0.4702    0.0000 C   0  0  0  0  0  0  0  0  0  0  0  0
    0.3943   -1.2135    0.0000 C   0  0  0  0  0  0  0  0  0  0  0  0
  1  2  1  0
  2  3  1  0
  3  4  1  0
  4  5  2  0
  5  6  1  0
  6  7  1  0
  7  8  2  0
  7  9  1  0
  9 10  1  0
  9 11  1  0
  6 12  2  0
 12  3  1  0
M  END
>  <Title>  (280) 
idAAIVgen6

$$$$

     RDKit          2D

 11 11  0  0  0  0  0  0  0  0999 V2000
    5.0260   -1.2990    0.0000 C   0  0  0  0  0  0  0  0  0  0  0  0
    3.5260   -1.2990    0.0000 C   0  0  0  0  0  0  0  0  0  0  0  0
    2.7760   -2.5981    0.0000 O   0  0  0  0  0  0  0  0  0  0  0  0
    2.7760    0.0000    0.0000 O   0  0  0  0  0  0  0  0  0  0  0  0
    1.2760    0.0000    0.0000 C   0  0  0  0  0  0  0  0  0  0  0  0
    0.3943    1.2135    0.0000 C   0  0  0  0  0  0  0  0  0  0  0  0
   -1.0323    0.7500    0.0000 C   0  0  0  0  0  0  0  0  0  0  0  0
   -1.0323   -0.7500    0.0000 C   0  0  0  0  0  0  0  0  0  0  0  0
   -2.2458   -1.6317    0.0000 O   0  0  0  0  0  0  0  0  0  0  0  0
    0.3943   -1.2135    0.0000 C   0  0  0  0  0  0  0  0  0  0  0  0
    0.8578   -2.6401    0.0000 O   0  0  0  0  0  0  0  0  0  0  0  0
  1  2  1  0
  2  3  2  0
  2  4  1  0
  4  5  1  0
  5  6  2  0
  6  7  1  0
  7  8  2  0
  8  9  1  0
  8 10  1  0
 10 11  2  0
 10  5  1  0
M  END
>  <Title>  (281) 
idAAIWgen6

$$$$

     RDKit          2D

 25 28  0  0  0  0  0  0  0  0999 V2000
   -2.7313    4.8857    0.0000 C   0  0  0  0  0  0  0  0  0  0  0  0
   -2.2892    3.4524    0.0000 C   0  0  0  0  0  0  0  0  0  0  0  0
   -3.3094    2.3528    0.0000 C   0  0  0  0  0  0  0  0  0  0  0  0
   -2.7614    0.9565    0.0000 C   0  0  0  0  0  0  0  0  0  0  0  0
   -3.5114   -0.3426    0.0000 C   0  0  0  0  0  0  0  0  0  0  0  0
   -4.9947   -0.5661    0.0000 C   0  0  0  0  0  0  0  0  0  0  0  0
   -6.0942    0.4541    0.0000 C   0  0  0  0  0  0  0  0  0  0  0  0
   -5.9821    1.9500    0.0000 C   0  0  0  0  0  0  0  0  0  0  0  0
   -4.7428    2.7949    0.0000 N   0  0  0  0  0  0  0  0  0  0  0  0
   -4.9664    4.2782    0.0000 C   0  0  0  0  0  0  0  0  0  0  0  0
   -6.2977    4.9691    0.0000 C   0  0  0  0  0  0  0  0  0  0  0  0
   -6.0520    6.4489    0.0000 C   0  0  0  0  0  0  0  0  0  0  0  0
   -4.5688    6.6724    0.0000 C   0  0  0  0  0  0  0  0  0  0  0  0
   -3.8978    5.3309    0.0000 C   0  0  0  0  0  0  0  0  0  0  0  0
   -0.8268    3.1186    0.0000 N   0  0  0  0  0  0  0  0  0  0  0  0
    0.1935    4.2182    0.0000 C   0  0  0  0  0  0  0  0  0  0  0  0
    1.6559    3.8844    0.0000 C   0  0  0  0  0  0  0  0  0  0  0  0
    2.0980    2.4510    0.0000 C   0  0  0  0  0  0  0  0  0  0  0  0
    1.0777    1.3515    0.0000 C   0  0  0  0  0  0  0  0  0  0  0  0
    1.7286    0.0000    0.0000 C   0  0  0  0  0  0  0  0  0  0  0  0
    1.0777   -1.3515    0.0000 C   0  0  0  0  0  0  0  0  0  0  0  0
   -0.3846   -1.6852    0.0000 C   0  0  0  0  0  0  0  0  0  0  0  0
   -1.5574   -0.7500    0.0000 C   0  0  0  0  0  0  0  0  0  0  0  0
   -1.5574    0.7500    0.0000 C   0  0  0  0  0  0  0  0  0  0  0  0
   -0.3846    1.6852    0.0000 C   0  0  0  0  0  0  0  0  0  0  0  0
  1  2  1  0
  2  3  1  0
  3  4  1  0
  4  5  1  0
  5  6  1  0
  6  7  1  0
  7  8  1  0
  8  9  1  0
  9 10  1  0
 10 11  2  0
 11 12  1  0
 12 13  2  0
 13 14  1  0
  2 15  1  0
 15 16  1  0
 16 17  2  0
 17 18  1  0
 18 19  2  0
 19 20  1  0
 20 21  2  0
 21 22  1  0
 22 23  2  0
 23 24  1  0
 24 25  2  0
  9  3  1  0
 14 10  1  0
 25 15  1  0
 25 19  1  0
M  END
>  <Title>  (282) 
idAAIXgen6

$$$$

     RDKit          2D

 24 26  0  0  0  0  0  0  0  0999 V2000
    3.0000    0.0000    0.0000 C   0  0  0  0  0  0  0  0  0  0  0  0
    1.5000    0.0000    0.0000 C   0  0  0  0  0  0  0  0  0  0  0  0
    0.7500   -1.2990    0.0000 C   0  0  0  0  0  0  0  0  0  0  0  0
   -0.7500   -1.2990    0.0000 C   0  0  0  0  0  0  0  0  0  0  0  0
   -1.5000    0.0000    0.0000 C   0  0  0  0  0  0  0  0  0  0  0  0
   -3.0000    0.0000    0.0000 C   0  0  0  0  0  0  0  0  0  0  0  0
   -3.7500   -1.2990    0.0000 O   0  0  0  0  0  0  0  0  0  0  0  0
   -3.7500    1.2990    0.0000 N   0  0  0  0  0  0  0  0  0  0  0  0
   -5.2500    1.2990    0.0000 N   0  0  0  0  0  0  0  0  0  0  0  0
   -6.0000    2.5981    0.0000 C   0  0  0  0  0  0  0  0  0  0  0  0
   -7.5000    2.5981    0.0000 C   0  0  0  0  0  0  0  0  0  0  0  0
   -8.2500    1.2990    0.0000 C   0  0  0  0  0  0  0  0  0  0  0  0
   -9.7500    1.2990    0.0000 N   0  0  0  0  0  0  0  0  0  0  0  0
  -10.6317    0.0855    0.0000 C   0  0  0  0  0  0  0  0  0  0  0  0
  -12.0583    0.5490    0.0000 C   0  0  0  0  0  0  0  0  0  0  0  0
  -12.0583    2.0490    0.0000 C   0  0  0  0  0  0  0  0  0  0  0  0
  -13.2718    2.9307    0.0000 C   0  0  0  0  0  0  0  0  0  0  0  0
  -14.6421    2.3206    0.0000 O   0  0  0  0  0  0  0  0  0  0  0  0
  -13.1150    4.4225    0.0000 O   0  0  0  0  0  0  0  0  0  0  0  0
  -10.6317    2.5126    0.0000 C   0  0  0  0  0  0  0  0  0  0  0  0
   -7.5000    0.0000    0.0000 C   0  0  0  0  0  0  0  0  0  0  0  0
   -6.0000    0.0000    0.0000 C   0  0  0  0  0  0  0  0  0  0  0  0
   -0.7500    1.2990    0.0000 C   0  0  0  0  0  0  0  0  0  0  0  0
    0.7500    1.2990    0.0000 C   0  0  0  0  0  0  0  0  0  0  0  0
  1  2  1  0
  2  3  1  0
  3  4  1  0
  4  5  1  0
  5  6  1  0
  6  7  2  0
  6  8  1  0
  8  9  1  0
  9 10  1  0
 10 11  1  0
 11 12  1  0
 12 13  1  0
 13 14  1  0
 14 15  1  0
 15 16  1  0
 16 17  1  0
 17 18  2  0
 17 19  1  0
 16 20  1  0
 12 21  1  0
 21 22  1  0
  5 23  1  0
 23 24  1  0
 24  2  1  0
 22  9  1  0
 20 13  1  0
M  END
>  <Title>  (283) 
idAAIYgen6

$$$$

     RDKit          2D

  7  6  0  0  0  0  0  0  0  0999 V2000
    0.0000    0.0000    0.0000 C   0  0  0  0  0  0  0  0  0  0  0  0
    1.2990    0.7500    0.0000 N   0  0  0  0  0  0  0  0  0  0  0  0
    2.5981   -0.0000    0.0000 C   0  0  0  0  0  0  0  0  0  0  0  0
    2.5981   -1.5000    0.0000 O   0  0  0  0  0  0  0  0  0  0  0  0
    3.8971    0.7500    0.0000 C   0  0  0  0  0  0  0  0  0  0  0  0
    5.1962   -0.0000    0.0000 C   0  0  0  0  0  0  0  0  0  0  0  0
    3.8971    2.2500    0.0000 C   0  0  0  0  0  0  0  0  0  0  0  0
  1  2  1  0
  2  3  1  0
  3  4  2  0
  3  5  1  0
  5  6  1  0
  5  7  1  0
M  END
>  <Title>  (284) 
idAAIZgen6

$$$$

     RDKit          2D

 19 20  0  0  0  0  0  0  0  0999 V2000
    3.6929    0.0000    0.0000 C   0  0  0  0  0  0  0  0  0  0  0  0
    2.1929    0.0000    0.0000 C   0  0  0  0  0  0  0  0  0  0  0  0
    1.6798    1.4095    0.0000 C   0  0  0  0  0  0  0  0  0  0  0  0
    0.3808    2.1595    0.0000 C   0  0  0  0  0  0  0  0  0  0  0  0
   -1.0964    1.8991    0.0000 C   0  0  0  0  0  0  0  0  0  0  0  0
   -2.0606    0.7500    0.0000 C   0  0  0  0  0  0  0  0  0  0  0  0
   -2.0606   -0.7500    0.0000 C   0  0  0  0  0  0  0  0  0  0  0  0
   -1.0964   -1.8991    0.0000 C   0  0  0  0  0  0  0  0  0  0  0  0
   -1.8464   -3.1981    0.0000 C   0  0  0  0  0  0  0  0  0  0  0  0
   -1.0964   -4.4971    0.0000 O   0  0  0  0  0  0  0  0  0  0  0  0
   -3.3464   -3.1981    0.0000 N   0  0  0  0  0  0  0  0  0  0  0  0
   -4.0964   -4.4971    0.0000 C   0  0  0  0  0  0  0  0  0  0  0  0
   -5.5964   -4.4971    0.0000 N   0  0  0  0  0  0  0  0  0  0  0  0
   -6.3464   -5.7962    0.0000 N   0  0  0  0  0  0  0  0  0  0  0  0
   -5.5964   -7.0952    0.0000 N   0  0  0  0  0  0  0  0  0  0  0  0
   -4.0964   -7.0952    0.0000 N   0  0  0  0  0  0  0  0  0  0  0  0
   -3.3464   -5.7962    0.0000 N   0  0  0  0  0  0  0  0  0  0  0  0
    0.3808   -2.1595    0.0000 C   0  0  0  0  0  0  0  0  0  0  0  0
    1.6798   -1.4095    0.0000 C   0  0  0  0  0  0  0  0  0  0  0  0
  1  2  1  0
  2  3  1  0
  3  4  2  0
  4  5  1  0
  5  6  2  0
  6  7  1  0
  7  8  2  0
  8  9  1  0
  9 10  2  0
  9 11  1  0
 11 12  1  0
 12 13  2  0
 13 14  1  0
 14 15  2  0
 15 16  1  0
 16 17  2  0
  8 18  1  0
 18 19  2  0
 19  2  1  0
 17 12  1  0
M  END
>  <Title>  (285) 
idAAJAgen6

$$$$

     RDKit          2D

 25 27  0  0  0  0  0  0  0  0999 V2000
    3.2286   -0.0000    0.0000 C   0  0  0  0  0  0  0  0  0  0  0  0
    1.7286    0.0000    0.0000 C   0  0  0  0  0  0  0  0  0  0  0  0
    1.0777    1.3515    0.0000 C   0  0  0  0  0  0  0  0  0  0  0  0
   -0.3846    1.6852    0.0000 C   0  0  0  0  0  0  0  0  0  0  0  0
   -0.7184    3.1476    0.0000 F   0  0  0  0  0  0  0  0  0  0  0  0
   -1.5574    0.7500    0.0000 C   0  0  0  0  0  0  0  0  0  0  0  0
   -1.5574   -0.7500    0.0000 C   0  0  0  0  0  0  0  0  0  0  0  0
   -2.9088   -1.4008    0.0000 O   0  0  0  0  0  0  0  0  0  0  0  0
   -4.1482   -0.5558    0.0000 C   0  0  0  0  0  0  0  0  0  0  0  0
   -5.4472   -1.3058    0.0000 C   0  0  0  0  0  0  0  0  0  0  0  0
   -6.8436   -0.7578    0.0000 C   0  0  0  0  0  0  0  0  0  0  0  0
   -7.9431   -1.7781    0.0000 C   0  0  0  0  0  0  0  0  0  0  0  0
   -9.3765   -1.3360    0.0000 C   0  0  0  0  0  0  0  0  0  0  0  0
  -10.4761   -2.3562    0.0000 C   0  0  0  0  0  0  0  0  0  0  0  0
  -10.1423   -3.8186    0.0000 C   0  0  0  0  0  0  0  0  0  0  0  0
   -8.7089   -4.2607    0.0000 C   0  0  0  0  0  0  0  0  0  0  0  0
   -7.6093   -3.2405    0.0000 C   0  0  0  0  0  0  0  0  0  0  0  0
   -7.2857    0.6755    0.0000 O   0  0  0  0  0  0  0  0  0  0  0  0
   -6.4407    1.9149    0.0000 C   0  0  0  0  0  0  0  0  0  0  0  0
   -7.1907    3.2139    0.0000 O   0  0  0  0  0  0  0  0  0  0  0  0
   -4.9449    2.0270    0.0000 O   0  0  0  0  0  0  0  0  0  0  0  0
   -3.9246    0.9274    0.0000 C   0  0  0  0  0  0  0  0  0  0  0  0
   -2.4913    1.3695    0.0000 O   0  0  0  0  0  0  0  0  0  0  0  0
   -0.3846   -1.6852    0.0000 C   0  0  0  0  0  0  0  0  0  0  0  0
    1.0777   -1.3515    0.0000 C   0  0  0  0  0  0  0  0  0  0  0  0
  1  2  1  0
  2  3  1  0
  3  4  2  0
  4  5  1  0
  4  6  1  0
  6  7  1  0
  7  8  1  0
  8  9  1  0
  9 10  2  0
 10 11  1  0
 11 12  1  0
 12 13  2  0
 13 14  1  0
 14 15  2  0
 15 16  1  0
 16 17  2  0
 11 18  1  0
 18 19  1  0
 19 20  2  0
 19 21  1  0
 21 22  1  0
 22 23  2  0
  7 24  1  0
 24 25  1  0
 25  2  1  0
 22  9  1  0
 17 12  1  0
M  END
>  <Title>  (286) 
idAAJBgen6

$$$$

     RDKit          2D

 24 26  0  0  0  0  0  0  0  0999 V2000
   -5.2500   -3.8971    0.0000 C   0  0  0  0  0  0  0  0  0  0  0  0
   -3.7500   -3.8971    0.0000 C   0  0  0  0  0  0  0  0  0  0  0  0
   -3.0000   -5.1962    0.0000 O   0  0  0  0  0  0  0  0  0  0  0  0
   -3.0000   -2.5981    0.0000 C   0  0  0  0  0  0  0  0  0  0  0  0
   -3.7500   -1.2990    0.0000 O   0  0  0  0  0  0  0  0  0  0  0  0
   -1.5000   -2.5981    0.0000 C   0  0  0  0  0  0  0  0  0  0  0  0
   -0.7500   -3.8971    0.0000 C   0  0  0  0  0  0  0  0  0  0  0  0
    0.7500   -3.8971    0.0000 C   0  0  0  0  0  0  0  0  0  0  0  0
    1.5000   -2.5981    0.0000 C   0  0  0  0  0  0  0  0  0  0  0  0
    3.0000   -2.5981    0.0000 C   0  0  0  0  0  0  0  0  0  0  0  0
    3.7500   -1.2990    0.0000 O   0  0  0  0  0  0  0  0  0  0  0  0
    3.7500   -3.8971    0.0000 N   0  0  0  0  0  0  0  0  0  0  0  0
    5.2500   -3.8971    0.0000 C   0  0  0  0  0  0  0  0  0  0  0  0
    6.0000   -5.1962    0.0000 N   0  0  0  0  0  0  0  0  0  0  0  0
    7.5000   -5.1962    0.0000 N   0  0  0  0  0  0  0  0  0  0  0  0
    8.2500   -3.8971    0.0000 N   0  0  0  0  0  0  0  0  0  0  0  0
    7.5000   -2.5981    0.0000 N   0  0  0  0  0  0  0  0  0  0  0  0
    6.0000   -2.5981    0.0000 N   0  0  0  0  0  0  0  0  0  0  0  0
    0.7500   -1.2990    0.0000 C   0  0  0  0  0  0  0  0  0  0  0  0
    1.5000    0.0000    0.0000 C   0  0  0  0  0  0  0  0  0  0  0  0
    0.7500    1.2990    0.0000 C   0  0  0  0  0  0  0  0  0  0  0  0
   -0.7500    1.2990    0.0000 C   0  0  0  0  0  0  0  0  0  0  0  0
   -1.5000    0.0000    0.0000 C   0  0  0  0  0  0  0  0  0  0  0  0
   -0.7500   -1.2990    0.0000 C   0  0  0  0  0  0  0  0  0  0  0  0
  1  2  1  0
  2  3  2  0
  2  4  1  0
  4  5  2  0
  4  6  1  0
  6  7  2  0
  7  8  1  0
  8  9  2  0
  9 10  1  0
 10 11  2  0
 10 12  1  0
 12 13  1  0
 13 14  2  0
 14 15  1  0
 15 16  2  0
 16 17  1  0
 17 18  2  0
  9 19  1  0
 19 20  2  0
 20 21  1  0
 21 22  2  0
 22 23  1  0
 23 24  2  0
 24  6  1  0
 18 13  1  0
 24 19  1  0
M  END
>  <Title>  (287) 
idAAJCgen6

$$$$

     RDKit          2D

 41 45  0  0  0  0  0  0  0  0999 V2000
    3.4613   -7.2038    0.0000 C   0  0  0  0  0  0  0  0  0  0  0  0
    3.4800   -5.7040    0.0000 C   0  0  0  0  0  0  0  0  0  0  0  0
    2.0360   -5.2977    0.0000 C   0  0  0  0  0  0  0  0  0  0  0  0
    0.9887   -4.2239    0.0000 C   0  0  0  0  0  0  0  0  0  0  0  0
   -0.3196   -4.9576    0.0000 C   0  0  0  0  0  0  0  0  0  0  0  0
    0.8333   -2.5609    0.0000 C   0  0  0  0  0  0  0  0  0  0  0  0
    2.3291   -2.4488    0.0000 C   0  0  0  0  0  0  0  0  0  0  0  0
    2.9460   -3.8160    0.0000 O   0  0  0  0  0  0  0  0  0  0  0  0
    3.4029   -1.4014    0.0000 O   0  0  0  0  0  0  0  0  0  0  0  0
    3.5522    0.0911    0.0000 C   0  0  0  0  0  0  0  0  0  0  0  0
    4.9962   -0.3151    0.0000 C   0  0  0  0  0  0  0  0  0  0  0  0
    6.0435   -1.3889    0.0000 C   0  0  0  0  0  0  0  0  0  0  0  0
    6.4136   -2.8425    0.0000 C   0  0  0  0  0  0  0  0  0  0  0  0
    6.0074   -4.2865    0.0000 C   0  0  0  0  0  0  0  0  0  0  0  0
    4.9336   -5.3338    0.0000 C   0  0  0  0  0  0  0  0  0  0  0  0
    2.7072    1.3305    0.0000 C   0  0  0  0  0  0  0  0  0  0  0  0
    3.5829    2.5484    0.0000 C   0  0  0  0  0  0  0  0  0  0  0  0
    2.9659    3.9157    0.0000 C   0  0  0  0  0  0  0  0  0  0  0  0
    3.8415    5.1336    0.0000 C   0  0  0  0  0  0  0  0  0  0  0  0
    3.1242    6.4509    0.0000 C   0  0  0  0  0  0  0  0  0  0  0  0
    3.7068    7.8331    0.0000 C   0  0  0  0  0  0  0  0  0  0  0  0
    5.1507    8.2394    0.0000 C   0  0  0  0  0  0  0  0  0  0  0  0
    6.3687    7.3638    0.0000 C   0  0  0  0  0  0  0  0  0  0  0  0
    6.4434    5.8656    0.0000 C   0  0  0  0  0  0  0  0  0  0  0  0
    5.3188    4.8731    0.0000 C   0  0  0  0  0  0  0  0  0  0  0  0
    1.0777    1.3515    0.0000 C   0  0  0  0  0  0  0  0  0  0  0  0
    1.7286    0.0000    0.0000 C   0  0  0  0  0  0  0  0  0  0  0  0
    1.0777   -1.3515    0.0000 C   0  0  0  0  0  0  0  0  0  0  0  0
   -0.3846   -1.6852    0.0000 C   0  0  0  0  0  0  0  0  0  0  0  0
   -1.5574   -0.7500    0.0000 C   0  0  0  0  0  0  0  0  0  0  0  0
   -2.9088   -1.4008    0.0000 N   0  0  0  0  0  0  0  0  0  0  0  0
   -4.1482   -0.5558    0.0000 N   0  0  0  0  0  0  0  0  0  0  0  0
   -5.4997   -1.2067    0.0000 C   0  0  0  0  0  0  0  0  0  0  0  0
   -6.7390   -0.3617    0.0000 C   0  0  0  0  0  0  0  0  0  0  0  0
   -8.0905   -1.0125    0.0000 C   0  0  0  0  0  0  0  0  0  0  0  0
   -8.2026   -2.5083    0.0000 C   0  0  0  0  0  0  0  0  0  0  0  0
   -6.9632   -3.3533    0.0000 C   0  0  0  0  0  0  0  0  0  0  0  0
   -5.6118   -2.7025    0.0000 C   0  0  0  0  0  0  0  0  0  0  0  0
   -1.5574    0.7500    0.0000 N   0  0  0  0  0  0  0  0  0  0  0  0
   -0.3846    1.6852    0.0000 C   0  0  0  0  0  0  0  0  0  0  0  0
   -0.7184    3.1476    0.0000 O   0  0  0  0  0  0  0  0  0  0  0  0
  1  2  1  0
  2  3  2  0
  3  4  1  0
  4  5  1  0
  4  6  2  0
  6  7  1  0
  7  8  2  0
  7  9  1  0
  9 10  1  0
 10 11  2  0
 11 12  1  0
 12 13  2  0
 13 14  1  0
 14 15  2  0
 10 16  1  0
 16 17  2  3
 17 18  1  0
 18 19  2  3
 19 20  1  0
 20 21  2  0
 21 22  1  0
 22 23  2  0
 23 24  1  0
 24 25  2  0
 16 26  1  0
 26 27  1  0
 27 28  1  0
 28 29  1  0
 29 30  1  0
 30 31  2  3
 31 32  1  0
 32 33  1  0
 33 34  2  0
 34 35  1  0
 35 36  2  0
 36 37  1  0
 37 38  2  0
 30 39  1  0
 39 40  1  0
 40 41  2  0
 15  2  1  0
 25 19  1  0
 40 26  1  0
 29  6  1  0
 38 33  1  0
M  END
>  <Title>  (288) 
idAAJDgen6

$$$$

     RDKit          2D

 33 37  0  0  0  0  0  0  0  0999 V2000
   -3.5094    0.4568    0.0000 C   0  0  0  0  0  0  0  0  0  0  0  0
   -2.3688    1.4310    0.0000 C   0  0  0  0  0  0  0  0  0  0  0  0
   -2.8323    2.8576    0.0000 C   0  0  0  0  0  0  0  0  0  0  0  0
   -2.1513    4.1941    0.0000 C   0  0  0  0  0  0  0  0  0  0  0  0
   -0.7248    4.6576    0.0000 C   0  0  0  0  0  0  0  0  0  0  0  0
   -0.6071    6.1530    0.0000 C   0  0  0  0  0  0  0  0  0  0  0  0
   -1.8433    7.0026    0.0000 O   0  0  0  0  0  0  0  0  0  0  0  0
    0.7468    6.7987    0.0000 N   0  0  0  0  0  0  0  0  0  0  0  0
    0.8645    8.2941    0.0000 C   0  0  0  0  0  0  0  0  0  0  0  0
   -0.2761    9.2683    0.0000 N   0  0  0  0  0  0  0  0  0  0  0  0
    0.2979   10.6541    0.0000 N   0  0  0  0  0  0  0  0  0  0  0  0
    1.7933   10.5364    0.0000 N   0  0  0  0  0  0  0  0  0  0  0  0
    2.1435    9.0779    0.0000 N   0  0  0  0  0  0  0  0  0  0  0  0
    3.5293    8.5038    0.0000 C   0  0  0  0  0  0  0  0  0  0  0  0
    3.7251    7.0167    0.0000 C   0  0  0  0  0  0  0  0  0  0  0  0
    5.1109    6.4427    0.0000 C   0  0  0  0  0  0  0  0  0  0  0  0
    6.3009    7.3558    0.0000 C   0  0  0  0  0  0  0  0  0  0  0  0
    6.1051    8.8430    0.0000 C   0  0  0  0  0  0  0  0  0  0  0  0
    4.7193    9.4170    0.0000 C   0  0  0  0  0  0  0  0  0  0  0  0
    4.5235   10.9042    0.0000 C   0  0  0  0  0  0  0  0  0  0  0  0
    5.7136   11.8173    0.0000 C   0  0  0  0  0  0  0  0  0  0  0  0
    5.5178   13.3045    0.0000 C   0  0  0  0  0  0  0  0  0  0  0  0
    4.1319   13.8785    0.0000 C   0  0  0  0  0  0  0  0  0  0  0  0
    3.9362   15.3657    0.0000 Cl  0  0  0  0  0  0  0  0  0  0  0  0
    2.9419   12.9653    0.0000 C   0  0  0  0  0  0  0  0  0  0  0  0
    3.1377   11.4782    0.0000 C   0  0  0  0  0  0  0  0  0  0  0  0
    0.6118    3.9766    0.0000 C   0  0  0  0  0  0  0  0  0  0  0  0
    1.0753    2.5500    0.0000 C   0  0  0  0  0  0  0  0  0  0  0  0
    0.3943    1.2135    0.0000 C   0  0  0  0  0  0  0  0  0  0  0  0
    1.2760    0.0000    0.0000 C   0  0  0  0  0  0  0  0  0  0  0  0
    0.3943   -1.2135    0.0000 C   0  0  0  0  0  0  0  0  0  0  0  0
   -1.0323   -0.7500    0.0000 C   0  0  0  0  0  0  0  0  0  0  0  0
   -1.0323    0.7500    0.0000 C   0  0  0  0  0  0  0  0  0  0  0  0
  1  2  1  0
  2  3  1  0
  3  4  1  0
  4  5  1  0
  5  6  1  0
  6  7  2  0
  6  8  1  0
  8  9  1  0
  9 10  2  0
 10 11  1  0
 11 12  2  0
 12 13  1  0
 13 14  1  0
 14 15  2  0
 15 16  1  0
 16 17  2  0
 17 18  1  0
 18 19  2  0
 19 20  1  0
 20 21  2  0
 21 22  1  0
 22 23  2  0
 23 24  1  0
 23 25  1  0
 25 26  2  0
  5 27  2  0
 27 28  1  0
 28 29  2  0
 29 30  1  0
 30 31  2  0
 31 32  1  0
 32 33  2  0
 33  2  1  0
 13  9  1  0
 19 14  1  0
 26 20  1  0
 33 29  1  0
M  END
>  <Title>  (289) 
idAAJEgen6

$$$$

     RDKit          2D

 32 35  0  0  0  0  0  0  0  0999 V2000
    9.6478    0.2453    0.0000 C   0  0  0  0  0  0  0  0  0  0  0  0
    8.6441   -0.8694    0.0000 C   0  0  0  0  0  0  0  0  0  0  0  0
    7.1523   -0.7126    0.0000 C   0  0  0  0  0  0  0  0  0  0  0  0
    6.5422   -2.0829    0.0000 C   0  0  0  0  0  0  0  0  0  0  0  0
    7.6569   -3.0866    0.0000 C   0  0  0  0  0  0  0  0  0  0  0  0
    7.5001   -4.5784    0.0000 C   0  0  0  0  0  0  0  0  0  0  0  0
    8.7136   -5.4601    0.0000 O   0  0  0  0  0  0  0  0  0  0  0  0
    6.1298   -5.1885    0.0000 N   0  0  0  0  0  0  0  0  0  0  0  0
    5.9730   -6.6803    0.0000 C   0  0  0  0  0  0  0  0  0  0  0  0
    7.0877   -7.6840    0.0000 N   0  0  0  0  0  0  0  0  0  0  0  0
    6.4776   -9.0543    0.0000 N   0  0  0  0  0  0  0  0  0  0  0  0
    4.9858   -8.8975    0.0000 N   0  0  0  0  0  0  0  0  0  0  0  0
    4.6740   -7.4303    0.0000 N   0  0  0  0  0  0  0  0  0  0  0  0
    3.3037   -6.8202    0.0000 C   0  0  0  0  0  0  0  0  0  0  0  0
    2.0046   -7.5702    0.0000 C   0  0  0  0  0  0  0  0  0  0  0  0
    0.8899   -6.5665    0.0000 C   0  0  0  0  0  0  0  0  0  0  0  0
    1.5000   -5.1962    0.0000 C   0  0  0  0  0  0  0  0  0  0  0  0
    0.7500   -3.8971    0.0000 N   0  0  0  0  0  0  0  0  0  0  0  0
    1.5000   -2.5981    0.0000 C   0  0  0  0  0  0  0  0  0  0  0  0
    3.0000   -2.5981    0.0000 O   0  0  0  0  0  0  0  0  0  0  0  0
    0.7500   -1.2990    0.0000 N   0  0  0  0  0  0  0  0  0  0  0  0
    1.5000    0.0000    0.0000 C   0  0  0  0  0  0  0  0  0  0  0  0
    0.7500    1.2990    0.0000 C   0  0  0  0  0  0  0  0  0  0  0  0
   -0.7500    1.2990    0.0000 N   0  0  0  0  0  0  0  0  0  0  0  0
   -1.5000    2.5981    0.0000 N   0  0  0  0  0  0  0  0  0  0  0  0
   -0.7500    3.8971    0.0000 C   0  0  0  0  0  0  0  0  0  0  0  0
   -3.0000    2.5981    0.0000 C   0  0  0  0  0  0  0  0  0  0  0  0
   -1.5000    0.0000    0.0000 C   0  0  0  0  0  0  0  0  0  0  0  0
   -0.7500   -1.2990    0.0000 C   0  0  0  0  0  0  0  0  0  0  0  0
    2.9918   -5.3529    0.0000 C   0  0  0  0  0  0  0  0  0  0  0  0
    3.9955   -4.2382    0.0000 O   0  0  0  0  0  0  0  0  0  0  0  0
    8.9559   -2.3366    0.0000 C   0  0  0  0  0  0  0  0  0  0  0  0
  1  2  1  0
  2  3  1  0
  3  4  1  0
  4  5  1  0
  5  6  1  0
  6  7  2  0
  6  8  1  0
  8  9  1  0
  9 10  2  0
 10 11  1  0
 11 12  2  0
 12 13  1  0
 13 14  1  0
 14 15  2  0
 15 16  1  0
 16 17  2  0
 17 18  1  0
 18 19  1  0
 19 20  2  0
 19 21  1  0
 21 22  1  0
 22 23  2  0
 23 24  1  0
 24 25  1  0
 25 26  1  0
 25 27  1  0
 24 28  1  0
 28 29  1  0
 17 30  1  0
 30 31  2  0
  5 32  1  0
 32  2  1  0
 13  9  1  0
 30 14  1  0
 29 21  1  0
M  END
>  <Title>  (290) 
idAAJFgen6

$$$$

     RDKit          2D

 13 13  0  0  0  0  0  0  0  0999 V2000
    5.2500   -2.7990    0.0000 C   0  0  0  0  0  0  0  0  0  0  0  0
    5.2500   -1.2990    0.0000 C   0  0  0  0  0  0  0  0  0  0  0  0
    5.2500    0.2010    0.0000 C   0  0  0  0  0  0  0  0  0  0  0  0
    6.7500   -1.2990    0.0000 C   0  0  0  0  0  0  0  0  0  0  0  0
    3.7500   -1.2990    0.0000 O   0  0  0  0  0  0  0  0  0  0  0  0
    3.0000    0.0000    0.0000 C   0  0  0  0  0  0  0  0  0  0  0  0
    3.7500    1.2990    0.0000 O   0  0  0  0  0  0  0  0  0  0  0  0
    1.5000    0.0000    0.0000 C   0  0  0  0  0  0  0  0  0  0  0  0
    0.7500   -1.2990    0.0000 C   0  0  0  0  0  0  0  0  0  0  0  0
   -0.7500   -1.2990    0.0000 C   0  0  0  0  0  0  0  0  0  0  0  0
   -1.5000    0.0000    0.0000 C   0  0  0  0  0  0  0  0  0  0  0  0
   -0.7500    1.2990    0.0000 C   0  0  0  0  0  0  0  0  0  0  0  0
    0.7500    1.2990    0.0000 C   0  0  0  0  0  0  0  0  0  0  0  0
  1  2  1  0
  2  3  1  0
  2  4  1  0
  2  5  1  0
  5  6  1  0
  6  7  2  0
  6  8  1  0
  8  9  2  0
  9 10  1  0
 10 11  2  0
 11 12  1  0
 12 13  2  0
 13  8  1  0
M  END
>  <Title>  (291) 
idAAJGgen6

$$$$

     RDKit          2D

  7  6  0  0  0  0  0  0  0  0999 V2000
    0.0000    0.0000    0.0000 C   0  0  0  0  0  0  0  0  0  0  0  0
    1.2990    0.7500    0.0000 C   0  0  0  0  0  0  0  0  0  0  0  0
    1.2990    2.2500    0.0000 O   0  0  0  0  0  0  0  0  0  0  0  0
    2.5981   -0.0000    0.0000 C   0  0  0  0  0  0  0  0  0  0  0  0
    3.3481    1.2990    0.0000 C   0  0  0  0  0  0  0  0  0  0  0  0
    1.8481   -1.2990    0.0000 C   0  0  0  0  0  0  0  0  0  0  0  0
    3.8971   -0.7500    0.0000 C   0  0  0  0  0  0  0  0  0  0  0  0
  1  2  1  0
  2  3  2  0
  2  4  1  0
  4  5  1  0
  4  6  1  0
  4  7  1  0
M  END
>  <Title>  (292) 
idAAJHgen6

$$$$

     RDKit          2D

 25 27  0  0  0  0  0  0  0  0999 V2000
    4.9560   -3.1189    0.0000 C   0  0  0  0  0  0  0  0  0  0  0  0
    3.8954   -2.0583    0.0000 C   0  0  0  0  0  0  0  0  0  0  0  0
    4.2836   -0.6094    0.0000 O   0  0  0  0  0  0  0  0  0  0  0  0
    2.4465   -2.4465    0.0000 C   0  0  0  0  0  0  0  0  0  0  0  0
    2.0583   -3.8954    0.0000 C   0  0  0  0  0  0  0  0  0  0  0  0
    3.1189   -4.9560    0.0000 C   0  0  0  0  0  0  0  0  0  0  0  0
    2.7307   -6.4049    0.0000 C   0  0  0  0  0  0  0  0  0  0  0  0
    3.7913   -7.4656    0.0000 C   0  0  0  0  0  0  0  0  0  0  0  0
    5.2402   -7.0773    0.0000 C   0  0  0  0  0  0  0  0  0  0  0  0
    5.6285   -5.6285    0.0000 C   0  0  0  0  0  0  0  0  0  0  0  0
    4.5678   -4.5678    0.0000 C   0  0  0  0  0  0  0  0  0  0  0  0
    1.3858   -1.3858    0.0000 C   0  0  0  0  0  0  0  0  0  0  0  0
    1.9598    0.0000    0.0000 C   0  0  0  0  0  0  0  0  0  0  0  0
    1.3858    1.3858    0.0000 C   0  0  0  0  0  0  0  0  0  0  0  0
    0.0000    1.9598    0.0000 C   0  0  0  0  0  0  0  0  0  0  0  0
   -1.3858    1.3858    0.0000 C   0  0  0  0  0  0  0  0  0  0  0  0
   -1.9598    0.0000    0.0000 C   0  0  0  0  0  0  0  0  0  0  0  0
   -1.3858   -1.3858    0.0000 C   0  0  0  0  0  0  0  0  0  0  0  0
   -2.4465   -2.4465    0.0000 C   0  0  0  0  0  0  0  0  0  0  0  0
   -3.8954   -2.0583    0.0000 C   0  0  0  0  0  0  0  0  0  0  0  0
   -4.9560   -3.1189    0.0000 C   0  0  0  0  0  0  0  0  0  0  0  0
   -4.5678   -4.5678    0.0000 C   0  0  0  0  0  0  0  0  0  0  0  0
   -3.1189   -4.9560    0.0000 C   0  0  0  0  0  0  0  0  0  0  0  0
   -2.0583   -3.8954    0.0000 C   0  0  0  0  0  0  0  0  0  0  0  0
   -0.0000   -1.9598    0.0000 C   0  0  0  0  0  0  0  0  0  0  0  0
  1  2  1  0
  2  3  2  0
  2  4  1  0
  4  5  1  0
  5  6  1  0
  6  7  2  0
  7  8  1  0
  8  9  2  0
  9 10  1  0
 10 11  2  0
  4 12  1  0
 12 13  1  0
 13 14  1  0
 14 15  1  0
 15 16  1  0
 16 17  2  0
 17 18  1  0
 18 19  1  0
 19 20  2  0
 20 21  1  0
 21 22  2  0
 22 23  1  0
 23 24  2  0
 18 25  1  0
 11  6  1  0
 25 12  1  0
 24 19  1  0
M  END
>  <Title>  (293) 
idAAJIgen6

$$$$

     RDKit          2D

 18 19  0  0  0  0  0  0  0  0999 V2000
    4.3978    0.0000    0.0000 C   0  0  0  0  0  0  0  0  0  0  0  0
    2.8978    0.0000    0.0000 C   0  0  0  0  0  0  0  0  0  0  0  0
    2.5095   -1.4489    0.0000 C   0  0  0  0  0  0  0  0  0  0  0  0
    1.4489   -2.5095    0.0000 C   0  0  0  0  0  0  0  0  0  0  0  0
   -0.0000   -2.8978    0.0000 C   0  0  0  0  0  0  0  0  0  0  0  0
   -1.4489   -2.5095    0.0000 C   0  0  0  0  0  0  0  0  0  0  0  0
   -2.5095   -1.4489    0.0000 C   0  0  0  0  0  0  0  0  0  0  0  0
   -2.8978    0.0000    0.0000 C   0  0  0  0  0  0  0  0  0  0  0  0
   -2.5095    1.4489    0.0000 C   0  0  0  0  0  0  0  0  0  0  0  0
   -1.4489    2.5095    0.0000 C   0  0  0  0  0  0  0  0  0  0  0  0
    0.0000    2.8978    0.0000 C   0  0  0  0  0  0  0  0  0  0  0  0
    1.4489    2.5095    0.0000 C   0  0  0  0  0  0  0  0  0  0  0  0
    1.8371    3.9584    0.0000 C   0  0  0  0  0  0  0  0  0  0  0  0
    3.2860    4.3467    0.0000 C   0  0  0  0  0  0  0  0  0  0  0  0
    4.3467    3.2860    0.0000 C   0  0  0  0  0  0  0  0  0  0  0  0
    5.7956    3.6742    0.0000 O   0  0  0  0  0  0  0  0  0  0  0  0
    3.9584    1.8371    0.0000 C   0  0  0  0  0  0  0  0  0  0  0  0
    2.5095    1.4489    0.0000 C   0  0  0  0  0  0  0  0  0  0  0  0
  1  2  1  0
  2  3  1  0
  3  4  1  0
  4  5  1  0
  5  6  1  0
  6  7  1  0
  7  8  1  0
  8  9  1  0
  9 10  1  0
 10 11  1  0
 11 12  1  0
 12 13  2  0
 13 14  1  0
 14 15  2  0
 15 16  1  0
 15 17  1  0
 17 18  2  0
 18  2  1  0
 18 12  1  0
M  END
>  <Title>  (294) 
idAAJJgen6

$$$$

     RDKit          2D

 11 11  0  0  0  0  0  0  0  0999 V2000
    3.0000    0.0000    0.0000 C   0  0  0  0  0  0  0  0  0  0  0  0
    1.5000    0.0000    0.0000 C   0  0  0  0  0  0  0  0  0  0  0  0
    0.7500   -1.2990    0.0000 C   0  0  0  0  0  0  0  0  0  0  0  0
   -0.7500   -1.2990    0.0000 C   0  0  0  0  0  0  0  0  0  0  0  0
   -1.5000    0.0000    0.0000 C   0  0  0  0  0  0  0  0  0  0  0  0
   -3.0000    0.0000    0.0000 O   0  0  0  0  0  0  0  0  0  0  0  0
   -0.7500    1.2990    0.0000 C   0  0  0  0  0  0  0  0  0  0  0  0
    0.7500    1.2990    0.0000 C   0  0  0  0  0  0  0  0  0  0  0  0
    1.5000    2.5981    0.0000 C   0  0  0  0  0  0  0  0  0  0  0  0
    0.7500    3.8971    0.0000 C   0  0  0  0  0  0  0  0  0  0  0  0
    0.0000    5.1962    0.0000 N   0  0  0  0  0  0  0  0  0  0  0  0
  1  2  1  0
  2  3  1  0
  3  4  1  0
  4  5  1  0
  5  6  1  0
  5  7  1  0
  7  8  1  0
  8  9  1  0
  9 10  1  0
 10 11  3  0
  8  2  1  0
M  END
>  <Title>  (295) 
idAAJKgen6

$$$$

     RDKit          2D

 28 32  0  0  0  0  0  0  0  0999 V2000
   -3.7548   -2.1855    0.0000 O   0  0  0  0  0  0  0  0  0  0  0  0
   -2.6401   -3.1891    0.0000 C   0  0  0  0  0  0  0  0  0  0  0  0
   -2.9520   -4.6564    0.0000 C   0  0  0  0  0  0  0  0  0  0  0  0
   -4.3786   -5.1199    0.0000 C   0  0  0  0  0  0  0  0  0  0  0  0
   -4.6904   -6.5871    0.0000 C   0  0  0  0  0  0  0  0  0  0  0  0
   -3.5757   -7.5908    0.0000 C   0  0  0  0  0  0  0  0  0  0  0  0
   -3.8876   -9.0580    0.0000 N   0  0  0  0  0  0  0  0  0  0  0  0
   -2.8839  -10.1728    0.0000 C   0  0  0  0  0  0  0  0  0  0  0  0
   -3.6339  -11.4718    0.0000 C   0  0  0  0  0  0  0  0  0  0  0  0
   -5.1011  -11.1599    0.0000 C   0  0  0  0  0  0  0  0  0  0  0  0
   -6.2158  -12.1636    0.0000 C   0  0  0  0  0  0  0  0  0  0  0  0
   -7.6424  -11.7001    0.0000 C   0  0  0  0  0  0  0  0  0  0  0  0
   -8.7571  -12.7038    0.0000 C   0  0  0  0  0  0  0  0  0  0  0  0
   -8.4453  -14.1710    0.0000 C   0  0  0  0  0  0  0  0  0  0  0  0
   -7.0187  -14.6345    0.0000 C   0  0  0  0  0  0  0  0  0  0  0  0
   -5.9040  -13.6308    0.0000 C   0  0  0  0  0  0  0  0  0  0  0  0
   -5.2579   -9.6681    0.0000 O   0  0  0  0  0  0  0  0  0  0  0  0
   -2.1491   -7.1273    0.0000 C   0  0  0  0  0  0  0  0  0  0  0  0
   -1.8373   -5.6601    0.0000 C   0  0  0  0  0  0  0  0  0  0  0  0
   -1.2135   -2.7256    0.0000 N   0  0  0  0  0  0  0  0  0  0  0  0
   -0.0000   -3.6073    0.0000 C   0  0  0  0  0  0  0  0  0  0  0  0
    1.2135   -2.7256    0.0000 C   0  0  0  0  0  0  0  0  0  0  0  0
    0.7500   -1.2990    0.0000 C   0  0  0  0  0  0  0  0  0  0  0  0
    1.5000    0.0000    0.0000 C   0  0  0  0  0  0  0  0  0  0  0  0
    0.7500    1.2990    0.0000 C   0  0  0  0  0  0  0  0  0  0  0  0
   -0.7500    1.2990    0.0000 C   0  0  0  0  0  0  0  0  0  0  0  0
   -1.5000    0.0000    0.0000 C   0  0  0  0  0  0  0  0  0  0  0  0
   -0.7500   -1.2990    0.0000 C   0  0  0  0  0  0  0  0  0  0  0  0
  1  2  2  0
  2  3  1  0
  3  4  2  0
  4  5  1  0
  5  6  2  0
  6  7  1  0
  7  8  1  0
  8  9  1  0
  9 10  1  0
 10 11  1  0
 11 12  2  0
 12 13  1  0
 13 14  2  0
 14 15  1  0
 15 16  2  0
 10 17  1  0
  6 18  1  0
 18 19  1  0
  2 20  1  0
 20 21  1  0
 21 22  2  0
 22 23  1  0
 23 24  2  0
 24 25  1  0
 25 26  2  0
 26 27  1  0
 27 28  2  0
 19  3  1  0
 28 20  1  0
 17  7  1  0
 28 23  1  0
 16 11  1  0
M  END
>  <Title>  (296) 
idAAJLgen6

$$$$

     RDKit          2D

  7  7  0  0  0  0  0  0  0  0999 V2000
    3.5260   -1.2990    0.0000 C   0  0  0  0  0  0  0  0  0  0  0  0
    2.7760    0.0000    0.0000 O   0  0  0  0  0  0  0  0  0  0  0  0
    1.2760    0.0000    0.0000 C   0  0  0  0  0  0  0  0  0  0  0  0
    0.3943    1.2135    0.0000 C   0  0  0  0  0  0  0  0  0  0  0  0
   -1.0323    0.7500    0.0000 C   0  0  0  0  0  0  0  0  0  0  0  0
   -1.0323   -0.7500    0.0000 C   0  0  0  0  0  0  0  0  0  0  0  0
    0.3943   -1.2135    0.0000 C   0  0  0  0  0  0  0  0  0  0  0  0
  1  2  1  0
  2  3  1  0
  3  4  2  0
  4  5  1  0
  5  6  1  0
  6  7  2  0
  7  3  1  0
M  END
>  <Title>  (297) 
idAAJMgen6

$$$$

     RDKit          2D

 19 20  0  0  0  0  0  0  0  0999 V2000
    3.4598   -0.0000    0.0000 C   0  0  0  0  0  0  0  0  0  0  0  0
    1.9598    0.0000    0.0000 C   0  0  0  0  0  0  0  0  0  0  0  0
    1.3858   -1.3858    0.0000 C   0  0  0  0  0  0  0  0  0  0  0  0
   -0.0000   -1.9598    0.0000 C   0  0  0  0  0  0  0  0  0  0  0  0
   -1.3858   -1.3858    0.0000 C   0  0  0  0  0  0  0  0  0  0  0  0
   -2.4465   -2.4465    0.0000 C   0  0  0  0  0  0  0  0  0  0  0  0
   -2.0583   -3.8954    0.0000 O   0  0  0  0  0  0  0  0  0  0  0  0
   -3.8954   -2.0583    0.0000 N   0  0  0  0  0  0  0  0  0  0  0  0
   -4.9560   -3.1189    0.0000 C   0  0  0  0  0  0  0  0  0  0  0  0
   -6.4049   -2.7307    0.0000 N   0  0  0  0  0  0  0  0  0  0  0  0
   -7.4656   -3.7913    0.0000 N   0  0  0  0  0  0  0  0  0  0  0  0
   -7.0773   -5.2402    0.0000 N   0  0  0  0  0  0  0  0  0  0  0  0
   -5.6285   -5.6285    0.0000 N   0  0  0  0  0  0  0  0  0  0  0  0
   -4.5678   -4.5678    0.0000 N   0  0  0  0  0  0  0  0  0  0  0  0
   -1.9598    0.0000    0.0000 C   0  0  0  0  0  0  0  0  0  0  0  0
   -1.3858    1.3858    0.0000 C   0  0  0  0  0  0  0  0  0  0  0  0
    0.0000    1.9598    0.0000 C   0  0  0  0  0  0  0  0  0  0  0  0
    0.0000    3.4598    0.0000 C   0  0  0  0  0  0  0  0  0  0  0  0
    1.3858    1.3858    0.0000 C   0  0  0  0  0  0  0  0  0  0  0  0
  1  2  1  0
  2  3  1  0
  3  4  2  0
  4  5  1  0
  5  6  1  0
  6  7  2  0
  6  8  1  0
  8  9  1  0
  9 10  2  0
 10 11  1  0
 11 12  2  0
 12 13  1  0
 13 14  2  0
  5 15  1  0
 15 16  1  0
 16 17  1  0
 17 18  1  0
 17 19  1  0
 19  2  1  0
 14  9  1  0
M  END
>  <Title>  (298) 
idAAJNgen6

$$$$

     RDKit          2D

  4  3  0  0  0  0  0  0  0  0999 V2000
    0.0000    0.0000    0.0000 C   0  0  0  0  0  0  0  0  0  0  0  0
    1.2990    0.7500    0.0000 C   0  0  0  0  0  0  0  0  0  0  0  0
    1.2990    2.2500    0.0000 O   0  0  0  0  0  0  0  0  0  0  0  0
    2.5981   -0.0000    0.0000 O   0  0  0  0  0  0  0  0  0  0  0  0
  1  2  1  0
  2  3  2  0
  2  4  1  0
M  END
>  <Title>  (299) 
idAAJOgen6

$$$$

     RDKit          2D

 45 51  0  0  0  0  0  0  0  0999 V2000
    3.7500   -1.2990    0.0000 C   0  0  0  0  0  0  0  0  0  0  0  0
    3.0000   -0.0000    0.0000 O   0  0  0  0  0  0  0  0  0  0  0  0
    1.5000   -0.0000    0.0000 C   0  0  0  0  0  0  0  0  0  0  0  0
    0.7500   -1.2990    0.0000 C   0  0  0  0  0  0  0  0  0  0  0  0
   -0.7500   -1.2990    0.0000 C   0  0  0  0  0  0  0  0  0  0  0  0
   -1.5000    0.0000    0.0000 C   0  0  0  0  0  0  0  0  0  0  0  0
   -0.7500    1.2990    0.0000 C   0  0  0  0  0  0  0  0  0  0  0  0
   -1.5000    2.5981    0.0000 C   0  0  0  0  0  0  0  0  0  0  0  0
   -2.9918    2.7549    0.0000 C   0  0  0  0  0  0  0  0  0  0  0  0
   -3.3037    4.2221    0.0000 C   0  0  0  0  0  0  0  0  0  0  0  0
   -2.0046    4.9721    0.0000 C   0  0  0  0  0  0  0  0  0  0  0  0
   -1.8478    6.4639    0.0000 C   0  0  0  0  0  0  0  0  0  0  0  0
   -3.0613    7.3456    0.0000 C   0  0  0  0  0  0  0  0  0  0  0  0
   -2.9046    8.8373    0.0000 C   0  0  0  0  0  0  0  0  0  0  0  0
   -1.5342    9.4474    0.0000 C   0  0  0  0  0  0  0  0  0  0  0  0
   -0.3207    8.5658    0.0000 C   0  0  0  0  0  0  0  0  0  0  0  0
   -0.4775    7.0740    0.0000 C   0  0  0  0  0  0  0  0  0  0  0  0
   -0.8899    3.9684    0.0000 C   0  0  0  0  0  0  0  0  0  0  0  0
    0.5773    4.2803    0.0000 C   0  0  0  0  0  0  0  0  0  0  0  0
    1.5810    3.1655    0.0000 C   0  0  0  0  0  0  0  0  0  0  0  0
    3.0482    3.4774    0.0000 C   0  0  0  0  0  0  0  0  0  0  0  0
    3.5118    4.9040    0.0000 C   0  0  0  0  0  0  0  0  0  0  0  0
    2.5081    6.0187    0.0000 C   0  0  0  0  0  0  0  0  0  0  0  0
    1.0409    5.7068    0.0000 C   0  0  0  0  0  0  0  0  0  0  0  0
    0.0372    6.8216    0.0000 C   0  0  0  0  0  0  0  0  0  0  0  0
    0.5007    8.2481    0.0000 C   0  0  0  0  0  0  0  0  0  0  0  0
   -0.5030    9.3629    0.0000 C   0  0  0  0  0  0  0  0  0  0  0  0
   -1.9702    9.0510    0.0000 C   0  0  0  0  0  0  0  0  0  0  0  0
   -2.4338    7.6244    0.0000 C   0  0  0  0  0  0  0  0  0  0  0  0
   -1.4301    6.5097    0.0000 C   0  0  0  0  0  0  0  0  0  0  0  0
   -1.8936    5.0831    0.0000 C   0  0  0  0  0  0  0  0  0  0  0  0
   -1.0119    3.8696    0.0000 C   0  0  0  0  0  0  0  0  0  0  0  0
   -1.8936    2.6561    0.0000 C   0  0  0  0  0  0  0  0  0  0  0  0
   -3.3202    3.1196    0.0000 C   0  0  0  0  0  0  0  0  0  0  0  0
   -4.5337    2.2379    0.0000 N   0  0  0  0  0  0  0  0  0  0  0  0
   -5.9040    2.8480    0.0000 C   0  0  0  0  0  0  0  0  0  0  0  0
   -6.0608    4.3398    0.0000 O   0  0  0  0  0  0  0  0  0  0  0  0
   -7.1175    1.9663    0.0000 C   0  0  0  0  0  0  0  0  0  0  0  0
   -8.4879    2.5764    0.0000 C   0  0  0  0  0  0  0  0  0  0  0  0
   -9.7014    1.6948    0.0000 C   0  0  0  0  0  0  0  0  0  0  0  0
   -9.5446    0.2030    0.0000 C   0  0  0  0  0  0  0  0  0  0  0  0
   -8.1743   -0.4071    0.0000 C   0  0  0  0  0  0  0  0  0  0  0  0
   -6.9608    0.4746    0.0000 C   0  0  0  0  0  0  0  0  0  0  0  0
   -3.3202    4.6196    0.0000 N   0  0  0  0  0  0  0  0  0  0  0  0
    0.7500    1.2990    0.0000 C   0  0  0  0  0  0  0  0  0  0  0  0
  1  2  1  0
  2  3  1  0
  3  4  2  0
  4  5  1  0
  5  6  1  0
  6  7  2  0
  7  8  1  0
  8  9  1  0
  9 10  1  0
 10 11  1  0
 11 12  1  0
 12 13  2  0
 13 14  1  0
 14 15  2  0
 15 16  1  0
 16 17  2  0
 11 18  1  0
 18 19  1  0
 19 20  2  0
 20 21  1  0
 21 22  2  0
 22 23  1  0
 23 24  2  0
 24 25  1  0
 25 26  2  0
 26 27  1  0
 27 28  2  0
 28 29  1  0
 29 30  2  0
 30 31  1  0
 31 32  2  0
 32 33  1  0
 33 34  2  0
 34 35  1  0
 35 36  1  0
 36 37  2  0
 36 38  1  0
 38 39  2  0
 39 40  1  0
 40 41  2  0
 41 42  1  0
 42 43  2  0
 34 44  1  0
  7 45  1  0
 45  3  1  0
 18  8  1  0
 24 19  1  0
 30 25  1  0
 44 31  1  0
 17 12  1  0
 43 38  1  0
M  END
>  <Title>  (300) 
idAAJPgen6

$$$$

     RDKit          2D

  8  8  0  0  0  0  0  0  0  0999 V2000
    3.5260   -1.2990    0.0000 C   0  0  0  0  0  0  0  0  0  0  0  0
    2.7760    0.0000    0.0000 O   0  0  0  0  0  0  0  0  0  0  0  0
    1.2760    0.0000    0.0000 C   0  0  0  0  0  0  0  0  0  0  0  0
    0.3943    1.2135    0.0000 C   0  0  0  0  0  0  0  0  0  0  0  0
   -1.0323    0.7500    0.0000 C   0  0  0  0  0  0  0  0  0  0  0  0
   -1.0323   -0.7500    0.0000 C   0  0  0  0  0  0  0  0  0  0  0  0
   -2.2458   -1.6317    0.0000 C   0  0  0  0  0  0  0  0  0  0  0  0
    0.3943   -1.2135    0.0000 C   0  0  0  0  0  0  0  0  0  0  0  0
  1  2  1  0
  2  3  1  0
  3  4  2  0
  4  5  1  0
  5  6  2  0
  6  7  1  0
  6  8  1  0
  8  3  1  0
M  END
>  <Title>  (301) 
idAAJQgen6

$$$$

     RDKit          2D

  7  7  0  0  0  0  0  0  0  0999 V2000
    3.0000    0.0000    0.0000 C   0  0  0  0  0  0  0  0  0  0  0  0
    1.5000    0.0000    0.0000 C   0  0  0  0  0  0  0  0  0  0  0  0
    0.7500   -1.2990    0.0000 C   0  0  0  0  0  0  0  0  0  0  0  0
   -0.7500   -1.2990    0.0000 C   0  0  0  0  0  0  0  0  0  0  0  0
   -1.5000    0.0000    0.0000 N   0  0  0  0  0  0  0  0  0  0  0  0
   -0.7500    1.2990    0.0000 N   0  0  0  0  0  0  0  0  0  0  0  0
    0.7500    1.2990    0.0000 N   0  0  0  0  0  0  0  0  0  0  0  0
  1  2  1  0
  2  3  2  0
  3  4  1  0
  4  5  2  0
  5  6  1  0
  6  7  2  0
  7  2  1  0
M  END
>  <Title>  (302) 
idAAJRgen6

$$$$

     RDKit          2D

 23 25  0  0  0  0  0  0  0  0999 V2000
   -4.1679   -3.2376    0.0000 C   0  0  0  0  0  0  0  0  0  0  0  0
   -3.1476   -2.1380    0.0000 O   0  0  0  0  0  0  0  0  0  0  0  0
   -1.6852   -2.4718    0.0000 C   0  0  0  0  0  0  0  0  0  0  0  0
   -1.3515   -3.9342    0.0000 C   0  0  0  0  0  0  0  0  0  0  0  0
   -0.0000   -4.5850    0.0000 C   0  0  0  0  0  0  0  0  0  0  0  0
    1.3515   -3.9342    0.0000 C   0  0  0  0  0  0  0  0  0  0  0  0
    1.6852   -2.4718    0.0000 C   0  0  0  0  0  0  0  0  0  0  0  0
    3.1476   -2.1380    0.0000 C   0  0  0  0  0  0  0  0  0  0  0  0
    3.5898   -0.7046    0.0000 O   0  0  0  0  0  0  0  0  0  0  0  0
    4.1679   -3.2376    0.0000 N   0  0  0  0  0  0  0  0  0  0  0  0
    5.6303   -2.9038    0.0000 C   0  0  0  0  0  0  0  0  0  0  0  0
    6.6505   -4.0034    0.0000 N   0  0  0  0  0  0  0  0  0  0  0  0
    8.1129   -3.6696    0.0000 N   0  0  0  0  0  0  0  0  0  0  0  0
    8.5551   -2.2362    0.0000 N   0  0  0  0  0  0  0  0  0  0  0  0
    7.5348   -1.1367    0.0000 N   0  0  0  0  0  0  0  0  0  0  0  0
    6.0724   -1.4704    0.0000 N   0  0  0  0  0  0  0  0  0  0  0  0
    0.7500   -1.2990    0.0000 C   0  0  0  0  0  0  0  0  0  0  0  0
    1.5000    0.0000    0.0000 C   0  0  0  0  0  0  0  0  0  0  0  0
    0.7500    1.2990    0.0000 C   0  0  0  0  0  0  0  0  0  0  0  0
   -0.7500    1.2990    0.0000 C   0  0  0  0  0  0  0  0  0  0  0  0
   -1.5000    2.5981    0.0000 O   0  0  0  0  0  0  0  0  0  0  0  0
   -1.5000    0.0000    0.0000 C   0  0  0  0  0  0  0  0  0  0  0  0
   -0.7500   -1.2990    0.0000 C   0  0  0  0  0  0  0  0  0  0  0  0
  1  2  1  0
  2  3  1  0
  3  4  2  0
  4  5  1  0
  5  6  2  0
  6  7  1  0
  7  8  1  0
  8  9  2  0
  8 10  1  0
 10 11  1  0
 11 12  2  0
 12 13  1  0
 13 14  2  0
 14 15  1  0
 15 16  2  0
  7 17  1  0
 17 18  2  0
 18 19  1  0
 19 20  2  0
 20 21  1  0
 20 22  1  0
 22 23  2  0
 23  3  1  0
 16 11  1  0
 23 17  1  0
M  END
>  <Title>  (303) 
idAAJSgen6

$$$$

     RDKit          2D

 27 30  0  0  0  0  0  0  0  0999 V2000
   -0.7500   -3.8971    0.0000 O   0  0  0  0  0  0  0  0  0  0  0  0
    0.7500   -3.8971    0.0000 C   0  0  0  0  0  0  0  0  0  0  0  0
    1.5000   -2.5981    0.0000 N   0  0  0  0  0  0  0  0  0  0  0  0
    0.7500   -1.2990    0.0000 C   0  0  0  0  0  0  0  0  0  0  0  0
    1.5000    0.0000    0.0000 C   0  0  0  0  0  0  0  0  0  0  0  0
    0.7500    1.2990    0.0000 C   0  0  0  0  0  0  0  0  0  0  0  0
   -0.7500    1.2990    0.0000 C   0  0  0  0  0  0  0  0  0  0  0  0
   -1.5000    0.0000    0.0000 C   0  0  0  0  0  0  0  0  0  0  0  0
   -0.7500   -1.2990    0.0000 C   0  0  0  0  0  0  0  0  0  0  0  0
    1.5000   -5.1962    0.0000 N   0  0  0  0  0  0  0  0  0  0  0  0
    0.7500   -6.4952    0.0000 C   0  0  0  0  0  0  0  0  0  0  0  0
    1.5000   -7.7942    0.0000 C   0  0  0  0  0  0  0  0  0  0  0  0
    3.0000   -7.7942    0.0000 C   0  0  0  0  0  0  0  0  0  0  0  0
    3.7500   -9.0933    0.0000 N   0  0  0  0  0  0  0  0  0  0  0  0
    3.0000  -10.3923    0.0000 C   0  0  0  0  0  0  0  0  0  0  0  0
    3.7500  -11.6913    0.0000 C   0  0  0  0  0  0  0  0  0  0  0  0
    5.2500  -11.6913    0.0000 C   0  0  0  0  0  0  0  0  0  0  0  0
    6.0000  -12.9904    0.0000 C   0  0  0  0  0  0  0  0  0  0  0  0
    5.2500  -14.2894    0.0000 C   0  0  0  0  0  0  0  0  0  0  0  0
    6.0000  -15.5885    0.0000 C   0  0  0  0  0  0  0  0  0  0  0  0
    7.5000  -15.5885    0.0000 C   0  0  0  0  0  0  0  0  0  0  0  0
    8.2500  -14.2894    0.0000 C   0  0  0  0  0  0  0  0  0  0  0  0
    7.5000  -12.9904    0.0000 C   0  0  0  0  0  0  0  0  0  0  0  0
    6.0000  -10.3923    0.0000 C   0  0  0  0  0  0  0  0  0  0  0  0
    5.2500   -9.0933    0.0000 C   0  0  0  0  0  0  0  0  0  0  0  0
    3.7500   -6.4952    0.0000 C   0  0  0  0  0  0  0  0  0  0  0  0
    3.0000   -5.1962    0.0000 C   0  0  0  0  0  0  0  0  0  0  0  0
  1  2  2  0
  2  3  1  0
  3  4  1  0
  4  5  2  0
  5  6  1  0
  6  7  2  0
  7  8  1  0
  8  9  2  0
  2 10  1  0
 10 11  1  0
 11 12  1  0
 12 13  1  0
 13 14  1  0
 14 15  1  0
 15 16  1  0
 16 17  1  0
 17 18  1  0
 18 19  2  0
 19 20  1  0
 20 21  2  0
 21 22  1  0
 22 23  2  0
 17 24  1  0
 24 25  1  0
 13 26  1  0
 26 27  1  0
  9  4  1  0
 27 10  1  0
 25 14  1  0
 23 18  1  0
M  END
>  <Title>  (304) 
idAAJTgen6

$$$$

     RDKit          2D

 11 11  0  0  0  0  0  0  0  0999 V2000
    2.7760    0.0000    0.0000 C   0  0  0  0  0  0  0  0  0  0  0  0
    1.2760    0.0000    0.0000 C   0  0  0  0  0  0  0  0  0  0  0  0
    0.3943    1.2135    0.0000 C   0  0  0  0  0  0  0  0  0  0  0  0
   -1.0323    0.7500    0.0000 C   0  0  0  0  0  0  0  0  0  0  0  0
   -1.0323   -0.7500    0.0000 C   0  0  0  0  0  0  0  0  0  0  0  0
   -2.2458   -1.6317    0.0000 C   0  0  0  0  0  0  0  0  0  0  0  0
   -2.0890   -3.1235    0.0000 O   0  0  0  0  0  0  0  0  0  0  0  0
   -3.6161   -1.0216    0.0000 N   0  0  0  0  0  0  0  0  0  0  0  0
   -4.8297   -1.9033    0.0000 C   0  0  0  0  0  0  0  0  0  0  0  0
   -3.7729    0.4702    0.0000 C   0  0  0  0  0  0  0  0  0  0  0  0
    0.3943   -1.2135    0.0000 C   0  0  0  0  0  0  0  0  0  0  0  0
  1  2  1  0
  2  3  1  0
  3  4  2  0
  4  5  1  0
  5  6  1  0
  6  7  2  0
  6  8  1  0
  8  9  1  0
  8 10  1  0
  5 11  1  0
 11  2  1  0
M  END
>  <Title>  (305) 
idAAJUgen6

$$$$

     RDKit          2D

 64 70  0  0  0  0  0  0  0  0999 V2000
   -7.5000    5.1962    0.0000 C   0  0  0  0  0  0  0  0  0  0  0  0
   -8.2500    3.8971    0.0000 C   0  0  0  0  0  0  0  0  0  0  0  0
   -7.5000    2.5981    0.0000 O   0  0  0  0  0  0  0  0  0  0  0  0
   -9.7500    3.8971    0.0000 C   0  0  0  0  0  0  0  0  0  0  0  0
  -10.5000    5.1962    0.0000 C   0  0  0  0  0  0  0  0  0  0  0  0
   -9.7500    6.4952    0.0000 C   0  0  0  0  0  0  0  0  0  0  0  0
   -8.2500    6.4952    0.0000 C   0  0  0  0  0  0  0  0  0  0  0  0
   -7.5000    7.7942    0.0000 C   0  0  0  0  0  0  0  0  0  0  0  0
   -8.2500    9.0933    0.0000 C   0  0  0  0  0  0  0  0  0  0  0  0
   -9.7500    9.0933    0.0000 C   0  0  0  0  0  0  0  0  0  0  0  0
  -10.5000    7.7942    0.0000 C   0  0  0  0  0  0  0  0  0  0  0  0
  -10.5000    2.5981    0.0000 N   0  0  0  0  0  0  0  0  0  0  0  0
   -9.7500    1.2990    0.0000 C   0  0  0  0  0  0  0  0  0  0  0  0
   -8.2500    1.2990    0.0000 O   0  0  0  0  0  0  0  0  0  0  0  0
  -10.5000    0.0000    0.0000 C   0  0  0  0  0  0  0  0  0  0  0  0
   -9.7500   -1.2990    0.0000 C   0  0  0  0  0  0  0  0  0  0  0  0
   -8.2500   -1.2990    0.0000 C   0  0  0  0  0  0  0  0  0  0  0  0
   -7.5000    0.0000    0.0000 O   0  0  0  0  0  0  0  0  0  0  0  0
   -7.5000   -2.5981    0.0000 N   0  0  0  0  0  0  0  0  0  0  0  0
   -6.0000   -2.5981    0.0000 C   0  0  0  0  0  0  0  0  0  0  0  0
   -5.2500   -1.2990    0.0000 O   0  0  0  0  0  0  0  0  0  0  0  0
   -5.2500   -3.8971    0.0000 C   0  0  0  0  0  0  0  0  0  0  0  0
   -6.0000   -5.1962    0.0000 C   0  0  0  0  0  0  0  0  0  0  0  0
   -7.5000   -5.1962    0.0000 C   0  0  0  0  0  0  0  0  0  0  0  0
   -8.2500   -3.8971    0.0000 C   0  0  0  0  0  0  0  0  0  0  0  0
   -9.7500   -3.8971    0.0000 C   0  0  0  0  0  0  0  0  0  0  0  0
  -10.5000   -5.1962    0.0000 C   0  0  0  0  0  0  0  0  0  0  0  0
   -9.7500   -6.4952    0.0000 C   0  0  0  0  0  0  0  0  0  0  0  0
   -8.2500   -6.4952    0.0000 C   0  0  0  0  0  0  0  0  0  0  0  0
   -3.7500   -3.8971    0.0000 N   0  0  0  0  0  0  0  0  0  0  0  0
   -3.0000   -2.5981    0.0000 C   0  0  0  0  0  0  0  0  0  0  0  0
   -3.7500   -1.2990    0.0000 O   0  0  0  0  0  0  0  0  0  0  0  0
   -1.5000   -2.5981    0.0000 C   0  0  0  0  0  0  0  0  0  0  0  0
   -0.7500   -3.8971    0.0000 C   0  0  0  0  0  0  0  0  0  0  0  0
    0.7500   -3.8971    0.0000 C   0  0  0  0  0  0  0  0  0  0  0  0
    1.5000   -2.5981    0.0000 C   0  0  0  0  0  0  0  0  0  0  0  0
    3.0000   -2.5981    0.0000 C   0  0  0  0  0  0  0  0  0  0  0  0
    3.7500   -3.8971    0.0000 C   0  0  0  0  0  0  0  0  0  0  0  0
    5.2500   -3.8971    0.0000 C   0  0  0  0  0  0  0  0  0  0  0  0
    6.0000   -2.5981    0.0000 N   0  0  0  0  0  0  0  0  0  0  0  0
    7.5000   -2.5981    0.0000 C   0  0  0  0  0  0  0  0  0  0  0  0
    8.2500   -1.2990    0.0000 O   0  0  0  0  0  0  0  0  0  0  0  0
    8.2500   -3.8971    0.0000 C   0  0  0  0  0  0  0  0  0  0  0  0
    7.5000   -5.1962    0.0000 C   0  0  0  0  0  0  0  0  0  0  0  0
    8.2500   -6.4952    0.0000 C   0  0  0  0  0  0  0  0  0  0  0  0
    9.7500   -6.4952    0.0000 C   0  0  0  0  0  0  0  0  0  0  0  0
   10.5000   -5.1962    0.0000 C   0  0  0  0  0  0  0  0  0  0  0  0
    9.7500   -3.8971    0.0000 C   0  0  0  0  0  0  0  0  0  0  0  0
    5.2500   -1.2990    0.0000 C   0  0  0  0  0  0  0  0  0  0  0  0
    3.7500   -1.2990    0.0000 C   0  0  0  0  0  0  0  0  0  0  0  0
    0.7500   -1.2990    0.0000 C   0  0  0  0  0  0  0  0  0  0  0  0
    1.5000    0.0000    0.0000 C   0  0  0  0  0  0  0  0  0  0  0  0
    0.7500    1.2990    0.0000 C   0  0  0  0  0  0  0  0  0  0  0  0
   -0.7500    1.2990    0.0000 C   0  0  0  0  0  0  0  0  0  0  0  0
   -1.5000    0.0000    0.0000 C   0  0  0  0  0  0  0  0  0  0  0  0
   -0.7500   -1.2990    0.0000 C   0  0  0  0  0  0  0  0  0  0  0  0
  -12.0000    0.0000    0.0000 C   0  0  0  0  0  0  0  0  0  0  0  0
  -12.7500    1.2990    0.0000 C   0  0  0  0  0  0  0  0  0  0  0  0
  -12.0000    2.5981    0.0000 C   0  0  0  0  0  0  0  0  0  0  0  0
  -12.7500    3.8971    0.0000 C   0  0  0  0  0  0  0  0  0  0  0  0
  -14.2500    3.8971    0.0000 C   0  0  0  0  0  0  0  0  0  0  0  0
  -15.0000    5.1962    0.0000 O   0  0  0  0  0  0  0  0  0  0  0  0
  -15.0000    2.5981    0.0000 C   0  0  0  0  0  0  0  0  0  0  0  0
  -14.2500    1.2990    0.0000 C   0  0  0  0  0  0  0  0  0  0  0  0
  1  2  1  0
  2  3  2  0
  2  4  1  0
  4  5  1  0
  5  6  1  0
  6  7  2  0
  7  8  1  0
  8  9  2  0
  9 10  1  0
 10 11  2  0
  4 12  1  0
 12 13  1  0
 13 14  2  0
 13 15  1  0
 15 16  1  0
 16 17  1  0
 17 18  2  0
 17 19  1  0
 19 20  1  0
 20 21  2  0
 20 22  1  0
 22 23  1  0
 23 24  1  0
 24 25  2  0
 25 26  1  0
 26 27  2  0
 27 28  1  0
 28 29  2  0
 22 30  1  0
 30 31  1  0
 31 32  2  0
 31 33  1  0
 33 34  1  0
 34 35  1  0
 35 36  1  0
 36 37  1  0
 37 38  1  0
 38 39  1  0
 39 40  1  0
 40 41  1  0
 41 42  2  0
 41 43  1  0
 43 44  2  0
 44 45  1  0
 45 46  2  0
 46 47  1  0
 47 48  2  0
 40 49  1  0
 49 50  1  0
 36 51  1  0
 51 52  2  0
 52 53  1  0
 53 54  2  0
 54 55  1  0
 55 56  2  0
 15 57  1  0
 57 58  1  0
 58 59  2  0
 59 60  1  0
 60 61  2  0
 61 62  1  0
 61 63  1  0
 63 64  2  0
 11  6  1  0
 29 24  1  0
 56 33  1  0
 64 58  1  0
 50 37  1  0
 56 51  1  0
 48 43  1  0
M  END
>  <Title>  (306) 
idAAJVgen6

$$$$

     RDKit          2D

 27 30  0  0  0  0  0  0  0  0999 V2000
    4.5000    0.0000    0.0000 N   0  0  0  0  0  0  0  0  0  0  0  0
    3.0000    0.0000    0.0000 C   0  0  0  0  0  0  0  0  0  0  0  0
    1.5000    0.0000    0.0000 C   0  0  0  0  0  0  0  0  0  0  0  0
    0.7500   -1.2990    0.0000 C   0  0  0  0  0  0  0  0  0  0  0  0
   -0.7500   -1.2990    0.0000 C   0  0  0  0  0  0  0  0  0  0  0  0
   -1.5000    0.0000    0.0000 N   0  0  0  0  0  0  0  0  0  0  0  0
   -3.0000    0.0000    0.0000 C   0  0  0  0  0  0  0  0  0  0  0  0
   -3.7500    1.2990    0.0000 C   0  0  0  0  0  0  0  0  0  0  0  0
   -5.2500    1.2990    0.0000 C   0  0  0  0  0  0  0  0  0  0  0  0
   -6.0000    0.0000    0.0000 N   0  0  0  0  0  0  0  0  0  0  0  0
   -7.5000    0.0000    0.0000 N   0  0  0  0  0  0  0  0  0  0  0  0
   -8.3817   -1.2135    0.0000 N   0  0  0  0  0  0  0  0  0  0  0  0
   -9.8083   -0.7500    0.0000 N   0  0  0  0  0  0  0  0  0  0  0  0
   -9.8083    0.7500    0.0000 N   0  0  0  0  0  0  0  0  0  0  0  0
   -8.3817    1.2135    0.0000 C   0  0  0  0  0  0  0  0  0  0  0  0
   -7.9182    2.6401    0.0000 N   0  0  0  0  0  0  0  0  0  0  0  0
   -8.9218    3.7548    0.0000 C   0  0  0  0  0  0  0  0  0  0  0  0
  -10.3891    3.4430    0.0000 O   0  0  0  0  0  0  0  0  0  0  0  0
   -8.4583    5.1814    0.0000 C   0  0  0  0  0  0  0  0  0  0  0  0
   -9.3400    6.3949    0.0000 C   0  0  0  0  0  0  0  0  0  0  0  0
   -8.4583    7.6085    0.0000 C   0  0  0  0  0  0  0  0  0  0  0  0
   -7.0317    7.1449    0.0000 C   0  0  0  0  0  0  0  0  0  0  0  0
   -7.0317    5.6449    0.0000 C   0  0  0  0  0  0  0  0  0  0  0  0
   -5.2500   -1.2990    0.0000 C   0  0  0  0  0  0  0  0  0  0  0  0
   -3.7500   -1.2990    0.0000 C   0  0  0  0  0  0  0  0  0  0  0  0
   -0.7500    1.2990    0.0000 C   0  0  0  0  0  0  0  0  0  0  0  0
    0.7500    1.2990    0.0000 C   0  0  0  0  0  0  0  0  0  0  0  0
  1  2  3  0
  2  3  1  0
  3  4  2  0
  4  5  1  0
  5  6  1  0
  6  7  1  0
  7  8  1  0
  8  9  1  0
  9 10  1  0
 10 11  1  0
 11 12  1  0
 12 13  2  0
 13 14  1  0
 14 15  2  0
 15 16  1  0
 16 17  1  0
 17 18  2  0
 17 19  1  0
 19 20  2  0
 20 21  1  0
 21 22  2  0
 22 23  1  0
 10 24  1  0
 24 25  1  0
  6 26  1  0
 26 27  2  0
 27  3  1  0
 25  7  1  0
 15 11  1  0
 23 19  1  0
M  END
>  <Title>  (307) 
idAAJWgen6

$$$$

     RDKit          2D

 46 52  0  0  0  0  0  0  0  0999 V2000
    3.4598   -0.0000    0.0000 C   0  0  0  0  0  0  0  0  0  0  0  0
    1.9598    0.0000    0.0000 C   0  0  0  0  0  0  0  0  0  0  0  0
    1.3858   -1.3858    0.0000 C   0  0  0  0  0  0  0  0  0  0  0  0
   -0.0000   -1.9598    0.0000 C   0  0  0  0  0  0  0  0  0  0  0  0
   -1.3858   -1.3858    0.0000 C   0  0  0  0  0  0  0  0  0  0  0  0
   -1.9598    0.0000    0.0000 C   0  0  0  0  0  0  0  0  0  0  0  0
   -1.3858    1.3858    0.0000 C   0  0  0  0  0  0  0  0  0  0  0  0
    0.0000    1.9598    0.0000 C   0  0  0  0  0  0  0  0  0  0  0  0
    0.0000    3.4598    0.0000 C   0  0  0  0  0  0  0  0  0  0  0  0
   -1.2990    4.2098    0.0000 O   0  0  0  0  0  0  0  0  0  0  0  0
    1.2990    4.2098    0.0000 N   0  0  0  0  0  0  0  0  0  0  0  0
    1.2990    5.7098    0.0000 C   0  0  0  0  0  0  0  0  0  0  0  0
    0.0855    6.5915    0.0000 N   0  0  0  0  0  0  0  0  0  0  0  0
    0.5490    8.0181    0.0000 N   0  0  0  0  0  0  0  0  0  0  0  0
    2.0490    8.0181    0.0000 N   0  0  0  0  0  0  0  0  0  0  0  0
    2.5126    6.5915    0.0000 N   0  0  0  0  0  0  0  0  0  0  0  0
    3.9391    6.1280    0.0000 C   0  0  0  0  0  0  0  0  0  0  0  0
    4.2510    4.6608    0.0000 C   0  0  0  0  0  0  0  0  0  0  0  0
    5.6776    4.1972    0.0000 C   0  0  0  0  0  0  0  0  0  0  0  0
    6.7923    5.2009    0.0000 C   0  0  0  0  0  0  0  0  0  0  0  0
    8.2189    4.7374    0.0000 F   0  0  0  0  0  0  0  0  0  0  0  0
    6.4805    6.6682    0.0000 C   0  0  0  0  0  0  0  0  0  0  0  0
    5.0539    7.1317    0.0000 C   0  0  0  0  0  0  0  0  0  0  0  0
    4.7420    8.5989    0.0000 C   0  0  0  0  0  0  0  0  0  0  0  0
    3.3154    9.0624    0.0000 C   0  0  0  0  0  0  0  0  0  0  0  0
    3.0035   10.5297    0.0000 C   0  0  0  0  0  0  0  0  0  0  0  0
    4.1183   11.5334    0.0000 C   0  0  0  0  0  0  0  0  0  0  0  0
    5.5448   11.0698    0.0000 C   0  0  0  0  0  0  0  0  0  0  0  0
    5.8567    9.6026    0.0000 C   0  0  0  0  0  0  0  0  0  0  0  0
    7.2833    9.1391    0.0000 C   0  0  0  0  0  0  0  0  0  0  0  0
    7.7468    7.7125    0.0000 C   0  0  0  0  0  0  0  0  0  0  0  0
    9.2468    7.7125    0.0000 C   0  0  0  0  0  0  0  0  0  0  0  0
    9.7104    9.1391    0.0000 C   0  0  0  0  0  0  0  0  0  0  0  0
    8.4968   10.0208    0.0000 C   0  0  0  0  0  0  0  0  0  0  0  0
    8.4968   11.5208    0.0000 C   0  0  0  0  0  0  0  0  0  0  0  0
    7.4362   12.5814    0.0000 C   0  0  0  0  0  0  0  0  0  0  0  0
    8.4968   13.6421    0.0000 C   0  0  0  0  0  0  0  0  0  0  0  0
    8.4968   15.1421    0.0000 C   0  0  0  0  0  0  0  0  0  0  0  0
    7.1978   15.8921    0.0000 C   0  0  0  0  0  0  0  0  0  0  0  0
    7.1978   17.3921    0.0000 C   0  0  0  0  0  0  0  0  0  0  0  0
    8.4968   18.1421    0.0000 C   0  0  0  0  0  0  0  0  0  0  0  0
    9.7959   17.3921    0.0000 C   0  0  0  0  0  0  0  0  0  0  0  0
    9.7959   15.8921    0.0000 C   0  0  0  0  0  0  0  0  0  0  0  0
    9.5575   12.5814    0.0000 C   0  0  0  0  0  0  0  0  0  0  0  0
   11.0575   12.5814    0.0000 O   0  0  0  0  0  0  0  0  0  0  0  0
    1.3858    1.3858    0.0000 N   0  0  0  0  0  0  0  0  0  0  0  0
  1  2  1  0
  2  3  1  0
  3  4  2  0
  4  5  1  0
  5  6  2  0
  6  7  1  0
  7  8  2  0
  8  9  1  0
  9 10  2  0
  9 11  1  0
 11 12  1  0
 12 13  2  0
 13 14  1  0
 14 15  2  0
 15 16  1  0
 16 17  1  0
 17 18  2  0
 18 19  1  0
 19 20  2  0
 20 21  1  0
 20 22  1  0
 22 23  2  0
 23 24  1  0
 24 25  2  0
 25 26  1  0
 26 27  2  0
 27 28  1  0
 28 29  2  0
 29 30  1  0
 30 31  2  0
 31 32  1  0
 32 33  2  0
 33 34  1  0
 34 35  2  3
 35 36  1  0
 36 37  2  0
 37 38  1  0
 38 39  2  0
 39 40  1  0
 40 41  2  0
 41 42  1  0
 42 43  2  0
 37 44  1  0
 44 45  2  0
  8 46  1  0
 46  2  1  0
 16 12  1  0
 23 17  1  0
 29 24  1  0
 34 30  1  0
 44 35  1  0
 43 38  1  0
M  END
>  <Title>  (308) 
idAAJXgen6

$$$$

     RDKit          2D

 23 25  0  0  0  0  0  0  0  0999 V2000
    4.5000    0.0000    0.0000 N   0  0  0  0  0  0  0  0  0  0  0  0
    3.0000    0.0000    0.0000 C   0  0  0  0  0  0  0  0  0  0  0  0
    1.5000    0.0000    0.0000 C   0  0  0  0  0  0  0  0  0  0  0  0
    0.7500   -1.2990    0.0000 C   0  0  0  0  0  0  0  0  0  0  0  0
   -0.7500   -1.2990    0.0000 C   0  0  0  0  0  0  0  0  0  0  0  0
   -1.5000    0.0000    0.0000 C   0  0  0  0  0  0  0  0  0  0  0  0
   -3.0000    0.0000    0.0000 C   0  0  0  0  0  0  0  0  0  0  0  0
   -3.7500    1.2990    0.0000 C   0  0  0  0  0  0  0  0  0  0  0  0
   -5.2500    1.2990    0.0000 C   0  0  0  0  0  0  0  0  0  0  0  0
   -6.0000    0.0000    0.0000 N   0  0  0  0  0  0  0  0  0  0  0  0
   -7.5000    0.0000    0.0000 C   0  0  0  0  0  0  0  0  0  0  0  0
   -8.2500   -1.2990    0.0000 O   0  0  0  0  0  0  0  0  0  0  0  0
   -8.2500    1.2990    0.0000 N   0  0  0  0  0  0  0  0  0  0  0  0
   -9.7500    1.2990    0.0000 C   0  0  0  0  0  0  0  0  0  0  0  0
  -10.5000    2.5981    0.0000 N   0  0  0  0  0  0  0  0  0  0  0  0
  -12.0000    2.5981    0.0000 N   0  0  0  0  0  0  0  0  0  0  0  0
  -12.7500    1.2990    0.0000 N   0  0  0  0  0  0  0  0  0  0  0  0
  -12.0000    0.0000    0.0000 N   0  0  0  0  0  0  0  0  0  0  0  0
  -10.5000    0.0000    0.0000 N   0  0  0  0  0  0  0  0  0  0  0  0
   -5.2500   -1.2990    0.0000 C   0  0  0  0  0  0  0  0  0  0  0  0
   -3.7500   -1.2990    0.0000 C   0  0  0  0  0  0  0  0  0  0  0  0
   -0.7500    1.2990    0.0000 C   0  0  0  0  0  0  0  0  0  0  0  0
    0.7500    1.2990    0.0000 C   0  0  0  0  0  0  0  0  0  0  0  0
  1  2  3  0
  2  3  1  0
  3  4  2  0
  4  5  1  0
  5  6  2  0
  6  7  1  0
  7  8  1  0
  8  9  1  0
  9 10  1  0
 10 11  1  0
 11 12  2  0
 11 13  1  0
 13 14  1  0
 14 15  2  0
 15 16  1  0
 16 17  2  0
 17 18  1  0
 18 19  2  0
 10 20  1  0
 20 21  1  0
  6 22  1  0
 22 23  2  0
 23  3  1  0
 21  7  1  0
 19 14  1  0
M  END
>  <Title>  (309) 
idAAJYgen6

$$$$

     RDKit          2D

  8  7  0  0  0  0  0  0  0  0999 V2000
    0.0000    0.0000    0.0000 C   0  0  0  0  0  0  0  0  0  0  0  0
    1.2990    0.7500    0.0000 C   0  0  0  0  0  0  0  0  0  0  0  0
    1.2990    2.2500    0.0000 O   0  0  0  0  0  0  0  0  0  0  0  0
    2.5981   -0.0000    0.0000 C   0  0  0  0  0  0  0  0  0  0  0  0
    3.8971    0.7500    0.0000 C   0  0  0  0  0  0  0  0  0  0  0  0
    4.6471   -0.5490    0.0000 C   0  0  0  0  0  0  0  0  0  0  0  0
    3.1471    2.0490    0.0000 C   0  0  0  0  0  0  0  0  0  0  0  0
    5.1962    1.5000    0.0000 C   0  0  0  0  0  0  0  0  0  0  0  0
  1  2  1  0
  2  3  1  0
  2  4  1  0
  4  5  1  0
  5  6  1  0
  5  7  1  0
  5  8  1  0
M  END
>  <Title>  (310) 
idAAJZgen6

$$$$

     RDKit          2D

  8  8  0  0  0  0  0  0  0  0999 V2000
    3.0000    0.0000    0.0000 C   0  0  0  0  0  0  0  0  0  0  0  0
    1.5000    0.0000    0.0000 C   0  0  0  0  0  0  0  0  0  0  0  0
    0.7500   -1.2990    0.0000 C   0  0  0  0  0  0  0  0  0  0  0  0
   -0.7500   -1.2990    0.0000 C   0  0  0  0  0  0  0  0  0  0  0  0
   -1.5000    0.0000    0.0000 C   0  0  0  0  0  0  0  0  0  0  0  0
   -0.7500    1.2990    0.0000 C   0  0  0  0  0  0  0  0  0  0  0  0
   -1.5000    2.5981    0.0000 O   0  0  0  0  0  0  0  0  0  0  0  0
    0.7500    1.2990    0.0000 C   0  0  0  0  0  0  0  0  0  0  0  0
  1  2  1  0
  2  3  1  0
  3  4  2  0
  4  5  1  0
  5  6  1  0
  6  7  1  0
  6  8  1  0
  8  2  1  0
M  END
>  <Title>  (311) 
idAAKAgen6

$$$$

     RDKit          2D

 24 26  0  0  0  0  0  0  0  0999 V2000
    3.0000    0.0000    0.0000 C   0  0  0  0  0  0  0  0  0  0  0  0
    1.5000    0.0000    0.0000 C   0  0  0  0  0  0  0  0  0  0  0  0
    0.7500   -1.2990    0.0000 C   0  0  0  0  0  0  0  0  0  0  0  0
   -0.7500   -1.2990    0.0000 C   0  0  0  0  0  0  0  0  0  0  0  0
   -1.5000    0.0000    0.0000 C   0  0  0  0  0  0  0  0  0  0  0  0
   -3.0000    0.0000    0.0000 N   0  0  0  0  0  0  0  0  0  0  0  0
   -3.7500    1.2990    0.0000 C   0  0  0  0  0  0  0  0  0  0  0  0
   -3.0000    2.5981    0.0000 O   0  0  0  0  0  0  0  0  0  0  0  0
   -5.2500    1.2990    0.0000 C   0  0  0  0  0  0  0  0  0  0  0  0
   -6.0000    2.5981    0.0000 C   0  0  0  0  0  0  0  0  0  0  0  0
   -7.5000    2.5981    0.0000 C   0  0  0  0  0  0  0  0  0  0  0  0
   -8.2500    1.2990    0.0000 C   0  0  0  0  0  0  0  0  0  0  0  0
   -9.7500    1.2990    0.0000 O   0  0  0  0  0  0  0  0  0  0  0  0
   -7.5000    0.0000    0.0000 C   0  0  0  0  0  0  0  0  0  0  0  0
   -6.0000    0.0000    0.0000 C   0  0  0  0  0  0  0  0  0  0  0  0
   -5.2500   -1.2990    0.0000 C   0  0  0  0  0  0  0  0  0  0  0  0
   -6.0000   -2.5981    0.0000 C   0  0  0  0  0  0  0  0  0  0  0  0
   -5.2500   -3.8971    0.0000 C   0  0  0  0  0  0  0  0  0  0  0  0
   -3.7500   -3.8971    0.0000 C   0  0  0  0  0  0  0  0  0  0  0  0
   -3.0000   -2.5981    0.0000 C   0  0  0  0  0  0  0  0  0  0  0  0
   -3.7500   -1.2990    0.0000 C   0  0  0  0  0  0  0  0  0  0  0  0
   -0.7500    1.2990    0.0000 C   0  0  0  0  0  0  0  0  0  0  0  0
   -1.5000    2.5981    0.0000 O   0  0  0  0  0  0  0  0  0  0  0  0
    0.7500    1.2990    0.0000 N   0  0  0  0  0  0  0  0  0  0  0  0
  1  2  1  0
  2  3  1  0
  3  4  1  0
  4  5  1  0
  5  6  1  0
  6  7  1  0
  7  8  2  0
  7  9  1  0
  9 10  2  0
 10 11  1  0
 11 12  2  0
 12 13  1  0
 12 14  1  0
 14 15  2  0
 15 16  1  0
 16 17  2  0
 17 18  1  0
 18 19  2  0
 19 20  1  0
 20 21  2  0
  5 22  1  0
 22 23  2  0
 22 24  1  0
 24  2  1  0
 15  9  1  0
 21 16  1  0
M  END
>  <Title>  (312) 
idAAKBgen6

$$$$

     RDKit          2D

  8  7  0  0  0  0  0  0  0  0999 V2000
    0.0000    0.0000    0.0000 C   0  0  0  0  0  0  0  0  0  0  0  0
    1.2990    0.7500    0.0000 C   0  0  0  0  0  0  0  0  0  0  0  0
    2.5981   -0.0000    0.0000 O   0  0  0  0  0  0  0  0  0  0  0  0
    3.8971    0.7500    0.0000 C   0  0  0  0  0  0  0  0  0  0  0  0
    5.1962   -0.0000    0.0000 C   0  0  0  0  0  0  0  0  0  0  0  0
    3.8971    2.2500    0.0000 C   0  0  0  0  0  0  0  0  0  0  0  0
    5.1962    3.0000    0.0000 C   0  0  0  0  0  0  0  0  0  0  0  0
    6.4952    3.7500    0.0000 N   0  0  0  0  0  0  0  0  0  0  0  0
  1  2  1  0
  2  3  1  0
  3  4  1  0
  4  5  1  0
  4  6  2  3
  6  7  1  0
  7  8  3  0
M  END
>  <Title>  (313) 
idAAKCgen6

$$$$

     RDKit          2D

 30 32  0  0  0  0  0  0  0  0999 V2000
    5.9230   -5.2281    0.0000 O   0  0  0  0  0  0  0  0  0  0  0  0
    4.8623   -4.1674    0.0000 C   0  0  0  0  0  0  0  0  0  0  0  0
    5.3577   -2.7516    0.0000 N   0  0  0  0  0  0  0  0  0  0  0  0
    4.5597   -1.4815    0.0000 C   0  0  0  0  0  0  0  0  0  0  0  0
    4.7943    0.0000    0.0000 C   0  0  0  0  0  0  0  0  0  0  0  0
    4.5597    1.4815    0.0000 C   0  0  0  0  0  0  0  0  0  0  0  0
    3.8787    2.8180    0.0000 C   0  0  0  0  0  0  0  0  0  0  0  0
    2.8180    3.8787    0.0000 C   0  0  0  0  0  0  0  0  0  0  0  0
    1.4815    4.5597    0.0000 C   0  0  0  0  0  0  0  0  0  0  0  0
    0.0000    4.7943    0.0000 C   0  0  0  0  0  0  0  0  0  0  0  0
   -1.4815    4.5597    0.0000 C   0  0  0  0  0  0  0  0  0  0  0  0
   -2.8180    3.8787    0.0000 C   0  0  0  0  0  0  0  0  0  0  0  0
   -3.8787    2.8180    0.0000 C   0  0  0  0  0  0  0  0  0  0  0  0
   -4.5597    1.4815    0.0000 C   0  0  0  0  0  0  0  0  0  0  0  0
   -4.7943    0.0000    0.0000 C   0  0  0  0  0  0  0  0  0  0  0  0
   -4.5597   -1.4815    0.0000 C   0  0  0  0  0  0  0  0  0  0  0  0
   -3.8787   -2.8180    0.0000 C   0  0  0  0  0  0  0  0  0  0  0  0
   -2.8180   -3.8787    0.0000 C   0  0  0  0  0  0  0  0  0  0  0  0
   -1.4815   -4.5597    0.0000 C   0  0  0  0  0  0  0  0  0  0  0  0
   -0.0000   -4.7943    0.0000 C   0  0  0  0  0  0  0  0  0  0  0  0
    1.4815   -4.5597    0.0000 C   0  0  0  0  0  0  0  0  0  0  0  0
    2.8180   -3.8787    0.0000 C   0  0  0  0  0  0  0  0  0  0  0  0
    3.8787   -2.8180    0.0000 C   0  0  0  0  0  0  0  0  0  0  0  0
    3.4465   -4.6629    0.0000 N   0  0  0  0  0  0  0  0  0  0  0  0
    3.2785   -6.1534    0.0000 C   0  0  0  0  0  0  0  0  0  0  0  0
    1.9037   -6.7533    0.0000 C   0  0  0  0  0  0  0  0  0  0  0  0
    1.7358   -8.2438    0.0000 C   0  0  0  0  0  0  0  0  0  0  0  0
    2.9427   -9.1346    0.0000 C   0  0  0  0  0  0  0  0  0  0  0  0
    4.3175   -8.5347    0.0000 C   0  0  0  0  0  0  0  0  0  0  0  0
    4.4854   -7.0442    0.0000 C   0  0  0  0  0  0  0  0  0  0  0  0
  1  2  2  0
  2  3  1  0
  3  4  1  0
  4  5  1  0
  5  6  1  0
  6  7  1  0
  7  8  1  0
  8  9  1  0
  9 10  1  0
 10 11  1  0
 11 12  1  0
 12 13  1  0
 13 14  1  0
 14 15  1  0
 15 16  1  0
 16 17  1  0
 17 18  1  0
 18 19  1  0
 19 20  1  0
 20 21  1  0
 21 22  1  0
 22 23  1  0
 21 24  1  0
 24 25  1  0
 25 26  2  0
 26 27  1  0
 27 28  2  0
 28 29  1  0
 29 30  2  0
 24  2  1  0
 30 25  1  0
 23  4  1  0
M  END
>  <Title>  (314) 
idAAKDgen6

$$$$

     RDKit          2D

 28 29  0  0  0  0  0  0  0  0999 V2000
  -10.2959  -12.3450    0.0000 C   0  0  0  0  0  0  0  0  0  0  0  0
   -8.8471  -12.7332    0.0000 C   0  0  0  0  0  0  0  0  0  0  0  0
   -8.4588  -14.1821    0.0000 O   0  0  0  0  0  0  0  0  0  0  0  0
   -7.7864  -11.6725    0.0000 C   0  0  0  0  0  0  0  0  0  0  0  0
   -6.3375  -12.0608    0.0000 C   0  0  0  0  0  0  0  0  0  0  0  0
   -5.2768  -11.0001    0.0000 C   0  0  0  0  0  0  0  0  0  0  0  0
   -5.6651   -9.5512    0.0000 O   0  0  0  0  0  0  0  0  0  0  0  0
   -3.8280  -11.3883    0.0000 C   0  0  0  0  0  0  0  0  0  0  0  0
   -3.4397  -12.8372    0.0000 C   0  0  0  0  0  0  0  0  0  0  0  0
   -2.7673  -10.3277    0.0000 C   0  0  0  0  0  0  0  0  0  0  0  0
   -3.1555   -8.8788    0.0000 C   0  0  0  0  0  0  0  0  0  0  0  0
   -2.0949   -7.8181    0.0000 C   0  0  0  0  0  0  0  0  0  0  0  0
   -0.6460   -8.2064    0.0000 C   0  0  0  0  0  0  0  0  0  0  0  0
    0.4147   -7.1457    0.0000 O   0  0  0  0  0  0  0  0  0  0  0  0
   -0.2577   -9.6553    0.0000 O   0  0  0  0  0  0  0  0  0  0  0  0
   -2.4831   -6.3692    0.0000 C   0  0  0  0  0  0  0  0  0  0  0  0
   -3.9320   -5.9810    0.0000 O   0  0  0  0  0  0  0  0  0  0  0  0
   -1.4224   -5.3086    0.0000 O   0  0  0  0  0  0  0  0  0  0  0  0
   -1.8107   -3.8597    0.0000 C   0  0  0  0  0  0  0  0  0  0  0  0
   -3.2595   -3.4715    0.0000 O   0  0  0  0  0  0  0  0  0  0  0  0
   -0.7500   -2.7990    0.0000 C   0  0  0  0  0  0  0  0  0  0  0  0
    0.7500   -2.7990    0.0000 C   0  0  0  0  0  0  0  0  0  0  0  0
    0.7500   -1.2990    0.0000 C   0  0  0  0  0  0  0  0  0  0  0  0
    1.5000    0.0000    0.0000 C   0  0  0  0  0  0  0  0  0  0  0  0
    0.7500    1.2990    0.0000 C   0  0  0  0  0  0  0  0  0  0  0  0
   -0.7500    1.2990    0.0000 C   0  0  0  0  0  0  0  0  0  0  0  0
   -1.5000    0.0000    0.0000 C   0  0  0  0  0  0  0  0  0  0  0  0
   -0.7500   -1.2990    0.0000 C   0  0  0  0  0  0  0  0  0  0  0  0
  1  2  1  0
  2  3  2  0
  2  4  1  0
  4  5  1  0
  5  6  1  0
  6  7  2  0
  6  8  1  0
  8  9  1  0
  8 10  2  3
 10 11  1  0
 11 12  2  3
 12 13  1  0
 13 14  2  0
 13 15  1  0
 12 16  1  0
 16 17  2  0
 16 18  1  0
 18 19  1  0
 19 20  2  0
 19 21  1  0
 21 22  1  0
 22 23  1  0
 23 24  2  0
 24 25  1  0
 25 26  2  0
 26 27  1  0
 27 28  2  0
 28 21  1  0
 28 23  1  0
M  END
>  <Title>  (315) 
idAAKEgen6

$$$$

     RDKit          2D

 36 40  0  0  0  0  0  0  0  0999 V2000
   -3.0000   -2.5981    0.0000 C   0  0  0  0  0  0  0  0  0  0  0  0
   -1.5000   -2.5981    0.0000 C   0  0  0  0  0  0  0  0  0  0  0  0
   -0.7500   -3.8971    0.0000 C   0  0  0  0  0  0  0  0  0  0  0  0
    0.7500   -3.8971    0.0000 C   0  0  0  0  0  0  0  0  0  0  0  0
    1.5000   -2.5981    0.0000 C   0  0  0  0  0  0  0  0  0  0  0  0
    3.0000   -2.5981    0.0000 C   0  0  0  0  0  0  0  0  0  0  0  0
    3.7500   -1.2990    0.0000 O   0  0  0  0  0  0  0  0  0  0  0  0
    3.7500   -3.8971    0.0000 N   0  0  0  0  0  0  0  0  0  0  0  0
    5.2500   -3.8971    0.0000 C   0  0  0  0  0  0  0  0  0  0  0  0
    6.1317   -2.6836    0.0000 N   0  0  0  0  0  0  0  0  0  0  0  0
    7.5583   -3.1471    0.0000 N   0  0  0  0  0  0  0  0  0  0  0  0
    7.5583   -4.6471    0.0000 N   0  0  0  0  0  0  0  0  0  0  0  0
    6.1317   -5.1106    0.0000 N   0  0  0  0  0  0  0  0  0  0  0  0
    5.6682   -6.5372    0.0000 C   0  0  0  0  0  0  0  0  0  0  0  0
    6.5498   -7.7508    0.0000 C   0  0  0  0  0  0  0  0  0  0  0  0
    5.6682   -8.9643    0.0000 C   0  0  0  0  0  0  0  0  0  0  0  0
    4.2416   -8.5008    0.0000 C   0  0  0  0  0  0  0  0  0  0  0  0
    3.0280   -9.3824    0.0000 C   0  0  0  0  0  0  0  0  0  0  0  0
    3.1848  -10.8742    0.0000 O   0  0  0  0  0  0  0  0  0  0  0  0
    1.6577   -8.7723    0.0000 N   0  0  0  0  0  0  0  0  0  0  0  0
    0.4442   -9.6540    0.0000 C   0  0  0  0  0  0  0  0  0  0  0  0
   -0.9261   -9.0439    0.0000 N   0  0  0  0  0  0  0  0  0  0  0  0
   -2.1396   -9.9256    0.0000 N   0  0  0  0  0  0  0  0  0  0  0  0
   -1.9829  -11.4174    0.0000 N   0  0  0  0  0  0  0  0  0  0  0  0
   -0.6125  -12.0275    0.0000 N   0  0  0  0  0  0  0  0  0  0  0  0
    0.6010  -11.1458    0.0000 N   0  0  0  0  0  0  0  0  0  0  0  0
    4.2416   -7.0008    0.0000 C   0  0  0  0  0  0  0  0  0  0  0  0
    3.0280   -6.1191    0.0000 O   0  0  0  0  0  0  0  0  0  0  0  0
    0.7500   -1.2990    0.0000 C   0  0  0  0  0  0  0  0  0  0  0  0
    1.5000    0.0000    0.0000 C   0  0  0  0  0  0  0  0  0  0  0  0
    0.7500    1.2990    0.0000 C   0  0  0  0  0  0  0  0  0  0  0  0
   -0.7500    1.2990    0.0000 C   0  0  0  0  0  0  0  0  0  0  0  0
   -1.5000    2.5981    0.0000 C   0  0  0  0  0  0  0  0  0  0  0  0
   -2.2500    3.8971    0.0000 N   0  0  0  0  0  0  0  0  0  0  0  0
   -1.5000    0.0000    0.0000 C   0  0  0  0  0  0  0  0  0  0  0  0
   -0.7500   -1.2990    0.0000 C   0  0  0  0  0  0  0  0  0  0  0  0
  1  2  1  0
  2  3  1  0
  3  4  1  0
  4  5  1  0
  5  6  1  0
  6  7  2  0
  6  8  1  0
  8  9  1  0
  9 10  2  0
 10 11  1  0
 11 12  2  0
 12 13  1  0
 13 14  1  0
 14 15  2  0
 15 16  1  0
 16 17  2  0
 17 18  1  0
 18 19  2  0
 18 20  1  0
 20 21  1  0
 21 22  2  0
 22 23  1  0
 23 24  2  0
 24 25  1  0
 25 26  2  0
 17 27  1  0
 27 28  2  0
  5 29  1  0
 29 30  2  0
 30 31  1  0
 31 32  2  0
 32 33  1  0
 33 34  3  0
 32 35  1  0
 35 36  2  0
 36  2  1  0
 13  9  1  0
 27 14  1  0
 36 29  1  0
 26 21  1  0
M  END
>  <Title>  (316) 
idAAKFgen6

$$$$

     RDKit          2D

 31 36  0  0  0  0  0  0  0  0999 V2000
   -2.1491   -7.1273    0.0000 O   0  0  0  0  0  0  0  0  0  0  0  0
   -1.8373   -5.6601    0.0000 C   0  0  0  0  0  0  0  0  0  0  0  0
   -2.9520   -4.6564    0.0000 N   0  0  0  0  0  0  0  0  0  0  0  0
   -4.3786   -5.1199    0.0000 C   0  0  0  0  0  0  0  0  0  0  0  0
   -4.8421   -6.5465    0.0000 N   0  0  0  0  0  0  0  0  0  0  0  0
   -6.3421   -6.5465    0.0000 N   0  0  0  0  0  0  0  0  0  0  0  0
   -6.8056   -5.1199    0.0000 N   0  0  0  0  0  0  0  0  0  0  0  0
   -5.5921   -4.2382    0.0000 N   0  0  0  0  0  0  0  0  0  0  0  0
   -5.5921   -2.7382    0.0000 N   0  0  0  0  0  0  0  0  0  0  0  0
   -6.8911   -1.9882    0.0000 C   0  0  0  0  0  0  0  0  0  0  0  0
   -6.8911   -0.4882    0.0000 C   0  0  0  0  0  0  0  0  0  0  0  0
   -5.5921    0.2618    0.0000 C   0  0  0  0  0  0  0  0  0  0  0  0
   -5.5921    1.7618    0.0000 N   0  0  0  0  0  0  0  0  0  0  0  0
   -4.3786    2.6435    0.0000 C   0  0  0  0  0  0  0  0  0  0  0  0
   -4.8421    4.0700    0.0000 C   0  0  0  0  0  0  0  0  0  0  0  0
   -6.3421    4.0700    0.0000 C   0  0  0  0  0  0  0  0  0  0  0  0
   -7.2238    5.2836    0.0000 C   0  0  0  0  0  0  0  0  0  0  0  0
   -7.3806    6.7754    0.0000 C   0  0  0  0  0  0  0  0  0  0  0  0
   -8.5941    5.8937    0.0000 C   0  0  0  0  0  0  0  0  0  0  0  0
   -6.8056    2.6435    0.0000 N   0  0  0  0  0  0  0  0  0  0  0  0
   -4.2930   -0.4882    0.0000 C   0  0  0  0  0  0  0  0  0  0  0  0
   -4.2930   -1.9882    0.0000 C   0  0  0  0  0  0  0  0  0  0  0  0
   -0.4107   -5.1965    0.0000 N   0  0  0  0  0  0  0  0  0  0  0  0
    0.0528   -3.7700    0.0000 C   0  0  0  0  0  0  0  0  0  0  0  0
    1.5528   -3.7700    0.0000 C   0  0  0  0  0  0  0  0  0  0  0  0
    2.0164   -5.1965    0.0000 C   0  0  0  0  0  0  0  0  0  0  0  0
    3.3867   -5.8066    0.0000 C   0  0  0  0  0  0  0  0  0  0  0  0
    3.5435   -7.2984    0.0000 C   0  0  0  0  0  0  0  0  0  0  0  0
    2.3300   -8.1801    0.0000 C   0  0  0  0  0  0  0  0  0  0  0  0
    0.9596   -7.5700    0.0000 C   0  0  0  0  0  0  0  0  0  0  0  0
    0.8028   -6.0782    0.0000 C   0  0  0  0  0  0  0  0  0  0  0  0
  1  2  2  0
  2  3  1  0
  3  4  1  0
  4  5  2  0
  5  6  1  0
  6  7  2  0
  7  8  1  0
  8  9  1  0
  9 10  1  0
 10 11  1  0
 11 12  1  0
 12 13  1  0
 13 14  1  0
 14 15  1  0
 15 16  1  0
 16 17  1  0
 17 18  1  0
 18 19  1  0
 16 20  1  0
 12 21  1  0
 21 22  1  0
  2 23  1  0
 23 24  1  0
 24 25  1  0
 25 26  1  0
 26 27  2  0
 27 28  1  0
 28 29  2  0
 29 30  1  0
 30 31  2  0
  8  4  1  0
 22  9  1  0
 31 23  1  0
 20 13  1  0
 31 26  1  0
 19 17  1  0
M  END
>  <Title>  (317) 
idAAKGgen6

$$$$

     RDKit          2D

 28 31  0  0  0  0  0  0  0  0999 V2000
   -0.4109   -7.4962    0.0000 C   0  0  0  0  0  0  0  0  0  0  0  0
   -1.3240   -6.3062    0.0000 O   0  0  0  0  0  0  0  0  0  0  0  0
   -0.7500   -4.9204    0.0000 C   0  0  0  0  0  0  0  0  0  0  0  0
    0.7500   -4.9204    0.0000 C   0  0  0  0  0  0  0  0  0  0  0  0
    1.8107   -3.8597    0.0000 C   0  0  0  0  0  0  0  0  0  0  0  0
    1.8107   -2.3597    0.0000 C   0  0  0  0  0  0  0  0  0  0  0  0
    3.1965   -1.7857    0.0000 C   0  0  0  0  0  0  0  0  0  0  0  0
    3.3923   -0.2985    0.0000 O   0  0  0  0  0  0  0  0  0  0  0  0
    4.3865   -2.6988    0.0000 N   0  0  0  0  0  0  0  0  0  0  0  0
    5.7723   -2.1248    0.0000 C   0  0  0  0  0  0  0  0  0  0  0  0
    6.9624   -3.0379    0.0000 N   0  0  0  0  0  0  0  0  0  0  0  0
    8.3482   -2.4639    0.0000 N   0  0  0  0  0  0  0  0  0  0  0  0
    8.5440   -0.9767    0.0000 N   0  0  0  0  0  0  0  0  0  0  0  0
    7.3539   -0.0636    0.0000 N   0  0  0  0  0  0  0  0  0  0  0  0
    5.9681   -0.6376    0.0000 N   0  0  0  0  0  0  0  0  0  0  0  0
    0.7500   -1.2990    0.0000 C   0  0  0  0  0  0  0  0  0  0  0  0
    1.5000    0.0000    0.0000 C   0  0  0  0  0  0  0  0  0  0  0  0
    0.7500    1.2990    0.0000 C   0  0  0  0  0  0  0  0  0  0  0  0
   -0.7500    1.2990    0.0000 C   0  0  0  0  0  0  0  0  0  0  0  0
   -1.5000    0.0000    0.0000 C   0  0  0  0  0  0  0  0  0  0  0  0
   -0.7500   -1.2990    0.0000 C   0  0  0  0  0  0  0  0  0  0  0  0
   -1.8107   -2.3597    0.0000 C   0  0  0  0  0  0  0  0  0  0  0  0
   -3.1097   -1.6097    0.0000 C   0  0  0  0  0  0  0  0  0  0  0  0
   -4.4087   -2.3597    0.0000 C   0  0  0  0  0  0  0  0  0  0  0  0
   -4.4087   -3.8597    0.0000 C   0  0  0  0  0  0  0  0  0  0  0  0
   -5.7078   -4.6097    0.0000 O   0  0  0  0  0  0  0  0  0  0  0  0
   -3.1097   -4.6097    0.0000 C   0  0  0  0  0  0  0  0  0  0  0  0
   -1.8107   -3.8597    0.0000 C   0  0  0  0  0  0  0  0  0  0  0  0
  1  2  1  0
  2  3  1  0
  3  4  2  0
  4  5  1  0
  5  6  2  0
  6  7  1  0
  7  8  2  0
  7  9  1  0
  9 10  1  0
 10 11  2  0
 11 12  1  0
 12 13  2  0
 13 14  1  0
 14 15  2  0
  6 16  1  0
 16 17  2  0
 17 18  1  0
 18 19  2  0
 19 20  1  0
 20 21  2  0
 21 22  1  0
 22 23  2  0
 23 24  1  0
 24 25  2  0
 25 26  1  0
 25 27  1  0
 27 28  2  0
 28  3  1  0
 15 10  1  0
 21 16  1  0
 28 22  1  0
M  END
>  <Title>  (318) 
idAAKHgen6

$$$$

     RDKit          2D

 20 22  0  0  0  0  0  0  0  0999 V2000
   -0.7500   -3.8971    0.0000 O   0  0  0  0  0  0  0  0  0  0  0  0
    0.7500   -3.8971    0.0000 C   0  0  0  0  0  0  0  0  0  0  0  0
    1.5000   -2.5981    0.0000 N   0  0  0  0  0  0  0  0  0  0  0  0
    0.7500   -1.2990    0.0000 C   0  0  0  0  0  0  0  0  0  0  0  0
    1.5000    0.0000    0.0000 C   0  0  0  0  0  0  0  0  0  0  0  0
    0.7500    1.2990    0.0000 C   0  0  0  0  0  0  0  0  0  0  0  0
   -0.7500    1.2990    0.0000 C   0  0  0  0  0  0  0  0  0  0  0  0
   -1.5000    2.5981    0.0000 O   0  0  0  0  0  0  0  0  0  0  0  0
   -1.5000    0.0000    0.0000 C   0  0  0  0  0  0  0  0  0  0  0  0
   -0.7500   -1.2990    0.0000 C   0  0  0  0  0  0  0  0  0  0  0  0
    1.5000   -5.1962    0.0000 C   0  0  0  0  0  0  0  0  0  0  0  0
    2.9918   -5.3529    0.0000 C   0  0  0  0  0  0  0  0  0  0  0  0
    3.3037   -6.8202    0.0000 C   0  0  0  0  0  0  0  0  0  0  0  0
    2.0046   -7.5702    0.0000 C   0  0  0  0  0  0  0  0  0  0  0  0
    1.8478   -9.0619    0.0000 C   0  0  0  0  0  0  0  0  0  0  0  0
    2.9625  -10.0656    0.0000 C   0  0  0  0  0  0  0  0  0  0  0  0
    2.3524  -11.4360    0.0000 C   0  0  0  0  0  0  0  0  0  0  0  0
    0.8606  -11.2792    0.0000 C   0  0  0  0  0  0  0  0  0  0  0  0
    0.5488   -9.8119    0.0000 C   0  0  0  0  0  0  0  0  0  0  0  0
    0.8899   -6.5665    0.0000 C   0  0  0  0  0  0  0  0  0  0  0  0
  1  2  2  0
  2  3  1  0
  3  4  1  0
  4  5  2  0
  5  6  1  0
  6  7  2  0
  7  8  1  0
  7  9  1  0
  9 10  2  0
  2 11  1  0
 11 12  2  0
 12 13  1  0
 13 14  2  0
 14 15  1  0
 15 16  1  0
 16 17  1  0
 17 18  1  0
 18 19  1  0
 14 20  1  0
 10  4  1  0
 20 11  1  0
 19 15  1  0
M  END
>  <Title>  (319) 
idAAKIgen6

$$$$

     RDKit          2D

 12 12  0  0  0  0  0  0  0  0999 V2000
    5.0260    1.2990    0.0000 C   0  0  0  0  0  0  0  0  0  0  0  0
    3.5260    1.2990    0.0000 C   0  0  0  0  0  0  0  0  0  0  0  0
    2.7760    2.5981    0.0000 O   0  0  0  0  0  0  0  0  0  0  0  0
    2.7760    0.0000    0.0000 O   0  0  0  0  0  0  0  0  0  0  0  0
    1.2760    0.0000    0.0000 C   0  0  0  0  0  0  0  0  0  0  0  0
    0.3943    1.2135    0.0000 N   0  0  0  0  0  0  0  0  0  0  0  0
   -1.0323    0.7500    0.0000 N   0  0  0  0  0  0  0  0  0  0  0  0
   -1.0323   -0.7500    0.0000 N   0  0  0  0  0  0  0  0  0  0  0  0
    0.3943   -1.2135    0.0000 N   0  0  0  0  0  0  0  0  0  0  0  0
    0.8578   -2.6401    0.0000 N   0  0  0  0  0  0  0  0  0  0  0  0
   -0.1459   -3.7548    0.0000 C   0  0  0  0  0  0  0  0  0  0  0  0
    2.3250   -2.9520    0.0000 C   0  0  0  0  0  0  0  0  0  0  0  0
  1  2  1  0
  2  3  2  0
  2  4  1  0
  4  5  1  0
  5  6  2  0
  6  7  1  0
  7  8  2  0
  8  9  1  0
  9 10  1  0
 10 11  1  0
 10 12  1  0
  9  5  1  0
M  END
>  <Title>  (320) 
idAAKJgen6

$$$$

     RDKit          2D

 22 24  0  0  0  0  0  0  0  0999 V2000
    8.0117  -12.6683    0.0000 C   0  0  0  0  0  0  0  0  0  0  0  0
    6.6414  -12.0582    0.0000 C   0  0  0  0  0  0  0  0  0  0  0  0
    5.4279  -12.9399    0.0000 O   0  0  0  0  0  0  0  0  0  0  0  0
    6.4846  -10.5664    0.0000 O   0  0  0  0  0  0  0  0  0  0  0  0
    5.1143   -9.9563    0.0000 C   0  0  0  0  0  0  0  0  0  0  0  0
    4.8024   -8.4891    0.0000 C   0  0  0  0  0  0  0  0  0  0  0  0
    3.3107   -8.3323    0.0000 C   0  0  0  0  0  0  0  0  0  0  0  0
    2.5607   -7.0333    0.0000 C   0  0  0  0  0  0  0  0  0  0  0  0
    2.9489   -5.5844    0.0000 C   0  0  0  0  0  0  0  0  0  0  0  0
    1.5000   -5.1962    0.0000 C   0  0  0  0  0  0  0  0  0  0  0  0
    0.7500   -3.8971    0.0000 C   0  0  0  0  0  0  0  0  0  0  0  0
   -0.7500   -3.8971    0.0000 O   0  0  0  0  0  0  0  0  0  0  0  0
    1.5000   -2.5981    0.0000 N   0  0  0  0  0  0  0  0  0  0  0  0
    0.7500   -1.2990    0.0000 C   0  0  0  0  0  0  0  0  0  0  0  0
    1.5000    0.0000    0.0000 N   0  0  0  0  0  0  0  0  0  0  0  0
    0.7500    1.2990    0.0000 N   0  0  0  0  0  0  0  0  0  0  0  0
   -0.7500    1.2990    0.0000 N   0  0  0  0  0  0  0  0  0  0  0  0
   -1.5000    0.0000    0.0000 N   0  0  0  0  0  0  0  0  0  0  0  0
   -0.7500   -1.2990    0.0000 N   0  0  0  0  0  0  0  0  0  0  0  0
    1.1118   -6.6450    0.0000 C   0  0  0  0  0  0  0  0  0  0  0  0
    2.7006   -9.7026    0.0000 C   0  0  0  0  0  0  0  0  0  0  0  0
    3.8153  -10.7063    0.0000 C   0  0  0  0  0  0  0  0  0  0  0  0
  1  2  1  0
  2  3  2  0
  2  4  1  0
  4  5  1  0
  5  6  2  0
  6  7  1  0
  7  8  1  0
  8  9  2  0
  9 10  1  0
 10 11  1  0
 11 12  2  0
 11 13  1  0
 13 14  1  0
 14 15  2  0
 15 16  1  0
 16 17  2  0
 17 18  1  0
 18 19  2  0
 10 20  1  0
  7 21  1  0
 21 22  2  0
 22  5  1  0
 20  8  1  0
 19 14  1  0
M  END
>  <Title>  (321) 
idAAKKgen6

$$$$

     RDKit          2D

 10 10  0  0  0  0  0  0  0  0999 V2000
    5.2500   -1.2990    0.0000 C   0  0  0  0  0  0  0  0  0  0  0  0
    3.7500   -1.2990    0.0000 N   0  0  0  0  0  0  0  0  0  0  0  0
    3.0000   -2.5981    0.0000 C   0  0  0  0  0  0  0  0  0  0  0  0
    3.0000    0.0000    0.0000 C   0  0  0  0  0  0  0  0  0  0  0  0
    1.5000    0.0000    0.0000 C   0  0  0  0  0  0  0  0  0  0  0  0
    0.7500   -1.2990    0.0000 C   0  0  0  0  0  0  0  0  0  0  0  0
   -0.7500   -1.2990    0.0000 C   0  0  0  0  0  0  0  0  0  0  0  0
   -1.5000    0.0000    0.0000 C   0  0  0  0  0  0  0  0  0  0  0  0
   -0.7500    1.2990    0.0000 C   0  0  0  0  0  0  0  0  0  0  0  0
    0.7500    1.2990    0.0000 C   0  0  0  0  0  0  0  0  0  0  0  0
  1  2  1  0
  2  3  1  0
  2  4  1  0
  4  5  1  0
  5  6  2  0
  6  7  1  0
  7  8  2  0
  8  9  1  0
  9 10  2  0
 10  5  1  0
M  END
>  <Title>  (322) 
idAAKLgen6

$$$$

     RDKit          2D

 22 24  0  0  0  0  0  0  0  0999 V2000
    1.9295  -15.1195    0.0000 C   0  0  0  0  0  0  0  0  0  0  0  0
    2.3930  -13.6929    0.0000 O   0  0  0  0  0  0  0  0  0  0  0  0
    1.3894  -12.5782    0.0000 C   0  0  0  0  0  0  0  0  0  0  0  0
    1.7012  -11.1110    0.0000 C   0  0  0  0  0  0  0  0  0  0  0  0
    0.4022  -10.3610    0.0000 C   0  0  0  0  0  0  0  0  0  0  0  0
    0.2454   -8.8692    0.0000 C   0  0  0  0  0  0  0  0  0  0  0  0
   -1.0537   -8.1192    0.0000 C   0  0  0  0  0  0  0  0  0  0  0  0
   -0.7418   -6.6520    0.0000 C   0  0  0  0  0  0  0  0  0  0  0  0
    0.7500   -6.4952    0.0000 C   0  0  0  0  0  0  0  0  0  0  0  0
    1.5000   -5.1962    0.0000 C   0  0  0  0  0  0  0  0  0  0  0  0
    0.7500   -3.8971    0.0000 C   0  0  0  0  0  0  0  0  0  0  0  0
   -0.7500   -3.8971    0.0000 O   0  0  0  0  0  0  0  0  0  0  0  0
    1.5000   -2.5981    0.0000 N   0  0  0  0  0  0  0  0  0  0  0  0
    0.7500   -1.2990    0.0000 C   0  0  0  0  0  0  0  0  0  0  0  0
    1.5000    0.0000    0.0000 N   0  0  0  0  0  0  0  0  0  0  0  0
    0.7500    1.2990    0.0000 N   0  0  0  0  0  0  0  0  0  0  0  0
   -0.7500    1.2990    0.0000 N   0  0  0  0  0  0  0  0  0  0  0  0
   -1.5000    0.0000    0.0000 N   0  0  0  0  0  0  0  0  0  0  0  0
   -0.7500   -1.2990    0.0000 N   0  0  0  0  0  0  0  0  0  0  0  0
    1.3601   -7.8655    0.0000 O   0  0  0  0  0  0  0  0  0  0  0  0
   -0.7125  -11.3647    0.0000 C   0  0  0  0  0  0  0  0  0  0  0  0
   -0.1024  -12.7350    0.0000 N   0  0  0  0  0  0  0  0  0  0  0  0
  1  2  1  0
  2  3  1  0
  3  4  2  0
  4  5  1  0
  5  6  1  0
  6  7  2  0
  7  8  1  0
  8  9  2  0
  9 10  1  0
 10 11  1  0
 11 12  2  0
 11 13  1  0
 13 14  1  0
 14 15  2  0
 15 16  1  0
 16 17  2  0
 17 18  1  0
 18 19  2  0
  9 20  1  0
  5 21  1  0
 21 22  1  0
 22  3  1  0
 20  6  1  0
 19 14  1  0
M  END
>  <Title>  (323) 
idAAKMgen6

$$$$

     RDKit          2D

 23 25  0  0  0  0  0  0  0  0999 V2000
    3.4598   -0.0000    0.0000 C   0  0  0  0  0  0  0  0  0  0  0  0
    1.9598    0.0000    0.0000 C   0  0  0  0  0  0  0  0  0  0  0  0
    1.3858   -1.3858    0.0000 C   0  0  0  0  0  0  0  0  0  0  0  0
   -0.0000   -1.9598    0.0000 C   0  0  0  0  0  0  0  0  0  0  0  0
   -1.3858   -1.3858    0.0000 C   0  0  0  0  0  0  0  0  0  0  0  0
   -1.9598    0.0000    0.0000 C   0  0  0  0  0  0  0  0  0  0  0  0
   -1.3858    1.3858    0.0000 C   0  0  0  0  0  0  0  0  0  0  0  0
    0.0000    1.9598    0.0000 C   0  0  0  0  0  0  0  0  0  0  0  0
   -0.1929    2.7333    0.0000 O   0  0  0  0  0  0  0  0  0  0  0  0
    1.3858    1.3858    0.0000 N   0  0  0  0  0  0  0  0  0  0  0  0
    0.8179    2.9392    0.0000 C   0  0  0  0  0  0  0  0  0  0  0  0
   -0.6636    3.1739    0.0000 C   0  0  0  0  0  0  0  0  0  0  0  0
   -2.0001    2.4929    0.0000 C   0  0  0  0  0  0  0  0  0  0  0  0
   -3.0608    3.5535    0.0000 C   0  0  0  0  0  0  0  0  0  0  0  0
   -2.6726    5.0024    0.0000 C   0  0  0  0  0  0  0  0  0  0  0  0
   -1.2237    5.3907    0.0000 C   0  0  0  0  0  0  0  0  0  0  0  0
   -0.8355    6.8395    0.0000 C   0  0  0  0  0  0  0  0  0  0  0  0
   -1.8961    7.9002    0.0000 C   0  0  0  0  0  0  0  0  0  0  0  0
   -3.3450    7.5120    0.0000 C   0  0  0  0  0  0  0  0  0  0  0  0
   -3.7332    6.0631    0.0000 C   0  0  0  0  0  0  0  0  0  0  0  0
   -2.6811    1.1564    0.0000 N   0  0  0  0  0  0  0  0  0  0  0  0
   -2.4465   -0.3252    0.0000 C   0  0  0  0  0  0  0  0  0  0  0  0
   -3.7830   -1.0061    0.0000 O   0  0  0  0  0  0  0  0  0  0  0  0
  1  2  1  0
  2  3  1  0
  3  4  1  0
  4  5  1  0
  5  6  1  0
  6  7  1  0
  7  8  1  0
  8  9  2  0
  8 10  1  0
 10 11  1  0
 11 12  1  0
 12 13  1  0
 13 14  1  0
 14 15  1  0
 15 16  2  0
 16 17  1  0
 17 18  2  0
 18 19  1  0
 19 20  2  0
 13 21  1  0
 21 22  1  0
 22 23  2  0
 10  2  1  0
 20 15  1  0
 22  5  1  0
M  END
>  <Title>  (324) 
idAAKNgen6

$$$$

     RDKit          2D

 20 21  0  0  0  0  0  0  0  0999 V2000
    2.2762  -10.1540    0.0000 C   0  0  0  0  0  0  0  0  0  0  0  0
    2.8863   -8.7837    0.0000 C   0  0  0  0  0  0  0  0  0  0  0  0
    4.3781   -8.6269    0.0000 C   0  0  0  0  0  0  0  0  0  0  0  0
    4.9882   -7.2566    0.0000 O   0  0  0  0  0  0  0  0  0  0  0  0
    5.2598   -9.8404    0.0000 O   0  0  0  0  0  0  0  0  0  0  0  0
    2.0046   -7.5702    0.0000 C   0  0  0  0  0  0  0  0  0  0  0  0
    0.8899   -8.5739    0.0000 O   0  0  0  0  0  0  0  0  0  0  0  0
    3.3037   -6.8202    0.0000 C   0  0  0  0  0  0  0  0  0  0  0  0
    2.9918   -5.3529    0.0000 C   0  0  0  0  0  0  0  0  0  0  0  0
    1.5000   -5.1962    0.0000 C   0  0  0  0  0  0  0  0  0  0  0  0
    0.7500   -3.8971    0.0000 C   0  0  0  0  0  0  0  0  0  0  0  0
   -0.7500   -3.8971    0.0000 O   0  0  0  0  0  0  0  0  0  0  0  0
    1.5000   -2.5981    0.0000 N   0  0  0  0  0  0  0  0  0  0  0  0
    0.7500   -1.2990    0.0000 C   0  0  0  0  0  0  0  0  0  0  0  0
    1.5000    0.0000    0.0000 N   0  0  0  0  0  0  0  0  0  0  0  0
    0.7500    1.2990    0.0000 N   0  0  0  0  0  0  0  0  0  0  0  0
   -0.7500    1.2990    0.0000 N   0  0  0  0  0  0  0  0  0  0  0  0
   -1.5000    0.0000    0.0000 N   0  0  0  0  0  0  0  0  0  0  0  0
   -0.7500   -1.2990    0.0000 N   0  0  0  0  0  0  0  0  0  0  0  0
    0.8899   -6.5665    0.0000 C   0  0  0  0  0  0  0  0  0  0  0  0
  1  2  1  0
  2  3  1  0
  3  4  2  0
  3  5  1  0
  2  6  1  0
  6  7  1  0
  6  8  1  0
  8  9  1  0
  9 10  1  0
 10 11  1  0
 11 12  2  0
 11 13  1  0
 13 14  1  0
 14 15  2  0
 15 16  1  0
 16 17  2  0
 17 18  1  0
 18 19  2  0
 10 20  1  0
 20  6  1  0
 19 14  1  0
M  END
>  <Title>  (325) 
idAAKOgen6

$$$$

     RDKit          2D

 11 11  0  0  0  0  0  0  0  0999 V2000
    3.7500   -1.2990    0.0000 C   0  0  0  0  0  0  0  0  0  0  0  0
    3.0000    0.0000    0.0000 C   0  0  0  0  0  0  0  0  0  0  0  0
    3.7500    1.2990    0.0000 O   0  0  0  0  0  0  0  0  0  0  0  0
    1.5000    0.0000    0.0000 C   0  0  0  0  0  0  0  0  0  0  0  0
    0.7500   -1.2990    0.0000 C   0  0  0  0  0  0  0  0  0  0  0  0
   -0.7500   -1.2990    0.0000 C   0  0  0  0  0  0  0  0  0  0  0  0
   -1.5000   -2.5981    0.0000 C   0  0  0  0  0  0  0  0  0  0  0  0
   -1.5000    0.0000    0.0000 C   0  0  0  0  0  0  0  0  0  0  0  0
   -0.7500    1.2990    0.0000 C   0  0  0  0  0  0  0  0  0  0  0  0
    0.7500    1.2990    0.0000 N   0  0  0  0  0  0  0  0  0  0  0  0
    1.5000    2.5981    0.0000 C   0  0  0  0  0  0  0  0  0  0  0  0
  1  2  1  0
  2  3  2  0
  2  4  1  0
  4  5  1  0
  5  6  1  0
  6  7  1  0
  6  8  1  0
  8  9  1  0
  9 10  1  0
 10 11  1  0
 10  4  1  0
M  END
>  <Title>  (326) 
idAAKPgen6

$$$$

     RDKit          2D

 63 69  0  0  0  0  0  0  0  0999 V2000
   -9.4892   -9.1237    0.0000 C   0  0  0  0  0  0  0  0  0  0  0  0
   -8.4855  -10.2385    0.0000 O   0  0  0  0  0  0  0  0  0  0  0  0
   -7.0183   -9.9266    0.0000 C   0  0  0  0  0  0  0  0  0  0  0  0
   -6.5548  -11.3532    0.0000 C   0  0  0  0  0  0  0  0  0  0  0  0
   -5.8048  -12.6522    0.0000 C   0  0  0  0  0  0  0  0  0  0  0  0
   -4.8011  -13.7669    0.0000 C   0  0  0  0  0  0  0  0  0  0  0  0
   -5.8048  -14.8817    0.0000 C   0  0  0  0  0  0  0  0  0  0  0  0
   -5.3412  -16.3082    0.0000 O   0  0  0  0  0  0  0  0  0  0  0  0
   -7.2720  -14.5698    0.0000 O   0  0  0  0  0  0  0  0  0  0  0  0
   -3.5875  -14.6486    0.0000 C   0  0  0  0  0  0  0  0  0  0  0  0
   -2.2172  -15.2587    0.0000 C   0  0  0  0  0  0  0  0  0  0  0  0
   -0.7500  -15.5706    0.0000 C   0  0  0  0  0  0  0  0  0  0  0  0
    0.7500  -15.5706    0.0000 C   0  0  0  0  0  0  0  0  0  0  0  0
    2.2172  -15.2587    0.0000 C   0  0  0  0  0  0  0  0  0  0  0  0
    3.5875  -14.6486    0.0000 C   0  0  0  0  0  0  0  0  0  0  0  0
    4.8011  -13.7669    0.0000 C   0  0  0  0  0  0  0  0  0  0  0  0
    5.8048  -12.6522    0.0000 C   0  0  0  0  0  0  0  0  0  0  0  0
    6.5548  -11.3532    0.0000 C   0  0  0  0  0  0  0  0  0  0  0  0
    7.0183   -9.9266    0.0000 C   0  0  0  0  0  0  0  0  0  0  0  0
    7.1751   -8.4348    0.0000 C   0  0  0  0  0  0  0  0  0  0  0  0
    7.0183   -6.9430    0.0000 C   0  0  0  0  0  0  0  0  0  0  0  0
    6.5548   -5.5164    0.0000 C   0  0  0  0  0  0  0  0  0  0  0  0
    5.8048   -4.2174    0.0000 C   0  0  0  0  0  0  0  0  0  0  0  0
    4.8011   -3.1027    0.0000 C   0  0  0  0  0  0  0  0  0  0  0  0
    3.5875   -2.2210    0.0000 C   0  0  0  0  0  0  0  0  0  0  0  0
    4.5912   -1.1063    0.0000 C   0  0  0  0  0  0  0  0  0  0  0  0
    3.8412    0.1927    0.0000 C   0  0  0  0  0  0  0  0  0  0  0  0
    2.3740   -0.1191    0.0000 C   0  0  0  0  0  0  0  0  0  0  0  0
    2.2172   -1.6109    0.0000 C   0  0  0  0  0  0  0  0  0  0  0  0
    0.7500   -1.2990    0.0000 C   0  0  0  0  0  0  0  0  0  0  0  0
    1.5000    0.0000    0.0000 C   0  0  0  0  0  0  0  0  0  0  0  0
    0.7500    1.2990    0.0000 C   0  0  0  0  0  0  0  0  0  0  0  0
   -0.7500    1.2990    0.0000 C   0  0  0  0  0  0  0  0  0  0  0  0
   -1.5000    0.0000    0.0000 C   0  0  0  0  0  0  0  0  0  0  0  0
   -0.7500   -1.2990    0.0000 C   0  0  0  0  0  0  0  0  0  0  0  0
   -2.2172   -1.6109    0.0000 C   0  0  0  0  0  0  0  0  0  0  0  0
   -2.6999   -0.4038    0.0000 C   0  0  0  0  0  0  0  0  0  0  0  0
   -3.3471    0.0664    0.0000 C   0  0  0  0  0  0  0  0  0  0  0  0
   -4.0780   -0.2590    0.0000 C   0  0  0  0  0  0  0  0  0  0  0  0
   -4.1616   -1.0546    0.0000 C   0  0  0  0  0  0  0  0  0  0  0  0
   -3.5875   -2.2210    0.0000 C   0  0  0  0  0  0  0  0  0  0  0  0
   -4.8011   -3.1027    0.0000 C   0  0  0  0  0  0  0  0  0  0  0  0
   -5.2646   -1.6761    0.0000 C   0  0  0  0  0  0  0  0  0  0  0  0
   -6.7318   -1.3642    0.0000 C   0  0  0  0  0  0  0  0  0  0  0  0
   -7.7355   -2.4790    0.0000 C   0  0  0  0  0  0  0  0  0  0  0  0
   -7.2720   -3.9055    0.0000 C   0  0  0  0  0  0  0  0  0  0  0  0
   -5.8048   -4.2174    0.0000 C   0  0  0  0  0  0  0  0  0  0  0  0
   -6.5548   -5.5164    0.0000 C   0  0  0  0  0  0  0  0  0  0  0  0
   -7.9251   -4.9063    0.0000 C   0  0  0  0  0  0  0  0  0  0  0  0
   -8.0819   -3.4146    0.0000 O   0  0  0  0  0  0  0  0  0  0  0  0
   -9.1386   -5.7880    0.0000 N   0  0  0  0  0  0  0  0  0  0  0  0
   -9.1386   -7.2880    0.0000 C   0  0  0  0  0  0  0  0  0  0  0  0
  -10.5652   -7.7515    0.0000 C   0  0  0  0  0  0  0  0  0  0  0  0
  -11.4469   -6.5380    0.0000 C   0  0  0  0  0  0  0  0  0  0  0  0
  -12.9469   -6.5380    0.0000 C   0  0  0  0  0  0  0  0  0  0  0  0
  -13.6969   -5.2390    0.0000 C   0  0  0  0  0  0  0  0  0  0  0  0
  -15.1969   -5.2390    0.0000 C   0  0  0  0  0  0  0  0  0  0  0  0
  -15.9469   -6.5380    0.0000 C   0  0  0  0  0  0  0  0  0  0  0  0
  -15.1969   -7.8371    0.0000 C   0  0  0  0  0  0  0  0  0  0  0  0
  -13.6969   -7.8371    0.0000 C   0  0  0  0  0  0  0  0  0  0  0  0
  -10.5652   -5.3245    0.0000 C   0  0  0  0  0  0  0  0  0  0  0  0
   -7.0183   -6.9430    0.0000 C   0  0  0  0  0  0  0  0  0  0  0  0
   -7.1751   -8.4348    0.0000 C   0  0  0  0  0  0  0  0  0  0  0  0
  1  2  1  0
  2  3  1  0
  3  4  2  0
  4  5  1  0
  5  6  2  0
  6  7  1  0
  7  8  2  0
  7  9  1  0
  6 10  1  0
 10 11  2  0
 11 12  1  0
 12 13  2  0
 13 14  1  0
 14 15  2  0
 15 16  1  0
 16 17  2  0
 17 18  1  0
 18 19  2  0
 19 20  1  0
 20 21  2  0
 21 22  1  0
 22 23  2  0
 23 24  1  0
 24 25  2  0
 25 26  1  0
 26 27  2  0
 27 28  1  0
 28 29  2  0
 29 30  1  0
 30 31  2  0
 31 32  1  0
 32 33  2  0
 33 34  1  0
 34 35  2  0
 35 36  1  0
 36 37  2  0
 37 38  1  0
 38 39  2  0
 39 40  1  0
 40 41  2  0
 41 42  1  0
 42 43  2  0
 43 44  1  0
 44 45  2  0
 45 46  1  0
 46 47  2  0
 47 48  1  0
 48 49  1  0
 49 50  2  0
 49 51  1  0
 51 52  1  0
 52 53  1  0
 53 54  1  0
 54 55  1  0
 55 56  2  0
 56 57  1  0
 57 58  2  0
 58 59  1  0
 59 60  2  0
 54 61  1  0
 48 62  1  0
 62 63  2  0
 63  3  1  0
 29 25  1  0
 35 30  1  0
 41 36  1  0
 47 42  1  0
 61 51  1  0
 60 55  1  0
M  END
>  <Title>  (327) 
idAAKQgen6

$$$$

     RDKit          2D

 29 30  0  0  0  0  0  0  0  0999 V2000
    7.0080   -0.0000    0.0000 C   0  0  0  0  0  0  0  0  0  0  0  0
    5.5080    0.0000    0.0000 C   0  0  0  0  0  0  0  0  0  0  0  0
    5.3037    1.4860    0.0000 C   0  0  0  0  0  0  0  0  0  0  0  0
    4.7061    2.8618    0.0000 C   0  0  0  0  0  0  0  0  0  0  0  0
    3.7595    4.0254    0.0000 C   0  0  0  0  0  0  0  0  0  0  0  0
    2.5340    4.8904    0.0000 C   0  0  0  0  0  0  0  0  0  0  0  0
    1.1206    5.3928    0.0000 C   0  0  0  0  0  0  0  0  0  0  0  0
   -0.3759    5.4951    0.0000 C   0  0  0  0  0  0  0  0  0  0  0  0
   -1.8445    5.1899    0.0000 C   0  0  0  0  0  0  0  0  0  0  0  0
   -3.1763    4.4998    0.0000 C   0  0  0  0  0  0  0  0  0  0  0  0
   -4.2726    3.4760    0.0000 C   0  0  0  0  0  0  0  0  0  0  0  0
   -5.0520    2.1944    0.0000 C   0  0  0  0  0  0  0  0  0  0  0  0
   -5.4567    0.7500    0.0000 C   0  0  0  0  0  0  0  0  0  0  0  0
   -5.4567   -0.7500    0.0000 C   0  0  0  0  0  0  0  0  0  0  0  0
   -5.0520   -2.1944    0.0000 C   0  0  0  0  0  0  0  0  0  0  0  0
   -4.2726   -3.4760    0.0000 C   0  0  0  0  0  0  0  0  0  0  0  0
   -3.1763   -4.4998    0.0000 C   0  0  0  0  0  0  0  0  0  0  0  0
   -1.8445   -5.1899    0.0000 C   0  0  0  0  0  0  0  0  0  0  0  0
   -0.3759   -5.4951    0.0000 C   0  0  0  0  0  0  0  0  0  0  0  0
   -1.0355   -6.8423    0.0000 O   0  0  0  0  0  0  0  0  0  0  0  0
   -0.1986   -8.0871    0.0000 C   0  0  0  0  0  0  0  0  0  0  0  0
    1.2979   -7.9848    0.0000 C   0  0  0  0  0  0  0  0  0  0  0  0
    2.1348   -9.2296    0.0000 O   0  0  0  0  0  0  0  0  0  0  0  0
    1.9575   -6.6376    0.0000 N   0  0  0  0  0  0  0  0  0  0  0  0
    1.1206   -5.3928    0.0000 N   0  0  0  0  0  0  0  0  0  0  0  0
    2.5340   -4.8904    0.0000 C   0  0  0  0  0  0  0  0  0  0  0  0
    3.7595   -4.0254    0.0000 N   0  0  0  0  0  0  0  0  0  0  0  0
    4.7061   -2.8618    0.0000 C   0  0  0  0  0  0  0  0  0  0  0  0
    5.3037   -1.4860    0.0000 N   0  0  0  0  0  0  0  0  0  0  0  0
  1  2  1  0
  2  3  1  0
  3  4  1  0
  4  5  1  0
  5  6  1  0
  6  7  1  0
  7  8  1  0
  8  9  1  0
  9 10  1  0
 10 11  1  0
 11 12  1  0
 12 13  1  0
 13 14  1  0
 14 15  1  0
 15 16  1  0
 16 17  1  0
 17 18  1  0
 18 19  1  0
 19 20  1  0
 20 21  1  0
 21 22  1  0
 22 23  2  0
 22 24  1  0
 24 25  1  0
 25 26  1  0
 26 27  1  0
 27 28  2  0
 28 29  1  0
 29  2  1  0
 25 19  1  0
M  END
>  <Title>  (328) 
idAAKRgen6

$$$$

     RDKit          2D

 32 35  0  0  0  0  0  0  0  0999 V2000
   -7.0952   -2.2632    0.0000 C   0  0  0  0  0  0  0  0  0  0  0  0
   -5.7962   -1.5132    0.0000 C   0  0  0  0  0  0  0  0  0  0  0  0
   -5.7962   -0.0132    0.0000 C   0  0  0  0  0  0  0  0  0  0  0  0
   -4.4971   -2.2632    0.0000 C   0  0  0  0  0  0  0  0  0  0  0  0
   -3.1981   -1.5132    0.0000 C   0  0  0  0  0  0  0  0  0  0  0  0
   -3.1981   -0.0132    0.0000 O   0  0  0  0  0  0  0  0  0  0  0  0
   -1.8991   -2.2632    0.0000 N   0  0  0  0  0  0  0  0  0  0  0  0
   -2.1595   -3.7404    0.0000 C   0  0  0  0  0  0  0  0  0  0  0  0
   -1.4095   -5.0395    0.0000 C   0  0  0  0  0  0  0  0  0  0  0  0
   -0.0000   -5.5525    0.0000 C   0  0  0  0  0  0  0  0  0  0  0  0
   -0.0000   -7.0525    0.0000 C   0  0  0  0  0  0  0  0  0  0  0  0
   -1.2990   -7.8025    0.0000 C   0  0  0  0  0  0  0  0  0  0  0  0
   -1.2990   -9.3025    0.0000 C   0  0  0  0  0  0  0  0  0  0  0  0
   -0.0000  -10.0525    0.0000 C   0  0  0  0  0  0  0  0  0  0  0  0
    1.2990   -9.3025    0.0000 C   0  0  0  0  0  0  0  0  0  0  0  0
    1.2990   -7.8025    0.0000 C   0  0  0  0  0  0  0  0  0  0  0  0
    1.4095   -5.0395    0.0000 C   0  0  0  0  0  0  0  0  0  0  0  0
    2.1595   -6.3385    0.0000 C   0  0  0  0  0  0  0  0  0  0  0  0
    3.6595   -6.3385    0.0000 C   0  0  0  0  0  0  0  0  0  0  0  0
    4.4095   -5.0395    0.0000 C   0  0  0  0  0  0  0  0  0  0  0  0
    5.9095   -5.0395    0.0000 C   0  0  0  0  0  0  0  0  0  0  0  0
    7.4095   -5.0395    0.0000 N   0  0  0  0  0  0  0  0  0  0  0  0
    3.6595   -3.7404    0.0000 C   0  0  0  0  0  0  0  0  0  0  0  0
    2.1595   -3.7404    0.0000 C   0  0  0  0  0  0  0  0  0  0  0  0
    1.8991   -2.2632    0.0000 C   0  0  0  0  0  0  0  0  0  0  0  0
    3.1981   -1.5132    0.0000 O   0  0  0  0  0  0  0  0  0  0  0  0
    0.7500   -1.2990    0.0000 C   0  0  0  0  0  0  0  0  0  0  0  0
    1.5000    0.0000    0.0000 C   0  0  0  0  0  0  0  0  0  0  0  0
    0.7500    1.2990    0.0000 C   0  0  0  0  0  0  0  0  0  0  0  0
   -0.7500    1.2990    0.0000 C   0  0  0  0  0  0  0  0  0  0  0  0
   -1.5000    0.0000    0.0000 C   0  0  0  0  0  0  0  0  0  0  0  0
   -0.7500   -1.2990    0.0000 C   0  0  0  0  0  0  0  0  0  0  0  0
  1  2  1  0
  2  3  1  0
  2  4  1  0
  4  5  1  0
  5  6  2  0
  5  7  1  0
  7  8  1  0
  8  9  1  0
  9 10  1  0
 10 11  1  0
 11 12  2  0
 12 13  1  0
 13 14  2  0
 14 15  1  0
 15 16  2  0
 10 17  1  0
 17 18  2  0
 18 19  1  0
 19 20  2  0
 20 21  1  0
 21 22  3  0
 20 23  1  0
 23 24  2  0
 24 25  1  0
 25 26  2  0
 25 27  1  0
 27 28  2  0
 28 29  1  0
 29 30  2  0
 30 31  1  0
 31 32  2  0
 32  7  1  0
 16 11  1  0
 24 17  1  0
 32 27  1  0
M  END
>  <Title>  (329) 
idAAKSgen6

$$$$

     RDKit          2D

  7  7  0  0  0  0  0  0  0  0999 V2000
    3.5260   -1.2990    0.0000 C   0  0  0  0  0  0  0  0  0  0  0  0
    2.7760    0.0000    0.0000 O   0  0  0  0  0  0  0  0  0  0  0  0
    1.2760    0.0000    0.0000 C   0  0  0  0  0  0  0  0  0  0  0  0
    0.3943    1.2135    0.0000 C   0  0  0  0  0  0  0  0  0  0  0  0
   -1.0323    0.7500    0.0000 C   0  0  0  0  0  0  0  0  0  0  0  0
   -1.0323   -0.7500    0.0000 C   0  0  0  0  0  0  0  0  0  0  0  0
    0.3943   -1.2135    0.0000 C   0  0  0  0  0  0  0  0  0  0  0  0
  1  2  1  0
  2  3  1  0
  3  4  2  0
  4  5  1  0
  5  6  1  0
  6  7  1  0
  7  3  1  0
M  END
>  <Title>  (330) 
idAAKTgen6

$$$$

     RDKit          2D

  6  5  0  0  0  0  0  0  0  0999 V2000
    0.0000    0.0000    0.0000 C   0  0  0  0  0  0  0  0  0  0  0  0
    1.2990    0.7500    0.0000 C   0  0  0  0  0  0  0  0  0  0  0  0
    2.5981   -0.0000    0.0000 C   0  0  0  0  0  0  0  0  0  0  0  0
    1.8481   -1.2990    0.0000 C   0  0  0  0  0  0  0  0  0  0  0  0
    3.3481    1.2990    0.0000 C   0  0  0  0  0  0  0  0  0  0  0  0
    3.8971   -0.7500    0.0000 O   0  0  0  0  0  0  0  0  0  0  0  0
  1  2  1  0
  2  3  1  0
  3  4  1  0
  3  5  1  0
  3  6  1  0
M  END
>  <Title>  (331) 
idAAKUgen6

$$$$

     RDKit          2D

 30 31  0  0  0  0  0  0  0  0999 V2000
   17.2500    3.8971    0.0000 C   0  0  0  0  0  0  0  0  0  0  0  0
   16.5000    2.5981    0.0000 C   0  0  0  0  0  0  0  0  0  0  0  0
   15.0000    2.5981    0.0000 C   0  0  0  0  0  0  0  0  0  0  0  0
   14.2500    1.2990    0.0000 C   0  0  0  0  0  0  0  0  0  0  0  0
   12.7500    1.2990    0.0000 C   0  0  0  0  0  0  0  0  0  0  0  0
   12.0000    0.0000    0.0000 C   0  0  0  0  0  0  0  0  0  0  0  0
   10.5000    0.0000    0.0000 C   0  0  0  0  0  0  0  0  0  0  0  0
    9.7500   -1.2990    0.0000 C   0  0  0  0  0  0  0  0  0  0  0  0
    8.2500   -1.2990    0.0000 C   0  0  0  0  0  0  0  0  0  0  0  0
    7.5000   -2.5981    0.0000 C   0  0  0  0  0  0  0  0  0  0  0  0
    8.2500   -3.8971    0.0000 C   0  0  0  0  0  0  0  0  0  0  0  0
    6.0000   -2.5981    0.0000 C   0  0  0  0  0  0  0  0  0  0  0  0
    5.2500   -1.2990    0.0000 C   0  0  0  0  0  0  0  0  0  0  0  0
    3.7500   -1.2990    0.0000 C   0  0  0  0  0  0  0  0  0  0  0  0
    3.0000    0.0000    0.0000 N   0  0  0  0  0  0  0  0  0  0  0  0
    1.5000    0.0000    0.0000 C   0  0  0  0  0  0  0  0  0  0  0  0
    0.7500   -1.2990    0.0000 C   0  0  0  0  0  0  0  0  0  0  0  0
   -0.7500   -1.2990    0.0000 C   0  0  0  0  0  0  0  0  0  0  0  0
   -1.5000    0.0000    0.0000 C   0  0  0  0  0  0  0  0  0  0  0  0
   -3.0000    0.0000    0.0000 C   0  0  0  0  0  0  0  0  0  0  0  0
   -3.7500   -1.2990    0.0000 O   0  0  0  0  0  0  0  0  0  0  0  0
   -3.7500    1.2990    0.0000 O   0  0  0  0  0  0  0  0  0  0  0  0
   -5.2500    1.2990    0.0000 C   0  0  0  0  0  0  0  0  0  0  0  0
   -6.0000    2.5981    0.0000 C   0  0  0  0  0  0  0  0  0  0  0  0
   -7.5000    2.5981    0.0000 C   0  0  0  0  0  0  0  0  0  0  0  0
   -8.2500    1.2990    0.0000 C   0  0  0  0  0  0  0  0  0  0  0  0
   -7.5000    0.0000    0.0000 C   0  0  0  0  0  0  0  0  0  0  0  0
   -6.0000    0.0000    0.0000 C   0  0  0  0  0  0  0  0  0  0  0  0
   -0.7500    1.2990    0.0000 C   0  0  0  0  0  0  0  0  0  0  0  0
    0.7500    1.2990    0.0000 C   0  0  0  0  0  0  0  0  0  0  0  0
  1  2  2  0
  2  3  1  0
  3  4  1  0
  4  5  1  0
  5  6  1  0
  6  7  1  0
  7  8  1  0
  8  9  1  0
  9 10  2  3
 10 11  1  0
 10 12  1  0
 12 13  2  3
 13 14  1  0
 14 15  2  3
 15 16  1  0
 16 17  2  0
 17 18  1  0
 18 19  2  0
 19 20  1  0
 20 21  2  0
 20 22  1  0
 22 23  1  0
 23 24  2  0
 24 25  1  0
 25 26  2  0
 26 27  1  0
 27 28  2  0
 19 29  1  0
 29 30  1  0
 30 16  1  0
 28 23  1  0
M  END
>  <Title>  (332) 
idAAKVgen6

$$$$

     RDKit          2D

  7  7  0  0  0  0  0  0  0  0999 V2000
    2.7760    0.0000    0.0000 C   0  0  0  0  0  0  0  0  0  0  0  0
    1.2760    0.0000    0.0000 C   0  0  0  0  0  0  0  0  0  0  0  0
    0.3943    1.2135    0.0000 C   0  0  0  0  0  0  0  0  0  0  0  0
   -1.0323    0.7500    0.0000 C   0  0  0  0  0  0  0  0  0  0  0  0
   -1.0323   -0.7500    0.0000 C   0  0  0  0  0  0  0  0  0  0  0  0
   -2.2458   -1.6317    0.0000 O   0  0  0  0  0  0  0  0  0  0  0  0
    0.3943   -1.2135    0.0000 N   0  0  0  0  0  0  0  0  0  0  0  0
  1  2  1  0
  2  3  1  0
  3  4  1  0
  4  5  1  0
  5  6  2  0
  5  7  1  0
  7  2  1  0
M  END
>  <Title>  (333) 
idAAKWgen6

$$$$

     RDKit          2D

 18 19  0  0  0  0  0  0  0  0999 V2000
    6.0000   -2.5981    0.0000 C   0  0  0  0  0  0  0  0  0  0  0  0
    5.2500   -1.2990    0.0000 C   0  0  0  0  0  0  0  0  0  0  0  0
    6.0000    0.0000    0.0000 O   0  0  0  0  0  0  0  0  0  0  0  0
    3.7500   -1.2990    0.0000 C   0  0  0  0  0  0  0  0  0  0  0  0
    3.0000    0.0000    0.0000 C   0  0  0  0  0  0  0  0  0  0  0  0
    1.5000    0.0000    0.0000 C   0  0  0  0  0  0  0  0  0  0  0  0
    0.7500   -1.2990    0.0000 C   0  0  0  0  0  0  0  0  0  0  0  0
   -0.7500   -1.2990    0.0000 C   0  0  0  0  0  0  0  0  0  0  0  0
   -1.5000    0.0000    0.0000 C   0  0  0  0  0  0  0  0  0  0  0  0
   -3.0000    0.0000    0.0000 N   0  0  0  0  0  0  0  0  0  0  0  0
   -4.0607    1.0607    0.0000 C   0  0  0  0  0  0  0  0  0  0  0  0
   -5.1213    0.0000    0.0000 C   0  0  0  0  0  0  0  0  0  0  0  0
   -4.0607   -1.0607    0.0000 C   0  0  0  0  0  0  0  0  0  0  0  0
   -0.7500    1.2990    0.0000 C   0  0  0  0  0  0  0  0  0  0  0  0
    0.7500    1.2990    0.0000 C   0  0  0  0  0  0  0  0  0  0  0  0
    3.0000   -2.5981    0.0000 C   0  0  0  0  0  0  0  0  0  0  0  0
    1.5000   -2.5981    0.0000 O   0  0  0  0  0  0  0  0  0  0  0  0
    3.7500   -3.8971    0.0000 O   0  0  0  0  0  0  0  0  0  0  0  0
  1  2  1  0
  2  3  2  0
  2  4  1  0
  4  5  1  0
  5  6  1  0
  6  7  2  0
  7  8  1  0
  8  9  2  0
  9 10  1  0
 10 11  1  0
 11 12  2  0
 12 13  1  0
  9 14  1  0
 14 15  1  0
  4 16  1  0
 16 17  2  0
 16 18  1  0
 15  6  1  0
 13 10  1  0
M  END
>  <Title>  (334) 
idAAKXgen6

$$$$

     RDKit          2D

 14 14  0  0  0  0  0  0  0  0999 V2000
    3.4598   -0.0000    0.0000 C   0  0  0  0  0  0  0  0  0  0  0  0
    1.9598    0.0000    0.0000 C   0  0  0  0  0  0  0  0  0  0  0  0
    1.3858   -1.3858    0.0000 C   0  0  0  0  0  0  0  0  0  0  0  0
   -0.0000   -1.9598    0.0000 C   0  0  0  0  0  0  0  0  0  0  0  0
   -1.3858   -1.3858    0.0000 C   0  0  0  0  0  0  0  0  0  0  0  0
   -2.4465   -2.4465    0.0000 O   0  0  0  0  0  0  0  0  0  0  0  0
   -1.9598    0.0000    0.0000 C   0  0  0  0  0  0  0  0  0  0  0  0
   -1.3858    1.3858    0.0000 C   0  0  0  0  0  0  0  0  0  0  0  0
    0.0000    1.9598    0.0000 C   0  0  0  0  0  0  0  0  0  0  0  0
    0.0000    3.4598    0.0000 C   0  0  0  0  0  0  0  0  0  0  0  0
   -1.2990    4.2098    0.0000 O   0  0  0  0  0  0  0  0  0  0  0  0
    1.2990    4.2098    0.0000 O   0  0  0  0  0  0  0  0  0  0  0  0
    1.3858    1.3858    0.0000 C   0  0  0  0  0  0  0  0  0  0  0  0
    2.4465    2.4465    0.0000 O   0  0  0  0  0  0  0  0  0  0  0  0
  1  2  1  0
  2  3  1  0
  3  4  1  0
  4  5  1  0
  5  6  1  0
  5  7  1  0
  7  8  1  0
  8  9  1  0
  9 10  1  0
 10 11  2  0
 10 12  1  0
  9 13  1  0
 13 14  2  0
 13  2  1  0
M  END
>  <Title>  (335) 
idAAKYgen6

$$$$

     RDKit          2D

 27 29  0  0  0  0  0  0  0  0999 V2000
    3.7500   -1.2990    0.0000 C   0  0  0  0  0  0  0  0  0  0  0  0
    3.0000    0.0000    0.0000 N   0  0  0  0  0  0  0  0  0  0  0  0
    3.7500    1.2990    0.0000 C   0  0  0  0  0  0  0  0  0  0  0  0
    1.5000    0.0000    0.0000 C   0  0  0  0  0  0  0  0  0  0  0  0
    0.7500   -1.2990    0.0000 C   0  0  0  0  0  0  0  0  0  0  0  0
   -0.7500   -1.2990    0.0000 C   0  0  0  0  0  0  0  0  0  0  0  0
   -1.5000    0.0000    0.0000 C   0  0  0  0  0  0  0  0  0  0  0  0
   -2.9832   -0.2236    0.0000 C   0  0  0  0  0  0  0  0  0  0  0  0
   -3.3170   -1.6860    0.0000 C   0  0  0  0  0  0  0  0  0  0  0  0
   -4.7504   -2.1281    0.0000 C   0  0  0  0  0  0  0  0  0  0  0  0
   -5.0842   -3.5905    0.0000 O   0  0  0  0  0  0  0  0  0  0  0  0
   -5.8500   -1.1078    0.0000 C   0  0  0  0  0  0  0  0  0  0  0  0
   -5.5162    0.3546    0.0000 C   0  0  0  0  0  0  0  0  0  0  0  0
   -4.0828    0.7967    0.0000 C   0  0  0  0  0  0  0  0  0  0  0  0
   -3.9707    2.2925    0.0000 C   0  0  0  0  0  0  0  0  0  0  0  0
   -2.7314    3.1375    0.0000 C   0  0  0  0  0  0  0  0  0  0  0  0
   -1.2980    2.6953    0.0000 N   0  0  0  0  0  0  0  0  0  0  0  0
   -0.2778    3.7949    0.0000 C   0  0  0  0  0  0  0  0  0  0  0  0
   -0.7199    5.2283    0.0000 C   0  0  0  0  0  0  0  0  0  0  0  0
    0.3004    6.3279    0.0000 C   0  0  0  0  0  0  0  0  0  0  0  0
    1.3206    7.4274    0.0000 C   0  0  0  0  0  0  0  0  0  0  0  0
    2.3409    8.5270    0.0000 C   0  0  0  0  0  0  0  0  0  0  0  0
    1.2413    9.5473    0.0000 C   0  0  0  0  0  0  0  0  0  0  0  0
    3.4405    7.5068    0.0000 C   0  0  0  0  0  0  0  0  0  0  0  0
    3.3612    9.6266    0.0000 C   0  0  0  0  0  0  0  0  0  0  0  0
   -0.7500    1.2990    0.0000 C   0  0  0  0  0  0  0  0  0  0  0  0
    0.7500    1.2990    0.0000 C   0  0  0  0  0  0  0  0  0  0  0  0
  1  2  1  0
  2  3  1  0
  2  4  1  0
  4  5  2  0
  5  6  1  0
  6  7  2  0
  7  8  1  0
  8  9  2  0
  9 10  1  0
 10 11  1  0
 10 12  2  0
 12 13  1  0
 13 14  2  0
 14 15  1  0
 15 16  2  0
 16 17  1  0
 17 18  1  0
 18 19  1  0
 19 20  1  0
 20 21  3  0
 21 22  1  0
 22 23  1  0
 22 24  1  0
 22 25  1  0
 17 26  1  0
 26 27  1  0
 27  4  1  0
 26  7  1  0
 14  8  1  0
M  END
>  <Title>  (336) 
idAAKZgen6

$$$$

     RDKit          2D

 15 15  0  0  0  0  0  0  0  0999 V2000
    6.0000   -2.5981    0.0000 C   0  0  0  0  0  0  0  0  0  0  0  0
    5.2500   -1.2990    0.0000 C   0  0  0  0  0  0  0  0  0  0  0  0
    6.0000    0.0000    0.0000 O   0  0  0  0  0  0  0  0  0  0  0  0
    3.7500   -1.2990    0.0000 C   0  0  0  0  0  0  0  0  0  0  0  0
    3.0000    0.0000    0.0000 C   0  0  0  0  0  0  0  0  0  0  0  0
    1.5000    0.0000    0.0000 C   0  0  0  0  0  0  0  0  0  0  0  0
    0.7500   -1.2990    0.0000 C   0  0  0  0  0  0  0  0  0  0  0  0
   -0.7500   -1.2990    0.0000 C   0  0  0  0  0  0  0  0  0  0  0  0
   -1.5000    0.0000    0.0000 C   0  0  0  0  0  0  0  0  0  0  0  0
   -0.7500    1.2990    0.0000 C   0  0  0  0  0  0  0  0  0  0  0  0
   -1.5000    2.5981    0.0000 O   0  0  0  0  0  0  0  0  0  0  0  0
    0.7500    1.2990    0.0000 C   0  0  0  0  0  0  0  0  0  0  0  0
    3.0000   -2.5981    0.0000 C   0  0  0  0  0  0  0  0  0  0  0  0
    1.5000   -2.5981    0.0000 O   0  0  0  0  0  0  0  0  0  0  0  0
    3.7500   -3.8971    0.0000 O   0  0  0  0  0  0  0  0  0  0  0  0
  1  2  1  0
  2  3  2  0
  2  4  1  0
  4  5  1  0
  5  6  1  0
  6  7  2  0
  7  8  1  0
  8  9  2  0
  9 10  1  0
 10 11  1  0
 10 12  1  0
  4 13  1  0
 13 14  2  0
 13 15  1  0
 12  6  1  0
M  END
>  <Title>  (337) 
idAALAgen6

$$$$

     RDKit          2D

 41 44  0  0  0  0  0  0  0  0999 V2000
    8.8074   -3.0130    0.0000 C   0  0  0  0  0  0  0  0  0  0  0  0
    7.3682   -2.5904    0.0000 C   0  0  0  0  0  0  0  0  0  0  0  0
    7.0145   -1.1327    0.0000 O   0  0  0  0  0  0  0  0  0  0  0  0
    6.2826   -3.6256    0.0000 C   0  0  0  0  0  0  0  0  0  0  0  0
    6.6362   -5.0833    0.0000 C   0  0  0  0  0  0  0  0  0  0  0  0
    8.0755   -5.5059    0.0000 C   0  0  0  0  0  0  0  0  0  0  0  0
    9.0807   -4.3925    0.0000 C   0  0  0  0  0  0  0  0  0  0  0  0
   10.5779   -4.4843    0.0000 C   0  0  0  0  0  0  0  0  0  0  0  0
   11.4396   -5.7120    0.0000 C   0  0  0  0  0  0  0  0  0  0  0  0
   12.9197   -5.4683    0.0000 O   0  0  0  0  0  0  0  0  0  0  0  0
   11.0170   -7.1513    0.0000 C   0  0  0  0  0  0  0  0  0  0  0  0
    9.6283   -7.7182    0.0000 C   0  0  0  0  0  0  0  0  0  0  0  0
    9.5365   -9.2154    0.0000 O   0  0  0  0  0  0  0  0  0  0  0  0
    8.3192   -6.9859    0.0000 C   0  0  0  0  0  0  0  0  0  0  0  0
    4.8433   -3.2030    0.0000 N   0  0  0  0  0  0  0  0  0  0  0  0
    4.4897   -1.7452    0.0000 C   0  0  0  0  0  0  0  0  0  0  0  0
    5.5753   -0.7101    0.0000 O   0  0  0  0  0  0  0  0  0  0  0  0
    3.0505   -1.3226    0.0000 C   0  0  0  0  0  0  0  0  0  0  0  0
    3.0505    0.1774    0.0000 C   0  0  0  0  0  0  0  0  0  0  0  0
    2.2395    1.4392    0.0000 C   0  0  0  0  0  0  0  0  0  0  0  0
    1.9621    0.0000    0.0000 C   0  0  0  0  0  0  0  0  0  0  0  0
    1.6506   -1.0608    0.0000 C   0  0  0  0  0  0  0  0  0  0  0  0
    0.8151   -1.7848    0.0000 C   0  0  0  0  0  0  0  0  0  0  0  0
    1.7290   -3.7860    0.0000 O   0  0  0  0  0  0  0  0  0  0  0  0
    0.8589   -5.0078    0.0000 C   0  0  0  0  0  0  0  0  0  0  0  0
   -0.6343   -4.8653    0.0000 C   0  0  0  0  0  0  0  0  0  0  0  0
   -1.5044   -6.0871    0.0000 C   0  0  0  0  0  0  0  0  0  0  0  0
   -0.8813   -7.4516    0.0000 N   0  0  0  0  0  0  0  0  0  0  0  0
    0.6120   -7.5942    0.0000 N   0  0  0  0  0  0  0  0  0  0  0  0
    1.4820   -6.3723    0.0000 N   0  0  0  0  0  0  0  0  0  0  0  0
   -0.2792   -1.9421    0.0000 C   0  0  0  0  0  0  0  0  0  0  0  0
   -1.7433   -2.0119    0.0000 C   0  0  0  0  0  0  0  0  0  0  0  0
   -2.5543   -0.7500    0.0000 C   0  0  0  0  0  0  0  0  0  0  0  0
   -2.5543    0.7500    0.0000 C   0  0  0  0  0  0  0  0  0  0  0  0
   -1.7433    2.0119    0.0000 C   0  0  0  0  0  0  0  0  0  0  0  0
   -0.3789    2.6350    0.0000 C   0  0  0  0  0  0  0  0  0  0  0  0
    1.1059    2.4215    0.0000 C   0  0  0  0  0  0  0  0  0  0  0  0
   -0.6097   -2.9942    0.0000 N   0  0  0  0  0  0  0  0  0  0  0  0
    0.8751   -3.2076    0.0000 C   0  0  0  0  0  0  0  0  0  0  0  0
    0.7752   -4.1867    0.0000 O   0  0  0  0  0  0  0  0  0  0  0  0
    2.2395   -2.5845    0.0000 N   0  0  0  0  0  0  0  0  0  0  0  0
  1  2  1  0
  2  3  2  0
  2  4  1  0
  4  5  1  0
  5  6  1  0
  6  7  2  0
  7  8  1  0
  8  9  2  0
  9 10  1  0
  9 11  1  0
 11 12  2  0
 12 13  1  0
 12 14  1  0
  4 15  1  0
 15 16  1  0
 16 17  2  0
 16 18  1  0
 18 19  1  0
 19 20  1  0
 20 21  2  0
 21 22  1  0
 22 23  2  0
 23 24  1  0
 24 25  1  0
 25 26  2  0
 26 27  1  0
 27 28  2  0
 28 29  1  0
 29 30  2  0
 23 31  1  0
 31 32  1  0
 32 33  2  0
 33 34  1  0
 34 35  2  0
 35 36  1  0
 36 37  2  0
 32 38  1  0
 38 39  1  0
 39 40  2  0
 39 41  1  0
 14  6  1  0
 41 18  1  0
 37 20  1  0
 30 25  1  0
M  END
>  <Title>  (338) 
idAALBgen6

$$$$

     RDKit          2D

 14 15  0  0  0  0  0  0  0  0999 V2000
   -5.1814   -2.6490    0.0000 C   0  0  0  0  0  0  0  0  0  0  0  0
   -3.7548   -2.1855    0.0000 C   0  0  0  0  0  0  0  0  0  0  0  0
   -3.4430   -0.7182    0.0000 O   0  0  0  0  0  0  0  0  0  0  0  0
   -2.6401   -3.1891    0.0000 C   0  0  0  0  0  0  0  0  0  0  0  0
   -1.2135   -2.7256    0.0000 N   0  0  0  0  0  0  0  0  0  0  0  0
   -0.0000   -3.6073    0.0000 C   0  0  0  0  0  0  0  0  0  0  0  0
   -0.0000   -5.1073    0.0000 O   0  0  0  0  0  0  0  0  0  0  0  0
    1.2135   -2.7256    0.0000 O   0  0  0  0  0  0  0  0  0  0  0  0
    0.7500   -1.2990    0.0000 C   0  0  0  0  0  0  0  0  0  0  0  0
    1.5000    0.0000    0.0000 C   0  0  0  0  0  0  0  0  0  0  0  0
    0.7500    1.2990    0.0000 C   0  0  0  0  0  0  0  0  0  0  0  0
   -0.7500    1.2990    0.0000 C   0  0  0  0  0  0  0  0  0  0  0  0
   -1.5000    0.0000    0.0000 C   0  0  0  0  0  0  0  0  0  0  0  0
   -0.7500   -1.2990    0.0000 C   0  0  0  0  0  0  0  0  0  0  0  0
  1  2  1  0
  2  3  2  0
  2  4  1  0
  4  5  1  0
  5  6  1  0
  6  7  2  0
  6  8  1  0
  8  9  1  0
  9 10  2  0
 10 11  1  0
 11 12  2  0
 12 13  1  0
 13 14  2  0
 14  5  1  0
 14  9  1  0
M  END
>  <Title>  (339) 
idAALCgen6

$$$$

     RDKit          2D

 32 36  0  0  0  0  0  0  0  0999 V2000
   -3.0367   -8.3929    0.0000 C   0  0  0  0  0  0  0  0  0  0  0  0
   -2.1015   -7.2201    0.0000 C   0  0  0  0  0  0  0  0  0  0  0  0
   -0.7500   -7.8710    0.0000 C   0  0  0  0  0  0  0  0  0  0  0  0
    0.7500   -7.8710    0.0000 C   0  0  0  0  0  0  0  0  0  0  0  0
    2.1015   -7.2201    0.0000 C   0  0  0  0  0  0  0  0  0  0  0  0
    3.2742   -8.1554    0.0000 C   0  0  0  0  0  0  0  0  0  0  0  0
    3.4421   -9.6459    0.0000 O   0  0  0  0  0  0  0  0  0  0  0  0
    4.2094   -6.9826    0.0000 N   0  0  0  0  0  0  0  0  0  0  0  0
    3.0367   -6.0474    0.0000 C   0  0  0  0  0  0  0  0  0  0  0  0
    3.3705   -4.5850    0.0000 N   0  0  0  0  0  0  0  0  0  0  0  0
    3.0367   -3.1226    0.0000 N   0  0  0  0  0  0  0  0  0  0  0  0
    2.1015   -1.9499    0.0000 N   0  0  0  0  0  0  0  0  0  0  0  0
    0.7500   -1.2990    0.0000 C   0  0  0  0  0  0  0  0  0  0  0  0
    1.5000    0.0000    0.0000 C   0  0  0  0  0  0  0  0  0  0  0  0
    0.7500    1.2990    0.0000 C   0  0  0  0  0  0  0  0  0  0  0  0
   -0.7500    1.2990    0.0000 C   0  0  0  0  0  0  0  0  0  0  0  0
   -1.5000    0.0000    0.0000 C   0  0  0  0  0  0  0  0  0  0  0  0
   -0.7500   -1.2990    0.0000 C   0  0  0  0  0  0  0  0  0  0  0  0
   -2.1015   -1.9499    0.0000 C   0  0  0  0  0  0  0  0  0  0  0  0
   -2.6495   -0.5536    0.0000 C   0  0  0  0  0  0  0  0  0  0  0  0
   -4.1327   -0.3300    0.0000 C   0  0  0  0  0  0  0  0  0  0  0  0
   -5.0679   -1.5027    0.0000 C   0  0  0  0  0  0  0  0  0  0  0  0
   -6.5512   -1.2792    0.0000 C   0  0  0  0  0  0  0  0  0  0  0  0
   -8.0344   -1.0556    0.0000 N   0  0  0  0  0  0  0  0  0  0  0  0
   -4.5199   -2.8990    0.0000 C   0  0  0  0  0  0  0  0  0  0  0  0
   -3.0367   -3.1226    0.0000 C   0  0  0  0  0  0  0  0  0  0  0  0
   -3.3705   -4.5850    0.0000 C   0  0  0  0  0  0  0  0  0  0  0  0
   -4.8038   -4.1429    0.0000 C   0  0  0  0  0  0  0  0  0  0  0  0
   -5.9034   -5.1631    0.0000 C   0  0  0  0  0  0  0  0  0  0  0  0
   -5.5696   -6.6255    0.0000 C   0  0  0  0  0  0  0  0  0  0  0  0
   -4.1363   -7.0677    0.0000 C   0  0  0  0  0  0  0  0  0  0  0  0
   -3.0367   -6.0474    0.0000 C   0  0  0  0  0  0  0  0  0  0  0  0
  1  2  1  0
  2  3  2  0
  3  4  1  0
  4  5  2  0
  5  6  1  0
  6  7  2  0
  6  8  1  0
  8  9  1  0
  9 10  2  0
 10 11  1  0
 11 12  2  0
 12 13  1  0
 13 14  2  0
 14 15  1  0
 15 16  2  0
 16 17  1  0
 17 18  2  0
 18 19  1  0
 19 20  2  0
 20 21  1  0
 21 22  2  0
 22 23  1  0
 23 24  3  0
 22 25  1  0
 25 26  2  0
 26 27  1  0
 27 28  2  0
 28 29  1  0
 29 30  2  0
 30 31  1  0
 31 32  2  0
 32  2  1  0
  9  5  1  0
 18 13  1  0
 26 19  1  0
 32 27  1  0
M  END
>  <Title>  (340) 
idAALDgen6

$$$$

     RDKit          2D

  8  7  0  0  0  0  0  0  0  0999 V2000
    0.0000    0.0000    0.0000 C   0  0  0  0  0  0  0  0  0  0  0  0
    1.2990    0.7500    0.0000 C   0  0  0  0  0  0  0  0  0  0  0  0
    2.5981    1.5000    0.0000 C   0  0  0  0  0  0  0  0  0  0  0  0
    2.0490   -0.5490    0.0000 C   0  0  0  0  0  0  0  0  0  0  0  0
    0.5490    2.0490    0.0000 C   0  0  0  0  0  0  0  0  0  0  0  0
   -0.2010    3.3481    0.0000 C   0  0  0  0  0  0  0  0  0  0  0  0
   -0.9510    4.6471    0.0000 C   0  0  0  0  0  0  0  0  0  0  0  0
   -1.7010    5.9462    0.0000 N   0  0  0  0  0  0  0  0  0  0  0  0
  1  2  1  0
  2  3  1  0
  2  4  1  0
  2  5  1  0
  5  6  3  0
  6  7  1  0
  7  8  3  0
M  END
>  <Title>  (341) 
idAALEgen6

$$$$

     RDKit          2D

 61 69  0  0  0  0  0  0  0  0999 V2000
    6.6356    3.1224    0.0000 C   0  0  0  0  0  0  0  0  0  0  0  0
    5.7337    1.9239    0.0000 C   0  0  0  0  0  0  0  0  0  0  0  0
    4.3822    2.5747    0.0000 C   0  0  0  0  0  0  0  0  0  0  0  0
    2.8846    2.6588    0.0000 C   0  0  0  0  0  0  0  0  0  0  0  0
    1.0777    1.3515    0.0000 C   0  0  0  0  0  0  0  0  0  0  0  0
    1.7286    0.0000    0.0000 C   0  0  0  0  0  0  0  0  0  0  0  0
    1.0777   -1.3515    0.0000 C   0  0  0  0  0  0  0  0  0  0  0  0
   -0.3846   -1.6852    0.0000 C   0  0  0  0  0  0  0  0  0  0  0  0
    0.1108   -3.1011    0.0000 C   0  0  0  0  0  0  0  0  0  0  0  0
   -1.1812   -3.8632    0.0000 C   0  0  0  0  0  0  0  0  0  0  0  0
   -1.9190   -5.1692    0.0000 C   0  0  0  0  0  0  0  0  0  0  0  0
   -2.6811   -3.8772    0.0000 C   0  0  0  0  0  0  0  0  0  0  0  0
    1.1103   -4.2195    0.0000 C   0  0  0  0  0  0  0  0  0  0  0  0
    2.4617   -4.8703    0.0000 C   0  0  0  0  0  0  0  0  0  0  0  0
    3.9594   -4.9545    0.0000 C   0  0  0  0  0  0  0  0  0  0  0  0
    5.3752   -4.4590    0.0000 C   0  0  0  0  0  0  0  0  0  0  0  0
    6.4937   -3.4595    0.0000 O   0  0  0  0  0  0  0  0  0  0  0  0
    7.1445   -2.1081    0.0000 C   0  0  0  0  0  0  0  0  0  0  0  0
    8.5970   -2.4827    0.0000 O   0  0  0  0  0  0  0  0  0  0  0  0
    8.9987   -3.9279    0.0000 C   0  0  0  0  0  0  0  0  0  0  0  0
    7.9480   -4.9985    0.0000 C   0  0  0  0  0  0  0  0  0  0  0  0
    8.3498   -6.4436    0.0000 C   0  0  0  0  0  0  0  0  0  0  0  0
    9.8022   -6.8183    0.0000 C   0  0  0  0  0  0  0  0  0  0  0  0
   10.8529   -5.7478    0.0000 C   0  0  0  0  0  0  0  0  0  0  0  0
   10.4512   -4.3026    0.0000 C   0  0  0  0  0  0  0  0  0  0  0  0
   11.5019   -3.2321    0.0000 C   0  0  0  0  0  0  0  0  0  0  0  0
   11.1001   -1.7869    0.0000 C   0  0  0  0  0  0  0  0  0  0  0  0
   12.1508   -0.7163    0.0000 C   0  0  0  0  0  0  0  0  0  0  0  0
   13.6033   -1.0910    0.0000 C   0  0  0  0  0  0  0  0  0  0  0  0
   14.0050   -2.5362    0.0000 C   0  0  0  0  0  0  0  0  0  0  0  0
   12.9543   -3.6067    0.0000 C   0  0  0  0  0  0  0  0  0  0  0  0
   13.3561   -5.0519    0.0000 C   0  0  0  0  0  0  0  0  0  0  0  0
   12.3054   -6.1224    0.0000 C   0  0  0  0  0  0  0  0  0  0  0  0
   12.7071   -7.5676    0.0000 C   0  0  0  0  0  0  0  0  0  0  0  0
   14.1596   -7.9423    0.0000 C   0  0  0  0  0  0  0  0  0  0  0  0
   15.2103   -6.8718    0.0000 C   0  0  0  0  0  0  0  0  0  0  0  0
   14.8085   -5.4266    0.0000 C   0  0  0  0  0  0  0  0  0  0  0  0
   15.8592   -4.3561    0.0000 C   0  0  0  0  0  0  0  0  0  0  0  0
   15.4575   -2.9109    0.0000 C   0  0  0  0  0  0  0  0  0  0  0  0
   16.5082   -1.8403    0.0000 C   0  0  0  0  0  0  0  0  0  0  0  0
   17.9606   -2.2150    0.0000 C   0  0  0  0  0  0  0  0  0  0  0  0
   18.3624   -3.6602    0.0000 C   0  0  0  0  0  0  0  0  0  0  0  0
   17.3117   -4.7307    0.0000 C   0  0  0  0  0  0  0  0  0  0  0  0
   17.7134   -6.1759    0.0000 C   0  0  0  0  0  0  0  0  0  0  0  0
   19.1659   -6.5506    0.0000 C   0  0  0  0  0  0  0  0  0  0  0  0
   19.5677   -7.9958    0.0000 C   0  0  0  0  0  0  0  0  0  0  0  0
   18.5170   -9.0663    0.0000 C   0  0  0  0  0  0  0  0  0  0  0  0
   17.0645   -8.6916    0.0000 C   0  0  0  0  0  0  0  0  0  0  0  0
   16.6628   -7.2464    0.0000 C   0  0  0  0  0  0  0  0  0  0  0  0
    7.2286   -0.6104    0.0000 C   0  0  0  0  0  0  0  0  0  0  0  0
    6.7332    0.8054    0.0000 C   0  0  0  0  0  0  0  0  0  0  0  0
   -1.5574   -0.7500    0.0000 C   0  0  0  0  0  0  0  0  0  0  0  0
   -2.9088   -1.4008    0.0000 C   0  0  0  0  0  0  0  0  0  0  0  0
   -4.1482   -0.5558    0.0000 C   0  0  0  0  0  0  0  0  0  0  0  0
   -5.4997   -1.2067    0.0000 C   0  0  0  0  0  0  0  0  0  0  0  0
   -5.6118   -2.7025    0.0000 C   0  0  0  0  0  0  0  0  0  0  0  0
   -4.3724   -3.5475    0.0000 C   0  0  0  0  0  0  0  0  0  0  0  0
   -3.0209   -2.8966    0.0000 C   0  0  0  0  0  0  0  0  0  0  0  0
   -1.5574    0.7500    0.0000 C   0  0  0  0  0  0  0  0  0  0  0  0
   -2.9088    1.4008    0.0000 O   0  0  0  0  0  0  0  0  0  0  0  0
   -0.3846    1.6852    0.0000 N   0  0  0  0  0  0  0  0  0  0  0  0
  1  2  1  0
  2  3  1  0
  3  4  2  0
  4  5  1  0
  5  6  2  0
  6  7  1  0
  7  8  2  0
  8  9  1  0
  9 10  1  0
 10 11  1  0
 11 12  1  0
  9 13  2  0
 13 14  1  0
 14 15  2  0
 15 16  1  0
 16 17  1  0
 17 18  1  0
 18 19  1  0
 19 20  1  0
 20 21  2  0
 21 22  1  0
 22 23  2  0
 23 24  1  0
 24 25  2  0
 25 26  1  0
 26 27  2  0
 27 28  1  0
 28 29  2  0
 29 30  1  0
 30 31  2  0
 31 32  1  0
 32 33  2  0
 33 34  1  0
 34 35  2  0
 35 36  1  0
 36 37  2  0
 37 38  1  0
 38 39  2  0
 39 40  1  0
 40 41  2  0
 41 42  1  0
 42 43  2  0
 43 44  1  0
 44 45  2  0
 45 46  1  0
 46 47  2  0
 47 48  1  0
 48 49  2  0
 18 50  1  0
 50 51  2  0
  8 52  1  0
 52 53  1  0
 53 54  2  0
 54 55  1  0
 55 56  2  0
 56 57  1  0
 57 58  2  0
 52 59  1  0
 59 60  2  0
 59 61  1  0
 51  2  1  0
 58 53  1  0
 61  5  1  0
 12 10  1  0
 25 20  1  0
 31 26  1  0
 37 32  1  0
 43 38  1  0
 49 44  1  0
M  END
>  <Title>  (342) 
idAALFgen6

$$$$

     RDKit          2D

 24 26  0  0  0  0  0  0  0  0999 V2000
   -3.1455   -1.1277    0.0000 C   0  0  0  0  0  0  0  0  0  0  0  0
   -2.0119   -2.1100    0.0000 C   0  0  0  0  0  0  0  0  0  0  0  0
   -2.6350   -3.4744    0.0000 C   0  0  0  0  0  0  0  0  0  0  0  0
   -2.4215   -4.9592    0.0000 C   0  0  0  0  0  0  0  0  0  0  0  0
   -1.4392   -6.0928    0.0000 C   0  0  0  0  0  0  0  0  0  0  0  0
   -0.0000   -6.5154    0.0000 C   0  0  0  0  0  0  0  0  0  0  0  0
    1.4392   -6.0928    0.0000 C   0  0  0  0  0  0  0  0  0  0  0  0
    2.4215   -4.9592    0.0000 C   0  0  0  0  0  0  0  0  0  0  0  0
    2.6350   -3.4744    0.0000 C   0  0  0  0  0  0  0  0  0  0  0  0
    2.0119   -2.1100    0.0000 C   0  0  0  0  0  0  0  0  0  0  0  0
    3.1455   -1.1277    0.0000 O   0  0  0  0  0  0  0  0  0  0  0  0
    4.5630   -1.6183    0.0000 C   0  0  0  0  0  0  0  0  0  0  0  0
    4.8469   -3.0912    0.0000 N   0  0  0  0  0  0  0  0  0  0  0  0
    6.2644   -3.5818    0.0000 N   0  0  0  0  0  0  0  0  0  0  0  0
    7.3980   -2.5995    0.0000 N   0  0  0  0  0  0  0  0  0  0  0  0
    7.1141   -1.1266    0.0000 N   0  0  0  0  0  0  0  0  0  0  0  0
    5.6966   -0.6360    0.0000 N   0  0  0  0  0  0  0  0  0  0  0  0
    0.7500   -1.2990    0.0000 C   0  0  0  0  0  0  0  0  0  0  0  0
    1.5000    0.0000    0.0000 C   0  0  0  0  0  0  0  0  0  0  0  0
    0.7500    1.2990    0.0000 C   0  0  0  0  0  0  0  0  0  0  0  0
   -0.7500    1.2990    0.0000 C   0  0  0  0  0  0  0  0  0  0  0  0
   -1.5000    2.5981    0.0000 Cl  0  0  0  0  0  0  0  0  0  0  0  0
   -1.5000    0.0000    0.0000 C   0  0  0  0  0  0  0  0  0  0  0  0
   -0.7500   -1.2990    0.0000 C   0  0  0  0  0  0  0  0  0  0  0  0
  1  2  1  0
  2  3  1  0
  3  4  1  0
  4  5  1  0
  5  6  1  0
  6  7  1  0
  7  8  1  0
  8  9  1  0
  9 10  1  0
 10 11  1  0
 11 12  1  0
 12 13  2  0
 13 14  1  0
 14 15  2  0
 15 16  1  0
 16 17  2  0
 10 18  1  0
 18 19  2  0
 19 20  1  0
 20 21  2  0
 21 22  1  0
 21 23  1  0
 23 24  2  0
 24  2  1  0
 17 12  1  0
 24 18  1  0
M  END
>  <Title>  (343) 
idAALGgen6

$$$$

     RDKit          2D

 64 69  0  0  0  0  0  0  0  0999 V2000
    2.7307   -8.5262    0.0000 C   0  0  0  0  0  0  0  0  0  0  0  0
    3.7913   -7.4656    0.0000 C   0  0  0  0  0  0  0  0  0  0  0  0
    4.8520   -6.4049    0.0000 C   0  0  0  0  0  0  0  0  0  0  0  0
    4.8520   -8.5262    0.0000 C   0  0  0  0  0  0  0  0  0  0  0  0
    2.7307   -6.4049    0.0000 N   0  0  0  0  0  0  0  0  0  0  0  0
    3.1189   -4.9560    0.0000 C   0  0  0  0  0  0  0  0  0  0  0  0
    4.5678   -4.5678    0.0000 O   0  0  0  0  0  0  0  0  0  0  0  0
    2.0583   -3.8954    0.0000 C   0  0  0  0  0  0  0  0  0  0  0  0
    2.4465   -2.4465    0.0000 C   0  0  0  0  0  0  0  0  0  0  0  0
    1.3858   -1.3858    0.0000 C   0  0  0  0  0  0  0  0  0  0  0  0
    1.9598    0.0000    0.0000 C   0  0  0  0  0  0  0  0  0  0  0  0
    1.3858    1.3858    0.0000 C   0  0  0  0  0  0  0  0  0  0  0  0
    2.4465    2.4465    0.0000 C   0  0  0  0  0  0  0  0  0  0  0  0
    3.8954    2.0583    0.0000 C   0  0  0  0  0  0  0  0  0  0  0  0
    4.9560    3.1189    0.0000 C   0  0  0  0  0  0  0  0  0  0  0  0
    4.5678    4.5678    0.0000 C   0  0  0  0  0  0  0  0  0  0  0  0
    3.1189    4.9560    0.0000 C   0  0  0  0  0  0  0  0  0  0  0  0
    2.0583    3.8954    0.0000 C   0  0  0  0  0  0  0  0  0  0  0  0
    0.0000    1.9598    0.0000 C   0  0  0  0  0  0  0  0  0  0  0  0
   -1.3858    1.3858    0.0000 C   0  0  0  0  0  0  0  0  0  0  0  0
   -2.4465    2.4465    0.0000 N   0  0  0  0  0  0  0  0  0  0  0  0
   -2.0583    3.8954    0.0000 C   0  0  0  0  0  0  0  0  0  0  0  0
   -3.1189    4.9560    0.0000 C   0  0  0  0  0  0  0  0  0  0  0  0
   -4.5678    4.5678    0.0000 C   0  0  0  0  0  0  0  0  0  0  0  0
   -5.6285    5.6285    0.0000 C   0  0  0  0  0  0  0  0  0  0  0  0
   -7.0773    5.2402    0.0000 O   0  0  0  0  0  0  0  0  0  0  0  0
   -5.2402    7.0773    0.0000 N   0  0  0  0  0  0  0  0  0  0  0  0
   -6.3009    8.1380    0.0000 C   0  0  0  0  0  0  0  0  0  0  0  0
   -7.7498    7.7498    0.0000 O   0  0  0  0  0  0  0  0  0  0  0  0
   -5.9127    9.5869    0.0000 C   0  0  0  0  0  0  0  0  0  0  0  0
   -4.4638    9.9751    0.0000 C   0  0  0  0  0  0  0  0  0  0  0  0
   -4.0755   11.4240    0.0000 C   0  0  0  0  0  0  0  0  0  0  0  0
   -5.1362   12.4847    0.0000 C   0  0  0  0  0  0  0  0  0  0  0  0
   -6.5851   12.0964    0.0000 C   0  0  0  0  0  0  0  0  0  0  0  0
   -6.9733   10.6476    0.0000 C   0  0  0  0  0  0  0  0  0  0  0  0
   -4.9560    3.1189    0.0000 C   0  0  0  0  0  0  0  0  0  0  0  0
   -3.8954    2.0583    0.0000 C   0  0  0  0  0  0  0  0  0  0  0  0
   -1.9598    0.0000    0.0000 C   0  0  0  0  0  0  0  0  0  0  0  0
   -1.3858   -1.3858    0.0000 C   0  0  0  0  0  0  0  0  0  0  0  0
   -0.0000   -1.9598    0.0000 C   0  0  0  0  0  0  0  0  0  0  0  0
    0.6094   -4.2836    0.0000 N   0  0  0  0  0  0  0  0  0  0  0  0
    0.2211   -5.7325    0.0000 C   0  0  0  0  0  0  0  0  0  0  0  0
    1.2818   -6.7931    0.0000 O   0  0  0  0  0  0  0  0  0  0  0  0
   -1.2278   -6.1207    0.0000 C   0  0  0  0  0  0  0  0  0  0  0  0
   -1.6160   -7.5696    0.0000 C   0  0  0  0  0  0  0  0  0  0  0  0
   -0.5553   -8.6303    0.0000 C   0  0  0  0  0  0  0  0  0  0  0  0
    0.8936   -8.2420    0.0000 C   0  0  0  0  0  0  0  0  0  0  0  0
    1.9542   -9.3027    0.0000 C   0  0  0  0  0  0  0  0  0  0  0  0
    1.5660  -10.7516    0.0000 C   0  0  0  0  0  0  0  0  0  0  0  0
    0.1171  -11.1398    0.0000 C   0  0  0  0  0  0  0  0  0  0  0  0
   -0.9436  -10.0792    0.0000 C   0  0  0  0  0  0  0  0  0  0  0  0
   -2.2884   -5.0601    0.0000 N   0  0  0  0  0  0  0  0  0  0  0  0
   -3.7373   -5.4483    0.0000 C   0  0  0  0  0  0  0  0  0  0  0  0
   -4.1255   -6.8972    0.0000 O   0  0  0  0  0  0  0  0  0  0  0  0
   -4.7980   -4.3876    0.0000 C   0  0  0  0  0  0  0  0  0  0  0  0
   -6.2469   -4.7759    0.0000 N   0  0  0  0  0  0  0  0  0  0  0  0
   -6.7844   -6.1762    0.0000 C   0  0  0  0  0  0  0  0  0  0  0  0
   -8.2823   -6.0977    0.0000 C   0  0  0  0  0  0  0  0  0  0  0  0
   -8.6706   -4.6488    0.0000 C   0  0  0  0  0  0  0  0  0  0  0  0
  -10.0709   -4.1113    0.0000 C   0  0  0  0  0  0  0  0  0  0  0  0
  -11.2367   -5.0553    0.0000 O   0  0  0  0  0  0  0  0  0  0  0  0
  -10.3056   -2.6297    0.0000 O   0  0  0  0  0  0  0  0  0  0  0  0
   -7.4126   -3.8319    0.0000 C   0  0  0  0  0  0  0  0  0  0  0  0
   -7.3341   -2.3339    0.0000 O   0  0  0  0  0  0  0  0  0  0  0  0
  1  2  1  0
  2  3  1  0
  2  4  1  0
  2  5  1  0
  5  6  1  0
  6  7  2  0
  6  8  1  0
  8  9  1  0
  9 10  1  0
 10 11  2  0
 11 12  1  0
 12 13  1  0
 13 14  2  0
 14 15  1  0
 15 16  2  0
 16 17  1  0
 17 18  2  0
 12 19  1  0
 19 20  1  0
 20 21  1  0
 21 22  1  0
 22 23  1  0
 23 24  1  0
 24 25  1  0
 25 26  2  0
 25 27  1  0
 27 28  1  0
 28 29  2  0
 28 30  1  0
 30 31  2  0
 31 32  1  0
 32 33  2  0
 33 34  1  0
 34 35  2  0
 24 36  1  0
 36 37  1  0
 20 38  1  0
 38 39  2  0
 39 40  1  0
  8 41  1  0
 41 42  1  0
 42 43  2  0
 42 44  1  0
 44 45  1  0
 45 46  1  0
 46 47  2  0
 47 48  1  0
 48 49  2  0
 49 50  1  0
 50 51  2  0
 44 52  1  0
 52 53  1  0
 53 54  2  0
 53 55  1  0
 55 56  1  0
 56 57  1  0
 57 58  2  0
 58 59  1  0
 59 60  1  0
 60 61  2  0
 60 62  1  0
 59 63  1  0
 63 64  2  0
 40 10  1  0
 51 46  1  0
 63 56  1  0
 18 13  1  0
 37 21  1  0
 35 30  1  0
M  END
>  <Title>  (344) 
idAALHgen6

$$$$

     RDKit          2D

 29 32  0  0  0  0  0  0  0  0999 V2000
   -5.2500   -3.8971    0.0000 C   0  0  0  0  0  0  0  0  0  0  0  0
   -3.7500   -3.8971    0.0000 C   0  0  0  0  0  0  0  0  0  0  0  0
   -3.0000   -5.1962    0.0000 O   0  0  0  0  0  0  0  0  0  0  0  0
   -3.0000   -2.5981    0.0000 C   0  0  0  0  0  0  0  0  0  0  0  0
   -3.7500   -1.2990    0.0000 O   0  0  0  0  0  0  0  0  0  0  0  0
   -1.5000   -2.5981    0.0000 N   0  0  0  0  0  0  0  0  0  0  0  0
   -0.7500   -3.8971    0.0000 C   0  0  0  0  0  0  0  0  0  0  0  0
    0.7500   -3.8971    0.0000 C   0  0  0  0  0  0  0  0  0  0  0  0
    1.5000   -2.5981    0.0000 C   0  0  0  0  0  0  0  0  0  0  0  0
    3.0000   -2.5981    0.0000 C   0  0  0  0  0  0  0  0  0  0  0  0
    3.7500   -1.2990    0.0000 O   0  0  0  0  0  0  0  0  0  0  0  0
    3.7500   -3.8971    0.0000 N   0  0  0  0  0  0  0  0  0  0  0  0
    5.2500   -3.8971    0.0000 C   0  0  0  0  0  0  0  0  0  0  0  0
    6.1317   -2.6836    0.0000 N   0  0  0  0  0  0  0  0  0  0  0  0
    7.5583   -3.1471    0.0000 N   0  0  0  0  0  0  0  0  0  0  0  0
    7.5583   -4.6471    0.0000 N   0  0  0  0  0  0  0  0  0  0  0  0
    6.1317   -5.1106    0.0000 N   0  0  0  0  0  0  0  0  0  0  0  0
    5.6682   -6.5372    0.0000 C   0  0  0  0  0  0  0  0  0  0  0  0
    4.2009   -6.8491    0.0000 C   0  0  0  0  0  0  0  0  0  0  0  0
    3.7374   -8.2757    0.0000 C   0  0  0  0  0  0  0  0  0  0  0  0
    4.7411   -9.3904    0.0000 C   0  0  0  0  0  0  0  0  0  0  0  0
    6.2083   -9.0785    0.0000 C   0  0  0  0  0  0  0  0  0  0  0  0
    6.6718   -7.6519    0.0000 C   0  0  0  0  0  0  0  0  0  0  0  0
    0.7500   -1.2990    0.0000 C   0  0  0  0  0  0  0  0  0  0  0  0
    1.5000    0.0000    0.0000 C   0  0  0  0  0  0  0  0  0  0  0  0
    0.7500    1.2990    0.0000 C   0  0  0  0  0  0  0  0  0  0  0  0
   -0.7500    1.2990    0.0000 C   0  0  0  0  0  0  0  0  0  0  0  0
   -1.5000    0.0000    0.0000 C   0  0  0  0  0  0  0  0  0  0  0  0
   -0.7500   -1.2990    0.0000 C   0  0  0  0  0  0  0  0  0  0  0  0
  1  2  1  0
  2  3  2  0
  2  4  1  0
  4  5  2  0
  4  6  1  0
  6  7  1  0
  7  8  1  0
  8  9  1  0
  9 10  1  0
 10 11  2  0
 10 12  1  0
 12 13  1  0
 13 14  2  0
 14 15  1  0
 15 16  2  0
 16 17  1  0
 17 18  1  0
 18 19  2  0
 19 20  1  0
 20 21  2  0
 21 22  1  0
 22 23  2  0
  9 24  1  0
 24 25  2  0
 25 26  1  0
 26 27  2  0
 27 28  1  0
 28 29  2  0
 29  6  1  0
 17 13  1  0
 23 18  1  0
 29 24  1  0
M  END
>  <Title>  (345) 
idAALIgen6

$$$$

     RDKit          2D

 48 51  0  0  0  0  0  0  0  0999 V2000
    4.9032   14.8648    0.0000 C   0  0  0  0  0  0  0  0  0  0  0  0
    5.5875   13.5300    0.0000 C   0  0  0  0  0  0  0  0  0  0  0  0
    6.2718   12.1951    0.0000 C   0  0  0  0  0  0  0  0  0  0  0  0
    6.9223   14.2143    0.0000 C   0  0  0  0  0  0  0  0  0  0  0  0
    4.2527   12.8456    0.0000 C   0  0  0  0  0  0  0  0  0  0  0  0
    2.9179   12.1613    0.0000 C   0  0  0  0  0  0  0  0  0  0  0  0
    1.5831   11.4770    0.0000 C   0  0  0  0  0  0  0  0  0  0  0  0
    0.9712   11.9879    0.0000 O   0  0  0  0  0  0  0  0  0  0  0  0
    1.5083    9.9789    0.0000 N   0  0  0  0  0  0  0  0  0  0  0  0
    2.9707    9.6451    0.0000 C   0  0  0  0  0  0  0  0  0  0  0  0
    4.2308    8.8313    0.0000 C   0  0  0  0  0  0  0  0  0  0  0  0
    5.1365    7.6356    0.0000 C   0  0  0  0  0  0  0  0  0  0  0  0
    6.5698    8.0777    0.0000 C   0  0  0  0  0  0  0  0  0  0  0  0
    7.2707    9.4039    0.0000 O   0  0  0  0  0  0  0  0  0  0  0  0
    7.0120    6.6443    0.0000 O   0  0  0  0  0  0  0  0  0  0  0  0
    5.5786    6.2022    0.0000 C   0  0  0  0  0  0  0  0  0  0  0  0
    5.5038    4.7041    0.0000 C   0  0  0  0  0  0  0  0  0  0  0  0
    4.9212    3.3219    0.0000 C   0  0  0  0  0  0  0  0  0  0  0  0
    3.9009    2.2223    0.0000 C   0  0  0  0  0  0  0  0  0  0  0  0
    2.5661    1.5380    0.0000 C   0  0  0  0  0  0  0  0  0  0  0  0
    1.0777    1.3515    0.0000 C   0  0  0  0  0  0  0  0  0  0  0  0
    1.7286    0.0000    0.0000 C   0  0  0  0  0  0  0  0  0  0  0  0
    1.0777   -1.3515    0.0000 C   0  0  0  0  0  0  0  0  0  0  0  0
   -0.3846   -1.6852    0.0000 C   0  0  0  0  0  0  0  0  0  0  0  0
   -1.5574   -0.7500    0.0000 C   0  0  0  0  0  0  0  0  0  0  0  0
   -1.5574    0.7500    0.0000 C   0  0  0  0  0  0  0  0  0  0  0  0
   -0.3846    1.6852    0.0000 C   0  0  0  0  0  0  0  0  0  0  0  0
   -1.6447    2.4991    0.0000 C   0  0  0  0  0  0  0  0  0  0  0  0
   -2.5504    3.6948    0.0000 C   0  0  0  0  0  0  0  0  0  0  0  0
   -2.9925    5.1281    0.0000 C   0  0  0  0  0  0  0  0  0  0  0  0
   -2.9178    6.6262    0.0000 C   0  0  0  0  0  0  0  0  0  0  0  0
   -4.3801    6.9600    0.0000 C   0  0  0  0  0  0  0  0  0  0  0  0
   -5.4004    5.8605    0.0000 O   0  0  0  0  0  0  0  0  0  0  0  0
   -4.8223    8.3934    0.0000 O   0  0  0  0  0  0  0  0  0  0  0  0
   -2.3351    8.0085    0.0000 C   0  0  0  0  0  0  0  0  0  0  0  0
   -1.3148    9.1080    0.0000 C   0  0  0  0  0  0  0  0  0  0  0  0
    0.0200    9.7924    0.0000 C   0  0  0  0  0  0  0  0  0  0  0  0
   -0.4222   11.2257    0.0000 C   0  0  0  0  0  0  0  0  0  0  0  0
    0.0448   11.8718    0.0000 O   0  0  0  0  0  0  0  0  0  0  0  0
   -1.8846   11.5595    0.0000 O   0  0  0  0  0  0  0  0  0  0  0  0
   -2.3267   12.9929    0.0000 C   0  0  0  0  0  0  0  0  0  0  0  0
   -1.3064   14.0924    0.0000 O   0  0  0  0  0  0  0  0  0  0  0  0
   -3.7891   13.3266    0.0000 C   0  0  0  0  0  0  0  0  0  0  0  0
   -4.3786   14.7059    0.0000 C   0  0  0  0  0  0  0  0  0  0  0  0
   -5.8726   14.5715    0.0000 C   0  0  0  0  0  0  0  0  0  0  0  0
   -6.2064   13.1091    0.0000 C   0  0  0  0  0  0  0  0  0  0  0  0
   -7.5857   12.5195    0.0000 O   0  0  0  0  0  0  0  0  0  0  0  0
   -4.9187   12.3397    0.0000 N   0  0  0  0  0  0  0  0  0  0  0  0
  1  2  1  0
  2  3  1  0
  2  4  1  0
  2  5  1  0
  5  6  3  0
  6  7  1  0
  7  8  2  0
  7  9  1  0
  9 10  1  0
 10 11  1  0
 11 12  1  0
 12 13  1  0
 13 14  2  0
 13 15  1  0
 15 16  1  0
 16 17  2  0
 17 18  1  0
 18 19  2  0
 19 20  1  0
 20 21  2  0
 21 22  1  0
 22 23  2  0
 23 24  1  0
 24 25  2  0
 25 26  1  0
 26 27  2  0
 27 28  1  0
 28 29  1  0
 29 30  1  0
 30 31  1  0
 31 32  1  0
 32 33  2  0
 32 34  1  0
 31 35  2  0
 35 36  1  0
 36 37  2  0
 37 38  1  0
 38 39  2  0
 38 40  1  0
 40 41  1  0
 41 42  2  0
 41 43  1  0
 43 44  1  0
 44 45  1  0
 45 46  1  0
 46 47  2  0
 46 48  1  0
 37  9  1  0
 48 43  1  0
 16 12  1  0
 27 21  1  0
M  END
>  <Title>  (346) 
idAALJgen6

$$$$

     RDKit          2D

 22 25  0  0  0  0  0  0  0  0999 V2000
   -2.3514   -1.4208    0.0000 C   0  0  0  0  0  0  0  0  0  0  0  0
   -2.3739    0.0790    0.0000 C   0  0  0  0  0  0  0  0  0  0  0  0
   -3.7349    0.7096    0.0000 C   0  0  0  0  0  0  0  0  0  0  0  0
   -4.0905    2.1668    0.0000 C   0  0  0  0  0  0  0  0  0  0  0  0
   -3.1729    3.3534    0.0000 C   0  0  0  0  0  0  0  0  0  0  0  0
   -1.6731    3.3758    0.0000 C   0  0  0  0  0  0  0  0  0  0  0  0
   -1.0426    4.7369    0.0000 C   0  0  0  0  0  0  0  0  0  0  0  0
   -1.9060    5.9635    0.0000 O   0  0  0  0  0  0  0  0  0  0  0  0
    0.4514    4.8713    0.0000 O   0  0  0  0  0  0  0  0  0  0  0  0
    1.0819    6.2324    0.0000 C   0  0  0  0  0  0  0  0  0  0  0  0
    2.5759    6.3668    0.0000 N   0  0  0  0  0  0  0  0  0  0  0  0
    3.2064    7.7279    0.0000 N   0  0  0  0  0  0  0  0  0  0  0  0
    2.3430    8.9545    0.0000 N   0  0  0  0  0  0  0  0  0  0  0  0
    0.8491    8.8200    0.0000 N   0  0  0  0  0  0  0  0  0  0  0  0
    0.2185    7.4590    0.0000 N   0  0  0  0  0  0  0  0  0  0  0  0
   -0.7204    2.2172    0.0000 C   0  0  0  0  0  0  0  0  0  0  0  0
    0.3943    1.2135    0.0000 C   0  0  0  0  0  0  0  0  0  0  0  0
    1.2760    0.0000    0.0000 C   0  0  0  0  0  0  0  0  0  0  0  0
    0.3943   -1.2135    0.0000 C   0  0  0  0  0  0  0  0  0  0  0  0
    0.8578   -2.6401    0.0000 O   0  0  0  0  0  0  0  0  0  0  0  0
   -1.0323   -0.7500    0.0000 N   0  0  0  0  0  0  0  0  0  0  0  0
   -1.0323    0.7500    0.0000 C   0  0  0  0  0  0  0  0  0  0  0  0
  1  2  1  0
  2  3  2  0
  3  4  1  0
  4  5  2  0
  5  6  1  0
  6  7  1  0
  7  8  2  0
  7  9  1  0
  9 10  1  0
 10 11  2  0
 11 12  1  0
 12 13  2  0
 13 14  1  0
 14 15  2  0
  6 16  1  0
 16 17  1  0
 17 18  2  0
 18 19  1  0
 19 20  1  0
 19 21  2  0
 21 22  1  0
 22  2  1  0
 15 10  1  0
 22 16  1  0
 22 17  1  0
M  END
>  <Title>  (347) 
idAALKgen6

$$$$

     RDKit          2D

 10 10  0  0  0  0  0  0  0  0999 V2000
    3.7500   -1.2990    0.0000 C   0  0  0  0  0  0  0  0  0  0  0  0
    3.0000    0.0000    0.0000 C   0  0  0  0  0  0  0  0  0  0  0  0
    1.5000    0.0000    0.0000 C   0  0  0  0  0  0  0  0  0  0  0  0
    0.7500   -1.2990    0.0000 C   0  0  0  0  0  0  0  0  0  0  0  0
   -0.7500   -1.2990    0.0000 C   0  0  0  0  0  0  0  0  0  0  0  0
   -1.5000   -2.5981    0.0000 O   0  0  0  0  0  0  0  0  0  0  0  0
   -1.5000    0.0000    0.0000 C   0  0  0  0  0  0  0  0  0  0  0  0
   -0.7500    1.2990    0.0000 C   0  0  0  0  0  0  0  0  0  0  0  0
    0.7500    1.2990    0.0000 C   0  0  0  0  0  0  0  0  0  0  0  0
    1.5000    2.5981    0.0000 C   0  0  0  0  0  0  0  0  0  0  0  0
  1  2  1  0
  2  3  1  0
  3  4  1  0
  4  5  1  0
  5  6  1  0
  5  7  1  0
  7  8  1  0
  8  9  1  0
  9 10  1  0
  9  3  1  0
M  END
>  <Title>  (348) 
idAALLgen6

$$$$

     RDKit          2D

 18 20  0  0  0  0  0  0  0  0999 V2000
    5.8875   -3.9505    0.0000 O   0  0  0  0  0  0  0  0  0  0  0  0
    4.6740   -4.8322    0.0000 C   0  0  0  0  0  0  0  0  0  0  0  0
    4.8308   -6.3240    0.0000 C   0  0  0  0  0  0  0  0  0  0  0  0
    6.1298   -7.0740    0.0000 C   0  0  0  0  0  0  0  0  0  0  0  0
    5.8179   -8.5412    0.0000 C   0  0  0  0  0  0  0  0  0  0  0  0
    4.3261   -8.6980    0.0000 C   0  0  0  0  0  0  0  0  0  0  0  0
    3.7160   -7.3277    0.0000 C   0  0  0  0  0  0  0  0  0  0  0  0
    3.3037   -4.2221    0.0000 N   0  0  0  0  0  0  0  0  0  0  0  0
    2.0046   -4.9721    0.0000 C   0  0  0  0  0  0  0  0  0  0  0  0
    0.8899   -3.9684    0.0000 C   0  0  0  0  0  0  0  0  0  0  0  0
    1.5000   -2.5981    0.0000 C   0  0  0  0  0  0  0  0  0  0  0  0
    0.7500   -1.2990    0.0000 C   0  0  0  0  0  0  0  0  0  0  0  0
    1.5000    0.0000    0.0000 C   0  0  0  0  0  0  0  0  0  0  0  0
    0.7500    1.2990    0.0000 C   0  0  0  0  0  0  0  0  0  0  0  0
   -0.7500    1.2990    0.0000 C   0  0  0  0  0  0  0  0  0  0  0  0
   -1.5000    0.0000    0.0000 C   0  0  0  0  0  0  0  0  0  0  0  0
   -0.7500   -1.2990    0.0000 C   0  0  0  0  0  0  0  0  0  0  0  0
    2.9918   -2.7549    0.0000 C   0  0  0  0  0  0  0  0  0  0  0  0
  1  2  2  0
  2  3  1  0
  3  4  2  0
  4  5  1  0
  5  6  2  0
  6  7  1  0
  2  8  1  0
  8  9  1  0
  9 10  1  0
 10 11  1  0
 11 12  1  0
 12 13  2  0
 13 14  1  0
 14 15  2  0
 15 16  1  0
 16 17  2  0
 11 18  1  0
  7  3  1  0
 18  8  1  0
 17 12  1  0
M  END
>  <Title>  (349) 
idAALMgen6

$$$$

     RDKit          2D

 11 12  0  0  0  0  0  0  0  0999 V2000
    1.9769    6.0842    0.0000 C   0  0  0  0  0  0  0  0  0  0  0  0
    1.5133    4.6576    0.0000 C   0  0  0  0  0  0  0  0  0  0  0  0
    2.1943    3.3211    0.0000 C   0  0  0  0  0  0  0  0  0  0  0  0
    0.8578    2.6401    0.0000 C   0  0  0  0  0  0  0  0  0  0  0  0
    0.3943    1.2135    0.0000 N   0  0  0  0  0  0  0  0  0  0  0  0
    1.2760    0.0000    0.0000 C   0  0  0  0  0  0  0  0  0  0  0  0
    0.3943   -1.2135    0.0000 C   0  0  0  0  0  0  0  0  0  0  0  0
   -1.0323   -0.7500    0.0000 C   0  0  0  0  0  0  0  0  0  0  0  0
   -1.0323    0.7500    0.0000 C   0  0  0  0  0  0  0  0  0  0  0  0
   -2.2458    1.6317    0.0000 O   0  0  0  0  0  0  0  0  0  0  0  0
    0.1768    3.9766    0.0000 C   0  0  0  0  0  0  0  0  0  0  0  0
  1  2  1  0
  2  3  2  0
  3  4  1  0
  4  5  1  0
  5  6  1  0
  6  7  1  0
  7  8  1  0
  8  9  1  0
  9 10  2  0
  4 11  1  0
 11  2  1  0
  9  5  1  0
M  END
>  <Title>  (350) 
idAALNgen6

$$$$

     RDKit          2D

 33 34  0  0  0  0  0  0  0  0999 V2000
   -4.4309    1.2755    0.0000 C   0  0  0  0  0  0  0  0  0  0  0  0
   -3.2307    0.3758    0.0000 C   0  0  0  0  0  0  0  0  0  0  0  0
   -1.8514    0.9653    0.0000 C   0  0  0  0  0  0  0  0  0  0  0  0
   -1.6723    2.4546    0.0000 C   0  0  0  0  0  0  0  0  0  0  0  0
   -3.1057    2.0125    0.0000 O   0  0  0  0  0  0  0  0  0  0  0  0
   -2.6592    3.5842    0.0000 C   0  0  0  0  0  0  0  0  0  0  0  0
   -3.2488    4.9635    0.0000 C   0  0  0  0  0  0  0  0  0  0  0  0
   -3.3832    6.4574    0.0000 C   0  0  0  0  0  0  0  0  0  0  0  0
   -3.0494    7.9198    0.0000 C   0  0  0  0  0  0  0  0  0  0  0  0
   -2.2801    9.2075    0.0000 C   0  0  0  0  0  0  0  0  0  0  0  0
   -1.1505   10.1944    0.0000 C   0  0  0  0  0  0  0  0  0  0  0  0
    0.2288   10.7840    0.0000 C   0  0  0  0  0  0  0  0  0  0  0  0
    1.7228   10.9184    0.0000 C   0  0  0  0  0  0  0  0  0  0  0  0
    3.1852   10.5846    0.0000 C   0  0  0  0  0  0  0  0  0  0  0  0
    4.4728    9.8153    0.0000 C   0  0  0  0  0  0  0  0  0  0  0  0
    5.4597    8.6857    0.0000 C   0  0  0  0  0  0  0  0  0  0  0  0
    6.0493    7.3064    0.0000 C   0  0  0  0  0  0  0  0  0  0  0  0
    6.1837    5.8124    0.0000 C   0  0  0  0  0  0  0  0  0  0  0  0
    5.8500    4.3500    0.0000 C   0  0  0  0  0  0  0  0  0  0  0  0
    5.0806    3.0624    0.0000 C   0  0  0  0  0  0  0  0  0  0  0  0
    3.9510    2.0754    0.0000 C   0  0  0  0  0  0  0  0  0  0  0  0
    4.7490    0.8054    0.0000 O   0  0  0  0  0  0  0  0  0  0  0  0
    2.5717    1.4859    0.0000 N   0  0  0  0  0  0  0  0  0  0  0  0
    1.0777    1.3515    0.0000 C   0  0  0  0  0  0  0  0  0  0  0  0
    1.7286    0.0000    0.0000 N   0  0  0  0  0  0  0  0  0  0  0  0
    1.0777   -1.3515    0.0000 N   0  0  0  0  0  0  0  0  0  0  0  0
   -0.3846   -1.6852    0.0000 N   0  0  0  0  0  0  0  0  0  0  0  0
   -1.5574   -0.7500    0.0000 N   0  0  0  0  0  0  0  0  0  0  0  0
   -2.9088   -1.4008    0.0000 N   0  0  0  0  0  0  0  0  0  0  0  0
   -3.0209   -2.8966    0.0000 C   0  0  0  0  0  0  0  0  0  0  0  0
   -4.1482   -0.5558    0.0000 C   0  0  0  0  0  0  0  0  0  0  0  0
   -1.5574    0.7500    0.0000 C   0  0  0  0  0  0  0  0  0  0  0  0
   -0.3846    1.6852    0.0000 C   0  0  0  0  0  0  0  0  0  0  0  0
  1  2  1  0
  2  3  1  0
  3  4  1  0
  4  5  1  0
  4  6  1  0
  6  7  1  0
  7  8  1  0
  8  9  1  0
  9 10  1  0
 10 11  1  0
 11 12  1  0
 12 13  1  0
 13 14  1  0
 14 15  1  0
 15 16  1  0
 16 17  1  0
 17 18  1  0
 18 19  1  0
 19 20  1  0
 20 21  1  0
 21 22  2  0
 21 23  1  0
 23 24  1  0
 24 25  2  0
 25 26  1  0
 26 27  2  0
 27 28  1  0
 28 29  1  0
 29 30  1  0
 29 31  1  0
 28 32  1  0
 32 33  2  0
 33  4  1  0
 33 24  1  0
M  END
>  <Title>  (351) 
idAALOgen6

$$$$

     RDKit          2D

 12 13  0  0  0  0  0  0  0  0999 V2000
   -3.7500   -3.8971    0.0000 C   0  0  0  0  0  0  0  0  0  0  0  0
   -3.0000   -2.5981    0.0000 O   0  0  0  0  0  0  0  0  0  0  0  0
   -1.5000   -2.5981    0.0000 C   0  0  0  0  0  0  0  0  0  0  0  0
   -0.7500   -3.8971    0.0000 C   0  0  0  0  0  0  0  0  0  0  0  0
    0.7500   -3.8971    0.0000 C   0  0  0  0  0  0  0  0  0  0  0  0
    1.5000   -2.5981    0.0000 C   0  0  0  0  0  0  0  0  0  0  0  0
    0.7500   -1.2990    0.0000 C   0  0  0  0  0  0  0  0  0  0  0  0
    1.5000    0.0000    0.0000 C   0  0  0  0  0  0  0  0  0  0  0  0
    0.7500    1.2990    0.0000 C   0  0  0  0  0  0  0  0  0  0  0  0
   -0.7500    1.2990    0.0000 C   0  0  0  0  0  0  0  0  0  0  0  0
   -1.5000    0.0000    0.0000 C   0  0  0  0  0  0  0  0  0  0  0  0
   -0.7500   -1.2990    0.0000 C   0  0  0  0  0  0  0  0  0  0  0  0
  1  2  1  0
  2  3  1  0
  3  4  2  0
  4  5  1  0
  5  6  2  0
  6  7  1  0
  7  8  2  0
  8  9  1  0
  9 10  2  0
 10 11  1  0
 11 12  2  0
 12  3  1  0
 12  7  1  0
M  END
>  <Title>  (352) 
idAALPgen6

$$$$

     RDKit          2D

 30 32  0  0  0  0  0  0  0  0999 V2000
   -2.9692   -0.6259    0.0000 C   0  0  0  0  0  0  0  0  0  0  0  0
   -2.1358   -1.8731    0.0000 C   0  0  0  0  0  0  0  0  0  0  0  0
   -3.1965   -2.9337    0.0000 C   0  0  0  0  0  0  0  0  0  0  0  0
   -3.7705   -4.3195    0.0000 C   0  0  0  0  0  0  0  0  0  0  0  0
   -3.7705   -5.8195    0.0000 C   0  0  0  0  0  0  0  0  0  0  0  0
   -3.1965   -7.2054    0.0000 C   0  0  0  0  0  0  0  0  0  0  0  0
   -2.1358   -8.2660    0.0000 C   0  0  0  0  0  0  0  0  0  0  0  0
   -0.7500   -8.8400    0.0000 C   0  0  0  0  0  0  0  0  0  0  0  0
    0.7500   -8.8400    0.0000 C   0  0  0  0  0  0  0  0  0  0  0  0
    2.1358   -8.2660    0.0000 C   0  0  0  0  0  0  0  0  0  0  0  0
    3.1965   -7.2054    0.0000 C   0  0  0  0  0  0  0  0  0  0  0  0
    3.7705   -5.8195    0.0000 C   0  0  0  0  0  0  0  0  0  0  0  0
    3.7705   -4.3195    0.0000 C   0  0  0  0  0  0  0  0  0  0  0  0
    3.1965   -2.9337    0.0000 C   0  0  0  0  0  0  0  0  0  0  0  0
    2.1358   -1.8731    0.0000 C   0  0  0  0  0  0  0  0  0  0  0  0
    2.9692   -0.6259    0.0000 C   0  0  0  0  0  0  0  0  0  0  0  0
    2.3057    0.7195    0.0000 O   0  0  0  0  0  0  0  0  0  0  0  0
    4.4660   -0.7240    0.0000 N   0  0  0  0  0  0  0  0  0  0  0  0
    5.2993    0.5232    0.0000 C   0  0  0  0  0  0  0  0  0  0  0  0
    6.7961    0.4251    0.0000 N   0  0  0  0  0  0  0  0  0  0  0  0
    7.6295    1.6723    0.0000 N   0  0  0  0  0  0  0  0  0  0  0  0
    6.9660    3.0176    0.0000 N   0  0  0  0  0  0  0  0  0  0  0  0
    5.4692    3.1158    0.0000 N   0  0  0  0  0  0  0  0  0  0  0  0
    4.6359    1.8686    0.0000 N   0  0  0  0  0  0  0  0  0  0  0  0
    0.7500   -1.2990    0.0000 C   0  0  0  0  0  0  0  0  0  0  0  0
    1.5000    0.0000    0.0000 C   0  0  0  0  0  0  0  0  0  0  0  0
    0.7500    1.2990    0.0000 C   0  0  0  0  0  0  0  0  0  0  0  0
   -0.7500    1.2990    0.0000 C   0  0  0  0  0  0  0  0  0  0  0  0
   -1.5000    0.0000    0.0000 C   0  0  0  0  0  0  0  0  0  0  0  0
   -0.7500   -1.2990    0.0000 C   0  0  0  0  0  0  0  0  0  0  0  0
  1  2  1  0
  2  3  1  0
  3  4  1  0
  4  5  1  0
  5  6  1  0
  6  7  1  0
  7  8  1  0
  8  9  1  0
  9 10  1  0
 10 11  1  0
 11 12  1  0
 12 13  1  0
 13 14  1  0
 14 15  1  0
 15 16  1  0
 16 17  2  0
 16 18  1  0
 18 19  1  0
 19 20  2  0
 20 21  1  0
 21 22  2  0
 22 23  1  0
 23 24  2  0
 15 25  1  0
 25 26  2  0
 26 27  1  0
 27 28  2  0
 28 29  1  0
 29 30  2  0
 30  2  1  0
 24 19  1  0
 30 25  1  0
M  END
>  <Title>  (353) 
idAALQgen6

$$$$

     RDKit          2D

 23 26  0  0  0  0  0  0  0  0999 V2000
   -3.7500   -3.8971    0.0000 C   0  0  0  0  0  0  0  0  0  0  0  0
   -3.0000   -2.5981    0.0000 O   0  0  0  0  0  0  0  0  0  0  0  0
   -1.5000   -2.5981    0.0000 C   0  0  0  0  0  0  0  0  0  0  0  0
   -0.7500   -3.8971    0.0000 C   0  0  0  0  0  0  0  0  0  0  0  0
    0.7500   -3.8971    0.0000 C   0  0  0  0  0  0  0  0  0  0  0  0
    1.5000   -2.5981    0.0000 C   0  0  0  0  0  0  0  0  0  0  0  0
    3.0000   -2.5981    0.0000 N   0  0  0  0  0  0  0  0  0  0  0  0
    3.8817   -1.3846    0.0000 C   0  0  0  0  0  0  0  0  0  0  0  0
    5.3083   -1.8481    0.0000 C   0  0  0  0  0  0  0  0  0  0  0  0
    5.3083   -3.3481    0.0000 C   0  0  0  0  0  0  0  0  0  0  0  0
    6.5218   -4.2298    0.0000 C   0  0  0  0  0  0  0  0  0  0  0  0
    6.3650   -5.7215    0.0000 C   0  0  0  0  0  0  0  0  0  0  0  0
    7.5785   -6.6032    0.0000 C   0  0  0  0  0  0  0  0  0  0  0  0
    8.9488   -5.9931    0.0000 C   0  0  0  0  0  0  0  0  0  0  0  0
    9.1056   -4.5013    0.0000 C   0  0  0  0  0  0  0  0  0  0  0  0
    7.8921   -3.6196    0.0000 C   0  0  0  0  0  0  0  0  0  0  0  0
    3.8817   -3.8116    0.0000 C   0  0  0  0  0  0  0  0  0  0  0  0
    0.7500   -1.2990    0.0000 C   0  0  0  0  0  0  0  0  0  0  0  0
    1.5000    0.0000    0.0000 C   0  0  0  0  0  0  0  0  0  0  0  0
    0.7500    1.2990    0.0000 C   0  0  0  0  0  0  0  0  0  0  0  0
   -0.7500    1.2990    0.0000 C   0  0  0  0  0  0  0  0  0  0  0  0
   -1.5000    0.0000    0.0000 C   0  0  0  0  0  0  0  0  0  0  0  0
   -0.7500   -1.2990    0.0000 C   0  0  0  0  0  0  0  0  0  0  0  0
  1  2  1  0
  2  3  1  0
  3  4  2  0
  4  5  1  0
  5  6  2  0
  6  7  1  0
  7  8  1  0
  8  9  1  0
  9 10  1  0
 10 11  1  0
 11 12  2  0
 12 13  1  0
 13 14  2  0
 14 15  1  0
 15 16  2  0
 10 17  1  0
  6 18  1  0
 18 19  2  0
 19 20  1  0
 20 21  2  0
 21 22  1  0
 22 23  2  0
 23  3  1  0
 17  7  1  0
 23 18  1  0
 16 11  1  0
M  END
>  <Title>  (354) 
idAALRgen6

$$$$

     RDKit          2D

 49 55  0  0  0  0  0  0  0  0999 V2000
    5.5578   -5.8262    0.0000 C   0  0  0  0  0  0  0  0  0  0  0  0
    4.0642   -5.6878    0.0000 C   0  0  0  0  0  0  0  0  0  0  0  0
    3.9258   -4.1942    0.0000 C   0  0  0  0  0  0  0  0  0  0  0  0
    3.2572   -2.8514    0.0000 C   0  0  0  0  0  0  0  0  0  0  0  0
    2.1487   -1.8409    0.0000 C   0  0  0  0  0  0  0  0  0  0  0  0
    2.9384   -0.5656    0.0000 N   0  0  0  0  0  0  0  0  0  0  0  0
    2.3707    0.8229    0.0000 C   0  0  0  0  0  0  0  0  0  0  0  0
    3.5158    1.7918    0.0000 C   0  0  0  0  0  0  0  0  0  0  0  0
    4.7912    1.0021    0.0000 C   0  0  0  0  0  0  0  0  0  0  0  0
    6.1796    1.5697    0.0000 C   0  0  0  0  0  0  0  0  0  0  0  0
    6.3823    3.0560    0.0000 O   0  0  0  0  0  0  0  0  0  0  0  0
    7.3654    0.6511    0.0000 N   0  0  0  0  0  0  0  0  0  0  0  0
    8.7539    1.2187    0.0000 C   0  0  0  0  0  0  0  0  0  0  0  0
    9.9397    0.3001    0.0000 N   0  0  0  0  0  0  0  0  0  0  0  0
   11.3281    0.8677    0.0000 N   0  0  0  0  0  0  0  0  0  0  0  0
   11.5308    2.3540    0.0000 N   0  0  0  0  0  0  0  0  0  0  0  0
   10.3450    3.2726    0.0000 N   0  0  0  0  0  0  0  0  0  0  0  0
    8.9565    2.7050    0.0000 N   0  0  0  0  0  0  0  0  0  0  0  0
    4.4343   -0.4548    0.0000 C   0  0  0  0  0  0  0  0  0  0  0  0
    0.7500   -1.2990    0.0000 C   0  0  0  0  0  0  0  0  0  0  0  0
    1.5000    0.0000    0.0000 C   0  0  0  0  0  0  0  0  0  0  0  0
    0.7500    1.2990    0.0000 C   0  0  0  0  0  0  0  0  0  0  0  0
   -0.7500    1.2990    0.0000 C   0  0  0  0  0  0  0  0  0  0  0  0
   -1.5000    0.0000    0.0000 C   0  0  0  0  0  0  0  0  0  0  0  0
   -0.7500   -1.2990    0.0000 C   0  0  0  0  0  0  0  0  0  0  0  0
   -2.1487   -1.8409    0.0000 C   0  0  0  0  0  0  0  0  0  0  0  0
   -3.5665   -1.3511    0.0000 C   0  0  0  0  0  0  0  0  0  0  0  0
   -4.4704   -2.5481    0.0000 C   0  0  0  0  0  0  0  0  0  0  0  0
   -3.9258   -4.1942    0.0000 C   0  0  0  0  0  0  0  0  0  0  0  0
   -3.2572   -2.8514    0.0000 C   0  0  0  0  0  0  0  0  0  0  0  0
   -4.0642   -5.6878    0.0000 O   0  0  0  0  0  0  0  0  0  0  0  0
   -3.6537   -7.1305    0.0000 C   0  0  0  0  0  0  0  0  0  0  0  0
   -2.7498   -8.3276    0.0000 C   0  0  0  0  0  0  0  0  0  0  0  0
   -3.7603   -9.4361    0.0000 C   0  0  0  0  0  0  0  0  0  0  0  0
   -5.2256   -9.1152    0.0000 C   0  0  0  0  0  0  0  0  0  0  0  0
   -6.2361  -10.2237    0.0000 C   0  0  0  0  0  0  0  0  0  0  0  0
   -5.7814  -11.6531    0.0000 C   0  0  0  0  0  0  0  0  0  0  0  0
   -4.3161  -11.9740    0.0000 C   0  0  0  0  0  0  0  0  0  0  0  0
   -3.3056  -10.8655    0.0000 C   0  0  0  0  0  0  0  0  0  0  0  0
   -1.4745   -9.1172    0.0000 C   0  0  0  0  0  0  0  0  0  0  0  0
   -2.0163  -10.5159    0.0000 O   0  0  0  0  0  0  0  0  0  0  0  0
   -0.0000   -9.3928    0.0000 O   0  0  0  0  0  0  0  0  0  0  0  0
    1.4745   -9.1172    0.0000 C   0  0  0  0  0  0  0  0  0  0  0  0
    1.5207  -10.6165    0.0000 C   0  0  0  0  0  0  0  0  0  0  0  0
    2.8422  -11.3261    0.0000 C   0  0  0  0  0  0  0  0  0  0  0  0
    4.1175  -10.5365    0.0000 C   0  0  0  0  0  0  0  0  0  0  0  0
    4.0713   -9.0372    0.0000 C   0  0  0  0  0  0  0  0  0  0  0  0
    2.7498   -8.3276    0.0000 C   0  0  0  0  0  0  0  0  0  0  0  0
    3.6537   -7.1305    0.0000 C   0  0  0  0  0  0  0  0  0  0  0  0
  1  2  1  0
  2  3  2  0
  3  4  1  0
  4  5  2  0
  5  6  1  0
  6  7  1  0
  7  8  1  0
  8  9  1  0
  9 10  1  0
 10 11  2  0
 10 12  1  0
 12 13  1  0
 13 14  2  0
 14 15  1  0
 15 16  2  0
 16 17  1  0
 17 18  2  0
  9 19  1  0
  5 20  1  0
 20 21  2  0
 21 22  1  0
 22 23  2  0
 23 24  1  0
 24 25  2  0
 25 26  1  0
 26 27  2  0
 27 28  1  0
 28 29  2  0
 29 30  1  0
 29 31  1  0
 31 32  1  0
 32 33  1  0
 33 34  1  0
 34 35  2  0
 35 36  1  0
 36 37  2  0
 37 38  1  0
 38 39  2  0
 33 40  1  0
 40 41  2  0
 40 42  1  0
 42 43  1  0
 43 44  2  0
 44 45  1  0
 45 46  2  0
 46 47  1  0
 47 48  2  0
 48 49  1  0
 49  2  1  0
 19  6  1  0
 25 20  1  0
 30 26  1  0
 39 34  1  0
 48 43  1  0
 18 13  1  0
M  END
>  <Title>  (355) 
idAALSgen6

$$$$

     RDKit          2D

 24 26  0  0  0  0  0  0  0  0999 V2000
   -5.2500   -3.8971    0.0000 C   0  0  0  0  0  0  0  0  0  0  0  0
   -3.7500   -3.8971    0.0000 C   0  0  0  0  0  0  0  0  0  0  0  0
   -3.0000   -5.1962    0.0000 O   0  0  0  0  0  0  0  0  0  0  0  0
   -3.0000   -2.5981    0.0000 C   0  0  0  0  0  0  0  0  0  0  0  0
   -3.7500   -1.2990    0.0000 O   0  0  0  0  0  0  0  0  0  0  0  0
   -1.5000   -2.5981    0.0000 N   0  0  0  0  0  0  0  0  0  0  0  0
   -0.7500   -3.8971    0.0000 C   0  0  0  0  0  0  0  0  0  0  0  0
    0.7500   -3.8971    0.0000 C   0  0  0  0  0  0  0  0  0  0  0  0
    1.5000   -2.5981    0.0000 C   0  0  0  0  0  0  0  0  0  0  0  0
    3.0000   -2.5981    0.0000 C   0  0  0  0  0  0  0  0  0  0  0  0
    3.7500   -1.2990    0.0000 O   0  0  0  0  0  0  0  0  0  0  0  0
    3.7500   -3.8971    0.0000 N   0  0  0  0  0  0  0  0  0  0  0  0
    5.2500   -3.8971    0.0000 C   0  0  0  0  0  0  0  0  0  0  0  0
    6.0000   -5.1962    0.0000 N   0  0  0  0  0  0  0  0  0  0  0  0
    7.5000   -5.1962    0.0000 N   0  0  0  0  0  0  0  0  0  0  0  0
    8.2500   -3.8971    0.0000 N   0  0  0  0  0  0  0  0  0  0  0  0
    7.5000   -2.5981    0.0000 N   0  0  0  0  0  0  0  0  0  0  0  0
    6.0000   -2.5981    0.0000 N   0  0  0  0  0  0  0  0  0  0  0  0
    0.7500   -1.2990    0.0000 C   0  0  0  0  0  0  0  0  0  0  0  0
    1.5000    0.0000    0.0000 C   0  0  0  0  0  0  0  0  0  0  0  0
    0.7500    1.2990    0.0000 C   0  0  0  0  0  0  0  0  0  0  0  0
   -0.7500    1.2990    0.0000 C   0  0  0  0  0  0  0  0  0  0  0  0
   -1.5000    0.0000    0.0000 C   0  0  0  0  0  0  0  0  0  0  0  0
   -0.7500   -1.2990    0.0000 C   0  0  0  0  0  0  0  0  0  0  0  0
  1  2  1  0
  2  3  2  0
  2  4  1  0
  4  5  2  0
  4  6  1  0
  6  7  1  0
  7  8  1  0
  8  9  1  0
  9 10  1  0
 10 11  2  0
 10 12  1  0
 12 13  1  0
 13 14  2  0
 14 15  1  0
 15 16  2  0
 16 17  1  0
 17 18  2  0
  9 19  1  0
 19 20  2  0
 20 21  1  0
 21 22  2  0
 22 23  1  0
 23 24  2  0
 24  6  1  0
 18 13  1  0
 24 19  1  0
M  END
>  <Title>  (356) 
idAALTgen6

$$$$

     RDKit          2D

  9 10  0  0  0  0  0  0  0  0999 V2000
   -2.8323    2.8576    0.0000 C   0  0  0  0  0  0  0  0  0  0  0  0
   -1.4958    2.1766    0.0000 C   0  0  0  0  0  0  0  0  0  0  0  0
   -0.0692    2.6401    0.0000 C   0  0  0  0  0  0  0  0  0  0  0  0
    0.3943    1.2135    0.0000 N   0  0  0  0  0  0  0  0  0  0  0  0
    1.2760    0.0000    0.0000 C   0  0  0  0  0  0  0  0  0  0  0  0
    2.7760    0.0000    0.0000 O   0  0  0  0  0  0  0  0  0  0  0  0
    0.3943   -1.2135    0.0000 C   0  0  0  0  0  0  0  0  0  0  0  0
   -1.0323   -0.7500    0.0000 C   0  0  0  0  0  0  0  0  0  0  0  0
   -1.0323    0.7500    0.0000 C   0  0  0  0  0  0  0  0  0  0  0  0
  1  2  1  0
  2  3  1  0
  3  4  1  0
  4  5  1  0
  5  6  1  0
  5  7  2  0
  7  8  1  0
  8  9  2  0
  9  2  1  0
  9  4  1  0
M  END
>  <Title>  (357) 
idAALUgen6

$$$$

     RDKit          2D

 21 23  0  0  0  0  0  0  0  0999 V2000
   -1.9635   -4.0247    0.0000 C   0  0  0  0  0  0  0  0  0  0  0  0
   -1.2135   -2.7256    0.0000 C   0  0  0  0  0  0  0  0  0  0  0  0
   -2.5838   -2.1155    0.0000 C   0  0  0  0  0  0  0  0  0  0  0  0
   -0.0000   -3.6073    0.0000 C   0  0  0  0  0  0  0  0  0  0  0  0
   -0.0000   -5.1073    0.0000 O   0  0  0  0  0  0  0  0  0  0  0  0
    1.2135   -2.7256    0.0000 C   0  0  0  0  0  0  0  0  0  0  0  0
    2.6401   -3.1891    0.0000 C   0  0  0  0  0  0  0  0  0  0  0  0
    3.7548   -2.1855    0.0000 O   0  0  0  0  0  0  0  0  0  0  0  0
    2.9520   -4.6564    0.0000 N   0  0  0  0  0  0  0  0  0  0  0  0
    4.3786   -5.1199    0.0000 C   0  0  0  0  0  0  0  0  0  0  0  0
    4.6904   -6.5871    0.0000 N   0  0  0  0  0  0  0  0  0  0  0  0
    6.1170   -7.0506    0.0000 N   0  0  0  0  0  0  0  0  0  0  0  0
    7.2317   -6.0469    0.0000 N   0  0  0  0  0  0  0  0  0  0  0  0
    6.9199   -4.5797    0.0000 N   0  0  0  0  0  0  0  0  0  0  0  0
    5.4933   -4.1162    0.0000 N   0  0  0  0  0  0  0  0  0  0  0  0
    0.7500   -1.2990    0.0000 C   0  0  0  0  0  0  0  0  0  0  0  0
    1.5000    0.0000    0.0000 C   0  0  0  0  0  0  0  0  0  0  0  0
    0.7500    1.2990    0.0000 C   0  0  0  0  0  0  0  0  0  0  0  0
   -0.7500    1.2990    0.0000 C   0  0  0  0  0  0  0  0  0  0  0  0
   -1.5000    0.0000    0.0000 C   0  0  0  0  0  0  0  0  0  0  0  0
   -0.7500   -1.2990    0.0000 C   0  0  0  0  0  0  0  0  0  0  0  0
  1  2  1  0
  2  3  1  0
  2  4  1  0
  4  5  2  0
  4  6  1  0
  6  7  1  0
  7  8  2  0
  7  9  1  0
  9 10  1  0
 10 11  2  0
 11 12  1  0
 12 13  2  0
 13 14  1  0
 14 15  2  0
  6 16  1  0
 16 17  2  0
 17 18  1  0
 18 19  2  0
 19 20  1  0
 20 21  2  0
 21  2  1  0
 15 10  1  0
 21 16  1  0
M  END
>  <Title>  (358) 
idAALVgen6

$$$$

     RDKit          2D

 30 32  0  0  0  0  0  0  0  0999 V2000
    4.1621    0.0000    0.0000 C   0  0  0  0  0  0  0  0  0  0  0  0
    2.6621    0.0000    0.0000 C   0  0  0  0  0  0  0  0  0  0  0  0
    2.2395    1.4392    0.0000 C   0  0  0  0  0  0  0  0  0  0  0  0
    1.1059    2.4215    0.0000 C   0  0  0  0  0  0  0  0  0  0  0  0
   -0.3789    2.6350    0.0000 C   0  0  0  0  0  0  0  0  0  0  0  0
   -1.7433    2.0119    0.0000 C   0  0  0  0  0  0  0  0  0  0  0  0
   -2.5543    0.7500    0.0000 C   0  0  0  0  0  0  0  0  0  0  0  0
   -2.5543   -0.7500    0.0000 C   0  0  0  0  0  0  0  0  0  0  0  0
   -1.7433   -2.0119    0.0000 C   0  0  0  0  0  0  0  0  0  0  0  0
   -2.7256   -3.1455    0.0000 O   0  0  0  0  0  0  0  0  0  0  0  0
   -4.1985   -2.8616    0.0000 C   0  0  0  0  0  0  0  0  0  0  0  0
   -5.1808   -3.9953    0.0000 C   0  0  0  0  0  0  0  0  0  0  0  0
   -4.6902   -5.4128    0.0000 O   0  0  0  0  0  0  0  0  0  0  0  0
   -6.6537   -3.7114    0.0000 N   0  0  0  0  0  0  0  0  0  0  0  0
   -7.7491   -4.7361    0.0000 C   0  0  0  0  0  0  0  0  0  0  0  0
   -9.0622   -4.0110    0.0000 C   0  0  0  0  0  0  0  0  0  0  0  0
   -8.7783   -2.5381    0.0000 C   0  0  0  0  0  0  0  0  0  0  0  0
   -9.8030   -1.4427    0.0000 C   0  0  0  0  0  0  0  0  0  0  0  0
  -11.2640   -1.7824    0.0000 O   0  0  0  0  0  0  0  0  0  0  0  0
   -9.3667   -0.0075    0.0000 N   0  0  0  0  0  0  0  0  0  0  0  0
  -10.3915    1.0879    0.0000 C   0  0  0  0  0  0  0  0  0  0  0  0
   -9.9552    2.5230    0.0000 N   0  0  0  0  0  0  0  0  0  0  0  0
  -10.9799    3.6184    0.0000 N   0  0  0  0  0  0  0  0  0  0  0  0
  -12.4409    3.2787    0.0000 N   0  0  0  0  0  0  0  0  0  0  0  0
  -12.8772    1.8435    0.0000 N   0  0  0  0  0  0  0  0  0  0  0  0
  -11.8525    0.7481    0.0000 N   0  0  0  0  0  0  0  0  0  0  0  0
   -7.2898   -2.3529    0.0000 C   0  0  0  0  0  0  0  0  0  0  0  0
   -0.3789   -2.6350    0.0000 C   0  0  0  0  0  0  0  0  0  0  0  0
    1.1059   -2.4215    0.0000 C   0  0  0  0  0  0  0  0  0  0  0  0
    2.2395   -1.4392    0.0000 C   0  0  0  0  0  0  0  0  0  0  0  0
  1  2  1  0
  2  3  1  0
  3  4  1  0
  4  5  1  0
  5  6  1  0
  6  7  1  0
  7  8  1  0
  8  9  1  0
  9 10  1  0
 10 11  1  0
 11 12  1  0
 12 13  2  0
 12 14  1  0
 14 15  1  0
 15 16  1  0
 16 17  1  0
 17 18  1  0
 18 19  2  0
 18 20  1  0
 20 21  1  0
 21 22  2  0
 22 23  1  0
 23 24  2  0
 24 25  1  0
 25 26  2  0
 17 27  1  0
  9 28  1  0
 28 29  1  0
 29 30  1  0
 30  2  1  0
 27 14  1  0
 26 21  1  0
M  END
>  <Title>  (359) 
idAALWgen6

$$$$

     RDKit          2D

 17 18  0  0  0  0  0  0  0  0999 V2000
    3.9271    0.0000    0.0000 C   0  0  0  0  0  0  0  0  0  0  0  0
    2.4271    0.0000    0.0000 C   0  0  0  0  0  0  0  0  0  0  0  0
    1.9635   -1.4266    0.0000 C   0  0  0  0  0  0  0  0  0  0  0  0
    0.7500   -2.3083    0.0000 C   0  0  0  0  0  0  0  0  0  0  0  0
   -0.7500   -2.3083    0.0000 C   0  0  0  0  0  0  0  0  0  0  0  0
   -1.9635   -1.4266    0.0000 C   0  0  0  0  0  0  0  0  0  0  0  0
   -2.4271    0.0000    0.0000 C   0  0  0  0  0  0  0  0  0  0  0  0
   -1.9635    1.4266    0.0000 C   0  0  0  0  0  0  0  0  0  0  0  0
   -0.7500    2.3083    0.0000 C   0  0  0  0  0  0  0  0  0  0  0  0
    0.7500    2.3083    0.0000 C   0  0  0  0  0  0  0  0  0  0  0  0
    1.9635    1.4266    0.0000 C   0  0  0  0  0  0  0  0  0  0  0  0
   -0.9068    3.8000    0.0000 C   0  0  0  0  0  0  0  0  0  0  0  0
   -2.2771    4.4102    0.0000 C   0  0  0  0  0  0  0  0  0  0  0  0
   -2.4339    5.9019    0.0000 O   0  0  0  0  0  0  0  0  0  0  0  0
   -3.4906    3.5285    0.0000 N   0  0  0  0  0  0  0  0  0  0  0  0
   -3.3338    2.0367    0.0000 C   0  0  0  0  0  0  0  0  0  0  0  0
   -4.5474    1.1550    0.0000 O   0  0  0  0  0  0  0  0  0  0  0  0
  1  2  1  0
  2  3  2  0
  3  4  1  0
  4  5  2  0
  5  6  1  0
  6  7  2  0
  7  8  1  0
  8  9  2  0
  9 10  1  0
 10 11  2  0
  9 12  1  0
 12 13  1  0
 13 14  2  0
 13 15  1  0
 15 16  1  0
 16 17  2  0
 11  2  1  0
 16  8  1  0
M  END
>  <Title>  (360) 
idAALXgen6

$$$$

     RDKit          2D

 17 17  0  0  0  0  0  0  0  0999 V2000
    6.3250    3.1471    0.0000 C   0  0  0  0  0  0  0  0  0  0  0  0
    5.0260    3.8971    0.0000 C   0  0  0  0  0  0  0  0  0  0  0  0
    3.7269    4.6471    0.0000 C   0  0  0  0  0  0  0  0  0  0  0  0
    5.7760    5.1962    0.0000 C   0  0  0  0  0  0  0  0  0  0  0  0
    4.2760    2.5981    0.0000 C   0  0  0  0  0  0  0  0  0  0  0  0
    3.5260    1.2990    0.0000 C   0  0  0  0  0  0  0  0  0  0  0  0
    2.7760    0.0000    0.0000 C   0  0  0  0  0  0  0  0  0  0  0  0
    3.5260   -1.2990    0.0000 O   0  0  0  0  0  0  0  0  0  0  0  0
    1.2760    0.0000    0.0000 N   0  0  0  0  0  0  0  0  0  0  0  0
    0.3943    1.2135    0.0000 C   0  0  0  0  0  0  0  0  0  0  0  0
   -1.0323    0.7500    0.0000 C   0  0  0  0  0  0  0  0  0  0  0  0
   -1.0323   -0.7500    0.0000 C   0  0  0  0  0  0  0  0  0  0  0  0
   -2.2458   -1.6317    0.0000 C   0  0  0  0  0  0  0  0  0  0  0  0
   -2.0890   -3.1235    0.0000 O   0  0  0  0  0  0  0  0  0  0  0  0
   -3.6161   -1.0216    0.0000 O   0  0  0  0  0  0  0  0  0  0  0  0
    0.3943   -1.2135    0.0000 C   0  0  0  0  0  0  0  0  0  0  0  0
    0.8578   -2.6401    0.0000 O   0  0  0  0  0  0  0  0  0  0  0  0
  1  2  1  0
  2  3  1  0
  2  4  1  0
  2  5  1  0
  5  6  3  0
  6  7  1  0
  7  8  2  0
  7  9  1  0
  9 10  1  0
 10 11  1  0
 11 12  1  0
 12 13  1  0
 13 14  2  0
 13 15  1  0
 12 16  1  0
 16 17  2  0
 16  9  1  0
M  END
>  <Title>  (361) 
idAALYgen6

$$$$

     RDKit          2D

 26 29  0  0  0  0  0  0  0  0999 V2000
    3.7500   -1.2990    0.0000 C   0  0  0  0  0  0  0  0  0  0  0  0
    3.0000    0.0000    0.0000 O   0  0  0  0  0  0  0  0  0  0  0  0
    1.5000    0.0000    0.0000 C   0  0  0  0  0  0  0  0  0  0  0  0
    0.7500   -1.2990    0.0000 C   0  0  0  0  0  0  0  0  0  0  0  0
   -0.7500   -1.2990    0.0000 C   0  0  0  0  0  0  0  0  0  0  0  0
   -1.5000    0.0000    0.0000 C   0  0  0  0  0  0  0  0  0  0  0  0
   -0.7500    1.2990    0.0000 C   0  0  0  0  0  0  0  0  0  0  0  0
    0.7500    1.2990    0.0000 C   0  0  0  0  0  0  0  0  0  0  0  0
    1.5000    2.5981    0.0000 C   0  0  0  0  0  0  0  0  0  0  0  0
    3.0000    2.5981    0.0000 C   0  0  0  0  0  0  0  0  0  0  0  0
    3.7500    3.8971    0.0000 C   0  0  0  0  0  0  0  0  0  0  0  0
    3.0000    5.1962    0.0000 C   0  0  0  0  0  0  0  0  0  0  0  0
    3.7500    6.4952    0.0000 C   0  0  0  0  0  0  0  0  0  0  0  0
    3.1399    7.8655    0.0000 C   0  0  0  0  0  0  0  0  0  0  0  0
    4.2546    8.8692    0.0000 C   0  0  0  0  0  0  0  0  0  0  0  0
    5.5537    8.1192    0.0000 C   0  0  0  0  0  0  0  0  0  0  0  0
    6.9240    8.7293    0.0000 O   0  0  0  0  0  0  0  0  0  0  0  0
    5.2418    6.6520    0.0000 C   0  0  0  0  0  0  0  0  0  0  0  0
    6.2455    5.5373    0.0000 C   0  0  0  0  0  0  0  0  0  0  0  0
    5.7820    4.1107    0.0000 C   0  0  0  0  0  0  0  0  0  0  0  0
    6.7856    2.9960    0.0000 C   0  0  0  0  0  0  0  0  0  0  0  0
    8.2529    3.3078    0.0000 C   0  0  0  0  0  0  0  0  0  0  0  0
    8.7164    4.7344    0.0000 C   0  0  0  0  0  0  0  0  0  0  0  0
    7.7127    5.8491    0.0000 C   0  0  0  0  0  0  0  0  0  0  0  0
    1.5000    5.1962    0.0000 C   0  0  0  0  0  0  0  0  0  0  0  0
    0.7500    3.8971    0.0000 C   0  0  0  0  0  0  0  0  0  0  0  0
  1  2  1  0
  2  3  1  0
  3  4  2  0
  4  5  1  0
  5  6  2  0
  6  7  1  0
  7  8  2  0
  8  9  1  0
  9 10  2  0
 10 11  1  0
 11 12  2  0
 12 13  1  0
 13 14  2  0
 14 15  1  0
 15 16  2  0
 16 17  1  0
 16 18  1  0
 18 19  1  0
 19 20  2  0
 20 21  1  0
 21 22  2  0
 22 23  1  0
 23 24  2  0
 12 25  1  0
 25 26  2  0
  8  3  1  0
 26  9  1  0
 18 13  1  0
 24 19  1  0
M  END
>  <Title>  (362) 
idAALZgen6

$$$$

     RDKit          2D

 10 10  0  0  0  0  0  0  0  0999 V2000
    5.2500   -1.2990    0.0000 C   0  0  0  0  0  0  0  0  0  0  0  0
    3.7500   -1.2990    0.0000 C   0  0  0  0  0  0  0  0  0  0  0  0
    3.0000   -2.5981    0.0000 O   0  0  0  0  0  0  0  0  0  0  0  0
    3.0000    0.0000    0.0000 O   0  0  0  0  0  0  0  0  0  0  0  0
    1.5000    0.0000    0.0000 C   0  0  0  0  0  0  0  0  0  0  0  0
    0.7500   -1.2990    0.0000 C   0  0  0  0  0  0  0  0  0  0  0  0
   -0.7500   -1.2990    0.0000 C   0  0  0  0  0  0  0  0  0  0  0  0
   -1.5000    0.0000    0.0000 C   0  0  0  0  0  0  0  0  0  0  0  0
   -0.7500    1.2990    0.0000 C   0  0  0  0  0  0  0  0  0  0  0  0
    0.7500    1.2990    0.0000 C   0  0  0  0  0  0  0  0  0  0  0  0
  1  2  1  0
  2  3  2  0
  2  4  1  0
  4  5  1  0
  5  6  2  0
  6  7  1  0
  7  8  2  0
  8  9  1  0
  9 10  2  0
 10  5  1  0
M  END
>  <Title>  (363) 
idAAMAgen6

$$$$

     RDKit          2D

 16 17  0  0  0  0  0  0  0  0999 V2000
    3.0000    0.0000    0.0000 C   0  0  0  0  0  0  0  0  0  0  0  0
    1.5000    0.0000    0.0000 C   0  0  0  0  0  0  0  0  0  0  0  0
    0.7500   -1.2990    0.0000 C   0  0  0  0  0  0  0  0  0  0  0  0
   -0.7500   -1.2990    0.0000 S   0  0  0  0  0  0  0  0  0  0  0  0
   -1.5000    0.0000    0.0000 C   0  0  0  0  0  0  0  0  0  0  0  0
   -0.7500    1.2990    0.0000 C   0  0  0  0  0  0  0  0  0  0  0  0
   -1.5000    2.5981    0.0000 C   0  0  0  0  0  0  0  0  0  0  0  0
   -3.0000    2.5981    0.0000 O   0  0  0  0  0  0  0  0  0  0  0  0
   -0.7500    3.8971    0.0000 N   0  0  0  0  0  0  0  0  0  0  0  0
   -1.5000    5.1962    0.0000 C   0  0  0  0  0  0  0  0  0  0  0  0
   -0.7500    6.4952    0.0000 N   0  0  0  0  0  0  0  0  0  0  0  0
   -1.5000    7.7942    0.0000 N   0  0  0  0  0  0  0  0  0  0  0  0
   -3.0000    7.7942    0.0000 N   0  0  0  0  0  0  0  0  0  0  0  0
   -3.7500    6.4952    0.0000 N   0  0  0  0  0  0  0  0  0  0  0  0
   -3.0000    5.1962    0.0000 N   0  0  0  0  0  0  0  0  0  0  0  0
    0.7500    1.2990    0.0000 C   0  0  0  0  0  0  0  0  0  0  0  0
  1  2  1  0
  2  3  2  0
  3  4  1  0
  4  5  1  0
  5  6  2  0
  6  7  1  0
  7  8  2  0
  7  9  1  0
  9 10  1  0
 10 11  2  0
 11 12  1  0
 12 13  2  0
 13 14  1  0
 14 15  2  0
  6 16  1  0
 16  2  1  0
 15 10  1  0
M  END
>  <Title>  (364) 
idAAMBgen6

$$$$

     RDKit          2D

 25 28  0  0  0  0  0  0  0  0999 V2000
   -1.3240   -6.3062    0.0000 C   0  0  0  0  0  0  0  0  0  0  0  0
   -0.7500   -4.9204    0.0000 C   0  0  0  0  0  0  0  0  0  0  0  0
    0.7500   -4.9204    0.0000 C   0  0  0  0  0  0  0  0  0  0  0  0
    1.8107   -3.8597    0.0000 C   0  0  0  0  0  0  0  0  0  0  0  0
    1.8107   -2.3597    0.0000 C   0  0  0  0  0  0  0  0  0  0  0  0
    3.1965   -1.7857    0.0000 C   0  0  0  0  0  0  0  0  0  0  0  0
    3.3923   -0.2985    0.0000 O   0  0  0  0  0  0  0  0  0  0  0  0
    4.3865   -2.6988    0.0000 N   0  0  0  0  0  0  0  0  0  0  0  0
    5.7723   -2.1248    0.0000 C   0  0  0  0  0  0  0  0  0  0  0  0
    6.1225   -0.6662    0.0000 N   0  0  0  0  0  0  0  0  0  0  0  0
    7.6179   -0.5485    0.0000 N   0  0  0  0  0  0  0  0  0  0  0  0
    8.1919   -1.9344    0.0000 N   0  0  0  0  0  0  0  0  0  0  0  0
    7.0513   -2.9085    0.0000 N   0  0  0  0  0  0  0  0  0  0  0  0
    0.7500   -1.2990    0.0000 C   0  0  0  0  0  0  0  0  0  0  0  0
    1.5000    0.0000    0.0000 C   0  0  0  0  0  0  0  0  0  0  0  0
    0.7500    1.2990    0.0000 C   0  0  0  0  0  0  0  0  0  0  0  0
   -0.7500    1.2990    0.0000 C   0  0  0  0  0  0  0  0  0  0  0  0
   -1.5000    0.0000    0.0000 C   0  0  0  0  0  0  0  0  0  0  0  0
   -0.7500   -1.2990    0.0000 C   0  0  0  0  0  0  0  0  0  0  0  0
   -1.8107   -2.3597    0.0000 C   0  0  0  0  0  0  0  0  0  0  0  0
   -3.1097   -1.6097    0.0000 C   0  0  0  0  0  0  0  0  0  0  0  0
   -4.4087   -2.3597    0.0000 C   0  0  0  0  0  0  0  0  0  0  0  0
   -4.4087   -3.8597    0.0000 C   0  0  0  0  0  0  0  0  0  0  0  0
   -3.1097   -4.6097    0.0000 C   0  0  0  0  0  0  0  0  0  0  0  0
   -1.8107   -3.8597    0.0000 C   0  0  0  0  0  0  0  0  0  0  0  0
  1  2  1  0
  2  3  1  0
  3  4  1  0
  4  5  1  0
  5  6  1  0
  6  7  2  0
  6  8  1  0
  8  9  1  0
  9 10  2  0
 10 11  1  0
 11 12  2  0
 12 13  1  0
  5 14  1  0
 14 15  2  0
 15 16  1  0
 16 17  2  0
 17 18  1  0
 18 19  2  0
 19 20  1  0
 20 21  2  0
 21 22  1  0
 22 23  2  0
 23 24  1  0
 24 25  2  0
 25  2  1  0
 13  9  1  0
 19 14  1  0
 25 20  1  0
M  END
>  <Title>  (365) 
idAAMCgen6

$$$$

     RDKit          2D

  8  8  0  0  0  0  0  0  0  0999 V2000
    2.7760    0.0000    0.0000 C   0  0  0  0  0  0  0  0  0  0  0  0
    1.2760    0.0000    0.0000 C   0  0  0  0  0  0  0  0  0  0  0  0
    0.3943    1.2135    0.0000 C   0  0  0  0  0  0  0  0  0  0  0  0
   -1.0323    0.7500    0.0000 C   0  0  0  0  0  0  0  0  0  0  0  0
   -1.0323   -0.7500    0.0000 C   0  0  0  0  0  0  0  0  0  0  0  0
   -2.2458   -1.6317    0.0000 C   0  0  0  0  0  0  0  0  0  0  0  0
   -3.4593   -2.5134    0.0000 N   0  0  0  0  0  0  0  0  0  0  0  0
    0.3943   -1.2135    0.0000 C   0  0  0  0  0  0  0  0  0  0  0  0
  1  2  1  0
  2  3  1  0
  3  4  2  0
  4  5  1  0
  5  6  1  0
  6  7  3  0
  5  8  1  0
  8  2  1  0
M  END
>  <Title>  (366) 
idAAMDgen6

$$$$

     RDKit          2D

 22 23  0  0  0  0  0  0  0  0999 V2000
    0.7500   -6.4952    0.0000 C   0  0  0  0  0  0  0  0  0  0  0  0
    1.5000   -5.1962    0.0000 C   0  0  0  0  0  0  0  0  0  0  0  0
    0.7500   -3.8971    0.0000 N   0  0  0  0  0  0  0  0  0  0  0  0
    1.5000   -2.5981    0.0000 C   0  0  0  0  0  0  0  0  0  0  0  0
    3.0000   -2.5981    0.0000 O   0  0  0  0  0  0  0  0  0  0  0  0
    0.7500   -1.2990    0.0000 C   0  0  0  0  0  0  0  0  0  0  0  0
    1.5000    0.0000    0.0000 C   0  0  0  0  0  0  0  0  0  0  0  0
    0.7500    1.2990    0.0000 C   0  0  0  0  0  0  0  0  0  0  0  0
   -0.7500    1.2990    0.0000 C   0  0  0  0  0  0  0  0  0  0  0  0
   -1.5000    0.0000    0.0000 C   0  0  0  0  0  0  0  0  0  0  0  0
   -0.7500   -1.2990    0.0000 C   0  0  0  0  0  0  0  0  0  0  0  0
    3.0000   -5.1962    0.0000 C   0  0  0  0  0  0  0  0  0  0  0  0
    3.7500   -3.8971    0.0000 O   0  0  0  0  0  0  0  0  0  0  0  0
    3.7500   -6.4952    0.0000 N   0  0  0  0  0  0  0  0  0  0  0  0
    5.2418   -6.6520    0.0000 C   0  0  0  0  0  0  0  0  0  0  0  0
    5.5537   -8.1192    0.0000 C   0  0  0  0  0  0  0  0  0  0  0  0
    4.2546   -8.8692    0.0000 C   0  0  0  0  0  0  0  0  0  0  0  0
    4.0978  -10.3610    0.0000 C   0  0  0  0  0  0  0  0  0  0  0  0
    5.3113  -11.2427    0.0000 O   0  0  0  0  0  0  0  0  0  0  0  0
    2.7275  -10.9711    0.0000 O   0  0  0  0  0  0  0  0  0  0  0  0
    3.1399   -7.8655    0.0000 C   0  0  0  0  0  0  0  0  0  0  0  0
    1.6727   -8.1774    0.0000 O   0  0  0  0  0  0  0  0  0  0  0  0
  1  2  1  0
  2  3  1  0
  3  4  1  0
  4  5  2  0
  4  6  1  0
  6  7  2  0
  7  8  1  0
  8  9  2  0
  9 10  1  0
 10 11  2  0
  2 12  1  0
 12 13  2  0
 12 14  1  0
 14 15  1  0
 15 16  1  0
 16 17  1  0
 17 18  1  0
 18 19  2  0
 18 20  1  0
 17 21  1  0
 21 22  2  0
 11  6  1  0
 21 14  1  0
M  END
>  <Title>  (367) 
idAAMEgen6

$$$$

     RDKit          2D

 22 24  0  0  0  0  0  0  0  0999 V2000
   -2.5242   -4.8694    0.0000 C   0  0  0  0  0  0  0  0  0  0  0  0
   -1.3515   -3.9342    0.0000 C   0  0  0  0  0  0  0  0  0  0  0  0
   -0.0000   -4.5850    0.0000 C   0  0  0  0  0  0  0  0  0  0  0  0
    1.3515   -3.9342    0.0000 C   0  0  0  0  0  0  0  0  0  0  0  0
    1.6852   -2.4718    0.0000 C   0  0  0  0  0  0  0  0  0  0  0  0
    3.1476   -2.1380    0.0000 C   0  0  0  0  0  0  0  0  0  0  0  0
    3.5898   -0.7046    0.0000 O   0  0  0  0  0  0  0  0  0  0  0  0
    4.1679   -3.2376    0.0000 N   0  0  0  0  0  0  0  0  0  0  0  0
    5.6303   -2.9038    0.0000 C   0  0  0  0  0  0  0  0  0  0  0  0
    6.6505   -4.0034    0.0000 N   0  0  0  0  0  0  0  0  0  0  0  0
    8.1129   -3.6696    0.0000 N   0  0  0  0  0  0  0  0  0  0  0  0
    8.5551   -2.2362    0.0000 N   0  0  0  0  0  0  0  0  0  0  0  0
    7.5348   -1.1367    0.0000 N   0  0  0  0  0  0  0  0  0  0  0  0
    6.0724   -1.4704    0.0000 N   0  0  0  0  0  0  0  0  0  0  0  0
    0.7500   -1.2990    0.0000 C   0  0  0  0  0  0  0  0  0  0  0  0
    1.5000    0.0000    0.0000 C   0  0  0  0  0  0  0  0  0  0  0  0
    0.7500    1.2990    0.0000 C   0  0  0  0  0  0  0  0  0  0  0  0
   -0.7500    1.2990    0.0000 C   0  0  0  0  0  0  0  0  0  0  0  0
   -1.5000    0.0000    0.0000 C   0  0  0  0  0  0  0  0  0  0  0  0
   -0.7500   -1.2990    0.0000 C   0  0  0  0  0  0  0  0  0  0  0  0
   -1.6852   -2.4718    0.0000 C   0  0  0  0  0  0  0  0  0  0  0  0
   -3.1476   -2.1380    0.0000 O   0  0  0  0  0  0  0  0  0  0  0  0
  1  2  1  0
  2  3  1  0
  3  4  2  0
  4  5  1  0
  5  6  1  0
  6  7  2  0
  6  8  1  0
  8  9  1  0
  9 10  2  0
 10 11  1  0
 11 12  2  0
 12 13  1  0
 13 14  2  0
  5 15  1  0
 15 16  2  0
 16 17  1  0
 17 18  2  0
 18 19  1  0
 19 20  2  0
 20 21  1  0
 21 22  2  0
 21  2  1  0
 14  9  1  0
 20 15  1  0
M  END
>  <Title>  (368) 
idAAMFgen6

$$$$

     RDKit          2D

 16 16  0  0  0  0  0  0  0  0999 V2000
    5.7760   -2.5981    0.0000 C   0  0  0  0  0  0  0  0  0  0  0  0
    5.0260   -1.2990    0.0000 C   0  0  0  0  0  0  0  0  0  0  0  0
    5.7760    0.0000    0.0000 C   0  0  0  0  0  0  0  0  0  0  0  0
    7.2760    0.0000    0.0000 O   0  0  0  0  0  0  0  0  0  0  0  0
    3.5260   -1.2990    0.0000 N   0  0  0  0  0  0  0  0  0  0  0  0
    2.7760    0.0000    0.0000 C   0  0  0  0  0  0  0  0  0  0  0  0
    3.5260    1.2990    0.0000 O   0  0  0  0  0  0  0  0  0  0  0  0
    1.2760    0.0000    0.0000 C   0  0  0  0  0  0  0  0  0  0  0  0
    0.3943    1.2135    0.0000 C   0  0  0  0  0  0  0  0  0  0  0  0
   -1.0323    0.7500    0.0000 C   0  0  0  0  0  0  0  0  0  0  0  0
   -1.0323   -0.7500    0.0000 C   0  0  0  0  0  0  0  0  0  0  0  0
   -2.2458   -1.6317    0.0000 C   0  0  0  0  0  0  0  0  0  0  0  0
   -2.0890   -3.1235    0.0000 O   0  0  0  0  0  0  0  0  0  0  0  0
   -3.6161   -1.0216    0.0000 O   0  0  0  0  0  0  0  0  0  0  0  0
    0.3943   -1.2135    0.0000 C   0  0  0  0  0  0  0  0  0  0  0  0
    0.8578   -2.6401    0.0000 O   0  0  0  0  0  0  0  0  0  0  0  0
  1  2  1  0
  2  3  1  0
  3  4  1  0
  2  5  1  0
  5  6  1  0
  6  7  2  0
  6  8  1  0
  8  9  1  0
  9 10  1  0
 10 11  1  0
 11 12  1  0
 12 13  2  0
 12 14  1  0
 11 15  1  0
 15 16  2  0
 15  8  1  0
M  END
>  <Title>  (369) 
idAAMGgen6

$$$$

     RDKit          2D

 19 20  0  0  0  0  0  0  0  0999 V2000
    5.9347    0.5769    0.0000 C   0  0  0  0  0  0  0  0  0  0  0  0
    6.6057    1.9184    0.0000 C   0  0  0  0  0  0  0  0  0  0  0  0
    8.0854    2.1642    0.0000 C   0  0  0  0  0  0  0  0  0  0  0  0
    8.3090    3.6474    0.0000 C   0  0  0  0  0  0  0  0  0  0  0  0
    6.9674    4.3184    0.0000 C   0  0  0  0  0  0  0  0  0  0  0  0
    5.9147    3.2498    0.0000 C   0  0  0  0  0  0  0  0  0  0  0  0
    4.4315    3.4734    0.0000 C   0  0  0  0  0  0  0  0  0  0  0  0
    3.8835    4.8697    0.0000 O   0  0  0  0  0  0  0  0  0  0  0  0
    3.4962    2.3006    0.0000 O   0  0  0  0  0  0  0  0  0  0  0  0
    2.0130    2.5242    0.0000 C   0  0  0  0  0  0  0  0  0  0  0  0
    1.4650    3.9205    0.0000 O   0  0  0  0  0  0  0  0  0  0  0  0
    1.0777    1.3515    0.0000 C   0  0  0  0  0  0  0  0  0  0  0  0
    1.7286    0.0000    0.0000 C   0  0  0  0  0  0  0  0  0  0  0  0
    1.0777   -1.3515    0.0000 C   0  0  0  0  0  0  0  0  0  0  0  0
   -0.3846   -1.6852    0.0000 C   0  0  0  0  0  0  0  0  0  0  0  0
   -1.5574   -0.7500    0.0000 C   0  0  0  0  0  0  0  0  0  0  0  0
   -1.5574    0.7500    0.0000 C   0  0  0  0  0  0  0  0  0  0  0  0
   -2.9088    1.4008    0.0000 O   0  0  0  0  0  0  0  0  0  0  0  0
   -0.3846    1.6852    0.0000 N   0  0  0  0  0  0  0  0  0  0  0  0
  1  2  1  0
  2  3  2  0
  3  4  1  0
  4  5  1  0
  5  6  2  0
  6  7  1  0
  7  8  2  0
  7  9  1  0
  9 10  1  0
 10 11  2  0
 10 12  1  0
 12 13  1  0
 13 14  1  0
 14 15  1  0
 15 16  1  0
 16 17  1  0
 17 18  2  0
 17 19  1  0
  6  2  1  0
 19 12  1  0
M  END
>  <Title>  (370) 
idAAMHgen6

$$$$

     RDKit          2D

 36 41  0  0  0  0  0  0  0  0999 V2000
   -3.3405   -0.0000    0.0000 C   0  0  0  0  0  0  0  0  0  0  0  0
   -2.4589    1.2135    0.0000 C   0  0  0  0  0  0  0  0  0  0  0  0
   -3.3405    2.4271    0.0000 C   0  0  0  0  0  0  0  0  0  0  0  0
   -3.3405    3.9271    0.0000 C   0  0  0  0  0  0  0  0  0  0  0  0
   -2.4589    5.1406    0.0000 C   0  0  0  0  0  0  0  0  0  0  0  0
   -3.8855    5.6041    0.0000 C   0  0  0  0  0  0  0  0  0  0  0  0
   -4.7671    6.8176    0.0000 N   0  0  0  0  0  0  0  0  0  0  0  0
   -4.7671    8.3176    0.0000 N   0  0  0  0  0  0  0  0  0  0  0  0
   -3.8855    9.5312    0.0000 N   0  0  0  0  0  0  0  0  0  0  0  0
   -2.4589    9.9947    0.0000 N   0  0  0  0  0  0  0  0  0  0  0  0
   -1.0323    9.5312    0.0000 C   0  0  0  0  0  0  0  0  0  0  0  0
   -1.9140   10.7447    0.0000 C   0  0  0  0  0  0  0  0  0  0  0  0
   -3.3405   11.2082    0.0000 C   0  0  0  0  0  0  0  0  0  0  0  0
   -4.7671   10.7447    0.0000 C   0  0  0  0  0  0  0  0  0  0  0  0
   -5.6488    9.5312    0.0000 C   0  0  0  0  0  0  0  0  0  0  0  0
   -5.6488    8.0312    0.0000 N   0  0  0  0  0  0  0  0  0  0  0  0
   -6.9970    8.6887    0.0000 C   0  0  0  0  0  0  0  0  0  0  0  0
   -7.6071   10.0590    0.0000 C   0  0  0  0  0  0  0  0  0  0  0  0
   -7.1937   11.5009    0.0000 C   0  0  0  0  0  0  0  0  0  0  0  0
   -7.0890   12.9973    0.0000 C   0  0  0  0  0  0  0  0  0  0  0  0
   -5.6336   13.3601    0.0000 C   0  0  0  0  0  0  0  0  0  0  0  0
   -4.4583   12.1829    0.0000 N   0  0  0  0  0  0  0  0  0  0  0  0
   -5.9501   12.3397    0.0000 C   0  0  0  0  0  0  0  0  0  0  0  0
   -6.3130   13.7952    0.0000 F   0  0  0  0  0  0  0  0  0  0  0  0
   -0.1506    8.3176    0.0000 N   0  0  0  0  0  0  0  0  0  0  0  0
   -0.1506    6.8176    0.0000 C   0  0  0  0  0  0  0  0  0  0  0  0
    1.2760    6.3541    0.0000 O   0  0  0  0  0  0  0  0  0  0  0  0
   -1.0323    5.6041    0.0000 C   0  0  0  0  0  0  0  0  0  0  0  0
    0.3943    5.1406    0.0000 C   0  0  0  0  0  0  0  0  0  0  0  0
    1.2760    3.9271    0.0000 C   0  0  0  0  0  0  0  0  0  0  0  0
    1.2760    2.4271    0.0000 C   0  0  0  0  0  0  0  0  0  0  0  0
    0.3943    1.2135    0.0000 C   0  0  0  0  0  0  0  0  0  0  0  0
    1.2760    0.0000    0.0000 C   0  0  0  0  0  0  0  0  0  0  0  0
    0.3943   -1.2135    0.0000 C   0  0  0  0  0  0  0  0  0  0  0  0
   -1.0323   -0.7500    0.0000 C   0  0  0  0  0  0  0  0  0  0  0  0
   -1.0323    0.7500    0.0000 C   0  0  0  0  0  0  0  0  0  0  0  0
  1  2  1  0
  2  3  1  0
  3  4  1  0
  4  5  1  0
  5  6  1  0
  6  7  1  0
  7  8  1  0
  8  9  2  0
  9 10  1  0
 10 11  2  0
 11 12  1  0
 12 13  1  0
 13 14  1  0
 14 15  1  0
 15 16  1  0
 16 17  1  0
 17 18  2  0
 18 19  1  0
 19 20  1  0
 20 21  1  0
 21 22  1  0
 22 23  1  0
 23 24  1  0
 11 25  1  0
 25 26  1  0
 26 27  2  0
 26 28  1  0
 28 29  1  0
 29 30  2  0
 30 31  1  0
 31 32  2  0
 32 33  1  0
 33 34  2  0
 34 35  1  0
 35 36  2  0
 36  2  1  0
 28  5  1  0
 36 32  1  0
 16  7  1  0
 23 19  1  0
 22 13  1  0
M  END
>  <Title>  (371) 
idAAMIgen6

$$$$

     RDKit          2D

 23 24  0  0  0  0  0  0  0  0999 V2000
   -8.3482   -2.4639    0.0000 C   0  0  0  0  0  0  0  0  0  0  0  0
   -6.9624   -3.0379    0.0000 C   0  0  0  0  0  0  0  0  0  0  0  0
   -5.7723   -2.1248    0.0000 C   0  0  0  0  0  0  0  0  0  0  0  0
   -4.3865   -2.6988    0.0000 C   0  0  0  0  0  0  0  0  0  0  0  0
   -4.1907   -4.1860    0.0000 O   0  0  0  0  0  0  0  0  0  0  0  0
   -3.1965   -1.7857    0.0000 C   0  0  0  0  0  0  0  0  0  0  0  0
   -3.3923   -0.2985    0.0000 O   0  0  0  0  0  0  0  0  0  0  0  0
   -1.8107   -2.3597    0.0000 C   0  0  0  0  0  0  0  0  0  0  0  0
   -1.8107   -3.8597    0.0000 C   0  0  0  0  0  0  0  0  0  0  0  0
   -0.7500   -4.9204    0.0000 C   0  0  0  0  0  0  0  0  0  0  0  0
    0.7500   -4.9204    0.0000 C   0  0  0  0  0  0  0  0  0  0  0  0
    1.3240   -6.3062    0.0000 C   0  0  0  0  0  0  0  0  0  0  0  0
    2.8112   -6.5020    0.0000 O   0  0  0  0  0  0  0  0  0  0  0  0
    0.4109   -7.4962    0.0000 O   0  0  0  0  0  0  0  0  0  0  0  0
    1.8107   -3.8597    0.0000 C   0  0  0  0  0  0  0  0  0  0  0  0
    3.1965   -4.4337    0.0000 O   0  0  0  0  0  0  0  0  0  0  0  0
    1.8107   -2.3597    0.0000 O   0  0  0  0  0  0  0  0  0  0  0  0
    0.7500   -1.2990    0.0000 C   0  0  0  0  0  0  0  0  0  0  0  0
    1.5000    0.0000    0.0000 C   0  0  0  0  0  0  0  0  0  0  0  0
    0.7500    1.2990    0.0000 C   0  0  0  0  0  0  0  0  0  0  0  0
   -0.7500    1.2990    0.0000 C   0  0  0  0  0  0  0  0  0  0  0  0
   -1.5000    0.0000    0.0000 C   0  0  0  0  0  0  0  0  0  0  0  0
   -0.7500   -1.2990    0.0000 C   0  0  0  0  0  0  0  0  0  0  0  0
  1  2  2  0
  2  3  1  0
  3  4  2  3
  4  5  1  0
  4  6  1  0
  6  7  2  0
  6  8  1  0
  8  9  1  0
  9 10  1  0
 10 11  1  0
 11 12  1  0
 12 13  2  0
 12 14  1  0
 11 15  1  0
 15 16  2  0
 15 17  1  0
 17 18  1  0
 18 19  2  0
 19 20  1  0
 20 21  2  0
 21 22  1  0
 22 23  2  0
 23  8  1  0
 23 18  1  0
M  END
>  <Title>  (372) 
idAAMJgen6

$$$$

     RDKit          2D

 52 58  0  0  0  0  0  0  0  0999 V2000
    3.7913   -7.4656    0.0000 C   0  0  0  0  0  0  0  0  0  0  0  0
    2.7307   -6.4049    0.0000 C   0  0  0  0  0  0  0  0  0  0  0  0
    3.1189   -4.9560    0.0000 C   0  0  0  0  0  0  0  0  0  0  0  0
    4.5678   -4.5678    0.0000 O   0  0  0  0  0  0  0  0  0  0  0  0
    2.0583   -3.8954    0.0000 C   0  0  0  0  0  0  0  0  0  0  0  0
    2.4465   -2.4465    0.0000 C   0  0  0  0  0  0  0  0  0  0  0  0
    1.3858   -1.3858    0.0000 C   0  0  0  0  0  0  0  0  0  0  0  0
    1.9598    0.0000    0.0000 C   0  0  0  0  0  0  0  0  0  0  0  0
    1.3858    1.3858    0.0000 C   0  0  0  0  0  0  0  0  0  0  0  0
    0.0000    1.9598    0.0000 C   0  0  0  0  0  0  0  0  0  0  0  0
   -1.3858    1.3858    0.0000 C   0  0  0  0  0  0  0  0  0  0  0  0
   -1.9598    0.0000    0.0000 C   0  0  0  0  0  0  0  0  0  0  0  0
   -1.3858   -1.3858    0.0000 C   0  0  0  0  0  0  0  0  0  0  0  0
   -0.0000   -1.9598    0.0000 C   0  0  0  0  0  0  0  0  0  0  0  0
   -0.5740    0.5740    0.0000 N   0  0  0  0  0  0  0  0  0  0  0  0
    0.4866   -0.4866    0.0000 C   0  0  0  0  0  0  0  0  0  0  0  0
    0.0984   -1.9355    0.0000 C   0  0  0  0  0  0  0  0  0  0  0  0
    1.1591   -2.9962    0.0000 C   0  0  0  0  0  0  0  0  0  0  0  0
    2.6080   -2.6080    0.0000 C   0  0  0  0  0  0  0  0  0  0  0  0
    2.9962   -1.1591    0.0000 C   0  0  0  0  0  0  0  0  0  0  0  0
    1.9355   -0.0984    0.0000 C   0  0  0  0  0  0  0  0  0  0  0  0
    0.6094   -4.2836    0.0000 C   0  0  0  0  0  0  0  0  0  0  0  0
   -0.4513   -3.2229    0.0000 O   0  0  0  0  0  0  0  0  0  0  0  0
    0.2211   -5.7325    0.0000 N   0  0  0  0  0  0  0  0  0  0  0  0
   -1.2278   -6.1207    0.0000 C   0  0  0  0  0  0  0  0  0  0  0  0
   -1.5066   -7.5946    0.0000 N   0  0  0  0  0  0  0  0  0  0  0  0
   -2.8328   -8.2955    0.0000 N   0  0  0  0  0  0  0  0  0  0  0  0
   -4.2076   -7.6956    0.0000 N   0  0  0  0  0  0  0  0  0  0  0  0
   -4.5959   -6.2467    0.0000 N   0  0  0  0  0  0  0  0  0  0  0  0
   -6.0697   -5.9679    0.0000 N   0  0  0  0  0  0  0  0  0  0  0  0
   -7.1616   -6.9963    0.0000 C   0  0  0  0  0  0  0  0  0  0  0  0
   -8.4772   -6.2757    0.0000 C   0  0  0  0  0  0  0  0  0  0  0  0
   -8.1983   -4.8018    0.0000 C   0  0  0  0  0  0  0  0  0  0  0  0
   -9.2268   -3.7099    0.0000 N   0  0  0  0  0  0  0  0  0  0  0  0
   -8.7954   -2.2733    0.0000 C   0  0  0  0  0  0  0  0  0  0  0  0
   -9.8238   -1.1814    0.0000 C   0  0  0  0  0  0  0  0  0  0  0  0
  -11.2837   -1.5261    0.0000 C   0  0  0  0  0  0  0  0  0  0  0  0
  -12.3121   -0.4342    0.0000 C   0  0  0  0  0  0  0  0  0  0  0  0
  -13.7720   -0.7789    0.0000 O   0  0  0  0  0  0  0  0  0  0  0  0
  -11.8807    1.0025    0.0000 N   0  0  0  0  0  0  0  0  0  0  0  0
  -12.9092    2.0944    0.0000 C   0  0  0  0  0  0  0  0  0  0  0  0
  -12.4778    3.5310    0.0000 C   0  0  0  0  0  0  0  0  0  0  0  0
  -13.5062    4.6229    0.0000 C   0  0  0  0  0  0  0  0  0  0  0  0
  -14.9661    4.2782    0.0000 C   0  0  0  0  0  0  0  0  0  0  0  0
  -15.9945    5.3701    0.0000 O   0  0  0  0  0  0  0  0  0  0  0  0
  -15.3975    2.8416    0.0000 C   0  0  0  0  0  0  0  0  0  0  0  0
  -14.3690    1.7497    0.0000 C   0  0  0  0  0  0  0  0  0  0  0  0
  -11.7151   -2.9627    0.0000 C   0  0  0  0  0  0  0  0  0  0  0  0
  -10.6866   -4.0546    0.0000 C   0  0  0  0  0  0  0  0  0  0  0  0
   -6.7104   -4.6116    0.0000 C   0  0  0  0  0  0  0  0  0  0  0  0
   -3.7051   -5.0398    0.0000 C   0  0  0  0  0  0  0  0  0  0  0  0
   -2.2062   -4.9838    0.0000 C   0  0  0  0  0  0  0  0  0  0  0  0
  1  2  1  0
  2  3  1  0
  3  4  1  0
  3  5  1  0
  5  6  1  0
  6  7  1  0
  7  8  2  0
  8  9  1  0
  9 10  2  0
 10 11  1  0
 11 12  1  0
 12 13  1  0
 13 14  1  0
 12 15  1  0
 15 16  1  0
 16 17  2  0
 17 18  1  0
 18 19  2  0
 19 20  1  0
 20 21  1  0
  5 22  1  0
 22 23  2  0
 22 24  1  0
 24 25  1  0
 25 26  2  0
 26 27  1  0
 27 28  2  0
 28 29  1  0
 29 30  1  0
 30 31  1  0
 31 32  1  0
 32 33  1  0
 33 34  1  0
 34 35  1  0
 35 36  1  0
 36 37  1  0
 37 38  1  0
 38 39  2  0
 38 40  1  0
 40 41  1  0
 41 42  2  0
 42 43  1  0
 43 44  2  0
 44 45  1  0
 44 46  1  0
 46 47  2  0
 37 48  1  0
 48 49  1  0
 33 50  1  0
 29 51  1  0
 51 52  1  0
 14  7  1  0
 21 16  1  0
 52 25  1  0
 15 10  1  0
 50 30  1  0
 49 34  1  0
 47 41  1  0
M  END
>  <Title>  (373) 
idAAMKgen6

$$$$

     RDKit          2D

 27 28  0  0  0  0  0  0  0  0999 V2000
    5.2700    0.0000    0.0000 C   0  0  0  0  0  0  0  0  0  0  0  0
    5.0565   -1.4847    0.0000 C   0  0  0  0  0  0  0  0  0  0  0  0
    4.4334   -2.8492    0.0000 C   0  0  0  0  0  0  0  0  0  0  0  0
    3.4511   -3.9828    0.0000 C   0  0  0  0  0  0  0  0  0  0  0  0
    2.1892   -4.7938    0.0000 C   0  0  0  0  0  0  0  0  0  0  0  0
    0.7500   -5.2164    0.0000 C   0  0  0  0  0  0  0  0  0  0  0  0
   -0.7500   -5.2164    0.0000 C   0  0  0  0  0  0  0  0  0  0  0  0
   -2.1892   -4.7938    0.0000 C   0  0  0  0  0  0  0  0  0  0  0  0
   -3.4511   -3.9828    0.0000 C   0  0  0  0  0  0  0  0  0  0  0  0
   -4.4334   -2.8492    0.0000 C   0  0  0  0  0  0  0  0  0  0  0  0
   -5.0565   -1.4847    0.0000 C   0  0  0  0  0  0  0  0  0  0  0  0
   -6.4424   -1.8609    0.0000 C   0  0  0  0  0  0  0  0  0  0  0  0
   -7.8282   -1.2869    0.0000 C   0  0  0  0  0  0  0  0  0  0  0  0
   -8.4022    0.0989    0.0000 C   0  0  0  0  0  0  0  0  0  0  0  0
   -7.8282    1.4847    0.0000 C   0  0  0  0  0  0  0  0  0  0  0  0
   -6.4424    2.0588    0.0000 N   0  0  0  0  0  0  0  0  0  0  0  0
   -5.0565    1.4847    0.0000 C   0  0  0  0  0  0  0  0  0  0  0  0
   -4.4334    2.8492    0.0000 C   0  0  0  0  0  0  0  0  0  0  0  0
   -3.4511    3.9828    0.0000 C   0  0  0  0  0  0  0  0  0  0  0  0
   -2.1892    4.7938    0.0000 C   0  0  0  0  0  0  0  0  0  0  0  0
   -0.7500    5.2164    0.0000 C   0  0  0  0  0  0  0  0  0  0  0  0
    0.7500    5.2164    0.0000 C   0  0  0  0  0  0  0  0  0  0  0  0
    2.1892    4.7938    0.0000 C   0  0  0  0  0  0  0  0  0  0  0  0
    3.4511    3.9828    0.0000 C   0  0  0  0  0  0  0  0  0  0  0  0
    4.4334    2.8492    0.0000 C   0  0  0  0  0  0  0  0  0  0  0  0
    5.0565    1.4847    0.0000 C   0  0  0  0  0  0  0  0  0  0  0  0
   -5.2700    0.0000    0.0000 C   0  0  0  0  0  0  0  0  0  0  0  0
  1  2  1  0
  2  3  1  0
  3  4  1  0
  4  5  1  0
  5  6  1  0
  6  7  1  0
  7  8  1  0
  8  9  1  0
  9 10  1  0
 10 11  1  0
 11 12  1  0
 12 13  1  0
 13 14  1  0
 14 15  1  0
 15 16  1  0
 16 17  1  0
 17 18  1  0
 18 19  1  0
 19 20  1  0
 20 21  1  0
 21 22  1  0
 22 23  1  0
 23 24  1  0
 24 25  1  0
 25 26  1  0
 17 27  1  0
 26  1  1  0
 27 11  1  0
M  END
>  <Title>  (374) 
idAAMLgen6

$$$$

     RDKit          2D

 29 31  0  0  0  0  0  0  0  0999 V2000
    8.2500   -2.7990    0.0000 C   0  0  0  0  0  0  0  0  0  0  0  0
    8.2500   -1.2990    0.0000 C   0  0  0  0  0  0  0  0  0  0  0  0
    8.2500    0.2010    0.0000 C   0  0  0  0  0  0  0  0  0  0  0  0
    9.7500   -1.2990    0.0000 C   0  0  0  0  0  0  0  0  0  0  0  0
    6.7500   -1.2990    0.0000 C   0  0  0  0  0  0  0  0  0  0  0  0
    5.2500   -1.2990    0.0000 C   0  0  0  0  0  0  0  0  0  0  0  0
    3.7500   -1.2990    0.0000 C   0  0  0  0  0  0  0  0  0  0  0  0
    3.0000    0.0000    0.0000 C   0  0  0  0  0  0  0  0  0  0  0  0
    3.7500    1.2990    0.0000 O   0  0  0  0  0  0  0  0  0  0  0  0
    1.5000    0.0000    0.0000 N   0  0  0  0  0  0  0  0  0  0  0  0
    0.7500   -1.2990    0.0000 C   0  0  0  0  0  0  0  0  0  0  0  0
   -0.7500   -1.2990    0.0000 C   0  0  0  0  0  0  0  0  0  0  0  0
   -1.5000    0.0000    0.0000 C   0  0  0  0  0  0  0  0  0  0  0  0
   -3.0000    0.0000    0.0000 N   0  0  0  0  0  0  0  0  0  0  0  0
   -3.7500    1.2990    0.0000 C   0  0  0  0  0  0  0  0  0  0  0  0
   -5.2500    1.2990    0.0000 C   0  0  0  0  0  0  0  0  0  0  0  0
   -6.0000    0.0000    0.0000 C   0  0  0  0  0  0  0  0  0  0  0  0
   -7.5000    0.0000    0.0000 C   0  0  0  0  0  0  0  0  0  0  0  0
   -8.2500    1.2990    0.0000 C   0  0  0  0  0  0  0  0  0  0  0  0
   -9.7500    1.2990    0.0000 C   0  0  0  0  0  0  0  0  0  0  0  0
  -10.5000    0.0000    0.0000 C   0  0  0  0  0  0  0  0  0  0  0  0
  -12.0000    0.0000    0.0000 C   0  0  0  0  0  0  0  0  0  0  0  0
  -13.5000    0.0000    0.0000 N   0  0  0  0  0  0  0  0  0  0  0  0
   -9.7500   -1.2990    0.0000 C   0  0  0  0  0  0  0  0  0  0  0  0
   -8.2500   -1.2990    0.0000 C   0  0  0  0  0  0  0  0  0  0  0  0
   -5.2500   -1.2990    0.0000 C   0  0  0  0  0  0  0  0  0  0  0  0
   -3.7500   -1.2990    0.0000 C   0  0  0  0  0  0  0  0  0  0  0  0
   -0.7500    1.2990    0.0000 C   0  0  0  0  0  0  0  0  0  0  0  0
    0.7500    1.2990    0.0000 C   0  0  0  0  0  0  0  0  0  0  0  0
  1  2  1  0
  2  3  1  0
  2  4  1  0
  2  5  1  0
  5  6  3  0
  6  7  1  0
  7  8  1  0
  8  9  2  0
  8 10  1  0
 10 11  1  0
 11 12  1  0
 12 13  1  0
 13 14  1  0
 14 15  1  0
 15 16  1  0
 16 17  1  0
 17 18  1  0
 18 19  2  0
 19 20  1  0
 20 21  2  0
 21 22  1  0
 22 23  3  0
 21 24  1  0
 24 25  2  0
 17 26  1  0
 26 27  1  0
 13 28  1  0
 28 29  1  0
 29 10  1  0
 27 14  1  0
 25 18  1  0
M  END
>  <Title>  (375) 
idAAMMgen6

$$$$

     RDKit          2D

 16 16  0  0  0  0  0  0  0  0999 V2000
   11.7760   -5.1962    0.0000 C   0  0  0  0  0  0  0  0  0  0  0  0
   10.2760   -5.1962    0.0000 C   0  0  0  0  0  0  0  0  0  0  0  0
    9.5260   -3.8971    0.0000 C   0  0  0  0  0  0  0  0  0  0  0  0
    8.0260   -3.8971    0.0000 C   0  0  0  0  0  0  0  0  0  0  0  0
    7.2760   -2.5981    0.0000 C   0  0  0  0  0  0  0  0  0  0  0  0
    5.7760   -2.5981    0.0000 C   0  0  0  0  0  0  0  0  0  0  0  0
    5.0260   -1.2990    0.0000 C   0  0  0  0  0  0  0  0  0  0  0  0
    3.5260   -1.2990    0.0000 C   0  0  0  0  0  0  0  0  0  0  0  0
    2.7760    0.0000    0.0000 C   0  0  0  0  0  0  0  0  0  0  0  0
    1.2760    0.0000    0.0000 C   0  0  0  0  0  0  0  0  0  0  0  0
    0.3943    1.2135    0.0000 C   0  0  0  0  0  0  0  0  0  0  0  0
    0.8578    2.6401    0.0000 C   0  0  0  0  0  0  0  0  0  0  0  0
   -1.0323    0.7500    0.0000 C   0  0  0  0  0  0  0  0  0  0  0  0
   -1.0323   -0.7500    0.0000 C   0  0  0  0  0  0  0  0  0  0  0  0
    0.3943   -1.2135    0.0000 C   0  0  0  0  0  0  0  0  0  0  0  0
    0.8578   -2.6401    0.0000 O   0  0  0  0  0  0  0  0  0  0  0  0
  1  2  1  0
  2  3  1  0
  3  4  1  0
  4  5  1  0
  5  6  1  0
  6  7  1  0
  7  8  1  0
  8  9  1  0
  9 10  1  0
 10 11  1  0
 11 12  1  0
 11 13  1  0
 13 14  1  0
 14 15  1  0
 15 16  1  0
 15 10  1  0
M  END
>  <Title>  (376) 
idAAMNgen6

$$$$

     RDKit          2D

 22 22  0  0  0  0  0  0  0  0999 V2000
    5.2700    0.0000    0.0000 C   0  0  0  0  0  0  0  0  0  0  0  0
    5.0565   -1.4847    0.0000 C   0  0  0  0  0  0  0  0  0  0  0  0
    4.4334   -2.8492    0.0000 C   0  0  0  0  0  0  0  0  0  0  0  0
    3.4511   -3.9828    0.0000 C   0  0  0  0  0  0  0  0  0  0  0  0
    2.1892   -4.7938    0.0000 C   0  0  0  0  0  0  0  0  0  0  0  0
    0.7500   -5.2164    0.0000 C   0  0  0  0  0  0  0  0  0  0  0  0
   -0.7500   -5.2164    0.0000 C   0  0  0  0  0  0  0  0  0  0  0  0
   -2.1892   -4.7938    0.0000 C   0  0  0  0  0  0  0  0  0  0  0  0
   -3.4511   -3.9828    0.0000 C   0  0  0  0  0  0  0  0  0  0  0  0
   -4.4334   -2.8492    0.0000 C   0  0  0  0  0  0  0  0  0  0  0  0
   -5.0565   -1.4847    0.0000 C   0  0  0  0  0  0  0  0  0  0  0  0
   -5.2700    0.0000    0.0000 C   0  0  0  0  0  0  0  0  0  0  0  0
   -5.0565    1.4847    0.0000 C   0  0  0  0  0  0  0  0  0  0  0  0
   -4.4334    2.8492    0.0000 C   0  0  0  0  0  0  0  0  0  0  0  0
   -3.4511    3.9828    0.0000 C   0  0  0  0  0  0  0  0  0  0  0  0
   -2.1892    4.7938    0.0000 C   0  0  0  0  0  0  0  0  0  0  0  0
   -0.7500    5.2164    0.0000 C   0  0  0  0  0  0  0  0  0  0  0  0
    0.7500    5.2164    0.0000 C   0  0  0  0  0  0  0  0  0  0  0  0
    2.1892    4.7938    0.0000 C   0  0  0  0  0  0  0  0  0  0  0  0
    3.4511    3.9828    0.0000 C   0  0  0  0  0  0  0  0  0  0  0  0
    4.4334    2.8492    0.0000 C   0  0  0  0  0  0  0  0  0  0  0  0
    5.0565    1.4847    0.0000 C   0  0  0  0  0  0  0  0  0  0  0  0
  1  2  1  0
  2  3  1  0
  3  4  1  0
  4  5  1  0
  5  6  1  0
  6  7  1  0
  7  8  1  0
  8  9  1  0
  9 10  1  0
 10 11  1  0
 11 12  1  0
 12 13  1  0
 13 14  1  0
 14 15  1  0
 15 16  1  0
 16 17  1  0
 17 18  1  0
 18 19  1  0
 19 20  1  0
 20 21  1  0
 21 22  1  0
 22  1  1  0
M  END
>  <Title>  (377) 
idAAMOgen6

$$$$

     RDKit          2D

 40 45  0  0  0  0  0  0  0  0999 V2000
   -3.1771   -5.9156    0.0000 C   0  0  0  0  0  0  0  0  0  0  0  0
   -1.9635   -5.0339    0.0000 C   0  0  0  0  0  0  0  0  0  0  0  0
   -0.7500   -5.9156    0.0000 C   0  0  0  0  0  0  0  0  0  0  0  0
    0.7500   -5.9156    0.0000 C   0  0  0  0  0  0  0  0  0  0  0  0
    1.9635   -5.0339    0.0000 C   0  0  0  0  0  0  0  0  0  0  0  0
    3.1771   -5.9156    0.0000 C   0  0  0  0  0  0  0  0  0  0  0  0
    4.5474   -5.3055    0.0000 O   0  0  0  0  0  0  0  0  0  0  0  0
    3.0203   -7.4073    0.0000 N   0  0  0  0  0  0  0  0  0  0  0  0
    4.2338   -8.2890    0.0000 C   0  0  0  0  0  0  0  0  0  0  0  0
    4.0770   -9.7808    0.0000 N   0  0  0  0  0  0  0  0  0  0  0  0
    5.2905  -10.6625    0.0000 N   0  0  0  0  0  0  0  0  0  0  0  0
    6.6608  -10.0524    0.0000 N   0  0  0  0  0  0  0  0  0  0  0  0
    6.8176   -8.5606    0.0000 N   0  0  0  0  0  0  0  0  0  0  0  0
    5.6041   -7.6789    0.0000 N   0  0  0  0  0  0  0  0  0  0  0  0
    2.4271   -3.6073    0.0000 C   0  0  0  0  0  0  0  0  0  0  0  0
    1.9635   -2.1807    0.0000 C   0  0  0  0  0  0  0  0  0  0  0  0
    3.1771   -1.2990    0.0000 C   0  0  0  0  0  0  0  0  0  0  0  0
    3.0203    0.1927    0.0000 C   0  0  0  0  0  0  0  0  0  0  0  0
    4.2338    1.0744    0.0000 C   0  0  0  0  0  0  0  0  0  0  0  0
    5.6041    0.4643    0.0000 C   0  0  0  0  0  0  0  0  0  0  0  0
    5.7609   -1.0275    0.0000 C   0  0  0  0  0  0  0  0  0  0  0  0
    4.5474   -1.9091    0.0000 C   0  0  0  0  0  0  0  0  0  0  0  0
    4.7042   -3.4009    0.0000 C   0  0  0  0  0  0  0  0  0  0  0  0
    6.0745   -4.0110    0.0000 C   0  0  0  0  0  0  0  0  0  0  0  0
    6.2313   -5.5028    0.0000 C   0  0  0  0  0  0  0  0  0  0  0  0
    5.0177   -6.3845    0.0000 C   0  0  0  0  0  0  0  0  0  0  0  0
    3.6474   -5.7744    0.0000 C   0  0  0  0  0  0  0  0  0  0  0  0
    3.4906   -4.2826    0.0000 C   0  0  0  0  0  0  0  0  0  0  0  0
    0.7500   -1.2990    0.0000 C   0  0  0  0  0  0  0  0  0  0  0  0
    1.5000    0.0000    0.0000 C   0  0  0  0  0  0  0  0  0  0  0  0
    0.7500    1.2990    0.0000 C   0  0  0  0  0  0  0  0  0  0  0  0
   -0.7500    1.2990    0.0000 C   0  0  0  0  0  0  0  0  0  0  0  0
   -1.5000    0.0000    0.0000 C   0  0  0  0  0  0  0  0  0  0  0  0
   -0.7500   -1.2990    0.0000 C   0  0  0  0  0  0  0  0  0  0  0  0
   -1.9635   -2.1807    0.0000 C   0  0  0  0  0  0  0  0  0  0  0  0
   -2.9672   -1.0660    0.0000 C   0  0  0  0  0  0  0  0  0  0  0  0
   -4.4344   -1.3779    0.0000 C   0  0  0  0  0  0  0  0  0  0  0  0
   -4.8980   -2.8045    0.0000 C   0  0  0  0  0  0  0  0  0  0  0  0
   -3.8943   -3.9192    0.0000 C   0  0  0  0  0  0  0  0  0  0  0  0
   -2.4271   -3.6073    0.0000 C   0  0  0  0  0  0  0  0  0  0  0  0
  1  2  1  0
  2  3  1  0
  3  4  2  0
  4  5  1  0
  5  6  1  0
  6  7  2  0
  6  8  1  0
  8  9  1  0
  9 10  2  0
 10 11  1  0
 11 12  2  0
 12 13  1  0
 13 14  2  0
  5 15  1  0
 15 16  1  0
 16 17  1  0
 17 18  2  0
 18 19  1  0
 19 20  2  0
 20 21  1  0
 21 22  2  0
 22 23  1  0
 23 24  2  0
 24 25  1  0
 25 26  2  0
 26 27  1  0
 27 28  2  0
 16 29  1  0
 29 30  2  0
 30 31  1  0
 31 32  2  0
 32 33  1  0
 33 34  2  0
 34 35  1  0
 35 36  2  0
 36 37  1  0
 37 38  2  0
 38 39  1  0
 39 40  2  0
 40  2  1  0
 14  9  1  0
 22 17  1  0
 28 23  1  0
 34 29  1  0
 40 35  1  0
M  END
>  <Title>  (378) 
idAAMPgen6

$$$$

     RDKit          2D

 12 12  0  0  0  0  0  0  0  0999 V2000
    5.0260   -1.2990    0.0000 C   0  0  0  0  0  0  0  0  0  0  0  0
    3.5260   -1.2990    0.0000 C   0  0  0  0  0  0  0  0  0  0  0  0
    2.7760   -2.5981    0.0000 O   0  0  0  0  0  0  0  0  0  0  0  0
    2.7760    0.0000    0.0000 N   0  0  0  0  0  0  0  0  0  0  0  0
    1.2760    0.0000    0.0000 C   0  0  0  0  0  0  0  0  0  0  0  0
    0.3943    1.2135    0.0000 C   0  0  0  0  0  0  0  0  0  0  0  0
   -1.0323    0.7500    0.0000 C   0  0  0  0  0  0  0  0  0  0  0  0
   -1.0323   -0.7500    0.0000 C   0  0  0  0  0  0  0  0  0  0  0  0
   -2.2458   -1.6317    0.0000 C   0  0  0  0  0  0  0  0  0  0  0  0
   -2.0890   -3.1235    0.0000 O   0  0  0  0  0  0  0  0  0  0  0  0
   -3.6161   -1.0216    0.0000 O   0  0  0  0  0  0  0  0  0  0  0  0
    0.3943   -1.2135    0.0000 C   0  0  0  0  0  0  0  0  0  0  0  0
  1  2  1  0
  2  3  2  0
  2  4  1  0
  4  5  1  0
  5  6  2  0
  6  7  1  0
  7  8  2  0
  8  9  1  0
  9 10  2  0
  9 11  1  0
  8 12  1  0
 12  5  1  0
M  END
>  <Title>  (379) 
idAAMQgen6

$$$$

     RDKit          2D

 15 16  0  0  0  0  0  0  0  0999 V2000
    4.6740   -7.4303    0.0000 C   0  0  0  0  0  0  0  0  0  0  0  0
    3.3037   -6.8202    0.0000 N   0  0  0  0  0  0  0  0  0  0  0  0
    2.9918   -5.3529    0.0000 C   0  0  0  0  0  0  0  0  0  0  0  0
    1.5000   -5.1962    0.0000 C   0  0  0  0  0  0  0  0  0  0  0  0
    0.7500   -3.8971    0.0000 C   0  0  0  0  0  0  0  0  0  0  0  0
   -0.7500   -3.8971    0.0000 O   0  0  0  0  0  0  0  0  0  0  0  0
    1.5000   -2.5981    0.0000 N   0  0  0  0  0  0  0  0  0  0  0  0
    0.7500   -1.2990    0.0000 C   0  0  0  0  0  0  0  0  0  0  0  0
    1.5000    0.0000    0.0000 N   0  0  0  0  0  0  0  0  0  0  0  0
    0.7500    1.2990    0.0000 N   0  0  0  0  0  0  0  0  0  0  0  0
   -0.7500    1.2990    0.0000 N   0  0  0  0  0  0  0  0  0  0  0  0
   -1.5000    0.0000    0.0000 N   0  0  0  0  0  0  0  0  0  0  0  0
   -0.7500   -1.2990    0.0000 N   0  0  0  0  0  0  0  0  0  0  0  0
    0.8899   -6.5665    0.0000 C   0  0  0  0  0  0  0  0  0  0  0  0
    2.0046   -7.5702    0.0000 C   0  0  0  0  0  0  0  0  0  0  0  0
  1  2  1  0
  2  3  1  0
  3  4  2  0
  4  5  1  0
  5  6  2  0
  5  7  1  0
  7  8  1  0
  8  9  2  0
  9 10  1  0
 10 11  2  0
 11 12  1  0
 12 13  2  0
  4 14  1  0
 14 15  1  0
 15  2  1  0
 13  8  1  0
M  END
>  <Title>  (380) 
idAAMRgen6

$$$$

     RDKit          2D

 28 31  0  0  0  0  0  0  0  0999 V2000
   -3.1771   -1.2990    0.0000 C   0  0  0  0  0  0  0  0  0  0  0  0
   -1.9635   -2.1807    0.0000 C   0  0  0  0  0  0  0  0  0  0  0  0
   -2.4271   -3.6073    0.0000 C   0  0  0  0  0  0  0  0  0  0  0  0
   -1.9635   -5.0339    0.0000 C   0  0  0  0  0  0  0  0  0  0  0  0
   -0.7500   -5.9156    0.0000 C   0  0  0  0  0  0  0  0  0  0  0  0
   -1.2135   -7.3421    0.0000 C   0  0  0  0  0  0  0  0  0  0  0  0
   -2.6807   -7.6540    0.0000 C   0  0  0  0  0  0  0  0  0  0  0  0
   -3.1443   -9.0806    0.0000 N   0  0  0  0  0  0  0  0  0  0  0  0
   -2.1406  -10.1953    0.0000 N   0  0  0  0  0  0  0  0  0  0  0  0
   -0.6734   -9.8835    0.0000 N   0  0  0  0  0  0  0  0  0  0  0  0
   -0.2098   -8.4569    0.0000 N   0  0  0  0  0  0  0  0  0  0  0  0
    0.7500   -5.9156    0.0000 C   0  0  0  0  0  0  0  0  0  0  0  0
    0.9068   -7.4073    0.0000 C   0  0  0  0  0  0  0  0  0  0  0  0
    2.2771   -8.0175    0.0000 C   0  0  0  0  0  0  0  0  0  0  0  0
    3.4906   -7.1358    0.0000 C   0  0  0  0  0  0  0  0  0  0  0  0
    4.8610   -7.7459    0.0000 C   0  0  0  0  0  0  0  0  0  0  0  0
    6.2313   -8.3560    0.0000 N   0  0  0  0  0  0  0  0  0  0  0  0
    3.3338   -5.6440    0.0000 C   0  0  0  0  0  0  0  0  0  0  0  0
    1.9635   -5.0339    0.0000 C   0  0  0  0  0  0  0  0  0  0  0  0
    2.4271   -3.6073    0.0000 C   0  0  0  0  0  0  0  0  0  0  0  0
    3.9271   -3.6073    0.0000 O   0  0  0  0  0  0  0  0  0  0  0  0
    1.9635   -2.1807    0.0000 O   0  0  0  0  0  0  0  0  0  0  0  0
    0.7500   -1.2990    0.0000 C   0  0  0  0  0  0  0  0  0  0  0  0
    1.5000    0.0000    0.0000 C   0  0  0  0  0  0  0  0  0  0  0  0
    0.7500    1.2990    0.0000 C   0  0  0  0  0  0  0  0  0  0  0  0
   -0.7500    1.2990    0.0000 C   0  0  0  0  0  0  0  0  0  0  0  0
   -1.5000    0.0000    0.0000 C   0  0  0  0  0  0  0  0  0  0  0  0
   -0.7500   -1.2990    0.0000 C   0  0  0  0  0  0  0  0  0  0  0  0
  1  2  1  0
  2  3  2  0
  3  4  1  0
  4  5  2  0
  5  6  1  0
  6  7  2  0
  7  8  1  0
  8  9  2  0
  9 10  1  0
 10 11  2  0
  5 12  1  0
 12 13  2  0
 13 14  1  0
 14 15  2  0
 15 16  1  0
 16 17  3  0
 15 18  1  0
 18 19  2  0
 19 20  1  0
 20 21  2  0
 20 22  1  0
 22 23  1  0
 23 24  2  0
 24 25  1  0
 25 26  2  0
 26 27  1  0
 27 28  2  0
 28  2  1  0
 11  6  1  0
 19 12  1  0
 28 23  1  0
M  END
>  <Title>  (381) 
idAAMSgen6

$$$$

     RDKit          2D

 14 14  0  0  0  0  0  0  0  0999 V2000
    3.9271    0.0000    0.0000 C   0  0  0  0  0  0  0  0  0  0  0  0
    2.4271    0.0000    0.0000 C   0  0  0  0  0  0  0  0  0  0  0  0
    1.9635   -1.4266    0.0000 C   0  0  0  0  0  0  0  0  0  0  0  0
    0.7500   -2.3083    0.0000 C   0  0  0  0  0  0  0  0  0  0  0  0
   -0.7500   -2.3083    0.0000 C   0  0  0  0  0  0  0  0  0  0  0  0
   -1.9635   -1.4266    0.0000 C   0  0  0  0  0  0  0  0  0  0  0  0
   -2.4271    0.0000    0.0000 C   0  0  0  0  0  0  0  0  0  0  0  0
   -1.9635    1.4266    0.0000 C   0  0  0  0  0  0  0  0  0  0  0  0
   -0.7500    2.3083    0.0000 C   0  0  0  0  0  0  0  0  0  0  0  0
    0.7500    2.3083    0.0000 C   0  0  0  0  0  0  0  0  0  0  0  0
    1.2135    3.7348    0.0000 N   0  0  0  0  0  0  0  0  0  0  0  0
    2.6807    4.0467    0.0000 C   0  0  0  0  0  0  0  0  0  0  0  0
    0.2098    4.8496    0.0000 C   0  0  0  0  0  0  0  0  0  0  0  0
    1.9635    1.4266    0.0000 C   0  0  0  0  0  0  0  0  0  0  0  0
  1  2  1  0
  2  3  1  0
  3  4  1  0
  4  5  1  0
  5  6  1  0
  6  7  1  0
  7  8  2  0
  8  9  1  0
  9 10  2  0
 10 11  1  0
 11 12  1  0
 11 13  1  0
 10 14  1  0
 14  2  1  0
M  END
>  <Title>  (382) 
idAAMTgen6

$$$$

     RDKit          2D

 12 12  0  0  0  0  0  0  0  0999 V2000
    4.1621    0.0000    0.0000 C   0  0  0  0  0  0  0  0  0  0  0  0
    2.6621    0.0000    0.0000 C   0  0  0  0  0  0  0  0  0  0  0  0
    2.2395    1.4392    0.0000 C   0  0  0  0  0  0  0  0  0  0  0  0
    1.1059    2.4215    0.0000 C   0  0  0  0  0  0  0  0  0  0  0  0
   -0.3789    2.6350    0.0000 C   0  0  0  0  0  0  0  0  0  0  0  0
   -1.7433    2.0119    0.0000 C   0  0  0  0  0  0  0  0  0  0  0  0
   -2.5543    0.7500    0.0000 C   0  0  0  0  0  0  0  0  0  0  0  0
   -2.5543   -0.7500    0.0000 C   0  0  0  0  0  0  0  0  0  0  0  0
   -1.7433   -2.0119    0.0000 C   0  0  0  0  0  0  0  0  0  0  0  0
   -0.3789   -2.6350    0.0000 C   0  0  0  0  0  0  0  0  0  0  0  0
    1.1059   -2.4215    0.0000 C   0  0  0  0  0  0  0  0  0  0  0  0
    2.2395   -1.4392    0.0000 C   0  0  0  0  0  0  0  0  0  0  0  0
  1  2  1  0
  2  3  1  0
  3  4  1  0
  4  5  1  0
  5  6  1  0
  6  7  1  0
  7  8  1  0
  8  9  1  0
  9 10  1  0
 10 11  1  0
 11 12  1  0
 12  2  1  0
M  END
>  <Title>  (383) 
idAAMUgen6

$$$$

     RDKit          2D

  7  6  0  0  0  0  0  0  0  0999 V2000
    0.0000    0.0000    0.0000 C   0  0  0  0  0  0  0  0  0  0  0  0
    1.2990    0.7500    0.0000 N   0  0  0  0  0  0  0  0  0  0  0  0
    2.5981   -0.0000    0.0000 C   0  0  0  0  0  0  0  0  0  0  0  0
    1.2990    2.2500    0.0000 C   0  0  0  0  0  0  0  0  0  0  0  0
    1.2990    3.7500    0.0000 C   0  0  0  0  0  0  0  0  0  0  0  0
    1.2990    5.2500    0.0000 C   0  0  0  0  0  0  0  0  0  0  0  0
    1.2990    6.7500    0.0000 N   0  0  0  0  0  0  0  0  0  0  0  0
  1  2  1  0
  2  3  1  0
  2  4  1  0
  4  5  3  0
  5  6  1  0
  6  7  3  0
M  END
>  <Title>  (384) 
idAAMVgen6

$$$$

     RDKit          2D

 30 32  0  0  0  0  0  0  0  0999 V2000
    9.8417   -6.8871    0.0000 C   0  0  0  0  0  0  0  0  0  0  0  0
    8.6281   -7.7688    0.0000 C   0  0  0  0  0  0  0  0  0  0  0  0
    7.4146   -8.6505    0.0000 C   0  0  0  0  0  0  0  0  0  0  0  0
    6.2011   -9.5322    0.0000 C   0  0  0  0  0  0  0  0  0  0  0  0
    4.8308   -8.9221    0.0000 C   0  0  0  0  0  0  0  0  0  0  0  0
    4.6740   -7.4303    0.0000 C   0  0  0  0  0  0  0  0  0  0  0  0
    5.8875   -6.5486    0.0000 O   0  0  0  0  0  0  0  0  0  0  0  0
    3.3037   -6.8202    0.0000 N   0  0  0  0  0  0  0  0  0  0  0  0
    2.0046   -7.5702    0.0000 C   0  0  0  0  0  0  0  0  0  0  0  0
    0.8899   -6.5665    0.0000 C   0  0  0  0  0  0  0  0  0  0  0  0
    1.5000   -5.1962    0.0000 C   0  0  0  0  0  0  0  0  0  0  0  0
    0.7500   -3.8971    0.0000 C   0  0  0  0  0  0  0  0  0  0  0  0
   -0.7500   -3.8971    0.0000 O   0  0  0  0  0  0  0  0  0  0  0  0
    1.5000   -2.5981    0.0000 N   0  0  0  0  0  0  0  0  0  0  0  0
    0.7500   -1.2990    0.0000 C   0  0  0  0  0  0  0  0  0  0  0  0
    1.5000    0.0000    0.0000 N   0  0  0  0  0  0  0  0  0  0  0  0
    0.7500    1.2990    0.0000 N   0  0  0  0  0  0  0  0  0  0  0  0
   -0.7500    1.2990    0.0000 N   0  0  0  0  0  0  0  0  0  0  0  0
   -1.5000    0.0000    0.0000 N   0  0  0  0  0  0  0  0  0  0  0  0
   -0.7500   -1.2990    0.0000 N   0  0  0  0  0  0  0  0  0  0  0  0
    2.9918   -5.3529    0.0000 C   0  0  0  0  0  0  0  0  0  0  0  0
    3.9955   -4.2382    0.0000 O   0  0  0  0  0  0  0  0  0  0  0  0
    6.3579  -11.0239    0.0000 C   0  0  0  0  0  0  0  0  0  0  0  0
    7.6569  -11.7739    0.0000 C   0  0  0  0  0  0  0  0  0  0  0  0
    7.3450  -13.2412    0.0000 C   0  0  0  0  0  0  0  0  0  0  0  0
    5.8533  -13.3980    0.0000 C   0  0  0  0  0  0  0  0  0  0  0  0
    5.1033  -14.6970    0.0000 O   0  0  0  0  0  0  0  0  0  0  0  0
    3.6033  -14.6970    0.0000 C   0  0  0  0  0  0  0  0  0  0  0  0
    2.8533  -15.9960    0.0000 C   0  0  0  0  0  0  0  0  0  0  0  0
    5.2432  -12.0276    0.0000 C   0  0  0  0  0  0  0  0  0  0  0  0
  1  2  1  0
  2  3  3  0
  3  4  1  0
  4  5  1  0
  5  6  1  0
  6  7  2  0
  6  8  1  0
  8  9  1  0
  9 10  1  0
 10 11  1  0
 11 12  1  0
 12 13  2  0
 12 14  1  0
 14 15  1  0
 15 16  2  0
 16 17  1  0
 17 18  2  0
 18 19  1  0
 19 20  2  0
 11 21  1  0
 21 22  2  0
  4 23  1  0
 23 24  2  0
 24 25  1  0
 25 26  2  0
 26 27  1  0
 27 28  1  0
 28 29  1  0
 26 30  1  0
 21  8  1  0
 30 23  1  0
 20 15  1  0
M  END
>  <Title>  (385) 
idAAMWgen6

$$$$

     RDKit          2D

 15 16  0  0  0  0  0  0  0  0999 V2000
    4.1621    0.0000    0.0000 C   0  0  0  0  0  0  0  0  0  0  0  0
    2.6621    0.0000    0.0000 C   0  0  0  0  0  0  0  0  0  0  0  0
    2.2395    1.4392    0.0000 C   0  0  0  0  0  0  0  0  0  0  0  0
    1.1059    2.4215    0.0000 C   0  0  0  0  0  0  0  0  0  0  0  0
   -0.3789    2.6350    0.0000 C   0  0  0  0  0  0  0  0  0  0  0  0
   -1.7433    2.0119    0.0000 C   0  0  0  0  0  0  0  0  0  0  0  0
   -2.5543    0.7500    0.0000 C   0  0  0  0  0  0  0  0  0  0  0  0
   -2.5543   -0.7500    0.0000 C   0  0  0  0  0  0  0  0  0  0  0  0
   -1.7433   -2.0119    0.0000 C   0  0  0  0  0  0  0  0  0  0  0  0
   -0.3789   -2.6350    0.0000 N   0  0  0  0  0  0  0  0  0  0  0  0
   -0.5923   -4.1197    0.0000 C   0  0  0  0  0  0  0  0  0  0  0  0
   -0.0348   -5.5123    0.0000 C   0  0  0  0  0  0  0  0  0  0  0  0
   -1.5196   -5.2988    0.0000 C   0  0  0  0  0  0  0  0  0  0  0  0
    1.1059   -2.4215    0.0000 C   0  0  0  0  0  0  0  0  0  0  0  0
    2.2395   -1.4392    0.0000 C   0  0  0  0  0  0  0  0  0  0  0  0
  1  2  1  0
  2  3  1  0
  3  4  1  0
  4  5  1  0
  5  6  1  0
  6  7  1  0
  7  8  1  0
  8  9  1  0
  9 10  1  0
 10 11  1  0
 11 12  1  0
 12 13  1  0
 10 14  1  0
 14 15  1  0
 15  2  1  0
 13 11  1  0
M  END
>  <Title>  (386) 
idAAMXgen6

$$$$

     RDKit          2D

 12 13  0  0  0  0  0  0  0  0999 V2000
   -1.2990   -6.3481    0.0000 C   0  0  0  0  0  0  0  0  0  0  0  0
   -1.2990   -4.8481    0.0000 C   0  0  0  0  0  0  0  0  0  0  0  0
   -2.5981   -4.0981    0.0000 O   0  0  0  0  0  0  0  0  0  0  0  0
   -0.0000   -4.0981    0.0000 C   0  0  0  0  0  0  0  0  0  0  0  0
    1.2990   -4.8481    0.0000 O   0  0  0  0  0  0  0  0  0  0  0  0
   -0.0000   -2.5981    0.0000 C   0  0  0  0  0  0  0  0  0  0  0  0
    0.7500   -1.2990    0.0000 C   0  0  0  0  0  0  0  0  0  0  0  0
    1.5000    0.0000    0.0000 C   0  0  0  0  0  0  0  0  0  0  0  0
    0.7500    1.2990    0.0000 C   0  0  0  0  0  0  0  0  0  0  0  0
   -0.7500    1.2990    0.0000 C   0  0  0  0  0  0  0  0  0  0  0  0
   -1.5000    0.0000    0.0000 C   0  0  0  0  0  0  0  0  0  0  0  0
   -0.7500   -1.2990    0.0000 C   0  0  0  0  0  0  0  0  0  0  0  0
  1  2  1  0
  2  3  2  0
  2  4  1  0
  4  5  2  0
  4  6  1  0
  6  7  1  0
  7  8  2  0
  8  9  1  0
  9 10  2  0
 10 11  1  0
 11 12  2  0
 12  6  1  0
 12  7  1  0
M  END
>  <Title>  (387) 
idAAMYgen6

$$$$

     RDKit          2D

 32 36  0  0  0  0  0  0  0  0999 V2000
    3.0000    0.0000    0.0000 C   0  0  0  0  0  0  0  0  0  0  0  0
    1.5000    0.0000    0.0000 C   0  0  0  0  0  0  0  0  0  0  0  0
    0.7500   -1.2990    0.0000 C   0  0  0  0  0  0  0  0  0  0  0  0
   -0.7500   -1.2990    0.0000 C   0  0  0  0  0  0  0  0  0  0  0  0
   -1.5000    0.0000    0.0000 C   0  0  0  0  0  0  0  0  0  0  0  0
   -3.0000    0.0000    0.0000 O   0  0  0  0  0  0  0  0  0  0  0  0
   -3.7500    1.2990    0.0000 C   0  0  0  0  0  0  0  0  0  0  0  0
   -3.0000    2.5981    0.0000 O   0  0  0  0  0  0  0  0  0  0  0  0
   -5.2500    1.2990    0.0000 N   0  0  0  0  0  0  0  0  0  0  0  0
   -6.1317    0.0855    0.0000 C   0  0  0  0  0  0  0  0  0  0  0  0
   -7.5583    0.5490    0.0000 C   0  0  0  0  0  0  0  0  0  0  0  0
   -7.5583    2.0490    0.0000 C   0  0  0  0  0  0  0  0  0  0  0  0
   -8.7718    2.9307    0.0000 N   0  0  0  0  0  0  0  0  0  0  0  0
   -8.6150    4.4225    0.0000 C   0  0  0  0  0  0  0  0  0  0  0  0
   -9.8285    5.3042    0.0000 C   0  0  0  0  0  0  0  0  0  0  0  0
  -11.1988    4.6941    0.0000 C   0  0  0  0  0  0  0  0  0  0  0  0
  -12.4124    5.5757    0.0000 N   0  0  0  0  0  0  0  0  0  0  0  0
  -12.6470    7.0573    0.0000 C   0  0  0  0  0  0  0  0  0  0  0  0
  -14.1285    6.8226    0.0000 C   0  0  0  0  0  0  0  0  0  0  0  0
  -13.8939    5.3411    0.0000 C   0  0  0  0  0  0  0  0  0  0  0  0
  -14.7756    4.1276    0.0000 C   0  0  0  0  0  0  0  0  0  0  0  0
  -16.2674    4.2844    0.0000 C   0  0  0  0  0  0  0  0  0  0  0  0
  -17.1490    3.0708    0.0000 C   0  0  0  0  0  0  0  0  0  0  0  0
  -16.5389    1.7005    0.0000 C   0  0  0  0  0  0  0  0  0  0  0  0
  -17.4206    0.4870    0.0000 O   0  0  0  0  0  0  0  0  0  0  0  0
  -15.0471    1.5437    0.0000 C   0  0  0  0  0  0  0  0  0  0  0  0
  -14.1655    2.7573    0.0000 C   0  0  0  0  0  0  0  0  0  0  0  0
  -11.3556    3.2023    0.0000 C   0  0  0  0  0  0  0  0  0  0  0  0
  -10.1421    2.3206    0.0000 C   0  0  0  0  0  0  0  0  0  0  0  0
   -6.1317    2.5126    0.0000 C   0  0  0  0  0  0  0  0  0  0  0  0
   -0.7500    1.2990    0.0000 C   0  0  0  0  0  0  0  0  0  0  0  0
    0.7500    1.2990    0.0000 C   0  0  0  0  0  0  0  0  0  0  0  0
  1  2  1  0
  2  3  1  0
  3  4  1  0
  4  5  1  0
  5  6  1  0
  6  7  1  0
  7  8  2  0
  7  9  1  0
  9 10  1  0
 10 11  1  0
 11 12  1  0
 12 13  1  0
 13 14  1  0
 14 15  1  0
 15 16  1  0
 16 17  1  0
 17 18  1  0
 18 19  1  0
 19 20  1  0
 20 21  1  0
 21 22  2  0
 22 23  1  0
 23 24  2  0
 24 25  1  0
 24 26  1  0
 26 27  2  0
 16 28  1  0
 28 29  1  0
 12 30  1  0
  5 31  1  0
 31 32  1  0
 32  2  1  0
 30  9  1  0
 29 13  1  0
 20 17  1  0
 27 21  1  0
M  END
>  <Title>  (388) 
idAAMZgen6

$$$$

     RDKit          2D

 27 30  0  0  0  0  0  0  0  0999 V2000
   -3.5757   -7.5908    0.0000 O   0  0  0  0  0  0  0  0  0  0  0  0
   -2.1491   -7.1273    0.0000 C   0  0  0  0  0  0  0  0  0  0  0  0
   -1.0344   -8.1310    0.0000 N   0  0  0  0  0  0  0  0  0  0  0  0
   -1.3463   -9.5982    0.0000 C   0  0  0  0  0  0  0  0  0  0  0  0
   -0.3426  -10.7129    0.0000 C   0  0  0  0  0  0  0  0  0  0  0  0
   -1.0926  -12.0120    0.0000 C   0  0  0  0  0  0  0  0  0  0  0  0
   -2.5598  -11.7001    0.0000 C   0  0  0  0  0  0  0  0  0  0  0  0
   -2.7166  -10.2083    0.0000 C   0  0  0  0  0  0  0  0  0  0  0  0
   -1.8373   -5.6601    0.0000 O   0  0  0  0  0  0  0  0  0  0  0  0
   -2.9520   -4.6564    0.0000 C   0  0  0  0  0  0  0  0  0  0  0  0
   -4.3786   -5.1199    0.0000 O   0  0  0  0  0  0  0  0  0  0  0  0
   -2.6401   -3.1891    0.0000 C   0  0  0  0  0  0  0  0  0  0  0  0
   -3.7548   -2.1855    0.0000 N   0  0  0  0  0  0  0  0  0  0  0  0
   -5.2220   -2.4973    0.0000 C   0  0  0  0  0  0  0  0  0  0  0  0
   -5.9720   -1.1983    0.0000 C   0  0  0  0  0  0  0  0  0  0  0  0
   -4.9684   -0.0836    0.0000 C   0  0  0  0  0  0  0  0  0  0  0  0
   -5.2802    1.3837    0.0000 O   0  0  0  0  0  0  0  0  0  0  0  0
   -3.5980   -0.6937    0.0000 C   0  0  0  0  0  0  0  0  0  0  0  0
   -1.2135   -2.7256    0.0000 N   0  0  0  0  0  0  0  0  0  0  0  0
   -0.0000   -3.6073    0.0000 C   0  0  0  0  0  0  0  0  0  0  0  0
    1.2135   -2.7256    0.0000 C   0  0  0  0  0  0  0  0  0  0  0  0
    0.7500   -1.2990    0.0000 C   0  0  0  0  0  0  0  0  0  0  0  0
    1.5000    0.0000    0.0000 C   0  0  0  0  0  0  0  0  0  0  0  0
    0.7500    1.2990    0.0000 C   0  0  0  0  0  0  0  0  0  0  0  0
   -0.7500    1.2990    0.0000 C   0  0  0  0  0  0  0  0  0  0  0  0
   -1.5000    0.0000    0.0000 C   0  0  0  0  0  0  0  0  0  0  0  0
   -0.7500   -1.2990    0.0000 C   0  0  0  0  0  0  0  0  0  0  0  0
  1  2  2  0
  2  3  1  0
  3  4  1  0
  4  5  2  0
  5  6  1  0
  6  7  2  0
  7  8  1  0
  2  9  1  0
  9 10  1  0
 10 11  2  0
 10 12  1  0
 12 13  1  0
 13 14  1  0
 14 15  1  0
 15 16  1  0
 16 17  1  0
 16 18  1  0
 12 19  1  0
 19 20  1  0
 20 21  1  0
 21 22  1  0
 22 23  2  0
 23 24  1  0
 24 25  2  0
 25 26  1  0
 26 27  2  0
  8  4  1  0
 18 13  1  0
 27 19  1  0
 27 22  1  0
M  END
>  <Title>  (389) 
idAANAgen6

$$$$

     RDKit          2D

 34 38  0  0  0  0  0  0  0  0999 V2000
   -1.2109    3.4653    0.0000 C   0  0  0  0  0  0  0  0  0  0  0  0
   -0.3252    2.4465    0.0000 C   0  0  0  0  0  0  0  0  0  0  0  0
    1.1564    2.6811    0.0000 C   0  0  0  0  0  0  0  0  0  0  0  0
    2.4929    2.0001    0.0000 C   0  0  0  0  0  0  0  0  0  0  0  0
    3.1739    0.6636    0.0000 C   0  0  0  0  0  0  0  0  0  0  0  0
    2.9392   -0.8179    0.0000 C   0  0  0  0  0  0  0  0  0  0  0  0
    4.2757   -1.4989    0.0000 C   0  0  0  0  0  0  0  0  0  0  0  0
    5.5337   -0.6819    0.0000 O   0  0  0  0  0  0  0  0  0  0  0  0
    4.3542   -2.9968    0.0000 N   0  0  0  0  0  0  0  0  0  0  0  0
    5.6907   -3.6778    0.0000 C   0  0  0  0  0  0  0  0  0  0  0  0
    7.0273   -2.9968    0.0000 N   0  0  0  0  0  0  0  0  0  0  0  0
    8.0879   -4.0575    0.0000 N   0  0  0  0  0  0  0  0  0  0  0  0
    7.4069   -5.3940    0.0000 N   0  0  0  0  0  0  0  0  0  0  0  0
    5.9254   -5.1593    0.0000 N   0  0  0  0  0  0  0  0  0  0  0  0
    4.8647   -6.2200    0.0000 C   0  0  0  0  0  0  0  0  0  0  0  0
    4.4765   -7.6689    0.0000 C   0  0  0  0  0  0  0  0  0  0  0  0
    3.4158   -6.6082    0.0000 C   0  0  0  0  0  0  0  0  0  0  0  0
    1.3858   -1.3858    0.0000 C   0  0  0  0  0  0  0  0  0  0  0  0
    1.2598   -0.0000    0.0000 C   0  0  0  0  0  0  0  0  0  0  0  0
    0.8908    0.8908    0.0000 C   0  0  0  0  0  0  0  0  0  0  0  0
    0.0000    1.2598    0.0000 C   0  0  0  0  0  0  0  0  0  0  0  0
    0.0000    3.4598    0.0000 N   0  0  0  0  0  0  0  0  0  0  0  0
   -1.2990    4.2098    0.0000 C   0  0  0  0  0  0  0  0  0  0  0  0
   -2.5981    3.4598    0.0000 O   0  0  0  0  0  0  0  0  0  0  0  0
   -1.2990    5.7098    0.0000 C   0  0  0  0  0  0  0  0  0  0  0  0
   -2.5126    6.5915    0.0000 C   0  0  0  0  0  0  0  0  0  0  0  0
   -2.0490    8.0181    0.0000 C   0  0  0  0  0  0  0  0  0  0  0  0
   -0.5490    8.0181    0.0000 C   0  0  0  0  0  0  0  0  0  0  0  0
    0.3326    9.2316    0.0000 O   0  0  0  0  0  0  0  0  0  0  0  0
   -0.0855    6.5915    0.0000 N   0  0  0  0  0  0  0  0  0  0  0  0
   -1.3858    1.3858    0.0000 C   0  0  0  0  0  0  0  0  0  0  0  0
   -1.9598    0.0000    0.0000 C   0  0  0  0  0  0  0  0  0  0  0  0
   -1.3858   -1.3858    0.0000 C   0  0  0  0  0  0  0  0  0  0  0  0
   -0.0000   -1.9598    0.0000 C   0  0  0  0  0  0  0  0  0  0  0  0
  1  2  1  0
  2  3  1  0
  3  4  1  0
  4  5  1  0
  5  6  1  0
  6  7  1  0
  7  8  2  0
  7  9  1  0
  9 10  1  0
 10 11  2  0
 11 12  1  0
 12 13  2  0
 13 14  1  0
 14 15  1  0
 15 16  1  0
 16 17  1  0
  6 18  1  0
 18 19  2  0
 19 20  1  0
 20 21  2  0
 21 22  1  0
 22 23  1  0
 23 24  2  0
 23 25  1  0
 25 26  1  0
 26 27  1  0
 27 28  1  0
 28 29  2  0
 28 30  1  0
 21 31  1  0
 31 32  2  0
 32 33  1  0
 33 34  2  0
 31  2  1  0
 14 10  1  0
 17 15  1  0
 34 18  1  0
 30 25  1  0
M  END
>  <Title>  (390) 
idAANBgen6

$$$$

     RDKit          2D

 20 21  0  0  0  0  0  0  0  0999 V2000
    0.7500   -6.4952    0.0000 C   0  0  0  0  0  0  0  0  0  0  0  0
    1.5000   -5.1962    0.0000 C   0  0  0  0  0  0  0  0  0  0  0  0
    3.0000   -5.1962    0.0000 O   0  0  0  0  0  0  0  0  0  0  0  0
    0.7500   -3.8971    0.0000 C   0  0  0  0  0  0  0  0  0  0  0  0
    1.5000   -2.5981    0.0000 C   0  0  0  0  0  0  0  0  0  0  0  0
    0.7500   -1.2990    0.0000 C   0  0  0  0  0  0  0  0  0  0  0  0
    1.5000    0.0000    0.0000 C   0  0  0  0  0  0  0  0  0  0  0  0
    0.7500    1.2990    0.0000 C   0  0  0  0  0  0  0  0  0  0  0  0
   -0.7500    1.2990    0.0000 C   0  0  0  0  0  0  0  0  0  0  0  0
   -1.5000    0.0000    0.0000 C   0  0  0  0  0  0  0  0  0  0  0  0
   -0.7500   -1.2990    0.0000 C   0  0  0  0  0  0  0  0  0  0  0  0
   -0.7500   -3.8971    0.0000 N   0  0  0  0  0  0  0  0  0  0  0  0
   -1.5000   -5.1962    0.0000 C   0  0  0  0  0  0  0  0  0  0  0  0
   -0.7500   -6.4952    0.0000 O   0  0  0  0  0  0  0  0  0  0  0  0
   -3.0000   -5.1962    0.0000 C   0  0  0  0  0  0  0  0  0  0  0  0
   -3.8817   -6.4097    0.0000 C   0  0  0  0  0  0  0  0  0  0  0  0
   -5.3083   -5.9462    0.0000 C   0  0  0  0  0  0  0  0  0  0  0  0
   -5.3083   -4.4462    0.0000 C   0  0  0  0  0  0  0  0  0  0  0  0
   -6.5218   -3.5645    0.0000 O   0  0  0  0  0  0  0  0  0  0  0  0
   -3.8817   -3.9826    0.0000 N   0  0  0  0  0  0  0  0  0  0  0  0
  1  2  1  0
  2  3  2  0
  2  4  1  0
  4  5  1  0
  5  6  1  0
  6  7  2  0
  7  8  1  0
  8  9  2  0
  9 10  1  0
 10 11  2  0
  4 12  1  0
 12 13  1  0
 13 14  2  0
 13 15  1  0
 15 16  1  0
 16 17  1  0
 17 18  1  0
 18 19  2  0
 18 20  1  0
 11  6  1  0
 20 15  1  0
M  END
>  <Title>  (391) 
idAANCgen6

$$$$

     RDKit          2D

 34 36  0  0  0  0  0  0  0  0999 V2000
    0.7500   -9.0933    0.0000 C   0  0  0  0  0  0  0  0  0  0  0  0
    1.5000   -7.7942    0.0000 C   0  0  0  0  0  0  0  0  0  0  0  0
    3.0000   -7.7942    0.0000 O   0  0  0  0  0  0  0  0  0  0  0  0
    0.7500   -6.4952    0.0000 O   0  0  0  0  0  0  0  0  0  0  0  0
    1.5000   -5.1962    0.0000 C   0  0  0  0  0  0  0  0  0  0  0  0
    3.0000   -5.1962    0.0000 O   0  0  0  0  0  0  0  0  0  0  0  0
    0.7500   -3.8971    0.0000 C   0  0  0  0  0  0  0  0  0  0  0  0
    1.5000   -2.5981    0.0000 C   0  0  0  0  0  0  0  0  0  0  0  0
    0.7500   -1.2990    0.0000 C   0  0  0  0  0  0  0  0  0  0  0  0
    1.5000    0.0000    0.0000 C   0  0  0  0  0  0  0  0  0  0  0  0
    0.7500    1.2990    0.0000 C   0  0  0  0  0  0  0  0  0  0  0  0
   -0.7500    1.2990    0.0000 C   0  0  0  0  0  0  0  0  0  0  0  0
   -1.5000    0.0000    0.0000 C   0  0  0  0  0  0  0  0  0  0  0  0
   -0.7500   -1.2990    0.0000 C   0  0  0  0  0  0  0  0  0  0  0  0
   -0.7500   -3.8971    0.0000 N   0  0  0  0  0  0  0  0  0  0  0  0
   -1.5000   -5.1962    0.0000 C   0  0  0  0  0  0  0  0  0  0  0  0
   -0.7500   -6.4952    0.0000 O   0  0  0  0  0  0  0  0  0  0  0  0
   -3.0000   -5.1962    0.0000 C   0  0  0  0  0  0  0  0  0  0  0  0
   -3.7500   -6.4952    0.0000 C   0  0  0  0  0  0  0  0  0  0  0  0
   -5.2500   -6.4952    0.0000 C   0  0  0  0  0  0  0  0  0  0  0  0
   -6.0000   -5.1962    0.0000 C   0  0  0  0  0  0  0  0  0  0  0  0
   -7.5000   -5.1962    0.0000 C   0  0  0  0  0  0  0  0  0  0  0  0
   -8.2500   -6.4952    0.0000 C   0  0  0  0  0  0  0  0  0  0  0  0
   -7.5000   -7.7942    0.0000 C   0  0  0  0  0  0  0  0  0  0  0  0
   -6.0000   -7.7942    0.0000 C   0  0  0  0  0  0  0  0  0  0  0  0
   -3.7500   -3.8971    0.0000 N   0  0  0  0  0  0  0  0  0  0  0  0
   -5.2418   -3.7403    0.0000 C   0  0  0  0  0  0  0  0  0  0  0  0
   -5.5537   -2.2731    0.0000 C   0  0  0  0  0  0  0  0  0  0  0  0
   -4.2546   -1.5231    0.0000 C   0  0  0  0  0  0  0  0  0  0  0  0
   -4.0978   -0.0313    0.0000 C   0  0  0  0  0  0  0  0  0  0  0  0
   -2.7275    0.5788    0.0000 O   0  0  0  0  0  0  0  0  0  0  0  0
   -5.3113    0.8504    0.0000 O   0  0  0  0  0  0  0  0  0  0  0  0
   -3.1399   -2.5268    0.0000 C   0  0  0  0  0  0  0  0  0  0  0  0
   -1.6727   -2.2149    0.0000 O   0  0  0  0  0  0  0  0  0  0  0  0
  1  2  1  0
  2  3  2  0
  2  4  1  0
  4  5  1  0
  5  6  2  0
  5  7  1  0
  7  8  1  0
  8  9  1  0
  9 10  2  0
 10 11  1  0
 11 12  2  0
 12 13  1  0
 13 14  2  0
  7 15  1  0
 15 16  1  0
 16 17  2  0
 16 18  1  0
 18 19  1  0
 19 20  1  0
 20 21  2  0
 21 22  1  0
 22 23  2  0
 23 24  1  0
 24 25  2  0
 18 26  1  0
 26 27  1  0
 27 28  1  0
 28 29  1  0
 29 30  1  0
 30 31  2  0
 30 32  1  0
 29 33  1  0
 33 34  2  0
 14  9  1  0
 25 20  1  0
 33 26  1  0
M  END
>  <Title>  (392) 
idAANDgen6

$$$$

     RDKit          2D

 14 15  0  0  0  0  0  0  0  0999 V2000
   -5.2500   -3.8971    0.0000 C   0  0  0  0  0  0  0  0  0  0  0  0
   -3.7500   -3.8971    0.0000 C   0  0  0  0  0  0  0  0  0  0  0  0
   -3.0000   -5.1962    0.0000 O   0  0  0  0  0  0  0  0  0  0  0  0
   -3.0000   -2.5981    0.0000 N   0  0  0  0  0  0  0  0  0  0  0  0
   -1.5000   -2.5981    0.0000 C   0  0  0  0  0  0  0  0  0  0  0  0
   -0.7500   -3.8971    0.0000 N   0  0  0  0  0  0  0  0  0  0  0  0
    0.7500   -3.8971    0.0000 N   0  0  0  0  0  0  0  0  0  0  0  0
    1.5000   -2.5981    0.0000 N   0  0  0  0  0  0  0  0  0  0  0  0
    0.7500   -1.2990    0.0000 C   0  0  0  0  0  0  0  0  0  0  0  0
    1.5000    0.0000    0.0000 C   0  0  0  0  0  0  0  0  0  0  0  0
    0.7500    1.2990    0.0000 C   0  0  0  0  0  0  0  0  0  0  0  0
   -0.7500    1.2990    0.0000 C   0  0  0  0  0  0  0  0  0  0  0  0
   -1.5000    0.0000    0.0000 C   0  0  0  0  0  0  0  0  0  0  0  0
   -0.7500   -1.2990    0.0000 C   0  0  0  0  0  0  0  0  0  0  0  0
  1  2  1  0
  2  3  2  0
  2  4  1  0
  4  5  1  0
  5  6  2  0
  6  7  1  0
  7  8  2  0
  8  9  1  0
  9 10  2  0
 10 11  1  0
 11 12  2  0
 12 13  1  0
 13 14  2  0
 14  5  1  0
 14  9  1  0
M  END
>  <Title>  (393) 
idAANEgen6

$$$$

     RDKit          2D

 33 36  0  0  0  0  0  0  0  0999 V2000
   -0.0000   -8.0154    0.0000 C   0  0  0  0  0  0  0  0  0  0  0  0
   -0.0000   -6.5154    0.0000 C   0  0  0  0  0  0  0  0  0  0  0  0
    1.4392   -6.0928    0.0000 C   0  0  0  0  0  0  0  0  0  0  0  0
    2.4215   -4.9592    0.0000 C   0  0  0  0  0  0  0  0  0  0  0  0
    2.6350   -3.4744    0.0000 C   0  0  0  0  0  0  0  0  0  0  0  0
    4.1197   -3.2610    0.0000 O   0  0  0  0  0  0  0  0  0  0  0  0
    2.0119   -2.1100    0.0000 N   0  0  0  0  0  0  0  0  0  0  0  0
    0.7500   -1.2990    0.0000 C   0  0  0  0  0  0  0  0  0  0  0  0
    1.5000    0.0000    0.0000 C   0  0  0  0  0  0  0  0  0  0  0  0
    0.7500    1.2990    0.0000 C   0  0  0  0  0  0  0  0  0  0  0  0
    1.5000    2.5981    0.0000 C   0  0  0  0  0  0  0  0  0  0  0  0
    3.0000    2.5981    0.0000 C   0  0  0  0  0  0  0  0  0  0  0  0
    3.7500    3.8971    0.0000 C   0  0  0  0  0  0  0  0  0  0  0  0
    3.0000    5.1962    0.0000 C   0  0  0  0  0  0  0  0  0  0  0  0
    1.5000    5.1962    0.0000 C   0  0  0  0  0  0  0  0  0  0  0  0
    0.7500    3.8971    0.0000 C   0  0  0  0  0  0  0  0  0  0  0  0
   -0.7500    1.2990    0.0000 C   0  0  0  0  0  0  0  0  0  0  0  0
   -1.5000    2.5981    0.0000 O   0  0  0  0  0  0  0  0  0  0  0  0
   -1.5000    0.0000    0.0000 N   0  0  0  0  0  0  0  0  0  0  0  0
   -0.7500   -1.2990    0.0000 C   0  0  0  0  0  0  0  0  0  0  0  0
   -2.0119   -2.1100    0.0000 C   0  0  0  0  0  0  0  0  0  0  0  0
   -2.6350   -3.4744    0.0000 C   0  0  0  0  0  0  0  0  0  0  0  0
   -2.4215   -4.9592    0.0000 C   0  0  0  0  0  0  0  0  0  0  0  0
   -3.7860   -5.5823    0.0000 O   0  0  0  0  0  0  0  0  0  0  0  0
   -5.0078   -4.7122    0.0000 C   0  0  0  0  0  0  0  0  0  0  0  0
   -4.8653   -3.2190    0.0000 C   0  0  0  0  0  0  0  0  0  0  0  0
   -6.0871   -2.3489    0.0000 C   0  0  0  0  0  0  0  0  0  0  0  0
   -7.4516   -2.9720    0.0000 C   0  0  0  0  0  0  0  0  0  0  0  0
   -7.5942   -4.4653    0.0000 C   0  0  0  0  0  0  0  0  0  0  0  0
   -6.3723   -5.3353    0.0000 C   0  0  0  0  0  0  0  0  0  0  0  0
   -6.5149   -6.8285    0.0000 O   0  0  0  0  0  0  0  0  0  0  0  0
   -1.4392   -6.0928    0.0000 C   0  0  0  0  0  0  0  0  0  0  0  0
   -2.2502   -7.3547    0.0000 O   0  0  0  0  0  0  0  0  0  0  0  0
  1  2  1  0
  2  3  1  0
  3  4  2  0
  4  5  1  0
  5  6  2  0
  5  7  1  0
  7  8  1  0
  8  9  2  0
  9 10  1  0
 10 11  1  0
 11 12  2  0
 12 13  1  0
 13 14  2  0
 14 15  1  0
 15 16  2  0
 10 17  1  0
 17 18  2  0
 17 19  1  0
 19 20  1  0
 20 21  2  0
 21 22  1  0
 22 23  2  0
 23 24  1  0
 24 25  1  0
 25 26  2  0
 26 27  1  0
 27 28  2  0
 28 29  1  0
 29 30  2  0
 30 31  1  0
 23 32  1  0
 32 33  2  0
 32  2  1  0
 20  8  1  0
 30 25  1  0
 16 11  1  0
M  END
>  <Title>  (394) 
idAANFgen6

$$$$

     RDKit          2D

 24 26  0  0  0  0  0  0  0  0999 V2000
   -3.0000   -5.1962    0.0000 N   0  0  0  0  0  0  0  0  0  0  0  0
   -3.7500   -3.8971    0.0000 C   0  0  0  0  0  0  0  0  0  0  0  0
   -5.2500   -3.8971    0.0000 N   0  0  0  0  0  0  0  0  0  0  0  0
   -3.0000   -2.5981    0.0000 C   0  0  0  0  0  0  0  0  0  0  0  0
   -3.7500   -1.2990    0.0000 O   0  0  0  0  0  0  0  0  0  0  0  0
   -1.5000   -2.5981    0.0000 N   0  0  0  0  0  0  0  0  0  0  0  0
   -0.7500   -3.8971    0.0000 C   0  0  0  0  0  0  0  0  0  0  0  0
    0.7500   -3.8971    0.0000 C   0  0  0  0  0  0  0  0  0  0  0  0
    1.5000   -2.5981    0.0000 C   0  0  0  0  0  0  0  0  0  0  0  0
    3.0000   -2.5981    0.0000 C   0  0  0  0  0  0  0  0  0  0  0  0
    3.7500   -1.2990    0.0000 O   0  0  0  0  0  0  0  0  0  0  0  0
    3.7500   -3.8971    0.0000 N   0  0  0  0  0  0  0  0  0  0  0  0
    5.2500   -3.8971    0.0000 C   0  0  0  0  0  0  0  0  0  0  0  0
    6.0000   -5.1962    0.0000 N   0  0  0  0  0  0  0  0  0  0  0  0
    7.5000   -5.1962    0.0000 N   0  0  0  0  0  0  0  0  0  0  0  0
    8.2500   -3.8971    0.0000 N   0  0  0  0  0  0  0  0  0  0  0  0
    7.5000   -2.5981    0.0000 N   0  0  0  0  0  0  0  0  0  0  0  0
    6.0000   -2.5981    0.0000 N   0  0  0  0  0  0  0  0  0  0  0  0
    0.7500   -1.2990    0.0000 C   0  0  0  0  0  0  0  0  0  0  0  0
    1.5000    0.0000    0.0000 C   0  0  0  0  0  0  0  0  0  0  0  0
    0.7500    1.2990    0.0000 C   0  0  0  0  0  0  0  0  0  0  0  0
   -0.7500    1.2990    0.0000 C   0  0  0  0  0  0  0  0  0  0  0  0
   -1.5000    0.0000    0.0000 C   0  0  0  0  0  0  0  0  0  0  0  0
   -0.7500   -1.2990    0.0000 C   0  0  0  0  0  0  0  0  0  0  0  0
  1  2  2  0
  2  3  1  0
  2  4  1  0
  4  5  2  0
  4  6  1  0
  6  7  1  0
  7  8  1  0
  8  9  1  0
  9 10  1  0
 10 11  2  0
 10 12  1  0
 12 13  1  0
 13 14  2  0
 14 15  1  0
 15 16  2  0
 16 17  1  0
 17 18  2  0
  9 19  1  0
 19 20  2  0
 20 21  1  0
 21 22  2  0
 22 23  1  0
 23 24  2  0
 24  6  1  0
 18 13  1  0
 24 19  1  0
M  END
>  <Title>  (395) 
idAANGgen6

$$$$

     RDKit          2D

 15 16  0  0  0  0  0  0  0  0999 V2000
    3.0000    0.0000    0.0000 O   0  0  0  0  0  0  0  0  0  0  0  0
    1.5000    0.0000    0.0000 C   0  0  0  0  0  0  0  0  0  0  0  0
    0.7500   -1.2990    0.0000 C   0  0  0  0  0  0  0  0  0  0  0  0
   -0.7500   -1.2990    0.0000 C   0  0  0  0  0  0  0  0  0  0  0  0
   -1.5000    0.0000    0.0000 C   0  0  0  0  0  0  0  0  0  0  0  0
   -3.0000    0.0000    0.0000 C   0  0  0  0  0  0  0  0  0  0  0  0
   -3.7500    1.2990    0.0000 C   0  0  0  0  0  0  0  0  0  0  0  0
   -3.0000    2.5981    0.0000 C   0  0  0  0  0  0  0  0  0  0  0  0
   -3.7500    3.8971    0.0000 C   0  0  0  0  0  0  0  0  0  0  0  0
   -4.5000    5.1962    0.0000 F   0  0  0  0  0  0  0  0  0  0  0  0
   -2.4510    4.6471    0.0000 F   0  0  0  0  0  0  0  0  0  0  0  0
   -5.0490    3.1471    0.0000 F   0  0  0  0  0  0  0  0  0  0  0  0
   -1.5000    2.5981    0.0000 C   0  0  0  0  0  0  0  0  0  0  0  0
   -0.7500    1.2990    0.0000 C   0  0  0  0  0  0  0  0  0  0  0  0
    0.7500    1.2990    0.0000 C   0  0  0  0  0  0  0  0  0  0  0  0
  1  2  1  0
  2  3  2  0
  3  4  1  0
  4  5  2  0
  5  6  1  0
  6  7  2  0
  7  8  1  0
  8  9  1  0
  9 10  1  0
  9 11  1  0
  9 12  1  0
  8 13  2  0
 13 14  1  0
 14 15  2  0
 15  2  1  0
 14  5  1  0
M  END
>  <Title>  (396) 
idAANHgen6

$$$$

     RDKit          2D

  9  9  0  0  0  0  0  0  0  0999 V2000
    3.7500   -1.2990    0.0000 C   0  0  0  0  0  0  0  0  0  0  0  0
    3.0000    0.0000    0.0000 O   0  0  0  0  0  0  0  0  0  0  0  0
    1.5000    0.0000    0.0000 C   0  0  0  0  0  0  0  0  0  0  0  0
    0.7500   -1.2990    0.0000 C   0  0  0  0  0  0  0  0  0  0  0  0
   -0.7500   -1.2990    0.0000 C   0  0  0  0  0  0  0  0  0  0  0  0
   -1.5000    0.0000    0.0000 C   0  0  0  0  0  0  0  0  0  0  0  0
   -3.0000    0.0000    0.0000 C   0  0  0  0  0  0  0  0  0  0  0  0
   -0.7500    1.2990    0.0000 C   0  0  0  0  0  0  0  0  0  0  0  0
    0.7500    1.2990    0.0000 C   0  0  0  0  0  0  0  0  0  0  0  0
  1  2  1  0
  2  3  1  0
  3  4  2  0
  4  5  1  0
  5  6  2  0
  6  7  1  0
  6  8  1  0
  8  9  1  0
  9  3  1  0
M  END
>  <Title>  (397) 
idAANIgen6

$$$$

     RDKit          2D

 46 52  0  0  0  0  0  0  0  0999 V2000
   -3.1476   -2.1380    0.0000 C   0  0  0  0  0  0  0  0  0  0  0  0
   -1.6852   -2.4718    0.0000 C   0  0  0  0  0  0  0  0  0  0  0  0
   -1.3515   -3.9342    0.0000 C   0  0  0  0  0  0  0  0  0  0  0  0
   -0.0000   -4.5850    0.0000 C   0  0  0  0  0  0  0  0  0  0  0  0
    1.3515   -3.9342    0.0000 C   0  0  0  0  0  0  0  0  0  0  0  0
    1.6852   -2.4718    0.0000 C   0  0  0  0  0  0  0  0  0  0  0  0
    3.1476   -2.1380    0.0000 C   0  0  0  0  0  0  0  0  0  0  0  0
    3.5898   -0.7046    0.0000 O   0  0  0  0  0  0  0  0  0  0  0  0
    4.1679   -3.2376    0.0000 N   0  0  0  0  0  0  0  0  0  0  0  0
    5.6303   -2.9038    0.0000 C   0  0  0  0  0  0  0  0  0  0  0  0
    6.2198   -1.5245    0.0000 N   0  0  0  0  0  0  0  0  0  0  0  0
    7.7138   -1.6590    0.0000 N   0  0  0  0  0  0  0  0  0  0  0  0
    8.0476   -3.1214    0.0000 N   0  0  0  0  0  0  0  0  0  0  0  0
    6.7599   -3.8907    0.0000 N   0  0  0  0  0  0  0  0  0  0  0  0
    6.6254   -5.3847    0.0000 C   0  0  0  0  0  0  0  0  0  0  0  0
    5.2644   -6.0152    0.0000 C   0  0  0  0  0  0  0  0  0  0  0  0
    5.1299   -7.5092    0.0000 C   0  0  0  0  0  0  0  0  0  0  0  0
    6.3565   -8.3726    0.0000 C   0  0  0  0  0  0  0  0  0  0  0  0
    7.7175   -7.7421    0.0000 C   0  0  0  0  0  0  0  0  0  0  0  0
    7.8520   -6.2481    0.0000 C   0  0  0  0  0  0  0  0  0  0  0  0
    9.2130   -5.6176    0.0000 C   0  0  0  0  0  0  0  0  0  0  0  0
    9.3475   -4.1236    0.0000 C   0  0  0  0  0  0  0  0  0  0  0  0
   10.7085   -3.4931    0.0000 C   0  0  0  0  0  0  0  0  0  0  0  0
   11.9351   -4.3565    0.0000 C   0  0  0  0  0  0  0  0  0  0  0  0
   11.8007   -5.8504    0.0000 C   0  0  0  0  0  0  0  0  0  0  0  0
   10.4396   -6.4810    0.0000 C   0  0  0  0  0  0  0  0  0  0  0  0
   10.3052   -7.9749    0.0000 C   0  0  0  0  0  0  0  0  0  0  0  0
    9.0175   -8.7443    0.0000 C   0  0  0  0  0  0  0  0  0  0  0  0
    9.3513  -10.2067    0.0000 C   0  0  0  0  0  0  0  0  0  0  0  0
   10.8452  -10.3411    0.0000 C   0  0  0  0  0  0  0  0  0  0  0  0
   11.6146  -11.6288    0.0000 C   0  0  0  0  0  0  0  0  0  0  0  0
   13.1144  -11.6064    0.0000 C   0  0  0  0  0  0  0  0  0  0  0  0
   13.8838  -12.8941    0.0000 C   0  0  0  0  0  0  0  0  0  0  0  0
   13.1533  -14.2042    0.0000 C   0  0  0  0  0  0  0  0  0  0  0  0
   11.6534  -14.2266    0.0000 C   0  0  0  0  0  0  0  0  0  0  0  0
   10.8841  -12.9389    0.0000 C   0  0  0  0  0  0  0  0  0  0  0  0
   11.4348   -8.9619    0.0000 C   0  0  0  0  0  0  0  0  0  0  0  0
   12.8972   -8.6281    0.0000 O   0  0  0  0  0  0  0  0  0  0  0  0
    0.7500   -1.2990    0.0000 C   0  0  0  0  0  0  0  0  0  0  0  0
    1.5000    0.0000    0.0000 C   0  0  0  0  0  0  0  0  0  0  0  0
    0.7500    1.2990    0.0000 C   0  0  0  0  0  0  0  0  0  0  0  0
   -0.7500    1.2990    0.0000 C   0  0  0  0  0  0  0  0  0  0  0  0
   -1.5000    2.5981    0.0000 C   0  0  0  0  0  0  0  0  0  0  0  0
   -2.2500    3.8971    0.0000 N   0  0  0  0  0  0  0  0  0  0  0  0
   -1.5000    0.0000    0.0000 C   0  0  0  0  0  0  0  0  0  0  0  0
   -0.7500   -1.2990    0.0000 C   0  0  0  0  0  0  0  0  0  0  0  0
  1  2  1  0
  2  3  1  0
  3  4  2  0
  4  5  1  0
  5  6  1  0
  6  7  1  0
  7  8  2  0
  7  9  1  0
  9 10  1  0
 10 11  2  0
 11 12  1  0
 12 13  2  0
 13 14  1  0
 14 15  1  0
 15 16  2  0
 16 17  1  0
 17 18  2  0
 18 19  1  0
 19 20  2  0
 20 21  1  0
 21 22  2  0
 22 23  1  0
 23 24  2  0
 24 25  1  0
 25 26  2  0
 26 27  1  0
 27 28  2  0
 28 29  1  0
 29 30  2  0
 30 31  1  0
 31 32  2  0
 32 33  1  0
 33 34  2  0
 34 35  1  0
 35 36  2  0
 30 37  1  0
 37 38  2  0
  6 39  1  0
 39 40  2  0
 40 41  1  0
 41 42  2  0
 42 43  1  0
 43 44  3  0
 42 45  1  0
 45 46  2  0
 46  2  1  0
 14 10  1  0
 20 15  1  0
 26 21  1  0
 37 27  1  0
 46 39  1  0
 36 31  1  0
M  END
>  <Title>  (398) 
idAANJgen6

$$$$

     RDKit          2D

 17 18  0  0  0  0  0  0  0  0999 V2000
    3.2286   -0.0000    0.0000 C   0  0  0  0  0  0  0  0  0  0  0  0
    1.7286    0.0000    0.0000 C   0  0  0  0  0  0  0  0  0  0  0  0
    1.0777    1.3515    0.0000 C   0  0  0  0  0  0  0  0  0  0  0  0
   -0.3846    1.6852    0.0000 C   0  0  0  0  0  0  0  0  0  0  0  0
   -1.5574    0.7500    0.0000 C   0  0  0  0  0  0  0  0  0  0  0  0
   -1.5574   -0.7500    0.0000 C   0  0  0  0  0  0  0  0  0  0  0  0
   -2.9088   -1.4008    0.0000 C   0  0  0  0  0  0  0  0  0  0  0  0
   -3.0209   -2.8966    0.0000 O   0  0  0  0  0  0  0  0  0  0  0  0
   -4.1482   -0.5558    0.0000 N   0  0  0  0  0  0  0  0  0  0  0  0
   -5.4997   -1.2067    0.0000 C   0  0  0  0  0  0  0  0  0  0  0  0
   -6.7390   -0.3617    0.0000 N   0  0  0  0  0  0  0  0  0  0  0  0
   -8.0905   -1.0125    0.0000 N   0  0  0  0  0  0  0  0  0  0  0  0
   -8.2026   -2.5083    0.0000 N   0  0  0  0  0  0  0  0  0  0  0  0
   -6.9632   -3.3533    0.0000 N   0  0  0  0  0  0  0  0  0  0  0  0
   -5.6118   -2.7025    0.0000 N   0  0  0  0  0  0  0  0  0  0  0  0
   -0.3846   -1.6852    0.0000 C   0  0  0  0  0  0  0  0  0  0  0  0
    1.0777   -1.3515    0.0000 C   0  0  0  0  0  0  0  0  0  0  0  0
  1  2  1  0
  2  3  1  0
  3  4  2  0
  4  5  1  0
  5  6  1  0
  6  7  1  0
  7  8  2  0
  7  9  1  0
  9 10  1  0
 10 11  2  0
 11 12  1  0
 12 13  2  0
 13 14  1  0
 14 15  2  0
  6 16  1  0
 16 17  1  0
 17  2  1  0
 15 10  1  0
M  END
>  <Title>  (399) 
idAANKgen6

$$$$

     RDKit          2D

 32 36  0  0  0  0  0  0  0  0999 V2000
   -0.7500   -3.8971    0.0000 O   0  0  0  0  0  0  0  0  0  0  0  0
    0.7500   -3.8971    0.0000 C   0  0  0  0  0  0  0  0  0  0  0  0
    1.5000   -2.5981    0.0000 N   0  0  0  0  0  0  0  0  0  0  0  0
    0.7500   -1.2990    0.0000 C   0  0  0  0  0  0  0  0  0  0  0  0
    1.5000    0.0000    0.0000 C   0  0  0  0  0  0  0  0  0  0  0  0
    0.7500    1.2990    0.0000 C   0  0  0  0  0  0  0  0  0  0  0  0
   -0.7500    1.2990    0.0000 C   0  0  0  0  0  0  0  0  0  0  0  0
   -1.5000    0.0000    0.0000 C   0  0  0  0  0  0  0  0  0  0  0  0
   -0.7500   -1.2990    0.0000 C   0  0  0  0  0  0  0  0  0  0  0  0
    1.5000   -5.1962    0.0000 N   0  0  0  0  0  0  0  0  0  0  0  0
    0.7500   -6.4952    0.0000 C   0  0  0  0  0  0  0  0  0  0  0  0
    1.5000   -7.7942    0.0000 C   0  0  0  0  0  0  0  0  0  0  0  0
    3.0000   -7.7942    0.0000 C   0  0  0  0  0  0  0  0  0  0  0  0
    3.7500   -9.0933    0.0000 N   0  0  0  0  0  0  0  0  0  0  0  0
    3.0000  -10.3923    0.0000 C   0  0  0  0  0  0  0  0  0  0  0  0
    3.7500  -11.6913    0.0000 C   0  0  0  0  0  0  0  0  0  0  0  0
    5.2500  -11.6913    0.0000 C   0  0  0  0  0  0  0  0  0  0  0  0
    6.0000  -12.9904    0.0000 N   0  0  0  0  0  0  0  0  0  0  0  0
    7.4918  -13.1472    0.0000 C   0  0  0  0  0  0  0  0  0  0  0  0
    7.8037  -14.6144    0.0000 C   0  0  0  0  0  0  0  0  0  0  0  0
    6.5046  -15.3644    0.0000 C   0  0  0  0  0  0  0  0  0  0  0  0
    6.3478  -16.8562    0.0000 C   0  0  0  0  0  0  0  0  0  0  0  0
    4.9775  -17.4663    0.0000 C   0  0  0  0  0  0  0  0  0  0  0  0
    4.8207  -18.9581    0.0000 C   0  0  0  0  0  0  0  0  0  0  0  0
    6.0342  -19.8397    0.0000 C   0  0  0  0  0  0  0  0  0  0  0  0
    7.4046  -19.2296    0.0000 C   0  0  0  0  0  0  0  0  0  0  0  0
    7.5613  -17.7379    0.0000 C   0  0  0  0  0  0  0  0  0  0  0  0
    5.3899  -14.3607    0.0000 C   0  0  0  0  0  0  0  0  0  0  0  0
    6.0000  -10.3923    0.0000 C   0  0  0  0  0  0  0  0  0  0  0  0
    5.2500   -9.0933    0.0000 C   0  0  0  0  0  0  0  0  0  0  0  0
    3.7500   -6.4952    0.0000 C   0  0  0  0  0  0  0  0  0  0  0  0
    3.0000   -5.1962    0.0000 C   0  0  0  0  0  0  0  0  0  0  0  0
  1  2  2  0
  2  3  1  0
  3  4  1  0
  4  5  2  0
  5  6  1  0
  6  7  2  0
  7  8  1  0
  8  9  2  0
  2 10  1  0
 10 11  1  0
 11 12  1  0
 12 13  1  0
 13 14  1  0
 14 15  1  0
 15 16  1  0
 16 17  1  0
 17 18  1  0
 18 19  1  0
 19 20  1  0
 20 21  1  0
 21 22  1  0
 22 23  2  0
 23 24  1  0
 24 25  2  0
 25 26  1  0
 26 27  2  0
 21 28  1  0
 17 29  1  0
 29 30  1  0
 13 31  1  0
 31 32  1  0
  9  4  1  0
 32 10  1  0
 30 14  1  0
 28 18  1  0
 27 22  1  0
M  END
>  <Title>  (400) 
idAANLgen6

$$$$

     RDKit          2D

 10 10  0  0  0  0  0  0  0  0999 V2000
    7.5000    0.0000    0.0000 N   0  0  0  0  0  0  0  0  0  0  0  0
    6.0000    0.0000    0.0000 C   0  0  0  0  0  0  0  0  0  0  0  0
    4.5000    0.0000    0.0000 C   0  0  0  0  0  0  0  0  0  0  0  0
    3.0000    0.0000    0.0000 C   0  0  0  0  0  0  0  0  0  0  0  0
    1.5000    0.0000    0.0000 C   0  0  0  0  0  0  0  0  0  0  0  0
    0.7500   -1.2990    0.0000 C   0  0  0  0  0  0  0  0  0  0  0  0
   -0.7500   -1.2990    0.0000 C   0  0  0  0  0  0  0  0  0  0  0  0
   -1.5000    0.0000    0.0000 C   0  0  0  0  0  0  0  0  0  0  0  0
   -0.7500    1.2990    0.0000 C   0  0  0  0  0  0  0  0  0  0  0  0
    0.7500    1.2990    0.0000 C   0  0  0  0  0  0  0  0  0  0  0  0
  1  2  3  0
  2  3  1  0
  3  4  3  0
  4  5  1  0
  5  6  2  0
  6  7  1  0
  7  8  2  0
  8  9  1  0
  9 10  2  0
 10  5  1  0
M  END
>  <Title>  (401) 
idAANMgen6

$$$$

     RDKit          2D

 25 28  0  0  0  0  0  0  0  0999 V2000
   -0.0000   -6.0850    0.0000 C   0  0  0  0  0  0  0  0  0  0  0  0
   -0.0000   -4.5850    0.0000 C   0  0  0  0  0  0  0  0  0  0  0  0
    1.3515   -3.9342    0.0000 C   0  0  0  0  0  0  0  0  0  0  0  0
    1.6852   -2.4718    0.0000 C   0  0  0  0  0  0  0  0  0  0  0  0
    3.1476   -2.1380    0.0000 C   0  0  0  0  0  0  0  0  0  0  0  0
    3.5898   -0.7046    0.0000 O   0  0  0  0  0  0  0  0  0  0  0  0
    4.1679   -3.2376    0.0000 N   0  0  0  0  0  0  0  0  0  0  0  0
    5.6303   -2.9038    0.0000 C   0  0  0  0  0  0  0  0  0  0  0  0
    6.6505   -4.0034    0.0000 N   0  0  0  0  0  0  0  0  0  0  0  0
    8.1129   -3.6696    0.0000 N   0  0  0  0  0  0  0  0  0  0  0  0
    8.5551   -2.2362    0.0000 N   0  0  0  0  0  0  0  0  0  0  0  0
    7.5348   -1.1367    0.0000 N   0  0  0  0  0  0  0  0  0  0  0  0
    6.0724   -1.4704    0.0000 N   0  0  0  0  0  0  0  0  0  0  0  0
    0.7500   -1.2990    0.0000 C   0  0  0  0  0  0  0  0  0  0  0  0
    1.5000    0.0000    0.0000 C   0  0  0  0  0  0  0  0  0  0  0  0
    0.7500    1.2990    0.0000 C   0  0  0  0  0  0  0  0  0  0  0  0
   -0.7500    1.2990    0.0000 C   0  0  0  0  0  0  0  0  0  0  0  0
   -1.5000    0.0000    0.0000 C   0  0  0  0  0  0  0  0  0  0  0  0
   -0.7500   -1.2990    0.0000 C   0  0  0  0  0  0  0  0  0  0  0  0
   -1.6852   -2.4718    0.0000 C   0  0  0  0  0  0  0  0  0  0  0  0
   -3.1186   -2.0297    0.0000 C   0  0  0  0  0  0  0  0  0  0  0  0
   -4.2182   -3.0499    0.0000 C   0  0  0  0  0  0  0  0  0  0  0  0
   -3.8844   -4.5123    0.0000 C   0  0  0  0  0  0  0  0  0  0  0  0
   -2.4510   -4.9544    0.0000 C   0  0  0  0  0  0  0  0  0  0  0  0
   -1.3515   -3.9342    0.0000 C   0  0  0  0  0  0  0  0  0  0  0  0
  1  2  1  0
  2  3  1  0
  3  4  2  0
  4  5  1  0
  5  6  2  0
  5  7  1  0
  7  8  1  0
  8  9  2  0
  9 10  1  0
 10 11  2  0
 11 12  1  0
 12 13  2  0
  4 14  1  0
 14 15  2  0
 15 16  1  0
 16 17  2  0
 17 18  1  0
 18 19  2  0
 19 20  1  0
 20 21  2  0
 21 22  1  0
 22 23  2  0
 23 24  1  0
 24 25  2  0
 25  2  1  0
 13  8  1  0
 19 14  1  0
 25 20  1  0
M  END
>  <Title>  (402) 
idAANNgen6

$$$$

     RDKit          2D

 10 10  0  0  0  0  0  0  0  0999 V2000
    5.2500   -1.2990    0.0000 O   0  0  0  0  0  0  0  0  0  0  0  0
    3.7500   -1.2990    0.0000 C   0  0  0  0  0  0  0  0  0  0  0  0
    3.0000    0.0000    0.0000 C   0  0  0  0  0  0  0  0  0  0  0  0
    3.7500    1.2990    0.0000 O   0  0  0  0  0  0  0  0  0  0  0  0
    1.5000    0.0000    0.0000 C   0  0  0  0  0  0  0  0  0  0  0  0
    0.7500   -1.2990    0.0000 C   0  0  0  0  0  0  0  0  0  0  0  0
   -0.7500   -1.2990    0.0000 C   0  0  0  0  0  0  0  0  0  0  0  0
   -1.5000    0.0000    0.0000 C   0  0  0  0  0  0  0  0  0  0  0  0
   -0.7500    1.2990    0.0000 C   0  0  0  0  0  0  0  0  0  0  0  0
    0.7500    1.2990    0.0000 C   0  0  0  0  0  0  0  0  0  0  0  0
  1  2  1  0
  2  3  1  0
  3  4  1  0
  3  5  1  0
  5  6  2  0
  6  7  1  0
  7  8  2  0
  8  9  1  0
  9 10  2  0
 10  5  1  0
M  END
>  <Title>  (403) 
idAANOgen6

$$$$

     RDKit          2D

 18 19  0  0  0  0  0  0  0  0999 V2000
   -7.5022   -5.5928    0.0000 C   0  0  0  0  0  0  0  0  0  0  0  0
   -6.4415   -6.6535    0.0000 C   0  0  0  0  0  0  0  0  0  0  0  0
   -5.3809   -7.7141    0.0000 C   0  0  0  0  0  0  0  0  0  0  0  0
   -7.5022   -7.7141    0.0000 C   0  0  0  0  0  0  0  0  0  0  0  0
   -5.3809   -5.5928    0.0000 C   0  0  0  0  0  0  0  0  0  0  0  0
   -4.3202   -4.5321    0.0000 C   0  0  0  0  0  0  0  0  0  0  0  0
   -3.2595   -3.4715    0.0000 C   0  0  0  0  0  0  0  0  0  0  0  0
   -1.8107   -3.8597    0.0000 C   0  0  0  0  0  0  0  0  0  0  0  0
   -1.4224   -5.3086    0.0000 O   0  0  0  0  0  0  0  0  0  0  0  0
   -0.7500   -2.7990    0.0000 N   0  0  0  0  0  0  0  0  0  0  0  0
    0.7500   -2.7990    0.0000 C   0  0  0  0  0  0  0  0  0  0  0  0
    0.7500   -1.2990    0.0000 C   0  0  0  0  0  0  0  0  0  0  0  0
    1.5000    0.0000    0.0000 C   0  0  0  0  0  0  0  0  0  0  0  0
    0.7500    1.2990    0.0000 C   0  0  0  0  0  0  0  0  0  0  0  0
   -0.7500    1.2990    0.0000 C   0  0  0  0  0  0  0  0  0  0  0  0
   -1.5000    2.5981    0.0000 O   0  0  0  0  0  0  0  0  0  0  0  0
   -1.5000    0.0000    0.0000 C   0  0  0  0  0  0  0  0  0  0  0  0
   -0.7500   -1.2990    0.0000 C   0  0  0  0  0  0  0  0  0  0  0  0
  1  2  1  0
  2  3  1  0
  2  4  1  0
  2  5  1  0
  5  6  3  0
  6  7  1  0
  7  8  1  0
  8  9  2  0
  8 10  1  0
 10 11  1  0
 11 12  1  0
 12 13  2  0
 13 14  1  0
 14 15  2  0
 15 16  1  0
 15 17  1  0
 17 18  2  0
 18 10  1  0
 18 12  1  0
M  END
>  <Title>  (404) 
idAANPgen6

$$$$

     RDKit          2D

 24 26  0  0  0  0  0  0  0  0999 V2000
   -3.1771   -1.2990    0.0000 C   0  0  0  0  0  0  0  0  0  0  0  0
   -1.9635   -2.1807    0.0000 C   0  0  0  0  0  0  0  0  0  0  0  0
   -2.4271   -3.6073    0.0000 C   0  0  0  0  0  0  0  0  0  0  0  0
   -1.9635   -5.0339    0.0000 C   0  0  0  0  0  0  0  0  0  0  0  0
   -0.7500   -5.9156    0.0000 C   0  0  0  0  0  0  0  0  0  0  0  0
    0.7500   -5.9156    0.0000 C   0  0  0  0  0  0  0  0  0  0  0  0
    1.9635   -5.0339    0.0000 C   0  0  0  0  0  0  0  0  0  0  0  0
    2.4271   -3.6073    0.0000 C   0  0  0  0  0  0  0  0  0  0  0  0
    1.9635   -2.1807    0.0000 C   0  0  0  0  0  0  0  0  0  0  0  0
    3.1771   -1.2990    0.0000 C   0  0  0  0  0  0  0  0  0  0  0  0
    3.0203    0.1927    0.0000 O   0  0  0  0  0  0  0  0  0  0  0  0
    4.5474   -1.9091    0.0000 N   0  0  0  0  0  0  0  0  0  0  0  0
    5.7609   -1.0275    0.0000 C   0  0  0  0  0  0  0  0  0  0  0  0
    7.1312   -1.6376    0.0000 N   0  0  0  0  0  0  0  0  0  0  0  0
    8.3447   -0.7559    0.0000 N   0  0  0  0  0  0  0  0  0  0  0  0
    8.1879    0.7359    0.0000 N   0  0  0  0  0  0  0  0  0  0  0  0
    6.8176    1.3460    0.0000 N   0  0  0  0  0  0  0  0  0  0  0  0
    5.6041    0.4643    0.0000 N   0  0  0  0  0  0  0  0  0  0  0  0
    0.7500   -1.2990    0.0000 C   0  0  0  0  0  0  0  0  0  0  0  0
    1.5000    0.0000    0.0000 C   0  0  0  0  0  0  0  0  0  0  0  0
    0.7500    1.2990    0.0000 C   0  0  0  0  0  0  0  0  0  0  0  0
   -0.7500    1.2990    0.0000 C   0  0  0  0  0  0  0  0  0  0  0  0
   -1.5000    0.0000    0.0000 C   0  0  0  0  0  0  0  0  0  0  0  0
   -0.7500   -1.2990    0.0000 C   0  0  0  0  0  0  0  0  0  0  0  0
  1  2  1  0
  2  3  1  0
  3  4  1  0
  4  5  1  0
  5  6  1  0
  6  7  1  0
  7  8  1  0
  8  9  1  0
  9 10  1  0
 10 11  2  0
 10 12  1  0
 12 13  1  0
 13 14  2  0
 14 15  1  0
 15 16  2  0
 16 17  1  0
 17 18  2  0
  9 19  1  0
 19 20  2  0
 20 21  1  0
 21 22  2  0
 22 23  1  0
 23 24  2  0
 24  2  1  0
 18 13  1  0
 24 19  1  0
M  END
>  <Title>  (405) 
idAANQgen6

$$$$

     RDKit          2D

 29 32  0  0  0  0  0  0  0  0999 V2000
    3.0000    0.0000    0.0000 C   0  0  0  0  0  0  0  0  0  0  0  0
    1.5000    0.0000    0.0000 C   0  0  0  0  0  0  0  0  0  0  0  0
    0.7500   -1.2990    0.0000 C   0  0  0  0  0  0  0  0  0  0  0  0
   -0.7500   -1.2990    0.0000 C   0  0  0  0  0  0  0  0  0  0  0  0
   -1.5000    0.0000    0.0000 C   0  0  0  0  0  0  0  0  0  0  0  0
   -3.0000    0.0000    0.0000 C   0  0  0  0  0  0  0  0  0  0  0  0
   -3.7500   -1.2990    0.0000 O   0  0  0  0  0  0  0  0  0  0  0  0
   -3.7500    1.2990    0.0000 N   0  0  0  0  0  0  0  0  0  0  0  0
   -5.2500    1.2990    0.0000 C   0  0  0  0  0  0  0  0  0  0  0  0
   -6.1317    0.0855    0.0000 N   0  0  0  0  0  0  0  0  0  0  0  0
   -7.5583    0.5490    0.0000 N   0  0  0  0  0  0  0  0  0  0  0  0
   -7.5583    2.0490    0.0000 N   0  0  0  0  0  0  0  0  0  0  0  0
   -6.1317    2.5126    0.0000 N   0  0  0  0  0  0  0  0  0  0  0  0
   -5.6682    3.9391    0.0000 C   0  0  0  0  0  0  0  0  0  0  0  0
   -4.2009    4.2510    0.0000 C   0  0  0  0  0  0  0  0  0  0  0  0
   -3.7374    5.6776    0.0000 C   0  0  0  0  0  0  0  0  0  0  0  0
   -4.7411    6.7923    0.0000 C   0  0  0  0  0  0  0  0  0  0  0  0
   -6.2083    6.4805    0.0000 C   0  0  0  0  0  0  0  0  0  0  0  0
   -6.6718    5.0539    0.0000 C   0  0  0  0  0  0  0  0  0  0  0  0
   -8.1391    4.7420    0.0000 C   0  0  0  0  0  0  0  0  0  0  0  0
   -9.1428    5.8567    0.0000 C   0  0  0  0  0  0  0  0  0  0  0  0
  -10.6100    5.5448    0.0000 C   0  0  0  0  0  0  0  0  0  0  0  0
  -11.0735    4.1183    0.0000 C   0  0  0  0  0  0  0  0  0  0  0  0
  -10.0698    3.0035    0.0000 C   0  0  0  0  0  0  0  0  0  0  0  0
   -8.6026    3.3154    0.0000 C   0  0  0  0  0  0  0  0  0  0  0  0
   -0.7500    1.2990    0.0000 C   0  0  0  0  0  0  0  0  0  0  0  0
   -2.1595    1.8121    0.0000 C   0  0  0  0  0  0  0  0  0  0  0  0
   -0.4895    2.7762    0.0000 C   0  0  0  0  0  0  0  0  0  0  0  0
    0.7500    1.2990    0.0000 C   0  0  0  0  0  0  0  0  0  0  0  0
  1  2  1  0
  2  3  1  0
  3  4  1  0
  4  5  1  0
  5  6  1  0
  6  7  2  0
  6  8  1  0
  8  9  1  0
  9 10  2  0
 10 11  1  0
 11 12  2  0
 12 13  1  0
 13 14  1  0
 14 15  2  0
 15 16  1  0
 16 17  2  0
 17 18  1  0
 18 19  2  0
 19 20  1  0
 20 21  2  0
 21 22  1  0
 22 23  2  0
 23 24  1  0
 24 25  2  0
  5 26  1  0
 26 27  1  0
 26 28  1  0
 26 29  1  0
 29  2  1  0
 13  9  1  0
 19 14  1  0
 25 20  1  0
M  END
>  <Title>  (406) 
idAANRgen6

$$$$

     RDKit          2D

 21 22  0  0  0  0  0  0  0  0999 V2000
   -6.7814   -9.2097    0.0000 C   0  0  0  0  0  0  0  0  0  0  0  0
   -5.3142   -9.5216    0.0000 C   0  0  0  0  0  0  0  0  0  0  0  0
   -3.8469   -9.8334    0.0000 C   0  0  0  0  0  0  0  0  0  0  0  0
   -5.6260  -10.9888    0.0000 C   0  0  0  0  0  0  0  0  0  0  0  0
   -5.0023   -8.0543    0.0000 C   0  0  0  0  0  0  0  0  0  0  0  0
   -4.6904   -6.5871    0.0000 C   0  0  0  0  0  0  0  0  0  0  0  0
   -4.3786   -5.1199    0.0000 C   0  0  0  0  0  0  0  0  0  0  0  0
   -2.9520   -4.6564    0.0000 C   0  0  0  0  0  0  0  0  0  0  0  0
   -1.8373   -5.6601    0.0000 O   0  0  0  0  0  0  0  0  0  0  0  0
   -2.6401   -3.1891    0.0000 N   0  0  0  0  0  0  0  0  0  0  0  0
   -1.2135   -2.7256    0.0000 C   0  0  0  0  0  0  0  0  0  0  0  0
   -0.0000   -3.6073    0.0000 C   0  0  0  0  0  0  0  0  0  0  0  0
    1.2135   -2.7256    0.0000 S   0  0  0  0  0  0  0  0  0  0  0  0
    2.5838   -2.1155    0.0000 O   0  0  0  0  0  0  0  0  0  0  0  0
    1.9635   -4.0247    0.0000 O   0  0  0  0  0  0  0  0  0  0  0  0
    0.7500   -1.2990    0.0000 C   0  0  0  0  0  0  0  0  0  0  0  0
    1.5000    0.0000    0.0000 C   0  0  0  0  0  0  0  0  0  0  0  0
    0.7500    1.2990    0.0000 C   0  0  0  0  0  0  0  0  0  0  0  0
   -0.7500    1.2990    0.0000 C   0  0  0  0  0  0  0  0  0  0  0  0
   -1.5000    0.0000    0.0000 C   0  0  0  0  0  0  0  0  0  0  0  0
   -0.7500   -1.2990    0.0000 C   0  0  0  0  0  0  0  0  0  0  0  0
  1  2  1  0
  2  3  1  0
  2  4  1  0
  2  5  1  0
  5  6  3  0
  6  7  1  0
  7  8  1  0
  8  9  2  0
  8 10  1  0
 10 11  1  0
 11 12  2  0
 12 13  1  0
 13 14  2  0
 13 15  2  0
 13 16  1  0
 16 17  2  0
 17 18  1  0
 18 19  2  0
 19 20  1  0
 20 21  2  0
 21 11  1  0
 21 16  1  0
M  END
>  <Title>  (407) 
idAANSgen6

$$$$

     RDKit          2D

 22 24  0  0  0  0  0  0  0  0999 V2000
   -3.1965   -1.7857    0.0000 C   0  0  0  0  0  0  0  0  0  0  0  0
   -1.8107   -2.3597    0.0000 C   0  0  0  0  0  0  0  0  0  0  0  0
   -1.8107   -3.8597    0.0000 C   0  0  0  0  0  0  0  0  0  0  0  0
   -0.7500   -4.9204    0.0000 C   0  0  0  0  0  0  0  0  0  0  0  0
    0.7500   -4.9204    0.0000 C   0  0  0  0  0  0  0  0  0  0  0  0
    1.8107   -3.8597    0.0000 C   0  0  0  0  0  0  0  0  0  0  0  0
    1.8107   -2.3597    0.0000 C   0  0  0  0  0  0  0  0  0  0  0  0
    3.1965   -1.7857    0.0000 C   0  0  0  0  0  0  0  0  0  0  0  0
    3.3923   -0.2985    0.0000 O   0  0  0  0  0  0  0  0  0  0  0  0
    4.3865   -2.6988    0.0000 N   0  0  0  0  0  0  0  0  0  0  0  0
    5.7723   -2.1248    0.0000 C   0  0  0  0  0  0  0  0  0  0  0  0
    6.9624   -3.0379    0.0000 N   0  0  0  0  0  0  0  0  0  0  0  0
    8.3482   -2.4639    0.0000 N   0  0  0  0  0  0  0  0  0  0  0  0
    8.5440   -0.9767    0.0000 N   0  0  0  0  0  0  0  0  0  0  0  0
    7.3539   -0.0636    0.0000 N   0  0  0  0  0  0  0  0  0  0  0  0
    5.9681   -0.6376    0.0000 N   0  0  0  0  0  0  0  0  0  0  0  0
    0.7500   -1.2990    0.0000 C   0  0  0  0  0  0  0  0  0  0  0  0
    1.5000    0.0000    0.0000 C   0  0  0  0  0  0  0  0  0  0  0  0
    0.7500    1.2990    0.0000 C   0  0  0  0  0  0  0  0  0  0  0  0
   -0.7500    1.2990    0.0000 C   0  0  0  0  0  0  0  0  0  0  0  0
   -1.5000    0.0000    0.0000 C   0  0  0  0  0  0  0  0  0  0  0  0
   -0.7500   -1.2990    0.0000 C   0  0  0  0  0  0  0  0  0  0  0  0
  1  2  1  0
  2  3  2  0
  3  4  1  0
  4  5  2  0
  5  6  1  0
  6  7  2  0
  7  8  1  0
  8  9  2  0
  8 10  1  0
 10 11  1  0
 11 12  2  0
 12 13  1  0
 13 14  2  0
 14 15  1  0
 15 16  2  0
  7 17  1  0
 17 18  2  0
 18 19  1  0
 19 20  2  0
 20 21  1  0
 21 22  2  0
 22  2  1  0
 16 11  1  0
 22 17  1  0
M  END
>  <Title>  (408) 
idAANTgen6

$$$$

     RDKit          2D

  9  9  0  0  0  0  0  0  0  0999 V2000
    2.5607    0.0000    0.0000 C   0  0  0  0  0  0  0  0  0  0  0  0
    1.0607    0.0000    0.0000 C   0  0  0  0  0  0  0  0  0  0  0  0
   -0.0000   -1.0607    0.0000 C   0  0  0  0  0  0  0  0  0  0  0  0
   -1.0607    0.0000    0.0000 C   0  0  0  0  0  0  0  0  0  0  0  0
   -2.5607    0.0000    0.0000 C   0  0  0  0  0  0  0  0  0  0  0  0
   -3.3107   -1.2990    0.0000 O   0  0  0  0  0  0  0  0  0  0  0  0
   -3.3107    1.2990    0.0000 O   0  0  0  0  0  0  0  0  0  0  0  0
    0.0000    1.0607    0.0000 C   0  0  0  0  0  0  0  0  0  0  0  0
    0.0000    2.5607    0.0000 O   0  0  0  0  0  0  0  0  0  0  0  0
  1  2  1  0
  2  3  1  0
  3  4  1  0
  4  5  1  0
  5  6  2  0
  5  7  1  0
  4  8  1  0
  8  9  2  0
  8  2  1  0
M  END
>  <Title>  (409) 
idAANUgen6

$$$$

     RDKit          2D

 10 10  0  0  0  0  0  0  0  0999 V2000
    3.0000    0.0000    0.0000 C   0  0  0  0  0  0  0  0  0  0  0  0
    1.5000    0.0000    0.0000 C   0  0  0  0  0  0  0  0  0  0  0  0
    0.7500   -1.2990    0.0000 C   0  0  0  0  0  0  0  0  0  0  0  0
   -0.7500   -1.2990    0.0000 C   0  0  0  0  0  0  0  0  0  0  0  0
   -1.5000    0.0000    0.0000 C   0  0  0  0  0  0  0  0  0  0  0  0
   -0.7500    1.2990    0.0000 C   0  0  0  0  0  0  0  0  0  0  0  0
    0.7500    1.2990    0.0000 C   0  0  0  0  0  0  0  0  0  0  0  0
    1.5000    2.5981    0.0000 C   0  0  0  0  0  0  0  0  0  0  0  0
    3.0000    2.5981    0.0000 O   0  0  0  0  0  0  0  0  0  0  0  0
    0.7500    3.8971    0.0000 O   0  0  0  0  0  0  0  0  0  0  0  0
  1  2  1  0
  2  3  1  0
  3  4  2  0
  4  5  1  0
  5  6  2  0
  6  7  1  0
  7  8  1  0
  8  9  2  0
  8 10  1  0
  7  2  1  0
M  END
>  <Title>  (410) 
idAANVgen6

$$$$

     RDKit          2D

 22 23  0  0  0  0  0  0  0  0999 V2000
    4.1621    0.0000    0.0000 C   0  0  0  0  0  0  0  0  0  0  0  0
    2.6621    0.0000    0.0000 C   0  0  0  0  0  0  0  0  0  0  0  0
    2.2395    1.4392    0.0000 C   0  0  0  0  0  0  0  0  0  0  0  0
    1.1059    2.4215    0.0000 C   0  0  0  0  0  0  0  0  0  0  0  0
   -0.3789    2.6350    0.0000 C   0  0  0  0  0  0  0  0  0  0  0  0
   -0.5923    4.1197    0.0000 O   0  0  0  0  0  0  0  0  0  0  0  0
   -1.7433    2.0119    0.0000 C   0  0  0  0  0  0  0  0  0  0  0  0
   -2.5543    0.7500    0.0000 C   0  0  0  0  0  0  0  0  0  0  0  0
   -2.5543   -0.7500    0.0000 C   0  0  0  0  0  0  0  0  0  0  0  0
   -1.7433   -2.0119    0.0000 C   0  0  0  0  0  0  0  0  0  0  0  0
   -0.3789   -2.6350    0.0000 C   0  0  0  0  0  0  0  0  0  0  0  0
    1.1059   -2.4215    0.0000 C   0  0  0  0  0  0  0  0  0  0  0  0
    1.7290   -3.7860    0.0000 C   0  0  0  0  0  0  0  0  0  0  0  0
    3.2222   -3.9286    0.0000 O   0  0  0  0  0  0  0  0  0  0  0  0
    0.8589   -5.0078    0.0000 N   0  0  0  0  0  0  0  0  0  0  0  0
    1.4820   -6.3723    0.0000 C   0  0  0  0  0  0  0  0  0  0  0  0
    0.6120   -7.5942    0.0000 N   0  0  0  0  0  0  0  0  0  0  0  0
    1.2351   -8.9586    0.0000 N   0  0  0  0  0  0  0  0  0  0  0  0
    2.7283   -9.1012    0.0000 N   0  0  0  0  0  0  0  0  0  0  0  0
    3.5984   -7.8793    0.0000 N   0  0  0  0  0  0  0  0  0  0  0  0
    2.9752   -6.5149    0.0000 N   0  0  0  0  0  0  0  0  0  0  0  0
    2.2395   -1.4392    0.0000 C   0  0  0  0  0  0  0  0  0  0  0  0
  1  2  1  0
  2  3  1  0
  3  4  1  0
  4  5  1  0
  5  6  1  0
  5  7  1  0
  7  8  1  0
  8  9  1  0
  9 10  1  0
 10 11  1  0
 11 12  1  0
 12 13  1  0
 13 14  2  0
 13 15  1  0
 15 16  1  0
 16 17  2  0
 17 18  1  0
 18 19  2  0
 19 20  1  0
 20 21  2  0
 12 22  1  0
 22  2  1  0
 21 16  1  0
M  END
>  <Title>  (411) 
idAANWgen6

$$$$

     RDKit          2D

 15 15  0  0  0  0  0  0  0  0999 V2000
    7.2760   -2.5981    0.0000 C   0  0  0  0  0  0  0  0  0  0  0  0
    5.7760   -2.5981    0.0000 C   0  0  0  0  0  0  0  0  0  0  0  0
    5.0260   -3.8971    0.0000 O   0  0  0  0  0  0  0  0  0  0  0  0
    5.0260   -1.2990    0.0000 C   0  0  0  0  0  0  0  0  0  0  0  0
    3.5260   -1.2990    0.0000 C   0  0  0  0  0  0  0  0  0  0  0  0
    2.7760    0.0000    0.0000 C   0  0  0  0  0  0  0  0  0  0  0  0
    3.5260    1.2990    0.0000 O   0  0  0  0  0  0  0  0  0  0  0  0
    1.2760    0.0000    0.0000 C   0  0  0  0  0  0  0  0  0  0  0  0
    0.3943    1.2135    0.0000 C   0  0  0  0  0  0  0  0  0  0  0  0
   -1.0323    0.7500    0.0000 C   0  0  0  0  0  0  0  0  0  0  0  0
   -1.0323   -0.7500    0.0000 C   0  0  0  0  0  0  0  0  0  0  0  0
   -2.2458   -1.6317    0.0000 C   0  0  0  0  0  0  0  0  0  0  0  0
   -2.0890   -3.1235    0.0000 O   0  0  0  0  0  0  0  0  0  0  0  0
   -3.6161   -1.0216    0.0000 O   0  0  0  0  0  0  0  0  0  0  0  0
    0.3943   -1.2135    0.0000 C   0  0  0  0  0  0  0  0  0  0  0  0
  1  2  1  0
  2  3  2  0
  2  4  1  0
  4  5  1  0
  5  6  1  0
  6  7  2  0
  6  8  1  0
  8  9  1  0
  9 10  1  0
 10 11  1  0
 11 12  1  0
 12 13  2  0
 12 14  1  0
 11 15  1  0
 15  8  1  0
M  END
>  <Title>  (412) 
idAANXgen6

$$$$

     RDKit          2D

 14 15  0  0  0  0  0  0  0  0999 V2000
    2.7760    0.0000    0.0000 C   0  0  0  0  0  0  0  0  0  0  0  0
    1.2760    0.0000    0.0000 C   0  0  0  0  0  0  0  0  0  0  0  0
    0.3943    1.2135    0.0000 C   0  0  0  0  0  0  0  0  0  0  0  0
   -1.0323    0.7500    0.0000 C   0  0  0  0  0  0  0  0  0  0  0  0
   -1.0323   -0.7500    0.0000 C   0  0  0  0  0  0  0  0  0  0  0  0
   -2.2458   -1.6317    0.0000 N   0  0  0  0  0  0  0  0  0  0  0  0
   -2.2458   -3.1317    0.0000 C   0  0  0  0  0  0  0  0  0  0  0  0
   -3.6724   -3.5952    0.0000 C   0  0  0  0  0  0  0  0  0  0  0  0
   -4.5541   -2.3817    0.0000 C   0  0  0  0  0  0  0  0  0  0  0  0
   -6.0541   -2.3817    0.0000 C   0  0  0  0  0  0  0  0  0  0  0  0
   -6.8041   -3.6807    0.0000 O   0  0  0  0  0  0  0  0  0  0  0  0
   -6.8041   -1.0826    0.0000 O   0  0  0  0  0  0  0  0  0  0  0  0
   -3.6724   -1.1682    0.0000 C   0  0  0  0  0  0  0  0  0  0  0  0
    0.3943   -1.2135    0.0000 C   0  0  0  0  0  0  0  0  0  0  0  0
  1  2  1  0
  2  3  2  0
  3  4  1  0
  4  5  2  0
  5  6  1  0
  6  7  1  0
  7  8  1  0
  8  9  1  0
  9 10  1  0
 10 11  2  0
 10 12  1  0
  9 13  1  0
  5 14  1  0
 14  2  1  0
 13  6  1  0
M  END
>  <Title>  (413) 
idAANYgen6

$$$$

     RDKit          2D

 16 16  0  0  0  0  0  0  0  0999 V2000
    3.8444    0.0000    0.0000 C   0  0  0  0  0  0  0  0  0  0  0  0
    3.5517   -1.4712    0.0000 C   0  0  0  0  0  0  0  0  0  0  0  0
    2.7184   -2.7184    0.0000 C   0  0  0  0  0  0  0  0  0  0  0  0
    1.4712   -3.5517    0.0000 C   0  0  0  0  0  0  0  0  0  0  0  0
   -0.0000   -3.8444    0.0000 C   0  0  0  0  0  0  0  0  0  0  0  0
   -1.4712   -3.5517    0.0000 C   0  0  0  0  0  0  0  0  0  0  0  0
   -2.7184   -2.7184    0.0000 C   0  0  0  0  0  0  0  0  0  0  0  0
   -3.5517   -1.4712    0.0000 C   0  0  0  0  0  0  0  0  0  0  0  0
   -3.8444    0.0000    0.0000 C   0  0  0  0  0  0  0  0  0  0  0  0
   -3.5517    1.4712    0.0000 C   0  0  0  0  0  0  0  0  0  0  0  0
   -2.7184    2.7184    0.0000 C   0  0  0  0  0  0  0  0  0  0  0  0
   -1.4712    3.5517    0.0000 C   0  0  0  0  0  0  0  0  0  0  0  0
    0.0000    3.8444    0.0000 C   0  0  0  0  0  0  0  0  0  0  0  0
    1.4712    3.5517    0.0000 C   0  0  0  0  0  0  0  0  0  0  0  0
    2.7184    2.7184    0.0000 C   0  0  0  0  0  0  0  0  0  0  0  0
    3.5517    1.4712    0.0000 C   0  0  0  0  0  0  0  0  0  0  0  0
  1  2  2  0
  2  3  1  0
  3  4  1  0
  4  5  1  0
  5  6  1  0
  6  7  1  0
  7  8  1  0
  8  9  1  0
  9 10  1  0
 10 11  1  0
 11 12  1  0
 12 13  1  0
 13 14  1  0
 14 15  1  0
 15 16  1  0
 16  1  1  0
M  END
>  <Title>  (414) 
idAANZgen6

$$$$

     RDKit          2D

 36 39  0  0  0  0  0  0  0  0999 V2000
    3.6929    0.0000    0.0000 C   0  0  0  0  0  0  0  0  0  0  0  0
    2.1929    0.0000    0.0000 C   0  0  0  0  0  0  0  0  0  0  0  0
    1.6798    1.4095    0.0000 C   0  0  0  0  0  0  0  0  0  0  0  0
    0.3808    2.1595    0.0000 C   0  0  0  0  0  0  0  0  0  0  0  0
   -1.0964    1.8991    0.0000 C   0  0  0  0  0  0  0  0  0  0  0  0
   -1.8464    3.1981    0.0000 C   0  0  0  0  0  0  0  0  0  0  0  0
   -3.3464    3.1981    0.0000 O   0  0  0  0  0  0  0  0  0  0  0  0
   -1.0964    4.4971    0.0000 N   0  0  0  0  0  0  0  0  0  0  0  0
   -1.8464    5.7962    0.0000 C   0  0  0  0  0  0  0  0  0  0  0  0
   -1.0964    7.0952    0.0000 N   0  0  0  0  0  0  0  0  0  0  0  0
   -1.8464    8.3943    0.0000 N   0  0  0  0  0  0  0  0  0  0  0  0
   -3.3464    8.3943    0.0000 N   0  0  0  0  0  0  0  0  0  0  0  0
   -4.0964    7.0952    0.0000 N   0  0  0  0  0  0  0  0  0  0  0  0
   -3.3464    5.7962    0.0000 N   0  0  0  0  0  0  0  0  0  0  0  0
   -2.0606    0.7500    0.0000 C   0  0  0  0  0  0  0  0  0  0  0  0
   -2.9878   -0.4291    0.0000 C   0  0  0  0  0  0  0  0  0  0  0  0
   -3.1304   -1.9223    0.0000 C   0  0  0  0  0  0  0  0  0  0  0  0
   -2.4431   -3.2555    0.0000 C   0  0  0  0  0  0  0  0  0  0  0  0
   -3.5287   -4.2907    0.0000 C   0  0  0  0  0  0  0  0  0  0  0  0
   -3.1751   -5.7484    0.0000 O   0  0  0  0  0  0  0  0  0  0  0  0
   -4.9679   -3.8681    0.0000 N   0  0  0  0  0  0  0  0  0  0  0  0
   -6.0535   -4.9032    0.0000 C   0  0  0  0  0  0  0  0  0  0  0  0
   -7.4928   -4.4806    0.0000 C   0  0  0  0  0  0  0  0  0  0  0  0
   -8.5784   -5.5157    0.0000 C   0  0  0  0  0  0  0  0  0  0  0  0
   -8.2247   -6.9734    0.0000 C   0  0  0  0  0  0  0  0  0  0  0  0
   -6.7855   -7.3960    0.0000 C   0  0  0  0  0  0  0  0  0  0  0  0
   -5.6999   -6.3609    0.0000 C   0  0  0  0  0  0  0  0  0  0  0  0
   -1.1441   -4.0055    0.0000 C   0  0  0  0  0  0  0  0  0  0  0  0
   -1.4977   -5.4633    0.0000 O   0  0  0  0  0  0  0  0  0  0  0  0
    0.3542   -3.9342    0.0000 O   0  0  0  0  0  0  0  0  0  0  0  0
    1.5761   -3.0641    0.0000 C   0  0  0  0  0  0  0  0  0  0  0  0
    2.7552   -3.9913    0.0000 O   0  0  0  0  0  0  0  0  0  0  0  0
    1.6798   -1.4095    0.0000 C   0  0  0  0  0  0  0  0  0  0  0  0
    0.3808   -2.1595    0.0000 C   0  0  0  0  0  0  0  0  0  0  0  0
   -1.0964   -1.8991    0.0000 C   0  0  0  0  0  0  0  0  0  0  0  0
   -2.0606   -0.7500    0.0000 C   0  0  0  0  0  0  0  0  0  0  0  0
  1  2  1  0
  2  3  1  0
  3  4  1  0
  4  5  1  0
  5  6  1  0
  6  7  2  0
  6  8  1  0
  8  9  1  0
  9 10  2  0
 10 11  1  0
 11 12  2  0
 12 13  1  0
 13 14  2  0
  5 15  1  0
 15 16  2  0
 16 17  1  0
 17 18  2  0
 18 19  1  0
 19 20  2  0
 19 21  1  0
 21 22  1  0
 22 23  2  0
 23 24  1  0
 24 25  2  0
 25 26  1  0
 26 27  2  0
 18 28  1  0
 28 29  2  0
 28 30  1  0
 30 31  1  0
 31 32  2  0
 31 33  1  0
 33 34  1  0
 34 35  1  0
 35 36  1  0
 33  2  1  0
 14  9  1  0
 36 15  1  0
 27 22  1  0
M  END
>  <Title>  (415) 
idAAOAgen6

$$$$

     RDKit          2D

 37 42  0  0  0  0  0  0  0  0999 V2000
   -6.0391  -12.7266    0.0000 C   0  0  0  0  0  0  0  0  0  0  0  0
   -7.2527  -11.8449    0.0000 C   0  0  0  0  0  0  0  0  0  0  0  0
   -8.6792  -12.3084    0.0000 C   0  0  0  0  0  0  0  0  0  0  0  0
   -9.5609  -11.0949    0.0000 C   0  0  0  0  0  0  0  0  0  0  0  0
   -8.6792   -9.8814    0.0000 C   0  0  0  0  0  0  0  0  0  0  0  0
   -9.1428   -8.4548    0.0000 C   0  0  0  0  0  0  0  0  0  0  0  0
  -10.6100   -8.1429    0.0000 C   0  0  0  0  0  0  0  0  0  0  0  0
  -11.0735   -6.7163    0.0000 C   0  0  0  0  0  0  0  0  0  0  0  0
  -10.0698   -5.6016    0.0000 C   0  0  0  0  0  0  0  0  0  0  0  0
   -8.6026   -5.9135    0.0000 C   0  0  0  0  0  0  0  0  0  0  0  0
   -8.1391   -7.3401    0.0000 C   0  0  0  0  0  0  0  0  0  0  0  0
   -6.6718   -7.6519    0.0000 C   0  0  0  0  0  0  0  0  0  0  0  0
   -6.2083   -9.0785    0.0000 C   0  0  0  0  0  0  0  0  0  0  0  0
   -4.7411   -9.3904    0.0000 C   0  0  0  0  0  0  0  0  0  0  0  0
   -3.7374   -8.2757    0.0000 C   0  0  0  0  0  0  0  0  0  0  0  0
   -4.2009   -6.8491    0.0000 C   0  0  0  0  0  0  0  0  0  0  0  0
   -5.6682   -6.5372    0.0000 C   0  0  0  0  0  0  0  0  0  0  0  0
   -6.1317   -5.1106    0.0000 N   0  0  0  0  0  0  0  0  0  0  0  0
   -7.5583   -4.6471    0.0000 N   0  0  0  0  0  0  0  0  0  0  0  0
   -7.5583   -3.1471    0.0000 N   0  0  0  0  0  0  0  0  0  0  0  0
   -6.1317   -2.6836    0.0000 N   0  0  0  0  0  0  0  0  0  0  0  0
   -5.2500   -3.8971    0.0000 C   0  0  0  0  0  0  0  0  0  0  0  0
   -3.7500   -3.8971    0.0000 N   0  0  0  0  0  0  0  0  0  0  0  0
   -3.0000   -2.5981    0.0000 C   0  0  0  0  0  0  0  0  0  0  0  0
   -3.7500   -1.2990    0.0000 O   0  0  0  0  0  0  0  0  0  0  0  0
   -1.5000   -2.5981    0.0000 C   0  0  0  0  0  0  0  0  0  0  0  0
   -0.7500   -3.8971    0.0000 C   0  0  0  0  0  0  0  0  0  0  0  0
    0.7500   -3.8971    0.0000 C   0  0  0  0  0  0  0  0  0  0  0  0
    1.5000   -2.5981    0.0000 C   0  0  0  0  0  0  0  0  0  0  0  0
    3.0000   -2.5981    0.0000 C   0  0  0  0  0  0  0  0  0  0  0  0
    0.7500   -1.2990    0.0000 C   0  0  0  0  0  0  0  0  0  0  0  0
    1.5000    0.0000    0.0000 C   0  0  0  0  0  0  0  0  0  0  0  0
    0.7500    1.2990    0.0000 C   0  0  0  0  0  0  0  0  0  0  0  0
   -0.7500    1.2990    0.0000 C   0  0  0  0  0  0  0  0  0  0  0  0
   -1.5000    0.0000    0.0000 C   0  0  0  0  0  0  0  0  0  0  0  0
   -0.7500   -1.2990    0.0000 C   0  0  0  0  0  0  0  0  0  0  0  0
   -7.2527  -10.3449    0.0000 C   0  0  0  0  0  0  0  0  0  0  0  0
  1  2  1  0
  2  3  1  0
  3  4  2  0
  4  5  1  0
  5  6  1  0
  6  7  2  0
  7  8  1  0
  8  9  2  0
  9 10  1  0
 10 11  2  0
 11 12  1  0
 12 13  2  0
 13 14  1  0
 14 15  2  0
 15 16  1  0
 16 17  2  0
 17 18  1  0
 18 19  1  0
 19 20  2  0
 20 21  1  0
 21 22  2  0
 22 23  1  0
 23 24  1  0
 24 25  2  0
 24 26  1  0
 26 27  1  0
 27 28  1  0
 28 29  1  0
 29 30  1  0
 29 31  1  0
 31 32  2  0
 32 33  1  0
 33 34  2  0
 34 35  1  0
 35 36  2  0
  5 37  2  0
 37  2  1  0
 11  6  1  0
 17 12  1  0
 22 18  1  0
 36 26  1  0
 36 31  1  0
M  END
>  <Title>  (416) 
idAAOBgen6

$$$$

     RDKit          2D

 20 22  0  0  0  0  0  0  0  0999 V2000
   -3.0000   -2.5981    0.0000 C   0  0  0  0  0  0  0  0  0  0  0  0
   -1.5000   -2.5981    0.0000 C   0  0  0  0  0  0  0  0  0  0  0  0
   -0.7500   -3.8971    0.0000 C   0  0  0  0  0  0  0  0  0  0  0  0
    0.7500   -3.8971    0.0000 C   0  0  0  0  0  0  0  0  0  0  0  0
    1.5000   -2.5981    0.0000 C   0  0  0  0  0  0  0  0  0  0  0  0
    3.0000   -2.5981    0.0000 C   0  0  0  0  0  0  0  0  0  0  0  0
    3.7500   -1.2990    0.0000 O   0  0  0  0  0  0  0  0  0  0  0  0
    3.7500   -3.8971    0.0000 N   0  0  0  0  0  0  0  0  0  0  0  0
    5.2500   -3.8971    0.0000 C   0  0  0  0  0  0  0  0  0  0  0  0
    6.0000   -5.1962    0.0000 C   0  0  0  0  0  0  0  0  0  0  0  0
    7.5000   -5.1962    0.0000 C   0  0  0  0  0  0  0  0  0  0  0  0
    8.2500   -3.8971    0.0000 N   0  0  0  0  0  0  0  0  0  0  0  0
    7.5000   -2.5981    0.0000 N   0  0  0  0  0  0  0  0  0  0  0  0
    6.0000   -2.5981    0.0000 N   0  0  0  0  0  0  0  0  0  0  0  0
    0.7500   -1.2990    0.0000 C   0  0  0  0  0  0  0  0  0  0  0  0
    1.5000    0.0000    0.0000 C   0  0  0  0  0  0  0  0  0  0  0  0
    0.7500    1.2990    0.0000 C   0  0  0  0  0  0  0  0  0  0  0  0
   -0.7500    1.2990    0.0000 C   0  0  0  0  0  0  0  0  0  0  0  0
   -1.5000    0.0000    0.0000 C   0  0  0  0  0  0  0  0  0  0  0  0
   -0.7500   -1.2990    0.0000 C   0  0  0  0  0  0  0  0  0  0  0  0
  1  2  1  0
  2  3  1  0
  3  4  2  0
  4  5  1  0
  5  6  1  0
  6  7  2  0
  6  8  1  0
  8  9  1  0
  9 10  2  0
 10 11  1  0
 11 12  2  0
 12 13  1  0
 13 14  2  0
  5 15  1  0
 15 16  2  0
 16 17  1  0
 17 18  2  0
 18 19  1  0
 19 20  2  0
 20  2  1  0
 14  9  1  0
 20 15  1  0
M  END
>  <Title>  (417) 
idAAOCgen6

$$$$

     RDKit          2D

 13 12  0  0  0  0  0  0  0  0999 V2000
    0.0000    0.0000    0.0000 C   0  0  0  0  0  0  0  0  0  0  0  0
    1.2990    0.7500    0.0000 C   0  0  0  0  0  0  0  0  0  0  0  0
    2.5981   -0.0000    0.0000 C   0  0  0  0  0  0  0  0  0  0  0  0
    3.8971    0.7500    0.0000 C   0  0  0  0  0  0  0  0  0  0  0  0
    5.1962   -0.0000    0.0000 C   0  0  0  0  0  0  0  0  0  0  0  0
    6.4952    0.7500    0.0000 C   0  0  0  0  0  0  0  0  0  0  0  0
    7.7942   -0.0000    0.0000 C   0  0  0  0  0  0  0  0  0  0  0  0
    9.0933    0.7500    0.0000 C   0  0  0  0  0  0  0  0  0  0  0  0
   10.3923   -0.0000    0.0000 C   0  0  0  0  0  0  0  0  0  0  0  0
   11.6913    0.7500    0.0000 C   0  0  0  0  0  0  0  0  0  0  0  0
   12.9904   -0.0000    0.0000 C   0  0  0  0  0  0  0  0  0  0  0  0
   14.2894    0.7500    0.0000 C   0  0  0  0  0  0  0  0  0  0  0  0
   15.5885   -0.0000    0.0000 O   0  0  0  0  0  0  0  0  0  0  0  0
  1  2  1  0
  2  3  1  0
  3  4  1  0
  4  5  1  0
  5  6  1  0
  6  7  1  0
  7  8  1  0
  8  9  1  0
  9 10  1  0
 10 11  1  0
 11 12  1  0
 12 13  1  0
M  END
>  <Title>  (418) 
idAAODgen6

$$$$

     RDKit          2D

  7  6  0  0  0  0  0  0  0  0999 V2000
    0.0000    0.0000    0.0000 C   0  0  0  0  0  0  0  0  0  0  0  0
    1.2990    0.7500    0.0000 C   0  0  0  0  0  0  0  0  0  0  0  0
    2.5981   -0.0000    0.0000 C   0  0  0  0  0  0  0  0  0  0  0  0
    1.2990    2.2500    0.0000 C   0  0  0  0  0  0  0  0  0  0  0  0
    1.2990    3.7500    0.0000 C   0  0  0  0  0  0  0  0  0  0  0  0
    1.2990    5.2500    0.0000 C   0  0  0  0  0  0  0  0  0  0  0  0
    1.2990    6.7500    0.0000 N   0  0  0  0  0  0  0  0  0  0  0  0
  1  2  1  0
  2  3  1  0
  2  4  1  0
  4  5  3  0
  5  6  1  0
  6  7  3  0
M  END
>  <Title>  (419) 
idAAOEgen6

$$$$

     RDKit          2D

 28 32  0  0  0  0  0  0  0  0999 V2000
    1.1225    6.9296    0.0000 O   0  0  0  0  0  0  0  0  0  0  0  0
   -0.0362    5.9769    0.0000 C   0  0  0  0  0  0  0  0  0  0  0  0
    0.2096    4.4972    0.0000 N   0  0  0  0  0  0  0  0  0  0  0  0
    1.6139    3.9701    0.0000 C   0  0  0  0  0  0  0  0  0  0  0  0
    2.8658    4.7965    0.0000 N   0  0  0  0  0  0  0  0  0  0  0  0
    4.0385    3.8613    0.0000 N   0  0  0  0  0  0  0  0  0  0  0  0
    3.5115    2.4569    0.0000 N   0  0  0  0  0  0  0  0  0  0  0  0
    2.0130    2.5242    0.0000 N   0  0  0  0  0  0  0  0  0  0  0  0
    1.0777    1.3515    0.0000 N   0  0  0  0  0  0  0  0  0  0  0  0
    1.7286    0.0000    0.0000 C   0  0  0  0  0  0  0  0  0  0  0  0
    1.0777   -1.3515    0.0000 C   0  0  0  0  0  0  0  0  0  0  0  0
   -0.3846   -1.6852    0.0000 C   0  0  0  0  0  0  0  0  0  0  0  0
   -1.5574   -0.7500    0.0000 N   0  0  0  0  0  0  0  0  0  0  0  0
   -2.9088   -1.4008    0.0000 C   0  0  0  0  0  0  0  0  0  0  0  0
   -4.1482   -0.5558    0.0000 C   0  0  0  0  0  0  0  0  0  0  0  0
   -5.4997   -1.2067    0.0000 C   0  0  0  0  0  0  0  0  0  0  0  0
   -5.6118   -2.7025    0.0000 C   0  0  0  0  0  0  0  0  0  0  0  0
   -4.3724   -3.5475    0.0000 C   0  0  0  0  0  0  0  0  0  0  0  0
   -3.0209   -2.8966    0.0000 C   0  0  0  0  0  0  0  0  0  0  0  0
   -1.5574    0.7500    0.0000 C   0  0  0  0  0  0  0  0  0  0  0  0
   -0.3846    1.6852    0.0000 C   0  0  0  0  0  0  0  0  0  0  0  0
   -1.4405    6.5040    0.0000 N   0  0  0  0  0  0  0  0  0  0  0  0
   -2.3932    7.6626    0.0000 C   0  0  0  0  0  0  0  0  0  0  0  0
   -3.3459    8.8213    0.0000 C   0  0  0  0  0  0  0  0  0  0  0  0
   -4.8256    8.5755    0.0000 C   0  0  0  0  0  0  0  0  0  0  0  0
   -5.3526    7.1712    0.0000 C   0  0  0  0  0  0  0  0  0  0  0  0
   -4.4000    6.0126    0.0000 C   0  0  0  0  0  0  0  0  0  0  0  0
   -2.9202    6.2583    0.0000 C   0  0  0  0  0  0  0  0  0  0  0  0
  1  2  2  0
  2  3  1  0
  3  4  1  0
  4  5  2  0
  5  6  1  0
  6  7  2  0
  7  8  1  0
  8  9  1  0
  9 10  1  0
 10 11  1  0
 11 12  1  0
 12 13  1  0
 13 14  1  0
 14 15  2  0
 15 16  1  0
 16 17  2  0
 17 18  1  0
 18 19  2  0
 13 20  1  0
 20 21  1  0
  2 22  1  0
 22 23  1  0
 23 24  2  0
 24 25  1  0
 25 26  2  0
 26 27  1  0
 27 28  2  0
  8  4  1  0
 21  9  1  0
 28 22  1  0
 19 14  1  0
 28 23  1  0
M  END
>  <Title>  (420) 
idAAOFgen6

$$$$

     RDKit          2D

 34 36  0  0  0  0  0  0  0  0999 V2000
    6.5321    0.0000    0.0000 C   0  0  0  0  0  0  0  0  0  0  0  0
    5.0321    0.0000    0.0000 C   0  0  0  0  0  0  0  0  0  0  0  0
    4.8086    1.4832    0.0000 C   0  0  0  0  0  0  0  0  0  0  0  0
    4.1577    2.8347    0.0000 C   0  0  0  0  0  0  0  0  0  0  0  0
    3.1375    3.9343    0.0000 C   0  0  0  0  0  0  0  0  0  0  0  0
    1.8384    4.6843    0.0000 C   0  0  0  0  0  0  0  0  0  0  0  0
    0.3761    5.0181    0.0000 C   0  0  0  0  0  0  0  0  0  0  0  0
   -1.1198    4.9060    0.0000 C   0  0  0  0  0  0  0  0  0  0  0  0
   -2.5161    4.3580    0.0000 C   0  0  0  0  0  0  0  0  0  0  0  0
   -3.6888    3.4227    0.0000 C   0  0  0  0  0  0  0  0  0  0  0  0
   -4.5338    2.1834    0.0000 C   0  0  0  0  0  0  0  0  0  0  0  0
   -4.9759    0.7500    0.0000 C   0  0  0  0  0  0  0  0  0  0  0  0
   -4.9759   -0.7500    0.0000 C   0  0  0  0  0  0  0  0  0  0  0  0
   -4.5338   -2.1834    0.0000 C   0  0  0  0  0  0  0  0  0  0  0  0
   -3.6888   -3.4227    0.0000 C   0  0  0  0  0  0  0  0  0  0  0  0
   -2.5161   -4.3580    0.0000 C   0  0  0  0  0  0  0  0  0  0  0  0
   -1.1198   -4.9060    0.0000 C   0  0  0  0  0  0  0  0  0  0  0  0
    0.3761   -5.0181    0.0000 C   0  0  0  0  0  0  0  0  0  0  0  0
    1.8384   -4.6843    0.0000 C   0  0  0  0  0  0  0  0  0  0  0  0
    3.1375   -3.9343    0.0000 C   0  0  0  0  0  0  0  0  0  0  0  0
    4.0727   -5.1070    0.0000 C   0  0  0  0  0  0  0  0  0  0  0  0
    3.5247   -6.5033    0.0000 C   0  0  0  0  0  0  0  0  0  0  0  0
    4.3322   -7.7674    0.0000 N   0  0  0  0  0  0  0  0  0  0  0  0
    3.3796   -8.9260    0.0000 N   0  0  0  0  0  0  0  0  0  0  0  0
    1.9832   -8.3780    0.0000 C   0  0  0  0  0  0  0  0  0  0  0  0
    0.7192   -9.1856    0.0000 N   0  0  0  0  0  0  0  0  0  0  0  0
    0.6295  -10.6829    0.0000 C   0  0  0  0  0  0  0  0  0  0  0  0
   -0.8223  -11.0603    0.0000 C   0  0  0  0  0  0  0  0  0  0  0  0
   -1.6298   -9.7962    0.0000 C   0  0  0  0  0  0  0  0  0  0  0  0
   -3.1271   -9.7065    0.0000 O   0  0  0  0  0  0  0  0  0  0  0  0
   -0.6771   -8.6375    0.0000 N   0  0  0  0  0  0  0  0  0  0  0  0
    2.0730   -6.8807    0.0000 C   0  0  0  0  0  0  0  0  0  0  0  0
    4.1577   -2.8347    0.0000 C   0  0  0  0  0  0  0  0  0  0  0  0
    4.8086   -1.4832    0.0000 C   0  0  0  0  0  0  0  0  0  0  0  0
  1  2  1  0
  2  3  1  0
  3  4  2  0
  4  5  1  0
  5  6  1  0
  6  7  1  0
  7  8  1  0
  8  9  1  0
  9 10  1  0
 10 11  1  0
 11 12  1  0
 12 13  1  0
 13 14  1  0
 14 15  1  0
 15 16  1  0
 16 17  1  0
 17 18  1  0
 18 19  1  0
 19 20  1  0
 20 21  1  0
 21 22  1  0
 22 23  2  0
 23 24  1  0
 24 25  2  0
 25 26  1  0
 26 27  1  0
 27 28  1  0
 28 29  1  0
 29 30  2  0
 29 31  1  0
 25 32  1  0
 20 33  1  0
 33 34  1  0
 34  2  1  0
 32 22  1  0
 31 26  1  0
M  END
>  <Title>  (421) 
idAAOGgen6

$$$$

     RDKit          2D

 23 25  0  0  0  0  0  0  0  0999 V2000
   -4.0476   -9.0333    0.0000 C   0  0  0  0  0  0  0  0  0  0  0  0
   -3.2366   -7.7714    0.0000 C   0  0  0  0  0  0  0  0  0  0  0  0
   -3.9240   -6.4381    0.0000 O   0  0  0  0  0  0  0  0  0  0  0  0
   -1.7383   -7.8428    0.0000 C   0  0  0  0  0  0  0  0  0  0  0  0
   -1.0510   -9.1760    0.0000 O   0  0  0  0  0  0  0  0  0  0  0  0
   -0.9274   -6.5809    0.0000 C   0  0  0  0  0  0  0  0  0  0  0  0
   -1.9097   -5.4473    0.0000 C   0  0  0  0  0  0  0  0  0  0  0  0
   -2.1231   -3.9625    0.0000 C   0  0  0  0  0  0  0  0  0  0  0  0
   -1.5000   -2.5981    0.0000 C   0  0  0  0  0  0  0  0  0  0  0  0
   -0.7500   -3.8971    0.0000 O   0  0  0  0  0  0  0  0  0  0  0  0
    0.7500   -3.8971    0.0000 C   0  0  0  0  0  0  0  0  0  0  0  0
    1.5000   -2.5981    0.0000 C   0  0  0  0  0  0  0  0  0  0  0  0
    3.1469   -3.9625    0.0000 C   0  0  0  0  0  0  0  0  0  0  0  0
    2.9334   -5.4473    0.0000 C   0  0  0  0  0  0  0  0  0  0  0  0
    1.9511   -6.5809    0.0000 C   0  0  0  0  0  0  0  0  0  0  0  0
    2.7621   -7.8428    0.0000 O   0  0  0  0  0  0  0  0  0  0  0  0
    0.5119   -7.0035    0.0000 N   0  0  0  0  0  0  0  0  0  0  0  0
    0.7500   -1.2990    0.0000 C   0  0  0  0  0  0  0  0  0  0  0  0
    1.5000    0.0000    0.0000 C   0  0  0  0  0  0  0  0  0  0  0  0
    0.7500    1.2990    0.0000 C   0  0  0  0  0  0  0  0  0  0  0  0
   -0.7500    1.2990    0.0000 C   0  0  0  0  0  0  0  0  0  0  0  0
   -1.5000    0.0000    0.0000 C   0  0  0  0  0  0  0  0  0  0  0  0
   -0.7500   -1.2990    0.0000 C   0  0  0  0  0  0  0  0  0  0  0  0
  1  2  1  0
  2  3  2  0
  2  4  1  0
  4  5  2  0
  4  6  1  0
  6  7  2  0
  7  8  1  0
  8  9  2  0
  9 10  1  0
 10 11  1  0
 11 12  1  0
 12 13  1  0
 13 14  1  0
 14 15  1  0
 15 16  2  0
 15 17  1  0
 12 18  1  0
 18 19  2  0
 19 20  1  0
 20 21  2  0
 21 22  1  0
 22 23  2  0
 17  6  1  0
 23 18  1  0
 23  9  1  0
M  END
>  <Title>  (422) 
idAAOHgen6

$$$$

     RDKit          2D

 14 14  0  0  0  0  0  0  0  0999 V2000
    5.0260    1.2990    0.0000 C   0  0  0  0  0  0  0  0  0  0  0  0
    3.5260    1.2990    0.0000 C   0  0  0  0  0  0  0  0  0  0  0  0
    2.7760    2.5981    0.0000 O   0  0  0  0  0  0  0  0  0  0  0  0
    2.7760    0.0000    0.0000 N   0  0  0  0  0  0  0  0  0  0  0  0
    1.2760    0.0000    0.0000 C   0  0  0  0  0  0  0  0  0  0  0  0
    0.3943    1.2135    0.0000 N   0  0  0  0  0  0  0  0  0  0  0  0
   -1.0323    0.7500    0.0000 N   0  0  0  0  0  0  0  0  0  0  0  0
   -1.0323   -0.7500    0.0000 N   0  0  0  0  0  0  0  0  0  0  0  0
    0.3943   -1.2135    0.0000 N   0  0  0  0  0  0  0  0  0  0  0  0
    0.8578   -2.6401    0.0000 C   0  0  0  0  0  0  0  0  0  0  0  0
    2.3250   -2.9520    0.0000 O   0  0  0  0  0  0  0  0  0  0  0  0
   -0.1459   -3.7548    0.0000 C   0  0  0  0  0  0  0  0  0  0  0  0
    0.3177   -5.1814    0.0000 C   0  0  0  0  0  0  0  0  0  0  0  0
   -1.6131   -3.4430    0.0000 O   0  0  0  0  0  0  0  0  0  0  0  0
  1  2  1  0
  2  3  2  0
  2  4  1  0
  4  5  1  0
  5  6  2  0
  6  7  1  0
  7  8  2  0
  8  9  1  0
  9 10  1  0
 10 11  2  0
 10 12  1  0
 12 13  1  0
 12 14  2  0
  9  5  1  0
M  END
>  <Title>  (423) 
idAAOIgen6

$$$$

     RDKit          2D

 47 51  0  0  0  0  0  0  0  0999 V2000
   -7.1616   -3.2393    0.0000 C   0  0  0  0  0  0  0  0  0  0  0  0
   -5.6626   -3.2948    0.0000 C   0  0  0  0  0  0  0  0  0  0  0  0
   -5.4417   -4.7784    0.0000 C   0  0  0  0  0  0  0  0  0  0  0  0
   -4.6997   -6.0820    0.0000 C   0  0  0  0  0  0  0  0  0  0  0  0
   -3.5369   -7.0296    0.0000 C   0  0  0  0  0  0  0  0  0  0  0  0
   -2.1103   -7.4931    0.0000 C   0  0  0  0  0  0  0  0  0  0  0  0
   -0.6126   -7.4100    0.0000 C   0  0  0  0  0  0  0  0  0  0  0  0
    0.7539   -6.7915    0.0000 C   0  0  0  0  0  0  0  0  0  0  0  0
    1.8047   -5.7211    0.0000 C   0  0  0  0  0  0  0  0  0  0  0  0
    2.3979   -4.3433    0.0000 C   0  0  0  0  0  0  0  0  0  0  0  0
    2.4533   -2.8444    0.0000 C   0  0  0  0  0  0  0  0  0  0  0  0
    1.9635   -1.4266    0.0000 C   0  0  0  0  0  0  0  0  0  0  0  0
    2.4271    0.0000    0.0000 C   0  0  0  0  0  0  0  0  0  0  0  0
    1.9635    1.4266    0.0000 C   0  0  0  0  0  0  0  0  0  0  0  0
    0.7500    2.3083    0.0000 C   0  0  0  0  0  0  0  0  0  0  0  0
   -0.7500    2.3083    0.0000 C   0  0  0  0  0  0  0  0  0  0  0  0
   -1.9635    1.4266    0.0000 C   0  0  0  0  0  0  0  0  0  0  0  0
   -2.4271    0.0000    0.0000 C   0  0  0  0  0  0  0  0  0  0  0  0
   -4.4965   -0.5862    0.0000 C   0  0  0  0  0  0  0  0  0  0  0  0
   -5.3327   -1.8315    0.0000 C   0  0  0  0  0  0  0  0  0  0  0  0
   -1.9635   -1.4266    0.0000 C   0  0  0  0  0  0  0  0  0  0  0  0
   -3.1771   -2.3083    0.0000 O   0  0  0  0  0  0  0  0  0  0  0  0
   -0.7500   -2.3083    0.0000 N   0  0  0  0  0  0  0  0  0  0  0  0
    0.7500   -2.3083    0.0000 C   0  0  0  0  0  0  0  0  0  0  0  0
    1.2135   -3.7348    0.0000 N   0  0  0  0  0  0  0  0  0  0  0  0
    2.6807   -4.0467    0.0000 N   0  0  0  0  0  0  0  0  0  0  0  0
    3.6844   -2.9320    0.0000 N   0  0  0  0  0  0  0  0  0  0  0  0
    5.1517   -3.2439    0.0000 N   0  0  0  0  0  0  0  0  0  0  0  0
    6.2664   -2.2402    0.0000 C   0  0  0  0  0  0  0  0  0  0  0  0
    7.5654   -2.9902    0.0000 C   0  0  0  0  0  0  0  0  0  0  0  0
    7.2536   -4.4574    0.0000 C   0  0  0  0  0  0  0  0  0  0  0  0
    8.2572   -5.5721    0.0000 N   0  0  0  0  0  0  0  0  0  0  0  0
    7.7937   -6.9987    0.0000 C   0  0  0  0  0  0  0  0  0  0  0  0
    8.7974   -8.1134    0.0000 C   0  0  0  0  0  0  0  0  0  0  0  0
   10.2646   -7.8015    0.0000 C   0  0  0  0  0  0  0  0  0  0  0  0
   11.2683   -8.9163    0.0000 C   0  0  0  0  0  0  0  0  0  0  0  0
   12.7356   -8.6044    0.0000 O   0  0  0  0  0  0  0  0  0  0  0  0
   10.8048  -10.3428    0.0000 O   0  0  0  0  0  0  0  0  0  0  0  0
   11.8085  -11.4576    0.0000 C   0  0  0  0  0  0  0  0  0  0  0  0
   11.3450  -12.8841    0.0000 C   0  0  0  0  0  0  0  0  0  0  0  0
   12.3487  -13.9989    0.0000 C   0  0  0  0  0  0  0  0  0  0  0  0
   13.8159  -13.6870    0.0000 C   0  0  0  0  0  0  0  0  0  0  0  0
   14.2794  -12.2604    0.0000 C   0  0  0  0  0  0  0  0  0  0  0  0
   13.2757  -11.1457    0.0000 C   0  0  0  0  0  0  0  0  0  0  0  0
   10.7282   -6.3750    0.0000 C   0  0  0  0  0  0  0  0  0  0  0  0
    9.7245   -5.2602    0.0000 C   0  0  0  0  0  0  0  0  0  0  0  0
    5.7618   -4.6142    0.0000 C   0  0  0  0  0  0  0  0  0  0  0  0
  1  2  1  0
  2  3  1  0
  3  4  1  0
  4  5  1  0
  5  6  1  0
  6  7  1  0
  7  8  1  0
  8  9  1  0
  9 10  1  0
 10 11  1  0
 11 12  1  0
 12 13  1  0
 13 14  1  0
 14 15  1  0
 15 16  1  0
 16 17  1  0
 17 18  1  0
 18 19  1  0
 19 20  1  0
 18 21  1  0
 21 22  2  0
 21 23  1  0
 23 24  1  0
 24 25  2  3
 25 26  1  0
 26 27  2  3
 27 28  1  0
 28 29  1  0
 29 30  1  0
 30 31  1  0
 31 32  1  0
 32 33  1  0
 33 34  1  0
 34 35  1  0
 35 36  1  0
 36 37  2  0
 36 38  1  0
 38 39  1  0
 39 40  2  0
 40 41  1  0
 41 42  2  0
 42 43  1  0
 43 44  2  0
 35 45  1  0
 45 46  1  0
 31 47  1  0
 20  2  1  0
 47 28  1  0
 24 12  1  0
 46 32  1  0
 44 39  1  0
M  END
>  <Title>  (424) 
idAAOJgen6

$$$$

     RDKit          2D

 20 22  0  0  0  0  0  0  0  0999 V2000
    2.7760    0.0000    0.0000 C   0  0  0  0  0  0  0  0  0  0  0  0
    1.2760    0.0000    0.0000 C   0  0  0  0  0  0  0  0  0  0  0  0
    0.3943    1.2135    0.0000 C   0  0  0  0  0  0  0  0  0  0  0  0
   -1.0323    0.7500    0.0000 C   0  0  0  0  0  0  0  0  0  0  0  0
   -1.0323   -0.7500    0.0000 C   0  0  0  0  0  0  0  0  0  0  0  0
   -2.2458   -1.6317    0.0000 C   0  0  0  0  0  0  0  0  0  0  0  0
   -2.0890   -3.1235    0.0000 O   0  0  0  0  0  0  0  0  0  0  0  0
   -3.6161   -1.0216    0.0000 N   0  0  0  0  0  0  0  0  0  0  0  0
   -4.8297   -1.9033    0.0000 C   0  0  0  0  0  0  0  0  0  0  0  0
   -4.8297   -3.4033    0.0000 N   0  0  0  0  0  0  0  0  0  0  0  0
   -6.2562   -3.8668    0.0000 N   0  0  0  0  0  0  0  0  0  0  0  0
   -7.1379   -2.6533    0.0000 N   0  0  0  0  0  0  0  0  0  0  0  0
   -6.2562   -1.4397    0.0000 N   0  0  0  0  0  0  0  0  0  0  0  0
   -6.7198   -0.0131    0.0000 N   0  0  0  0  0  0  0  0  0  0  0  0
   -8.1464    0.4504    0.0000 C   0  0  0  0  0  0  0  0  0  0  0  0
   -8.1464    1.9504    0.0000 C   0  0  0  0  0  0  0  0  0  0  0  0
   -6.7198    2.4139    0.0000 C   0  0  0  0  0  0  0  0  0  0  0  0
   -6.2562    3.8405    0.0000 O   0  0  0  0  0  0  0  0  0  0  0  0
   -5.8381    1.2004    0.0000 O   0  0  0  0  0  0  0  0  0  0  0  0
    0.3943   -1.2135    0.0000 C   0  0  0  0  0  0  0  0  0  0  0  0
  1  2  1  0
  2  3  1  0
  3  4  1  0
  4  5  1  0
  5  6  1  0
  6  7  2  0
  6  8  1  0
  8  9  1  0
  9 10  2  0
 10 11  1  0
 11 12  2  0
 12 13  1  0
 13 14  1  0
 14 15  1  0
 15 16  1  0
 16 17  1  0
 17 18  2  0
 17 19  1  0
  5 20  1  0
 20  2  1  0
 13  9  1  0
 19 14  1  0
M  END
>  <Title>  (425) 
idAAOKgen6

$$$$

     RDKit          2D

  7  8  0  0  0  0  0  0  0  0999 V2000
    1.5000    0.0000    0.0000 C   0  0  0  0  0  0  0  0  0  0  0  0
    0.7500   -1.2990    0.0000 C   0  0  0  0  0  0  0  0  0  0  0  0
   -0.7500   -1.2990    0.0000 C   0  0  0  0  0  0  0  0  0  0  0  0
   -1.5000    0.0000    0.0000 C   0  0  0  0  0  0  0  0  0  0  0  0
   -0.7500    1.2990    0.0000 C   0  0  0  0  0  0  0  0  0  0  0  0
    0.7500    1.2990    0.0000 C   0  0  0  0  0  0  0  0  0  0  0  0
   -2.2500    1.2990    0.0000 C   0  0  0  0  0  0  0  0  0  0  0  0
  1  2  2  0
  2  3  1  0
  3  4  2  0
  4  5  1  0
  5  6  2  0
  5  7  1  0
  6  1  1  0
  7  4  1  0
M  END
>  <Title>  (426) 
idAAOLgen6

$$$$

     RDKit          2D

 13 13  0  0  0  0  0  0  0  0999 V2000
    3.2286   -0.0000    0.0000 C   0  0  0  0  0  0  0  0  0  0  0  0
    1.7286    0.0000    0.0000 C   0  0  0  0  0  0  0  0  0  0  0  0
    1.0777    1.3515    0.0000 C   0  0  0  0  0  0  0  0  0  0  0  0
   -0.3846    1.6852    0.0000 C   0  0  0  0  0  0  0  0  0  0  0  0
   -1.5574    0.7500    0.0000 C   0  0  0  0  0  0  0  0  0  0  0  0
   -1.5574   -0.7500    0.0000 C   0  0  0  0  0  0  0  0  0  0  0  0
   -2.9088   -1.4008    0.0000 O   0  0  0  0  0  0  0  0  0  0  0  0
   -0.3846   -1.6852    0.0000 C   0  0  0  0  0  0  0  0  0  0  0  0
   -0.7184   -3.1476    0.0000 C   0  0  0  0  0  0  0  0  0  0  0  0
    0.3812   -4.1679    0.0000 O   0  0  0  0  0  0  0  0  0  0  0  0
   -2.1518   -3.5898    0.0000 O   0  0  0  0  0  0  0  0  0  0  0  0
    1.0777   -1.3515    0.0000 C   0  0  0  0  0  0  0  0  0  0  0  0
    2.0130   -2.5242    0.0000 C   0  0  0  0  0  0  0  0  0  0  0  0
  1  2  1  0
  2  3  1  0
  3  4  2  0
  4  5  1  0
  5  6  2  0
  6  7  1  0
  6  8  1  0
  8  9  1  0
  9 10  2  0
  9 11  1  0
  8 12  1  0
 12 13  1  0
 12  2  1  0
M  END
>  <Title>  (427) 
idAAOMgen6

$$$$

     RDKit          2D

 21 21  0  0  0  0  0  0  0  0999 V2000
    9.7500   -3.8971    0.0000 C   0  0  0  0  0  0  0  0  0  0  0  0
    8.2500   -3.8971    0.0000 C   0  0  0  0  0  0  0  0  0  0  0  0
    7.5000   -5.1962    0.0000 C   0  0  0  0  0  0  0  0  0  0  0  0
    6.0000   -5.1962    0.0000 O   0  0  0  0  0  0  0  0  0  0  0  0
    8.2500   -6.4952    0.0000 O   0  0  0  0  0  0  0  0  0  0  0  0
    7.5000   -2.5981    0.0000 C   0  0  0  0  0  0  0  0  0  0  0  0
    8.2500   -1.2990    0.0000 O   0  0  0  0  0  0  0  0  0  0  0  0
    6.0000   -2.5981    0.0000 N   0  0  0  0  0  0  0  0  0  0  0  0
    5.2500   -1.2990    0.0000 C   0  0  0  0  0  0  0  0  0  0  0  0
    6.0000    0.0000    0.0000 O   0  0  0  0  0  0  0  0  0  0  0  0
    3.7500   -1.2990    0.0000 C   0  0  0  0  0  0  0  0  0  0  0  0
    3.0000    0.0000    0.0000 C   0  0  0  0  0  0  0  0  0  0  0  0
    1.5000    0.0000    0.0000 C   0  0  0  0  0  0  0  0  0  0  0  0
    0.7500   -1.2990    0.0000 C   0  0  0  0  0  0  0  0  0  0  0  0
   -0.7500   -1.2990    0.0000 C   0  0  0  0  0  0  0  0  0  0  0  0
   -1.5000    0.0000    0.0000 C   0  0  0  0  0  0  0  0  0  0  0  0
   -0.7500    1.2990    0.0000 C   0  0  0  0  0  0  0  0  0  0  0  0
    0.7500    1.2990    0.0000 C   0  0  0  0  0  0  0  0  0  0  0  0
    3.0000   -2.5981    0.0000 C   0  0  0  0  0  0  0  0  0  0  0  0
    1.5000   -2.5981    0.0000 O   0  0  0  0  0  0  0  0  0  0  0  0
    3.7500   -3.8971    0.0000 O   0  0  0  0  0  0  0  0  0  0  0  0
  1  2  1  0
  2  3  1  0
  3  4  2  0
  3  5  1  0
  2  6  1  0
  6  7  2  0
  6  8  1  0
  8  9  1  0
  9 10  2  0
  9 11  1  0
 11 12  1  0
 12 13  1  0
 13 14  2  0
 14 15  1  0
 15 16  2  0
 16 17  1  0
 17 18  2  0
 11 19  1  0
 19 20  2  0
 19 21  1  0
 18 13  1  0
M  END
>  <Title>  (428) 
idAAONgen6

$$$$

     RDKit          2D

 10 10  0  0  0  0  0  0  0  0999 V2000
    3.7500   -1.2990    0.0000 C   0  0  0  0  0  0  0  0  0  0  0  0
    3.0000    0.0000    0.0000 O   0  0  0  0  0  0  0  0  0  0  0  0
    1.5000    0.0000    0.0000 C   0  0  0  0  0  0  0  0  0  0  0  0
    0.7500   -1.2990    0.0000 C   0  0  0  0  0  0  0  0  0  0  0  0
   -0.7500   -1.2990    0.0000 C   0  0  0  0  0  0  0  0  0  0  0  0
   -1.5000    0.0000    0.0000 C   0  0  0  0  0  0  0  0  0  0  0  0
   -3.0000    0.0000    0.0000 C   0  0  0  0  0  0  0  0  0  0  0  0
   -0.7500    1.2990    0.0000 C   0  0  0  0  0  0  0  0  0  0  0  0
    0.7500    1.2990    0.0000 C   0  0  0  0  0  0  0  0  0  0  0  0
    1.5000    2.5981    0.0000 C   0  0  0  0  0  0  0  0  0  0  0  0
  1  2  1  0
  2  3  1  0
  3  4  2  0
  4  5  1  0
  5  6  2  0
  6  7  1  0
  6  8  1  0
  8  9  2  0
  9 10  1  0
  9  3  1  0
M  END
>  <Title>  (429) 
idAAOOgen6

$$$$

     RDKit          2D

 11 11  0  0  0  0  0  0  0  0999 V2000
    3.5260   -1.2990    0.0000 C   0  0  0  0  0  0  0  0  0  0  0  0
    2.7760    0.0000    0.0000 O   0  0  0  0  0  0  0  0  0  0  0  0
    1.2760    0.0000    0.0000 C   0  0  0  0  0  0  0  0  0  0  0  0
    0.3943    1.2135    0.0000 C   0  0  0  0  0  0  0  0  0  0  0  0
   -1.0323    0.7500    0.0000 C   0  0  0  0  0  0  0  0  0  0  0  0
   -1.0323   -0.7500    0.0000 C   0  0  0  0  0  0  0  0  0  0  0  0
   -2.2458   -1.6317    0.0000 C   0  0  0  0  0  0  0  0  0  0  0  0
   -2.0890   -3.1235    0.0000 O   0  0  0  0  0  0  0  0  0  0  0  0
   -3.6161   -1.0216    0.0000 O   0  0  0  0  0  0  0  0  0  0  0  0
    0.3943   -1.2135    0.0000 C   0  0  0  0  0  0  0  0  0  0  0  0
    0.8578   -2.6401    0.0000 O   0  0  0  0  0  0  0  0  0  0  0  0
  1  2  1  0
  2  3  1  0
  3  4  1  0
  4  5  2  0
  5  6  1  0
  6  7  1  0
  7  8  2  0
  7  9  1  0
  6 10  1  0
 10 11  2  0
 10  3  1  0
M  END
>  <Title>  (430) 
idAAOPgen6

$$$$

     RDKit          2D

 33 37  0  0  0  0  0  0  0  0999 V2000
   -3.1476   -2.1380    0.0000 C   0  0  0  0  0  0  0  0  0  0  0  0
   -1.6852   -2.4718    0.0000 C   0  0  0  0  0  0  0  0  0  0  0  0
   -1.3515   -3.9342    0.0000 C   0  0  0  0  0  0  0  0  0  0  0  0
   -0.0000   -4.5850    0.0000 C   0  0  0  0  0  0  0  0  0  0  0  0
    1.3515   -3.9342    0.0000 C   0  0  0  0  0  0  0  0  0  0  0  0
    2.5242   -4.8694    0.0000 N   0  0  0  0  0  0  0  0  0  0  0  0
    3.9701   -4.4704    0.0000 C   0  0  0  0  0  0  0  0  0  0  0  0
    4.7965   -5.7222    0.0000 C   0  0  0  0  0  0  0  0  0  0  0  0
    3.8613   -6.8950    0.0000 C   0  0  0  0  0  0  0  0  0  0  0  0
    2.4569   -6.3679    0.0000 C   0  0  0  0  0  0  0  0  0  0  0  0
    1.2050   -7.1942    0.0000 O   0  0  0  0  0  0  0  0  0  0  0  0
    1.6852   -2.4718    0.0000 C   0  0  0  0  0  0  0  0  0  0  0  0
    3.1476   -2.1380    0.0000 C   0  0  0  0  0  0  0  0  0  0  0  0
    3.2298   -0.6403    0.0000 O   0  0  0  0  0  0  0  0  0  0  0  0
    4.1679   -3.2376    0.0000 N   0  0  0  0  0  0  0  0  0  0  0  0
    5.6303   -2.9038    0.0000 C   0  0  0  0  0  0  0  0  0  0  0  0
    6.7599   -3.8907    0.0000 N   0  0  0  0  0  0  0  0  0  0  0  0
    8.0476   -3.1214    0.0000 N   0  0  0  0  0  0  0  0  0  0  0  0
    7.7138   -1.6590    0.0000 N   0  0  0  0  0  0  0  0  0  0  0  0
    6.2198   -1.5245    0.0000 N   0  0  0  0  0  0  0  0  0  0  0  0
    5.4505   -0.2368    0.0000 C   0  0  0  0  0  0  0  0  0  0  0  0
    3.9506   -0.2593    0.0000 C   0  0  0  0  0  0  0  0  0  0  0  0
    3.1813    1.0284    0.0000 C   0  0  0  0  0  0  0  0  0  0  0  0
    3.9118    2.3385    0.0000 C   0  0  0  0  0  0  0  0  0  0  0  0
    5.4116    2.3610    0.0000 C   0  0  0  0  0  0  0  0  0  0  0  0
    6.1809    1.0733    0.0000 C   0  0  0  0  0  0  0  0  0  0  0  0
    0.7500   -1.2990    0.0000 C   0  0  0  0  0  0  0  0  0  0  0  0
    1.5000    0.0000    0.0000 C   0  0  0  0  0  0  0  0  0  0  0  0
    0.7500    1.2990    0.0000 C   0  0  0  0  0  0  0  0  0  0  0  0
   -0.7500    1.2990    0.0000 C   0  0  0  0  0  0  0  0  0  0  0  0
   -1.5000    2.5981    0.0000 O   0  0  0  0  0  0  0  0  0  0  0  0
   -1.5000    0.0000    0.0000 C   0  0  0  0  0  0  0  0  0  0  0  0
   -0.7500   -1.2990    0.0000 C   0  0  0  0  0  0  0  0  0  0  0  0
  1  2  1  0
  2  3  2  0
  3  4  1  0
  4  5  2  0
  5  6  1  0
  6  7  1  0
  7  8  1  0
  8  9  1  0
  9 10  1  0
 10 11  2  0
  5 12  1  0
 12 13  1  0
 13 14  2  0
 13 15  1  0
 15 16  1  0
 16 17  2  0
 17 18  1  0
 18 19  2  0
 19 20  1  0
 20 21  1  0
 21 22  2  0
 22 23  1  0
 23 24  2  0
 24 25  1  0
 25 26  2  0
 12 27  1  0
 27 28  2  0
 28 29  1  0
 29 30  2  0
 30 31  1  0
 30 32  1  0
 32 33  2  0
 33  2  1  0
 10  6  1  0
 20 16  1  0
 26 21  1  0
 33 27  1  0
M  END
>  <Title>  (431) 
idAAOQgen6

$$$$

     RDKit          2D

 20 21  0  0  0  0  0  0  0  0999 V2000
    5.2500   -1.2990    0.0000 C   0  0  0  0  0  0  0  0  0  0  0  0
    3.7500   -1.2990    0.0000 C   0  0  0  0  0  0  0  0  0  0  0  0
    3.0000   -2.5981    0.0000 O   0  0  0  0  0  0  0  0  0  0  0  0
    3.0000    0.0000    0.0000 C   0  0  0  0  0  0  0  0  0  0  0  0
    3.7500    1.2990    0.0000 O   0  0  0  0  0  0  0  0  0  0  0  0
    1.5000    0.0000    0.0000 C   0  0  0  0  0  0  0  0  0  0  0  0
    0.7500   -1.2990    0.0000 C   0  0  0  0  0  0  0  0  0  0  0  0
   -0.7500   -1.2990    0.0000 C   0  0  0  0  0  0  0  0  0  0  0  0
   -1.5000    0.0000    0.0000 C   0  0  0  0  0  0  0  0  0  0  0  0
   -3.0000    0.0000    0.0000 C   0  0  0  0  0  0  0  0  0  0  0  0
   -3.7500   -1.2990    0.0000 O   0  0  0  0  0  0  0  0  0  0  0  0
   -3.7500    1.2990    0.0000 N   0  0  0  0  0  0  0  0  0  0  0  0
   -5.2500    1.2990    0.0000 C   0  0  0  0  0  0  0  0  0  0  0  0
   -6.0000    2.5981    0.0000 C   0  0  0  0  0  0  0  0  0  0  0  0
   -7.5000    2.5981    0.0000 C   0  0  0  0  0  0  0  0  0  0  0  0
   -8.2500    1.2990    0.0000 C   0  0  0  0  0  0  0  0  0  0  0  0
   -7.5000    0.0000    0.0000 C   0  0  0  0  0  0  0  0  0  0  0  0
   -6.0000    0.0000    0.0000 C   0  0  0  0  0  0  0  0  0  0  0  0
   -0.7500    1.2990    0.0000 C   0  0  0  0  0  0  0  0  0  0  0  0
    0.7500    1.2990    0.0000 C   0  0  0  0  0  0  0  0  0  0  0  0
  1  2  1  0
  2  3  2  0
  2  4  1  0
  4  5  2  0
  4  6  1  0
  6  7  1  0
  7  8  1  0
  8  9  1  0
  9 10  1  0
 10 11  2  0
 10 12  1  0
 12 13  1  0
 13 14  2  0
 14 15  1  0
 15 16  2  0
 16 17  1  0
 17 18  2  0
  9 19  1  0
 19 20  1  0
 20  6  1  0
 18 13  1  0
M  END
>  <Title>  (432) 
idAAORgen6

$$$$

     RDKit          2D

 34 37  0  0  0  0  0  0  0  0999 V2000
    1.5000   -5.1962    0.0000 C   0  0  0  0  0  0  0  0  0  0  0  0
    0.7500   -3.8971    0.0000 C   0  0  0  0  0  0  0  0  0  0  0  0
   -0.7500   -3.8971    0.0000 O   0  0  0  0  0  0  0  0  0  0  0  0
    1.5000   -2.5981    0.0000 C   0  0  0  0  0  0  0  0  0  0  0  0
    0.7500   -1.2990    0.0000 C   0  0  0  0  0  0  0  0  0  0  0  0
    1.5000    0.0000    0.0000 C   0  0  0  0  0  0  0  0  0  0  0  0
    0.7500    1.2990    0.0000 C   0  0  0  0  0  0  0  0  0  0  0  0
   -0.7500    1.2990    0.0000 C   0  0  0  0  0  0  0  0  0  0  0  0
   -1.5000    0.0000    0.0000 C   0  0  0  0  0  0  0  0  0  0  0  0
   -0.7500   -1.2990    0.0000 C   0  0  0  0  0  0  0  0  0  0  0  0
    3.0000   -2.5981    0.0000 N   0  0  0  0  0  0  0  0  0  0  0  0
    3.7500   -3.8971    0.0000 C   0  0  0  0  0  0  0  0  0  0  0  0
    5.2500   -3.8971    0.0000 C   0  0  0  0  0  0  0  0  0  0  0  0
    6.0000   -2.5981    0.0000 C   0  0  0  0  0  0  0  0  0  0  0  0
    7.5000   -2.5981    0.0000 N   0  0  0  0  0  0  0  0  0  0  0  0
    8.3817   -1.3846    0.0000 C   0  0  0  0  0  0  0  0  0  0  0  0
    9.8083   -1.8481    0.0000 C   0  0  0  0  0  0  0  0  0  0  0  0
    9.8083   -3.3481    0.0000 C   0  0  0  0  0  0  0  0  0  0  0  0
   11.0218   -4.2298    0.0000 C   0  0  0  0  0  0  0  0  0  0  0  0
   12.3921   -3.6196    0.0000 O   0  0  0  0  0  0  0  0  0  0  0  0
   10.8650   -5.7215    0.0000 N   0  0  0  0  0  0  0  0  0  0  0  0
   12.0785   -6.6032    0.0000 C   0  0  0  0  0  0  0  0  0  0  0  0
   13.4488   -5.9931    0.0000 O   0  0  0  0  0  0  0  0  0  0  0  0
   11.9217   -8.0950    0.0000 O   0  0  0  0  0  0  0  0  0  0  0  0
   13.1353   -8.9767    0.0000 C   0  0  0  0  0  0  0  0  0  0  0  0
   12.9785  -10.4685    0.0000 C   0  0  0  0  0  0  0  0  0  0  0  0
   14.1920  -11.3501    0.0000 C   0  0  0  0  0  0  0  0  0  0  0  0
   15.5623  -10.7400    0.0000 C   0  0  0  0  0  0  0  0  0  0  0  0
   15.7191   -9.2482    0.0000 C   0  0  0  0  0  0  0  0  0  0  0  0
   14.5056   -8.3666    0.0000 C   0  0  0  0  0  0  0  0  0  0  0  0
    8.3817   -3.8116    0.0000 C   0  0  0  0  0  0  0  0  0  0  0  0
    7.9182   -5.2382    0.0000 O   0  0  0  0  0  0  0  0  0  0  0  0
    5.2500   -1.2990    0.0000 C   0  0  0  0  0  0  0  0  0  0  0  0
    3.7500   -1.2990    0.0000 C   0  0  0  0  0  0  0  0  0  0  0  0
  1  2  1  0
  2  3  2  0
  2  4  1  0
  4  5  1  0
  5  6  2  0
  6  7  1  0
  7  8  2  0
  8  9  1  0
  9 10  2  0
  4 11  1  0
 11 12  1  0
 12 13  1  0
 13 14  1  0
 14 15  1  0
 15 16  1  0
 16 17  1  0
 17 18  1  0
 18 19  1  0
 19 20  2  0
 19 21  1  0
 21 22  1  0
 22 23  2  0
 22 24  1  0
 24 25  1  0
 25 26  2  0
 26 27  1  0
 27 28  2  0
 28 29  1  0
 29 30  2  0
 18 31  1  0
 31 32  2  0
 14 33  1  0
 33 34  1  0
 10  5  1  0
 34 11  1  0
 31 15  1  0
 30 25  1  0
M  END
>  <Title>  (433) 
idAAOSgen6

$$$$

     RDKit          2D

 54 61  0  0  0  0  0  0  0  0999 V2000
    1.0105  -11.2832    0.0000 C   0  0  0  0  0  0  0  0  0  0  0  0
    0.7500   -9.8060    0.0000 C   0  0  0  0  0  0  0  0  0  0  0  0
    2.1595   -9.2929    0.0000 C   0  0  0  0  0  0  0  0  0  0  0  0
    3.3086   -8.3287    0.0000 C   0  0  0  0  0  0  0  0  0  0  0  0
    4.0586   -7.0297    0.0000 C   0  0  0  0  0  0  0  0  0  0  0  0
    4.3191   -5.5525    0.0000 C   0  0  0  0  0  0  0  0  0  0  0  0
    4.0586   -4.0753    0.0000 C   0  0  0  0  0  0  0  0  0  0  0  0
    5.4681   -3.5623    0.0000 C   0  0  0  0  0  0  0  0  0  0  0  0
    5.7286   -2.0850    0.0000 O   0  0  0  0  0  0  0  0  0  0  0  0
    6.6172   -4.5264    0.0000 N   0  0  0  0  0  0  0  0  0  0  0  0
    8.0268   -4.0134    0.0000 C   0  0  0  0  0  0  0  0  0  0  0  0
    9.1758   -4.9776    0.0000 N   0  0  0  0  0  0  0  0  0  0  0  0
   10.5854   -4.4646    0.0000 N   0  0  0  0  0  0  0  0  0  0  0  0
   10.8458   -2.9873    0.0000 N   0  0  0  0  0  0  0  0  0  0  0  0
    9.6968   -2.0232    0.0000 N   0  0  0  0  0  0  0  0  0  0  0  0
    8.2872   -2.5362    0.0000 N   0  0  0  0  0  0  0  0  0  0  0  0
    3.3086   -2.7762    0.0000 C   0  0  0  0  0  0  0  0  0  0  0  0
    4.7181   -2.2632    0.0000 C   0  0  0  0  0  0  0  0  0  0  0  0
    4.9786   -0.7860    0.0000 C   0  0  0  0  0  0  0  0  0  0  0  0
    3.8296    0.1782    0.0000 C   0  0  0  0  0  0  0  0  0  0  0  0
    4.0900    1.6554    0.0000 O   0  0  0  0  0  0  0  0  0  0  0  0
    2.4200   -0.3349    0.0000 C   0  0  0  0  0  0  0  0  0  0  0  0
    2.1595   -1.8121    0.0000 C   0  0  0  0  0  0  0  0  0  0  0  0
    0.7500   -1.2990    0.0000 C   0  0  0  0  0  0  0  0  0  0  0  0
    1.5000    0.0000    0.0000 C   0  0  0  0  0  0  0  0  0  0  0  0
    0.7500    1.2990    0.0000 C   0  0  0  0  0  0  0  0  0  0  0  0
   -0.7500    1.2990    0.0000 C   0  0  0  0  0  0  0  0  0  0  0  0
   -1.5000    0.0000    0.0000 C   0  0  0  0  0  0  0  0  0  0  0  0
   -0.7500   -1.2990    0.0000 C   0  0  0  0  0  0  0  0  0  0  0  0
   -2.1595   -1.8121    0.0000 C   0  0  0  0  0  0  0  0  0  0  0  0
   -2.4200   -0.3349    0.0000 C   0  0  0  0  0  0  0  0  0  0  0  0
   -3.8296    0.1782    0.0000 C   0  0  0  0  0  0  0  0  0  0  0  0
   -4.9786   -0.7860    0.0000 C   0  0  0  0  0  0  0  0  0  0  0  0
   -4.7181   -2.2632    0.0000 C   0  0  0  0  0  0  0  0  0  0  0  0
   -3.3086   -2.7762    0.0000 C   0  0  0  0  0  0  0  0  0  0  0  0
   -4.0586   -4.0753    0.0000 C   0  0  0  0  0  0  0  0  0  0  0  0
   -5.2077   -3.1111    0.0000 C   0  0  0  0  0  0  0  0  0  0  0  0
   -6.6172   -3.6241    0.0000 C   0  0  0  0  0  0  0  0  0  0  0  0
   -6.8777   -5.1013    0.0000 C   0  0  0  0  0  0  0  0  0  0  0  0
   -5.7286   -6.0655    0.0000 C   0  0  0  0  0  0  0  0  0  0  0  0
   -6.3388   -7.4358    0.0000 F   0  0  0  0  0  0  0  0  0  0  0  0
   -4.3191   -5.5525    0.0000 C   0  0  0  0  0  0  0  0  0  0  0  0
   -4.0586   -7.0297    0.0000 C   0  0  0  0  0  0  0  0  0  0  0  0
   -5.5586   -7.0297    0.0000 C   0  0  0  0  0  0  0  0  0  0  0  0
   -6.3086   -8.3287    0.0000 C   0  0  0  0  0  0  0  0  0  0  0  0
   -5.5586   -9.6278    0.0000 C   0  0  0  0  0  0  0  0  0  0  0  0
   -4.0586   -9.6278    0.0000 C   0  0  0  0  0  0  0  0  0  0  0  0
   -3.3086   -8.3287    0.0000 C   0  0  0  0  0  0  0  0  0  0  0  0
   -2.1595   -9.2929    0.0000 C   0  0  0  0  0  0  0  0  0  0  0  0
   -3.3086  -10.2571    0.0000 C   0  0  0  0  0  0  0  0  0  0  0  0
   -3.0481  -11.7343    0.0000 C   0  0  0  0  0  0  0  0  0  0  0  0
   -1.6386  -12.2474    0.0000 C   0  0  0  0  0  0  0  0  0  0  0  0
   -0.4895  -11.2832    0.0000 C   0  0  0  0  0  0  0  0  0  0  0  0
   -0.7500   -9.8060    0.0000 C   0  0  0  0  0  0  0  0  0  0  0  0
  1  2  1  0
  2  3  1  0
  3  4  1  0
  4  5  1  0
  5  6  1  0
  6  7  1  0
  7  8  1  0
  8  9  2  0
  8 10  1  0
 10 11  1  0
 11 12  2  0
 12 13  1  0
 13 14  2  0
 14 15  1  0
 15 16  2  0
  7 17  1  0
 17 18  2  0
 18 19  1  0
 19 20  2  0
 20 21  1  0
 20 22  1  0
 22 23  2  0
 23 24  1  0
 24 25  2  0
 25 26  1  0
 26 27  2  0
 27 28  1  0
 28 29  2  0
 29 30  1  0
 30 31  2  0
 31 32  1  0
 32 33  2  0
 33 34  1  0
 34 35  2  0
 35 36  1  0
 36 37  2  0
 37 38  1  0
 38 39  2  0
 39 40  1  0
 40 41  1  0
 40 42  2  0
 42 43  1  0
 43 44  2  0
 44 45  1  0
 45 46  2  0
 46 47  1  0
 47 48  2  0
 48 49  1  0
 49 50  2  0
 50 51  1  0
 51 52  2  0
 52 53  1  0
 53 54  2  0
 54  2  1  0
 16 11  1  0
 23 17  1  0
 29 24  1  0
 35 30  1  0
 42 36  1  0
 48 43  1  0
 54 49  1  0
M  END
>  <Title>  (434) 
idAAOTgen6

$$$$

     RDKit          2D

 11 11  0  0  0  0  0  0  0  0999 V2000
    3.2286   -0.0000    0.0000 C   0  0  0  0  0  0  0  0  0  0  0  0
    1.7286    0.0000    0.0000 C   0  0  0  0  0  0  0  0  0  0  0  0
    1.0777    1.3515    0.0000 C   0  0  0  0  0  0  0  0  0  0  0  0
   -0.3846    1.6852    0.0000 C   0  0  0  0  0  0  0  0  0  0  0  0
   -1.5574    0.7500    0.0000 C   0  0  0  0  0  0  0  0  0  0  0  0
   -1.5574   -0.7500    0.0000 C   0  0  0  0  0  0  0  0  0  0  0  0
   -0.3846   -1.6852    0.0000 C   0  0  0  0  0  0  0  0  0  0  0  0
    1.0777   -1.3515    0.0000 C   0  0  0  0  0  0  0  0  0  0  0  0
    2.0130   -2.5242    0.0000 C   0  0  0  0  0  0  0  0  0  0  0  0
    3.4962   -2.3006    0.0000 O   0  0  0  0  0  0  0  0  0  0  0  0
    1.4650   -3.9205    0.0000 O   0  0  0  0  0  0  0  0  0  0  0  0
  1  2  1  0
  2  3  1  0
  3  4  2  0
  4  5  1  0
  5  6  2  0
  6  7  1  0
  7  8  2  0
  8  9  1  0
  9 10  2  0
  9 11  1  0
  8  2  1  0
M  END
>  <Title>  (435) 
idAAOUgen6

$$$$

     RDKit          2D

 22 24  0  0  0  0  0  0  0  0999 V2000
   -3.0000   -2.5981    0.0000 C   0  0  0  0  0  0  0  0  0  0  0  0
   -1.5000   -2.5981    0.0000 C   0  0  0  0  0  0  0  0  0  0  0  0
   -0.7500   -3.8971    0.0000 C   0  0  0  0  0  0  0  0  0  0  0  0
    0.7500   -3.8971    0.0000 C   0  0  0  0  0  0  0  0  0  0  0  0
    1.5000   -2.5981    0.0000 C   0  0  0  0  0  0  0  0  0  0  0  0
    3.0000   -2.5981    0.0000 C   0  0  0  0  0  0  0  0  0  0  0  0
    3.7500   -1.2990    0.0000 O   0  0  0  0  0  0  0  0  0  0  0  0
    3.7500   -3.8971    0.0000 N   0  0  0  0  0  0  0  0  0  0  0  0
    5.2500   -3.8971    0.0000 C   0  0  0  0  0  0  0  0  0  0  0  0
    6.0000   -5.1962    0.0000 N   0  0  0  0  0  0  0  0  0  0  0  0
    7.5000   -5.1962    0.0000 N   0  0  0  0  0  0  0  0  0  0  0  0
    8.2500   -3.8971    0.0000 C   0  0  0  0  0  0  0  0  0  0  0  0
    7.5000   -2.5981    0.0000 N   0  0  0  0  0  0  0  0  0  0  0  0
    6.0000   -2.5981    0.0000 N   0  0  0  0  0  0  0  0  0  0  0  0
    0.7500   -1.2990    0.0000 C   0  0  0  0  0  0  0  0  0  0  0  0
    1.5000    0.0000    0.0000 C   0  0  0  0  0  0  0  0  0  0  0  0
    0.7500    1.2990    0.0000 C   0  0  0  0  0  0  0  0  0  0  0  0
   -0.7500    1.2990    0.0000 C   0  0  0  0  0  0  0  0  0  0  0  0
   -1.5000    2.5981    0.0000 C   0  0  0  0  0  0  0  0  0  0  0  0
   -2.2500    3.8971    0.0000 N   0  0  0  0  0  0  0  0  0  0  0  0
   -1.5000    0.0000    0.0000 C   0  0  0  0  0  0  0  0  0  0  0  0
   -0.7500   -1.2990    0.0000 C   0  0  0  0  0  0  0  0  0  0  0  0
  1  2  1  0
  2  3  2  0
  3  4  1  0
  4  5  2  0
  5  6  1  0
  6  7  2  0
  6  8  1  0
  8  9  1  0
  9 10  2  0
 10 11  1  0
 11 12  2  0
 12 13  1  0
 13 14  2  0
  5 15  1  0
 15 16  2  0
 16 17  1  0
 17 18  2  0
 18 19  1  0
 19 20  3  0
 18 21  1  0
 21 22  2  0
 22  2  1  0
 14  9  1  0
 22 15  1  0
M  END
>  <Title>  (436) 
idAAOVgen6

$$$$

     RDKit          2D

 19 21  0  0  0  0  0  0  0  0999 V2000
   -2.6401   -3.1891    0.0000 C   0  0  0  0  0  0  0  0  0  0  0  0
   -1.2135   -2.7256    0.0000 C   0  0  0  0  0  0  0  0  0  0  0  0
   -0.0000   -3.6073    0.0000 C   0  0  0  0  0  0  0  0  0  0  0  0
    1.2135   -2.7256    0.0000 C   0  0  0  0  0  0  0  0  0  0  0  0
    2.6401   -3.1891    0.0000 C   0  0  0  0  0  0  0  0  0  0  0  0
    3.7548   -2.1855    0.0000 O   0  0  0  0  0  0  0  0  0  0  0  0
    2.9520   -4.6564    0.0000 N   0  0  0  0  0  0  0  0  0  0  0  0
    4.3786   -5.1199    0.0000 C   0  0  0  0  0  0  0  0  0  0  0  0
    4.6904   -6.5871    0.0000 N   0  0  0  0  0  0  0  0  0  0  0  0
    6.1170   -7.0506    0.0000 N   0  0  0  0  0  0  0  0  0  0  0  0
    7.2317   -6.0469    0.0000 N   0  0  0  0  0  0  0  0  0  0  0  0
    6.9199   -4.5797    0.0000 N   0  0  0  0  0  0  0  0  0  0  0  0
    5.4933   -4.1162    0.0000 N   0  0  0  0  0  0  0  0  0  0  0  0
    0.7500   -1.2990    0.0000 C   0  0  0  0  0  0  0  0  0  0  0  0
    1.5000    0.0000    0.0000 C   0  0  0  0  0  0  0  0  0  0  0  0
    0.7500    1.2990    0.0000 C   0  0  0  0  0  0  0  0  0  0  0  0
   -0.7500    1.2990    0.0000 C   0  0  0  0  0  0  0  0  0  0  0  0
   -1.5000    0.0000    0.0000 C   0  0  0  0  0  0  0  0  0  0  0  0
   -0.7500   -1.2990    0.0000 C   0  0  0  0  0  0  0  0  0  0  0  0
  1  2  1  0
  2  3  2  0
  3  4  1  0
  4  5  1  0
  5  6  2  0
  5  7  1  0
  7  8  1  0
  8  9  2  0
  9 10  1  0
 10 11  2  0
 11 12  1  0
 12 13  2  0
  4 14  1  0
 14 15  2  0
 15 16  1  0
 16 17  2  0
 17 18  1  0
 18 19  2  0
 19  2  1  0
 13  8  1  0
 19 14  1  0
M  END
>  <Title>  (437) 
idAAOWgen6

$$$$

     RDKit          2D

 46 51  0  0  0  0  0  0  0  0999 V2000
    4.7170    3.4226    0.0000 C   0  0  0  0  0  0  0  0  0  0  0  0
    3.3074    2.9095    0.0000 C   0  0  0  0  0  0  0  0  0  0  0  0
    3.3074    1.4095    0.0000 C   0  0  0  0  0  0  0  0  0  0  0  0
    2.3432    0.2605    0.0000 C   0  0  0  0  0  0  0  0  0  0  0  0
    0.8660    0.0000    0.0000 C   0  0  0  0  0  0  0  0  0  0  0  0
   -0.4330    0.7500    0.0000 C   0  0  0  0  0  0  0  0  0  0  0  0
   -0.9460    2.1595    0.0000 C   0  0  0  0  0  0  0  0  0  0  0  0
   -0.4330    3.5691    0.0000 C   0  0  0  0  0  0  0  0  0  0  0  0
   -1.5821    4.5333    0.0000 C   0  0  0  0  0  0  0  0  0  0  0  0
   -1.3216    6.0105    0.0000 C   0  0  0  0  0  0  0  0  0  0  0  0
   -2.4707    6.9747    0.0000 C   0  0  0  0  0  0  0  0  0  0  0  0
   -3.8802    6.4616    0.0000 C   0  0  0  0  0  0  0  0  0  0  0  0
   -4.1407    4.9844    0.0000 C   0  0  0  0  0  0  0  0  0  0  0  0
   -2.9916    4.0202    0.0000 C   0  0  0  0  0  0  0  0  0  0  0  0
    0.8660    4.3191    0.0000 C   0  0  0  0  0  0  0  0  0  0  0  0
    2.3432    4.0586    0.0000 C   0  0  0  0  0  0  0  0  0  0  0  0
   -0.4330   -0.7500    0.0000 N   0  0  0  0  0  0  0  0  0  0  0  0
   -1.1830   -2.0490    0.0000 C   0  0  0  0  0  0  0  0  0  0  0  0
   -2.6830   -2.0490    0.0000 C   0  0  0  0  0  0  0  0  0  0  0  0
   -3.4330   -3.3481    0.0000 N   0  0  0  0  0  0  0  0  0  0  0  0
   -2.8229   -4.7184    0.0000 C   0  0  0  0  0  0  0  0  0  0  0  0
   -3.9376   -5.7221    0.0000 C   0  0  0  0  0  0  0  0  0  0  0  0
   -5.2367   -4.9721    0.0000 N   0  0  0  0  0  0  0  0  0  0  0  0
   -6.6070   -5.5822    0.0000 C   0  0  0  0  0  0  0  0  0  0  0  0
   -7.8205   -4.7005    0.0000 C   0  0  0  0  0  0  0  0  0  0  0  0
   -9.1908   -5.3106    0.0000 C   0  0  0  0  0  0  0  0  0  0  0  0
  -10.4044   -4.4289    0.0000 C   0  0  0  0  0  0  0  0  0  0  0  0
  -10.2476   -2.9372    0.0000 O   0  0  0  0  0  0  0  0  0  0  0  0
  -11.7747   -5.0390    0.0000 N   0  0  0  0  0  0  0  0  0  0  0  0
  -12.9882   -4.1574    0.0000 C   0  0  0  0  0  0  0  0  0  0  0  0
  -12.8314   -2.6656    0.0000 N   0  0  0  0  0  0  0  0  0  0  0  0
  -14.0449   -1.7839    0.0000 N   0  0  0  0  0  0  0  0  0  0  0  0
  -15.4152   -2.3940    0.0000 N   0  0  0  0  0  0  0  0  0  0  0  0
  -15.5720   -3.8858    0.0000 N   0  0  0  0  0  0  0  0  0  0  0  0
  -14.3585   -4.7675    0.0000 N   0  0  0  0  0  0  0  0  0  0  0  0
   -9.3476   -6.8024    0.0000 C   0  0  0  0  0  0  0  0  0  0  0  0
   -8.1341   -7.6841    0.0000 O   0  0  0  0  0  0  0  0  0  0  0  0
  -10.7179   -7.4125    0.0000 O   0  0  0  0  0  0  0  0  0  0  0  0
  -10.8747   -8.9043    0.0000 C   0  0  0  0  0  0  0  0  0  0  0  0
  -12.2450   -9.5144    0.0000 C   0  0  0  0  0  0  0  0  0  0  0  0
  -12.4018  -11.0062    0.0000 C   0  0  0  0  0  0  0  0  0  0  0  0
  -11.1883  -11.8879    0.0000 C   0  0  0  0  0  0  0  0  0  0  0  0
   -9.8180  -11.2778    0.0000 C   0  0  0  0  0  0  0  0  0  0  0  0
   -9.6612   -9.7860    0.0000 C   0  0  0  0  0  0  0  0  0  0  0  0
   -4.9248   -3.5049    0.0000 C   0  0  0  0  0  0  0  0  0  0  0  0
   -5.9285   -2.3902    0.0000 O   0  0  0  0  0  0  0  0  0  0  0  0
  1  2  1  0
  2  3  2  0
  3  4  1  0
  4  5  2  0
  5  6  1  0
  6  7  2  0
  7  8  1  0
  8  9  1  0
  9 10  2  0
 10 11  1  0
 11 12  2  0
 12 13  1  0
 13 14  2  0
  8 15  1  0
 15 16  1  0
  6 17  1  0
 17 18  1  0
 18 19  1  0
 19 20  1  0
 20 21  1  0
 21 22  1  0
 22 23  1  0
 23 24  1  0
 24 25  1  0
 25 26  1  0
 26 27  1  0
 27 28  2  0
 27 29  1  0
 29 30  1  0
 30 31  2  0
 31 32  1  0
 32 33  2  0
 33 34  1  0
 34 35  2  0
 26 36  1  0
 36 37  2  0
 36 38  1  0
 38 39  1  0
 39 40  2  0
 40 41  1  0
 41 42  2  0
 42 43  1  0
 43 44  2  0
 23 45  1  0
 45 46  2  0
 16  2  1  0
 45 20  1  0
 17  5  1  0
 35 30  1  0
 44 39  1  0
 14  9  1  0
M  END
>  <Title>  (438) 
idAAOXgen6

$$$$

     RDKit          2D

 33 37  0  0  0  0  0  0  0  0999 V2000
    1.1225    6.9296    0.0000 O   0  0  0  0  0  0  0  0  0  0  0  0
   -0.0362    5.9769    0.0000 C   0  0  0  0  0  0  0  0  0  0  0  0
    0.2096    4.4972    0.0000 N   0  0  0  0  0  0  0  0  0  0  0  0
    1.6139    3.9701    0.0000 C   0  0  0  0  0  0  0  0  0  0  0  0
    2.8658    4.7965    0.0000 N   0  0  0  0  0  0  0  0  0  0  0  0
    4.0385    3.8613    0.0000 N   0  0  0  0  0  0  0  0  0  0  0  0
    3.5115    2.4569    0.0000 N   0  0  0  0  0  0  0  0  0  0  0  0
    2.0130    2.5242    0.0000 N   0  0  0  0  0  0  0  0  0  0  0  0
    1.0777    1.3515    0.0000 N   0  0  0  0  0  0  0  0  0  0  0  0
    1.7286    0.0000    0.0000 C   0  0  0  0  0  0  0  0  0  0  0  0
    1.0777   -1.3515    0.0000 C   0  0  0  0  0  0  0  0  0  0  0  0
   -0.3846   -1.6852    0.0000 C   0  0  0  0  0  0  0  0  0  0  0  0
   -1.5574   -0.7500    0.0000 C   0  0  0  0  0  0  0  0  0  0  0  0
   -2.9088   -1.4008    0.0000 C   0  0  0  0  0  0  0  0  0  0  0  0
   -4.1482   -0.5558    0.0000 C   0  0  0  0  0  0  0  0  0  0  0  0
   -5.4997   -1.2067    0.0000 C   0  0  0  0  0  0  0  0  0  0  0  0
   -5.6118   -2.7025    0.0000 C   0  0  0  0  0  0  0  0  0  0  0  0
   -4.3724   -3.5475    0.0000 C   0  0  0  0  0  0  0  0  0  0  0  0
   -3.0209   -2.8966    0.0000 C   0  0  0  0  0  0  0  0  0  0  0  0
   -1.5574    0.7500    0.0000 C   0  0  0  0  0  0  0  0  0  0  0  0
   -0.3846    1.6852    0.0000 C   0  0  0  0  0  0  0  0  0  0  0  0
   -1.4405    6.5040    0.0000 N   0  0  0  0  0  0  0  0  0  0  0  0
   -1.6862    7.9837    0.0000 C   0  0  0  0  0  0  0  0  0  0  0  0
   -3.0906    8.5108    0.0000 C   0  0  0  0  0  0  0  0  0  0  0  0
   -4.2492    7.5581    0.0000 N   0  0  0  0  0  0  0  0  0  0  0  0
   -5.6536    8.0852    0.0000 C   0  0  0  0  0  0  0  0  0  0  0  0
   -5.8993    9.5649    0.0000 C   0  0  0  0  0  0  0  0  0  0  0  0
   -7.3036   10.0920    0.0000 C   0  0  0  0  0  0  0  0  0  0  0  0
   -8.4623    9.1393    0.0000 C   0  0  0  0  0  0  0  0  0  0  0  0
   -8.2165    7.6596    0.0000 C   0  0  0  0  0  0  0  0  0  0  0  0
   -6.8122    7.1325    0.0000 C   0  0  0  0  0  0  0  0  0  0  0  0
   -4.0035    6.0784    0.0000 C   0  0  0  0  0  0  0  0  0  0  0  0
   -2.5991    5.5513    0.0000 C   0  0  0  0  0  0  0  0  0  0  0  0
  1  2  2  0
  2  3  1  0
  3  4  1  0
  4  5  2  0
  5  6  1  0
  6  7  2  0
  7  8  1  0
  8  9  1  0
  9 10  1  0
 10 11  1  0
 11 12  1  0
 12 13  1  0
 13 14  1  0
 14 15  2  0
 15 16  1  0
 16 17  2  0
 17 18  1  0
 18 19  2  0
 13 20  1  0
 20 21  1  0
  2 22  1  0
 22 23  1  0
 23 24  1  0
 24 25  1  0
 25 26  1  0
 26 27  2  0
 27 28  1  0
 28 29  2  0
 29 30  1  0
 30 31  2  0
 25 32  1  0
 32 33  1  0
  8  4  1  0
 21  9  1  0
 33 22  1  0
 19 14  1  0
 31 26  1  0
M  END
>  <Title>  (439) 
idAAOYgen6

$$$$

     RDKit          2D

 31 34  0  0  0  0  0  0  0  0999 V2000
   -6.4289   -8.5179    0.0000 C   0  0  0  0  0  0  0  0  0  0  0  0
   -6.1170   -7.0506    0.0000 C   0  0  0  0  0  0  0  0  0  0  0  0
   -7.2317   -6.0469    0.0000 O   0  0  0  0  0  0  0  0  0  0  0  0
   -4.6904   -6.5871    0.0000 O   0  0  0  0  0  0  0  0  0  0  0  0
   -4.3786   -5.1199    0.0000 C   0  0  0  0  0  0  0  0  0  0  0  0
   -5.4933   -4.1162    0.0000 O   0  0  0  0  0  0  0  0  0  0  0  0
   -2.9520   -4.6564    0.0000 C   0  0  0  0  0  0  0  0  0  0  0  0
   -2.6401   -3.1891    0.0000 C   0  0  0  0  0  0  0  0  0  0  0  0
   -1.2135   -2.7256    0.0000 C   0  0  0  0  0  0  0  0  0  0  0  0
   -0.0000   -3.6073    0.0000 C   0  0  0  0  0  0  0  0  0  0  0  0
    1.2135   -2.7256    0.0000 S   0  0  0  0  0  0  0  0  0  0  0  0
    0.7500   -1.2990    0.0000 C   0  0  0  0  0  0  0  0  0  0  0  0
    1.5000    0.0000    0.0000 C   0  0  0  0  0  0  0  0  0  0  0  0
    0.7500    1.2990    0.0000 C   0  0  0  0  0  0  0  0  0  0  0  0
   -0.7500    1.2990    0.0000 C   0  0  0  0  0  0  0  0  0  0  0  0
   -1.5000    0.0000    0.0000 C   0  0  0  0  0  0  0  0  0  0  0  0
   -0.7500   -1.2990    0.0000 C   0  0  0  0  0  0  0  0  0  0  0  0
   -1.8373   -5.6601    0.0000 N   0  0  0  0  0  0  0  0  0  0  0  0
   -2.1491   -7.1273    0.0000 C   0  0  0  0  0  0  0  0  0  0  0  0
   -3.5757   -7.5908    0.0000 O   0  0  0  0  0  0  0  0  0  0  0  0
   -1.0344   -8.1310    0.0000 C   0  0  0  0  0  0  0  0  0  0  0  0
    0.4328   -7.8191    0.0000 C   0  0  0  0  0  0  0  0  0  0  0  0
    1.1828   -9.1182    0.0000 C   0  0  0  0  0  0  0  0  0  0  0  0
    0.1791  -10.2329    0.0000 N   0  0  0  0  0  0  0  0  0  0  0  0
    0.4910  -11.7001    0.0000 C   0  0  0  0  0  0  0  0  0  0  0  0
    1.8613  -12.3102    0.0000 C   0  0  0  0  0  0  0  0  0  0  0  0
    1.7045  -13.8020    0.0000 C   0  0  0  0  0  0  0  0  0  0  0  0
    0.2373  -14.1138    0.0000 C   0  0  0  0  0  0  0  0  0  0  0  0
   -0.3728  -15.4842    0.0000 O   0  0  0  0  0  0  0  0  0  0  0  0
   -0.5127  -12.8148    0.0000 N   0  0  0  0  0  0  0  0  0  0  0  0
   -1.1912   -9.6228    0.0000 C   0  0  0  0  0  0  0  0  0  0  0  0
  1  2  1  0
  2  3  2  0
  2  4  1  0
  4  5  1  0
  5  6  2  0
  5  7  1  0
  7  8  1  0
  8  9  1  0
  9 10  2  0
 10 11  1  0
 11 12  1  0
 12 13  2  0
 13 14  1  0
 14 15  2  0
 15 16  1  0
 16 17  2  0
  7 18  1  0
 18 19  1  0
 19 20  2  0
 19 21  1  0
 21 22  1  0
 22 23  1  0
 23 24  1  0
 24 25  1  0
 25 26  1  0
 26 27  1  0
 27 28  1  0
 28 29  2  0
 28 30  1  0
 24 31  1  0
 17  9  1  0
 31 21  1  0
 17 12  1  0
 30 25  1  0
M  END
>  <Title>  (440) 
idAAOZgen6

$$$$

     RDKit          2D

 20 22  0  0  0  0  0  0  0  0999 V2000
   10.0355    0.6881    0.0000 C   0  0  0  0  0  0  0  0  0  0  0  0
    8.5683    0.3762    0.0000 C   0  0  0  0  0  0  0  0  0  0  0  0
    7.4536    1.3799    0.0000 C   0  0  0  0  0  0  0  0  0  0  0  0
    6.1545    0.6299    0.0000 C   0  0  0  0  0  0  0  0  0  0  0  0
    6.4664   -0.8373    0.0000 C   0  0  0  0  0  0  0  0  0  0  0  0
    5.4627   -1.9520    0.0000 C   0  0  0  0  0  0  0  0  0  0  0  0
    5.9262   -3.3786    0.0000 O   0  0  0  0  0  0  0  0  0  0  0  0
    3.9955   -1.6402    0.0000 N   0  0  0  0  0  0  0  0  0  0  0  0
    2.9918   -2.7549    0.0000 C   0  0  0  0  0  0  0  0  0  0  0  0
    3.3037   -4.2221    0.0000 N   0  0  0  0  0  0  0  0  0  0  0  0
    2.0046   -4.9721    0.0000 N   0  0  0  0  0  0  0  0  0  0  0  0
    0.8899   -3.9684    0.0000 N   0  0  0  0  0  0  0  0  0  0  0  0
    1.5000   -2.5981    0.0000 N   0  0  0  0  0  0  0  0  0  0  0  0
    0.7500   -1.2990    0.0000 C   0  0  0  0  0  0  0  0  0  0  0  0
    1.5000    0.0000    0.0000 C   0  0  0  0  0  0  0  0  0  0  0  0
    0.7500    1.2990    0.0000 C   0  0  0  0  0  0  0  0  0  0  0  0
   -0.7500    1.2990    0.0000 C   0  0  0  0  0  0  0  0  0  0  0  0
   -1.5000    0.0000    0.0000 C   0  0  0  0  0  0  0  0  0  0  0  0
   -0.7500   -1.2990    0.0000 C   0  0  0  0  0  0  0  0  0  0  0  0
    7.9582   -0.9941    0.0000 C   0  0  0  0  0  0  0  0  0  0  0  0
  1  2  1  0
  2  3  1  0
  3  4  1  0
  4  5  1  0
  5  6  1  0
  6  7  2  0
  6  8  1  0
  8  9  1  0
  9 10  2  0
 10 11  1  0
 11 12  2  0
 12 13  1  0
 13 14  1  0
 14 15  2  0
 15 16  1  0
 16 17  2  0
 17 18  1  0
 18 19  2  0
  5 20  1  0
 20  2  1  0
 13  9  1  0
 19 14  1  0
M  END
>  <Title>  (441) 
idAAPAgen6

$$$$

     RDKit          2D

 14 14  0  0  0  0  0  0  0  0999 V2000
    7.0750   -1.8481    0.0000 C   0  0  0  0  0  0  0  0  0  0  0  0
    5.7760   -2.5981    0.0000 C   0  0  0  0  0  0  0  0  0  0  0  0
    4.4769   -3.3481    0.0000 C   0  0  0  0  0  0  0  0  0  0  0  0
    6.5260   -3.8971    0.0000 C   0  0  0  0  0  0  0  0  0  0  0  0
    5.0260   -1.2990    0.0000 C   0  0  0  0  0  0  0  0  0  0  0  0
    3.5260   -1.2990    0.0000 C   0  0  0  0  0  0  0  0  0  0  0  0
    2.7760   -2.5981    0.0000 O   0  0  0  0  0  0  0  0  0  0  0  0
    2.7760    0.0000    0.0000 N   0  0  0  0  0  0  0  0  0  0  0  0
    1.2760    0.0000    0.0000 C   0  0  0  0  0  0  0  0  0  0  0  0
    0.3943    1.2135    0.0000 C   0  0  0  0  0  0  0  0  0  0  0  0
   -1.0323    0.7500    0.0000 C   0  0  0  0  0  0  0  0  0  0  0  0
   -1.0323   -0.7500    0.0000 C   0  0  0  0  0  0  0  0  0  0  0  0
   -2.2458   -1.6317    0.0000 O   0  0  0  0  0  0  0  0  0  0  0  0
    0.3943   -1.2135    0.0000 N   0  0  0  0  0  0  0  0  0  0  0  0
  1  2  1  0
  2  3  1  0
  2  4  1  0
  2  5  1  0
  5  6  1  0
  6  7  2  0
  6  8  1  0
  8  9  1  0
  9 10  1  0
 10 11  1  0
 11 12  1  0
 12 13  2  0
 12 14  1  0
 14  9  1  0
M  END
>  <Title>  (442) 
idAAPBgen6

$$$$

     RDKit          2D

 14 15  0  0  0  0  0  0  0  0999 V2000
    1.6798    5.9095    0.0000 O   0  0  0  0  0  0  0  0  0  0  0  0
    1.6798    4.4095    0.0000 C   0  0  0  0  0  0  0  0  0  0  0  0
    2.9789    3.6595    0.0000 C   0  0  0  0  0  0  0  0  0  0  0  0
    2.9789    2.1595    0.0000 C   0  0  0  0  0  0  0  0  0  0  0  0
    1.6798    1.4095    0.0000 C   0  0  0  0  0  0  0  0  0  0  0  0
    2.1929    0.0000    0.0000 C   0  0  0  0  0  0  0  0  0  0  0  0
    1.6798   -1.4095    0.0000 C   0  0  0  0  0  0  0  0  0  0  0  0
    0.3808   -2.1595    0.0000 C   0  0  0  0  0  0  0  0  0  0  0  0
   -1.0964   -1.8991    0.0000 C   0  0  0  0  0  0  0  0  0  0  0  0
   -2.0606   -0.7500    0.0000 C   0  0  0  0  0  0  0  0  0  0  0  0
   -2.0606    0.7500    0.0000 C   0  0  0  0  0  0  0  0  0  0  0  0
   -1.0964    1.8991    0.0000 C   0  0  0  0  0  0  0  0  0  0  0  0
    0.3808    2.1595    0.0000 C   0  0  0  0  0  0  0  0  0  0  0  0
    0.3808    3.6595    0.0000 C   0  0  0  0  0  0  0  0  0  0  0  0
  1  2  1  0
  2  3  2  0
  3  4  1  0
  4  5  2  0
  5  6  1  0
  6  7  1  0
  7  8  1  0
  8  9  1  0
  9 10  1  0
 10 11  1  0
 11 12  1  0
 12 13  1  0
 13 14  2  0
 14  2  1  0
 13  5  1  0
M  END
>  <Title>  (443) 
idAAPCgen6

$$$$

     RDKit          2D

  6  5  0  0  0  0  0  0  0  0999 V2000
    0.0000    0.0000    0.0000 C   0  0  0  0  0  0  0  0  0  0  0  0
    1.2990    0.7500    0.0000 C   0  0  0  0  0  0  0  0  0  0  0  0
    2.5981   -0.0000    0.0000 C   0  0  0  0  0  0  0  0  0  0  0  0
    3.8971    0.7500    0.0000 C   0  0  0  0  0  0  0  0  0  0  0  0
    2.5981   -1.5000    0.0000 C   0  0  0  0  0  0  0  0  0  0  0  0
    2.5981   -3.0000    0.0000 N   0  0  0  0  0  0  0  0  0  0  0  0
  1  2  2  0
  2  3  1  0
  3  4  1  0
  3  5  1  0
  5  6  3  0
M  END
>  <Title>  (444) 
idAAPDgen6

$$$$

     RDKit          2D

 37 42  0  0  0  0  0  0  0  0999 V2000
    3.0000    0.0000    0.0000 C   0  0  0  0  0  0  0  0  0  0  0  0
    1.5000    0.0000    0.0000 C   0  0  0  0  0  0  0  0  0  0  0  0
    0.7500   -1.2990    0.0000 C   0  0  0  0  0  0  0  0  0  0  0  0
   -0.7500   -1.2990    0.0000 C   0  0  0  0  0  0  0  0  0  0  0  0
   -1.5000    0.0000    0.0000 C   0  0  0  0  0  0  0  0  0  0  0  0
   -0.7500    1.2990    0.0000 C   0  0  0  0  0  0  0  0  0  0  0  0
    0.7500    1.2990    0.0000 C   0  0  0  0  0  0  0  0  0  0  0  0
   -1.5000    2.5981    0.0000 C   0  0  0  0  0  0  0  0  0  0  0  0
   -0.7500    3.8971    0.0000 C   0  0  0  0  0  0  0  0  0  0  0  0
   -3.0000    2.5981    0.0000 C   0  0  0  0  0  0  0  0  0  0  0  0
   -3.7500    1.2990    0.0000 C   0  0  0  0  0  0  0  0  0  0  0  0
   -3.0000    0.0000    0.0000 C   0  0  0  0  0  0  0  0  0  0  0  0
   -3.7500   -1.2990    0.0000 C   0  0  0  0  0  0  0  0  0  0  0  0
   -3.0000   -2.5981    0.0000 O   0  0  0  0  0  0  0  0  0  0  0  0
   -5.2500   -1.2990    0.0000 N   0  0  0  0  0  0  0  0  0  0  0  0
   -6.0000   -2.5981    0.0000 C   0  0  0  0  0  0  0  0  0  0  0  0
   -5.3899   -3.9684    0.0000 N   0  0  0  0  0  0  0  0  0  0  0  0
   -6.5046   -4.9721    0.0000 N   0  0  0  0  0  0  0  0  0  0  0  0
   -7.8037   -4.2221    0.0000 N   0  0  0  0  0  0  0  0  0  0  0  0
   -7.4918   -2.7549    0.0000 N   0  0  0  0  0  0  0  0  0  0  0  0
   -8.4955   -1.6402    0.0000 N   0  0  0  0  0  0  0  0  0  0  0  0
   -8.1836   -0.1729    0.0000 C   0  0  0  0  0  0  0  0  0  0  0  0
   -9.4826    0.5771    0.0000 C   0  0  0  0  0  0  0  0  0  0  0  0
  -10.5974   -0.4266    0.0000 N   0  0  0  0  0  0  0  0  0  0  0  0
   -9.9873   -1.7969    0.0000 C   0  0  0  0  0  0  0  0  0  0  0  0
  -10.7373   -3.0960    0.0000 C   0  0  0  0  0  0  0  0  0  0  0  0
   -9.9873   -4.3950    0.0000 C   0  0  0  0  0  0  0  0  0  0  0  0
  -10.7373   -5.6941    0.0000 C   0  0  0  0  0  0  0  0  0  0  0  0
  -12.2373   -5.6941    0.0000 C   0  0  0  0  0  0  0  0  0  0  0  0
  -12.9873   -4.3950    0.0000 C   0  0  0  0  0  0  0  0  0  0  0  0
  -12.2373   -3.0960    0.0000 C   0  0  0  0  0  0  0  0  0  0  0  0
  -12.9873   -1.7969    0.0000 C   0  0  0  0  0  0  0  0  0  0  0  0
  -14.4873   -1.7969    0.0000 C   0  0  0  0  0  0  0  0  0  0  0  0
  -15.2373   -0.4979    0.0000 C   0  0  0  0  0  0  0  0  0  0  0  0
  -14.4873    0.8011    0.0000 C   0  0  0  0  0  0  0  0  0  0  0  0
  -12.9873    0.8011    0.0000 C   0  0  0  0  0  0  0  0  0  0  0  0
  -12.2373   -0.4979    0.0000 C   0  0  0  0  0  0  0  0  0  0  0  0
  1  2  1  0
  2  3  2  0
  3  4  1  0
  4  5  2  0
  5  6  1  0
  6  7  2  0
  6  8  1  0
  8  9  1  0
  8 10  1  0
 10 11  1  0
 11 12  1  0
 12 13  1  0
 13 14  2  0
 13 15  1  0
 15 16  1  0
 16 17  2  0
 17 18  1  0
 18 19  2  0
 19 20  1  0
 20 21  1  0
 21 22  1  0
 22 23  1  0
 23 24  1  0
 24 25  2  0
 25 26  1  0
 26 27  2  0
 27 28  1  0
 28 29  2  0
 29 30  1  0
 30 31  2  0
 31 32  1  0
 32 33  2  0
 33 34  1  0
 34 35  2  0
 35 36  1  0
 36 37  2  0
  7  2  1  0
 20 16  1  0
 25 21  1  0
 31 26  1  0
 37 32  1  0
 12  5  1  0
M  END
>  <Title>  (445) 
idAAPEgen6

$$$$

     RDKit          2D

 29 32  0  0  0  0  0  0  0  0999 V2000
   -2.3727   -7.1717    0.0000 C   0  0  0  0  0  0  0  0  0  0  0  0
   -2.7422   -5.7179    0.0000 C   0  0  0  0  0  0  0  0  0  0  0  0
   -1.5927   -4.7543    0.0000 C   0  0  0  0  0  0  0  0  0  0  0  0
   -1.6294   -3.2547    0.0000 C   0  0  0  0  0  0  0  0  0  0  0  0
   -2.8247   -2.3485    0.0000 C   0  0  0  0  0  0  0  0  0  0  0  0
   -2.5268   -0.8784    0.0000 C   0  0  0  0  0  0  0  0  0  0  0  0
   -3.8534   -0.1784    0.0000 N   0  0  0  0  0  0  0  0  0  0  0  0
   -4.5910    1.1278    0.0000 C   0  0  0  0  0  0  0  0  0  0  0  0
   -6.0521    0.7880    0.0000 O   0  0  0  0  0  0  0  0  0  0  0  0
   -4.5054    2.6253    0.0000 C   0  0  0  0  0  0  0  0  0  0  0  0
   -3.6237    3.8388    0.0000 C   0  0  0  0  0  0  0  0  0  0  0  0
   -2.2259    4.3830    0.0000 C   0  0  0  0  0  0  0  0  0  0  0  0
   -0.7558    4.0852    0.0000 C   0  0  0  0  0  0  0  0  0  0  0  0
   -0.0558    5.4118    0.0000 C   0  0  0  0  0  0  0  0  0  0  0  0
    0.3199    3.0398    0.0000 C   0  0  0  0  0  0  0  0  0  0  0  0
    0.3943    1.2135    0.0000 C   0  0  0  0  0  0  0  0  0  0  0  0
    1.2760    0.0000    0.0000 C   0  0  0  0  0  0  0  0  0  0  0  0
    0.3943   -1.2135    0.0000 C   0  0  0  0  0  0  0  0  0  0  0  0
   -1.0323   -0.7500    0.0000 C   0  0  0  0  0  0  0  0  0  0  0  0
   -1.0323    0.7500    0.0000 O   0  0  0  0  0  0  0  0  0  0  0  0
   -4.2785   -2.7180    0.0000 C   0  0  0  0  0  0  0  0  0  0  0  0
   -4.8960   -4.0849    0.0000 O   0  0  0  0  0  0  0  0  0  0  0  0
   -4.2123   -5.4201    0.0000 C   0  0  0  0  0  0  0  0  0  0  0  0
   -5.1185   -6.6153    0.0000 C   0  0  0  0  0  0  0  0  0  0  0  0
   -6.6068   -6.4282    0.0000 C   0  0  0  0  0  0  0  0  0  0  0  0
   -7.5131   -7.6234    0.0000 C   0  0  0  0  0  0  0  0  0  0  0  0
   -6.9310   -9.0059    0.0000 C   0  0  0  0  0  0  0  0  0  0  0  0
   -5.4428   -9.1931    0.0000 C   0  0  0  0  0  0  0  0  0  0  0  0
   -4.5365   -7.9978    0.0000 C   0  0  0  0  0  0  0  0  0  0  0  0
  1  2  1  0
  2  3  2  0
  3  4  1  0
  4  5  2  0
  5  6  1  0
  6  7  1  0
  7  8  1  0
  8  9  2  0
  8 10  1  0
 10 11  1  0
 11 12  2  0
 12 13  1  0
 13 14  1  0
 13 15  1  0
 15 16  1  0
 16 17  1  0
 17 18  1  0
 18 19  1  0
 19 20  1  0
  5 21  1  0
 21 22  1  0
 22 23  1  0
 23 24  1  0
 24 25  2  0
 25 26  1  0
 26 27  2  0
 27 28  1  0
 28 29  2  0
 23  2  1  0
 29 24  1  0
 19  6  1  0
 20 16  1  0
M  END
>  <Title>  (446) 
idAAPFgen6

$$$$

     RDKit          2D

 24 26  0  0  0  0  0  0  0  0999 V2000
   -3.1476   -2.1380    0.0000 C   0  0  0  0  0  0  0  0  0  0  0  0
   -1.6852   -2.4718    0.0000 C   0  0  0  0  0  0  0  0  0  0  0  0
   -1.3515   -3.9342    0.0000 C   0  0  0  0  0  0  0  0  0  0  0  0
   -0.0000   -4.5850    0.0000 C   0  0  0  0  0  0  0  0  0  0  0  0
   -0.0000   -6.0850    0.0000 C   0  0  0  0  0  0  0  0  0  0  0  0
    1.2990   -6.8350    0.0000 O   0  0  0  0  0  0  0  0  0  0  0  0
   -1.2990   -6.8350    0.0000 O   0  0  0  0  0  0  0  0  0  0  0  0
    1.3515   -3.9342    0.0000 C   0  0  0  0  0  0  0  0  0  0  0  0
    1.6852   -2.4718    0.0000 C   0  0  0  0  0  0  0  0  0  0  0  0
    3.1476   -2.1380    0.0000 C   0  0  0  0  0  0  0  0  0  0  0  0
    3.5898   -0.7046    0.0000 O   0  0  0  0  0  0  0  0  0  0  0  0
    4.1679   -3.2376    0.0000 N   0  0  0  0  0  0  0  0  0  0  0  0
    5.6303   -2.9038    0.0000 C   0  0  0  0  0  0  0  0  0  0  0  0
    6.6505   -4.0034    0.0000 N   0  0  0  0  0  0  0  0  0  0  0  0
    8.1129   -3.6696    0.0000 N   0  0  0  0  0  0  0  0  0  0  0  0
    8.5551   -2.2362    0.0000 N   0  0  0  0  0  0  0  0  0  0  0  0
    7.5348   -1.1367    0.0000 N   0  0  0  0  0  0  0  0  0  0  0  0
    6.0724   -1.4704    0.0000 N   0  0  0  0  0  0  0  0  0  0  0  0
    0.7500   -1.2990    0.0000 C   0  0  0  0  0  0  0  0  0  0  0  0
    1.5000    0.0000    0.0000 C   0  0  0  0  0  0  0  0  0  0  0  0
    0.7500    1.2990    0.0000 C   0  0  0  0  0  0  0  0  0  0  0  0
   -0.7500    1.2990    0.0000 C   0  0  0  0  0  0  0  0  0  0  0  0
   -1.5000    0.0000    0.0000 C   0  0  0  0  0  0  0  0  0  0  0  0
   -0.7500   -1.2990    0.0000 C   0  0  0  0  0  0  0  0  0  0  0  0
  1  2  1  0
  2  3  2  0
  3  4  1  0
  4  5  1  0
  5  6  2  0
  5  7  1  0
  4  8  1  0
  8  9  2  0
  9 10  1  0
 10 11  2  0
 10 12  1  0
 12 13  1  0
 13 14  2  0
 14 15  1  0
 15 16  2  0
 16 17  1  0
 17 18  2  0
  9 19  1  0
 19 20  2  0
 20 21  1  0
 21 22  2  0
 22 23  1  0
 23 24  2  0
 24  2  1  0
 18 13  1  0
 24 19  1  0
M  END
>  <Title>  (447) 
idAAPGgen6

$$$$

     RDKit          2D

 31 35  0  0  0  0  0  0  0  0999 V2000
   -3.0000   -2.5981    0.0000 C   0  0  0  0  0  0  0  0  0  0  0  0
   -1.5000   -2.5981    0.0000 C   0  0  0  0  0  0  0  0  0  0  0  0
   -0.7500   -3.8971    0.0000 C   0  0  0  0  0  0  0  0  0  0  0  0
    0.7500   -3.8971    0.0000 C   0  0  0  0  0  0  0  0  0  0  0  0
    1.5000   -5.1962    0.0000 C   0  0  0  0  0  0  0  0  0  0  0  0
    3.0000   -5.1962    0.0000 O   0  0  0  0  0  0  0  0  0  0  0  0
    0.7500   -6.4952    0.0000 N   0  0  0  0  0  0  0  0  0  0  0  0
    1.5000   -7.7942    0.0000 C   0  0  0  0  0  0  0  0  0  0  0  0
    2.9918   -7.9510    0.0000 N   0  0  0  0  0  0  0  0  0  0  0  0
    3.3037   -9.4182    0.0000 N   0  0  0  0  0  0  0  0  0  0  0  0
    2.0046  -10.1682    0.0000 N   0  0  0  0  0  0  0  0  0  0  0  0
    0.8899   -9.1645    0.0000 N   0  0  0  0  0  0  0  0  0  0  0  0
   -0.5773   -9.4764    0.0000 N   0  0  0  0  0  0  0  0  0  0  0  0
   -1.1874  -10.8467    0.0000 C   0  0  0  0  0  0  0  0  0  0  0  0
   -2.6792  -10.6899    0.0000 C   0  0  0  0  0  0  0  0  0  0  0  0
   -2.9911   -9.2227    0.0000 C   0  0  0  0  0  0  0  0  0  0  0  0
   -4.3614   -8.6126    0.0000 C   0  0  0  0  0  0  0  0  0  0  0  0
   -4.5182   -7.1208    0.0000 C   0  0  0  0  0  0  0  0  0  0  0  0
   -5.8885   -6.5107    0.0000 C   0  0  0  0  0  0  0  0  0  0  0  0
   -7.1020   -7.3924    0.0000 C   0  0  0  0  0  0  0  0  0  0  0  0
   -6.9452   -8.8842    0.0000 C   0  0  0  0  0  0  0  0  0  0  0  0
   -5.5749   -9.4943    0.0000 C   0  0  0  0  0  0  0  0  0  0  0  0
   -1.6920   -8.4727    0.0000 C   0  0  0  0  0  0  0  0  0  0  0  0
   -1.5353   -6.9809    0.0000 O   0  0  0  0  0  0  0  0  0  0  0  0
    1.5000   -2.5981    0.0000 O   0  0  0  0  0  0  0  0  0  0  0  0
    0.7500   -1.2990    0.0000 C   0  0  0  0  0  0  0  0  0  0  0  0
    1.5000    0.0000    0.0000 C   0  0  0  0  0  0  0  0  0  0  0  0
    0.7500    1.2990    0.0000 C   0  0  0  0  0  0  0  0  0  0  0  0
   -0.7500    1.2990    0.0000 C   0  0  0  0  0  0  0  0  0  0  0  0
   -1.5000    0.0000    0.0000 C   0  0  0  0  0  0  0  0  0  0  0  0
   -0.7500   -1.2990    0.0000 C   0  0  0  0  0  0  0  0  0  0  0  0
  1  2  1  0
  2  3  1  0
  3  4  1  0
  4  5  1  0
  5  6  2  0
  5  7  1  0
  7  8  1  0
  8  9  2  0
  9 10  1  0
 10 11  2  0
 11 12  1  0
 12 13  1  0
 13 14  1  0
 14 15  1  0
 15 16  1  0
 16 17  1  0
 17 18  2  0
 18 19  1  0
 19 20  2  0
 20 21  1  0
 21 22  2  0
 16 23  1  0
 23 24  2  0
  4 25  1  0
 25 26  1  0
 26 27  2  0
 27 28  1  0
 28 29  2  0
 29 30  1  0
 30 31  2  0
 31  2  1  0
 12  8  1  0
 23 13  1  0
 31 26  1  0
 22 17  1  0
M  END
>  <Title>  (448) 
idAAPHgen6

$$$$

     RDKit          2D

 11 11  0  0  0  0  0  0  0  0999 V2000
    5.7760   -2.5981    0.0000 C   0  0  0  0  0  0  0  0  0  0  0  0
    5.0260   -1.2990    0.0000 C   0  0  0  0  0  0  0  0  0  0  0  0
    5.7760    0.0000    0.0000 O   0  0  0  0  0  0  0  0  0  0  0  0
    3.5260   -1.2990    0.0000 O   0  0  0  0  0  0  0  0  0  0  0  0
    2.7760    0.0000    0.0000 C   0  0  0  0  0  0  0  0  0  0  0  0
    3.5260    1.2990    0.0000 O   0  0  0  0  0  0  0  0  0  0  0  0
    1.2760    0.0000    0.0000 C   0  0  0  0  0  0  0  0  0  0  0  0
    0.3943    1.2135    0.0000 C   0  0  0  0  0  0  0  0  0  0  0  0
   -1.0323    0.7500    0.0000 C   0  0  0  0  0  0  0  0  0  0  0  0
   -1.0323   -0.7500    0.0000 C   0  0  0  0  0  0  0  0  0  0  0  0
    0.3943   -1.2135    0.0000 C   0  0  0  0  0  0  0  0  0  0  0  0
  1  2  1  0
  2  3  2  0
  2  4  1  0
  4  5  1  0
  5  6  2  0
  5  7  1  0
  7  8  2  0
  8  9  1  0
  9 10  2  0
 10 11  1  0
 11  7  1  0
M  END
>  <Title>  (449) 
idAAPIgen6

$$$$

     RDKit          2D

 13 12  0  0  0  0  0  0  0  0999 V2000
    0.0000    0.0000    0.0000 C   0  0  0  0  0  0  0  0  0  0  0  0
    1.2990    0.7500    0.0000 C   0  0  0  0  0  0  0  0  0  0  0  0
    1.2990    2.2500    0.0000 O   0  0  0  0  0  0  0  0  0  0  0  0
    2.5981   -0.0000    0.0000 C   0  0  0  0  0  0  0  0  0  0  0  0
    3.8971    0.7500    0.0000 C   0  0  0  0  0  0  0  0  0  0  0  0
    2.5981   -1.5000    0.0000 C   0  0  0  0  0  0  0  0  0  0  0  0
    3.8971   -2.2500    0.0000 C   0  0  0  0  0  0  0  0  0  0  0  0
    3.8971   -3.7500    0.0000 C   0  0  0  0  0  0  0  0  0  0  0  0
    2.5981   -4.5000    0.0000 O   0  0  0  0  0  0  0  0  0  0  0  0
    5.1962   -4.5000    0.0000 C   0  0  0  0  0  0  0  0  0  0  0  0
    4.4462   -5.7990    0.0000 C   0  0  0  0  0  0  0  0  0  0  0  0
    5.9462   -3.2010    0.0000 C   0  0  0  0  0  0  0  0  0  0  0  0
    6.4952   -5.2500    0.0000 C   0  0  0  0  0  0  0  0  0  0  0  0
  1  2  1  0
  2  3  2  0
  2  4  1  0
  4  5  1  0
  4  6  2  3
  6  7  1  0
  7  8  2  3
  8  9  1  0
  8 10  1  0
 10 11  1  0
 10 12  1  0
 10 13  1  0
M  END
>  <Title>  (450) 
idAAPJgen6

$$$$

     RDKit          2D

 26 29  0  0  0  0  0  0  0  0999 V2000
   -3.1771   -1.2990    0.0000 C   0  0  0  0  0  0  0  0  0  0  0  0
   -1.9635   -2.1807    0.0000 C   0  0  0  0  0  0  0  0  0  0  0  0
   -2.4271   -3.6073    0.0000 C   0  0  0  0  0  0  0  0  0  0  0  0
   -1.9635   -5.0339    0.0000 C   0  0  0  0  0  0  0  0  0  0  0  0
   -0.7500   -5.9156    0.0000 C   0  0  0  0  0  0  0  0  0  0  0  0
    0.0000   -7.2146    0.0000 C   0  0  0  0  0  0  0  0  0  0  0  0
   -0.0000   -8.7146    0.0000 O   0  0  0  0  0  0  0  0  0  0  0  0
    0.7500   -5.9156    0.0000 C   0  0  0  0  0  0  0  0  0  0  0  0
    1.9635   -5.0339    0.0000 C   0  0  0  0  0  0  0  0  0  0  0  0
    2.4271   -3.6073    0.0000 C   0  0  0  0  0  0  0  0  0  0  0  0
    1.9635   -2.1807    0.0000 C   0  0  0  0  0  0  0  0  0  0  0  0
    3.1771   -1.2990    0.0000 C   0  0  0  0  0  0  0  0  0  0  0  0
    3.0203    0.1927    0.0000 O   0  0  0  0  0  0  0  0  0  0  0  0
    4.5474   -1.9091    0.0000 N   0  0  0  0  0  0  0  0  0  0  0  0
    5.7609   -1.0275    0.0000 C   0  0  0  0  0  0  0  0  0  0  0  0
    7.1312   -1.6376    0.0000 N   0  0  0  0  0  0  0  0  0  0  0  0
    8.3447   -0.7559    0.0000 N   0  0  0  0  0  0  0  0  0  0  0  0
    8.1879    0.7359    0.0000 N   0  0  0  0  0  0  0  0  0  0  0  0
    6.8176    1.3460    0.0000 N   0  0  0  0  0  0  0  0  0  0  0  0
    5.6041    0.4643    0.0000 N   0  0  0  0  0  0  0  0  0  0  0  0
    0.7500   -1.2990    0.0000 C   0  0  0  0  0  0  0  0  0  0  0  0
    1.5000    0.0000    0.0000 C   0  0  0  0  0  0  0  0  0  0  0  0
    0.7500    1.2990    0.0000 C   0  0  0  0  0  0  0  0  0  0  0  0
   -0.7500    1.2990    0.0000 C   0  0  0  0  0  0  0  0  0  0  0  0
   -1.5000    0.0000    0.0000 C   0  0  0  0  0  0  0  0  0  0  0  0
   -0.7500   -1.2990    0.0000 C   0  0  0  0  0  0  0  0  0  0  0  0
  1  2  1  0
  2  3  2  0
  3  4  1  0
  4  5  2  0
  5  6  1  0
  6  7  2  0
  6  8  1  0
  8  9  2  0
  9 10  1  0
 10 11  2  0
 11 12  1  0
 12 13  2  0
 12 14  1  0
 14 15  1  0
 15 16  2  0
 16 17  1  0
 17 18  2  0
 18 19  1  0
 19 20  2  0
 11 21  1  0
 21 22  2  0
 22 23  1  0
 23 24  2  0
 24 25  1  0
 25 26  2  0
 26  2  1  0
  8  5  1  0
 20 15  1  0
 26 21  1  0
M  END
>  <Title>  (451) 
idAAPKgen6

$$$$

     RDKit          2D

  9  9  0  0  0  0  0  0  0  0999 V2000
    3.5260   -1.2990    0.0000 C   0  0  0  0  0  0  0  0  0  0  0  0
    2.7760    0.0000    0.0000 C   0  0  0  0  0  0  0  0  0  0  0  0
    3.5260    1.2990    0.0000 O   0  0  0  0  0  0  0  0  0  0  0  0
    1.2760    0.0000    0.0000 C   0  0  0  0  0  0  0  0  0  0  0  0
    0.3943    1.2135    0.0000 C   0  0  0  0  0  0  0  0  0  0  0  0
   -1.0323    0.7500    0.0000 C   0  0  0  0  0  0  0  0  0  0  0  0
   -1.0323   -0.7500    0.0000 C   0  0  0  0  0  0  0  0  0  0  0  0
   -2.2458   -1.6317    0.0000 Cl  0  0  0  0  0  0  0  0  0  0  0  0
    0.3943   -1.2135    0.0000 C   0  0  0  0  0  0  0  0  0  0  0  0
  1  2  1  0
  2  3  2  0
  2  4  1  0
  4  5  2  0
  5  6  1  0
  6  7  2  0
  7  8  1  0
  7  9  1  0
  9  4  1  0
M  END
>  <Title>  (452) 
idAAPLgen6

$$$$

     RDKit          2D

 22 24  0  0  0  0  0  0  0  0999 V2000
   -3.7500   -3.8971    0.0000 C   0  0  0  0  0  0  0  0  0  0  0  0
   -3.0000   -2.5981    0.0000 O   0  0  0  0  0  0  0  0  0  0  0  0
   -1.5000   -2.5981    0.0000 C   0  0  0  0  0  0  0  0  0  0  0  0
   -0.7500   -3.8971    0.0000 C   0  0  0  0  0  0  0  0  0  0  0  0
    0.7500   -3.8971    0.0000 C   0  0  0  0  0  0  0  0  0  0  0  0
    1.5000   -2.5981    0.0000 C   0  0  0  0  0  0  0  0  0  0  0  0
    3.0000   -2.5981    0.0000 C   0  0  0  0  0  0  0  0  0  0  0  0
    3.7500   -1.2990    0.0000 O   0  0  0  0  0  0  0  0  0  0  0  0
    3.7500   -3.8971    0.0000 N   0  0  0  0  0  0  0  0  0  0  0  0
    5.2500   -3.8971    0.0000 C   0  0  0  0  0  0  0  0  0  0  0  0
    6.0000   -5.1962    0.0000 N   0  0  0  0  0  0  0  0  0  0  0  0
    7.5000   -5.1962    0.0000 N   0  0  0  0  0  0  0  0  0  0  0  0
    8.2500   -3.8971    0.0000 N   0  0  0  0  0  0  0  0  0  0  0  0
    7.5000   -2.5981    0.0000 N   0  0  0  0  0  0  0  0  0  0  0  0
    6.0000   -2.5981    0.0000 N   0  0  0  0  0  0  0  0  0  0  0  0
    0.7500   -1.2990    0.0000 C   0  0  0  0  0  0  0  0  0  0  0  0
    1.5000    0.0000    0.0000 C   0  0  0  0  0  0  0  0  0  0  0  0
    0.7500    1.2990    0.0000 C   0  0  0  0  0  0  0  0  0  0  0  0
   -0.7500    1.2990    0.0000 C   0  0  0  0  0  0  0  0  0  0  0  0
   -1.5000    2.5981    0.0000 O   0  0  0  0  0  0  0  0  0  0  0  0
   -1.5000    0.0000    0.0000 C   0  0  0  0  0  0  0  0  0  0  0  0
   -0.7500   -1.2990    0.0000 C   0  0  0  0  0  0  0  0  0  0  0  0
  1  2  1  0
  2  3  1  0
  3  4  2  0
  4  5  1  0
  5  6  2  0
  6  7  1  0
  7  8  2  0
  7  9  1  0
  9 10  1  0
 10 11  2  0
 11 12  1  0
 12 13  2  0
 13 14  1  0
 14 15  2  0
  6 16  1  0
 16 17  2  0
 17 18  1  0
 18 19  2  0
 19 20  1  0
 19 21  1  0
 21 22  2  0
 22  3  1  0
 15 10  1  0
 22 16  1  0
M  END
>  <Title>  (453) 
idAAPMgen6

$$$$

     RDKit          2D

 49 51  0  0  0  0  0  0  0  0999 V2000
    1.5000    0.0000    0.0000 C   0  0  0  0  0  0  0  0  0  0  0  0
    0.7500   -1.2990    0.0000 C   0  0  0  0  0  0  0  0  0  0  0  0
   -0.7500   -1.2990    0.0000 C   0  0  0  0  0  0  0  0  0  0  0  0
   -0.2071   -2.6973    0.0000 C   0  0  0  0  0  0  0  0  0  0  0  0
   -1.6372   -2.2448    0.0000 C   0  0  0  0  0  0  0  0  0  0  0  0
   -2.7442   -3.2570    0.0000 C   0  0  0  0  0  0  0  0  0  0  0  0
   -2.4211   -4.7218    0.0000 C   0  0  0  0  0  0  0  0  0  0  0  0
   -0.9910   -5.1743    0.0000 C   0  0  0  0  0  0  0  0  0  0  0  0
    0.1160   -4.1621    0.0000 C   0  0  0  0  0  0  0  0  0  0  0  0
    0.2117   -5.6591    0.0000 C   0  0  0  0  0  0  0  0  0  0  0  0
    0.0778   -7.1531    0.0000 C   0  0  0  0  0  0  0  0  0  0  0  0
   -0.2826   -8.6091    0.0000 C   0  0  0  0  0  0  0  0  0  0  0  0
   -0.8610   -9.9931    0.0000 C   0  0  0  0  0  0  0  0  0  0  0  0
   -1.6440  -11.2726    0.0000 C   0  0  0  0  0  0  0  0  0  0  0  0
   -2.6130  -12.4175    0.0000 C   0  0  0  0  0  0  0  0  0  0  0  0
   -3.7455  -13.4011    0.0000 C   0  0  0  0  0  0  0  0  0  0  0  0
   -5.0149  -14.2003    0.0000 C   0  0  0  0  0  0  0  0  0  0  0  0
   -6.3914  -14.7964    0.0000 C   0  0  0  0  0  0  0  0  0  0  0  0
   -7.8427  -15.1754    0.0000 C   0  0  0  0  0  0  0  0  0  0  0  0
   -9.3349  -15.3284    0.0000 C   0  0  0  0  0  0  0  0  0  0  0  0
  -10.8329  -15.2518    0.0000 C   0  0  0  0  0  0  0  0  0  0  0  0
  -12.3017  -14.9474    0.0000 C   0  0  0  0  0  0  0  0  0  0  0  0
  -13.7068  -14.4224    0.0000 C   0  0  0  0  0  0  0  0  0  0  0  0
  -15.0153  -13.6890    0.0000 C   0  0  0  0  0  0  0  0  0  0  0  0
  -16.1966  -12.7646    0.0000 C   0  0  0  0  0  0  0  0  0  0  0  0
  -17.2228  -11.6706    0.0000 C   0  0  0  0  0  0  0  0  0  0  0  0
  -18.0701  -10.4328    0.0000 C   0  0  0  0  0  0  0  0  0  0  0  0
  -18.7184   -9.0801    0.0000 C   0  0  0  0  0  0  0  0  0  0  0  0
  -19.1527   -7.6444    0.0000 C   0  0  0  0  0  0  0  0  0  0  0  0
  -19.3627   -6.1591    0.0000 C   0  0  0  0  0  0  0  0  0  0  0  0
  -19.3436   -4.6593    0.0000 C   0  0  0  0  0  0  0  0  0  0  0  0
  -19.0957   -3.1799    0.0000 C   0  0  0  0  0  0  0  0  0  0  0  0
  -18.6249   -1.7557    0.0000 C   0  0  0  0  0  0  0  0  0  0  0  0
  -17.9422   -0.4200    0.0000 C   0  0  0  0  0  0  0  0  0  0  0  0
  -17.0636    0.7957    0.0000 C   0  0  0  0  0  0  0  0  0  0  0  0
  -16.0098    1.8631    0.0000 C   0  0  0  0  0  0  0  0  0  0  0  0
  -14.8053    2.7572    0.0000 C   0  0  0  0  0  0  0  0  0  0  0  0
  -13.4785    3.4569    0.0000 C   0  0  0  0  0  0  0  0  0  0  0  0
  -12.0604    3.9458    0.0000 C   0  0  0  0  0  0  0  0  0  0  0  0
  -10.5843    4.2126    0.0000 C   0  0  0  0  0  0  0  0  0  0  0  0
   -9.0848    4.2509    0.0000 C   0  0  0  0  0  0  0  0  0  0  0  0
   -7.5970    4.0598    0.0000 C   0  0  0  0  0  0  0  0  0  0  0  0
   -6.1558    3.6439    0.0000 C   0  0  0  0  0  0  0  0  0  0  0  0
   -4.7950    3.0129    0.0000 C   0  0  0  0  0  0  0  0  0  0  0  0
   -3.5465    2.1815    0.0000 C   0  0  0  0  0  0  0  0  0  0  0  0
   -2.4395    1.1693    0.0000 C   0  0  0  0  0  0  0  0  0  0  0  0
   -1.5000    0.0000    0.0000 C   0  0  0  0  0  0  0  0  0  0  0  0
   -0.7500    1.2990    0.0000 C   0  0  0  0  0  0  0  0  0  0  0  0
    0.7500    1.2990    0.0000 C   0  0  0  0  0  0  0  0  0  0  0  0
  1  2  2  0
  2  3  1  0
  3  4  1  0
  4  5  2  0
  5  6  1  0
  6  7  2  0
  7  8  1  0
  8  9  2  0
  9 10  1  0
 10 11  1  0
 11 12  1  0
 12 13  1  0
 13 14  1  0
 14 15  1  0
 15 16  1  0
 16 17  1  0
 17 18  1  0
 18 19  1  0
 19 20  1  0
 20 21  1  0
 21 22  1  0
 22 23  1  0
 23 24  1  0
 24 25  1  0
 25 26  1  0
 26 27  1  0
 27 28  1  0
 28 29  1  0
 29 30  1  0
 30 31  1  0
 31 32  1  0
 32 33  1  0
 33 34  1  0
 34 35  1  0
 35 36  1  0
 36 37  1  0
 37 38  1  0
 38 39  1  0
 39 40  1  0
 40 41  1  0
 41 42  1  0
 42 43  1  0
 43 44  1  0
 44 45  1  0
 45 46  1  0
 46 47  1  0
 47 48  1  0
 48 49  1  0
 49  1  1  0
 47  3  1  0
  9  4  1  0
M  END
>  <Title>  (454) 
idAAPNgen6

$$$$

     RDKit          2D

 34 38  0  0  0  0  0  0  0  0999 V2000
   -3.7500   -3.8971    0.0000 C   0  0  0  0  0  0  0  0  0  0  0  0
   -3.0000   -2.5981    0.0000 O   0  0  0  0  0  0  0  0  0  0  0  0
   -1.5000   -2.5981    0.0000 C   0  0  0  0  0  0  0  0  0  0  0  0
   -0.7500   -3.8971    0.0000 C   0  0  0  0  0  0  0  0  0  0  0  0
    0.7500   -3.8971    0.0000 C   0  0  0  0  0  0  0  0  0  0  0  0
    1.5000   -2.5981    0.0000 C   0  0  0  0  0  0  0  0  0  0  0  0
    3.0000   -2.5981    0.0000 C   0  0  0  0  0  0  0  0  0  0  0  0
    3.7500   -1.2990    0.0000 O   0  0  0  0  0  0  0  0  0  0  0  0
    3.7500   -3.8971    0.0000 N   0  0  0  0  0  0  0  0  0  0  0  0
    5.2500   -3.8971    0.0000 C   0  0  0  0  0  0  0  0  0  0  0  0
    6.1317   -2.6836    0.0000 N   0  0  0  0  0  0  0  0  0  0  0  0
    7.5583   -3.1471    0.0000 N   0  0  0  0  0  0  0  0  0  0  0  0
    7.5583   -4.6471    0.0000 N   0  0  0  0  0  0  0  0  0  0  0  0
    6.1317   -5.1106    0.0000 N   0  0  0  0  0  0  0  0  0  0  0  0
    5.6682   -6.5372    0.0000 C   0  0  0  0  0  0  0  0  0  0  0  0
    6.5498   -7.7508    0.0000 C   0  0  0  0  0  0  0  0  0  0  0  0
    5.6682   -8.9643    0.0000 C   0  0  0  0  0  0  0  0  0  0  0  0
    4.2416   -8.5008    0.0000 C   0  0  0  0  0  0  0  0  0  0  0  0
    3.0280   -9.3824    0.0000 C   0  0  0  0  0  0  0  0  0  0  0  0
    3.1848  -10.8742    0.0000 O   0  0  0  0  0  0  0  0  0  0  0  0
    1.6577   -8.7723    0.0000 N   0  0  0  0  0  0  0  0  0  0  0  0
    0.4442   -9.6540    0.0000 C   0  0  0  0  0  0  0  0  0  0  0  0
   -0.9261   -9.0439    0.0000 N   0  0  0  0  0  0  0  0  0  0  0  0
   -2.1396   -9.9256    0.0000 N   0  0  0  0  0  0  0  0  0  0  0  0
   -1.9829  -11.4174    0.0000 N   0  0  0  0  0  0  0  0  0  0  0  0
   -0.6125  -12.0275    0.0000 N   0  0  0  0  0  0  0  0  0  0  0  0
    0.6010  -11.1458    0.0000 N   0  0  0  0  0  0  0  0  0  0  0  0
    4.2416   -7.0008    0.0000 C   0  0  0  0  0  0  0  0  0  0  0  0
    0.7500   -1.2990    0.0000 C   0  0  0  0  0  0  0  0  0  0  0  0
    1.5000    0.0000    0.0000 C   0  0  0  0  0  0  0  0  0  0  0  0
    0.7500    1.2990    0.0000 C   0  0  0  0  0  0  0  0  0  0  0  0
   -0.7500    1.2990    0.0000 C   0  0  0  0  0  0  0  0  0  0  0  0
   -1.5000    0.0000    0.0000 C   0  0  0  0  0  0  0  0  0  0  0  0
   -0.7500   -1.2990    0.0000 C   0  0  0  0  0  0  0  0  0  0  0  0
  1  2  1  0
  2  3  1  0
  3  4  2  0
  4  5  1  0
  5  6  2  0
  6  7  1  0
  7  8  2  0
  7  9  1  0
  9 10  1  0
 10 11  2  0
 11 12  1  0
 12 13  2  0
 13 14  1  0
 14 15  1  0
 15 16  2  0
 16 17  1  0
 17 18  2  0
 18 19  1  0
 19 20  2  0
 19 21  1  0
 21 22  1  0
 22 23  2  0
 23 24  1  0
 24 25  2  0
 25 26  1  0
 26 27  2  0
 18 28  1  0
  6 29  1  0
 29 30  2  0
 30 31  1  0
 31 32  2  0
 32 33  1  0
 33 34  2  0
 34  3  1  0
 14 10  1  0
 28 15  1  0
 34 29  1  0
 27 22  1  0
M  END
>  <Title>  (455) 
idAAPOgen6

$$$$

     RDKit          2D

 54 60  0  0  0  0  0  0  0  0999 V2000
   -1.8729   19.1694    0.0000 C   0  0  0  0  0  0  0  0  0  0  0  0
   -3.2482   18.5705    0.0000 C   0  0  0  0  0  0  0  0  0  0  0  0
   -3.4171   17.0801    0.0000 O   0  0  0  0  0  0  0  0  0  0  0  0
   -4.4545   19.4621    0.0000 O   0  0  0  0  0  0  0  0  0  0  0  0
   -5.8297   18.8632    0.0000 C   0  0  0  0  0  0  0  0  0  0  0  0
   -5.8868   17.3643    0.0000 C   0  0  0  0  0  0  0  0  0  0  0  0
   -7.0943   16.4744    0.0000 C   0  0  0  0  0  0  0  0  0  0  0  0
   -8.5429   16.8636    0.0000 C   0  0  0  0  0  0  0  0  0  0  0  0
   -9.5221   15.7273    0.0000 O   0  0  0  0  0  0  0  0  0  0  0  0
   -9.0277   14.3111    0.0000 C   0  0  0  0  0  0  0  0  0  0  0  0
   -7.5540   14.0312    0.0000 O   0  0  0  0  0  0  0  0  0  0  0  0
  -10.0069   13.1748    0.0000 C   0  0  0  0  0  0  0  0  0  0  0  0
  -11.4806   13.4547    0.0000 C   0  0  0  0  0  0  0  0  0  0  0  0
  -12.4598   12.3184    0.0000 C   0  0  0  0  0  0  0  0  0  0  0  0
  -11.9653   10.9022    0.0000 C   0  0  0  0  0  0  0  0  0  0  0  0
  -12.9445    9.7660    0.0000 O   0  0  0  0  0  0  0  0  0  0  0  0
  -10.4916   10.6224    0.0000 C   0  0  0  0  0  0  0  0  0  0  0  0
   -9.5124   11.7587    0.0000 C   0  0  0  0  0  0  0  0  0  0  0  0
   -8.0388   11.4788    0.0000 C   0  0  0  0  0  0  0  0  0  0  0  0
   -6.9462   12.5065    0.0000 C   0  0  0  0  0  0  0  0  0  0  0  0
   -5.6311   11.7850    0.0000 C   0  0  0  0  0  0  0  0  0  0  0  0
   -5.9110   10.3113    0.0000 C   0  0  0  0  0  0  0  0  0  0  0  0
   -4.8833    9.2187    0.0000 C   0  0  0  0  0  0  0  0  0  0  0  0
   -3.4232    9.5624    0.0000 O   0  0  0  0  0  0  0  0  0  0  0  0
   -5.3157    7.7823    0.0000 N   0  0  0  0  0  0  0  0  0  0  0  0
   -4.2879    6.6897    0.0000 C   0  0  0  0  0  0  0  0  0  0  0  0
   -4.7203    5.2534    0.0000 C   0  0  0  0  0  0  0  0  0  0  0  0
   -3.6926    4.1608    0.0000 C   0  0  0  0  0  0  0  0  0  0  0  0
   -2.2325    4.5045    0.0000 C   0  0  0  0  0  0  0  0  0  0  0  0
   -1.2048    3.4119    0.0000 N   0  0  0  0  0  0  0  0  0  0  0  0
    0.2255    3.8638    0.0000 C   0  0  0  0  0  0  0  0  0  0  0  0
    1.4706    3.0272    0.0000 C   0  0  0  0  0  0  0  0  0  0  0  0
    2.2395    1.4392    0.0000 C   0  0  0  0  0  0  0  0  0  0  0  0
    2.6621    0.0000    0.0000 C   0  0  0  0  0  0  0  0  0  0  0  0
    2.2395   -1.4392    0.0000 C   0  0  0  0  0  0  0  0  0  0  0  0
    1.1059   -2.4215    0.0000 C   0  0  0  0  0  0  0  0  0  0  0  0
   -0.3789   -2.6350    0.0000 C   0  0  0  0  0  0  0  0  0  0  0  0
   -1.7433   -2.0119    0.0000 C   0  0  0  0  0  0  0  0  0  0  0  0
   -2.5543   -0.7500    0.0000 C   0  0  0  0  0  0  0  0  0  0  0  0
   -2.5543    0.7500    0.0000 C   0  0  0  0  0  0  0  0  0  0  0  0
   -1.7433    2.0119    0.0000 C   0  0  0  0  0  0  0  0  0  0  0  0
   -0.3789    2.6350    0.0000 N   0  0  0  0  0  0  0  0  0  0  0  0
    1.1059    2.4215    0.0000 C   0  0  0  0  0  0  0  0  0  0  0  0
    1.7290    3.7860    0.0000 O   0  0  0  0  0  0  0  0  0  0  0  0
   -1.8001    5.9408    0.0000 C   0  0  0  0  0  0  0  0  0  0  0  0
   -2.8278    7.0334    0.0000 C   0  0  0  0  0  0  0  0  0  0  0  0
   -7.3990   10.1221    0.0000 C   0  0  0  0  0  0  0  0  0  0  0  0
   -9.1418   18.2388    0.0000 O   0  0  0  0  0  0  0  0  0  0  0  0
   -8.4400   19.5645    0.0000 C   0  0  0  0  0  0  0  0  0  0  0  0
   -9.4177   20.7021    0.0000 C   0  0  0  0  0  0  0  0  0  0  0  0
   -8.9213   22.1176    0.0000 C   0  0  0  0  0  0  0  0  0  0  0  0
   -7.4473   22.3955    0.0000 C   0  0  0  0  0  0  0  0  0  0  0  0
   -6.4696   21.2579    0.0000 C   0  0  0  0  0  0  0  0  0  0  0  0
   -6.9660   19.8424    0.0000 C   0  0  0  0  0  0  0  0  0  0  0  0
  1  2  1  0
  2  3  2  0
  2  4  1  0
  4  5  1  0
  5  6  2  0
  6  7  1  0
  7  8  2  0
  8  9  1  0
  9 10  1  0
 10 11  2  0
 10 12  1  0
 12 13  2  0
 13 14  1  0
 14 15  2  0
 15 16  1  0
 15 17  1  0
 17 18  2  0
 18 19  1  0
 19 20  1  0
 20 21  1  0
 21 22  1  0
 22 23  1  0
 23 24  2  0
 23 25  1  0
 25 26  1  0
 26 27  2  0
 27 28  1  0
 28 29  2  0
 29 30  1  0
 30 31  1  0
 31 32  1  0
 32 33  1  0
 33 34  1  0
 34 35  1  0
 35 36  1  0
 36 37  2  0
 37 38  1  0
 38 39  2  0
 39 40  1  0
 40 41  2  0
 41 42  1  0
 42 43  1  0
 43 44  2  0
 29 45  1  0
 45 46  1  0
 22 47  1  0
  8 48  1  0
 48 49  1  0
 49 50  2  0
 50 51  1  0
 51 52  2  0
 52 53  1  0
 53 54  2  0
 54  5  1  0
 18 12  1  0
 47 19  1  0
 54 49  1  0
 46 26  1  0
 41 30  1  0
 43 33  1  0
M  END
>  <Title>  (456) 
idAAPPgen6

$$$$

     RDKit          2D

  9  9  0  0  0  0  0  0  0  0999 V2000
    5.0260   -1.2990    0.0000 C   0  0  0  0  0  0  0  0  0  0  0  0
    3.5260   -1.2990    0.0000 C   0  0  0  0  0  0  0  0  0  0  0  0
    2.7760   -2.5981    0.0000 O   0  0  0  0  0  0  0  0  0  0  0  0
    2.7760    0.0000    0.0000 N   0  0  0  0  0  0  0  0  0  0  0  0
    1.2760    0.0000    0.0000 N   0  0  0  0  0  0  0  0  0  0  0  0
    0.3943    1.2135    0.0000 C   0  0  0  0  0  0  0  0  0  0  0  0
   -1.0323    0.7500    0.0000 C   0  0  0  0  0  0  0  0  0  0  0  0
   -1.0323   -0.7500    0.0000 C   0  0  0  0  0  0  0  0  0  0  0  0
    0.3943   -1.2135    0.0000 C   0  0  0  0  0  0  0  0  0  0  0  0
  1  2  1  0
  2  3  2  0
  2  4  1  0
  4  5  1  0
  5  6  1  0
  6  7  2  0
  7  8  1  0
  8  9  2  0
  9  5  1  0
M  END
>  <Title>  (457) 
idAAPQgen6

$$$$

     RDKit          2D

 10 10  0  0  0  0  0  0  0  0999 V2000
    5.0260   -1.2990    0.0000 C   0  0  0  0  0  0  0  0  0  0  0  0
    3.5260   -1.2990    0.0000 C   0  0  0  0  0  0  0  0  0  0  0  0
    2.7760   -2.5981    0.0000 O   0  0  0  0  0  0  0  0  0  0  0  0
    2.7760    0.0000    0.0000 C   0  0  0  0  0  0  0  0  0  0  0  0
    3.5260    1.2990    0.0000 O   0  0  0  0  0  0  0  0  0  0  0  0
    1.2760    0.0000    0.0000 C   0  0  0  0  0  0  0  0  0  0  0  0
    0.3943    1.2135    0.0000 C   0  0  0  0  0  0  0  0  0  0  0  0
   -1.0323    0.7500    0.0000 C   0  0  0  0  0  0  0  0  0  0  0  0
   -1.0323   -0.7500    0.0000 C   0  0  0  0  0  0  0  0  0  0  0  0
    0.3943   -1.2135    0.0000 C   0  0  0  0  0  0  0  0  0  0  0  0
  1  2  1  0
  2  3  2  0
  2  4  1  0
  4  5  2  0
  4  6  1  0
  6  7  2  0
  7  8  1  0
  8  9  2  0
  9 10  1  0
 10  6  1  0
M  END
>  <Title>  (458) 
idAAPRgen6

$$$$

     RDKit          2D

 29 32  0  0  0  0  0  0  0  0999 V2000
   -2.2835   -5.7158    0.0000 O   0  0  0  0  0  0  0  0  0  0  0  0
   -1.2228   -6.7765    0.0000 C   0  0  0  0  0  0  0  0  0  0  0  0
   -1.6110   -8.2254    0.0000 N   0  0  0  0  0  0  0  0  0  0  0  0
   -3.0599   -8.6136    0.0000 C   0  0  0  0  0  0  0  0  0  0  0  0
   -4.1206   -7.5529    0.0000 N   0  0  0  0  0  0  0  0  0  0  0  0
   -5.5695   -7.9412    0.0000 N   0  0  0  0  0  0  0  0  0  0  0  0
   -5.9577   -9.3901    0.0000 N   0  0  0  0  0  0  0  0  0  0  0  0
   -4.8970  -10.4507    0.0000 N   0  0  0  0  0  0  0  0  0  0  0  0
   -3.4481  -10.0625    0.0000 N   0  0  0  0  0  0  0  0  0  0  0  0
    0.2261   -6.3883    0.0000 C   0  0  0  0  0  0  0  0  0  0  0  0
    0.6143   -4.9394    0.0000 C   0  0  0  0  0  0  0  0  0  0  0  0
   -0.4463   -3.8787    0.0000 C   0  0  0  0  0  0  0  0  0  0  0  0
    0.2347   -2.5422    0.0000 C   0  0  0  0  0  0  0  0  0  0  0  0
   -0.0000   -1.0607    0.0000 C   0  0  0  0  0  0  0  0  0  0  0  0
    1.0607    0.0000    0.0000 C   0  0  0  0  0  0  0  0  0  0  0  0
    0.0000    1.0607    0.0000 C   0  0  0  0  0  0  0  0  0  0  0  0
   -1.0607    0.0000    0.0000 C   0  0  0  0  0  0  0  0  0  0  0  0
   -2.5422    0.2347    0.0000 C   0  0  0  0  0  0  0  0  0  0  0  0
   -3.8787   -0.4463    0.0000 C   0  0  0  0  0  0  0  0  0  0  0  0
   -4.5597   -1.7828    0.0000 C   0  0  0  0  0  0  0  0  0  0  0  0
   -4.3250   -3.2644    0.0000 C   0  0  0  0  0  0  0  0  0  0  0  0
   -3.2644   -4.3250    0.0000 C   0  0  0  0  0  0  0  0  0  0  0  0
   -1.7828   -4.5597    0.0000 C   0  0  0  0  0  0  0  0  0  0  0  0
    1.2868   -7.4489    0.0000 C   0  0  0  0  0  0  0  0  0  0  0  0
    0.8985   -8.8978    0.0000 C   0  0  0  0  0  0  0  0  0  0  0  0
    1.9592   -9.9585    0.0000 C   0  0  0  0  0  0  0  0  0  0  0  0
    3.4081   -9.5702    0.0000 C   0  0  0  0  0  0  0  0  0  0  0  0
    3.7963   -8.1213    0.0000 C   0  0  0  0  0  0  0  0  0  0  0  0
    2.7356   -7.0607    0.0000 C   0  0  0  0  0  0  0  0  0  0  0  0
  1  2  2  0
  2  3  1  0
  3  4  1  0
  4  5  2  0
  5  6  1  0
  6  7  2  0
  7  8  1  0
  8  9  2  0
  2 10  1  0
 10 11  1  0
 11 12  1  0
 12 13  1  0
 13 14  2  0
 14 15  1  0
 15 16  1  0
 16 17  1  0
 17 18  1  0
 18 19  1  0
 19 20  1  0
 20 21  1  0
 21 22  1  0
 22 23  1  0
 10 24  1  0
 24 25  2  0
 25 26  1  0
 26 27  1  0
 27 28  1  0
 28 29  1  0
  9  4  1  0
 23 12  1  0
 29 24  1  0
 17 14  1  0
M  END
>  <Title>  (459) 
idAAPSgen6

$$$$

     RDKit          2D

 36 40  0  0  0  0  0  0  0  0999 V2000
    5.9860    8.2006    0.0000 C   0  0  0  0  0  0  0  0  0  0  0  0
    4.9658    7.1010    0.0000 C   0  0  0  0  0  0  0  0  0  0  0  0
    5.8108    5.8616    0.0000 C   0  0  0  0  0  0  0  0  0  0  0  0
    6.0343    4.3784    0.0000 C   0  0  0  0  0  0  0  0  0  0  0  0
    5.5922    2.9450    0.0000 C   0  0  0  0  0  0  0  0  0  0  0  0
    4.5719    1.8455    0.0000 C   0  0  0  0  0  0  0  0  0  0  0  0
    3.1756    1.2974    0.0000 C   0  0  0  0  0  0  0  0  0  0  0  0
    1.6798    1.4095    0.0000 C   0  0  0  0  0  0  0  0  0  0  0  0
    2.1929    0.0000    0.0000 C   0  0  0  0  0  0  0  0  0  0  0  0
    1.6798   -1.4095    0.0000 C   0  0  0  0  0  0  0  0  0  0  0  0
    0.3808   -2.1595    0.0000 C   0  0  0  0  0  0  0  0  0  0  0  0
   -1.0964   -1.8991    0.0000 C   0  0  0  0  0  0  0  0  0  0  0  0
   -2.0606   -0.7500    0.0000 C   0  0  0  0  0  0  0  0  0  0  0  0
   -2.0606    0.7500    0.0000 C   0  0  0  0  0  0  0  0  0  0  0  0
   -1.0964    1.8991    0.0000 C   0  0  0  0  0  0  0  0  0  0  0  0
    0.3808    2.1595    0.0000 C   0  0  0  0  0  0  0  0  0  0  0  0
   -0.4642    3.3989    0.0000 C   0  0  0  0  0  0  0  0  0  0  0  0
   -1.6369    2.4637    0.0000 C   0  0  0  0  0  0  0  0  0  0  0  0
   -3.0333    3.0117    0.0000 C   0  0  0  0  0  0  0  0  0  0  0  0
   -3.2568    4.4949    0.0000 C   0  0  0  0  0  0  0  0  0  0  0  0
   -2.0841    5.4302    0.0000 C   0  0  0  0  0  0  0  0  0  0  0  0
   -0.6878    4.8821    0.0000 C   0  0  0  0  0  0  0  0  0  0  0  0
   -0.2456    6.3155    0.0000 C   0  0  0  0  0  0  0  0  0  0  0  0
   -1.7080    6.6493    0.0000 C   0  0  0  0  0  0  0  0  0  0  0  0
   -2.1502    8.0826    0.0000 C   0  0  0  0  0  0  0  0  0  0  0  0
   -1.1299    9.1822    0.0000 C   0  0  0  0  0  0  0  0  0  0  0  0
   -1.5720   10.6156    0.0000 C   0  0  0  0  0  0  0  0  0  0  0  0
   -2.0142   12.0489    0.0000 N   0  0  0  0  0  0  0  0  0  0  0  0
    0.3325    8.8484    0.0000 C   0  0  0  0  0  0  0  0  0  0  0  0
    0.7746    7.4151    0.0000 C   0  0  0  0  0  0  0  0  0  0  0  0
    2.1709    7.9631    0.0000 C   0  0  0  0  0  0  0  0  0  0  0  0
    1.5201    9.3145    0.0000 C   0  0  0  0  0  0  0  0  0  0  0  0
    2.3651   10.5539    0.0000 C   0  0  0  0  0  0  0  0  0  0  0  0
    3.8609   10.4418    0.0000 C   0  0  0  0  0  0  0  0  0  0  0  0
    4.5117    9.0904    0.0000 C   0  0  0  0  0  0  0  0  0  0  0  0
    3.6667    7.8510    0.0000 C   0  0  0  0  0  0  0  0  0  0  0  0
  1  2  1  0
  2  3  1  0
  3  4  2  0
  4  5  1  0
  5  6  1  0
  6  7  1  0
  7  8  1  0
  8  9  1  0
  9 10  2  0
 10 11  1  0
 11 12  2  0
 12 13  1  0
 13 14  2  0
 14 15  1  0
 15 16  2  0
 16 17  1  0
 17 18  2  0
 18 19  1  0
 19 20  2  0
 20 21  1  0
 21 22  2  0
 22 23  1  0
 23 24  2  0
 24 25  1  0
 25 26  2  0
 26 27  1  0
 27 28  3  0
 26 29  1  0
 29 30  2  0
 30 31  1  0
 31 32  2  0
 32 33  1  0
 33 34  2  0
 34 35  1  0
 35 36  2  0
 36  2  1  0
 16  8  1  0
 22 17  1  0
 30 23  1  0
 36 31  1  0
M  END
>  <Title>  (460) 
idAAPTgen6

$$$$

     RDKit          2D

  4  3  0  0  0  0  0  0  0  0999 V2000
    0.0000    0.0000    0.0000 C   0  0  0  0  0  0  0  0  0  0  0  0
   -0.0000   -1.5000    0.0000 C   0  0  0  0  0  0  0  0  0  0  0  0
   -0.0000   -3.0000    0.0000 C   0  0  0  0  0  0  0  0  0  0  0  0
   -0.0000   -4.5000    0.0000 N   0  0  0  0  0  0  0  0  0  0  0  0
  1  2  3  0
  2  3  1  0
  3  4  3  0
M  END
>  <Title>  (461) 
idAAPUgen6

$$$$

     RDKit          2D

 16 17  0  0  0  0  0  0  0  0999 V2000
    3.0000    0.0000    0.0000 C   0  0  0  0  0  0  0  0  0  0  0  0
    1.5000    0.0000    0.0000 C   0  0  0  0  0  0  0  0  0  0  0  0
    0.7500   -1.2990    0.0000 C   0  0  0  0  0  0  0  0  0  0  0  0
   -0.7500   -1.2990    0.0000 C   0  0  0  0  0  0  0  0  0  0  0  0
   -1.5000    0.0000    0.0000 C   0  0  0  0  0  0  0  0  0  0  0  0
   -3.0000    0.0000    0.0000 C   0  0  0  0  0  0  0  0  0  0  0  0
   -3.7500   -1.2990    0.0000 O   0  0  0  0  0  0  0  0  0  0  0  0
   -3.7500    1.2990    0.0000 N   0  0  0  0  0  0  0  0  0  0  0  0
   -5.2500    1.2990    0.0000 C   0  0  0  0  0  0  0  0  0  0  0  0
   -6.0000    2.5981    0.0000 N   0  0  0  0  0  0  0  0  0  0  0  0
   -7.5000    2.5981    0.0000 N   0  0  0  0  0  0  0  0  0  0  0  0
   -8.2500    1.2990    0.0000 N   0  0  0  0  0  0  0  0  0  0  0  0
   -7.5000    0.0000    0.0000 N   0  0  0  0  0  0  0  0  0  0  0  0
   -6.0000    0.0000    0.0000 N   0  0  0  0  0  0  0  0  0  0  0  0
   -0.7500    1.2990    0.0000 C   0  0  0  0  0  0  0  0  0  0  0  0
    0.7500    1.2990    0.0000 C   0  0  0  0  0  0  0  0  0  0  0  0
  1  2  1  0
  2  3  1  0
  3  4  2  0
  4  5  1  0
  5  6  1  0
  6  7  2  0
  6  8  1  0
  8  9  1  0
  9 10  2  0
 10 11  1  0
 11 12  2  0
 12 13  1  0
 13 14  2  0
  5 15  1  0
 15 16  2  0
 16  2  1  0
 14  9  1  0
M  END
>  <Title>  (462) 
idAAPVgen6

$$$$

     RDKit          2D

 22 24  0  0  0  0  0  0  0  0999 V2000
   -0.7500   -3.8971    0.0000 O   0  0  0  0  0  0  0  0  0  0  0  0
    0.7500   -3.8971    0.0000 C   0  0  0  0  0  0  0  0  0  0  0  0
    1.5000   -2.5981    0.0000 N   0  0  0  0  0  0  0  0  0  0  0  0
    0.7500   -1.2990    0.0000 C   0  0  0  0  0  0  0  0  0  0  0  0
    1.5000    0.0000    0.0000 C   0  0  0  0  0  0  0  0  0  0  0  0
    0.7500    1.2990    0.0000 C   0  0  0  0  0  0  0  0  0  0  0  0
   -0.7500    1.2990    0.0000 C   0  0  0  0  0  0  0  0  0  0  0  0
   -1.5000    0.0000    0.0000 C   0  0  0  0  0  0  0  0  0  0  0  0
   -0.7500   -1.2990    0.0000 C   0  0  0  0  0  0  0  0  0  0  0  0
    1.5000   -5.1962    0.0000 N   0  0  0  0  0  0  0  0  0  0  0  0
    0.7500   -6.4952    0.0000 C   0  0  0  0  0  0  0  0  0  0  0  0
    1.5000   -7.7942    0.0000 C   0  0  0  0  0  0  0  0  0  0  0  0
    3.0000   -7.7942    0.0000 C   0  0  0  0  0  0  0  0  0  0  0  0
    3.7500   -9.0933    0.0000 C   0  0  0  0  0  0  0  0  0  0  0  0
    3.0000  -10.3923    0.0000 C   0  0  0  0  0  0  0  0  0  0  0  0
    3.7500  -11.6913    0.0000 C   0  0  0  0  0  0  0  0  0  0  0  0
    5.2500  -11.6913    0.0000 C   0  0  0  0  0  0  0  0  0  0  0  0
    6.0000  -12.9904    0.0000 O   0  0  0  0  0  0  0  0  0  0  0  0
    6.0000  -10.3923    0.0000 C   0  0  0  0  0  0  0  0  0  0  0  0
    5.2500   -9.0933    0.0000 C   0  0  0  0  0  0  0  0  0  0  0  0
    3.7500   -6.4952    0.0000 C   0  0  0  0  0  0  0  0  0  0  0  0
    3.0000   -5.1962    0.0000 C   0  0  0  0  0  0  0  0  0  0  0  0
  1  2  2  0
  2  3  1  0
  3  4  1  0
  4  5  2  0
  5  6  1  0
  6  7  2  0
  7  8  1  0
  8  9  2  0
  2 10  1  0
 10 11  1  0
 11 12  1  0
 12 13  1  0
 13 14  1  0
 14 15  2  0
 15 16  1  0
 16 17  2  0
 17 18  1  0
 17 19  1  0
 19 20  2  0
 13 21  1  0
 21 22  1  0
  9  4  1  0
 22 10  1  0
 20 14  1  0
M  END
>  <Title>  (463) 
idAAPWgen6

$$$$

     RDKit          2D

 49 57  0  0  0  0  0  0  0  0999 V2000
   -3.7500   -1.2990    0.0000 O   0  0  0  0  0  0  0  0  0  0  0  0
   -3.0000   -2.5981    0.0000 C   0  0  0  0  0  0  0  0  0  0  0  0
   -3.7500   -3.8971    0.0000 N   0  0  0  0  0  0  0  0  0  0  0  0
   -5.2500   -3.8971    0.0000 C   0  0  0  0  0  0  0  0  0  0  0  0
   -6.1317   -2.6836    0.0000 N   0  0  0  0  0  0  0  0  0  0  0  0
   -7.5583   -3.1471    0.0000 N   0  0  0  0  0  0  0  0  0  0  0  0
   -7.5583   -4.6471    0.0000 N   0  0  0  0  0  0  0  0  0  0  0  0
   -6.1317   -5.1106    0.0000 N   0  0  0  0  0  0  0  0  0  0  0  0
   -5.6682   -6.5372    0.0000 N   0  0  0  0  0  0  0  0  0  0  0  0
   -6.6718   -7.6519    0.0000 C   0  0  0  0  0  0  0  0  0  0  0  0
   -6.2083   -9.0785    0.0000 C   0  0  0  0  0  0  0  0  0  0  0  0
   -4.7411   -9.3904    0.0000 C   0  0  0  0  0  0  0  0  0  0  0  0
   -5.0530  -10.8576    0.0000 C   0  0  0  0  0  0  0  0  0  0  0  0
   -6.5202  -10.5457    0.0000 C   0  0  0  0  0  0  0  0  0  0  0  0
   -7.7782  -11.3627    0.0000 C   0  0  0  0  0  0  0  0  0  0  0  0
   -7.6997  -12.8607    0.0000 C   0  0  0  0  0  0  0  0  0  0  0  0
   -8.9577  -13.6776    0.0000 C   0  0  0  0  0  0  0  0  0  0  0  0
  -10.2942  -12.9966    0.0000 C   0  0  0  0  0  0  0  0  0  0  0  0
  -10.3727  -11.4987    0.0000 C   0  0  0  0  0  0  0  0  0  0  0  0
   -9.1147  -10.6817    0.0000 C   0  0  0  0  0  0  0  0  0  0  0  0
   -3.7374   -8.2757    0.0000 O   0  0  0  0  0  0  0  0  0  0  0  0
   -4.2009   -6.8491    0.0000 C   0  0  0  0  0  0  0  0  0  0  0  0
   -3.1972   -5.7344    0.0000 O   0  0  0  0  0  0  0  0  0  0  0  0
   -1.5000   -2.5981    0.0000 C   0  0  0  0  0  0  0  0  0  0  0  0
   -0.7500   -3.8971    0.0000 C   0  0  0  0  0  0  0  0  0  0  0  0
    0.7500   -3.8971    0.0000 C   0  0  0  0  0  0  0  0  0  0  0  0
    1.5000   -2.5981    0.0000 C   0  0  0  0  0  0  0  0  0  0  0  0
    3.0000   -2.5981    0.0000 C   0  0  0  0  0  0  0  0  0  0  0  0
    3.8817   -1.3846    0.0000 N   0  0  0  0  0  0  0  0  0  0  0  0
    5.3083   -1.8481    0.0000 N   0  0  0  0  0  0  0  0  0  0  0  0
    5.3083   -3.3481    0.0000 N   0  0  0  0  0  0  0  0  0  0  0  0
    3.8817   -3.8116    0.0000 N   0  0  0  0  0  0  0  0  0  0  0  0
    3.4182   -5.2382    0.0000 C   0  0  0  0  0  0  0  0  0  0  0  0
    1.9509   -5.5501    0.0000 C   0  0  0  0  0  0  0  0  0  0  0  0
    1.4874   -6.9766    0.0000 C   0  0  0  0  0  0  0  0  0  0  0  0
    2.4911   -8.0914    0.0000 C   0  0  0  0  0  0  0  0  0  0  0  0
    3.9583   -7.7795    0.0000 C   0  0  0  0  0  0  0  0  0  0  0  0
    4.4218   -6.3529    0.0000 C   0  0  0  0  0  0  0  0  0  0  0  0
    5.8891   -6.0410    0.0000 N   0  0  0  0  0  0  0  0  0  0  0  0
    7.1471   -6.8580    0.0000 C   0  0  0  0  0  0  0  0  0  0  0  0
    7.9640   -5.6000    0.0000 C   0  0  0  0  0  0  0  0  0  0  0  0
    6.7060   -4.7830    0.0000 C   0  0  0  0  0  0  0  0  0  0  0  0
    6.3942   -3.3158    0.0000 O   0  0  0  0  0  0  0  0  0  0  0  0
    0.7500   -1.2990    0.0000 C   0  0  0  0  0  0  0  0  0  0  0  0
    1.5000    0.0000    0.0000 C   0  0  0  0  0  0  0  0  0  0  0  0
    0.7500    1.2990    0.0000 C   0  0  0  0  0  0  0  0  0  0  0  0
   -0.7500    1.2990    0.0000 C   0  0  0  0  0  0  0  0  0  0  0  0
   -1.5000    0.0000    0.0000 C   0  0  0  0  0  0  0  0  0  0  0  0
   -0.7500   -1.2990    0.0000 C   0  0  0  0  0  0  0  0  0  0  0  0
  1  2  2  0
  2  3  1  0
  3  4  1  0
  4  5  2  0
  5  6  1  0
  6  7  2  0
  7  8  1  0
  8  9  1  0
  9 10  1  0
 10 11  2  0
 11 12  1  0
 12 13  2  0
 13 14  1  0
 14 15  1  0
 15 16  2  0
 16 17  1  0
 17 18  2  0
 18 19  1  0
 19 20  2  0
 12 21  1  0
 21 22  1  0
 22 23  2  0
  2 24  1  0
 24 25  1  0
 25 26  1  0
 26 27  1  0
 27 28  1  0
 28 29  2  0
 29 30  1  0
 30 31  2  0
 31 32  1  0
 32 33  1  0
 33 34  2  0
 34 35  1  0
 35 36  2  0
 36 37  1  0
 37 38  2  0
 38 39  1  0
 39 40  1  0
 40 41  1  0
 41 42  1  0
 42 43  2  0
 27 44  1  0
 44 45  2  0
 45 46  1  0
 46 47  2  0
 47 48  1  0
 48 49  2  0
  8  4  1  0
 22  9  1  0
 49 24  1  0
 14 11  1  0
 20 15  1  0
 32 28  1  0
 38 33  1  0
 42 39  1  0
 49 44  1  0
M  END
>  <Title>  (464) 
idAAPXgen6

$$$$

     RDKit          2D

 22 24  0  0  0  0  0  0  0  0999 V2000
   -3.8468   -5.5647    0.0000 C   0  0  0  0  0  0  0  0  0  0  0  0
   -3.2728   -4.1789    0.0000 C   0  0  0  0  0  0  0  0  0  0  0  0
   -4.1859   -2.9888    0.0000 O   0  0  0  0  0  0  0  0  0  0  0  0
   -1.7856   -3.9831    0.0000 C   0  0  0  0  0  0  0  0  0  0  0  0
   -0.5951   -1.3462    0.0000 C   0  0  0  0  0  0  0  0  0  0  0  0
   -1.1441   -0.3914    0.0000 C   0  0  0  0  0  0  0  0  0  0  0  0
   -1.9598    0.0000    0.0000 C   0  0  0  0  0  0  0  0  0  0  0  0
   -0.8908   -0.8908    0.0000 C   0  0  0  0  0  0  0  0  0  0  0  0
   -0.0000   -1.2598    0.0000 C   0  0  0  0  0  0  0  0  0  0  0  0
    1.3858   -1.3858    0.0000 C   0  0  0  0  0  0  0  0  0  0  0  0
    1.9598    0.0000    0.0000 C   0  0  0  0  0  0  0  0  0  0  0  0
    1.3858    1.3858    0.0000 C   0  0  0  0  0  0  0  0  0  0  0  0
    0.0000    1.9598    0.0000 C   0  0  0  0  0  0  0  0  0  0  0  0
    0.0000    3.4598    0.0000 C   0  0  0  0  0  0  0  0  0  0  0  0
    1.2990    4.2098    0.0000 C   0  0  0  0  0  0  0  0  0  0  0  0
    1.2990    5.7098    0.0000 C   0  0  0  0  0  0  0  0  0  0  0  0
    0.0000    6.4598    0.0000 C   0  0  0  0  0  0  0  0  0  0  0  0
   -1.2990    5.7098    0.0000 C   0  0  0  0  0  0  0  0  0  0  0  0
   -1.2990    4.2098    0.0000 C   0  0  0  0  0  0  0  0  0  0  0  0
   -1.3858    1.3858    0.0000 C   0  0  0  0  0  0  0  0  0  0  0  0
    0.5180   -1.1069    0.0000 C   0  0  0  0  0  0  0  0  0  0  0  0
    1.0116   -3.8260    0.0000 O   0  0  0  0  0  0  0  0  0  0  0  0
  1  2  1  0
  2  3  2  0
  2  4  1  0
  4  5  1  0
  5  6  1  0
  6  7  1  0
  7  8  2  0
  8  9  1  0
  9 10  2  0
 10 11  1  0
 11 12  1  0
 12 13  1  0
 13 14  1  0
 14 15  2  0
 15 16  1  0
 16 17  2  0
 17 18  1  0
 18 19  2  0
 13 20  1  0
 10 21  1  0
 21 22  2  0
 21  5  1  0
 20  7  1  0
 19 14  1  0
M  END
>  <Title>  (465) 
idAAPYgen6

$$$$

     RDKit          2D

 20 22  0  0  0  0  0  0  0  0999 V2000
   -3.5736    1.2902    0.0000 C   0  0  0  0  0  0  0  0  0  0  0  0
   -2.1470    1.7537    0.0000 C   0  0  0  0  0  0  0  0  0  0  0  0
   -1.8351    3.2209    0.0000 C   0  0  0  0  0  0  0  0  0  0  0  0
   -0.4086    3.6844    0.0000 C   0  0  0  0  0  0  0  0  0  0  0  0
    0.7062    2.6807    0.0000 C   0  0  0  0  0  0  0  0  0  0  0  0
    2.1328    3.1443    0.0000 C   0  0  0  0  0  0  0  0  0  0  0  0
    3.2475    2.1406    0.0000 O   0  0  0  0  0  0  0  0  0  0  0  0
    2.4446    4.6115    0.0000 N   0  0  0  0  0  0  0  0  0  0  0  0
    3.8712    5.0750    0.0000 C   0  0  0  0  0  0  0  0  0  0  0  0
    4.9859    4.0713    0.0000 N   0  0  0  0  0  0  0  0  0  0  0  0
    6.4125    4.5348    0.0000 N   0  0  0  0  0  0  0  0  0  0  0  0
    6.7244    6.0021    0.0000 N   0  0  0  0  0  0  0  0  0  0  0  0
    5.6097    7.0058    0.0000 N   0  0  0  0  0  0  0  0  0  0  0  0
    4.1831    6.5422    0.0000 N   0  0  0  0  0  0  0  0  0  0  0  0
    0.3943    1.2135    0.0000 C   0  0  0  0  0  0  0  0  0  0  0  0
    1.2760    0.0000    0.0000 C   0  0  0  0  0  0  0  0  0  0  0  0
    0.3943   -1.2135    0.0000 C   0  0  0  0  0  0  0  0  0  0  0  0
   -1.0323   -0.7500    0.0000 C   0  0  0  0  0  0  0  0  0  0  0  0
   -2.2458   -1.6317    0.0000 O   0  0  0  0  0  0  0  0  0  0  0  0
   -1.0323    0.7500    0.0000 N   0  0  0  0  0  0  0  0  0  0  0  0
  1  2  1  0
  2  3  1  0
  3  4  2  0
  4  5  1  0
  5  6  1  0
  6  7  2  0
  6  8  1  0
  8  9  1  0
  9 10  2  0
 10 11  1  0
 11 12  2  0
 12 13  1  0
 13 14  2  0
  5 15  1  0
 15 16  1  0
 16 17  1  0
 17 18  1  0
 18 19  2  0
 18 20  1  0
 20  2  1  0
 14  9  1  0
 20 15  1  0
M  END
>  <Title>  (466) 
idAAPZgen6

$$$$

     RDKit          2D

 40 44  0  0  0  0  0  0  0  0999 V2000
   -8.2500   -6.4952    0.0000 C   0  0  0  0  0  0  0  0  0  0  0  0
   -7.5000   -5.1962    0.0000 C   0  0  0  0  0  0  0  0  0  0  0  0
   -6.0000   -5.1962    0.0000 C   0  0  0  0  0  0  0  0  0  0  0  0
   -5.2500   -3.8971    0.0000 O   0  0  0  0  0  0  0  0  0  0  0  0
   -3.7500   -3.8971    0.0000 C   0  0  0  0  0  0  0  0  0  0  0  0
   -3.0000   -2.5981    0.0000 C   0  0  0  0  0  0  0  0  0  0  0  0
   -1.5000   -2.5981    0.0000 C   0  0  0  0  0  0  0  0  0  0  0  0
   -0.7500   -3.8971    0.0000 C   0  0  0  0  0  0  0  0  0  0  0  0
    0.7500   -3.8971    0.0000 C   0  0  0  0  0  0  0  0  0  0  0  0
    1.5000   -2.5981    0.0000 C   0  0  0  0  0  0  0  0  0  0  0  0
    3.0000   -2.5981    0.0000 O   0  0  0  0  0  0  0  0  0  0  0  0
    3.7500   -3.8971    0.0000 C   0  0  0  0  0  0  0  0  0  0  0  0
    5.2500   -3.8971    0.0000 C   0  0  0  0  0  0  0  0  0  0  0  0
    6.0000   -5.1962    0.0000 C   0  0  0  0  0  0  0  0  0  0  0  0
    7.5000   -5.1962    0.0000 C   0  0  0  0  0  0  0  0  0  0  0  0
    8.2500   -3.8971    0.0000 C   0  0  0  0  0  0  0  0  0  0  0  0
    7.5000   -2.5981    0.0000 C   0  0  0  0  0  0  0  0  0  0  0  0
    6.0000   -2.5981    0.0000 C   0  0  0  0  0  0  0  0  0  0  0  0
    5.2500   -1.2990    0.0000 C   0  0  0  0  0  0  0  0  0  0  0  0
    3.7582   -1.1422    0.0000 C   0  0  0  0  0  0  0  0  0  0  0  0
    3.4463    0.3250    0.0000 C   0  0  0  0  0  0  0  0  0  0  0  0
    4.7454    1.0750    0.0000 C   0  0  0  0  0  0  0  0  0  0  0  0
    4.9022    2.5668    0.0000 C   0  0  0  0  0  0  0  0  0  0  0  0
    3.6887    3.4484    0.0000 O   0  0  0  0  0  0  0  0  0  0  0  0
    6.2725    3.1769    0.0000 N   0  0  0  0  0  0  0  0  0  0  0  0
    6.4293    4.6686    0.0000 C   0  0  0  0  0  0  0  0  0  0  0  0
    5.2158    5.5503    0.0000 O   0  0  0  0  0  0  0  0  0  0  0  0
    7.7996    5.2788    0.0000 C   0  0  0  0  0  0  0  0  0  0  0  0
    9.0131    4.3971    0.0000 C   0  0  0  0  0  0  0  0  0  0  0  0
   10.3835    5.0072    0.0000 C   0  0  0  0  0  0  0  0  0  0  0  0
   10.5402    6.4990    0.0000 C   0  0  0  0  0  0  0  0  0  0  0  0
    9.3267    7.3806    0.0000 N   0  0  0  0  0  0  0  0  0  0  0  0
    7.9564    6.7705    0.0000 C   0  0  0  0  0  0  0  0  0  0  0  0
    5.8601    0.0713    0.0000 C   0  0  0  0  0  0  0  0  0  0  0  0
    0.7500   -1.2990    0.0000 C   0  0  0  0  0  0  0  0  0  0  0  0
    1.5000    0.0000    0.0000 C   0  0  0  0  0  0  0  0  0  0  0  0
    0.7500    1.2990    0.0000 C   0  0  0  0  0  0  0  0  0  0  0  0
   -0.7500    1.2990    0.0000 C   0  0  0  0  0  0  0  0  0  0  0  0
   -1.5000    0.0000    0.0000 C   0  0  0  0  0  0  0  0  0  0  0  0
   -0.7500   -1.2990    0.0000 C   0  0  0  0  0  0  0  0  0  0  0  0
  1  2  2  0
  2  3  1  0
  3  4  1  0
  4  5  1  0
  5  6  1  0
  6  7  1  0
  7  8  2  0
  8  9  1  0
  9 10  2  0
 10 11  1  0
 11 12  1  0
 12 13  1  0
 13 14  2  0
 14 15  1  0
 15 16  2  0
 16 17  1  0
 17 18  2  0
 18 19  1  0
 19 20  2  0
 20 21  1  0
 21 22  2  0
 22 23  1  0
 23 24  2  0
 23 25  1  0
 25 26  1  0
 26 27  2  0
 26 28  1  0
 28 29  2  0
 29 30  1  0
 30 31  2  0
 31 32  1  0
 32 33  2  0
 22 34  1  0
 10 35  1  0
 35 36  2  0
 36 37  1  0
 37 38  2  0
 38 39  1  0
 39 40  2  0
 40  7  1  0
 18 13  1  0
 34 19  1  0
 40 35  1  0
 33 28  1  0
M  END
>  <Title>  (467) 
idAAQAgen6

$$$$

     RDKit          2D

 23 24  0  0  0  0  0  0  0  0999 V2000
    0.7500   -6.4952    0.0000 C   0  0  0  0  0  0  0  0  0  0  0  0
    1.5000   -5.1962    0.0000 C   0  0  0  0  0  0  0  0  0  0  0  0
    3.0000   -5.1962    0.0000 O   0  0  0  0  0  0  0  0  0  0  0  0
    0.7500   -3.8971    0.0000 C   0  0  0  0  0  0  0  0  0  0  0  0
    1.5000   -2.5981    0.0000 C   0  0  0  0  0  0  0  0  0  0  0  0
    0.7500   -1.2990    0.0000 C   0  0  0  0  0  0  0  0  0  0  0  0
    1.5000    0.0000    0.0000 C   0  0  0  0  0  0  0  0  0  0  0  0
    0.7500    1.2990    0.0000 C   0  0  0  0  0  0  0  0  0  0  0  0
   -0.7500    1.2990    0.0000 C   0  0  0  0  0  0  0  0  0  0  0  0
   -1.5000    0.0000    0.0000 C   0  0  0  0  0  0  0  0  0  0  0  0
   -0.7500   -1.2990    0.0000 C   0  0  0  0  0  0  0  0  0  0  0  0
   -0.7500   -3.8971    0.0000 N   0  0  0  0  0  0  0  0  0  0  0  0
   -1.5000   -5.1962    0.0000 C   0  0  0  0  0  0  0  0  0  0  0  0
   -0.7500   -6.4952    0.0000 O   0  0  0  0  0  0  0  0  0  0  0  0
   -3.0000   -5.1962    0.0000 C   0  0  0  0  0  0  0  0  0  0  0  0
   -3.8817   -6.4097    0.0000 C   0  0  0  0  0  0  0  0  0  0  0  0
   -5.3083   -5.9462    0.0000 C   0  0  0  0  0  0  0  0  0  0  0  0
   -5.3083   -4.4462    0.0000 C   0  0  0  0  0  0  0  0  0  0  0  0
   -6.5218   -3.5645    0.0000 C   0  0  0  0  0  0  0  0  0  0  0  0
   -7.8921   -4.1746    0.0000 O   0  0  0  0  0  0  0  0  0  0  0  0
   -6.3650   -2.0727    0.0000 O   0  0  0  0  0  0  0  0  0  0  0  0
   -3.8817   -3.9826    0.0000 C   0  0  0  0  0  0  0  0  0  0  0  0
   -3.4182   -2.5560    0.0000 O   0  0  0  0  0  0  0  0  0  0  0  0
  1  2  1  0
  2  3  2  0
  2  4  1  0
  4  5  1  0
  5  6  1  0
  6  7  2  0
  7  8  1  0
  8  9  2  0
  9 10  1  0
 10 11  2  0
  4 12  1  0
 12 13  1  0
 13 14  2  0
 13 15  1  0
 15 16  1  0
 16 17  1  0
 17 18  1  0
 18 19  1  0
 19 20  2  0
 19 21  1  0
 18 22  1  0
 22 23  2  0
 11  6  1  0
 22 15  1  0
M  END
>  <Title>  (468) 
idAAQBgen6

$$$$

     RDKit          2D

 25 27  0  0  0  0  0  0  0  0999 V2000
   -7.0990    0.8256    0.0000 C   0  0  0  0  0  0  0  0  0  0  0  0
   -5.9843   -0.1781    0.0000 C   0  0  0  0  0  0  0  0  0  0  0  0
   -4.5577    0.2855    0.0000 O   0  0  0  0  0  0  0  0  0  0  0  0
   -6.2961   -1.6453    0.0000 C   0  0  0  0  0  0  0  0  0  0  0  0
   -7.7227   -2.1088    0.0000 C   0  0  0  0  0  0  0  0  0  0  0  0
   -8.8374   -1.1051    0.0000 C   0  0  0  0  0  0  0  0  0  0  0  0
   -8.5256    0.3621    0.0000 C   0  0  0  0  0  0  0  0  0  0  0  0
   -9.6403    1.3658    0.0000 C   0  0  0  0  0  0  0  0  0  0  0  0
  -11.0669    0.9023    0.0000 C   0  0  0  0  0  0  0  0  0  0  0  0
  -11.3787   -0.5649    0.0000 C   0  0  0  0  0  0  0  0  0  0  0  0
  -10.2640   -1.5686    0.0000 C   0  0  0  0  0  0  0  0  0  0  0  0
   -5.1814   -2.6490    0.0000 N   0  0  0  0  0  0  0  0  0  0  0  0
   -3.7548   -2.1855    0.0000 C   0  0  0  0  0  0  0  0  0  0  0  0
   -3.4430   -0.7182    0.0000 O   0  0  0  0  0  0  0  0  0  0  0  0
   -2.6401   -3.1891    0.0000 C   0  0  0  0  0  0  0  0  0  0  0  0
   -1.2135   -2.7256    0.0000 N   0  0  0  0  0  0  0  0  0  0  0  0
   -0.0000   -3.6073    0.0000 C   0  0  0  0  0  0  0  0  0  0  0  0
    0.0000   -5.1073    0.0000 O   0  0  0  0  0  0  0  0  0  0  0  0
    1.2135   -2.7256    0.0000 O   0  0  0  0  0  0  0  0  0  0  0  0
    0.7500   -1.2990    0.0000 C   0  0  0  0  0  0  0  0  0  0  0  0
    1.5000    0.0000    0.0000 C   0  0  0  0  0  0  0  0  0  0  0  0
    0.7500    1.2990    0.0000 C   0  0  0  0  0  0  0  0  0  0  0  0
   -0.7500    1.2990    0.0000 C   0  0  0  0  0  0  0  0  0  0  0  0
   -1.5000    0.0000    0.0000 C   0  0  0  0  0  0  0  0  0  0  0  0
   -0.7500   -1.2990    0.0000 C   0  0  0  0  0  0  0  0  0  0  0  0
  1  2  1  0
  2  3  2  0
  2  4  1  0
  4  5  1  0
  5  6  1  0
  6  7  2  0
  7  8  1  0
  8  9  2  0
  9 10  1  0
 10 11  2  0
  4 12  1  0
 12 13  1  0
 13 14  2  0
 13 15  1  0
 15 16  1  0
 16 17  1  0
 17 18  2  0
 17 19  1  0
 19 20  1  0
 20 21  2  0
 21 22  1  0
 22 23  2  0
 23 24  1  0
 24 25  2  0
 11  6  1  0
 25 16  1  0
 25 20  1  0
M  END
>  <Title>  (469) 
idAAQCgen6

$$$$

     RDKit          2D

 45 49  0  0  0  0  0  0  0  0999 V2000
   -4.6904   -6.5871    0.0000 C   0  0  0  0  0  0  0  0  0  0  0  0
   -4.3786   -5.1199    0.0000 C   0  0  0  0  0  0  0  0  0  0  0  0
   -5.4933   -4.1162    0.0000 O   0  0  0  0  0  0  0  0  0  0  0  0
   -2.9520   -4.6564    0.0000 C   0  0  0  0  0  0  0  0  0  0  0  0
   -2.6401   -3.1891    0.0000 C   0  0  0  0  0  0  0  0  0  0  0  0
   -1.2135   -2.7256    0.0000 C   0  0  0  0  0  0  0  0  0  0  0  0
   -0.0000   -3.6073    0.0000 C   0  0  0  0  0  0  0  0  0  0  0  0
    1.2135   -2.7256    0.0000 C   0  0  0  0  0  0  0  0  0  0  0  0
    0.7500   -1.2990    0.0000 C   0  0  0  0  0  0  0  0  0  0  0  0
    1.5000    0.0000    0.0000 C   0  0  0  0  0  0  0  0  0  0  0  0
    0.7500    1.2990    0.0000 C   0  0  0  0  0  0  0  0  0  0  0  0
   -0.7500    1.2990    0.0000 C   0  0  0  0  0  0  0  0  0  0  0  0
   -1.5000    0.0000    0.0000 C   0  0  0  0  0  0  0  0  0  0  0  0
   -0.7500   -1.2990    0.0000 C   0  0  0  0  0  0  0  0  0  0  0  0
   -1.8373   -5.6601    0.0000 N   0  0  0  0  0  0  0  0  0  0  0  0
   -2.1491   -7.1273    0.0000 C   0  0  0  0  0  0  0  0  0  0  0  0
   -3.5757   -7.5908    0.0000 O   0  0  0  0  0  0  0  0  0  0  0  0
   -1.0344   -8.1310    0.0000 C   0  0  0  0  0  0  0  0  0  0  0  0
   -1.3463   -9.5982    0.0000 C   0  0  0  0  0  0  0  0  0  0  0  0
   -0.2316  -10.6019    0.0000 C   0  0  0  0  0  0  0  0  0  0  0  0
   -0.5434  -12.0691    0.0000 C   0  0  0  0  0  0  0  0  0  0  0  0
    0.5713  -13.0728    0.0000 C   0  0  0  0  0  0  0  0  0  0  0  0
    1.9979  -12.6093    0.0000 C   0  0  0  0  0  0  0  0  0  0  0  0
    2.3097  -11.1421    0.0000 C   0  0  0  0  0  0  0  0  0  0  0  0
    1.1950  -10.1384    0.0000 C   0  0  0  0  0  0  0  0  0  0  0  0
    0.3922   -7.6675    0.0000 N   0  0  0  0  0  0  0  0  0  0  0  0
    0.7040   -6.2002    0.0000 C   0  0  0  0  0  0  0  0  0  0  0  0
   -0.4107   -5.1965    0.0000 O   0  0  0  0  0  0  0  0  0  0  0  0
    2.1306   -5.7367    0.0000 C   0  0  0  0  0  0  0  0  0  0  0  0
    2.4425   -4.2695    0.0000 C   0  0  0  0  0  0  0  0  0  0  0  0
    3.8691   -3.8060    0.0000 C   0  0  0  0  0  0  0  0  0  0  0  0
    4.1809   -2.3387    0.0000 C   0  0  0  0  0  0  0  0  0  0  0  0
    5.6075   -1.8752    0.0000 C   0  0  0  0  0  0  0  0  0  0  0  0
    6.7222   -2.8789    0.0000 C   0  0  0  0  0  0  0  0  0  0  0  0
    6.4104   -4.3461    0.0000 C   0  0  0  0  0  0  0  0  0  0  0  0
    4.9838   -4.8097    0.0000 C   0  0  0  0  0  0  0  0  0  0  0  0
    3.2453   -6.7404    0.0000 N   0  0  0  0  0  0  0  0  0  0  0  0
    2.9335   -8.2076    0.0000 C   0  0  0  0  0  0  0  0  0  0  0  0
    1.5069   -8.6712    0.0000 O   0  0  0  0  0  0  0  0  0  0  0  0
    4.0482   -9.2113    0.0000 C   0  0  0  0  0  0  0  0  0  0  0  0
    5.5154   -8.8995    0.0000 C   0  0  0  0  0  0  0  0  0  0  0  0
    6.2654  -10.1985    0.0000 C   0  0  0  0  0  0  0  0  0  0  0  0
    5.2617  -11.3132    0.0000 C   0  0  0  0  0  0  0  0  0  0  0  0
    5.5736  -12.7804    0.0000 O   0  0  0  0  0  0  0  0  0  0  0  0
    3.8914  -10.7031    0.0000 N   0  0  0  0  0  0  0  0  0  0  0  0
  1  2  1  0
  2  3  2  0
  2  4  1  0
  4  5  1  0
  5  6  1  0
  6  7  2  0
  7  8  1  0
  8  9  2  0
  9 10  1  0
 10 11  1  0
 11 12  2  0
 12 13  1  0
 13 14  2  0
  4 15  1  0
 15 16  1  0
 16 17  2  0
 16 18  1  0
 18 19  1  0
 19 20  1  0
 20 21  2  0
 21 22  1  0
 22 23  2  0
 23 24  1  0
 24 25  2  0
 18 26  1  0
 26 27  1  0
 27 28  2  0
 27 29  1  0
 29 30  1  0
 30 31  1  0
 31 32  2  0
 32 33  1  0
 33 34  2  0
 34 35  1  0
 35 36  2  0
 29 37  1  0
 37 38  1  0
 38 39  2  0
 38 40  1  0
 40 41  1  0
 41 42  1  0
 42 43  1  0
 43 44  2  0
 43 45  1  0
 14  6  1  0
 25 20  1  0
 36 31  1  0
 45 40  1  0
 14  9  1  0
M  END
>  <Title>  (470) 
idAAQDgen6

$$$$

     RDKit          2D

 32 35  0  0  0  0  0  0  0  0999 V2000
    4.2098   -1.2990    0.0000 C   0  0  0  0  0  0  0  0  0  0  0  0
    3.4598   -0.0000    0.0000 O   0  0  0  0  0  0  0  0  0  0  0  0
    1.9598    0.0000    0.0000 C   0  0  0  0  0  0  0  0  0  0  0  0
    1.3858   -1.3858    0.0000 C   0  0  0  0  0  0  0  0  0  0  0  0
   -0.0000   -1.9598    0.0000 C   0  0  0  0  0  0  0  0  0  0  0  0
   -1.3858   -1.3858    0.0000 C   0  0  0  0  0  0  0  0  0  0  0  0
   -1.9598    0.0000    0.0000 C   0  0  0  0  0  0  0  0  0  0  0  0
   -1.3858    1.3858    0.0000 C   0  0  0  0  0  0  0  0  0  0  0  0
   -2.4465    2.4465    0.0000 C   0  0  0  0  0  0  0  0  0  0  0  0
   -3.8954    2.0583    0.0000 O   0  0  0  0  0  0  0  0  0  0  0  0
   -2.0583    3.8954    0.0000 N   0  0  0  0  0  0  0  0  0  0  0  0
   -3.0022    5.0611    0.0000 C   0  0  0  0  0  0  0  0  0  0  0  0
   -2.1853    6.3191    0.0000 C   0  0  0  0  0  0  0  0  0  0  0  0
   -0.7364    5.9309    0.0000 C   0  0  0  0  0  0  0  0  0  0  0  0
    0.4293    6.8748    0.0000 N   0  0  0  0  0  0  0  0  0  0  0  0
    1.8297    6.3373    0.0000 C   0  0  0  0  0  0  0  0  0  0  0  0
    2.9954    7.2813    0.0000 C   0  0  0  0  0  0  0  0  0  0  0  0
    2.7608    8.7628    0.0000 N   0  0  0  0  0  0  0  0  0  0  0  0
    3.9265    9.7068    0.0000 C   0  0  0  0  0  0  0  0  0  0  0  0
    3.6918   11.1883    0.0000 O   0  0  0  0  0  0  0  0  0  0  0  0
    5.3269    9.1692    0.0000 C   0  0  0  0  0  0  0  0  0  0  0  0
    5.5615    7.6877    0.0000 C   0  0  0  0  0  0  0  0  0  0  0  0
    6.9619    7.1502    0.0000 C   0  0  0  0  0  0  0  0  0  0  0  0
    8.1276    8.0941    0.0000 C   0  0  0  0  0  0  0  0  0  0  0  0
    9.5280    7.5566    0.0000 O   0  0  0  0  0  0  0  0  0  0  0  0
    7.8930    9.5757    0.0000 C   0  0  0  0  0  0  0  0  0  0  0  0
    6.4926   10.1132    0.0000 C   0  0  0  0  0  0  0  0  0  0  0  0
    1.3604    9.3004    0.0000 C   0  0  0  0  0  0  0  0  0  0  0  0
    0.1947    8.3564    0.0000 C   0  0  0  0  0  0  0  0  0  0  0  0
   -0.6579    4.4329    0.0000 C   0  0  0  0  0  0  0  0  0  0  0  0
    0.0000    1.9598    0.0000 C   0  0  0  0  0  0  0  0  0  0  0  0
    1.3858    1.3858    0.0000 C   0  0  0  0  0  0  0  0  0  0  0  0
  1  2  1  0
  2  3  1  0
  3  4  1  0
  4  5  2  0
  5  6  1  0
  6  7  1  0
  7  8  1  0
  8  9  1  0
  9 10  2  0
  9 11  1  0
 11 12  1  0
 12 13  1  0
 13 14  1  0
 14 15  1  0
 15 16  1  0
 16 17  1  0
 17 18  1  0
 18 19  1  0
 19 20  2  0
 19 21  1  0
 21 22  2  0
 22 23  1  0
 23 24  2  0
 24 25  1  0
 24 26  1  0
 26 27  2  0
 18 28  1  0
 28 29  1  0
 14 30  1  0
  8 31  1  0
 31 32  1  0
 32  3  1  0
 30 11  1  0
 29 15  1  0
 27 21  1  0
M  END
>  <Title>  (471) 
idAAQEgen6

$$$$

     RDKit          2D

 17 19  0  0  0  0  0  0  0  0999 V2000
   -4.8940    0.5091    0.0000 C   0  0  0  0  0  0  0  0  0  0  0  0
   -3.4268    0.1972    0.0000 O   0  0  0  0  0  0  0  0  0  0  0  0
   -2.4231    1.3119    0.0000 C   0  0  0  0  0  0  0  0  0  0  0  0
   -3.1273    2.6363    0.0000 C   0  0  0  0  0  0  0  0  0  0  0  0
   -2.8154    4.1036    0.0000 C   0  0  0  0  0  0  0  0  0  0  0  0
   -1.6334    5.0270    0.0000 C   0  0  0  0  0  0  0  0  0  0  0  0
   -1.5810    6.5261    0.0000 C   0  0  0  0  0  0  0  0  0  0  0  0
   -2.6040    7.6232    0.0000 O   0  0  0  0  0  0  0  0  0  0  0  0
   -0.0820    6.4738    0.0000 N   0  0  0  0  0  0  0  0  0  0  0  0
   -0.1343    4.9747    0.0000 C   0  0  0  0  0  0  0  0  0  0  0  0
    0.9804    3.9710    0.0000 N   0  0  0  0  0  0  0  0  0  0  0  0
    1.1892    2.4856    0.0000 N   0  0  0  0  0  0  0  0  0  0  0  0
    0.3943    1.2135    0.0000 C   0  0  0  0  0  0  0  0  0  0  0  0
    1.2760    0.0000    0.0000 C   0  0  0  0  0  0  0  0  0  0  0  0
    0.3943   -1.2135    0.0000 C   0  0  0  0  0  0  0  0  0  0  0  0
   -1.0323   -0.7500    0.0000 C   0  0  0  0  0  0  0  0  0  0  0  0
   -1.0323    0.7500    0.0000 C   0  0  0  0  0  0  0  0  0  0  0  0
  1  2  1  0
  2  3  1  0
  3  4  2  0
  4  5  1  0
  5  6  2  0
  6  7  1  0
  7  8  2  0
  7  9  1  0
  9 10  1  0
 10 11  2  0
 11 12  1  0
 12 13  2  0
 13 14  1  0
 14 15  2  0
 15 16  1  0
 16 17  2  0
 17  3  1  0
 10  6  1  0
 17 13  1  0
M  END
>  <Title>  (472) 
idAAQFgen6

$$$$

     RDKit          2D

 25 27  0  0  0  0  0  0  0  0999 V2000
    3.4598   -0.0000    0.0000 C   0  0  0  0  0  0  0  0  0  0  0  0
    1.9598    0.0000    0.0000 C   0  0  0  0  0  0  0  0  0  0  0  0
    1.3858   -1.3858    0.0000 C   0  0  0  0  0  0  0  0  0  0  0  0
   -0.0000   -1.9598    0.0000 C   0  0  0  0  0  0  0  0  0  0  0  0
   -1.3858   -1.3858    0.0000 C   0  0  0  0  0  0  0  0  0  0  0  0
   -1.9598    0.0000    0.0000 C   0  0  0  0  0  0  0  0  0  0  0  0
   -1.3858    1.3858    0.0000 C   0  0  0  0  0  0  0  0  0  0  0  0
   -2.4465    2.4465    0.0000 C   0  0  0  0  0  0  0  0  0  0  0  0
   -3.9280    2.2118    0.0000 C   0  0  0  0  0  0  0  0  0  0  0  0
   -4.6090    3.5483    0.0000 C   0  0  0  0  0  0  0  0  0  0  0  0
   -3.5483    4.6090    0.0000 C   0  0  0  0  0  0  0  0  0  0  0  0
   -2.2118    3.9280    0.0000 C   0  0  0  0  0  0  0  0  0  0  0  0
   -0.8753    4.6090    0.0000 O   0  0  0  0  0  0  0  0  0  0  0  0
    0.0000    1.9598    0.0000 C   0  0  0  0  0  0  0  0  0  0  0  0
    0.0000    3.4598    0.0000 O   0  0  0  0  0  0  0  0  0  0  0  0
    1.3858    1.3858    0.0000 N   0  0  0  0  0  0  0  0  0  0  0  0
    2.4465    2.4465    0.0000 C   0  0  0  0  0  0  0  0  0  0  0  0
    3.8954    2.0583    0.0000 C   0  0  0  0  0  0  0  0  0  0  0  0
    4.9560    3.1189    0.0000 C   0  0  0  0  0  0  0  0  0  0  0  0
    6.4049    2.7307    0.0000 C   0  0  0  0  0  0  0  0  0  0  0  0
    6.7931    1.2818    0.0000 O   0  0  0  0  0  0  0  0  0  0  0  0
    7.4656    3.7913    0.0000 C   0  0  0  0  0  0  0  0  0  0  0  0
    8.9145    3.4031    0.0000 C   0  0  0  0  0  0  0  0  0  0  0  0
   10.3634    3.7913    0.0000 C   0  0  0  0  0  0  0  0  0  0  0  0
    9.9751    2.3425    0.0000 C   0  0  0  0  0  0  0  0  0  0  0  0
  1  2  1  0
  2  3  1  0
  3  4  2  0
  4  5  1  0
  5  6  1  0
  6  7  2  0
  7  8  1  0
  8  9  2  0
  9 10  1  0
 10 11  2  0
 11 12  1  0
 12 13  2  0
  7 14  1  0
 14 15  2  0
 14 16  1  0
 16 17  1  0
 17 18  1  0
 18 19  1  0
 19 20  1  0
 20 21  2  0
 20 22  1  0
 22 23  1  0
 23 24  1  0
 24 25  1  0
 16  2  1  0
 25 23  1  0
 12  8  1  0
M  END
>  <Title>  (473) 
idAAQGgen6

$$$$

     RDKit          2D

 22 24  0  0  0  0  0  0  0  0999 V2000
   -3.0000   -2.5981    0.0000 C   0  0  0  0  0  0  0  0  0  0  0  0
   -1.5000   -2.5981    0.0000 C   0  0  0  0  0  0  0  0  0  0  0  0
   -0.7500   -3.8971    0.0000 C   0  0  0  0  0  0  0  0  0  0  0  0
    0.7500   -3.8971    0.0000 C   0  0  0  0  0  0  0  0  0  0  0  0
    1.5000   -5.1962    0.0000 O   0  0  0  0  0  0  0  0  0  0  0  0
    1.5000   -2.5981    0.0000 C   0  0  0  0  0  0  0  0  0  0  0  0
    3.0000   -2.5981    0.0000 C   0  0  0  0  0  0  0  0  0  0  0  0
    3.7500   -3.8971    0.0000 C   0  0  0  0  0  0  0  0  0  0  0  0
    3.0000   -5.1962    0.0000 O   0  0  0  0  0  0  0  0  0  0  0  0
    5.2500   -3.8971    0.0000 N   0  0  0  0  0  0  0  0  0  0  0  0
    6.0000   -5.1962    0.0000 C   0  0  0  0  0  0  0  0  0  0  0  0
    5.2500   -6.4952    0.0000 N   0  0  0  0  0  0  0  0  0  0  0  0
    6.0000   -7.7942    0.0000 N   0  0  0  0  0  0  0  0  0  0  0  0
    7.5000   -7.7942    0.0000 N   0  0  0  0  0  0  0  0  0  0  0  0
    8.2500   -6.4952    0.0000 N   0  0  0  0  0  0  0  0  0  0  0  0
    7.5000   -5.1962    0.0000 N   0  0  0  0  0  0  0  0  0  0  0  0
    0.7500   -1.2990    0.0000 C   0  0  0  0  0  0  0  0  0  0  0  0
    1.5000    0.0000    0.0000 C   0  0  0  0  0  0  0  0  0  0  0  0
    0.7500    1.2990    0.0000 C   0  0  0  0  0  0  0  0  0  0  0  0
   -0.7500    1.2990    0.0000 C   0  0  0  0  0  0  0  0  0  0  0  0
   -1.5000    0.0000    0.0000 C   0  0  0  0  0  0  0  0  0  0  0  0
   -0.7500   -1.2990    0.0000 C   0  0  0  0  0  0  0  0  0  0  0  0
  1  2  1  0
  2  3  1  0
  3  4  2  0
  4  5  1  0
  4  6  1  0
  6  7  1  0
  7  8  1  0
  8  9  2  0
  8 10  1  0
 10 11  1  0
 11 12  2  0
 12 13  1  0
 13 14  2  0
 14 15  1  0
 15 16  2  0
  6 17  1  0
 17 18  2  0
 18 19  1  0
 19 20  2  0
 20 21  1  0
 21 22  2  0
 22  2  1  0
 16 11  1  0
 22 17  1  0
M  END
>  <Title>  (474) 
idAAQHgen6

$$$$

     RDKit          2D

 29 32  0  0  0  0  0  0  0  0999 V2000
   -0.7500   -3.8971    0.0000 O   0  0  0  0  0  0  0  0  0  0  0  0
    0.7500   -3.8971    0.0000 C   0  0  0  0  0  0  0  0  0  0  0  0
    1.5000   -2.5981    0.0000 N   0  0  0  0  0  0  0  0  0  0  0  0
    0.7500   -1.2990    0.0000 C   0  0  0  0  0  0  0  0  0  0  0  0
    1.5000    0.0000    0.0000 C   0  0  0  0  0  0  0  0  0  0  0  0
    0.7500    1.2990    0.0000 C   0  0  0  0  0  0  0  0  0  0  0  0
   -0.7500    1.2990    0.0000 C   0  0  0  0  0  0  0  0  0  0  0  0
   -1.5000    0.0000    0.0000 C   0  0  0  0  0  0  0  0  0  0  0  0
   -0.7500   -1.2990    0.0000 C   0  0  0  0  0  0  0  0  0  0  0  0
    1.5000   -5.1962    0.0000 C   0  0  0  0  0  0  0  0  0  0  0  0
    3.0000   -5.1962    0.0000 O   0  0  0  0  0  0  0  0  0  0  0  0
    3.7500   -6.4952    0.0000 C   0  0  0  0  0  0  0  0  0  0  0  0
    3.0000   -7.7942    0.0000 C   0  0  0  0  0  0  0  0  0  0  0  0
    3.7500   -9.0933    0.0000 C   0  0  0  0  0  0  0  0  0  0  0  0
    5.2500   -9.0933    0.0000 C   0  0  0  0  0  0  0  0  0  0  0  0
    6.0000  -10.3923    0.0000 N   0  0  0  0  0  0  0  0  0  0  0  0
    7.4918  -10.5491    0.0000 C   0  0  0  0  0  0  0  0  0  0  0  0
    7.8037  -12.0163    0.0000 C   0  0  0  0  0  0  0  0  0  0  0  0
    6.5046  -12.7663    0.0000 C   0  0  0  0  0  0  0  0  0  0  0  0
    5.3899  -11.7626    0.0000 C   0  0  0  0  0  0  0  0  0  0  0  0
    6.0000   -7.7942    0.0000 C   0  0  0  0  0  0  0  0  0  0  0  0
    5.2500   -6.4952    0.0000 C   0  0  0  0  0  0  0  0  0  0  0  0
    0.7500   -6.4952    0.0000 C   0  0  0  0  0  0  0  0  0  0  0  0
    1.5000   -7.7942    0.0000 C   0  0  0  0  0  0  0  0  0  0  0  0
    0.7500   -9.0933    0.0000 C   0  0  0  0  0  0  0  0  0  0  0  0
   -0.7500   -9.0933    0.0000 C   0  0  0  0  0  0  0  0  0  0  0  0
   -1.5000   -7.7942    0.0000 C   0  0  0  0  0  0  0  0  0  0  0  0
   -0.7500   -6.4952    0.0000 C   0  0  0  0  0  0  0  0  0  0  0  0
   -1.5000   -5.1962    0.0000 O   0  0  0  0  0  0  0  0  0  0  0  0
  1  2  2  0
  2  3  1  0
  3  4  1  0
  4  5  2  0
  5  6  1  0
  6  7  2  0
  7  8  1  0
  8  9  2  0
  2 10  1  0
 10 11  1  0
 11 12  1  0
 12 13  2  0
 13 14  1  0
 14 15  2  0
 15 16  1  0
 16 17  1  0
 17 18  1  0
 18 19  1  0
 19 20  1  0
 15 21  1  0
 21 22  1  0
 10 23  1  0
 23 24  2  0
 24 25  1  0
 25 26  2  0
 26 27  1  0
 27 28  2  0
 28 29  1  0
  9  4  1  0
 22 12  1  0
 28 23  1  0
 20 16  1  0
M  END
>  <Title>  (475) 
idAAQIgen6

$$$$

     RDKit          2D

 20 22  0  0  0  0  0  0  0  0999 V2000
   -0.7500   -3.8971    0.0000 O   0  0  0  0  0  0  0  0  0  0  0  0
    0.7500   -3.8971    0.0000 C   0  0  0  0  0  0  0  0  0  0  0  0
    1.5000   -2.5981    0.0000 N   0  0  0  0  0  0  0  0  0  0  0  0
    0.7500   -1.2990    0.0000 C   0  0  0  0  0  0  0  0  0  0  0  0
    1.5000    0.0000    0.0000 C   0  0  0  0  0  0  0  0  0  0  0  0
    0.7500    1.2990    0.0000 C   0  0  0  0  0  0  0  0  0  0  0  0
   -0.7500    1.2990    0.0000 C   0  0  0  0  0  0  0  0  0  0  0  0
   -1.5000    0.0000    0.0000 C   0  0  0  0  0  0  0  0  0  0  0  0
   -0.7500   -1.2990    0.0000 C   0  0  0  0  0  0  0  0  0  0  0  0
    1.5000   -5.1962    0.0000 N   0  0  0  0  0  0  0  0  0  0  0  0
    2.9918   -5.3529    0.0000 C   0  0  0  0  0  0  0  0  0  0  0  0
    3.3037   -6.8202    0.0000 C   0  0  0  0  0  0  0  0  0  0  0  0
    2.0046   -7.5702    0.0000 C   0  0  0  0  0  0  0  0  0  0  0  0
    1.8478   -9.0619    0.0000 C   0  0  0  0  0  0  0  0  0  0  0  0
    0.4775   -9.6721    0.0000 C   0  0  0  0  0  0  0  0  0  0  0  0
    0.3207  -11.1638    0.0000 C   0  0  0  0  0  0  0  0  0  0  0  0
    1.5342  -12.0455    0.0000 C   0  0  0  0  0  0  0  0  0  0  0  0
    2.9046  -11.4354    0.0000 C   0  0  0  0  0  0  0  0  0  0  0  0
    3.0613   -9.9436    0.0000 C   0  0  0  0  0  0  0  0  0  0  0  0
    0.8899   -6.5665    0.0000 C   0  0  0  0  0  0  0  0  0  0  0  0
  1  2  2  0
  2  3  1  0
  3  4  1  0
  4  5  2  0
  5  6  1  0
  6  7  2  0
  7  8  1  0
  8  9  2  0
  2 10  1  0
 10 11  1  0
 11 12  1  0
 12 13  1  0
 13 14  1  0
 14 15  2  0
 15 16  1  0
 16 17  2  0
 17 18  1  0
 18 19  2  0
 13 20  1  0
  9  4  1  0
 20 10  1  0
 19 14  1  0
M  END
>  <Title>  (476) 
idAAQJgen6

$$$$

     RDKit          2D

 12 13  0  0  0  0  0  0  0  0999 V2000
    3.0000    0.0000    0.0000 C   0  0  0  0  0  0  0  0  0  0  0  0
    1.5000    0.0000    0.0000 C   0  0  0  0  0  0  0  0  0  0  0  0
    0.7500   -1.2990    0.0000 C   0  0  0  0  0  0  0  0  0  0  0  0
   -0.7500   -1.2990    0.0000 C   0  0  0  0  0  0  0  0  0  0  0  0
   -1.5000    0.0000    0.0000 C   0  0  0  0  0  0  0  0  0  0  0  0
   -0.7500    1.2990    0.0000 C   0  0  0  0  0  0  0  0  0  0  0  0
    0.7500    1.2990    0.0000 C   0  0  0  0  0  0  0  0  0  0  0  0
   -1.7537    2.4138    0.0000 C   0  0  0  0  0  0  0  0  0  0  0  0
   -1.4418    3.8810    0.0000 O   0  0  0  0  0  0  0  0  0  0  0  0
   -3.1240    1.8037    0.0000 N   0  0  0  0  0  0  0  0  0  0  0  0
   -2.9672    0.3119    0.0000 C   0  0  0  0  0  0  0  0  0  0  0  0
   -4.0819   -0.6918    0.0000 O   0  0  0  0  0  0  0  0  0  0  0  0
  1  2  1  0
  2  3  2  0
  3  4  1  0
  4  5  2  0
  5  6  1  0
  6  7  2  0
  6  8  1  0
  8  9  2  0
  8 10  1  0
 10 11  1  0
 11 12  2  0
  7  2  1  0
 11  5  1  0
M  END
>  <Title>  (477) 
idAAQKgen6

$$$$

     RDKit          2D

  3  2  0  0  0  0  0  0  0  0999 V2000
    0.0000    0.0000    0.0000 C   0  0  0  0  0  0  0  0  0  0  0  0
    1.2990    0.7500    0.0000 C   0  0  0  0  0  0  0  0  0  0  0  0
    2.5981   -0.0000    0.0000 C   0  0  0  0  0  0  0  0  0  0  0  0
  1  2  1  0
  2  3  1  0
M  END
>  <Title>  (478) 
idAAQLgen6

$$$$

     RDKit          2D

 49 52  0  0  0  0  0  0  0  0999 V2000
    1.6845  -11.4690    0.0000 C   0  0  0  0  0  0  0  0  0  0  0  0
    0.4008  -10.6930    0.0000 C   0  0  0  0  0  0  0  0  0  0  0  0
   -0.5243  -11.8738    0.0000 C   0  0  0  0  0  0  0  0  0  0  0  0
   -1.7050  -12.7988    0.0000 C   0  0  0  0  0  0  0  0  0  0  0  0
   -3.0729  -13.4145    0.0000 C   0  0  0  0  0  0  0  0  0  0  0  0
   -4.5483  -13.6848    0.0000 C   0  0  0  0  0  0  0  0  0  0  0  0
   -6.0456  -13.5943    0.0000 C   0  0  0  0  0  0  0  0  0  0  0  0
   -7.4777  -13.1480    0.0000 C   0  0  0  0  0  0  0  0  0  0  0  0
   -8.7613  -12.3720    0.0000 C   0  0  0  0  0  0  0  0  0  0  0  0
   -9.8220  -11.3113    0.0000 C   0  0  0  0  0  0  0  0  0  0  0  0
  -10.5980  -10.0277    0.0000 C   0  0  0  0  0  0  0  0  0  0  0  0
  -11.0443   -8.5956    0.0000 C   0  0  0  0  0  0  0  0  0  0  0  0
  -11.1348   -7.0983    0.0000 C   0  0  0  0  0  0  0  0  0  0  0  0
  -10.8644   -5.6229    0.0000 C   0  0  0  0  0  0  0  0  0  0  0  0
  -10.2488   -4.2551    0.0000 C   0  0  0  0  0  0  0  0  0  0  0  0
   -9.3237   -3.0743    0.0000 C   0  0  0  0  0  0  0  0  0  0  0  0
   -8.1430   -2.1492    0.0000 C   0  0  0  0  0  0  0  0  0  0  0  0
   -6.7751   -1.5336    0.0000 C   0  0  0  0  0  0  0  0  0  0  0  0
   -5.2997   -1.2632    0.0000 C   0  0  0  0  0  0  0  0  0  0  0  0
   -3.8024   -1.3538    0.0000 C   0  0  0  0  0  0  0  0  0  0  0  0
   -3.5320    0.1217    0.0000 C   0  0  0  0  0  0  0  0  0  0  0  0
   -4.6746    1.0935    0.0000 C   0  0  0  0  0  0  0  0  0  0  0  0
   -4.4042    2.5690    0.0000 O   0  0  0  0  0  0  0  0  0  0  0  0
   -2.1191    0.6252    0.0000 N   0  0  0  0  0  0  0  0  0  0  0  0
   -1.8487    2.1007    0.0000 C   0  0  0  0  0  0  0  0  0  0  0  0
   -0.4358    2.6042    0.0000 C   0  0  0  0  0  0  0  0  0  0  0  0
   -0.1654    4.0796    0.0000 N   0  0  0  0  0  0  0  0  0  0  0  0
   -1.3079    5.0515    0.0000 N   0  0  0  0  0  0  0  0  0  0  0  0
   -2.7209    4.5480    0.0000 N   0  0  0  0  0  0  0  0  0  0  0  0
   -2.9913    3.0725    0.0000 N   0  0  0  0  0  0  0  0  0  0  0  0
   -1.8107   -2.3597    0.0000 C   0  0  0  0  0  0  0  0  0  0  0  0
   -1.8107   -3.8597    0.0000 C   0  0  0  0  0  0  0  0  0  0  0  0
   -0.7500   -4.9204    0.0000 C   0  0  0  0  0  0  0  0  0  0  0  0
    0.7500   -4.9204    0.0000 C   0  0  0  0  0  0  0  0  0  0  0  0
    1.1963   -6.3524    0.0000 C   0  0  0  0  0  0  0  0  0  0  0  0
    2.6717   -6.0821    0.0000 O   0  0  0  0  0  0  0  0  0  0  0  0
    1.2868   -7.8497    0.0000 C   0  0  0  0  0  0  0  0  0  0  0  0
    1.0164   -9.3251    0.0000 C   0  0  0  0  0  0  0  0  0  0  0  0
    2.4485   -9.7714    0.0000 O   0  0  0  0  0  0  0  0  0  0  0  0
    1.8107   -3.8597    0.0000 N   0  0  0  0  0  0  0  0  0  0  0  0
    3.1965   -4.4337    0.0000 C   0  0  0  0  0  0  0  0  0  0  0  0
    1.8107   -2.3597    0.0000 C   0  0  0  0  0  0  0  0  0  0  0  0
    3.1965   -1.7857    0.0000 O   0  0  0  0  0  0  0  0  0  0  0  0
    0.7500   -1.2990    0.0000 C   0  0  0  0  0  0  0  0  0  0  0  0
    1.5000    0.0000    0.0000 C   0  0  0  0  0  0  0  0  0  0  0  0
    0.7500    1.2990    0.0000 C   0  0  0  0  0  0  0  0  0  0  0  0
   -0.7500    1.2990    0.0000 C   0  0  0  0  0  0  0  0  0  0  0  0
   -1.5000    0.0000    0.0000 C   0  0  0  0  0  0  0  0  0  0  0  0
   -0.7500   -1.2990    0.0000 C   0  0  0  0  0  0  0  0  0  0  0  0
  1  2  1  0
  2  3  1  0
  3  4  1  0
  4  5  1  0
  5  6  1  0
  6  7  1  0
  7  8  1  0
  8  9  1  0
  9 10  1  0
 10 11  1  0
 11 12  1  0
 12 13  1  0
 13 14  1  0
 14 15  1  0
 15 16  1  0
 16 17  1  0
 17 18  1  0
 18 19  1  0
 19 20  1  0
 20 21  1  0
 21 22  1  0
 22 23  1  0
 21 24  1  0
 24 25  1  0
 25 26  2  0
 26 27  1  0
 27 28  2  0
 28 29  1  0
 29 30  2  0
 20 31  1  0
 31 32  2  0
 32 33  1  0
 33 34  2  0
 34 35  1  0
 35 36  2  0
 35 37  1  0
 37 38  1  0
 38 39  2  0
 34 40  1  0
 40 41  1  0
 40 42  1  0
 42 43  2  0
 42 44  1  0
 44 45  2  0
 45 46  1  0
 46 47  2  0
 47 48  1  0
 48 49  2  0
 38  2  1  0
 49 44  1  0
 30 25  1  0
 49 31  1  0
M  END
>  <Title>  (479) 
idAAQMgen6

$$$$

     RDKit          2D

 24 26  0  0  0  0  0  0  0  0999 V2000
    3.0000    0.0000    0.0000 C   0  0  0  0  0  0  0  0  0  0  0  0
    1.5000    0.0000    0.0000 C   0  0  0  0  0  0  0  0  0  0  0  0
    0.7500   -1.2990    0.0000 C   0  0  0  0  0  0  0  0  0  0  0  0
   -0.7500   -1.2990    0.0000 C   0  0  0  0  0  0  0  0  0  0  0  0
   -1.5000    0.0000    0.0000 C   0  0  0  0  0  0  0  0  0  0  0  0
   -3.0000    0.0000    0.0000 C   0  0  0  0  0  0  0  0  0  0  0  0
   -3.7500   -1.2990    0.0000 O   0  0  0  0  0  0  0  0  0  0  0  0
   -3.7500    1.2990    0.0000 O   0  0  0  0  0  0  0  0  0  0  0  0
   -5.2500    1.2990    0.0000 C   0  0  0  0  0  0  0  0  0  0  0  0
   -6.0000    2.5981    0.0000 N   0  0  0  0  0  0  0  0  0  0  0  0
   -7.5000    2.5981    0.0000 N   0  0  0  0  0  0  0  0  0  0  0  0
   -8.2500    1.2990    0.0000 N   0  0  0  0  0  0  0  0  0  0  0  0
   -7.5000    0.0000    0.0000 N   0  0  0  0  0  0  0  0  0  0  0  0
   -8.2500   -1.2990    0.0000 N   0  0  0  0  0  0  0  0  0  0  0  0
   -7.6399   -2.6694    0.0000 C   0  0  0  0  0  0  0  0  0  0  0  0
   -8.7546   -3.6731    0.0000 C   0  0  0  0  0  0  0  0  0  0  0  0
  -10.0537   -2.9231    0.0000 C   0  0  0  0  0  0  0  0  0  0  0  0
  -11.4240   -3.5332    0.0000 C   0  0  0  0  0  0  0  0  0  0  0  0
  -11.5808   -5.0249    0.0000 O   0  0  0  0  0  0  0  0  0  0  0  0
  -12.6375   -2.6515    0.0000 O   0  0  0  0  0  0  0  0  0  0  0  0
   -9.7418   -1.4558    0.0000 C   0  0  0  0  0  0  0  0  0  0  0  0
   -6.0000    0.0000    0.0000 C   0  0  0  0  0  0  0  0  0  0  0  0
   -0.7500    1.2990    0.0000 C   0  0  0  0  0  0  0  0  0  0  0  0
    0.7500    1.2990    0.0000 C   0  0  0  0  0  0  0  0  0  0  0  0
  1  2  1  0
  2  3  1  0
  3  4  1  0
  4  5  1  0
  5  6  1  0
  6  7  2  0
  6  8  1  0
  8  9  1  0
  9 10  2  0
 10 11  1  0
 11 12  2  0
 12 13  1  0
 13 14  1  0
 14 15  1  0
 15 16  1  0
 16 17  1  0
 17 18  1  0
 18 19  2  0
 18 20  1  0
 17 21  1  0
 13 22  1  0
  5 23  1  0
 23 24  1  0
 24  2  1  0
 22  9  1  0
 21 14  1  0
M  END
>  <Title>  (480) 
idAAQNgen6

$$$$

     RDKit          2D

 15 16  0  0  0  0  0  0  0  0999 V2000
    4.1621    0.0000    0.0000 C   0  0  0  0  0  0  0  0  0  0  0  0
    2.6621    0.0000    0.0000 C   0  0  0  0  0  0  0  0  0  0  0  0
    2.2395    1.4392    0.0000 C   0  0  0  0  0  0  0  0  0  0  0  0
    1.1059    2.4215    0.0000 C   0  0  0  0  0  0  0  0  0  0  0  0
   -0.3789    2.6350    0.0000 C   0  0  0  0  0  0  0  0  0  0  0  0
   -1.7433    2.0119    0.0000 C   0  0  0  0  0  0  0  0  0  0  0  0
   -3.0052    2.8228    0.0000 C   0  0  0  0  0  0  0  0  0  0  0  0
   -3.3240    4.2886    0.0000 O   0  0  0  0  0  0  0  0  0  0  0  0
   -3.8161    1.5610    0.0000 N   0  0  0  0  0  0  0  0  0  0  0  0
   -2.5543    0.7500    0.0000 C   0  0  0  0  0  0  0  0  0  0  0  0
   -2.5543   -0.7500    0.0000 C   0  0  0  0  0  0  0  0  0  0  0  0
   -1.7433   -2.0119    0.0000 C   0  0  0  0  0  0  0  0  0  0  0  0
   -0.3789   -2.6350    0.0000 C   0  0  0  0  0  0  0  0  0  0  0  0
    1.1059   -2.4215    0.0000 C   0  0  0  0  0  0  0  0  0  0  0  0
    2.2395   -1.4392    0.0000 C   0  0  0  0  0  0  0  0  0  0  0  0
  1  2  1  0
  2  3  1  0
  3  4  2  0
  4  5  1  0
  5  6  1  0
  6  7  1  0
  7  8  2  0
  7  9  1  0
  9 10  1  0
 10 11  2  0
 11 12  1  0
 12 13  1  0
 13 14  1  0
 14 15  1  0
 15  2  1  0
 10  6  1  0
M  END
>  <Title>  (481) 
idAAQOgen6

$$$$

     RDKit          2D

 20 22  0  0  0  0  0  0  0  0999 V2000
    3.2286   -0.0000    0.0000 C   0  0  0  0  0  0  0  0  0  0  0  0
    1.7286    0.0000    0.0000 C   0  0  0  0  0  0  0  0  0  0  0  0
    1.0777    1.3515    0.0000 C   0  0  0  0  0  0  0  0  0  0  0  0
   -0.3846    1.6852    0.0000 C   0  0  0  0  0  0  0  0  0  0  0  0
   -1.5574    0.7500    0.0000 C   0  0  0  0  0  0  0  0  0  0  0  0
   -1.5574   -0.7500    0.0000 C   0  0  0  0  0  0  0  0  0  0  0  0
   -2.9088   -1.4008    0.0000 N   0  0  0  0  0  0  0  0  0  0  0  0
   -4.1482   -0.5558    0.0000 C   0  0  0  0  0  0  0  0  0  0  0  0
   -5.4997   -1.2067    0.0000 C   0  0  0  0  0  0  0  0  0  0  0  0
   -5.6118   -2.7025    0.0000 C   0  0  0  0  0  0  0  0  0  0  0  0
   -6.9632   -3.3533    0.0000 C   0  0  0  0  0  0  0  0  0  0  0  0
   -8.2026   -2.5083    0.0000 C   0  0  0  0  0  0  0  0  0  0  0  0
   -9.5540   -3.1591    0.0000 C   0  0  0  0  0  0  0  0  0  0  0  0
   -9.6661   -4.6550    0.0000 C   0  0  0  0  0  0  0  0  0  0  0  0
   -8.4268   -5.4999    0.0000 C   0  0  0  0  0  0  0  0  0  0  0  0
   -7.0753   -4.8491    0.0000 C   0  0  0  0  0  0  0  0  0  0  0  0
   -4.3724   -3.5475    0.0000 C   0  0  0  0  0  0  0  0  0  0  0  0
   -3.0209   -2.8966    0.0000 C   0  0  0  0  0  0  0  0  0  0  0  0
   -0.3846   -1.6852    0.0000 C   0  0  0  0  0  0  0  0  0  0  0  0
    1.0777   -1.3515    0.0000 C   0  0  0  0  0  0  0  0  0  0  0  0
  1  2  2  0
  2  3  1  0
  3  4  2  0
  4  5  1  0
  5  6  2  0
  6  7  1  0
  7  8  1  0
  8  9  1  0
  9 10  1  0
 10 11  1  0
 11 12  2  0
 12 13  1  0
 13 14  2  0
 14 15  1  0
 15 16  2  0
 10 17  1  0
 17 18  1  0
  6 19  1  0
 19 20  1  0
 20  2  1  0
 18  7  1  0
 16 11  1  0
M  END
>  <Title>  (482) 
idAAQPgen6

$$$$

     RDKit          2D

 20 22  0  0  0  0  0  0  0  0999 V2000
   -3.7860   -5.5823    0.0000 C   0  0  0  0  0  0  0  0  0  0  0  0
   -2.4215   -4.9592    0.0000 C   0  0  0  0  0  0  0  0  0  0  0  0
   -1.4392   -6.0928    0.0000 C   0  0  0  0  0  0  0  0  0  0  0  0
   -0.0000   -6.5154    0.0000 C   0  0  0  0  0  0  0  0  0  0  0  0
    1.4392   -6.0928    0.0000 C   0  0  0  0  0  0  0  0  0  0  0  0
    2.4215   -4.9592    0.0000 C   0  0  0  0  0  0  0  0  0  0  0  0
    2.6350   -3.4744    0.0000 C   0  0  0  0  0  0  0  0  0  0  0  0
    2.0119   -2.1100    0.0000 C   0  0  0  0  0  0  0  0  0  0  0  0
    0.7500   -1.2990    0.0000 C   0  0  0  0  0  0  0  0  0  0  0  0
    1.5000    0.0000    0.0000 C   0  0  0  0  0  0  0  0  0  0  0  0
    0.7500    1.2990    0.0000 C   0  0  0  0  0  0  0  0  0  0  0  0
   -0.7500    1.2990    0.0000 N   0  0  0  0  0  0  0  0  0  0  0  0
   -1.5000    0.0000    0.0000 N   0  0  0  0  0  0  0  0  0  0  0  0
   -0.7500   -1.2990    0.0000 C   0  0  0  0  0  0  0  0  0  0  0  0
   -2.0119   -2.1100    0.0000 C   0  0  0  0  0  0  0  0  0  0  0  0
   -2.8820   -0.8881    0.0000 C   0  0  0  0  0  0  0  0  0  0  0  0
   -4.3752   -1.0307    0.0000 C   0  0  0  0  0  0  0  0  0  0  0  0
   -4.9983   -2.3952    0.0000 C   0  0  0  0  0  0  0  0  0  0  0  0
   -4.1282   -3.6170    0.0000 C   0  0  0  0  0  0  0  0  0  0  0  0
   -2.6350   -3.4744    0.0000 C   0  0  0  0  0  0  0  0  0  0  0  0
  1  2  1  0
  2  3  1  0
  3  4  2  0
  4  5  1  0
  5  6  2  0
  6  7  1  0
  7  8  1  0
  8  9  1  0
  9 10  2  0
 10 11  1  0
 11 12  2  0
 12 13  1  0
 13 14  2  0
 14 15  1  0
 15 16  2  0
 16 17  1  0
 17 18  2  0
 18 19  1  0
 19 20  2  0
 20  2  1  0
 14  9  1  0
 20 15  1  0
M  END
>  <Title>  (483) 
idAAQQgen6

$$$$

     RDKit          2D

 13 13  0  0  0  0  0  0  0  0999 V2000
    5.0260   -1.2990    0.0000 C   0  0  0  0  0  0  0  0  0  0  0  0
    3.5260   -1.2990    0.0000 C   0  0  0  0  0  0  0  0  0  0  0  0
    2.7760   -2.5981    0.0000 O   0  0  0  0  0  0  0  0  0  0  0  0
    2.7760    0.0000    0.0000 C   0  0  0  0  0  0  0  0  0  0  0  0
    3.5260    1.2990    0.0000 O   0  0  0  0  0  0  0  0  0  0  0  0
    1.2760    0.0000    0.0000 N   0  0  0  0  0  0  0  0  0  0  0  0
    0.3943    1.2135    0.0000 C   0  0  0  0  0  0  0  0  0  0  0  0
   -1.0323    0.7500    0.0000 C   0  0  0  0  0  0  0  0  0  0  0  0
   -1.0323   -0.7500    0.0000 C   0  0  0  0  0  0  0  0  0  0  0  0
   -2.2458   -1.6317    0.0000 C   0  0  0  0  0  0  0  0  0  0  0  0
   -2.0890   -3.1235    0.0000 O   0  0  0  0  0  0  0  0  0  0  0  0
   -3.6161   -1.0216    0.0000 O   0  0  0  0  0  0  0  0  0  0  0  0
    0.3943   -1.2135    0.0000 C   0  0  0  0  0  0  0  0  0  0  0  0
  1  2  1  0
  2  3  2  0
  2  4  1  0
  4  5  2  0
  4  6  1  0
  6  7  1  0
  7  8  1  0
  8  9  1  0
  9 10  1  0
 10 11  2  0
 10 12  1  0
  9 13  1  0
 13  6  1  0
M  END
>  <Title>  (484) 
idAAQRgen6

$$$$

     RDKit          2D

 30 33  0  0  0  0  0  0  0  0999 V2000
    3.0000    0.0000    0.0000 C   0  0  0  0  0  0  0  0  0  0  0  0
    1.5000    0.0000    0.0000 C   0  0  0  0  0  0  0  0  0  0  0  0
    0.7500   -1.2990    0.0000 C   0  0  0  0  0  0  0  0  0  0  0  0
   -0.7500   -1.2990    0.0000 C   0  0  0  0  0  0  0  0  0  0  0  0
   -1.5000    0.0000    0.0000 C   0  0  0  0  0  0  0  0  0  0  0  0
   -3.0000    0.0000    0.0000 C   0  0  0  0  0  0  0  0  0  0  0  0
   -3.7500   -1.2990    0.0000 O   0  0  0  0  0  0  0  0  0  0  0  0
   -3.7500    1.2990    0.0000 N   0  0  0  0  0  0  0  0  0  0  0  0
   -3.0000    2.5981    0.0000 C   0  0  0  0  0  0  0  0  0  0  0  0
   -3.7500    3.8971    0.0000 C   0  0  0  0  0  0  0  0  0  0  0  0
   -5.2500    3.8971    0.0000 C   0  0  0  0  0  0  0  0  0  0  0  0
   -6.0000    5.1962    0.0000 N   0  0  0  0  0  0  0  0  0  0  0  0
   -5.2500    6.4952    0.0000 C   0  0  0  0  0  0  0  0  0  0  0  0
   -6.0000    7.7942    0.0000 C   0  0  0  0  0  0  0  0  0  0  0  0
   -7.5000    7.7942    0.0000 C   0  0  0  0  0  0  0  0  0  0  0  0
   -8.2500    9.0933    0.0000 N   0  0  0  0  0  0  0  0  0  0  0  0
   -7.5000   10.3923    0.0000 C   0  0  0  0  0  0  0  0  0  0  0  0
   -6.0000   10.3923    0.0000 O   0  0  0  0  0  0  0  0  0  0  0  0
   -8.2500   11.6913    0.0000 C   0  0  0  0  0  0  0  0  0  0  0  0
   -7.5000   12.9904    0.0000 C   0  0  0  0  0  0  0  0  0  0  0  0
   -8.2500   14.2894    0.0000 C   0  0  0  0  0  0  0  0  0  0  0  0
   -9.7500   14.2894    0.0000 C   0  0  0  0  0  0  0  0  0  0  0  0
  -10.5000   12.9904    0.0000 C   0  0  0  0  0  0  0  0  0  0  0  0
   -9.7500   11.6913    0.0000 C   0  0  0  0  0  0  0  0  0  0  0  0
   -8.2500    6.4952    0.0000 C   0  0  0  0  0  0  0  0  0  0  0  0
   -7.5000    5.1962    0.0000 C   0  0  0  0  0  0  0  0  0  0  0  0
   -6.0000    2.5981    0.0000 C   0  0  0  0  0  0  0  0  0  0  0  0
   -5.2500    1.2990    0.0000 C   0  0  0  0  0  0  0  0  0  0  0  0
   -0.7500    1.2990    0.0000 C   0  0  0  0  0  0  0  0  0  0  0  0
    0.7500    1.2990    0.0000 C   0  0  0  0  0  0  0  0  0  0  0  0
  1  2  1  0
  2  3  1  0
  3  4  1  0
  4  5  1  0
  5  6  1  0
  6  7  2  0
  6  8  1  0
  8  9  1  0
  9 10  1  0
 10 11  1  0
 11 12  1  0
 12 13  1  0
 13 14  1  0
 14 15  1  0
 15 16  1  0
 16 17  1  0
 17 18  2  0
 17 19  1  0
 19 20  2  0
 20 21  1  0
 21 22  2  0
 22 23  1  0
 23 24  2  0
 15 25  1  0
 25 26  1  0
 11 27  1  0
 27 28  1  0
  5 29  1  0
 29 30  1  0
 30  2  1  0
 28  8  1  0
 26 12  1  0
 24 19  1  0
M  END
>  <Title>  (485) 
idAAQSgen6

$$$$

     RDKit          2D

 39 44  0  0  0  0  0  0  0  0999 V2000
    3.1097   -7.2078    0.0000 C   0  0  0  0  0  0  0  0  0  0  0  0
    2.0490   -6.1471    0.0000 C   0  0  0  0  0  0  0  0  0  0  0  0
    2.7990   -4.8481    0.0000 C   0  0  0  0  0  0  0  0  0  0  0  0
    2.7990   -3.3481    0.0000 C   0  0  0  0  0  0  0  0  0  0  0  0
    2.0490   -2.0490    0.0000 C   0  0  0  0  0  0  0  0  0  0  0  0
    3.1097   -0.9884    0.0000 C   0  0  0  0  0  0  0  0  0  0  0  0
    2.7215    0.4605    0.0000 O   0  0  0  0  0  0  0  0  0  0  0  0
    4.5586   -1.3766    0.0000 N   0  0  0  0  0  0  0  0  0  0  0  0
    5.6192   -0.3159    0.0000 C   0  0  0  0  0  0  0  0  0  0  0  0
    7.0681   -0.7042    0.0000 N   0  0  0  0  0  0  0  0  0  0  0  0
    8.1288    0.3565    0.0000 N   0  0  0  0  0  0  0  0  0  0  0  0
    7.7406    1.8054    0.0000 N   0  0  0  0  0  0  0  0  0  0  0  0
    6.2917    2.1936    0.0000 N   0  0  0  0  0  0  0  0  0  0  0  0
    5.2310    1.1329    0.0000 N   0  0  0  0  0  0  0  0  0  0  0  0
    0.7500   -1.2990    0.0000 C   0  0  0  0  0  0  0  0  0  0  0  0
    1.5000    0.0000    0.0000 C   0  0  0  0  0  0  0  0  0  0  0  0
    0.7500    1.2990    0.0000 C   0  0  0  0  0  0  0  0  0  0  0  0
   -0.7500    1.2990    0.0000 C   0  0  0  0  0  0  0  0  0  0  0  0
   -1.5000    0.0000    0.0000 C   0  0  0  0  0  0  0  0  0  0  0  0
   -0.7500   -1.2990    0.0000 C   0  0  0  0  0  0  0  0  0  0  0  0
   -2.0490   -2.0490    0.0000 C   0  0  0  0  0  0  0  0  0  0  0  0
   -2.7990   -3.3481    0.0000 C   0  0  0  0  0  0  0  0  0  0  0  0
   -2.7990   -4.8481    0.0000 C   0  0  0  0  0  0  0  0  0  0  0  0
   -2.0490   -6.1471    0.0000 C   0  0  0  0  0  0  0  0  0  0  0  0
   -3.5490   -5.6704    0.0000 N   0  0  0  0  0  0  0  0  0  0  0  0
   -4.6097   -4.6097    0.0000 C   0  0  0  0  0  0  0  0  0  0  0  0
   -5.9955   -5.1837    0.0000 O   0  0  0  0  0  0  0  0  0  0  0  0
   -4.6097   -3.1097    0.0000 C   0  0  0  0  0  0  0  0  0  0  0  0
   -6.0586   -2.7215    0.0000 C   0  0  0  0  0  0  0  0  0  0  0  0
   -6.4468   -1.2726    0.0000 C   0  0  0  0  0  0  0  0  0  0  0  0
   -5.3862   -0.2119    0.0000 C   0  0  0  0  0  0  0  0  0  0  0  0
   -3.9373   -0.6001    0.0000 C   0  0  0  0  0  0  0  0  0  0  0  0
   -3.5490   -2.0490    0.0000 C   0  0  0  0  0  0  0  0  0  0  0  0
   -0.7500   -6.8971    0.0000 C   0  0  0  0  0  0  0  0  0  0  0  0
   -1.5000   -8.1962    0.0000 C   0  0  0  0  0  0  0  0  0  0  0  0
   -0.7500   -9.4952    0.0000 C   0  0  0  0  0  0  0  0  0  0  0  0
    0.7500   -9.4952    0.0000 C   0  0  0  0  0  0  0  0  0  0  0  0
    1.5000   -8.1962    0.0000 C   0  0  0  0  0  0  0  0  0  0  0  0
    0.7500   -6.8971    0.0000 C   0  0  0  0  0  0  0  0  0  0  0  0
  1  2  1  0
  2  3  1  0
  3  4  1  0
  4  5  1  0
  5  6  1  0
  6  7  2  0
  6  8  1  0
  8  9  1  0
  9 10  2  0
 10 11  1  0
 11 12  2  0
 12 13  1  0
 13 14  2  0
  5 15  1  0
 15 16  2  0
 16 17  1  0
 17 18  2  0
 18 19  1  0
 19 20  2  0
 20 21  1  0
 21 22  2  0
 22 23  1  0
 23 24  2  0
 24 25  1  0
 25 26  1  0
 26 27  2  0
 26 28  1  0
 28 29  2  0
 29 30  1  0
 30 31  2  0
 31 32  1  0
 32 33  2  0
 24 34  1  0
 34 35  2  0
 35 36  1  0
 36 37  2  0
 37 38  1  0
 38 39  2  0
 39  2  1  0
 14  9  1  0
 20 15  1  0
 33 21  1  0
 39 34  1  0
 33 28  1  0
M  END
>  <Title>  (486) 
idAAQTgen6

$$$$

     RDKit          2D

 34 38  0  0  0  0  0  0  0  0999 V2000
   -3.0000   -2.5981    0.0000 C   0  0  0  0  0  0  0  0  0  0  0  0
   -1.5000   -2.5981    0.0000 C   0  0  0  0  0  0  0  0  0  0  0  0
   -0.7500   -3.8971    0.0000 C   0  0  0  0  0  0  0  0  0  0  0  0
    0.7500   -3.8971    0.0000 C   0  0  0  0  0  0  0  0  0  0  0  0
    1.5000   -2.5981    0.0000 C   0  0  0  0  0  0  0  0  0  0  0  0
    3.0000   -2.5981    0.0000 C   0  0  0  0  0  0  0  0  0  0  0  0
    3.7500   -1.2990    0.0000 O   0  0  0  0  0  0  0  0  0  0  0  0
    3.7500   -3.8971    0.0000 N   0  0  0  0  0  0  0  0  0  0  0  0
    5.2500   -3.8971    0.0000 C   0  0  0  0  0  0  0  0  0  0  0  0
    6.1317   -2.6836    0.0000 N   0  0  0  0  0  0  0  0  0  0  0  0
    7.5583   -3.1471    0.0000 N   0  0  0  0  0  0  0  0  0  0  0  0
    7.5583   -4.6471    0.0000 N   0  0  0  0  0  0  0  0  0  0  0  0
    6.1317   -5.1106    0.0000 N   0  0  0  0  0  0  0  0  0  0  0  0
    5.6682   -6.5372    0.0000 C   0  0  0  0  0  0  0  0  0  0  0  0
    6.5498   -7.7508    0.0000 C   0  0  0  0  0  0  0  0  0  0  0  0
    5.6682   -8.9643    0.0000 C   0  0  0  0  0  0  0  0  0  0  0  0
    4.2416   -8.5008    0.0000 C   0  0  0  0  0  0  0  0  0  0  0  0
    3.0280   -9.3824    0.0000 C   0  0  0  0  0  0  0  0  0  0  0  0
    3.1848  -10.8742    0.0000 O   0  0  0  0  0  0  0  0  0  0  0  0
    1.6577   -8.7723    0.0000 N   0  0  0  0  0  0  0  0  0  0  0  0
    0.4442   -9.6540    0.0000 C   0  0  0  0  0  0  0  0  0  0  0  0
   -0.9261   -9.0439    0.0000 N   0  0  0  0  0  0  0  0  0  0  0  0
   -2.1396   -9.9256    0.0000 N   0  0  0  0  0  0  0  0  0  0  0  0
   -1.9829  -11.4174    0.0000 N   0  0  0  0  0  0  0  0  0  0  0  0
   -0.6125  -12.0275    0.0000 N   0  0  0  0  0  0  0  0  0  0  0  0
    0.6010  -11.1458    0.0000 N   0  0  0  0  0  0  0  0  0  0  0  0
    4.2416   -7.0008    0.0000 C   0  0  0  0  0  0  0  0  0  0  0  0
    3.0280   -6.1191    0.0000 O   0  0  0  0  0  0  0  0  0  0  0  0
    0.7500   -1.2990    0.0000 C   0  0  0  0  0  0  0  0  0  0  0  0
    1.5000    0.0000    0.0000 C   0  0  0  0  0  0  0  0  0  0  0  0
    0.7500    1.2990    0.0000 C   0  0  0  0  0  0  0  0  0  0  0  0
   -0.7500    1.2990    0.0000 C   0  0  0  0  0  0  0  0  0  0  0  0
   -1.5000    0.0000    0.0000 C   0  0  0  0  0  0  0  0  0  0  0  0
   -0.7500   -1.2990    0.0000 C   0  0  0  0  0  0  0  0  0  0  0  0
  1  2  1  0
  2  3  1  0
  3  4  2  0
  4  5  1  0
  5  6  1  0
  6  7  2  0
  6  8  1  0
  8  9  1  0
  9 10  2  0
 10 11  1  0
 11 12  2  0
 12 13  1  0
 13 14  1  0
 14 15  2  0
 15 16  1  0
 16 17  2  0
 17 18  1  0
 18 19  2  0
 18 20  1  0
 20 21  1  0
 21 22  2  0
 22 23  1  0
 23 24  2  0
 24 25  1  0
 25 26  2  0
 17 27  1  0
 27 28  2  0
  5 29  1  0
 29 30  2  0
 30 31  1  0
 31 32  2  0
 32 33  1  0
 33 34  2  0
 34  2  1  0
 13  9  1  0
 27 14  1  0
 34 29  1  0
 26 21  1  0
M  END
>  <Title>  (487) 
idAAQUgen6

$$$$

     RDKit          2D

 27 31  0  0  0  0  0  0  0  0999 V2000
   -3.0000   -2.5981    0.0000 C   0  0  0  0  0  0  0  0  0  0  0  0
   -1.5000   -2.5981    0.0000 C   0  0  0  0  0  0  0  0  0  0  0  0
   -0.7500   -3.8971    0.0000 C   0  0  0  0  0  0  0  0  0  0  0  0
    0.7500   -3.8971    0.0000 C   0  0  0  0  0  0  0  0  0  0  0  0
    1.5000   -2.5981    0.0000 C   0  0  0  0  0  0  0  0  0  0  0  0
    3.0000   -2.5981    0.0000 N   0  0  0  0  0  0  0  0  0  0  0  0
    3.8817   -1.3846    0.0000 C   0  0  0  0  0  0  0  0  0  0  0  0
    5.3083   -1.8481    0.0000 C   0  0  0  0  0  0  0  0  0  0  0  0
    5.3083   -3.3481    0.0000 C   0  0  0  0  0  0  0  0  0  0  0  0
    6.5218   -4.2298    0.0000 C   0  0  0  0  0  0  0  0  0  0  0  0
    6.3650   -5.7215    0.0000 C   0  0  0  0  0  0  0  0  0  0  0  0
    7.5785   -6.6032    0.0000 C   0  0  0  0  0  0  0  0  0  0  0  0
    8.9488   -5.9931    0.0000 C   0  0  0  0  0  0  0  0  0  0  0  0
    9.1056   -4.5013    0.0000 C   0  0  0  0  0  0  0  0  0  0  0  0
    7.8921   -3.6196    0.0000 C   0  0  0  0  0  0  0  0  0  0  0  0
    3.8817   -3.8116    0.0000 C   0  0  0  0  0  0  0  0  0  0  0  0
    3.4182   -5.2382    0.0000 C   0  0  0  0  0  0  0  0  0  0  0  0
    4.2998   -6.4517    0.0000 C   0  0  0  0  0  0  0  0  0  0  0  0
    3.4182   -7.6652    0.0000 C   0  0  0  0  0  0  0  0  0  0  0  0
    1.9916   -7.2017    0.0000 C   0  0  0  0  0  0  0  0  0  0  0  0
    1.9916   -5.7017    0.0000 C   0  0  0  0  0  0  0  0  0  0  0  0
    0.7500   -1.2990    0.0000 C   0  0  0  0  0  0  0  0  0  0  0  0
    1.5000    0.0000    0.0000 C   0  0  0  0  0  0  0  0  0  0  0  0
    0.7500    1.2990    0.0000 C   0  0  0  0  0  0  0  0  0  0  0  0
   -0.7500    1.2990    0.0000 C   0  0  0  0  0  0  0  0  0  0  0  0
   -1.5000    0.0000    0.0000 C   0  0  0  0  0  0  0  0  0  0  0  0
   -0.7500   -1.2990    0.0000 C   0  0  0  0  0  0  0  0  0  0  0  0
  1  2  1  0
  2  3  2  0
  3  4  1  0
  4  5  2  0
  5  6  1  0
  6  7  1  0
  7  8  1  0
  8  9  1  0
  9 10  1  0
 10 11  2  0
 11 12  1  0
 12 13  2  0
 13 14  1  0
 14 15  2  0
  9 16  1  0
 16 17  1  0
 17 18  1  0
 18 19  2  0
 19 20  1  0
 20 21  2  0
  5 22  1  0
 22 23  2  0
 23 24  1  0
 24 25  2  0
 25 26  1  0
 26 27  2  0
 27  2  1  0
 16  6  1  0
 21 17  1  0
 27 22  1  0
 15 10  1  0
M  END
>  <Title>  (488) 
idAAQVgen6

$$$$

     RDKit          2D

 19 21  0  0  0  0  0  0  0  0999 V2000
    3.9786   -1.2990    0.0000 C   0  0  0  0  0  0  0  0  0  0  0  0
    3.2286   -0.0000    0.0000 O   0  0  0  0  0  0  0  0  0  0  0  0
    1.7286    0.0000    0.0000 C   0  0  0  0  0  0  0  0  0  0  0  0
    1.0777    1.3515    0.0000 C   0  0  0  0  0  0  0  0  0  0  0  0
   -0.3846    1.6852    0.0000 C   0  0  0  0  0  0  0  0  0  0  0  0
   -1.5574    0.7500    0.0000 C   0  0  0  0  0  0  0  0  0  0  0  0
   -1.5574   -0.7500    0.0000 C   0  0  0  0  0  0  0  0  0  0  0  0
   -2.9537   -1.2980    0.0000 C   0  0  0  0  0  0  0  0  0  0  0  0
   -3.1773   -2.7813    0.0000 C   0  0  0  0  0  0  0  0  0  0  0  0
   -4.5736   -3.3293    0.0000 C   0  0  0  0  0  0  0  0  0  0  0  0
   -5.7463   -2.3940    0.0000 C   0  0  0  0  0  0  0  0  0  0  0  0
   -7.1426   -2.9420    0.0000 C   0  0  0  0  0  0  0  0  0  0  0  0
   -7.3662   -4.4253    0.0000 C   0  0  0  0  0  0  0  0  0  0  0  0
   -6.1934   -5.3605    0.0000 C   0  0  0  0  0  0  0  0  0  0  0  0
   -4.7971   -4.8125    0.0000 C   0  0  0  0  0  0  0  0  0  0  0  0
   -2.0045   -3.7165    0.0000 C   0  0  0  0  0  0  0  0  0  0  0  0
   -0.6082   -3.1685    0.0000 C   0  0  0  0  0  0  0  0  0  0  0  0
   -0.3846   -1.6852    0.0000 C   0  0  0  0  0  0  0  0  0  0  0  0
    1.0777   -1.3515    0.0000 C   0  0  0  0  0  0  0  0  0  0  0  0
  1  2  1  0
  2  3  1  0
  3  4  2  0
  4  5  1  0
  5  6  2  0
  6  7  1  0
  7  8  1  0
  8  9  1  0
  9 10  1  0
 10 11  2  0
 11 12  1  0
 12 13  2  0
 13 14  1  0
 14 15  2  0
  9 16  2  0
 16 17  1  0
 17 18  2  0
 18 19  1  0
 19  3  1  0
 18  7  1  0
 15 10  1  0
M  END
>  <Title>  (489) 
idAAQWgen6

$$$$

     RDKit          2D

  5  4  0  0  0  0  0  0  0  0999 V2000
    0.0000    0.0000    0.0000 C   0  0  0  0  0  0  0  0  0  0  0  0
    1.2990    0.7500    0.0000 C   0  0  0  0  0  0  0  0  0  0  0  0
    2.5981    1.5000    0.0000 C   0  0  0  0  0  0  0  0  0  0  0  0
    2.0490   -0.5490    0.0000 C   0  0  0  0  0  0  0  0  0  0  0  0
    0.5490    2.0490    0.0000 O   0  0  0  0  0  0  0  0  0  0  0  0
  1  2  1  0
  2  3  1  0
  2  4  1  0
  2  5  1  0
M  END
>  <Title>  (490) 
idAAQXgen6

$$$$

     RDKit          2D

 37 41  0  0  0  0  0  0  0  0999 V2000
   -3.1965   -1.7857    0.0000 C   0  0  0  0  0  0  0  0  0  0  0  0
   -1.8107   -2.3597    0.0000 C   0  0  0  0  0  0  0  0  0  0  0  0
   -1.8107   -3.8597    0.0000 C   0  0  0  0  0  0  0  0  0  0  0  0
   -0.7500   -4.9204    0.0000 C   0  0  0  0  0  0  0  0  0  0  0  0
    0.7500   -4.9204    0.0000 C   0  0  0  0  0  0  0  0  0  0  0  0
    1.3240   -6.3062    0.0000 O   0  0  0  0  0  0  0  0  0  0  0  0
    0.4109   -7.4962    0.0000 C   0  0  0  0  0  0  0  0  0  0  0  0
    0.9849   -8.8820    0.0000 C   0  0  0  0  0  0  0  0  0  0  0  0
    0.0718  -10.0721    0.0000 C   0  0  0  0  0  0  0  0  0  0  0  0
    0.6458  -11.4579    0.0000 C   0  0  0  0  0  0  0  0  0  0  0  0
    2.1330  -11.6537    0.0000 C   0  0  0  0  0  0  0  0  0  0  0  0
    3.0461  -10.4636    0.0000 C   0  0  0  0  0  0  0  0  0  0  0  0
    2.4721   -9.0778    0.0000 C   0  0  0  0  0  0  0  0  0  0  0  0
    3.3852   -7.8878    0.0000 C   0  0  0  0  0  0  0  0  0  0  0  0
    2.9592   -6.4496    0.0000 C   0  0  0  0  0  0  0  0  0  0  0  0
    4.1954   -5.5999    0.0000 C   0  0  0  0  0  0  0  0  0  0  0  0
    5.3854   -6.5131    0.0000 C   0  0  0  0  0  0  0  0  0  0  0  0
    6.8236   -6.0871    0.0000 C   0  0  0  0  0  0  0  0  0  0  0  0
    7.1738   -4.6285    0.0000 O   0  0  0  0  0  0  0  0  0  0  0  0
    7.9117   -7.1196    0.0000 N   0  0  0  0  0  0  0  0  0  0  0  0
    9.3499   -6.6936    0.0000 C   0  0  0  0  0  0  0  0  0  0  0  0
   10.4380   -7.7261    0.0000 N   0  0  0  0  0  0  0  0  0  0  0  0
   11.8762   -7.3001    0.0000 N   0  0  0  0  0  0  0  0  0  0  0  0
   12.2264   -5.8415    0.0000 N   0  0  0  0  0  0  0  0  0  0  0  0
   11.1383   -4.8090    0.0000 N   0  0  0  0  0  0  0  0  0  0  0  0
    9.7001   -5.2350    0.0000 N   0  0  0  0  0  0  0  0  0  0  0  0
    4.8847   -7.9271    0.0000 C   0  0  0  0  0  0  0  0  0  0  0  0
    5.7343   -9.1632    0.0000 O   0  0  0  0  0  0  0  0  0  0  0  0
    1.8107   -3.8597    0.0000 N   0  0  0  0  0  0  0  0  0  0  0  0
    1.8107   -2.3597    0.0000 C   0  0  0  0  0  0  0  0  0  0  0  0
    3.1965   -1.7857    0.0000 O   0  0  0  0  0  0  0  0  0  0  0  0
    0.7500   -1.2990    0.0000 C   0  0  0  0  0  0  0  0  0  0  0  0
    1.5000    0.0000    0.0000 C   0  0  0  0  0  0  0  0  0  0  0  0
    0.7500    1.2990    0.0000 C   0  0  0  0  0  0  0  0  0  0  0  0
   -0.7500    1.2990    0.0000 C   0  0  0  0  0  0  0  0  0  0  0  0
   -1.5000    0.0000    0.0000 C   0  0  0  0  0  0  0  0  0  0  0  0
   -0.7500   -1.2990    0.0000 C   0  0  0  0  0  0  0  0  0  0  0  0
  1  2  1  0
  2  3  1  0
  3  4  1  0
  4  5  1  0
  5  6  1  0
  6  7  1  0
  7  8  1  0
  8  9  2  0
  9 10  1  0
 10 11  2  0
 11 12  1  0
 12 13  2  0
 13 14  1  0
 14 15  2  0
 15 16  1  0
 16 17  2  0
 17 18  1  0
 18 19  2  0
 18 20  1  0
 20 21  1  0
 21 22  2  0
 22 23  1  0
 23 24  2  0
 24 25  1  0
 25 26  2  0
 17 27  1  0
 27 28  2  0
  5 29  1  0
 29 30  1  0
 30 31  2  0
 30 32  1  0
 32 33  2  0
 33 34  1  0
 34 35  2  0
 35 36  1  0
 36 37  2  0
 37  2  1  0
 13  8  1  0
 27 14  1  0
 37 32  1  0
 26 21  1  0
M  END
>  <Title>  (491) 
idAAQYgen6

$$$$

     RDKit          2D

 10 11  0  0  0  0  0  0  0  0999 V2000
    2.7760    0.0000    0.0000 O   0  0  0  0  0  0  0  0  0  0  0  0
    1.2760    0.0000    0.0000 C   0  0  0  0  0  0  0  0  0  0  0  0
    0.3943    1.2135    0.0000 C   0  0  0  0  0  0  0  0  0  0  0  0
   -1.0323    0.7500    0.0000 C   0  0  0  0  0  0  0  0  0  0  0  0
   -1.0323   -0.7500    0.0000 C   0  0  0  0  0  0  0  0  0  0  0  0
   -1.9140   -1.9635    0.0000 C   0  0  0  0  0  0  0  0  0  0  0  0
   -1.0323   -3.1771    0.0000 C   0  0  0  0  0  0  0  0  0  0  0  0
    0.3943   -2.7135    0.0000 C   0  0  0  0  0  0  0  0  0  0  0  0
    1.6078   -3.5952    0.0000 O   0  0  0  0  0  0  0  0  0  0  0  0
    0.3943   -1.2135    0.0000 C   0  0  0  0  0  0  0  0  0  0  0  0
  1  2  1  0
  2  3  2  0
  3  4  1  0
  4  5  2  0
  5  6  1  0
  6  7  2  0
  7  8  1  0
  8  9  1  0
  8 10  2  0
 10  2  1  0
 10  5  1  0
M  END
>  <Title>  (492) 
idAAQZgen6

$$$$

     RDKit          2D

 10 10  0  0  0  0  0  0  0  0999 V2000
    4.2976   -0.3872    0.0000 C   0  0  0  0  0  0  0  0  0  0  0  0
    2.9013   -0.9352    0.0000 O   0  0  0  0  0  0  0  0  0  0  0  0
    1.7286    0.0000    0.0000 C   0  0  0  0  0  0  0  0  0  0  0  0
    2.9013    0.9352    0.0000 C   0  0  0  0  0  0  0  0  0  0  0  0
    1.0777    1.3515    0.0000 C   0  0  0  0  0  0  0  0  0  0  0  0
   -0.3846    1.6852    0.0000 C   0  0  0  0  0  0  0  0  0  0  0  0
   -1.5574    0.7500    0.0000 C   0  0  0  0  0  0  0  0  0  0  0  0
   -1.5574   -0.7500    0.0000 C   0  0  0  0  0  0  0  0  0  0  0  0
   -0.3846   -1.6852    0.0000 C   0  0  0  0  0  0  0  0  0  0  0  0
    1.0777   -1.3515    0.0000 C   0  0  0  0  0  0  0  0  0  0  0  0
  1  2  1  0
  2  3  1  0
  3  4  1  0
  3  5  1  0
  5  6  1  0
  6  7  1  0
  7  8  1  0
  8  9  1  0
  9 10  1  0
 10  3  1  0
M  END
>  <Title>  (493) 
idAARAgen6

$$$$

     RDKit          2D

 10 10  0  0  0  0  0  0  0  0999 V2000
    2.4271    0.0000    0.0000 C   0  0  0  0  0  0  0  0  0  0  0  0
    1.9635   -1.4266    0.0000 C   0  0  0  0  0  0  0  0  0  0  0  0
    0.7500   -2.3083    0.0000 C   0  0  0  0  0  0  0  0  0  0  0  0
   -0.7500   -2.3083    0.0000 C   0  0  0  0  0  0  0  0  0  0  0  0
   -1.9635   -1.4266    0.0000 C   0  0  0  0  0  0  0  0  0  0  0  0
   -2.4271    0.0000    0.0000 C   0  0  0  0  0  0  0  0  0  0  0  0
   -1.9635    1.4266    0.0000 C   0  0  0  0  0  0  0  0  0  0  0  0
   -0.7500    2.3083    0.0000 C   0  0  0  0  0  0  0  0  0  0  0  0
    0.7500    2.3083    0.0000 C   0  0  0  0  0  0  0  0  0  0  0  0
    1.9635    1.4266    0.0000 C   0  0  0  0  0  0  0  0  0  0  0  0
  1  2  1  0
  2  3  1  0
  3  4  1  0
  4  5  1  0
  5  6  1  0
  6  7  1  0
  7  8  1  0
  8  9  1  0
  9 10  1  0
 10  1  1  0
M  END
>  <Title>  (494) 
idAARBgen6

$$$$

     RDKit          2D

 12 12  0  0  0  0  0  0  0  0999 V2000
    2.8978    0.0000    0.0000 C   0  0  0  0  0  0  0  0  0  0  0  0
    2.5095   -1.4489    0.0000 C   0  0  0  0  0  0  0  0  0  0  0  0
    1.4489   -2.5095    0.0000 C   0  0  0  0  0  0  0  0  0  0  0  0
   -0.0000   -2.8978    0.0000 C   0  0  0  0  0  0  0  0  0  0  0  0
   -1.4489   -2.5095    0.0000 C   0  0  0  0  0  0  0  0  0  0  0  0
   -2.5095   -1.4489    0.0000 C   0  0  0  0  0  0  0  0  0  0  0  0
   -2.8978    0.0000    0.0000 N   0  0  0  0  0  0  0  0  0  0  0  0
   -2.5095    1.4489    0.0000 C   0  0  0  0  0  0  0  0  0  0  0  0
   -1.4489    2.5095    0.0000 C   0  0  0  0  0  0  0  0  0  0  0  0
    0.0000    2.8978    0.0000 C   0  0  0  0  0  0  0  0  0  0  0  0
    1.4489    2.5095    0.0000 C   0  0  0  0  0  0  0  0  0  0  0  0
    2.5095    1.4489    0.0000 C   0  0  0  0  0  0  0  0  0  0  0  0
  1  2  1  0
  2  3  1  0
  3  4  1  0
  4  5  1  0
  5  6  1  0
  6  7  1  0
  7  8  1  0
  8  9  1  0
  9 10  1  0
 10 11  1  0
 11 12  1  0
 12  1  1  0
M  END
>  <Title>  (495) 
idAARCgen6

$$$$

     RDKit          2D

 13 13  0  0  0  0  0  0  0  0999 V2000
    3.0000    0.0000    0.0000 C   0  0  0  0  0  0  0  0  0  0  0  0
    1.5000    0.0000    0.0000 C   0  0  0  0  0  0  0  0  0  0  0  0
    0.7500   -1.2990    0.0000 C   0  0  0  0  0  0  0  0  0  0  0  0
   -0.7500   -1.2990    0.0000 C   0  0  0  0  0  0  0  0  0  0  0  0
   -1.5000    0.0000    0.0000 C   0  0  0  0  0  0  0  0  0  0  0  0
   -3.0000    0.0000    0.0000 O   0  0  0  0  0  0  0  0  0  0  0  0
   -0.7500    1.2990    0.0000 C   0  0  0  0  0  0  0  0  0  0  0  0
    0.7500    1.2990    0.0000 C   0  0  0  0  0  0  0  0  0  0  0  0
    2.1595    1.8121    0.0000 O   0  0  0  0  0  0  0  0  0  0  0  0
    0.4895    2.7762    0.0000 C   0  0  0  0  0  0  0  0  0  0  0  0
    1.6386    3.7404    0.0000 C   0  0  0  0  0  0  0  0  0  0  0  0
    3.0481    3.2274    0.0000 O   0  0  0  0  0  0  0  0  0  0  0  0
    1.3781    5.2176    0.0000 O   0  0  0  0  0  0  0  0  0  0  0  0
  1  2  1  0
  2  3  1  0
  3  4  1  0
  4  5  1  0
  5  6  1  0
  5  7  1  0
  7  8  1  0
  8  9  1  0
  8 10  1  0
 10 11  1  0
 11 12  2  0
 11 13  1  0
  8  2  1  0
M  END
>  <Title>  (496) 
idAARDgen6

$$$$

     RDKit          2D

 11 11  0  0  0  0  0  0  0  0999 V2000
    7.2760   -2.5981    0.0000 C   0  0  0  0  0  0  0  0  0  0  0  0
    5.7760   -2.5981    0.0000 C   0  0  0  0  0  0  0  0  0  0  0  0
    5.0260   -1.2990    0.0000 C   0  0  0  0  0  0  0  0  0  0  0  0
    3.5260   -1.2990    0.0000 O   0  0  0  0  0  0  0  0  0  0  0  0
    2.7760    0.0000    0.0000 C   0  0  0  0  0  0  0  0  0  0  0  0
    3.5260    1.2990    0.0000 O   0  0  0  0  0  0  0  0  0  0  0  0
    1.2760    0.0000    0.0000 C   0  0  0  0  0  0  0  0  0  0  0  0
    0.3943    1.2135    0.0000 C   0  0  0  0  0  0  0  0  0  0  0  0
   -1.0323    0.7500    0.0000 C   0  0  0  0  0  0  0  0  0  0  0  0
   -1.0323   -0.7500    0.0000 C   0  0  0  0  0  0  0  0  0  0  0  0
    0.3943   -1.2135    0.0000 C   0  0  0  0  0  0  0  0  0  0  0  0
  1  2  2  0
  2  3  1  0
  3  4  1  0
  4  5  1  0
  5  6  2  0
  5  7  1  0
  7  8  2  0
  8  9  1  0
  9 10  1  0
 10 11  2  0
 11  7  1  0
M  END
>  <Title>  (497) 
idAAREgen6

$$$$

     RDKit          2D

 15 15  0  0  0  0  0  0  0  0999 V2000
    3.9271    0.0000    0.0000 C   0  0  0  0  0  0  0  0  0  0  0  0
    2.4271    0.0000    0.0000 C   0  0  0  0  0  0  0  0  0  0  0  0
    1.9635   -1.4266    0.0000 C   0  0  0  0  0  0  0  0  0  0  0  0
    0.7500   -2.3083    0.0000 C   0  0  0  0  0  0  0  0  0  0  0  0
   -0.7500   -2.3083    0.0000 C   0  0  0  0  0  0  0  0  0  0  0  0
   -1.9635   -1.4266    0.0000 C   0  0  0  0  0  0  0  0  0  0  0  0
   -3.1771   -2.3083    0.0000 C   0  0  0  0  0  0  0  0  0  0  0  0
   -2.4271    0.0000    0.0000 N   0  0  0  0  0  0  0  0  0  0  0  0
   -1.9635    1.4266    0.0000 C   0  0  0  0  0  0  0  0  0  0  0  0
   -3.1771    2.3083    0.0000 N   0  0  0  0  0  0  0  0  0  0  0  0
   -0.7500    2.3083    0.0000 C   0  0  0  0  0  0  0  0  0  0  0  0
   -1.2135    3.7348    0.0000 O   0  0  0  0  0  0  0  0  0  0  0  0
    0.7500    2.3083    0.0000 C   0  0  0  0  0  0  0  0  0  0  0  0
    1.9635    1.4266    0.0000 C   0  0  0  0  0  0  0  0  0  0  0  0
    3.1771    2.3083    0.0000 C   0  0  0  0  0  0  0  0  0  0  0  0
  1  2  1  0
  2  3  2  0
  3  4  1  0
  4  5  1  0
  5  6  1  0
  6  7  1  0
  6  8  2  0
  8  9  1  0
  9 10  1  0
  9 11  1  0
 11 12  2  0
 11 13  1  0
 13 14  1  0
 14 15  1  0
 14  2  1  0
M  END
>  <Title>  (498) 
idAARFgen6

$$$$

     RDKit          2D

 38 43  0  0  0  0  0  0  0  0999 V2000
   -0.0000   -7.0525    0.0000 C   0  0  0  0  0  0  0  0  0  0  0  0
   -0.0000   -5.5525    0.0000 C   0  0  0  0  0  0  0  0  0  0  0  0
    1.4095   -5.0395    0.0000 C   0  0  0  0  0  0  0  0  0  0  0  0
    2.1595   -3.7404    0.0000 C   0  0  0  0  0  0  0  0  0  0  0  0
    1.8991   -2.2632    0.0000 C   0  0  0  0  0  0  0  0  0  0  0  0
    3.1981   -1.5132    0.0000 C   0  0  0  0  0  0  0  0  0  0  0  0
    3.1981   -0.0132    0.0000 O   0  0  0  0  0  0  0  0  0  0  0  0
    4.4971   -2.2632    0.0000 O   0  0  0  0  0  0  0  0  0  0  0  0
    5.7962   -1.5132    0.0000 C   0  0  0  0  0  0  0  0  0  0  0  0
    5.9530   -0.0214    0.0000 N   0  0  0  0  0  0  0  0  0  0  0  0
    7.4202    0.2904    0.0000 N   0  0  0  0  0  0  0  0  0  0  0  0
    8.1702   -1.0086    0.0000 N   0  0  0  0  0  0  0  0  0  0  0  0
    7.1665   -2.1233    0.0000 N   0  0  0  0  0  0  0  0  0  0  0  0
    7.4784   -3.5905    0.0000 C   0  0  0  0  0  0  0  0  0  0  0  0
    6.3636   -4.5942    0.0000 C   0  0  0  0  0  0  0  0  0  0  0  0
    6.6755   -6.0615    0.0000 C   0  0  0  0  0  0  0  0  0  0  0  0
    8.1021   -6.5250    0.0000 C   0  0  0  0  0  0  0  0  0  0  0  0
    9.2168   -5.5213    0.0000 C   0  0  0  0  0  0  0  0  0  0  0  0
    8.9050   -4.0541    0.0000 C   0  0  0  0  0  0  0  0  0  0  0  0
   10.0197   -3.0504    0.0000 C   0  0  0  0  0  0  0  0  0  0  0  0
   11.4463   -3.5139    0.0000 C   0  0  0  0  0  0  0  0  0  0  0  0
   12.5610   -2.5102    0.0000 C   0  0  0  0  0  0  0  0  0  0  0  0
   12.2491   -1.0430    0.0000 C   0  0  0  0  0  0  0  0  0  0  0  0
   10.8225   -0.5795    0.0000 C   0  0  0  0  0  0  0  0  0  0  0  0
    9.7078   -1.5832    0.0000 C   0  0  0  0  0  0  0  0  0  0  0  0
    0.7500   -1.2990    0.0000 C   0  0  0  0  0  0  0  0  0  0  0  0
    1.5000    0.0000    0.0000 C   0  0  0  0  0  0  0  0  0  0  0  0
    0.7500    1.2990    0.0000 C   0  0  0  0  0  0  0  0  0  0  0  0
   -0.7500    1.2990    0.0000 C   0  0  0  0  0  0  0  0  0  0  0  0
   -1.5000    0.0000    0.0000 C   0  0  0  0  0  0  0  0  0  0  0  0
   -0.7500   -1.2990    0.0000 C   0  0  0  0  0  0  0  0  0  0  0  0
   -1.8991   -2.2632    0.0000 C   0  0  0  0  0  0  0  0  0  0  0  0
   -3.0481   -1.2990    0.0000 C   0  0  0  0  0  0  0  0  0  0  0  0
   -4.4577   -1.8121    0.0000 C   0  0  0  0  0  0  0  0  0  0  0  0
   -4.7181   -3.2893    0.0000 C   0  0  0  0  0  0  0  0  0  0  0  0
   -3.5691   -4.2535    0.0000 C   0  0  0  0  0  0  0  0  0  0  0  0
   -2.1595   -3.7404    0.0000 C   0  0  0  0  0  0  0  0  0  0  0  0
   -1.4095   -5.0395    0.0000 C   0  0  0  0  0  0  0  0  0  0  0  0
  1  2  1  0
  2  3  1  0
  3  4  1  0
  4  5  1  0
  5  6  1  0
  6  7  2  0
  6  8  1  0
  8  9  1  0
  9 10  2  0
 10 11  1  0
 11 12  2  0
 12 13  1  0
 13 14  1  0
 14 15  2  0
 15 16  1  0
 16 17  2  0
 17 18  1  0
 18 19  2  0
 19 20  1  0
 20 21  2  0
 21 22  1  0
 22 23  2  0
 23 24  1  0
 24 25  2  0
  5 26  1  0
 26 27  2  0
 27 28  1  0
 28 29  2  0
 29 30  1  0
 30 31  2  0
 31 32  1  0
 32 33  2  0
 33 34  1  0
 34 35  2  0
 35 36  1  0
 36 37  2  0
 37 38  1  0
 38  2  1  0
 13  9  1  0
 19 14  1  0
 25 20  1  0
 31 26  1  0
 37 32  1  0
M  END
>  <Title>  (499) 
idAARGgen6

$$$$

     RDKit          2D

 16 17  0  0  0  0  0  0  0  0999 V2000
    3.0000    0.0000    0.0000 C   0  0  0  0  0  0  0  0  0  0  0  0
    1.5000    0.0000    0.0000 C   0  0  0  0  0  0  0  0  0  0  0  0
    0.7500   -1.2990    0.0000 C   0  0  0  0  0  0  0  0  0  0  0  0
   -0.7500   -1.2990    0.0000 C   0  0  0  0  0  0  0  0  0  0  0  0
   -1.5000    0.0000    0.0000 C   0  0  0  0  0  0  0  0  0  0  0  0
   -3.0000    0.0000    0.0000 C   0  0  0  0  0  0  0  0  0  0  0  0
   -3.7500   -1.2990    0.0000 O   0  0  0  0  0  0  0  0  0  0  0  0
   -3.7500    1.2990    0.0000 N   0  0  0  0  0  0  0  0  0  0  0  0
   -5.2500    1.2990    0.0000 C   0  0  0  0  0  0  0  0  0  0  0  0
   -6.0000    2.5981    0.0000 N   0  0  0  0  0  0  0  0  0  0  0  0
   -7.5000    2.5981    0.0000 N   0  0  0  0  0  0  0  0  0  0  0  0
   -8.2500    1.2990    0.0000 N   0  0  0  0  0  0  0  0  0  0  0  0
   -7.5000    0.0000    0.0000 N   0  0  0  0  0  0  0  0  0  0  0  0
   -6.0000    0.0000    0.0000 N   0  0  0  0  0  0  0  0  0  0  0  0
   -0.7500    1.2990    0.0000 C   0  0  0  0  0  0  0  0  0  0  0  0
    0.7500    1.2990    0.0000 C   0  0  0  0  0  0  0  0  0  0  0  0
  1  2  1  0
  2  3  1  0
  3  4  1  0
  4  5  1  0
  5  6  1  0
  6  7  2  0
  6  8  1  0
  8  9  1  0
  9 10  2  0
 10 11  1  0
 11 12  2  0
 12 13  1  0
 13 14  2  0
  5 15  1  0
 15 16  1  0
 16  2  1  0
 14  9  1  0
M  END
>  <Title>  (500) 
idAARHgen6

$$$$

     RDKit          2D

 28 30  0  0  0  0  0  0  0  0999 V2000
    4.8705    0.0000    0.0000 C   0  0  0  0  0  0  0  0  0  0  0  0
    3.3705    0.0000    0.0000 C   0  0  0  0  0  0  0  0  0  0  0  0
    3.0367   -1.4624    0.0000 C   0  0  0  0  0  0  0  0  0  0  0  0
    2.1015   -2.6351    0.0000 C   0  0  0  0  0  0  0  0  0  0  0  0
    0.7500   -3.2860    0.0000 C   0  0  0  0  0  0  0  0  0  0  0  0
   -0.7500   -3.2860    0.0000 C   0  0  0  0  0  0  0  0  0  0  0  0
   -2.1015   -2.6351    0.0000 C   0  0  0  0  0  0  0  0  0  0  0  0
   -3.0367   -1.4624    0.0000 C   0  0  0  0  0  0  0  0  0  0  0  0
   -3.3705    0.0000    0.0000 C   0  0  0  0  0  0  0  0  0  0  0  0
   -3.0367    1.4624    0.0000 C   0  0  0  0  0  0  0  0  0  0  0  0
   -2.1015    2.6351    0.0000 C   0  0  0  0  0  0  0  0  0  0  0  0
   -0.7500    3.2860    0.0000 C   0  0  0  0  0  0  0  0  0  0  0  0
    0.7500    3.2860    0.0000 C   0  0  0  0  0  0  0  0  0  0  0  0
    2.1015    2.6351    0.0000 C   0  0  0  0  0  0  0  0  0  0  0  0
    3.0367    3.8079    0.0000 C   0  0  0  0  0  0  0  0  0  0  0  0
    4.5199    3.5843    0.0000 C   0  0  0  0  0  0  0  0  0  0  0  0
    5.0679    2.1880    0.0000 C   0  0  0  0  0  0  0  0  0  0  0  0
    6.5512    1.9644    0.0000 C   0  0  0  0  0  0  0  0  0  0  0  0
    7.4864    3.1372    0.0000 C   0  0  0  0  0  0  0  0  0  0  0  0
    6.9384    4.5335    0.0000 C   0  0  0  0  0  0  0  0  0  0  0  0
    5.4552    4.7571    0.0000 C   0  0  0  0  0  0  0  0  0  0  0  0
    4.9072    6.1534    0.0000 C   0  0  0  0  0  0  0  0  0  0  0  0
    5.8424    7.3261    0.0000 N   0  0  0  0  0  0  0  0  0  0  0  0
    5.2944    8.7224    0.0000 N   0  0  0  0  0  0  0  0  0  0  0  0
    3.8111    8.9460    0.0000 N   0  0  0  0  0  0  0  0  0  0  0  0
    2.8759    7.7733    0.0000 N   0  0  0  0  0  0  0  0  0  0  0  0
    3.4239    6.3769    0.0000 N   0  0  0  0  0  0  0  0  0  0  0  0
    3.0367    1.4624    0.0000 C   0  0  0  0  0  0  0  0  0  0  0  0
  1  2  1  0
  2  3  1  0
  3  4  2  0
  4  5  1  0
  5  6  1  0
  6  7  1  0
  7  8  1  0
  8  9  1  0
  9 10  1  0
 10 11  1  0
 11 12  1  0
 12 13  1  0
 13 14  1  0
 14 15  1  0
 15 16  1  0
 16 17  2  0
 17 18  1  0
 18 19  2  0
 19 20  1  0
 20 21  2  0
 21 22  1  0
 22 23  2  0
 23 24  1  0
 24 25  2  0
 25 26  1  0
 26 27  2  0
 14 28  1  0
 28  2  1  0
 21 16  1  0
 27 22  1  0
M  END
>  <Title>  (501) 
idAARIgen6

$$$$

     RDKit          2D

 14 14  0  0  0  0  0  0  0  0999 V2000
    6.0000   -2.5981    0.0000 C   0  0  0  0  0  0  0  0  0  0  0  0
    5.2500   -1.2990    0.0000 C   0  0  0  0  0  0  0  0  0  0  0  0
    3.7500   -1.2990    0.0000 N   0  0  0  0  0  0  0  0  0  0  0  0
    3.0000    0.0000    0.0000 C   0  0  0  0  0  0  0  0  0  0  0  0
    3.7500    1.2990    0.0000 O   0  0  0  0  0  0  0  0  0  0  0  0
    1.5000    0.0000    0.0000 C   0  0  0  0  0  0  0  0  0  0  0  0
    0.7500   -1.2990    0.0000 C   0  0  0  0  0  0  0  0  0  0  0  0
   -0.7500   -1.2990    0.0000 C   0  0  0  0  0  0  0  0  0  0  0  0
   -1.5000    0.0000    0.0000 C   0  0  0  0  0  0  0  0  0  0  0  0
   -0.7500    1.2990    0.0000 C   0  0  0  0  0  0  0  0  0  0  0  0
    0.7500    1.2990    0.0000 C   0  0  0  0  0  0  0  0  0  0  0  0
    6.0000    0.0000    0.0000 C   0  0  0  0  0  0  0  0  0  0  0  0
    5.2500    1.2990    0.0000 O   0  0  0  0  0  0  0  0  0  0  0  0
    7.5000   -0.0000    0.0000 O   0  0  0  0  0  0  0  0  0  0  0  0
  1  2  1  0
  2  3  1  0
  3  4  1  0
  4  5  2  0
  4  6  1  0
  6  7  2  0
  7  8  1  0
  8  9  2  0
  9 10  1  0
 10 11  2  0
  2 12  1  0
 12 13  2  0
 12 14  1  0
 11  6  1  0
M  END
>  <Title>  (502) 
idAARJgen6

$$$$

     RDKit          2D

  7  7  0  0  0  0  0  0  0  0999 V2000
    3.0000    0.0000    0.0000 O   0  0  0  0  0  0  0  0  0  0  0  0
    1.5000    0.0000    0.0000 C   0  0  0  0  0  0  0  0  0  0  0  0
    0.7500   -1.2990    0.0000 C   0  0  0  0  0  0  0  0  0  0  0  0
   -0.7500   -1.2990    0.0000 C   0  0  0  0  0  0  0  0  0  0  0  0
   -1.5000    0.0000    0.0000 C   0  0  0  0  0  0  0  0  0  0  0  0
   -0.7500    1.2990    0.0000 C   0  0  0  0  0  0  0  0  0  0  0  0
    0.7500    1.2990    0.0000 C   0  0  0  0  0  0  0  0  0  0  0  0
  1  2  1  0
  2  3  2  0
  3  4  1  0
  4  5  2  0
  5  6  1  0
  6  7  2  0
  7  2  1  0
M  END
>  <Title>  (503) 
idAARKgen6

$$$$

     RDKit          2D

 17 18  0  0  0  0  0  0  0  0999 V2000
    3.2286   -0.0000    0.0000 C   0  0  0  0  0  0  0  0  0  0  0  0
    1.7286    0.0000    0.0000 C   0  0  0  0  0  0  0  0  0  0  0  0
    1.0777    1.3515    0.0000 C   0  0  0  0  0  0  0  0  0  0  0  0
   -0.3846    1.6852    0.0000 C   0  0  0  0  0  0  0  0  0  0  0  0
   -1.5574    0.7500    0.0000 C   0  0  0  0  0  0  0  0  0  0  0  0
   -1.5574   -0.7500    0.0000 C   0  0  0  0  0  0  0  0  0  0  0  0
   -2.9088   -1.4008    0.0000 C   0  0  0  0  0  0  0  0  0  0  0  0
   -3.0209   -2.8966    0.0000 O   0  0  0  0  0  0  0  0  0  0  0  0
   -4.1482   -0.5558    0.0000 N   0  0  0  0  0  0  0  0  0  0  0  0
   -5.4997   -1.2067    0.0000 C   0  0  0  0  0  0  0  0  0  0  0  0
   -6.7390   -0.3617    0.0000 N   0  0  0  0  0  0  0  0  0  0  0  0
   -8.0905   -1.0125    0.0000 N   0  0  0  0  0  0  0  0  0  0  0  0
   -8.2026   -2.5083    0.0000 N   0  0  0  0  0  0  0  0  0  0  0  0
   -6.9632   -3.3533    0.0000 N   0  0  0  0  0  0  0  0  0  0  0  0
   -5.6118   -2.7025    0.0000 N   0  0  0  0  0  0  0  0  0  0  0  0
   -0.3846   -1.6852    0.0000 C   0  0  0  0  0  0  0  0  0  0  0  0
    1.0777   -1.3515    0.0000 C   0  0  0  0  0  0  0  0  0  0  0  0
  1  2  1  0
  2  3  2  0
  3  4  1  0
  4  5  1  0
  5  6  1  0
  6  7  1  0
  7  8  2  0
  7  9  1  0
  9 10  1  0
 10 11  2  0
 11 12  1  0
 12 13  2  0
 13 14  1  0
 14 15  2  0
  6 16  1  0
 16 17  1  0
 17  2  1  0
 15 10  1  0
M  END
>  <Title>  (504) 
idAARLgen6

$$$$

     RDKit          2D

 19 21  0  0  0  0  0  0  0  0999 V2000
   -2.5081   -6.0187    0.0000 C   0  0  0  0  0  0  0  0  0  0  0  0
   -1.0409   -5.7068    0.0000 C   0  0  0  0  0  0  0  0  0  0  0  0
   -0.0372   -6.8216    0.0000 O   0  0  0  0  0  0  0  0  0  0  0  0
   -0.5773   -4.2803    0.0000 C   0  0  0  0  0  0  0  0  0  0  0  0
   -1.5810   -3.1655    0.0000 O   0  0  0  0  0  0  0  0  0  0  0  0
    0.8899   -3.9684    0.0000 C   0  0  0  0  0  0  0  0  0  0  0  0
    2.0046   -4.9721    0.0000 C   0  0  0  0  0  0  0  0  0  0  0  0
    3.3037   -4.2221    0.0000 C   0  0  0  0  0  0  0  0  0  0  0  0
    2.9918   -2.7549    0.0000 C   0  0  0  0  0  0  0  0  0  0  0  0
    3.9955   -1.6402    0.0000 O   0  0  0  0  0  0  0  0  0  0  0  0
    1.5000   -2.5981    0.0000 C   0  0  0  0  0  0  0  0  0  0  0  0
    0.7500   -1.2990    0.0000 C   0  0  0  0  0  0  0  0  0  0  0  0
    1.5000    0.0000    0.0000 C   0  0  0  0  0  0  0  0  0  0  0  0
    0.7500    1.2990    0.0000 C   0  0  0  0  0  0  0  0  0  0  0  0
   -0.7500    1.2990    0.0000 C   0  0  0  0  0  0  0  0  0  0  0  0
   -2.2500    1.2990    0.0000 C   0  0  0  0  0  0  0  0  0  0  0  0
   -3.5490    2.0490    0.0000 O   0  0  0  0  0  0  0  0  0  0  0  0
   -1.5000    0.0000    0.0000 N   0  0  0  0  0  0  0  0  0  0  0  0
   -0.7500   -1.2990    0.0000 C   0  0  0  0  0  0  0  0  0  0  0  0
  1  2  1  0
  2  3  2  0
  2  4  1  0
  4  5  2  0
  4  6  1  0
  6  7  2  0
  7  8  1  0
  8  9  2  0
  9 10  1  0
  9 11  1  0
 11 12  1  0
 12 13  2  0
 13 14  1  0
 14 15  2  0
 15 16  1  0
 16 17  2  0
 16 18  1  0
 18 19  1  0
 11  6  1  0
 19 12  1  0
 18 15  1  0
M  END
>  <Title>  (505) 
idAARMgen6

$$$$

     RDKit          2D

 41 45  0  0  0  0  0  0  0  0999 V2000
    6.1771   -1.2990    0.0000 C   0  0  0  0  0  0  0  0  0  0  0  0
    4.6771   -1.2990    0.0000 C   0  0  0  0  0  0  0  0  0  0  0  0
    3.9271   -2.5981    0.0000 O   0  0  0  0  0  0  0  0  0  0  0  0
    3.9271    0.0000    0.0000 C   0  0  0  0  0  0  0  0  0  0  0  0
    4.6771    1.2990    0.0000 O   0  0  0  0  0  0  0  0  0  0  0  0
    2.4271    0.0000    0.0000 C   0  0  0  0  0  0  0  0  0  0  0  0
    1.9635   -1.4266    0.0000 C   0  0  0  0  0  0  0  0  0  0  0  0
    0.7500   -2.3083    0.0000 C   0  0  0  0  0  0  0  0  0  0  0  0
   -0.7500   -2.3083    0.0000 C   0  0  0  0  0  0  0  0  0  0  0  0
   -1.2135   -0.8817    0.0000 C   0  0  0  0  0  0  0  0  0  0  0  0
   -2.7135   -0.8817    0.0000 O   0  0  0  0  0  0  0  0  0  0  0  0
   -0.7500    0.5449    0.0000 N   0  0  0  0  0  0  0  0  0  0  0  0
    0.4635    1.4266    0.0000 C   0  0  0  0  0  0  0  0  0  0  0  0
    0.0000    2.8532    0.0000 O   0  0  0  0  0  0  0  0  0  0  0  0
    1.9635    1.4266    0.0000 C   0  0  0  0  0  0  0  0  0  0  0  0
    0.7500    2.3083    0.0000 C   0  0  0  0  0  0  0  0  0  0  0  0
   -0.7500    2.3083    0.0000 C   0  0  0  0  0  0  0  0  0  0  0  0
   -1.9635    1.4266    0.0000 C   0  0  0  0  0  0  0  0  0  0  0  0
   -2.4271    0.0000    0.0000 C   0  0  0  0  0  0  0  0  0  0  0  0
   -1.9635   -1.4266    0.0000 C   0  0  0  0  0  0  0  0  0  0  0  0
   -3.1771   -2.3083    0.0000 C   0  0  0  0  0  0  0  0  0  0  0  0
   -4.5474   -1.6982    0.0000 C   0  0  0  0  0  0  0  0  0  0  0  0
   -5.7609   -2.5798    0.0000 C   0  0  0  0  0  0  0  0  0  0  0  0
   -5.6041   -4.0716    0.0000 C   0  0  0  0  0  0  0  0  0  0  0  0
   -4.2338   -4.6817    0.0000 C   0  0  0  0  0  0  0  0  0  0  0  0
   -3.0203   -3.8000    0.0000 C   0  0  0  0  0  0  0  0  0  0  0  0
   -1.6499   -4.4102    0.0000 C   0  0  0  0  0  0  0  0  0  0  0  0
   -0.4364   -3.5285    0.0000 C   0  0  0  0  0  0  0  0  0  0  0  0
    0.9339   -4.1386    0.0000 C   0  0  0  0  0  0  0  0  0  0  0  0
    1.0907   -5.6304    0.0000 C   0  0  0  0  0  0  0  0  0  0  0  0
    2.4610   -6.2405    0.0000 C   0  0  0  0  0  0  0  0  0  0  0  0
   -0.1228   -6.5120    0.0000 C   0  0  0  0  0  0  0  0  0  0  0  0
   -1.4931   -5.9019    0.0000 C   0  0  0  0  0  0  0  0  0  0  0  0
   -2.7067   -6.7836    0.0000 C   0  0  0  0  0  0  0  0  0  0  0  0
   -2.5499   -8.2754    0.0000 C   0  0  0  0  0  0  0  0  0  0  0  0
   -3.7634   -9.1571    0.0000 C   0  0  0  0  0  0  0  0  0  0  0  0
   -3.6066  -10.6489    0.0000 C   0  0  0  0  0  0  0  0  0  0  0  0
   -4.8201  -11.5305    0.0000 C   0  0  0  0  0  0  0  0  0  0  0  0
   -4.6633  -13.0223    0.0000 C   0  0  0  0  0  0  0  0  0  0  0  0
   -5.2735  -14.3926    0.0000 C   0  0  0  0  0  0  0  0  0  0  0  0
   -3.7817  -14.2358    0.0000 C   0  0  0  0  0  0  0  0  0  0  0  0
  1  2  1  0
  2  3  2  0
  2  4  1  0
  4  5  2  0
  4  6  1  0
  6  7  1  0
  7  8  1  0
  8  9  1  0
  9 10  1  0
 10 11  2  0
 10 12  1  0
 12 13  1  0
 13 14  2  0
 13 15  1  0
 15 16  2  0
 16 17  1  0
 17 18  2  0
 18 19  1  0
 19 20  2  0
 20 21  1  0
 21 22  2  0
 22 23  1  0
 23 24  2  0
 24 25  1  0
 25 26  2  0
 26 27  1  0
 27 28  2  0
 28 29  1  0
 29 30  2  0
 30 31  1  0
 30 32  1  0
 32 33  2  0
 33 34  1  0
 34 35  2  3
 35 36  1  0
 36 37  2  3
 37 38  1  0
 38 39  2  3
 39 40  1  0
 40 41  1  0
 15  6  1  0
 26 21  1  0
 33 27  1  0
 41 39  1  0
 20  9  1  0
M  END
>  <Title>  (506) 
idAARNgen6

$$$$

     RDKit          2D

 34 37  0  0  0  0  0  0  0  0999 V2000
    3.0000    0.0000    0.0000 C   0  0  0  0  0  0  0  0  0  0  0  0
    1.5000    0.0000    0.0000 C   0  0  0  0  0  0  0  0  0  0  0  0
    0.7500   -1.2990    0.0000 C   0  0  0  0  0  0  0  0  0  0  0  0
   -0.7500   -1.2990    0.0000 C   0  0  0  0  0  0  0  0  0  0  0  0
   -1.5000    0.0000    0.0000 C   0  0  0  0  0  0  0  0  0  0  0  0
   -3.0000    0.0000    0.0000 C   0  0  0  0  0  0  0  0  0  0  0  0
   -3.7500   -1.2990    0.0000 O   0  0  0  0  0  0  0  0  0  0  0  0
   -3.7500    1.2990    0.0000 N   0  0  0  0  0  0  0  0  0  0  0  0
   -5.2500    1.2990    0.0000 C   0  0  0  0  0  0  0  0  0  0  0  0
   -6.1317    0.0855    0.0000 N   0  0  0  0  0  0  0  0  0  0  0  0
   -7.5583    0.5490    0.0000 N   0  0  0  0  0  0  0  0  0  0  0  0
   -7.5583    2.0490    0.0000 N   0  0  0  0  0  0  0  0  0  0  0  0
   -6.1317    2.5126    0.0000 N   0  0  0  0  0  0  0  0  0  0  0  0
   -5.6682    3.9391    0.0000 C   0  0  0  0  0  0  0  0  0  0  0  0
   -6.5498    5.1527    0.0000 C   0  0  0  0  0  0  0  0  0  0  0  0
   -5.6682    6.3662    0.0000 C   0  0  0  0  0  0  0  0  0  0  0  0
   -4.2416    5.9027    0.0000 C   0  0  0  0  0  0  0  0  0  0  0  0
   -3.0280    6.7844    0.0000 C   0  0  0  0  0  0  0  0  0  0  0  0
   -1.6577    6.1742    0.0000 O   0  0  0  0  0  0  0  0  0  0  0  0
   -0.4442    7.0559    0.0000 C   0  0  0  0  0  0  0  0  0  0  0  0
   -0.6010    8.5477    0.0000 O   0  0  0  0  0  0  0  0  0  0  0  0
    0.9261    6.4458    0.0000 O   0  0  0  0  0  0  0  0  0  0  0  0
    2.1396    7.3275    0.0000 C   0  0  0  0  0  0  0  0  0  0  0  0
    3.5100    6.7174    0.0000 C   0  0  0  0  0  0  0  0  0  0  0  0
    4.7235    7.5991    0.0000 C   0  0  0  0  0  0  0  0  0  0  0  0
    4.5667    9.0909    0.0000 C   0  0  0  0  0  0  0  0  0  0  0  0
    5.7802    9.9725    0.0000 C   0  0  0  0  0  0  0  0  0  0  0  0
    6.9937   10.8542    0.0000 N   0  0  0  0  0  0  0  0  0  0  0  0
    3.1964    9.7010    0.0000 C   0  0  0  0  0  0  0  0  0  0  0  0
    1.9829    8.8193    0.0000 N   0  0  0  0  0  0  0  0  0  0  0  0
   -4.2416    4.4027    0.0000 C   0  0  0  0  0  0  0  0  0  0  0  0
   -3.0280    3.5210    0.0000 O   0  0  0  0  0  0  0  0  0  0  0  0
   -0.7500    1.2990    0.0000 C   0  0  0  0  0  0  0  0  0  0  0  0
    0.7500    1.2990    0.0000 C   0  0  0  0  0  0  0  0  0  0  0  0
  1  2  1  0
  2  3  1  0
  3  4  2  0
  4  5  1  0
  5  6  1  0
  6  7  2  0
  6  8  1  0
  8  9  1  0
  9 10  2  0
 10 11  1  0
 11 12  2  0
 12 13  1  0
 13 14  1  0
 14 15  2  0
 15 16  1  0
 16 17  2  0
 17 18  1  0
 18 19  1  0
 19 20  1  0
 20 21  2  0
 20 22  1  0
 22 23  1  0
 23 24  2  0
 24 25  1  0
 25 26  2  0
 26 27  1  0
 27 28  3  0
 26 29  1  0
 29 30  2  0
 17 31  1  0
 31 32  2  0
  5 33  1  0
 33 34  1  0
 34  2  1  0
 13  9  1  0
 31 14  1  0
 30 23  1  0
M  END
>  <Title>  (507) 
idAAROgen6

$$$$

     RDKit          2D

 37 40  0  0  0  0  0  0  0  0999 V2000
   -2.8576   -0.4261    0.0000 C   0  0  0  0  0  0  0  0  0  0  0  0
   -2.1766   -1.7626    0.0000 C   0  0  0  0  0  0  0  0  0  0  0  0
   -3.3901   -2.6442    0.0000 C   0  0  0  0  0  0  0  0  0  0  0  0
   -4.2718   -3.8578    0.0000 C   0  0  0  0  0  0  0  0  0  0  0  0
   -4.7353   -5.2844    0.0000 C   0  0  0  0  0  0  0  0  0  0  0  0
   -4.7353   -6.7844    0.0000 C   0  0  0  0  0  0  0  0  0  0  0  0
   -4.2718   -8.2109    0.0000 C   0  0  0  0  0  0  0  0  0  0  0  0
   -3.3901   -9.4245    0.0000 C   0  0  0  0  0  0  0  0  0  0  0  0
   -2.1766  -10.3061    0.0000 C   0  0  0  0  0  0  0  0  0  0  0  0
   -0.7500  -10.7697    0.0000 C   0  0  0  0  0  0  0  0  0  0  0  0
    0.7500  -10.7697    0.0000 C   0  0  0  0  0  0  0  0  0  0  0  0
    2.1766  -10.3061    0.0000 C   0  0  0  0  0  0  0  0  0  0  0  0
    3.3901   -9.4245    0.0000 C   0  0  0  0  0  0  0  0  0  0  0  0
    4.2718   -8.2109    0.0000 C   0  0  0  0  0  0  0  0  0  0  0  0
    4.7353   -6.7844    0.0000 C   0  0  0  0  0  0  0  0  0  0  0  0
    4.7353   -5.2844    0.0000 C   0  0  0  0  0  0  0  0  0  0  0  0
    4.2718   -3.8578    0.0000 C   0  0  0  0  0  0  0  0  0  0  0  0
    3.3901   -2.6442    0.0000 C   0  0  0  0  0  0  0  0  0  0  0  0
    2.1766   -1.7626    0.0000 C   0  0  0  0  0  0  0  0  0  0  0  0
    1.5583   -4.4761    0.0000 N   0  0  0  0  0  0  0  0  0  0  0  0
    1.0947   -5.9027    0.0000 C   0  0  0  0  0  0  0  0  0  0  0  0
   -0.4053   -5.9027    0.0000 O   0  0  0  0  0  0  0  0  0  0  0  0
    1.5583   -7.3293    0.0000 C   0  0  0  0  0  0  0  0  0  0  0  0
    0.3447   -8.2109    0.0000 C   0  0  0  0  0  0  0  0  0  0  0  0
   -1.0256   -7.6008    0.0000 C   0  0  0  0  0  0  0  0  0  0  0  0
   -1.1824   -6.1090    0.0000 C   0  0  0  0  0  0  0  0  0  0  0  0
   -2.5527   -5.4989    0.0000 N   0  0  0  0  0  0  0  0  0  0  0  0
   -3.7662   -6.3806    0.0000 N   0  0  0  0  0  0  0  0  0  0  0  0
   -3.6094   -7.8724    0.0000 N   0  0  0  0  0  0  0  0  0  0  0  0
   -2.2391   -8.4825    0.0000 N   0  0  0  0  0  0  0  0  0  0  0  0
    2.7718   -8.2109    0.0000 O   0  0  0  0  0  0  0  0  0  0  0  0
    0.7500   -1.2990    0.0000 C   0  0  0  0  0  0  0  0  0  0  0  0
    1.5000    0.0000    0.0000 C   0  0  0  0  0  0  0  0  0  0  0  0
    0.7500    1.2990    0.0000 C   0  0  0  0  0  0  0  0  0  0  0  0
   -0.7500    1.2990    0.0000 C   0  0  0  0  0  0  0  0  0  0  0  0
   -1.5000    0.0000    0.0000 C   0  0  0  0  0  0  0  0  0  0  0  0
   -0.7500   -1.2990    0.0000 C   0  0  0  0  0  0  0  0  0  0  0  0
  1  2  1  0
  2  3  1  0
  3  4  1  0
  4  5  1  0
  5  6  1  0
  6  7  1  0
  7  8  1  0
  8  9  1  0
  9 10  1  0
 10 11  1  0
 11 12  1  0
 12 13  1  0
 13 14  1  0
 14 15  1  0
 15 16  1  0
 16 17  1  0
 17 18  1  0
 18 19  1  0
 19 20  1  0
 20 21  1  0
 21 22  2  0
 21 23  1  0
 23 24  1  0
 24 25  1  0
 25 26  2  0
 26 27  1  0
 27 28  2  0
 28 29  1  0
 29 30  2  0
 23 31  1  0
 19 32  1  0
 32 33  2  0
 33 34  1  0
 34 35  2  0
 35 36  1  0
 36 37  2  0
 37  2  1  0
 31 14  1  0
 37 32  1  0
 30 25  1  0
M  END
>  <Title>  (508) 
idAARPgen6

$$$$

     RDKit          2D

 14 15  0  0  0  0  0  0  0  0999 V2000
   -0.7500   -3.8971    0.0000 O   0  0  0  0  0  0  0  0  0  0  0  0
    0.7500   -3.8971    0.0000 C   0  0  0  0  0  0  0  0  0  0  0  0
    1.5000   -2.5981    0.0000 N   0  0  0  0  0  0  0  0  0  0  0  0
    0.7500   -1.2990    0.0000 C   0  0  0  0  0  0  0  0  0  0  0  0
    1.5000    0.0000    0.0000 C   0  0  0  0  0  0  0  0  0  0  0  0
    0.7500    1.2990    0.0000 C   0  0  0  0  0  0  0  0  0  0  0  0
   -0.7500    1.2990    0.0000 C   0  0  0  0  0  0  0  0  0  0  0  0
   -1.5000    0.0000    0.0000 C   0  0  0  0  0  0  0  0  0  0  0  0
   -0.7500   -1.2990    0.0000 C   0  0  0  0  0  0  0  0  0  0  0  0
    1.5000   -5.1962    0.0000 C   0  0  0  0  0  0  0  0  0  0  0  0
    2.9918   -5.3529    0.0000 C   0  0  0  0  0  0  0  0  0  0  0  0
    3.3037   -6.8202    0.0000 C   0  0  0  0  0  0  0  0  0  0  0  0
    2.0046   -7.5702    0.0000 C   0  0  0  0  0  0  0  0  0  0  0  0
    0.8899   -6.5665    0.0000 C   0  0  0  0  0  0  0  0  0  0  0  0
  1  2  2  0
  2  3  1  0
  3  4  1  0
  4  5  2  0
  5  6  1  0
  6  7  2  0
  7  8  1  0
  8  9  2  0
  2 10  1  0
 10 11  2  0
 11 12  1  0
 12 13  2  0
 13 14  1  0
  9  4  1  0
 14 10  1  0
M  END
>  <Title>  (509) 
idAARQgen6

$$$$

     RDKit          2D

 26 29  0  0  0  0  0  0  0  0999 V2000
   -5.7093    1.5583    0.0000 C   0  0  0  0  0  0  0  0  0  0  0  0
   -4.2093    1.5583    0.0000 C   0  0  0  0  0  0  0  0  0  0  0  0
   -3.7458    2.9848    0.0000 C   0  0  0  0  0  0  0  0  0  0  0  0
   -2.5323    3.8665    0.0000 C   0  0  0  0  0  0  0  0  0  0  0  0
   -1.0323    3.8665    0.0000 C   0  0  0  0  0  0  0  0  0  0  0  0
   -0.5688    5.2931    0.0000 N   0  0  0  0  0  0  0  0  0  0  0  0
    0.8985    5.6050    0.0000 C   0  0  0  0  0  0  0  0  0  0  0  0
    1.3620    7.0316    0.0000 C   0  0  0  0  0  0  0  0  0  0  0  0
    0.3583    8.1463    0.0000 C   0  0  0  0  0  0  0  0  0  0  0  0
    0.8218    9.5729    0.0000 C   0  0  0  0  0  0  0  0  0  0  0  0
    2.2890    9.8847    0.0000 C   0  0  0  0  0  0  0  0  0  0  0  0
    2.7526   11.3113    0.0000 C   0  0  0  0  0  0  0  0  0  0  0  0
    1.7489   12.4260    0.0000 C   0  0  0  0  0  0  0  0  0  0  0  0
    0.2816   12.1142    0.0000 C   0  0  0  0  0  0  0  0  0  0  0  0
   -0.1819   10.6876    0.0000 C   0  0  0  0  0  0  0  0  0  0  0  0
   -1.1089    7.8344    0.0000 C   0  0  0  0  0  0  0  0  0  0  0  0
   -1.5725    6.4078    0.0000 C   0  0  0  0  0  0  0  0  0  0  0  0
    0.1812    2.9848    0.0000 C   0  0  0  0  0  0  0  0  0  0  0  0
    0.3943    1.2135    0.0000 C   0  0  0  0  0  0  0  0  0  0  0  0
    1.2760    0.0000    0.0000 C   0  0  0  0  0  0  0  0  0  0  0  0
    0.3943   -1.2135    0.0000 C   0  0  0  0  0  0  0  0  0  0  0  0
   -1.0323   -0.7500    0.0000 N   0  0  0  0  0  0  0  0  0  0  0  0
   -2.5323   -0.7500    0.0000 C   0  0  0  0  0  0  0  0  0  0  0  0
   -3.7458    0.1317    0.0000 C   0  0  0  0  0  0  0  0  0  0  0  0
   -1.0323    0.7500    0.0000 C   0  0  0  0  0  0  0  0  0  0  0  0
   -2.2458    1.6317    0.0000 O   0  0  0  0  0  0  0  0  0  0  0  0
  1  2  1  0
  2  3  2  0
  3  4  1  0
  4  5  2  0
  5  6  1  0
  6  7  1  0
  7  8  1  0
  8  9  1  0
  9 10  1  0
 10 11  2  0
 11 12  1  0
 12 13  2  0
 13 14  1  0
 14 15  2  0
  9 16  1  0
 16 17  1  0
  5 18  1  0
 18 19  1  0
 19 20  1  0
 20 21  1  0
 21 22  1  0
 22 23  1  0
 23 24  1  0
 22 25  1  0
 25 26  2  0
 24  2  1  0
 17  6  1  0
 25 19  1  0
 15 10  1  0
M  END
>  <Title>  (510) 
idAARRgen6

$$$$

     RDKit          2D

 39 42  0  0  0  0  0  0  0  0999 V2000
   13.6902    0.0854    0.0000 C   0  0  0  0  0  0  0  0  0  0  0  0
   12.2087   -0.1492    0.0000 C   0  0  0  0  0  0  0  0  0  0  0  0
   11.1480    0.9114    0.0000 C   0  0  0  0  0  0  0  0  0  0  0  0
    9.8115    0.2305    0.0000 C   0  0  0  0  0  0  0  0  0  0  0  0
   10.0462   -1.2511    0.0000 C   0  0  0  0  0  0  0  0  0  0  0  0
    8.9855   -2.3117    0.0000 C   0  0  0  0  0  0  0  0  0  0  0  0
    9.3737   -3.7606    0.0000 O   0  0  0  0  0  0  0  0  0  0  0  0
    7.5366   -1.9235    0.0000 N   0  0  0  0  0  0  0  0  0  0  0  0
    6.4760   -2.9842    0.0000 C   0  0  0  0  0  0  0  0  0  0  0  0
    7.3363   -4.2129    0.0000 C   0  0  0  0  0  0  0  0  0  0  0  0
    7.7246   -5.6618    0.0000 C   0  0  0  0  0  0  0  0  0  0  0  0
    7.5938   -7.1561    0.0000 C   0  0  0  0  0  0  0  0  0  0  0  0
    6.9599   -8.5155    0.0000 C   0  0  0  0  0  0  0  0  0  0  0  0
    5.8992   -9.5762    0.0000 C   0  0  0  0  0  0  0  0  0  0  0  0
    4.5398  -10.2101    0.0000 C   0  0  0  0  0  0  0  0  0  0  0  0
    3.0455  -10.3409    0.0000 C   0  0  0  0  0  0  0  0  0  0  0  0
    1.5966   -9.9526    0.0000 C   0  0  0  0  0  0  0  0  0  0  0  0
    0.3679   -9.0923    0.0000 C   0  0  0  0  0  0  0  0  0  0  0  0
   -0.4925   -7.8635    0.0000 C   0  0  0  0  0  0  0  0  0  0  0  0
   -1.8520   -8.4975    0.0000 C   0  0  0  0  0  0  0  0  0  0  0  0
   -0.8807   -6.4147    0.0000 C   0  0  0  0  0  0  0  0  0  0  0  0
   -0.7500   -4.9204    0.0000 C   0  0  0  0  0  0  0  0  0  0  0  0
    0.7500   -4.9204    0.0000 C   0  0  0  0  0  0  0  0  0  0  0  0
    1.8107   -3.8597    0.0000 C   0  0  0  0  0  0  0  0  0  0  0  0
    1.8107   -2.3597    0.0000 C   0  0  0  0  0  0  0  0  0  0  0  0
    3.7983   -1.7356    0.0000 O   0  0  0  0  0  0  0  0  0  0  0  0
    5.2472   -2.1238    0.0000 C   0  0  0  0  0  0  0  0  0  0  0  0
    5.8812   -0.7643    0.0000 O   0  0  0  0  0  0  0  0  0  0  0  0
    0.7500   -1.2990    0.0000 C   0  0  0  0  0  0  0  0  0  0  0  0
    1.5000    0.0000    0.0000 C   0  0  0  0  0  0  0  0  0  0  0  0
    0.7500    1.2990    0.0000 C   0  0  0  0  0  0  0  0  0  0  0  0
   -0.7500    1.2990    0.0000 C   0  0  0  0  0  0  0  0  0  0  0  0
   -1.5000    0.0000    0.0000 C   0  0  0  0  0  0  0  0  0  0  0  0
   -0.7500   -1.2990    0.0000 C   0  0  0  0  0  0  0  0  0  0  0  0
   -1.8107   -2.3597    0.0000 N   0  0  0  0  0  0  0  0  0  0  0  0
   -1.8107   -3.8597    0.0000 C   0  0  0  0  0  0  0  0  0  0  0  0
   -3.1965   -4.4337    0.0000 O   0  0  0  0  0  0  0  0  0  0  0  0
   11.5277   -1.4857    0.0000 C   0  0  0  0  0  0  0  0  0  0  0  0
   12.2087   -2.8222    0.0000 O   0  0  0  0  0  0  0  0  0  0  0  0
  1  2  1  0
  2  3  2  0
  3  4  1  0
  4  5  2  0
  5  6  1  0
  6  7  2  0
  6  8  1  0
  8  9  1  0
  9 10  1  0
 10 11  1  0
 11 12  1  0
 12 13  1  0
 13 14  1  0
 14 15  1  0
 15 16  1  0
 16 17  1  0
 17 18  1  0
 18 19  1  0
 19 20  1  0
 19 21  1  0
 21 22  1  0
 22 23  2  0
 23 24  1  0
 24 25  2  0
 25 26  1  0
 26 27  1  0
 27 28  2  0
 25 29  1  0
 29 30  2  0
 30 31  1  0
 31 32  2  0
 32 33  1  0
 33 34  2  0
 34 35  1  0
 35 36  1  0
 36 37  2  0
  5 38  1  0
 38 39  2  0
 38  2  1  0
 27  9  1  0
 34 29  1  0
 36 22  1  0
M  END
>  <Title>  (511) 
idAARSgen6

$$$$

     RDKit          2D

 23 26  0  0  0  0  0  0  0  0999 V2000
   -4.3865   -3.5206    0.0000 C   0  0  0  0  0  0  0  0  0  0  0  0
   -3.1965   -4.4337    0.0000 O   0  0  0  0  0  0  0  0  0  0  0  0
   -1.8107   -3.8597    0.0000 C   0  0  0  0  0  0  0  0  0  0  0  0
   -0.7500   -4.9204    0.0000 C   0  0  0  0  0  0  0  0  0  0  0  0
    0.7500   -4.9204    0.0000 C   0  0  0  0  0  0  0  0  0  0  0  0
    1.8107   -3.8597    0.0000 C   0  0  0  0  0  0  0  0  0  0  0  0
    1.8107   -2.3597    0.0000 C   0  0  0  0  0  0  0  0  0  0  0  0
    3.1965   -1.7857    0.0000 C   0  0  0  0  0  0  0  0  0  0  0  0
    3.5466   -0.3271    0.0000 N   0  0  0  0  0  0  0  0  0  0  0  0
    5.0420   -0.2094    0.0000 N   0  0  0  0  0  0  0  0  0  0  0  0
    5.6160   -1.5952    0.0000 N   0  0  0  0  0  0  0  0  0  0  0  0
    4.4754   -2.5694    0.0000 N   0  0  0  0  0  0  0  0  0  0  0  0
    4.5931   -4.0648    0.0000 C   0  0  0  0  0  0  0  0  0  0  0  0
    3.6190   -5.2054    0.0000 C   0  0  0  0  0  0  0  0  0  0  0  0
    4.7596   -6.1796    0.0000 C   0  0  0  0  0  0  0  0  0  0  0  0
    5.7337   -5.0390    0.0000 C   0  0  0  0  0  0  0  0  0  0  0  0
    0.7500   -1.2990    0.0000 C   0  0  0  0  0  0  0  0  0  0  0  0
    1.5000    0.0000    0.0000 C   0  0  0  0  0  0  0  0  0  0  0  0
    0.7500    1.2990    0.0000 C   0  0  0  0  0  0  0  0  0  0  0  0
   -0.7500    1.2990    0.0000 C   0  0  0  0  0  0  0  0  0  0  0  0
   -1.5000    0.0000    0.0000 C   0  0  0  0  0  0  0  0  0  0  0  0
   -0.7500   -1.2990    0.0000 C   0  0  0  0  0  0  0  0  0  0  0  0
   -1.8107   -2.3597    0.0000 C   0  0  0  0  0  0  0  0  0  0  0  0
  1  2  1  0
  2  3  1  0
  3  4  2  0
  4  5  1  0
  5  6  2  0
  6  7  1  0
  7  8  1  0
  8  9  2  0
  9 10  1  0
 10 11  2  0
 11 12  1  0
 12 13  1  0
 13 14  1  0
 14 15  1  0
 15 16  1  0
  7 17  1  0
 17 18  2  0
 18 19  1  0
 19 20  2  0
 20 21  1  0
 21 22  2  0
 22 23  1  0
 23  3  1  0
 12  8  1  0
 16 13  1  0
 22 17  1  0
M  END
>  <Title>  (512) 
idAARTgen6

$$$$

     RDKit          2D

 12 13  0  0  0  0  0  0  0  0999 V2000
    3.8173   -0.5402    0.0000 C   0  0  0  0  0  0  0  0  0  0  0  0
    2.3907   -1.0037    0.0000 O   0  0  0  0  0  0  0  0  0  0  0  0
    1.2760    0.0000    0.0000 C   0  0  0  0  0  0  0  0  0  0  0  0
    2.3907    1.0037    0.0000 C   0  0  0  0  0  0  0  0  0  0  0  0
    0.3943    1.2135    0.0000 C   0  0  0  0  0  0  0  0  0  0  0  0
   -1.0323    0.7500    0.0000 C   0  0  0  0  0  0  0  0  0  0  0  0
   -1.0323   -0.7500    0.0000 C   0  0  0  0  0  0  0  0  0  0  0  0
   -1.9140   -1.9635    0.0000 C   0  0  0  0  0  0  0  0  0  0  0  0
   -1.0323   -3.1771    0.0000 C   0  0  0  0  0  0  0  0  0  0  0  0
    0.3943   -2.7135    0.0000 C   0  0  0  0  0  0  0  0  0  0  0  0
    1.6078   -3.5952    0.0000 O   0  0  0  0  0  0  0  0  0  0  0  0
    0.3943   -1.2135    0.0000 N   0  0  0  0  0  0  0  0  0  0  0  0
  1  2  1  0
  2  3  1  0
  3  4  1  0
  3  5  1  0
  5  6  1  0
  6  7  1  0
  7  8  2  0
  8  9  1  0
  9 10  2  0
 10 11  1  0
 10 12  1  0
 12  3  1  0
 12  7  1  0
M  END
>  <Title>  (513) 
idAARUgen6

$$$$

     RDKit          2D

 20 22  0  0  0  0  0  0  0  0999 V2000
    5.5863    4.4350    0.0000 C   0  0  0  0  0  0  0  0  0  0  0  0
    4.1481    4.0090    0.0000 C   0  0  0  0  0  0  0  0  0  0  0  0
    3.0601    5.0415    0.0000 C   0  0  0  0  0  0  0  0  0  0  0  0
    1.6218    4.6155    0.0000 C   0  0  0  0  0  0  0  0  0  0  0  0
    1.0236    3.2165    0.0000 C   0  0  0  0  0  0  0  0  0  0  0  0
    2.5190    3.3342    0.0000 C   0  0  0  0  0  0  0  0  0  0  0  0
    2.5094    4.4276    0.0000 O   0  0  0  0  0  0  0  0  0  0  0  0
    3.7979    2.5504    0.0000 N   0  0  0  0  0  0  0  0  0  0  0  0
    4.3720    1.1646    0.0000 C   0  0  0  0  0  0  0  0  0  0  0  0
    4.0218   -0.2940    0.0000 C   0  0  0  0  0  0  0  0  0  0  0  0
    2.8812   -1.2681    0.0000 C   0  0  0  0  0  0  0  0  0  0  0  0
    3.4552   -2.6539    0.0000 O   0  0  0  0  0  0  0  0  0  0  0  0
    1.3858   -1.3858    0.0000 N   0  0  0  0  0  0  0  0  0  0  0  0
    1.9598    0.0000    0.0000 C   0  0  0  0  0  0  0  0  0  0  0  0
    1.3858    1.3858    0.0000 C   0  0  0  0  0  0  0  0  0  0  0  0
    0.0000    1.9598    0.0000 C   0  0  0  0  0  0  0  0  0  0  0  0
   -1.3858    1.3858    0.0000 C   0  0  0  0  0  0  0  0  0  0  0  0
   -1.9598    0.0000    0.0000 C   0  0  0  0  0  0  0  0  0  0  0  0
   -1.3858   -1.3858    0.0000 C   0  0  0  0  0  0  0  0  0  0  0  0
   -0.0000   -1.9598    0.0000 C   0  0  0  0  0  0  0  0  0  0  0  0
  1  2  1  0
  2  3  1  0
  3  4  1  0
  4  5  1  0
  5  6  1  0
  6  7  2  0
  6  8  1  0
  8  9  1  0
  9 10  1  0
 10 11  1  0
 11 12  2  0
 11 13  1  0
 13 14  1  0
 14 15  2  0
 15 16  1  0
 16 17  2  0
 17 18  1  0
 18 19  2  0
 19 20  1  0
  8  2  1  0
 20 13  1  0
 16  5  1  0
M  END
>  <Title>  (514) 
idAARVgen6

$$$$

     RDKit          2D

 11 11  0  0  0  0  0  0  0  0999 V2000
    2.7760    0.0000    0.0000 C   0  0  0  0  0  0  0  0  0  0  0  0
    1.2760    0.0000    0.0000 C   0  0  0  0  0  0  0  0  0  0  0  0
    0.3943    1.2135    0.0000 C   0  0  0  0  0  0  0  0  0  0  0  0
   -1.0323    0.7500    0.0000 C   0  0  0  0  0  0  0  0  0  0  0  0
   -1.0323   -0.7500    0.0000 C   0  0  0  0  0  0  0  0  0  0  0  0
   -2.2458   -1.6317    0.0000 C   0  0  0  0  0  0  0  0  0  0  0  0
   -2.0890   -3.1235    0.0000 O   0  0  0  0  0  0  0  0  0  0  0  0
   -3.6161   -1.0216    0.0000 N   0  0  0  0  0  0  0  0  0  0  0  0
   -4.8297   -1.9033    0.0000 C   0  0  0  0  0  0  0  0  0  0  0  0
   -3.7729    0.4702    0.0000 C   0  0  0  0  0  0  0  0  0  0  0  0
    0.3943   -1.2135    0.0000 C   0  0  0  0  0  0  0  0  0  0  0  0
  1  2  1  0
  2  3  1  0
  3  4  1  0
  4  5  1  0
  5  6  1  0
  6  7  2  0
  6  8  1  0
  8  9  1  0
  8 10  1  0
  5 11  1  0
 11  2  1  0
M  END
>  <Title>  (515) 
idAARWgen6

$$$$

     RDKit          2D

 49 56  0  0  0  0  0  0  0  0999 V2000
   14.8394   -9.9372    0.0000 C   0  0  0  0  0  0  0  0  0  0  0  0
   14.9962   -8.4454    0.0000 O   0  0  0  0  0  0  0  0  0  0  0  0
   13.7827   -7.5637    0.0000 C   0  0  0  0  0  0  0  0  0  0  0  0
   12.4124   -8.1738    0.0000 C   0  0  0  0  0  0  0  0  0  0  0  0
   11.1988   -7.2921    0.0000 C   0  0  0  0  0  0  0  0  0  0  0  0
   11.3556   -5.8004    0.0000 C   0  0  0  0  0  0  0  0  0  0  0  0
   10.1421   -4.9187    0.0000 C   0  0  0  0  0  0  0  0  0  0  0  0
   10.2989   -3.4269    0.0000 O   0  0  0  0  0  0  0  0  0  0  0  0
    8.7718   -5.5288    0.0000 N   0  0  0  0  0  0  0  0  0  0  0  0
    7.5583   -4.6471    0.0000 C   0  0  0  0  0  0  0  0  0  0  0  0
    7.5583   -3.1471    0.0000 N   0  0  0  0  0  0  0  0  0  0  0  0
    6.1317   -2.6836    0.0000 N   0  0  0  0  0  0  0  0  0  0  0  0
    5.2500   -3.8971    0.0000 N   0  0  0  0  0  0  0  0  0  0  0  0
    6.1317   -5.1106    0.0000 N   0  0  0  0  0  0  0  0  0  0  0  0
    5.6682   -6.5372    0.0000 N   0  0  0  0  0  0  0  0  0  0  0  0
    6.5498   -7.7508    0.0000 C   0  0  0  0  0  0  0  0  0  0  0  0
    5.6682   -8.9643    0.0000 C   0  0  0  0  0  0  0  0  0  0  0  0
    4.2416   -8.5008    0.0000 C   0  0  0  0  0  0  0  0  0  0  0  0
    4.2416   -7.0008    0.0000 C   0  0  0  0  0  0  0  0  0  0  0  0
    3.0280   -6.1191    0.0000 C   0  0  0  0  0  0  0  0  0  0  0  0
    3.1848   -4.6273    0.0000 C   0  0  0  0  0  0  0  0  0  0  0  0
    1.9713   -3.7456    0.0000 C   0  0  0  0  0  0  0  0  0  0  0  0
    0.6010   -4.3557    0.0000 C   0  0  0  0  0  0  0  0  0  0  0  0
    0.4442   -5.8475    0.0000 C   0  0  0  0  0  0  0  0  0  0  0  0
    1.6577   -6.7292    0.0000 C   0  0  0  0  0  0  0  0  0  0  0  0
    1.5009   -8.2210    0.0000 C   0  0  0  0  0  0  0  0  0  0  0  0
    2.7145   -9.1026    0.0000 C   0  0  0  0  0  0  0  0  0  0  0  0
    2.5577  -10.5944    0.0000 C   0  0  0  0  0  0  0  0  0  0  0  0
    1.1873  -11.2045    0.0000 C   0  0  0  0  0  0  0  0  0  0  0  0
   -0.0262  -10.3228    0.0000 C   0  0  0  0  0  0  0  0  0  0  0  0
    0.1306   -8.8311    0.0000 C   0  0  0  0  0  0  0  0  0  0  0  0
   -1.0829   -7.9494    0.0000 C   0  0  0  0  0  0  0  0  0  0  0  0
   -0.9261   -6.4576    0.0000 C   0  0  0  0  0  0  0  0  0  0  0  0
   -2.1396   -5.5759    0.0000 C   0  0  0  0  0  0  0  0  0  0  0  0
   -3.5100   -6.1860    0.0000 C   0  0  0  0  0  0  0  0  0  0  0  0
   -3.6668   -7.6778    0.0000 C   0  0  0  0  0  0  0  0  0  0  0  0
   -2.4532   -8.5595    0.0000 C   0  0  0  0  0  0  0  0  0  0  0  0
   -2.6100  -10.0513    0.0000 C   0  0  0  0  0  0  0  0  0  0  0  0
   -3.9803  -10.6614    0.0000 C   0  0  0  0  0  0  0  0  0  0  0  0
   -4.1371  -12.1532    0.0000 C   0  0  0  0  0  0  0  0  0  0  0  0
   -2.9236  -13.0348    0.0000 C   0  0  0  0  0  0  0  0  0  0  0  0
   -1.5533  -12.4247    0.0000 C   0  0  0  0  0  0  0  0  0  0  0  0
   -1.3965  -10.9330    0.0000 C   0  0  0  0  0  0  0  0  0  0  0  0
   12.7260   -5.1903    0.0000 C   0  0  0  0  0  0  0  0  0  0  0  0
   12.8827   -3.6985    0.0000 C   0  0  0  0  0  0  0  0  0  0  0  0
   14.2531   -3.0884    0.0000 C   0  0  0  0  0  0  0  0  0  0  0  0
   15.4666   -3.9701    0.0000 C   0  0  0  0  0  0  0  0  0  0  0  0
   15.3098   -5.4618    0.0000 C   0  0  0  0  0  0  0  0  0  0  0  0
   13.9395   -6.0719    0.0000 C   0  0  0  0  0  0  0  0  0  0  0  0
  1  2  1  0
  2  3  1  0
  3  4  2  0
  4  5  1  0
  5  6  2  0
  6  7  1  0
  7  8  2  0
  7  9  1  0
  9 10  1  0
 10 11  2  0
 11 12  1  0
 12 13  2  0
 13 14  1  0
 14 15  1  0
 15 16  1  0
 16 17  2  0
 17 18  1  0
 18 19  2  0
 19 20  1  0
 20 21  2  0
 21 22  1  0
 22 23  2  0
 23 24  1  0
 24 25  2  0
 25 26  1  0
 26 27  2  0
 27 28  1  0
 28 29  2  0
 29 30  1  0
 30 31  2  0
 31 32  1  0
 32 33  2  0
 33 34  1  0
 34 35  2  0
 35 36  1  0
 36 37  2  0
 37 38  1  0
 38 39  2  0
 39 40  1  0
 40 41  2  0
 41 42  1  0
 42 43  2  0
  6 44  1  0
 44 45  2  0
 45 46  1  0
 46 47  2  0
 47 48  1  0
 48 49  2  0
 49  3  1  0
 14 10  1  0
 19 15  1  0
 25 20  1  0
 31 26  1  0
 37 32  1  0
 43 38  1  0
 49 44  1  0
M  END
>  <Title>  (516) 
idAARXgen6

$$$$

     RDKit          2D

 30 33  0  0  0  0  0  0  0  0999 V2000
   -3.7500   -3.8971    0.0000 C   0  0  0  0  0  0  0  0  0  0  0  0
   -3.0000   -2.5981    0.0000 C   0  0  0  0  0  0  0  0  0  0  0  0
   -3.7500   -1.2990    0.0000 O   0  0  0  0  0  0  0  0  0  0  0  0
   -1.5000   -2.5981    0.0000 C   0  0  0  0  0  0  0  0  0  0  0  0
   -0.7500   -3.8971    0.0000 C   0  0  0  0  0  0  0  0  0  0  0  0
    0.7500   -3.8971    0.0000 C   0  0  0  0  0  0  0  0  0  0  0  0
    1.5000   -2.5981    0.0000 C   0  0  0  0  0  0  0  0  0  0  0  0
    3.0000   -2.5981    0.0000 O   0  0  0  0  0  0  0  0  0  0  0  0
    3.7500   -3.8971    0.0000 C   0  0  0  0  0  0  0  0  0  0  0  0
    5.2418   -4.0539    0.0000 C   0  0  0  0  0  0  0  0  0  0  0  0
    5.5537   -5.5211    0.0000 C   0  0  0  0  0  0  0  0  0  0  0  0
    4.2546   -6.2711    0.0000 C   0  0  0  0  0  0  0  0  0  0  0  0
    4.0978   -7.7629    0.0000 N   0  0  0  0  0  0  0  0  0  0  0  0
    2.7275   -8.3730    0.0000 C   0  0  0  0  0  0  0  0  0  0  0  0
    1.5140   -7.4913    0.0000 O   0  0  0  0  0  0  0  0  0  0  0  0
    2.5707   -9.8648    0.0000 C   0  0  0  0  0  0  0  0  0  0  0  0
    1.2004  -10.4749    0.0000 C   0  0  0  0  0  0  0  0  0  0  0  0
   -0.0131   -9.5932    0.0000 C   0  0  0  0  0  0  0  0  0  0  0  0
   -1.3835  -10.2033    0.0000 C   0  0  0  0  0  0  0  0  0  0  0  0
   -1.5402  -11.6951    0.0000 C   0  0  0  0  0  0  0  0  0  0  0  0
   -0.3267  -12.5768    0.0000 C   0  0  0  0  0  0  0  0  0  0  0  0
    1.0436  -11.9667    0.0000 C   0  0  0  0  0  0  0  0  0  0  0  0
    3.1399   -5.2674    0.0000 C   0  0  0  0  0  0  0  0  0  0  0  0
    0.7500   -1.2990    0.0000 C   0  0  0  0  0  0  0  0  0  0  0  0
    1.5000    0.0000    0.0000 C   0  0  0  0  0  0  0  0  0  0  0  0
    0.7500    1.2990    0.0000 C   0  0  0  0  0  0  0  0  0  0  0  0
   -0.7500    1.2990    0.0000 C   0  0  0  0  0  0  0  0  0  0  0  0
   -1.5000    2.5981    0.0000 O   0  0  0  0  0  0  0  0  0  0  0  0
   -1.5000    0.0000    0.0000 C   0  0  0  0  0  0  0  0  0  0  0  0
   -0.7500   -1.2990    0.0000 C   0  0  0  0  0  0  0  0  0  0  0  0
  1  2  2  0
  2  3  1  0
  2  4  1  0
  4  5  2  0
  5  6  1  0
  6  7  2  0
  7  8  1  0
  8  9  1  0
  9 10  2  0
 10 11  1  0
 11 12  2  0
 12 13  1  0
 13 14  1  0
 14 15  2  0
 14 16  1  0
 16 17  1  0
 17 18  2  0
 18 19  1  0
 19 20  2  0
 20 21  1  0
 21 22  2  0
 12 23  1  0
  7 24  1  0
 24 25  2  0
 25 26  1  0
 26 27  2  0
 27 28  1  0
 27 29  1  0
 29 30  2  0
 30  4  1  0
 23  9  1  0
 30 24  1  0
 22 17  1  0
M  END
>  <Title>  (517) 
idAARYgen6

$$$$

     RDKit          2D

 56 57  0  0  0  0  0  0  0  0999 V2000
   17.8919   -3.6658    0.0000 C   0  0  0  0  0  0  0  0  0  0  0  0
   16.9788   -4.8558    0.0000 C   0  0  0  0  0  0  0  0  0  0  0  0
   15.4916   -4.6600    0.0000 C   0  0  0  0  0  0  0  0  0  0  0  0
   14.9176   -3.2742    0.0000 C   0  0  0  0  0  0  0  0  0  0  0  0
   13.4304   -3.0784    0.0000 C   0  0  0  0  0  0  0  0  0  0  0  0
   12.8564   -1.6926    0.0000 C   0  0  0  0  0  0  0  0  0  0  0  0
   11.3692   -1.4968    0.0000 C   0  0  0  0  0  0  0  0  0  0  0  0
   11.4673    0.0000    0.0000 C   0  0  0  0  0  0  0  0  0  0  0  0
   11.3692    1.4968    0.0000 C   0  0  0  0  0  0  0  0  0  0  0  0
   11.0766    2.9680    0.0000 C   0  0  0  0  0  0  0  0  0  0  0  0
   10.5944    4.3884    0.0000 C   0  0  0  0  0  0  0  0  0  0  0  0
    9.9310    5.7337    0.0000 C   0  0  0  0  0  0  0  0  0  0  0  0
    9.0977    6.9809    0.0000 C   0  0  0  0  0  0  0  0  0  0  0  0
    8.1086    8.1086    0.0000 C   0  0  0  0  0  0  0  0  0  0  0  0
    6.9809    9.0977    0.0000 C   0  0  0  0  0  0  0  0  0  0  0  0
    5.7337    9.9310    0.0000 C   0  0  0  0  0  0  0  0  0  0  0  0
    4.3884   10.5944    0.0000 C   0  0  0  0  0  0  0  0  0  0  0  0
    2.9680   11.0766    0.0000 C   0  0  0  0  0  0  0  0  0  0  0  0
    1.4968   11.3692    0.0000 C   0  0  0  0  0  0  0  0  0  0  0  0
    0.0000   11.4673    0.0000 C   0  0  0  0  0  0  0  0  0  0  0  0
   -1.4968   11.3692    0.0000 C   0  0  0  0  0  0  0  0  0  0  0  0
   -2.9680   11.0766    0.0000 C   0  0  0  0  0  0  0  0  0  0  0  0
   -4.3884   10.5944    0.0000 C   0  0  0  0  0  0  0  0  0  0  0  0
   -5.7337    9.9310    0.0000 C   0  0  0  0  0  0  0  0  0  0  0  0
   -6.9809    9.0977    0.0000 C   0  0  0  0  0  0  0  0  0  0  0  0
   -8.1086    8.1086    0.0000 C   0  0  0  0  0  0  0  0  0  0  0  0
   -9.0977    6.9809    0.0000 C   0  0  0  0  0  0  0  0  0  0  0  0
   -9.9310    5.7337    0.0000 C   0  0  0  0  0  0  0  0  0  0  0  0
  -10.5944    4.3884    0.0000 C   0  0  0  0  0  0  0  0  0  0  0  0
  -11.0766    2.9680    0.0000 C   0  0  0  0  0  0  0  0  0  0  0  0
  -11.3692    1.4968    0.0000 C   0  0  0  0  0  0  0  0  0  0  0  0
  -11.4673    0.0000    0.0000 C   0  0  0  0  0  0  0  0  0  0  0  0
  -11.3692   -1.4968    0.0000 C   0  0  0  0  0  0  0  0  0  0  0  0
  -11.0766   -2.9680    0.0000 C   0  0  0  0  0  0  0  0  0  0  0  0
  -10.5944   -4.3884    0.0000 C   0  0  0  0  0  0  0  0  0  0  0  0
   -9.9310   -5.7337    0.0000 C   0  0  0  0  0  0  0  0  0  0  0  0
   -9.0977   -6.9809    0.0000 N   0  0  0  0  0  0  0  0  0  0  0  0
   -8.1086   -8.1086    0.0000 C   0  0  0  0  0  0  0  0  0  0  0  0
   -6.9809   -9.0977    0.0000 C   0  0  0  0  0  0  0  0  0  0  0  0
   -5.7337   -9.9310    0.0000 C   0  0  0  0  0  0  0  0  0  0  0  0
   -4.3884  -10.5944    0.0000 C   0  0  0  0  0  0  0  0  0  0  0  0
   -2.9680  -11.0766    0.0000 C   0  0  0  0  0  0  0  0  0  0  0  0
   -1.4968  -11.3692    0.0000 C   0  0  0  0  0  0  0  0  0  0  0  0
   -0.0000  -11.4673    0.0000 C   0  0  0  0  0  0  0  0  0  0  0  0
    1.4968  -11.3692    0.0000 C   0  0  0  0  0  0  0  0  0  0  0  0
    2.9680  -11.0766    0.0000 C   0  0  0  0  0  0  0  0  0  0  0  0
    4.3884  -10.5944    0.0000 C   0  0  0  0  0  0  0  0  0  0  0  0
    5.7337   -9.9310    0.0000 C   0  0  0  0  0  0  0  0  0  0  0  0
    6.9809   -9.0977    0.0000 C   0  0  0  0  0  0  0  0  0  0  0  0
    8.1086   -8.1086    0.0000 C   0  0  0  0  0  0  0  0  0  0  0  0
    9.0977   -6.9809    0.0000 C   0  0  0  0  0  0  0  0  0  0  0  0
    9.9310   -5.7337    0.0000 C   0  0  0  0  0  0  0  0  0  0  0  0
   10.5944   -4.3884    0.0000 C   0  0  0  0  0  0  0  0  0  0  0  0
   11.0766   -2.9680    0.0000 C   0  0  0  0  0  0  0  0  0  0  0  0
   15.8307   -2.0842    0.0000 C   0  0  0  0  0  0  0  0  0  0  0  0
   17.3179   -2.2799    0.0000 C   0  0  0  0  0  0  0  0  0  0  0  0
  1  2  2  0
  2  3  1  0
  3  4  2  0
  4  5  1  0
  5  6  1  0
  6  7  1  0
  7  8  1  0
  8  9  1  0
  9 10  1  0
 10 11  1  0
 11 12  1  0
 12 13  1  0
 13 14  1  0
 14 15  1  0
 15 16  1  0
 16 17  1  0
 17 18  1  0
 18 19  1  0
 19 20  1  0
 20 21  1  0
 21 22  1  0
 22 23  1  0
 23 24  1  0
 24 25  1  0
 25 26  1  0
 26 27  1  0
 27 28  1  0
 28 29  1  0
 29 30  1  0
 30 31  1  0
 31 32  1  0
 32 33  1  0
 33 34  1  0
 34 35  1  0
 35 36  1  0
 36 37  1  0
 37 38  1  0
 38 39  1  0
 39 40  1  0
 40 41  1  0
 41 42  1  0
 42 43  1  0
 43 44  1  0
 44 45  1  0
 45 46  1  0
 46 47  1  0
 47 48  1  0
 48 49  1  0
 49 50  1  0
 50 51  1  0
 51 52  1  0
 52 53  1  0
 53 54  1  0
  4 55  1  0
 55 56  2  0
 56  1  1  0
 54  7  1  0
M  END
>  <Title>  (518) 
idAARZgen6

$$$$

     RDKit          2D

  8  8  0  0  0  0  0  0  0  0999 V2000
    3.2286   -0.0000    0.0000 C   0  0  0  0  0  0  0  0  0  0  0  0
    1.7286    0.0000    0.0000 C   0  0  0  0  0  0  0  0  0  0  0  0
    1.0777    1.3515    0.0000 C   0  0  0  0  0  0  0  0  0  0  0  0
   -0.3846    1.6852    0.0000 C   0  0  0  0  0  0  0  0  0  0  0  0
   -1.5574    0.7500    0.0000 C   0  0  0  0  0  0  0  0  0  0  0  0
   -1.5574   -0.7500    0.0000 C   0  0  0  0  0  0  0  0  0  0  0  0
   -0.3846   -1.6852    0.0000 C   0  0  0  0  0  0  0  0  0  0  0  0
    1.0777   -1.3515    0.0000 C   0  0  0  0  0  0  0  0  0  0  0  0
  1  2  1  0
  2  3  1  0
  3  4  1  0
  4  5  1  0
  5  6  1  0
  6  7  1  0
  7  8  1  0
  8  2  1  0
M  END
>  <Title>  (519) 
idAASAgen6

$$$$

     RDKit          2D

  9 10  0  0  0  0  0  0  0  0999 V2000
    1.5000    0.0000    0.0000 C   0  0  0  0  0  0  0  0  0  0  0  0
    0.7500   -1.2990    0.0000 C   0  0  0  0  0  0  0  0  0  0  0  0
   -0.7500   -1.2990    0.0000 C   0  0  0  0  0  0  0  0  0  0  0  0
   -1.5000    0.0000    0.0000 C   0  0  0  0  0  0  0  0  0  0  0  0
   -2.9672    0.3119    0.0000 C   0  0  0  0  0  0  0  0  0  0  0  0
   -3.1240    1.8037    0.0000 C   0  0  0  0  0  0  0  0  0  0  0  0
   -1.7537    2.4138    0.0000 C   0  0  0  0  0  0  0  0  0  0  0  0
   -0.7500    1.2990    0.0000 C   0  0  0  0  0  0  0  0  0  0  0  0
    0.7500    1.2990    0.0000 C   0  0  0  0  0  0  0  0  0  0  0  0
  1  2  2  0
  2  3  1  0
  3  4  2  0
  4  5  1  0
  5  6  1  0
  6  7  1  0
  7  8  1  0
  8  9  2  0
  9  1  1  0
  8  4  1  0
M  END
>  <Title>  (520) 
idAASBgen6

$$$$

     RDKit          2D

 22 24  0  0  0  0  0  0  0  0999 V2000
   -2.5242   -4.8694    0.0000 C   0  0  0  0  0  0  0  0  0  0  0  0
   -1.3515   -3.9342    0.0000 C   0  0  0  0  0  0  0  0  0  0  0  0
   -0.0000   -4.5850    0.0000 C   0  0  0  0  0  0  0  0  0  0  0  0
    1.3515   -3.9342    0.0000 C   0  0  0  0  0  0  0  0  0  0  0  0
    1.6852   -2.4718    0.0000 C   0  0  0  0  0  0  0  0  0  0  0  0
    3.1476   -2.1380    0.0000 C   0  0  0  0  0  0  0  0  0  0  0  0
    3.5898   -0.7046    0.0000 O   0  0  0  0  0  0  0  0  0  0  0  0
    4.1679   -3.2376    0.0000 N   0  0  0  0  0  0  0  0  0  0  0  0
    5.6303   -2.9038    0.0000 C   0  0  0  0  0  0  0  0  0  0  0  0
    6.6505   -4.0034    0.0000 N   0  0  0  0  0  0  0  0  0  0  0  0
    8.1129   -3.6696    0.0000 N   0  0  0  0  0  0  0  0  0  0  0  0
    8.5551   -2.2362    0.0000 N   0  0  0  0  0  0  0  0  0  0  0  0
    7.5348   -1.1367    0.0000 N   0  0  0  0  0  0  0  0  0  0  0  0
    6.0724   -1.4704    0.0000 N   0  0  0  0  0  0  0  0  0  0  0  0
    0.7500   -1.2990    0.0000 C   0  0  0  0  0  0  0  0  0  0  0  0
    1.5000    0.0000    0.0000 C   0  0  0  0  0  0  0  0  0  0  0  0
    0.7500    1.2990    0.0000 C   0  0  0  0  0  0  0  0  0  0  0  0
   -0.7500    1.2990    0.0000 C   0  0  0  0  0  0  0  0  0  0  0  0
   -1.5000    2.5981    0.0000 O   0  0  0  0  0  0  0  0  0  0  0  0
   -1.5000    0.0000    0.0000 C   0  0  0  0  0  0  0  0  0  0  0  0
   -0.7500   -1.2990    0.0000 C   0  0  0  0  0  0  0  0  0  0  0  0
   -1.6852   -2.4718    0.0000 C   0  0  0  0  0  0  0  0  0  0  0  0
  1  2  1  0
  2  3  1  0
  3  4  1  0
  4  5  1  0
  5  6  1  0
  6  7  2  0
  6  8  1  0
  8  9  1  0
  9 10  2  0
 10 11  1  0
 11 12  2  0
 12 13  1  0
 13 14  2  0
  5 15  1  0
 15 16  2  0
 16 17  1  0
 17 18  2  0
 18 19  1  0
 18 20  1  0
 20 21  2  0
 21 22  1  0
 22  2  1  0
 14  9  1  0
 21 15  1  0
M  END
>  <Title>  (521) 
idAASCgen6

$$$$

     RDKit          2D

 14 15  0  0  0  0  0  0  0  0999 V2000
    3.4598   -0.0000    0.0000 C   0  0  0  0  0  0  0  0  0  0  0  0
    1.9598    0.0000    0.0000 C   0  0  0  0  0  0  0  0  0  0  0  0
    1.3858   -1.3858    0.0000 C   0  0  0  0  0  0  0  0  0  0  0  0
   -0.0000   -1.9598    0.0000 C   0  0  0  0  0  0  0  0  0  0  0  0
   -1.3858   -1.3858    0.0000 C   0  0  0  0  0  0  0  0  0  0  0  0
   -1.9598    0.0000    0.0000 C   0  0  0  0  0  0  0  0  0  0  0  0
   -1.3858    1.3858    0.0000 C   0  0  0  0  0  0  0  0  0  0  0  0
    0.0000    1.9598    0.0000 C   0  0  0  0  0  0  0  0  0  0  0  0
    1.3858    1.3858    0.0000 C   0  0  0  0  0  0  0  0  0  0  0  0
   -0.4312    1.0839    0.0000 C   0  0  0  0  0  0  0  0  0  0  0  0
   -1.8941    3.6525    0.0000 O   0  0  0  0  0  0  0  0  0  0  0  0
   -1.3560    0.5740    0.0000 N   0  0  0  0  0  0  0  0  0  0  0  0
   -1.0961   -0.4718    0.0000 C   0  0  0  0  0  0  0  0  0  0  0  0
   -3.8260   -1.0116    0.0000 O   0  0  0  0  0  0  0  0  0  0  0  0
  1  2  1  0
  2  3  1  0
  3  4  1  0
  4  5  1  0
  5  6  1  0
  6  7  1  0
  7  8  1  0
  8  9  1  0
  8 10  1  0
 10 11  2  0
 10 12  1  0
 12 13  1  0
 13 14  2  0
  9  2  1  0
 13  5  1  0
M  END
>  <Title>  (522) 
idAASDgen6

$$$$

     RDKit          2D

 10 10  0  0  0  0  0  0  0  0999 V2000
    2.7760    0.0000    0.0000 C   0  0  0  0  0  0  0  0  0  0  0  0
    1.2760    0.0000    0.0000 C   0  0  0  0  0  0  0  0  0  0  0  0
    0.3943    1.2135    0.0000 C   0  0  0  0  0  0  0  0  0  0  0  0
   -1.0323    0.7500    0.0000 C   0  0  0  0  0  0  0  0  0  0  0  0
   -1.0323   -0.7500    0.0000 C   0  0  0  0  0  0  0  0  0  0  0  0
   -2.2458   -1.6317    0.0000 C   0  0  0  0  0  0  0  0  0  0  0  0
   -2.0890   -3.1235    0.0000 O   0  0  0  0  0  0  0  0  0  0  0  0
   -3.6161   -1.0216    0.0000 O   0  0  0  0  0  0  0  0  0  0  0  0
    0.3943   -1.2135    0.0000 C   0  0  0  0  0  0  0  0  0  0  0  0
    0.8578   -2.6401    0.0000 O   0  0  0  0  0  0  0  0  0  0  0  0
  1  2  1  0
  2  3  1  0
  3  4  1  0
  4  5  1  0
  5  6  1  0
  6  7  2  0
  6  8  1  0
  5  9  1  0
  9 10  2  0
  9  2  1  0
M  END
>  <Title>  (523) 
idAASEgen6

$$$$

     RDKit          2D

 26 27  0  0  0  0  0  0  0  0999 V2000
    5.1834   -4.4160    0.0000 O   0  0  0  0  0  0  0  0  0  0  0  0
    6.2981   -3.4123    0.0000 C   0  0  0  0  0  0  0  0  0  0  0  0
    5.9863   -1.9451    0.0000 N   0  0  0  0  0  0  0  0  0  0  0  0
    4.5597   -1.4815    0.0000 C   0  0  0  0  0  0  0  0  0  0  0  0
    4.7943    0.0000    0.0000 C   0  0  0  0  0  0  0  0  0  0  0  0
    4.5597    1.4815    0.0000 C   0  0  0  0  0  0  0  0  0  0  0  0
    3.8787    2.8180    0.0000 C   0  0  0  0  0  0  0  0  0  0  0  0
    2.8180    3.8787    0.0000 C   0  0  0  0  0  0  0  0  0  0  0  0
    1.4815    4.5597    0.0000 C   0  0  0  0  0  0  0  0  0  0  0  0
    0.0000    4.7943    0.0000 C   0  0  0  0  0  0  0  0  0  0  0  0
   -1.4815    4.5597    0.0000 C   0  0  0  0  0  0  0  0  0  0  0  0
   -2.8180    3.8787    0.0000 C   0  0  0  0  0  0  0  0  0  0  0  0
   -3.8787    2.8180    0.0000 C   0  0  0  0  0  0  0  0  0  0  0  0
   -4.5597    1.4815    0.0000 C   0  0  0  0  0  0  0  0  0  0  0  0
   -4.7943    0.0000    0.0000 C   0  0  0  0  0  0  0  0  0  0  0  0
   -4.5597   -1.4815    0.0000 C   0  0  0  0  0  0  0  0  0  0  0  0
   -3.8787   -2.8180    0.0000 C   0  0  0  0  0  0  0  0  0  0  0  0
   -2.8180   -3.8787    0.0000 C   0  0  0  0  0  0  0  0  0  0  0  0
   -1.4815   -4.5597    0.0000 C   0  0  0  0  0  0  0  0  0  0  0  0
   -0.0000   -4.7943    0.0000 C   0  0  0  0  0  0  0  0  0  0  0  0
    1.4815   -4.5597    0.0000 C   0  0  0  0  0  0  0  0  0  0  0  0
    2.8180   -3.8787    0.0000 C   0  0  0  0  0  0  0  0  0  0  0  0
    3.8787   -2.8180    0.0000 C   0  0  0  0  0  0  0  0  0  0  0  0
    7.7247   -3.8758    0.0000 C   0  0  0  0  0  0  0  0  0  0  0  0
    9.1919   -3.5639    0.0000 C   0  0  0  0  0  0  0  0  0  0  0  0
    8.7284   -4.9905    0.0000 C   0  0  0  0  0  0  0  0  0  0  0  0
  1  2  2  0
  2  3  1  0
  3  4  1  0
  4  5  1  0
  5  6  1  0
  6  7  1  0
  7  8  1  0
  8  9  1  0
  9 10  1  0
 10 11  1  0
 11 12  1  0
 12 13  1  0
 13 14  1  0
 14 15  1  0
 15 16  1  0
 16 17  1  0
 17 18  1  0
 18 19  1  0
 19 20  1  0
 20 21  1  0
 21 22  1  0
 22 23  1  0
  2 24  1  0
 24 25  1  0
 25 26  1  0
 23  4  1  0
 26 24  1  0
M  END
>  <Title>  (524) 
idAASFgen6

$$$$

     RDKit          2D

 14 14  0  0  0  0  0  0  0  0999 V2000
    7.5000   -0.0000    0.0000 C   0  0  0  0  0  0  0  0  0  0  0  0
    6.0000    0.0000    0.0000 C   0  0  0  0  0  0  0  0  0  0  0  0
    5.2500    1.2990    0.0000 O   0  0  0  0  0  0  0  0  0  0  0  0
    5.2500   -1.2990    0.0000 C   0  0  0  0  0  0  0  0  0  0  0  0
    6.0000   -2.5981    0.0000 C   0  0  0  0  0  0  0  0  0  0  0  0
    3.7500   -1.2990    0.0000 C   0  0  0  0  0  0  0  0  0  0  0  0
    3.0000   -2.5981    0.0000 O   0  0  0  0  0  0  0  0  0  0  0  0
    3.0000    0.0000    0.0000 N   0  0  0  0  0  0  0  0  0  0  0  0
    1.5000    0.0000    0.0000 C   0  0  0  0  0  0  0  0  0  0  0  0
    0.7500   -1.2990    0.0000 C   0  0  0  0  0  0  0  0  0  0  0  0
   -0.7500   -1.2990    0.0000 S   0  0  0  0  0  4  0  0  0  0  0  0
   -1.5000    0.0000    0.0000 C   0  0  0  0  0  0  0  0  0  0  0  0
   -0.7500    1.2990    0.0000 C   0  0  0  0  0  0  0  0  0  0  0  0
    0.7500    1.2990    0.0000 C   0  0  0  0  0  0  0  0  0  0  0  0
  1  2  1  0
  2  3  2  0
  2  4  1  0
  4  5  1  0
  4  6  1  0
  6  7  2  0
  6  8  1  0
  8  9  1  0
  9 10  2  0
 10 11  1  0
 11 12  2  0
 12 13  1  0
 13 14  2  0
 14  9  1  0
M  END
>  <Title>  (525) 
idAASGgen6

$$$$

     RDKit          2D

 22 25  0  0  0  0  0  0  0  0999 V2000
   -4.1640    0.6645    0.0000 O   0  0  0  0  0  0  0  0  0  0  0  0
   -3.4140    1.9635    0.0000 C   0  0  0  0  0  0  0  0  0  0  0  0
   -1.9140    1.9635    0.0000 C   0  0  0  0  0  0  0  0  0  0  0  0
   -1.0323    3.1771    0.0000 C   0  0  0  0  0  0  0  0  0  0  0  0
    0.3943    2.7135    0.0000 C   0  0  0  0  0  0  0  0  0  0  0  0
    0.3943    1.2135    0.0000 C   0  0  0  0  0  0  0  0  0  0  0  0
    1.2760    0.0000    0.0000 O   0  0  0  0  0  0  0  0  0  0  0  0
    0.3943   -1.2135    0.0000 C   0  0  0  0  0  0  0  0  0  0  0  0
   -1.0323   -0.7500    0.0000 C   0  0  0  0  0  0  0  0  0  0  0  0
   -1.0323    0.7500    0.0000 C   0  0  0  0  0  0  0  0  0  0  0  0
   -4.1640    3.2626    0.0000 N   0  0  0  0  0  0  0  0  0  0  0  0
   -3.4140    4.5616    0.0000 C   0  0  0  0  0  0  0  0  0  0  0  0
   -4.1640    5.8606    0.0000 C   0  0  0  0  0  0  0  0  0  0  0  0
   -5.6640    5.8606    0.0000 N   0  0  0  0  0  0  0  0  0  0  0  0
   -6.4140    7.1597    0.0000 C   0  0  0  0  0  0  0  0  0  0  0  0
   -5.6640    8.4587    0.0000 C   0  0  0  0  0  0  0  0  0  0  0  0
   -6.4140    9.7578    0.0000 C   0  0  0  0  0  0  0  0  0  0  0  0
   -7.9140    9.7578    0.0000 C   0  0  0  0  0  0  0  0  0  0  0  0
   -8.6640    8.4587    0.0000 C   0  0  0  0  0  0  0  0  0  0  0  0
   -7.9140    7.1597    0.0000 C   0  0  0  0  0  0  0  0  0  0  0  0
   -6.4140    4.5616    0.0000 C   0  0  0  0  0  0  0  0  0  0  0  0
   -5.6640    3.2626    0.0000 C   0  0  0  0  0  0  0  0  0  0  0  0
  1  2  2  0
  2  3  1  0
  3  4  2  0
  4  5  1  0
  5  6  2  0
  6  7  1  0
  7  8  1  0
  8  9  1  0
  9 10  2  0
  2 11  1  0
 11 12  1  0
 12 13  1  0
 13 14  1  0
 14 15  1  0
 15 16  2  0
 16 17  1  0
 17 18  2  0
 18 19  1  0
 19 20  2  0
 14 21  1  0
 21 22  1  0
 10  3  1  0
 22 11  1  0
 10  6  1  0
 20 15  1  0
M  END
>  <Title>  (526) 
idAASHgen6

$$$$

     RDKit          2D

 22 24  0  0  0  0  0  0  0  0999 V2000
   -1.5685   -9.4129    0.0000 C   0  0  0  0  0  0  0  0  0  0  0  0
   -1.7364   -7.9223    0.0000 C   0  0  0  0  0  0  0  0  0  0  0  0
   -3.1113   -7.3225    0.0000 O   0  0  0  0  0  0  0  0  0  0  0  0
   -0.5295   -7.0316    0.0000 O   0  0  0  0  0  0  0  0  0  0  0  0
   -0.0356   -4.5623    0.0000 C   0  0  0  0  0  0  0  0  0  0  0  0
   -1.0861   -4.0959    0.0000 C   0  0  0  0  0  0  0  0  0  0  0  0
   -1.4808   -3.1576    0.0000 C   0  0  0  0  0  0  0  0  0  0  0  0
   -1.8107   -2.3597    0.0000 C   0  0  0  0  0  0  0  0  0  0  0  0
   -0.7059   -3.4644    0.0000 C   0  0  0  0  0  0  0  0  0  0  0  0
   -3.1965   -4.4337    0.0000 O   0  0  0  0  0  0  0  0  0  0  0  0
   -0.3547   -3.8156    0.0000 N   0  0  0  0  0  0  0  0  0  0  0  0
    0.7500   -4.9204    0.0000 C   0  0  0  0  0  0  0  0  0  0  0  0
    1.8107   -3.8597    0.0000 N   0  0  0  0  0  0  0  0  0  0  0  0
    1.8107   -2.3597    0.0000 S   0  0  0  0  0  0  0  0  0  0  0  0
    2.5607   -1.0607    0.0000 O   0  0  0  0  0  0  0  0  0  0  0  0
    3.2595   -2.7479    0.0000 O   0  0  0  0  0  0  0  0  0  0  0  0
    0.7500   -1.2990    0.0000 C   0  0  0  0  0  0  0  0  0  0  0  0
    1.5000    0.0000    0.0000 C   0  0  0  0  0  0  0  0  0  0  0  0
    0.7500    1.2990    0.0000 C   0  0  0  0  0  0  0  0  0  0  0  0
   -0.7500    1.2990    0.0000 C   0  0  0  0  0  0  0  0  0  0  0  0
   -1.5000    0.0000    0.0000 C   0  0  0  0  0  0  0  0  0  0  0  0
   -0.7500   -1.2990    0.0000 C   0  0  0  0  0  0  0  0  0  0  0  0
  1  2  1  0
  2  3  2  0
  2  4  1  0
  4  5  1  0
  5  6  2  0
  6  7  1  0
  7  8  1  0
  8  9  1  0
  9 10  2  0
  9 11  1  0
 11 12  1  0
 12 13  2  0
 13 14  1  0
 14 15  2  0
 14 16  2  0
 14 17  1  0
 17 18  2  0
 18 19  1  0
 19 20  2  0
 20 21  1  0
 21 22  2  0
 12  5  1  0
 22 17  1  0
 22  8  1  0
M  END
>  <Title>  (527) 
idAASIgen6

$$$$

     RDKit          2D

 11 10  0  0  0  0  0  0  0  0999 V2000
    0.0000    0.0000    0.0000 C   0  0  0  0  0  0  0  0  0  0  0  0
    1.2990    0.7500    0.0000 C   0  0  0  0  0  0  0  0  0  0  0  0
    1.2990    2.2500    0.0000 O   0  0  0  0  0  0  0  0  0  0  0  0
    2.5981   -0.0000    0.0000 C   0  0  0  0  0  0  0  0  0  0  0  0
    3.8971    0.7500    0.0000 C   0  0  0  0  0  0  0  0  0  0  0  0
    3.1471    2.0490    0.0000 C   0  0  0  0  0  0  0  0  0  0  0  0
    4.6471   -0.5490    0.0000 C   0  0  0  0  0  0  0  0  0  0  0  0
    5.1962    1.5000    0.0000 C   0  0  0  0  0  0  0  0  0  0  0  0
    6.4952    2.2500    0.0000 C   0  0  0  0  0  0  0  0  0  0  0  0
    7.7942    3.0000    0.0000 C   0  0  0  0  0  0  0  0  0  0  0  0
    9.0933    3.7500    0.0000 N   0  0  0  0  0  0  0  0  0  0  0  0
  1  2  1  0
  2  3  2  0
  2  4  1  0
  4  5  1  0
  5  6  1  0
  5  7  1  0
  5  8  1  0
  8  9  3  0
  9 10  1  0
 10 11  3  0
M  END
>  <Title>  (528) 
idAASJgen6

$$$$

     RDKit          2D

 14 15  0  0  0  0  0  0  0  0999 V2000
    5.0260    1.2990    0.0000 C   0  0  0  0  0  0  0  0  0  0  0  0
    3.5260    1.2990    0.0000 C   0  0  0  0  0  0  0  0  0  0  0  0
    2.7760    2.5981    0.0000 O   0  0  0  0  0  0  0  0  0  0  0  0
    2.7760    0.0000    0.0000 C   0  0  0  0  0  0  0  0  0  0  0  0
    1.2760    0.0000    0.0000 C   0  0  0  0  0  0  0  0  0  0  0  0
    0.3943    1.2135    0.0000 C   0  0  0  0  0  0  0  0  0  0  0  0
   -1.0323    0.7500    0.0000 C   0  0  0  0  0  0  0  0  0  0  0  0
   -1.0323   -0.7500    0.0000 C   0  0  0  0  0  0  0  0  0  0  0  0
    0.3943   -1.2135    0.0000 C   0  0  0  0  0  0  0  0  0  0  0  0
    0.8578   -2.6401    0.0000 C   0  0  0  0  0  0  0  0  0  0  0  0
   -0.0239   -3.8536    0.0000 C   0  0  0  0  0  0  0  0  0  0  0  0
    0.8578   -5.0672    0.0000 C   0  0  0  0  0  0  0  0  0  0  0  0
    2.2844   -4.6036    0.0000 C   0  0  0  0  0  0  0  0  0  0  0  0
    2.2844   -3.1036    0.0000 C   0  0  0  0  0  0  0  0  0  0  0  0
  1  2  1  0
  2  3  2  0
  2  4  1  0
  4  5  1  0
  5  6  2  0
  6  7  1  0
  7  8  1  0
  8  9  2  0
  9 10  1  0
 10 11  2  0
 11 12  1  0
 12 13  2  0
 13 14  1  0
  9  5  1  0
 14 10  1  0
M  END
>  <Title>  (529) 
idAASKgen6

$$$$

     RDKit          2D

 52 57  0  0  0  0  0  0  0  0999 V2000
   -7.4540  -12.1470    0.0000 C   0  0  0  0  0  0  0  0  0  0  0  0
   -6.1287  -11.4444    0.0000 C   0  0  0  0  0  0  0  0  0  0  0  0
   -5.2870  -12.6860    0.0000 C   0  0  0  0  0  0  0  0  0  0  0  0
   -4.1980  -13.7175    0.0000 C   0  0  0  0  0  0  0  0  0  0  0  0
   -5.1057  -14.9117    0.0000 O   0  0  0  0  0  0  0  0  0  0  0  0
   -2.9127  -14.4908    0.0000 C   0  0  0  0  0  0  0  0  0  0  0  0
   -1.4912  -14.9698    0.0000 C   0  0  0  0  0  0  0  0  0  0  0  0
    0.0000  -15.1320    0.0000 C   0  0  0  0  0  0  0  0  0  0  0  0
    1.4912  -14.9698    0.0000 C   0  0  0  0  0  0  0  0  0  0  0  0
    2.9127  -14.4908    0.0000 C   0  0  0  0  0  0  0  0  0  0  0  0
    4.1980  -13.7175    0.0000 C   0  0  0  0  0  0  0  0  0  0  0  0
    5.2870  -12.6860    0.0000 C   0  0  0  0  0  0  0  0  0  0  0  0
    6.1287  -11.4444    0.0000 C   0  0  0  0  0  0  0  0  0  0  0  0
    6.6840  -10.0510    0.0000 C   0  0  0  0  0  0  0  0  0  0  0  0
    6.9266   -8.5707    0.0000 C   0  0  0  0  0  0  0  0  0  0  0  0
    6.8454   -7.0729    0.0000 C   0  0  0  0  0  0  0  0  0  0  0  0
    6.4441   -5.6276    0.0000 C   0  0  0  0  0  0  0  0  0  0  0  0
    5.7415   -4.3023    0.0000 C   0  0  0  0  0  0  0  0  0  0  0  0
    7.1289   -3.7321    0.0000 C   0  0  0  0  0  0  0  0  0  0  0  0
    7.0152   -2.2364    0.0000 C   0  0  0  0  0  0  0  0  0  0  0  0
    5.5576   -1.8823    0.0000 C   0  0  0  0  0  0  0  0  0  0  0  0
    4.9874   -0.4949    0.0000 C   0  0  0  0  0  0  0  0  0  0  0  0
    5.9037    0.6927    0.0000 C   0  0  0  0  0  0  0  0  0  0  0  0
    5.3335    2.0800    0.0000 C   0  0  0  0  0  0  0  0  0  0  0  0
    3.8468    2.2799    0.0000 C   0  0  0  0  0  0  0  0  0  0  0  0
    2.9305    1.0923    0.0000 C   0  0  0  0  0  0  0  0  0  0  0  0
    3.5007   -0.2951    0.0000 C   0  0  0  0  0  0  0  0  0  0  0  0
    4.7704   -3.1591    0.0000 N   0  0  0  0  0  0  0  0  0  0  0  0
    3.5763   -2.2513    0.0000 C   0  0  0  0  0  0  0  0  0  0  0  0
    2.2149   -1.6215    0.0000 C   0  0  0  0  0  0  0  0  0  0  0  0
    0.7500   -1.2990    0.0000 C   0  0  0  0  0  0  0  0  0  0  0  0
    1.5000    0.0000    0.0000 C   0  0  0  0  0  0  0  0  0  0  0  0
    0.7500    1.2990    0.0000 C   0  0  0  0  0  0  0  0  0  0  0  0
   -0.7500    1.2990    0.0000 C   0  0  0  0  0  0  0  0  0  0  0  0
   -1.5000    0.0000    0.0000 C   0  0  0  0  0  0  0  0  0  0  0  0
   -0.7500   -1.2990    0.0000 C   0  0  0  0  0  0  0  0  0  0  0  0
   -2.2149   -1.6215    0.0000 C   0  0  0  0  0  0  0  0  0  0  0  0
   -3.5763   -2.2513    0.0000 C   0  0  0  0  0  0  0  0  0  0  0  0
   -4.7704   -3.1591    0.0000 C   0  0  0  0  0  0  0  0  0  0  0  0
   -5.7415   -4.3023    0.0000 C   0  0  0  0  0  0  0  0  0  0  0  0
   -6.4441   -5.6276    0.0000 C   0  0  0  0  0  0  0  0  0  0  0  0
   -7.4952   -4.5574    0.0000 C   0  0  0  0  0  0  0  0  0  0  0  0
   -8.9475   -4.9325    0.0000 C   0  0  0  0  0  0  0  0  0  0  0  0
   -9.3488   -6.3779    0.0000 C   0  0  0  0  0  0  0  0  0  0  0  0
   -8.2978   -7.4481    0.0000 C   0  0  0  0  0  0  0  0  0  0  0  0
   -6.8454   -7.0729    0.0000 C   0  0  0  0  0  0  0  0  0  0  0  0
   -6.9266   -8.5707    0.0000 C   0  0  0  0  0  0  0  0  0  0  0  0
   -8.2166   -8.7315    0.0000 C   0  0  0  0  0  0  0  0  0  0  0  0
   -8.8356   -9.2384    0.0000 C   0  0  0  0  0  0  0  0  0  0  0  0
   -8.7062  -10.0278    0.0000 C   0  0  0  0  0  0  0  0  0  0  0  0
   -7.9578  -10.3105    0.0000 C   0  0  0  0  0  0  0  0  0  0  0  0
   -6.6840  -10.0510    0.0000 C   0  0  0  0  0  0  0  0  0  0  0  0
  1  2  1  0
  2  3  2  0
  3  4  1  0
  4  5  1  0
  4  6  1  0
  6  7  1  0
  7  8  1  0
  8  9  1  0
  9 10  1  0
 10 11  1  0
 11 12  1  0
 12 13  1  0
 13 14  1  0
 14 15  1  0
 15 16  1  0
 16 17  1  0
 17 18  1  0
 18 19  1  0
 19 20  1  0
 20 21  1  0
 21 22  1  0
 22 23  2  0
 23 24  1  0
 24 25  2  0
 25 26  1  0
 26 27  2  0
 21 28  1  0
 28 29  1  0
 29 30  1  0
 30 31  1  0
 31 32  2  0
 32 33  1  0
 33 34  2  0
 34 35  1  0
 35 36  2  0
 36 37  1  0
 37 38  2  0
 38 39  1  0
 39 40  2  0
 40 41  1  0
 41 42  2  0
 42 43  1  0
 43 44  2  0
 44 45  1  0
 45 46  2  0
 46 47  1  0
 47 48  2  0
 48 49  1  0
 49 50  2  0
 50 51  1  0
 51 52  2  0
 52  2  1  0
 28 18  1  0
 36 31  1  0
 46 41  1  0
 52 47  1  0
 27 22  1  0
M  END
>  <Title>  (530) 
idAASLgen6

$$$$

     RDKit          2D

 15 16  0  0  0  0  0  0  0  0999 V2000
   -4.3786   -5.1199    0.0000 C   0  0  0  0  0  0  0  0  0  0  0  0
   -2.9520   -4.6564    0.0000 C   0  0  0  0  0  0  0  0  0  0  0  0
   -1.8373   -5.6601    0.0000 O   0  0  0  0  0  0  0  0  0  0  0  0
   -2.6401   -3.1891    0.0000 C   0  0  0  0  0  0  0  0  0  0  0  0
   -3.7548   -2.1855    0.0000 O   0  0  0  0  0  0  0  0  0  0  0  0
   -1.2135   -2.7256    0.0000 C   0  0  0  0  0  0  0  0  0  0  0  0
   -0.0000   -3.6073    0.0000 C   0  0  0  0  0  0  0  0  0  0  0  0
   -0.0000   -5.1073    0.0000 O   0  0  0  0  0  0  0  0  0  0  0  0
    1.2135   -2.7256    0.0000 O   0  0  0  0  0  0  0  0  0  0  0  0
    0.7500   -1.2990    0.0000 C   0  0  0  0  0  0  0  0  0  0  0  0
    1.5000    0.0000    0.0000 C   0  0  0  0  0  0  0  0  0  0  0  0
    0.7500    1.2990    0.0000 C   0  0  0  0  0  0  0  0  0  0  0  0
   -0.7500    1.2990    0.0000 C   0  0  0  0  0  0  0  0  0  0  0  0
   -1.5000    0.0000    0.0000 C   0  0  0  0  0  0  0  0  0  0  0  0
   -0.7500   -1.2990    0.0000 C   0  0  0  0  0  0  0  0  0  0  0  0
  1  2  1  0
  2  3  2  0
  2  4  1  0
  4  5  2  0
  4  6  1  0
  6  7  1  0
  7  8  2  0
  7  9  1  0
  9 10  1  0
 10 11  2  0
 11 12  1  0
 12 13  2  0
 13 14  1  0
 14 15  2  0
 15  6  1  0
 15 10  1  0
M  END
>  <Title>  (531) 
idAASMgen6

$$$$

     RDKit          2D

 24 25  0  0  0  0  0  0  0  0999 V2000
    5.0321    0.0000    0.0000 C   0  0  0  0  0  0  0  0  0  0  0  0
    4.8086    1.4832    0.0000 C   0  0  0  0  0  0  0  0  0  0  0  0
    4.1577    2.8347    0.0000 C   0  0  0  0  0  0  0  0  0  0  0  0
    3.1375    3.9343    0.0000 C   0  0  0  0  0  0  0  0  0  0  0  0
    1.8384    4.6843    0.0000 C   0  0  0  0  0  0  0  0  0  0  0  0
    0.3761    5.0181    0.0000 C   0  0  0  0  0  0  0  0  0  0  0  0
   -1.1198    4.9060    0.0000 C   0  0  0  0  0  0  0  0  0  0  0  0
   -2.5161    4.3580    0.0000 C   0  0  0  0  0  0  0  0  0  0  0  0
   -3.6888    3.4227    0.0000 C   0  0  0  0  0  0  0  0  0  0  0  0
   -4.5338    2.1834    0.0000 C   0  0  0  0  0  0  0  0  0  0  0  0
   -5.9962    1.8496    0.0000 C   0  0  0  0  0  0  0  0  0  0  0  0
   -6.6470    0.4981    0.0000 C   0  0  0  0  0  0  0  0  0  0  0  0
   -5.9962   -0.8533    0.0000 N   0  0  0  0  0  0  0  0  0  0  0  0
   -4.5338   -2.1834    0.0000 C   0  0  0  0  0  0  0  0  0  0  0  0
   -3.6888   -3.4227    0.0000 C   0  0  0  0  0  0  0  0  0  0  0  0
   -2.5161   -4.3580    0.0000 C   0  0  0  0  0  0  0  0  0  0  0  0
   -1.1198   -4.9060    0.0000 C   0  0  0  0  0  0  0  0  0  0  0  0
    0.3761   -5.0181    0.0000 C   0  0  0  0  0  0  0  0  0  0  0  0
    1.8384   -4.6843    0.0000 C   0  0  0  0  0  0  0  0  0  0  0  0
    3.1375   -3.9343    0.0000 C   0  0  0  0  0  0  0  0  0  0  0  0
    4.1577   -2.8347    0.0000 C   0  0  0  0  0  0  0  0  0  0  0  0
    4.8086   -1.4832    0.0000 C   0  0  0  0  0  0  0  0  0  0  0  0
   -4.9759   -0.7500    0.0000 C   0  0  0  0  0  0  0  0  0  0  0  0
   -4.9759    0.7500    0.0000 C   0  0  0  0  0  0  0  0  0  0  0  0
  1  2  1  0
  2  3  1  0
  3  4  1  0
  4  5  1  0
  5  6  1  0
  6  7  1  0
  7  8  1  0
  8  9  1  0
  9 10  1  0
 10 11  1  0
 11 12  1  0
 12 13  1  0
 13 14  1  0
 14 15  1  0
 15 16  1  0
 16 17  1  0
 17 18  1  0
 18 19  1  0
 19 20  1  0
 20 21  1  0
 21 22  1  0
 14 23  1  0
 23 24  1  0
 22  1  1  0
 24 10  1  0
M  END
>  <Title>  (532) 
idAASNgen6

$$$$

     RDKit          2D

 19 20  0  0  0  0  0  0  0  0999 V2000
    4.2098   -1.2990    0.0000 C   0  0  0  0  0  0  0  0  0  0  0  0
    3.4598   -0.0000    0.0000 O   0  0  0  0  0  0  0  0  0  0  0  0
    1.9598    0.0000    0.0000 C   0  0  0  0  0  0  0  0  0  0  0  0
    1.3858   -1.3858    0.0000 C   0  0  0  0  0  0  0  0  0  0  0  0
   -0.0000   -1.9598    0.0000 C   0  0  0  0  0  0  0  0  0  0  0  0
   -1.3858   -1.3858    0.0000 C   0  0  0  0  0  0  0  0  0  0  0  0
   -1.9598    0.0000    0.0000 C   0  0  0  0  0  0  0  0  0  0  0  0
   -1.3858    1.3858    0.0000 C   0  0  0  0  0  0  0  0  0  0  0  0
   -2.4465    2.4465    0.0000 C   0  0  0  0  0  0  0  0  0  0  0  0
   -3.8954    2.0583    0.0000 O   0  0  0  0  0  0  0  0  0  0  0  0
   -2.0583    3.8954    0.0000 N   0  0  0  0  0  0  0  0  0  0  0  0
   -3.1189    4.9560    0.0000 C   0  0  0  0  0  0  0  0  0  0  0  0
   -2.7307    6.4049    0.0000 C   0  0  0  0  0  0  0  0  0  0  0  0
   -3.7913    7.4656    0.0000 N   0  0  0  0  0  0  0  0  0  0  0  0
   -5.2402    7.0773    0.0000 N   0  0  0  0  0  0  0  0  0  0  0  0
   -5.6285    5.6285    0.0000 N   0  0  0  0  0  0  0  0  0  0  0  0
   -4.5678    4.5678    0.0000 N   0  0  0  0  0  0  0  0  0  0  0  0
    0.0000    1.9598    0.0000 C   0  0  0  0  0  0  0  0  0  0  0  0
    1.3858    1.3858    0.0000 C   0  0  0  0  0  0  0  0  0  0  0  0
  1  2  1  0
  2  3  1  0
  3  4  1  0
  4  5  2  0
  5  6  1  0
  6  7  1  0
  7  8  2  0
  8  9  1  0
  9 10  2  0
  9 11  1  0
 11 12  1  0
 12 13  2  0
 13 14  1  0
 14 15  2  0
 15 16  1  0
 16 17  2  0
  8 18  1  0
 18 19  1  0
 19  3  1  0
 17 12  1  0
M  END
>  <Title>  (533) 
idAASOgen6

$$$$

     RDKit          2D

 16 17  0  0  0  0  0  0  0  0999 V2000
   -6.2961   -1.6453    0.0000 C   0  0  0  0  0  0  0  0  0  0  0  0
   -5.1814   -2.6490    0.0000 C   0  0  0  0  0  0  0  0  0  0  0  0
   -5.4933   -4.1162    0.0000 O   0  0  0  0  0  0  0  0  0  0  0  0
   -3.7548   -2.1855    0.0000 C   0  0  0  0  0  0  0  0  0  0  0  0
   -3.4430   -0.7182    0.0000 O   0  0  0  0  0  0  0  0  0  0  0  0
   -2.6401   -3.1891    0.0000 C   0  0  0  0  0  0  0  0  0  0  0  0
   -1.2135   -2.7256    0.0000 N   0  0  0  0  0  0  0  0  0  0  0  0
   -0.0000   -3.6073    0.0000 C   0  0  0  0  0  0  0  0  0  0  0  0
   -0.0000   -5.1073    0.0000 O   0  0  0  0  0  0  0  0  0  0  0  0
    1.2135   -2.7256    0.0000 O   0  0  0  0  0  0  0  0  0  0  0  0
    0.7500   -1.2990    0.0000 C   0  0  0  0  0  0  0  0  0  0  0  0
    1.5000    0.0000    0.0000 C   0  0  0  0  0  0  0  0  0  0  0  0
    0.7500    1.2990    0.0000 C   0  0  0  0  0  0  0  0  0  0  0  0
   -0.7500    1.2990    0.0000 C   0  0  0  0  0  0  0  0  0  0  0  0
   -1.5000    0.0000    0.0000 C   0  0  0  0  0  0  0  0  0  0  0  0
   -0.7500   -1.2990    0.0000 C   0  0  0  0  0  0  0  0  0  0  0  0
  1  2  1  0
  2  3  2  0
  2  4  1  0
  4  5  2  0
  4  6  1  0
  6  7  1  0
  7  8  1  0
  8  9  2  0
  8 10  1  0
 10 11  1  0
 11 12  2  0
 12 13  1  0
 13 14  2  0
 14 15  1  0
 15 16  2  0
 16  7  1  0
 16 11  1  0
M  END
>  <Title>  (534) 
idAASPgen6

$$$$

     RDKit          2D

 22 23  0  0  0  0  0  0  0  0999 V2000
    6.0000   -7.7942    0.0000 C   0  0  0  0  0  0  0  0  0  0  0  0
    5.2500   -6.4952    0.0000 C   0  0  0  0  0  0  0  0  0  0  0  0
    6.0000   -5.1962    0.0000 O   0  0  0  0  0  0  0  0  0  0  0  0
    3.7500   -6.4952    0.0000 O   0  0  0  0  0  0  0  0  0  0  0  0
    3.0000   -5.1962    0.0000 C   0  0  0  0  0  0  0  0  0  0  0  0
    3.7500   -3.8971    0.0000 O   0  0  0  0  0  0  0  0  0  0  0  0
    1.5000   -5.1962    0.0000 C   0  0  0  0  0  0  0  0  0  0  0  0
    0.7500   -3.8971    0.0000 C   0  0  0  0  0  0  0  0  0  0  0  0
   -0.7500   -3.8971    0.0000 O   0  0  0  0  0  0  0  0  0  0  0  0
    1.5000   -2.5981    0.0000 N   0  0  0  0  0  0  0  0  0  0  0  0
    0.7500   -1.2990    0.0000 C   0  0  0  0  0  0  0  0  0  0  0  0
    1.5000    0.0000    0.0000 N   0  0  0  0  0  0  0  0  0  0  0  0
    0.7500    1.2990    0.0000 N   0  0  0  0  0  0  0  0  0  0  0  0
   -0.7500    1.2990    0.0000 N   0  0  0  0  0  0  0  0  0  0  0  0
   -1.5000    0.0000    0.0000 N   0  0  0  0  0  0  0  0  0  0  0  0
   -0.7500   -1.2990    0.0000 N   0  0  0  0  0  0  0  0  0  0  0  0
    0.7500   -6.4952    0.0000 C   0  0  0  0  0  0  0  0  0  0  0  0
   -0.7500   -6.4952    0.0000 C   0  0  0  0  0  0  0  0  0  0  0  0
   -1.5000   -7.7942    0.0000 C   0  0  0  0  0  0  0  0  0  0  0  0
   -0.7500   -9.0933    0.0000 C   0  0  0  0  0  0  0  0  0  0  0  0
    0.7500   -9.0933    0.0000 C   0  0  0  0  0  0  0  0  0  0  0  0
    1.5000   -7.7942    0.0000 C   0  0  0  0  0  0  0  0  0  0  0  0
  1  2  1  0
  2  3  2  0
  2  4  1  0
  4  5  1  0
  5  6  2  0
  5  7  1  0
  7  8  1  0
  8  9  2  0
  8 10  1  0
 10 11  1  0
 11 12  2  0
 12 13  1  0
 13 14  2  0
 14 15  1  0
 15 16  2  0
  7 17  1  0
 17 18  2  0
 18 19  1  0
 19 20  2  0
 20 21  1  0
 21 22  2  0
 16 11  1  0
 22 17  1  0
M  END
>  <Title>  (535) 
idAASQgen6

$$$$

     RDKit          2D

 14 15  0  0  0  0  0  0  0  0999 V2000
    3.7500   -1.2990    0.0000 C   0  0  0  0  0  0  0  0  0  0  0  0
    3.0000    0.0000    0.0000 O   0  0  0  0  0  0  0  0  0  0  0  0
    1.5000    0.0000    0.0000 C   0  0  0  0  0  0  0  0  0  0  0  0
    0.7500   -1.2990    0.0000 C   0  0  0  0  0  0  0  0  0  0  0  0
   -0.7500   -1.2990    0.0000 C   0  0  0  0  0  0  0  0  0  0  0  0
   -1.5000    0.0000    0.0000 C   0  0  0  0  0  0  0  0  0  0  0  0
   -0.7500    1.2990    0.0000 C   0  0  0  0  0  0  0  0  0  0  0  0
   -1.5000    2.5981    0.0000 C   0  0  0  0  0  0  0  0  0  0  0  0
   -0.7500    3.8971    0.0000 C   0  0  0  0  0  0  0  0  0  0  0  0
   -1.5000    5.1962    0.0000 N   0  0  0  0  0  0  0  0  0  0  0  0
   -3.0000    5.1962    0.0000 N   0  0  0  0  0  0  0  0  0  0  0  0
   -3.7500    3.8971    0.0000 N   0  0  0  0  0  0  0  0  0  0  0  0
   -3.0000    2.5981    0.0000 N   0  0  0  0  0  0  0  0  0  0  0  0
    0.7500    1.2990    0.0000 C   0  0  0  0  0  0  0  0  0  0  0  0
  1  2  1  0
  2  3  1  0
  3  4  2  0
  4  5  1  0
  5  6  2  0
  6  7  1  0
  7  8  1  0
  8  9  2  0
  9 10  1  0
 10 11  2  0
 11 12  1  0
 12 13  2  0
  7 14  1  0
 14  3  1  0
 13  8  1  0
M  END
>  <Title>  (536) 
idAASRgen6

$$$$

     RDKit          2D

  6  6  0  0  0  0  0  0  0  0999 V2000
    2.7760    0.0000    0.0000 C   0  0  0  0  0  0  0  0  0  0  0  0
    1.2760    0.0000    0.0000 C   0  0  0  0  0  0  0  0  0  0  0  0
    0.3943    1.2135    0.0000 C   0  0  0  0  0  0  0  0  0  0  0  0
   -1.0323    0.7500    0.0000 C   0  0  0  0  0  0  0  0  0  0  0  0
   -1.0323   -0.7500    0.0000 C   0  0  0  0  0  0  0  0  0  0  0  0
    0.3943   -1.2135    0.0000 C   0  0  0  0  0  0  0  0  0  0  0  0
  1  2  1  0
  2  3  1  0
  3  4  1  0
  4  5  1  0
  5  6  1  0
  6  2  1  0
M  END
>  <Title>  (537) 
idAASSgen6

$$$$

     RDKit          2D

  9  8  0  0  0  0  0  0  0  0999 V2000
    0.0000    0.0000    0.0000 C   0  0  0  0  0  0  0  0  0  0  0  0
    1.2990    0.7500    0.0000 C   0  0  0  0  0  0  0  0  0  0  0  0
    2.5981    1.5000    0.0000 C   0  0  0  0  0  0  0  0  0  0  0  0
    3.8971    2.2500    0.0000 C   0  0  0  0  0  0  0  0  0  0  0  0
    3.8971    3.7500    0.0000 C   0  0  0  0  0  0  0  0  0  0  0  0
    3.8971    5.2500    0.0000 N   0  0  0  0  0  0  0  0  0  0  0  0
    5.1962    1.5000    0.0000 C   0  0  0  0  0  0  0  0  0  0  0  0
    6.4952    2.2500    0.0000 C   0  0  0  0  0  0  0  0  0  0  0  0
    7.7942    3.0000    0.0000 N   0  0  0  0  0  0  0  0  0  0  0  0
  1  2  1  0
  2  3  3  0
  3  4  1  0
  4  5  1  0
  5  6  3  0
  4  7  1  0
  7  8  1  0
  8  9  3  0
M  END
>  <Title>  (538) 
idAASTgen6

$$$$

     RDKit          2D

 44 49  0  0  0  0  0  0  0  0999 V2000
   -9.1056    1.9033    0.0000 C   0  0  0  0  0  0  0  0  0  0  0  0
   -7.8921    1.0216    0.0000 C   0  0  0  0  0  0  0  0  0  0  0  0
   -8.0489   -0.4702    0.0000 O   0  0  0  0  0  0  0  0  0  0  0  0
   -6.5218    1.6317    0.0000 C   0  0  0  0  0  0  0  0  0  0  0  0
   -6.3650    3.1235    0.0000 O   0  0  0  0  0  0  0  0  0  0  0  0
   -5.3083    0.7500    0.0000 N   0  0  0  0  0  0  0  0  0  0  0  0
   -3.8817    1.2135    0.0000 C   0  0  0  0  0  0  0  0  0  0  0  0
   -3.0000    0.0000    0.0000 C   0  0  0  0  0  0  0  0  0  0  0  0
   -1.5000    0.0000    0.0000 C   0  0  0  0  0  0  0  0  0  0  0  0
   -0.7500    1.2990    0.0000 C   0  0  0  0  0  0  0  0  0  0  0  0
    0.7500    1.2990    0.0000 C   0  0  0  0  0  0  0  0  0  0  0  0
    1.5000   -0.0000    0.0000 C   0  0  0  0  0  0  0  0  0  0  0  0
    3.0000   -0.0000    0.0000 O   0  0  0  0  0  0  0  0  0  0  0  0
    0.7500   -1.2990    0.0000 C   0  0  0  0  0  0  0  0  0  0  0  0
   -0.7500   -1.2990    0.0000 C   0  0  0  0  0  0  0  0  0  0  0  0
   -1.5000   -2.5981    0.0000 C   0  0  0  0  0  0  0  0  0  0  0  0
   -3.0000   -2.5981    0.0000 C   0  0  0  0  0  0  0  0  0  0  0  0
   -3.7500   -3.8971    0.0000 C   0  0  0  0  0  0  0  0  0  0  0  0
   -3.0000   -5.1962    0.0000 C   0  0  0  0  0  0  0  0  0  0  0  0
   -3.7500   -6.4952    0.0000 C   0  0  0  0  0  0  0  0  0  0  0  0
   -4.5000   -7.7942    0.0000 N   0  0  0  0  0  0  0  0  0  0  0  0
   -1.5000   -5.1962    0.0000 C   0  0  0  0  0  0  0  0  0  0  0  0
   -0.7500   -3.8971    0.0000 C   0  0  0  0  0  0  0  0  0  0  0  0
    0.7500   -3.8971    0.0000 C   0  0  0  0  0  0  0  0  0  0  0  0
    1.5000   -2.5981    0.0000 C   0  0  0  0  0  0  0  0  0  0  0  0
    3.0000   -2.5981    0.0000 C   0  0  0  0  0  0  0  0  0  0  0  0
    3.7500   -3.8971    0.0000 C   0  0  0  0  0  0  0  0  0  0  0  0
    3.0000   -5.1962    0.0000 C   0  0  0  0  0  0  0  0  0  0  0  0
    1.5000   -5.1962    0.0000 C   0  0  0  0  0  0  0  0  0  0  0  0
    0.7500   -6.4952    0.0000 C   0  0  0  0  0  0  0  0  0  0  0  0
   -0.7500   -6.4952    0.0000 C   0  0  0  0  0  0  0  0  0  0  0  0
   -1.5000   -7.7942    0.0000 C   0  0  0  0  0  0  0  0  0  0  0  0
   -0.7500   -9.0933    0.0000 C   0  0  0  0  0  0  0  0  0  0  0  0
    0.7500   -9.0933    0.0000 C   0  0  0  0  0  0  0  0  0  0  0  0
    1.5000   -7.7942    0.0000 C   0  0  0  0  0  0  0  0  0  0  0  0
    3.0000   -7.7942    0.0000 C   0  0  0  0  0  0  0  0  0  0  0  0
    3.7500   -6.4952    0.0000 C   0  0  0  0  0  0  0  0  0  0  0  0
    5.2500   -6.4952    0.0000 C   0  0  0  0  0  0  0  0  0  0  0  0
    6.0000   -7.7942    0.0000 C   0  0  0  0  0  0  0  0  0  0  0  0
    5.2500   -9.0933    0.0000 C   0  0  0  0  0  0  0  0  0  0  0  0
    3.7500   -9.0933    0.0000 C   0  0  0  0  0  0  0  0  0  0  0  0
    3.0000  -10.3923    0.0000 O   0  0  0  0  0  0  0  0  0  0  0  0
   -3.8817   -1.2135    0.0000 C   0  0  0  0  0  0  0  0  0  0  0  0
   -5.3083   -0.7500    0.0000 C   0  0  0  0  0  0  0  0  0  0  0  0
  1  2  1  0
  2  3  2  0
  2  4  1  0
  4  5  2  0
  4  6  1  0
  6  7  1  0
  7  8  2  0
  8  9  1  0
  9 10  2  0
 10 11  1  0
 11 12  2  0
 12 13  1  0
 12 14  1  0
 14 15  2  0
 15 16  1  0
 16 17  2  0
 17 18  1  0
 18 19  2  0
 19 20  1  0
 20 21  3  0
 19 22  1  0
 22 23  2  0
 23 24  1  0
 24 25  2  0
 25 26  1  0
 26 27  2  0
 27 28  1  0
 28 29  2  0
 29 30  1  0
 30 31  2  0
 31 32  1  0
 32 33  2  0
 33 34  1  0
 34 35  2  0
 35 36  1  0
 36 37  2  0
 37 38  1  0
 38 39  2  0
 39 40  1  0
 40 41  2  0
 41 42  1  0
  8 43  1  0
 43 44  1  0
 44  6  1  0
 15  9  1  0
 23 16  1  0
 29 24  1  0
 35 30  1  0
 41 36  1  0
M  END
>  <Title>  (539) 
idAASUgen6

$$$$

     RDKit          2D

 42 46  0  0  0  0  0  0  0  0999 V2000
   -1.5453    4.4577    0.0000 C   0  0  0  0  0  0  0  0  0  0  0  0
   -2.5095    3.3086    0.0000 C   0  0  0  0  0  0  0  0  0  0  0  0
   -1.5453    2.1595    0.0000 C   0  0  0  0  0  0  0  0  0  0  0  0
   -1.0323    0.7500    0.0000 C   0  0  0  0  0  0  0  0  0  0  0  0
    0.3943    1.2135    0.0000 C   0  0  0  0  0  0  0  0  0  0  0  0
    0.8578    2.6401    0.0000 N   0  0  0  0  0  0  0  0  0  0  0  0
    2.3250    2.9520    0.0000 C   0  0  0  0  0  0  0  0  0  0  0  0
    3.3287    1.8373    0.0000 O   0  0  0  0  0  0  0  0  0  0  0  0
    2.7886    4.3786    0.0000 C   0  0  0  0  0  0  0  0  0  0  0  0
    4.2558    4.6904    0.0000 C   0  0  0  0  0  0  0  0  0  0  0  0
    4.7193    6.1170    0.0000 C   0  0  0  0  0  0  0  0  0  0  0  0
    3.7156    7.2317    0.0000 C   0  0  0  0  0  0  0  0  0  0  0  0
    2.2484    6.9199    0.0000 C   0  0  0  0  0  0  0  0  0  0  0  0
    1.7849    5.4933    0.0000 C   0  0  0  0  0  0  0  0  0  0  0  0
    1.2760    0.0000    0.0000 C   0  0  0  0  0  0  0  0  0  0  0  0
    0.3943   -1.2135    0.0000 C   0  0  0  0  0  0  0  0  0  0  0  0
   -1.0323   -0.7500    0.0000 C   0  0  0  0  0  0  0  0  0  0  0  0
   -1.5453   -2.1595    0.0000 C   0  0  0  0  0  0  0  0  0  0  0  0
   -2.5095   -3.3086    0.0000 C   0  0  0  0  0  0  0  0  0  0  0  0
   -3.8085   -4.0586    0.0000 C   0  0  0  0  0  0  0  0  0  0  0  0
   -5.2857   -4.3191    0.0000 C   0  0  0  0  0  0  0  0  0  0  0  0
   -6.7630   -4.0586    0.0000 C   0  0  0  0  0  0  0  0  0  0  0  0
   -8.0620   -3.3086    0.0000 C   0  0  0  0  0  0  0  0  0  0  0  0
   -9.0262   -2.1595    0.0000 C   0  0  0  0  0  0  0  0  0  0  0  0
   -9.5392   -0.7500    0.0000 C   0  0  0  0  0  0  0  0  0  0  0  0
   -9.5392    0.7500    0.0000 C   0  0  0  0  0  0  0  0  0  0  0  0
   -9.0262    2.1595    0.0000 C   0  0  0  0  0  0  0  0  0  0  0  0
   -8.0620    3.3086    0.0000 C   0  0  0  0  0  0  0  0  0  0  0  0
   -6.7630    4.0586    0.0000 C   0  0  0  0  0  0  0  0  0  0  0  0
   -5.2857    4.3191    0.0000 C   0  0  0  0  0  0  0  0  0  0  0  0
   -3.8085    4.0586    0.0000 C   0  0  0  0  0  0  0  0  0  0  0  0
   -3.9315   -5.2692    0.0000 C   0  0  0  0  0  0  0  0  0  0  0  0
   -2.4826   -5.6575    0.0000 C   0  0  0  0  0  0  0  0  0  0  0  0
   -2.2868   -7.1446    0.0000 C   0  0  0  0  0  0  0  0  0  0  0  0
   -3.4768   -8.0578    0.0000 C   0  0  0  0  0  0  0  0  0  0  0  0
   -3.2810   -9.5449    0.0000 C   0  0  0  0  0  0  0  0  0  0  0  0
   -1.8952  -10.1190    0.0000 C   0  0  0  0  0  0  0  0  0  0  0  0
   -0.7052   -9.2058    0.0000 C   0  0  0  0  0  0  0  0  0  0  0  0
   -0.9010   -7.7187    0.0000 C   0  0  0  0  0  0  0  0  0  0  0  0
   -1.1835   -4.9075    0.0000 C   0  0  0  0  0  0  0  0  0  0  0  0
    0.0065   -5.8206    0.0000 O   0  0  0  0  0  0  0  0  0  0  0  0
   -0.7953   -3.4586    0.0000 N   0  0  0  0  0  0  0  0  0  0  0  0
  1  2  1  0
  2  3  1  0
  3  4  2  0
  4  5  1  0
  5  6  1  0
  6  7  1  0
  7  8  2  0
  7  9  1  0
  9 10  2  0
 10 11  1  0
 11 12  1  0
 12 13  1  0
 13 14  1  0
  5 15  2  0
 15 16  1  0
 16 17  2  0
 17 18  1  0
 18 19  1  0
 19 20  1  0
 20 21  1  0
 21 22  1  0
 22 23  1  0
 23 24  1  0
 24 25  1  0
 25 26  1  0
 26 27  1  0
 27 28  1  0
 28 29  1  0
 29 30  1  0
 30 31  1  0
 21 32  1  0
 32 33  1  0
 33 34  1  0
 34 35  2  0
 35 36  1  0
 36 37  2  0
 37 38  1  0
 38 39  2  0
 33 40  1  0
 40 41  2  0
 40 42  1  0
 31  2  1  0
 39 34  1  0
 17  4  1  0
 42 18  1  0
 14  9  1  0
M  END
>  <Title>  (540) 
idAASVgen6

$$$$

     RDKit          2D

 27 30  0  0  0  0  0  0  0  0999 V2000
    1.1225    6.9296    0.0000 O   0  0  0  0  0  0  0  0  0  0  0  0
   -0.0362    5.9769    0.0000 C   0  0  0  0  0  0  0  0  0  0  0  0
    0.2096    4.4972    0.0000 N   0  0  0  0  0  0  0  0  0  0  0  0
    1.6139    3.9701    0.0000 C   0  0  0  0  0  0  0  0  0  0  0  0
    2.8658    4.7965    0.0000 N   0  0  0  0  0  0  0  0  0  0  0  0
    4.0385    3.8613    0.0000 N   0  0  0  0  0  0  0  0  0  0  0  0
    3.5115    2.4569    0.0000 N   0  0  0  0  0  0  0  0  0  0  0  0
    2.0130    2.5242    0.0000 N   0  0  0  0  0  0  0  0  0  0  0  0
    1.0777    1.3515    0.0000 N   0  0  0  0  0  0  0  0  0  0  0  0
    1.7286    0.0000    0.0000 C   0  0  0  0  0  0  0  0  0  0  0  0
    1.0777   -1.3515    0.0000 C   0  0  0  0  0  0  0  0  0  0  0  0
   -0.3846   -1.6852    0.0000 C   0  0  0  0  0  0  0  0  0  0  0  0
   -1.5574   -0.7500    0.0000 C   0  0  0  0  0  0  0  0  0  0  0  0
   -2.9088   -1.4008    0.0000 C   0  0  0  0  0  0  0  0  0  0  0  0
   -4.1482   -0.5558    0.0000 C   0  0  0  0  0  0  0  0  0  0  0  0
   -5.4997   -1.2067    0.0000 C   0  0  0  0  0  0  0  0  0  0  0  0
   -5.6118   -2.7025    0.0000 C   0  0  0  0  0  0  0  0  0  0  0  0
   -4.3724   -3.5475    0.0000 C   0  0  0  0  0  0  0  0  0  0  0  0
   -3.0209   -2.8966    0.0000 C   0  0  0  0  0  0  0  0  0  0  0  0
   -1.5574    0.7500    0.0000 C   0  0  0  0  0  0  0  0  0  0  0  0
   -0.3846    1.6852    0.0000 C   0  0  0  0  0  0  0  0  0  0  0  0
   -1.4405    6.5040    0.0000 C   0  0  0  0  0  0  0  0  0  0  0  0
   -1.6862    7.9837    0.0000 C   0  0  0  0  0  0  0  0  0  0  0  0
   -3.0906    8.5108    0.0000 C   0  0  0  0  0  0  0  0  0  0  0  0
   -4.2492    7.5581    0.0000 C   0  0  0  0  0  0  0  0  0  0  0  0
   -4.0035    6.0784    0.0000 C   0  0  0  0  0  0  0  0  0  0  0  0
   -2.5991    5.5513    0.0000 C   0  0  0  0  0  0  0  0  0  0  0  0
  1  2  2  0
  2  3  1  0
  3  4  1  0
  4  5  2  0
  5  6  1  0
  6  7  2  0
  7  8  1  0
  8  9  1  0
  9 10  1  0
 10 11  1  0
 11 12  1  0
 12 13  1  0
 13 14  1  0
 14 15  2  0
 15 16  1  0
 16 17  2  0
 17 18  1  0
 18 19  2  0
 13 20  1  0
 20 21  1  0
  2 22  1  0
 22 23  2  0
 23 24  1  0
 24 25  2  0
 25 26  1  0
 26 27  2  0
  8  4  1  0
 21  9  1  0
 27 22  1  0
 19 14  1  0
M  END
>  <Title>  (541) 
idAASWgen6

$$$$

     RDKit          2D

  7  6  0  0  0  0  0  0  0  0999 V2000
    0.0000    0.0000    0.0000 C   0  0  0  0  0  0  0  0  0  0  0  0
    1.2990    0.7500    0.0000 C   0  0  0  0  0  0  0  0  0  0  0  0
    2.5981    1.5000    0.0000 C   0  0  0  0  0  0  0  0  0  0  0  0
    2.0490   -0.5490    0.0000 C   0  0  0  0  0  0  0  0  0  0  0  0
    0.5490    2.0490    0.0000 C   0  0  0  0  0  0  0  0  0  0  0  0
   -0.2010    3.3481    0.0000 C   0  0  0  0  0  0  0  0  0  0  0  0
   -0.9510    4.6471    0.0000 N   0  0  0  0  0  0  0  0  0  0  0  0
  1  2  1  0
  2  3  1  0
  2  4  1  0
  2  5  1  0
  5  6  3  0
  6  7  1  0
M  END
>  <Title>  (542) 
idAASXgen6

$$$$

     RDKit          2D

 24 26  0  0  0  0  0  0  0  0999 V2000
   -3.1981   -1.5132    0.0000 C   0  0  0  0  0  0  0  0  0  0  0  0
   -1.8991   -2.2632    0.0000 C   0  0  0  0  0  0  0  0  0  0  0  0
   -2.1595   -3.7404    0.0000 C   0  0  0  0  0  0  0  0  0  0  0  0
   -1.4095   -5.0395    0.0000 C   0  0  0  0  0  0  0  0  0  0  0  0
   -0.0000   -5.5525    0.0000 C   0  0  0  0  0  0  0  0  0  0  0  0
    1.4095   -5.0395    0.0000 C   0  0  0  0  0  0  0  0  0  0  0  0
    2.3737   -6.1885    0.0000 C   0  0  0  0  0  0  0  0  0  0  0  0
    3.8509   -5.9281    0.0000 O   0  0  0  0  0  0  0  0  0  0  0  0
    1.8607   -7.5981    0.0000 N   0  0  0  0  0  0  0  0  0  0  0  0
    2.8249   -8.7471    0.0000 C   0  0  0  0  0  0  0  0  0  0  0  0
    2.3118  -10.1567    0.0000 N   0  0  0  0  0  0  0  0  0  0  0  0
    3.2760  -11.3057    0.0000 N   0  0  0  0  0  0  0  0  0  0  0  0
    4.7532  -11.0453    0.0000 N   0  0  0  0  0  0  0  0  0  0  0  0
    5.2663   -9.6357    0.0000 N   0  0  0  0  0  0  0  0  0  0  0  0
    4.3021   -8.4867    0.0000 N   0  0  0  0  0  0  0  0  0  0  0  0
    2.1595   -3.7404    0.0000 C   0  0  0  0  0  0  0  0  0  0  0  0
    3.6368   -4.0009    0.0000 O   0  0  0  0  0  0  0  0  0  0  0  0
    1.8991   -2.2632    0.0000 O   0  0  0  0  0  0  0  0  0  0  0  0
    0.7500   -1.2990    0.0000 C   0  0  0  0  0  0  0  0  0  0  0  0
    1.5000    0.0000    0.0000 C   0  0  0  0  0  0  0  0  0  0  0  0
    0.7500    1.2990    0.0000 C   0  0  0  0  0  0  0  0  0  0  0  0
   -0.7500    1.2990    0.0000 C   0  0  0  0  0  0  0  0  0  0  0  0
   -1.5000    0.0000    0.0000 C   0  0  0  0  0  0  0  0  0  0  0  0
   -0.7500   -1.2990    0.0000 C   0  0  0  0  0  0  0  0  0  0  0  0
  1  2  1  0
  2  3  1  0
  3  4  2  0
  4  5  1  0
  5  6  2  0
  6  7  1  0
  7  8  2  0
  7  9  1  0
  9 10  1  0
 10 11  2  0
 11 12  1  0
 12 13  2  0
 13 14  1  0
 14 15  2  0
  6 16  1  0
 16 17  2  0
 16 18  1  0
 18 19  1  0
 19 20  2  0
 20 21  1  0
 21 22  2  0
 22 23  1  0
 23 24  2  0
 24  2  1  0
 15 10  1  0
 24 19  1  0
M  END
>  <Title>  (543) 
idAASYgen6

$$$$

     RDKit          2D

 20 21  0  0  0  0  0  0  0  0999 V2000
    5.2500   -1.2990    0.0000 C   0  0  0  0  0  0  0  0  0  0  0  0
    3.7500   -1.2990    0.0000 C   0  0  0  0  0  0  0  0  0  0  0  0
    3.0000   -2.5981    0.0000 O   0  0  0  0  0  0  0  0  0  0  0  0
    3.0000    0.0000    0.0000 C   0  0  0  0  0  0  0  0  0  0  0  0
    3.7500    1.2990    0.0000 O   0  0  0  0  0  0  0  0  0  0  0  0
    1.5000    0.0000    0.0000 N   0  0  0  0  0  0  0  0  0  0  0  0
    0.7500   -1.2990    0.0000 C   0  0  0  0  0  0  0  0  0  0  0  0
   -0.7500   -1.2990    0.0000 C   0  0  0  0  0  0  0  0  0  0  0  0
   -1.5000    0.0000    0.0000 C   0  0  0  0  0  0  0  0  0  0  0  0
   -3.0000    0.0000    0.0000 C   0  0  0  0  0  0  0  0  0  0  0  0
   -3.7500   -1.2990    0.0000 O   0  0  0  0  0  0  0  0  0  0  0  0
   -3.7500    1.2990    0.0000 N   0  0  0  0  0  0  0  0  0  0  0  0
   -5.2500    1.2990    0.0000 C   0  0  0  0  0  0  0  0  0  0  0  0
   -6.0000    2.5981    0.0000 C   0  0  0  0  0  0  0  0  0  0  0  0
   -7.5000    2.5981    0.0000 C   0  0  0  0  0  0  0  0  0  0  0  0
   -8.2500    1.2990    0.0000 C   0  0  0  0  0  0  0  0  0  0  0  0
   -7.5000    0.0000    0.0000 C   0  0  0  0  0  0  0  0  0  0  0  0
   -6.0000    0.0000    0.0000 C   0  0  0  0  0  0  0  0  0  0  0  0
   -0.7500    1.2990    0.0000 C   0  0  0  0  0  0  0  0  0  0  0  0
    0.7500    1.2990    0.0000 C   0  0  0  0  0  0  0  0  0  0  0  0
  1  2  1  0
  2  3  2  0
  2  4  1  0
  4  5  2  0
  4  6  1  0
  6  7  1  0
  7  8  1  0
  8  9  1  0
  9 10  1  0
 10 11  2  0
 10 12  1  0
 12 13  1  0
 13 14  2  0
 14 15  1  0
 15 16  2  0
 16 17  1  0
 17 18  2  0
  9 19  1  0
 19 20  1  0
 20  6  1  0
 18 13  1  0
M  END
>  <Title>  (544) 
idAASZgen6

$$$$

     RDKit          2D

 36 37  0  0  0  0  0  0  0  0999 V2000
    7.1751    0.0000    0.0000 C   0  0  0  0  0  0  0  0  0  0  0  0
    7.0183   -1.4918    0.0000 C   0  0  0  0  0  0  0  0  0  0  0  0
    6.5548   -2.9184    0.0000 C   0  0  0  0  0  0  0  0  0  0  0  0
    5.8048   -4.2174    0.0000 C   0  0  0  0  0  0  0  0  0  0  0  0
    4.8011   -5.3321    0.0000 C   0  0  0  0  0  0  0  0  0  0  0  0
    3.5875   -6.2138    0.0000 C   0  0  0  0  0  0  0  0  0  0  0  0
    2.2172   -6.8239    0.0000 C   0  0  0  0  0  0  0  0  0  0  0  0
    0.7500   -7.1358    0.0000 C   0  0  0  0  0  0  0  0  0  0  0  0
   -0.7500   -7.1358    0.0000 C   0  0  0  0  0  0  0  0  0  0  0  0
   -2.2172   -6.8239    0.0000 C   0  0  0  0  0  0  0  0  0  0  0  0
   -3.5875   -6.2138    0.0000 C   0  0  0  0  0  0  0  0  0  0  0  0
   -4.8011   -5.3321    0.0000 C   0  0  0  0  0  0  0  0  0  0  0  0
   -5.8048   -4.2174    0.0000 C   0  0  0  0  0  0  0  0  0  0  0  0
   -6.5548   -2.9184    0.0000 C   0  0  0  0  0  0  0  0  0  0  0  0
   -7.9251   -3.5285    0.0000 C   0  0  0  0  0  0  0  0  0  0  0  0
   -9.1386   -2.6468    0.0000 N   0  0  0  0  0  0  0  0  0  0  0  0
  -10.5089   -3.2569    0.0000 N   0  0  0  0  0  0  0  0  0  0  0  0
  -10.6657   -4.7487    0.0000 N   0  0  0  0  0  0  0  0  0  0  0  0
   -9.4522   -5.6304    0.0000 N   0  0  0  0  0  0  0  0  0  0  0  0
   -8.0819   -5.0203    0.0000 N   0  0  0  0  0  0  0  0  0  0  0  0
   -7.0183   -1.4918    0.0000 N   0  0  0  0  0  0  0  0  0  0  0  0
   -7.1751    0.0000    0.0000 C   0  0  0  0  0  0  0  0  0  0  0  0
   -7.0183    1.4918    0.0000 C   0  0  0  0  0  0  0  0  0  0  0  0
   -6.5548    2.9184    0.0000 C   0  0  0  0  0  0  0  0  0  0  0  0
   -5.8048    4.2174    0.0000 N   0  0  0  0  0  0  0  0  0  0  0  0
   -4.8011    5.3321    0.0000 C   0  0  0  0  0  0  0  0  0  0  0  0
   -3.5875    6.2138    0.0000 C   0  0  0  0  0  0  0  0  0  0  0  0
   -2.2172    6.8239    0.0000 C   0  0  0  0  0  0  0  0  0  0  0  0
   -0.7500    7.1358    0.0000 C   0  0  0  0  0  0  0  0  0  0  0  0
    0.7500    7.1358    0.0000 C   0  0  0  0  0  0  0  0  0  0  0  0
    2.2172    6.8239    0.0000 C   0  0  0  0  0  0  0  0  0  0  0  0
    3.5875    6.2138    0.0000 C   0  0  0  0  0  0  0  0  0  0  0  0
    4.8011    5.3321    0.0000 C   0  0  0  0  0  0  0  0  0  0  0  0
    5.8048    4.2174    0.0000 C   0  0  0  0  0  0  0  0  0  0  0  0
    6.5548    2.9184    0.0000 C   0  0  0  0  0  0  0  0  0  0  0  0
    7.0183    1.4918    0.0000 C   0  0  0  0  0  0  0  0  0  0  0  0
  1  2  1  0
  2  3  1  0
  3  4  1  0
  4  5  1  0
  5  6  1  0
  6  7  1  0
  7  8  1  0
  8  9  1  0
  9 10  1  0
 10 11  1  0
 11 12  1  0
 12 13  1  0
 13 14  1  0
 14 15  1  0
 15 16  2  0
 16 17  1  0
 17 18  2  0
 18 19  1  0
 19 20  2  0
 14 21  1  0
 21 22  1  0
 22 23  1  0
 23 24  1  0
 24 25  1  0
 25 26  1  0
 26 27  1  0
 27 28  1  0
 28 29  1  0
 29 30  1  0
 30 31  1  0
 31 32  1  0
 32 33  1  0
 33 34  1  0
 34 35  1  0
 35 36  1  0
 36  1  1  0
 20 15  1  0
M  END
>  <Title>  (545) 
idAATAgen6

$$$$

     RDKit          2D

 32 36  0  0  0  0  0  0  0  0999 V2000
   -1.6317   -0.0855    0.0000 C   0  0  0  0  0  0  0  0  0  0  0  0
   -0.7500   -1.2990    0.0000 C   0  0  0  0  0  0  0  0  0  0  0  0
    0.7500   -1.2990    0.0000 C   0  0  0  0  0  0  0  0  0  0  0  0
    1.2135   -2.7256    0.0000 C   0  0  0  0  0  0  0  0  0  0  0  0
    2.6401   -3.1891    0.0000 C   0  0  0  0  0  0  0  0  0  0  0  0
    2.9520   -4.6564    0.0000 C   0  0  0  0  0  0  0  0  0  0  0  0
    4.3786   -5.1199    0.0000 C   0  0  0  0  0  0  0  0  0  0  0  0
    5.4933   -4.1162    0.0000 C   0  0  0  0  0  0  0  0  0  0  0  0
    5.1814   -2.6490    0.0000 C   0  0  0  0  0  0  0  0  0  0  0  0
    3.7548   -2.1855    0.0000 C   0  0  0  0  0  0  0  0  0  0  0  0
    3.4430   -0.7182    0.0000 C   0  0  0  0  0  0  0  0  0  0  0  0
    2.0726   -0.1081    0.0000 C   0  0  0  0  0  0  0  0  0  0  0  0
    2.2294    1.3837    0.0000 C   0  0  0  0  0  0  0  0  0  0  0  0
    3.6967    1.6955    0.0000 C   0  0  0  0  0  0  0  0  0  0  0  0
    4.3068    3.0658    0.0000 N   0  0  0  0  0  0  0  0  0  0  0  0
    5.7985    3.2226    0.0000 C   0  0  0  0  0  0  0  0  0  0  0  0
    6.6802    2.0091    0.0000 O   0  0  0  0  0  0  0  0  0  0  0  0
    6.4086    4.5930    0.0000 C   0  0  0  0  0  0  0  0  0  0  0  0
    7.9004    4.7497    0.0000 C   0  0  0  0  0  0  0  0  0  0  0  0
    8.5105    6.1201    0.0000 C   0  0  0  0  0  0  0  0  0  0  0  0
    7.6289    7.3336    0.0000 C   0  0  0  0  0  0  0  0  0  0  0  0
    8.2390    8.7039    0.0000 Cl  0  0  0  0  0  0  0  0  0  0  0  0
    6.1371    7.1768    0.0000 C   0  0  0  0  0  0  0  0  0  0  0  0
    5.5270    5.8065    0.0000 C   0  0  0  0  0  0  0  0  0  0  0  0
    4.4467    0.3965    0.0000 C   0  0  0  0  0  0  0  0  0  0  0  0
    5.9384    0.2397    0.0000 O   0  0  0  0  0  0  0  0  0  0  0  0
   -0.0000   -3.6073    0.0000 C   0  0  0  0  0  0  0  0  0  0  0  0
   -0.1568   -5.0991    0.0000 C   0  0  0  0  0  0  0  0  0  0  0  0
   -1.5271   -5.7092    0.0000 C   0  0  0  0  0  0  0  0  0  0  0  0
   -2.7406   -4.8275    0.0000 C   0  0  0  0  0  0  0  0  0  0  0  0
   -2.5838   -3.3357    0.0000 C   0  0  0  0  0  0  0  0  0  0  0  0
   -1.2135   -2.7256    0.0000 C   0  0  0  0  0  0  0  0  0  0  0  0
  1  2  1  0
  2  3  1  0
  3  4  2  0
  4  5  1  0
  5  6  2  0
  6  7  1  0
  7  8  2  0
  8  9  1  0
  9 10  2  0
 10 11  1  0
 11 12  2  0
 12 13  1  0
 13 14  2  0
 14 15  1  0
 15 16  1  0
 16 17  2  0
 16 18  1  0
 18 19  2  0
 19 20  1  0
 20 21  2  0
 21 22  1  0
 21 23  1  0
 23 24  2  0
 14 25  1  0
 25 26  2  0
  4 27  1  0
 27 28  2  0
 28 29  1  0
 29 30  2  0
 30 31  1  0
 31 32  2  0
 32  2  1  0
 10  5  1  0
 25 11  1  0
 32 27  1  0
 24 18  1  0
M  END
>  <Title>  (546) 
idAATBgen6

$$$$

     RDKit          2D

  7  7  0  0  0  0  0  0  0  0999 V2000
    3.5260   -1.2990    0.0000 C   0  0  0  0  0  0  0  0  0  0  0  0
    2.7760    0.0000    0.0000 C   0  0  0  0  0  0  0  0  0  0  0  0
    1.2760    0.0000    0.0000 C   0  0  0  0  0  0  0  0  0  0  0  0
    0.3943    1.2135    0.0000 C   0  0  0  0  0  0  0  0  0  0  0  0
   -1.0323    0.7500    0.0000 C   0  0  0  0  0  0  0  0  0  0  0  0
   -1.0323   -0.7500    0.0000 C   0  0  0  0  0  0  0  0  0  0  0  0
    0.3943   -1.2135    0.0000 C   0  0  0  0  0  0  0  0  0  0  0  0
  1  2  1  0
  2  3  1  0
  3  4  2  0
  4  5  1  0
  5  6  2  0
  6  7  1  0
  7  3  1  0
M  END
>  <Title>  (547) 
idAATCgen6

$$$$

     RDKit          2D

 24 27  0  0  0  0  0  0  0  0999 V2000
    3.7500   -1.2990    0.0000 C   0  0  0  0  0  0  0  0  0  0  0  0
    3.0000    0.0000    0.0000 O   0  0  0  0  0  0  0  0  0  0  0  0
    1.5000    0.0000    0.0000 C   0  0  0  0  0  0  0  0  0  0  0  0
    0.7500   -1.2990    0.0000 C   0  0  0  0  0  0  0  0  0  0  0  0
   -0.7500   -1.2990    0.0000 C   0  0  0  0  0  0  0  0  0  0  0  0
   -1.5000    0.0000    0.0000 C   0  0  0  0  0  0  0  0  0  0  0  0
   -3.0000    0.0000    0.0000 C   0  0  0  0  0  0  0  0  0  0  0  0
   -4.0607    1.0607    0.0000 C   0  0  0  0  0  0  0  0  0  0  0  0
   -5.1213    0.0000    0.0000 C   0  0  0  0  0  0  0  0  0  0  0  0
   -4.0607   -1.0607    0.0000 C   0  0  0  0  0  0  0  0  0  0  0  0
   -4.0607   -2.5607    0.0000 C   0  0  0  0  0  0  0  0  0  0  0  0
   -2.7616   -3.3107    0.0000 C   0  0  0  0  0  0  0  0  0  0  0  0
   -2.7616   -4.8107    0.0000 C   0  0  0  0  0  0  0  0  0  0  0  0
   -4.0607   -5.5607    0.0000 C   0  0  0  0  0  0  0  0  0  0  0  0
   -5.3597   -4.8107    0.0000 C   0  0  0  0  0  0  0  0  0  0  0  0
   -5.3597   -3.3107    0.0000 C   0  0  0  0  0  0  0  0  0  0  0  0
   -6.6587   -2.5607    0.0000 C   0  0  0  0  0  0  0  0  0  0  0  0
   -7.9578   -3.3107    0.0000 C   0  0  0  0  0  0  0  0  0  0  0  0
   -9.2568   -2.5607    0.0000 C   0  0  0  0  0  0  0  0  0  0  0  0
   -9.2568   -1.0607    0.0000 C   0  0  0  0  0  0  0  0  0  0  0  0
   -7.9578   -0.3107    0.0000 C   0  0  0  0  0  0  0  0  0  0  0  0
   -6.6587   -1.0607    0.0000 C   0  0  0  0  0  0  0  0  0  0  0  0
   -0.7500    1.2990    0.0000 C   0  0  0  0  0  0  0  0  0  0  0  0
    0.7500    1.2990    0.0000 C   0  0  0  0  0  0  0  0  0  0  0  0
  1  2  1  0
  2  3  1  0
  3  4  2  0
  4  5  1  0
  5  6  2  0
  6  7  1  0
  7  8  1  0
  8  9  1  0
  9 10  1  0
 10 11  1  0
 11 12  2  0
 12 13  1  0
 13 14  2  0
 14 15  1  0
 15 16  2  0
 16 17  1  0
 17 18  2  0
 18 19  1  0
 19 20  2  0
 20 21  1  0
 21 22  2  0
  6 23  1  0
 23 24  1  0
 24  3  1  0
 10  7  1  0
 16 11  1  0
 22 17  1  0
M  END
>  <Title>  (548) 
idAATDgen6

$$$$

     RDKit          2D

 17 18  0  0  0  0  0  0  0  0999 V2000
    3.9271    0.0000    0.0000 C   0  0  0  0  0  0  0  0  0  0  0  0
    2.4271    0.0000    0.0000 C   0  0  0  0  0  0  0  0  0  0  0  0
    1.9635   -1.4266    0.0000 C   0  0  0  0  0  0  0  0  0  0  0  0
    0.7500   -2.3083    0.0000 C   0  0  0  0  0  0  0  0  0  0  0  0
   -0.7500   -2.3083    0.0000 C   0  0  0  0  0  0  0  0  0  0  0  0
   -1.9635   -1.4266    0.0000 C   0  0  0  0  0  0  0  0  0  0  0  0
   -2.4271    0.0000    0.0000 C   0  0  0  0  0  0  0  0  0  0  0  0
   -3.9271    0.0000    0.0000 C   0  0  0  0  0  0  0  0  0  0  0  0
   -4.6771    1.2990    0.0000 C   0  0  0  0  0  0  0  0  0  0  0  0
   -6.1771    1.2990    0.0000 C   0  0  0  0  0  0  0  0  0  0  0  0
   -6.9271   -0.0000    0.0000 C   0  0  0  0  0  0  0  0  0  0  0  0
   -6.1771   -1.2990    0.0000 C   0  0  0  0  0  0  0  0  0  0  0  0
   -4.6771   -1.2990    0.0000 C   0  0  0  0  0  0  0  0  0  0  0  0
   -1.9635    1.4266    0.0000 C   0  0  0  0  0  0  0  0  0  0  0  0
   -0.7500    2.3083    0.0000 C   0  0  0  0  0  0  0  0  0  0  0  0
    0.7500    2.3083    0.0000 C   0  0  0  0  0  0  0  0  0  0  0  0
    1.9635    1.4266    0.0000 C   0  0  0  0  0  0  0  0  0  0  0  0
  1  2  1  0
  2  3  1  0
  3  4  1  0
  4  5  1  0
  5  6  1  0
  6  7  1  0
  7  8  1  0
  8  9  2  0
  9 10  1  0
 10 11  2  0
 11 12  1  0
 12 13  2  0
  7 14  1  0
 14 15  1  0
 15 16  1  0
 16 17  1  0
 17  2  1  0
 13  8  1  0
M  END
>  <Title>  (549) 
idAATEgen6

$$$$

     RDKit          2D

 11 11  0  0  0  0  0  0  0  0999 V2000
    2.7760    0.0000    0.0000 C   0  0  0  0  0  0  0  0  0  0  0  0
    1.2760    0.0000    0.0000 C   0  0  0  0  0  0  0  0  0  0  0  0
    0.3943    1.2135    0.0000 C   0  0  0  0  0  0  0  0  0  0  0  0
   -1.0323    0.7500    0.0000 C   0  0  0  0  0  0  0  0  0  0  0  0
   -2.2458    1.6317    0.0000 O   0  0  0  0  0  0  0  0  0  0  0  0
   -1.0323   -0.7500    0.0000 C   0  0  0  0  0  0  0  0  0  0  0  0
    0.3943   -1.2135    0.0000 C   0  0  0  0  0  0  0  0  0  0  0  0
    0.8578   -2.6401    0.0000 C   0  0  0  0  0  0  0  0  0  0  0  0
   -0.1459   -3.7548    0.0000 C   0  0  0  0  0  0  0  0  0  0  0  0
    0.3177   -5.1814    0.0000 C   0  0  0  0  0  0  0  0  0  0  0  0
    0.7812   -6.6080    0.0000 N   0  0  0  0  0  0  0  0  0  0  0  0
  1  2  1  0
  2  3  1  0
  3  4  2  0
  4  5  1  0
  4  6  1  0
  6  7  1  0
  7  8  1  0
  8  9  1  0
  9 10  1  0
 10 11  3  0
  7  2  1  0
M  END
>  <Title>  (550) 
idAATFgen6

$$$$

     RDKit          2D

 29 32  0  0  0  0  0  0  0  0999 V2000
   -3.1981   -1.5132    0.0000 C   0  0  0  0  0  0  0  0  0  0  0  0
   -1.8991   -2.2632    0.0000 C   0  0  0  0  0  0  0  0  0  0  0  0
   -2.1595   -3.7404    0.0000 C   0  0  0  0  0  0  0  0  0  0  0  0
   -1.4095   -5.0395    0.0000 C   0  0  0  0  0  0  0  0  0  0  0  0
   -0.0000   -5.5525    0.0000 C   0  0  0  0  0  0  0  0  0  0  0  0
    1.4095   -5.0395    0.0000 C   0  0  0  0  0  0  0  0  0  0  0  0
    2.3737   -6.1885    0.0000 C   0  0  0  0  0  0  0  0  0  0  0  0
    3.8509   -5.9281    0.0000 O   0  0  0  0  0  0  0  0  0  0  0  0
    1.8607   -7.5981    0.0000 N   0  0  0  0  0  0  0  0  0  0  0  0
    2.8249   -8.7471    0.0000 C   0  0  0  0  0  0  0  0  0  0  0  0
    2.3118  -10.1567    0.0000 C   0  0  0  0  0  0  0  0  0  0  0  0
    3.2760  -11.3057    0.0000 N   0  0  0  0  0  0  0  0  0  0  0  0
    4.7532  -11.0453    0.0000 N   0  0  0  0  0  0  0  0  0  0  0  0
    5.2663   -9.6357    0.0000 N   0  0  0  0  0  0  0  0  0  0  0  0
    4.3021   -8.4867    0.0000 N   0  0  0  0  0  0  0  0  0  0  0  0
    2.1595   -3.7404    0.0000 C   0  0  0  0  0  0  0  0  0  0  0  0
    3.5691   -4.2535    0.0000 C   0  0  0  0  0  0  0  0  0  0  0  0
    4.7181   -3.2893    0.0000 C   0  0  0  0  0  0  0  0  0  0  0  0
    4.4577   -1.8121    0.0000 C   0  0  0  0  0  0  0  0  0  0  0  0
    5.6067   -0.8479    0.0000 C   0  0  0  0  0  0  0  0  0  0  0  0
    6.7558    0.1163    0.0000 N   0  0  0  0  0  0  0  0  0  0  0  0
    3.0481   -1.2990    0.0000 C   0  0  0  0  0  0  0  0  0  0  0  0
    1.8991   -2.2632    0.0000 C   0  0  0  0  0  0  0  0  0  0  0  0
    0.7500   -1.2990    0.0000 C   0  0  0  0  0  0  0  0  0  0  0  0
    1.5000    0.0000    0.0000 C   0  0  0  0  0  0  0  0  0  0  0  0
    0.7500    1.2990    0.0000 C   0  0  0  0  0  0  0  0  0  0  0  0
   -0.7500    1.2990    0.0000 C   0  0  0  0  0  0  0  0  0  0  0  0
   -1.5000    0.0000    0.0000 C   0  0  0  0  0  0  0  0  0  0  0  0
   -0.7500   -1.2990    0.0000 C   0  0  0  0  0  0  0  0  0  0  0  0
  1  2  1  0
  2  3  1  0
  3  4  2  0
  4  5  1  0
  5  6  2  0
  6  7  1  0
  7  8  2  0
  7  9  1  0
  9 10  1  0
 10 11  2  0
 11 12  1  0
 12 13  2  0
 13 14  1  0
 14 15  2  0
  6 16  1  0
 16 17  2  0
 17 18  1  0
 18 19  2  0
 19 20  1  0
 20 21  3  0
 19 22  1  0
 22 23  2  0
 23 24  1  0
 24 25  2  0
 25 26  1  0
 26 27  2  0
 27 28  1  0
 28 29  2  0
 29  2  1  0
 15 10  1  0
 23 16  1  0
 29 24  1  0
M  END
>  <Title>  (551) 
idAATGgen6

$$$$

     RDKit          2D

  6  5  0  0  0  0  0  0  0  0999 V2000
    0.0000    0.0000    0.0000 C   0  0  0  0  0  0  0  0  0  0  0  0
    1.2990    0.7500    0.0000 C   0  0  0  0  0  0  0  0  0  0  0  0
    2.5981   -0.0000    0.0000 C   0  0  0  0  0  0  0  0  0  0  0  0
    3.8971    0.7500    0.0000 C   0  0  0  0  0  0  0  0  0  0  0  0
    5.1962   -0.0000    0.0000 C   0  0  0  0  0  0  0  0  0  0  0  0
    6.4952    0.7500    0.0000 C   0  0  0  0  0  0  0  0  0  0  0  0
  1  2  1  0
  2  3  1  0
  3  4  1  0
  4  5  1  0
  5  6  1  0
M  END
>  <Title>  (552) 
idAATHgen6

$$$$

     RDKit          2D

 13 13  0  0  0  0  0  0  0  0999 V2000
    3.1339    0.0000    0.0000 C   0  0  0  0  0  0  0  0  0  0  0  0
    2.7750    1.4564    0.0000 C   0  0  0  0  0  0  0  0  0  0  0  0
    1.7803    2.5792    0.0000 C   0  0  0  0  0  0  0  0  0  0  0  0
    0.3778    3.1111    0.0000 C   0  0  0  0  0  0  0  0  0  0  0  0
   -1.1113    2.9303    0.0000 C   0  0  0  0  0  0  0  0  0  0  0  0
   -2.3458    2.0782    0.0000 C   0  0  0  0  0  0  0  0  0  0  0  0
   -3.0429    0.7500    0.0000 C   0  0  0  0  0  0  0  0  0  0  0  0
   -3.0429   -0.7500    0.0000 C   0  0  0  0  0  0  0  0  0  0  0  0
   -2.3458   -2.0782    0.0000 C   0  0  0  0  0  0  0  0  0  0  0  0
   -1.1113   -2.9303    0.0000 C   0  0  0  0  0  0  0  0  0  0  0  0
    0.3778   -3.1111    0.0000 C   0  0  0  0  0  0  0  0  0  0  0  0
    1.7803   -2.5792    0.0000 C   0  0  0  0  0  0  0  0  0  0  0  0
    2.7750   -1.4564    0.0000 C   0  0  0  0  0  0  0  0  0  0  0  0
  1  2  1  0
  2  3  1  0
  3  4  1  0
  4  5  1  0
  5  6  1  0
  6  7  1  0
  7  8  1  0
  8  9  1  0
  9 10  1  0
 10 11  1  0
 11 12  1  0
 12 13  1  0
 13  1  1  0
M  END
>  <Title>  (553) 
idAATIgen6

$$$$

     RDKit          2D

  9  9  0  0  0  0  0  0  0  0999 V2000
    3.7500    1.2990    0.0000 O   0  0  0  0  0  0  0  0  0  0  0  0
    3.0000    0.0000    0.0000 C   0  0  0  0  0  0  0  0  0  0  0  0
    3.7500   -1.2990    0.0000 O   0  0  0  0  0  0  0  0  0  0  0  0
    1.5000    0.0000    0.0000 C   0  0  0  0  0  0  0  0  0  0  0  0
    0.7500   -1.2990    0.0000 C   0  0  0  0  0  0  0  0  0  0  0  0
   -0.7500   -1.2990    0.0000 C   0  0  0  0  0  0  0  0  0  0  0  0
   -1.5000    0.0000    0.0000 C   0  0  0  0  0  0  0  0  0  0  0  0
   -0.7500    1.2990    0.0000 C   0  0  0  0  0  0  0  0  0  0  0  0
    0.7500    1.2990    0.0000 C   0  0  0  0  0  0  0  0  0  0  0  0
  1  2  2  0
  2  3  1  0
  2  4  1  0
  4  5  2  0
  5  6  1  0
  6  7  2  0
  7  8  1  0
  8  9  2  0
  9  4  1  0
M  END
>  <Title>  (554) 
idAATJgen6

$$$$

     RDKit          2D

 35 39  0  0  0  0  0  0  0  0999 V2000
  -11.3597   -1.0932    0.0000 C   0  0  0  0  0  0  0  0  0  0  0  0
   -9.8765   -0.8697    0.0000 N   0  0  0  0  0  0  0  0  0  0  0  0
   -9.4344    0.5637    0.0000 C   0  0  0  0  0  0  0  0  0  0  0  0
   -8.0381    1.1117    0.0000 C   0  0  0  0  0  0  0  0  0  0  0  0
   -6.7390    0.3617    0.0000 C   0  0  0  0  0  0  0  0  0  0  0  0
   -5.4997    1.2067    0.0000 C   0  0  0  0  0  0  0  0  0  0  0  0
   -5.6118    2.7025    0.0000 C   0  0  0  0  0  0  0  0  0  0  0  0
   -4.3724    3.5475    0.0000 C   0  0  0  0  0  0  0  0  0  0  0  0
   -3.0209    2.8966    0.0000 C   0  0  0  0  0  0  0  0  0  0  0  0
   -2.9088    1.4008    0.0000 C   0  0  0  0  0  0  0  0  0  0  0  0
   -4.1482    0.5558    0.0000 C   0  0  0  0  0  0  0  0  0  0  0  0
   -4.0361   -0.9400    0.0000 C   0  0  0  0  0  0  0  0  0  0  0  0
   -5.2755   -1.7849    0.0000 C   0  0  0  0  0  0  0  0  0  0  0  0
   -5.1634   -3.2807    0.0000 C   0  0  0  0  0  0  0  0  0  0  0  0
   -3.8119   -3.9316    0.0000 C   0  0  0  0  0  0  0  0  0  0  0  0
   -3.6998   -5.4274    0.0000 C   0  0  0  0  0  0  0  0  0  0  0  0
   -3.5877   -6.9232    0.0000 N   0  0  0  0  0  0  0  0  0  0  0  0
   -2.5726   -3.0866    0.0000 C   0  0  0  0  0  0  0  0  0  0  0  0
   -2.6847   -1.5908    0.0000 C   0  0  0  0  0  0  0  0  0  0  0  0
   -1.4453   -0.7458    0.0000 C   0  0  0  0  0  0  0  0  0  0  0  0
   -1.5574    0.7500    0.0000 C   0  0  0  0  0  0  0  0  0  0  0  0
   -0.3180    1.5950    0.0000 C   0  0  0  0  0  0  0  0  0  0  0  0
    1.0334    0.9442    0.0000 C   0  0  0  0  0  0  0  0  0  0  0  0
    1.1455   -0.5517    0.0000 C   0  0  0  0  0  0  0  0  0  0  0  0
   -0.0938   -1.3966    0.0000 C   0  0  0  0  0  0  0  0  0  0  0  0
    0.0183   -2.8924    0.0000 C   0  0  0  0  0  0  0  0  0  0  0  0
   -1.2211   -3.7374    0.0000 C   0  0  0  0  0  0  0  0  0  0  0  0
   -1.1090   -5.2332    0.0000 C   0  0  0  0  0  0  0  0  0  0  0  0
    0.2424   -5.8840    0.0000 C   0  0  0  0  0  0  0  0  0  0  0  0
    1.4818   -5.0391    0.0000 C   0  0  0  0  0  0  0  0  0  0  0  0
    1.3697   -3.5433    0.0000 C   0  0  0  0  0  0  0  0  0  0  0  0
    2.6091   -2.6983    0.0000 O   0  0  0  0  0  0  0  0  0  0  0  0
   -6.5155   -1.1216    0.0000 C   0  0  0  0  0  0  0  0  0  0  0  0
   -7.5357   -2.2211    0.0000 C   0  0  0  0  0  0  0  0  0  0  0  0
   -9.0315   -2.1090    0.0000 C   0  0  0  0  0  0  0  0  0  0  0  0
  1  2  1  0
  2  3  1  0
  3  4  2  0
  4  5  1  0
  5  6  1  0
  6  7  2  0
  7  8  1  0
  8  9  2  0
  9 10  1  0
 10 11  2  0
 11 12  1  0
 12 13  2  0
 13 14  1  0
 14 15  2  0
 15 16  1  0
 16 17  3  0
 15 18  1  0
 18 19  2  0
 19 20  1  0
 20 21  2  0
 21 22  1  0
 22 23  2  0
 23 24  1  0
 24 25  2  0
 25 26  1  0
 26 27  2  0
 27 28  1  0
 28 29  2  0
 29 30  1  0
 30 31  2  0
 31 32  1  0
  5 33  1  0
 33 34  1  0
 34 35  1  0
 35  2  1  0
 11  6  1  0
 19 12  1  0
 25 20  1  0
 31 26  1  0
M  END
>  <Title>  (555) 
idAATKgen6

$$$$

     RDKit          2D

  8  8  0  0  0  0  0  0  0  0999 V2000
    3.7500   -1.2990    0.0000 C   0  0  0  0  0  0  0  0  0  0  0  0
    3.0000    0.0000    0.0000 O   0  0  0  0  0  0  0  0  0  0  0  0
    1.5000    0.0000    0.0000 C   0  0  0  0  0  0  0  0  0  0  0  0
    0.7500   -1.2990    0.0000 C   0  0  0  0  0  0  0  0  0  0  0  0
   -0.7500   -1.2990    0.0000 C   0  0  0  0  0  0  0  0  0  0  0  0
   -1.5000    0.0000    0.0000 C   0  0  0  0  0  0  0  0  0  0  0  0
   -0.7500    1.2990    0.0000 C   0  0  0  0  0  0  0  0  0  0  0  0
    0.7500    1.2990    0.0000 C   0  0  0  0  0  0  0  0  0  0  0  0
  1  2  1  0
  2  3  1  0
  3  4  1  0
  4  5  2  0
  5  6  1  0
  6  7  2  0
  7  8  1  0
  8  3  1  0
M  END
>  <Title>  (556) 
idAATLgen6

$$$$

     RDKit          2D

  7  6  0  0  0  0  0  0  0  0999 V2000
    0.0000    0.0000    0.0000 C   0  0  0  0  0  0  0  0  0  0  0  0
    1.2990    0.7500    0.0000 C   0  0  0  0  0  0  0  0  0  0  0  0
    1.2990    2.2500    0.0000 O   0  0  0  0  0  0  0  0  0  0  0  0
    2.5981   -0.0000    0.0000 C   0  0  0  0  0  0  0  0  0  0  0  0
    3.8971    0.7500    0.0000 N   0  0  0  0  0  0  0  0  0  0  0  0
    5.1962   -0.0000    0.0000 C   0  0  0  0  0  0  0  0  0  0  0  0
    3.8971    2.2500    0.0000 C   0  0  0  0  0  0  0  0  0  0  0  0
  1  2  1  0
  2  3  2  0
  2  4  1  0
  4  5  1  0
  5  6  1  0
  5  7  1  0
M  END
>  <Title>  (557) 
idAATMgen6

$$$$

     RDKit          2D

 43 48  0  0  0  0  0  0  0  0999 V2000
    9.7492    0.1036    0.0000 C   0  0  0  0  0  0  0  0  0  0  0  0
    8.8219   -1.0755    0.0000 C   0  0  0  0  0  0  0  0  0  0  0  0
    9.6920   -2.2974    0.0000 C   0  0  0  0  0  0  0  0  0  0  0  0
    9.7634   -3.7957    0.0000 C   0  0  0  0  0  0  0  0  0  0  0  0
    9.0134   -5.0947    0.0000 C   0  0  0  0  0  0  0  0  0  0  0  0
   10.0485   -6.1803    0.0000 O   0  0  0  0  0  0  0  0  0  0  0  0
    7.6801   -5.7820    0.0000 C   0  0  0  0  0  0  0  0  0  0  0  0
    6.1869   -5.6395    0.0000 C   0  0  0  0  0  0  0  0  0  0  0  0
    5.0078   -4.7122    0.0000 C   0  0  0  0  0  0  0  0  0  0  0  0
    3.7860   -5.5823    0.0000 C   0  0  0  0  0  0  0  0  0  0  0  0
    3.9286   -7.0755    0.0000 C   0  0  0  0  0  0  0  0  0  0  0  0
    5.2204   -7.8378    0.0000 C   0  0  0  0  0  0  0  0  0  0  0  0
    4.8946   -9.3020    0.0000 C   0  0  0  0  0  0  0  0  0  0  0  0
    3.4014   -9.4446    0.0000 C   0  0  0  0  0  0  0  0  0  0  0  0
    2.8043   -8.0685    0.0000 N   0  0  0  0  0  0  0  0  0  0  0  0
    1.3402   -7.7427    0.0000 C   0  0  0  0  0  0  0  0  0  0  0  0
    0.8902   -6.3118    0.0000 C   0  0  0  0  0  0  0  0  0  0  0  0
   -0.5740   -5.9860    0.0000 C   0  0  0  0  0  0  0  0  0  0  0  0
   -1.5882   -7.0911    0.0000 C   0  0  0  0  0  0  0  0  0  0  0  0
   -3.0524   -6.7653    0.0000 C   0  0  0  0  0  0  0  0  0  0  0  0
   -4.5166   -6.4394    0.0000 N   0  0  0  0  0  0  0  0  0  0  0  0
   -1.1383   -8.5220    0.0000 C   0  0  0  0  0  0  0  0  0  0  0  0
    0.3259   -8.8478    0.0000 C   0  0  0  0  0  0  0  0  0  0  0  0
    0.7758  -10.2788    0.0000 C   0  0  0  0  0  0  0  0  0  0  0  0
    2.1979  -10.7559    0.0000 C   0  0  0  0  0  0  0  0  0  0  0  0
    2.1836  -12.2558    0.0000 C   0  0  0  0  0  0  0  0  0  0  0  0
    0.7527  -12.7057    0.0000 C   0  0  0  0  0  0  0  0  0  0  0  0
    0.2756  -14.1278    0.0000 C   0  0  0  0  0  0  0  0  0  0  0  0
   -1.1945  -14.4257    0.0000 C   0  0  0  0  0  0  0  0  0  0  0  0
   -1.6716  -15.8478    0.0000 C   0  0  0  0  0  0  0  0  0  0  0  0
   -0.6785  -16.9720    0.0000 C   0  0  0  0  0  0  0  0  0  0  0  0
    0.7916  -16.6741    0.0000 C   0  0  0  0  0  0  0  0  0  0  0  0
    1.2687  -15.2520    0.0000 C   0  0  0  0  0  0  0  0  0  0  0  0
   -0.1174  -11.4838    0.0000 N   0  0  0  0  0  0  0  0  0  0  0  0
    4.5172   -3.2947    0.0000 C   0  0  0  0  0  0  0  0  0  0  0  0
    3.0189   -3.3661    0.0000 O   0  0  0  0  0  0  0  0  0  0  0  0
    4.8709   -1.8370    0.0000 O   0  0  0  0  0  0  0  0  0  0  0  0
    5.9565   -0.8019    0.0000 C   0  0  0  0  0  0  0  0  0  0  0  0
    4.9742    0.3317    0.0000 C   0  0  0  0  0  0  0  0  0  0  0  0
    5.4648    1.7492    0.0000 C   0  0  0  0  0  0  0  0  0  0  0  0
    6.9377    2.0331    0.0000 C   0  0  0  0  0  0  0  0  0  0  0  0
    7.9200    0.8995    0.0000 C   0  0  0  0  0  0  0  0  0  0  0  0
    7.4294   -0.5180    0.0000 C   0  0  0  0  0  0  0  0  0  0  0  0
  1  2  1  0
  2  3  1  0
  3  4  1  0
  4  5  1  0
  5  6  1  0
  5  7  1  0
  7  8  1  0
  8  9  1  0
  9 10  1  0
 10 11  1  0
 11 12  2  0
 12 13  1  0
 13 14  2  0
 14 15  1  0
 15 16  1  0
 16 17  2  0
 17 18  1  0
 18 19  2  0
 19 20  1  0
 20 21  3  0
 19 22  1  0
 22 23  1  0
 23 24  1  0
 24 25  2  0
 25 26  1  0
 26 27  2  0
 27 28  1  0
 28 29  2  0
 29 30  1  0
 30 31  2  0
 31 32  1  0
 32 33  2  0
 27 34  1  0
  9 35  1  0
 35 36  2  0
 35 37  1  0
 37 38  1  0
 38 39  2  0
 39 40  1  0
 40 41  2  0
 41 42  1  0
 42 43  2  0
 43  2  1  0
 15 11  1  0
 23 16  1  0
 34 24  1  0
 43 38  1  0
 33 28  1  0
M  END
>  <Title>  (558) 
idAATNgen6

$$$$

     RDKit          2D

 30 33  0  0  0  0  0  0  0  0999 V2000
   -3.1476   -2.1380    0.0000 C   0  0  0  0  0  0  0  0  0  0  0  0
   -1.6852   -2.4718    0.0000 C   0  0  0  0  0  0  0  0  0  0  0  0
   -1.3515   -3.9342    0.0000 C   0  0  0  0  0  0  0  0  0  0  0  0
   -0.0000   -4.5850    0.0000 C   0  0  0  0  0  0  0  0  0  0  0  0
   -0.0000   -6.0850    0.0000 C   0  0  0  0  0  0  0  0  0  0  0  0
    1.2990   -6.8350    0.0000 O   0  0  0  0  0  0  0  0  0  0  0  0
   -1.2990   -6.8350    0.0000 N   0  0  0  0  0  0  0  0  0  0  0  0
   -1.2990   -8.3350    0.0000 C   0  0  0  0  0  0  0  0  0  0  0  0
   -2.5981   -9.0850    0.0000 N   0  0  0  0  0  0  0  0  0  0  0  0
   -2.5981  -10.5850    0.0000 N   0  0  0  0  0  0  0  0  0  0  0  0
   -1.2990  -11.3350    0.0000 N   0  0  0  0  0  0  0  0  0  0  0  0
   -0.0000  -10.5850    0.0000 N   0  0  0  0  0  0  0  0  0  0  0  0
   -0.0000   -9.0850    0.0000 N   0  0  0  0  0  0  0  0  0  0  0  0
    1.3515   -3.9342    0.0000 C   0  0  0  0  0  0  0  0  0  0  0  0
    1.6852   -2.4718    0.0000 C   0  0  0  0  0  0  0  0  0  0  0  0
    3.1476   -2.1380    0.0000 C   0  0  0  0  0  0  0  0  0  0  0  0
    3.5898   -0.7046    0.0000 O   0  0  0  0  0  0  0  0  0  0  0  0
    4.1679   -3.2376    0.0000 N   0  0  0  0  0  0  0  0  0  0  0  0
    5.6303   -2.9038    0.0000 C   0  0  0  0  0  0  0  0  0  0  0  0
    6.6505   -4.0034    0.0000 N   0  0  0  0  0  0  0  0  0  0  0  0
    8.1129   -3.6696    0.0000 N   0  0  0  0  0  0  0  0  0  0  0  0
    8.5551   -2.2362    0.0000 N   0  0  0  0  0  0  0  0  0  0  0  0
    7.5348   -1.1367    0.0000 N   0  0  0  0  0  0  0  0  0  0  0  0
    6.0724   -1.4704    0.0000 N   0  0  0  0  0  0  0  0  0  0  0  0
    0.7500   -1.2990    0.0000 C   0  0  0  0  0  0  0  0  0  0  0  0
    1.5000    0.0000    0.0000 C   0  0  0  0  0  0  0  0  0  0  0  0
    0.7500    1.2990    0.0000 C   0  0  0  0  0  0  0  0  0  0  0  0
   -0.7500    1.2990    0.0000 C   0  0  0  0  0  0  0  0  0  0  0  0
   -1.5000    0.0000    0.0000 C   0  0  0  0  0  0  0  0  0  0  0  0
   -0.7500   -1.2990    0.0000 C   0  0  0  0  0  0  0  0  0  0  0  0
  1  2  1  0
  2  3  1  0
  3  4  2  0
  4  5  1  0
  5  6  2  0
  5  7  1  0
  7  8  1  0
  8  9  2  0
  9 10  1  0
 10 11  2  0
 11 12  1  0
 12 13  2  0
  4 14  1  0
 14 15  1  0
 15 16  1  0
 16 17  2  0
 16 18  1  0
 18 19  1  0
 19 20  2  0
 20 21  1  0
 21 22  2  0
 22 23  1  0
 23 24  2  0
 15 25  1  0
 25 26  2  0
 26 27  1  0
 27 28  2  0
 28 29  1  0
 29 30  2  0
 30  2  1  0
 13  8  1  0
 24 19  1  0
 30 25  1  0
M  END
>  <Title>  (559) 
idAATOgen6

$$$$

     RDKit          2D

  8  8  0  0  0  0  0  0  0  0999 V2000
    3.2286   -0.0000    0.0000 C   0  0  0  0  0  0  0  0  0  0  0  0
    1.7286    0.0000    0.0000 C   0  0  0  0  0  0  0  0  0  0  0  0
    1.0777    1.3515    0.0000 C   0  0  0  0  0  0  0  0  0  0  0  0
   -0.3846    1.6852    0.0000 C   0  0  0  0  0  0  0  0  0  0  0  0
   -1.5574    0.7500    0.0000 C   0  0  0  0  0  0  0  0  0  0  0  0
   -1.5574   -0.7500    0.0000 C   0  0  0  0  0  0  0  0  0  0  0  0
   -0.3846   -1.6852    0.0000 C   0  0  0  0  0  0  0  0  0  0  0  0
    1.0777   -1.3515    0.0000 C   0  0  0  0  0  0  0  0  0  0  0  0
  1  2  1  0
  2  3  1  0
  3  4  2  0
  4  5  1  0
  5  6  1  0
  6  7  1  0
  7  8  1  0
  8  2  1  0
M  END
>  <Title>  (560) 
idAATPgen6

$$$$

     RDKit          2D

 21 23  0  0  0  0  0  0  0  0999 V2000
    3.0000    0.0000    0.0000 C   0  0  0  0  0  0  0  0  0  0  0  0
    1.5000    0.0000    0.0000 C   0  0  0  0  0  0  0  0  0  0  0  0
    0.7500   -1.2990    0.0000 C   0  0  0  0  0  0  0  0  0  0  0  0
   -0.7500   -1.2990    0.0000 C   0  0  0  0  0  0  0  0  0  0  0  0
   -1.5000    0.0000    0.0000 C   0  0  0  0  0  0  0  0  0  0  0  0
   -3.0000    0.0000    0.0000 C   0  0  0  0  0  0  0  0  0  0  0  0
   -3.7500   -1.2990    0.0000 O   0  0  0  0  0  0  0  0  0  0  0  0
   -3.7500    1.2990    0.0000 N   0  0  0  0  0  0  0  0  0  0  0  0
   -5.2500    1.2990    0.0000 C   0  0  0  0  0  0  0  0  0  0  0  0
   -6.1317    0.0855    0.0000 N   0  0  0  0  0  0  0  0  0  0  0  0
   -7.5583    0.5490    0.0000 N   0  0  0  0  0  0  0  0  0  0  0  0
   -7.5583    2.0490    0.0000 N   0  0  0  0  0  0  0  0  0  0  0  0
   -6.1317    2.5126    0.0000 N   0  0  0  0  0  0  0  0  0  0  0  0
   -5.6682    3.9391    0.0000 C   0  0  0  0  0  0  0  0  0  0  0  0
   -4.2009    4.2510    0.0000 C   0  0  0  0  0  0  0  0  0  0  0  0
   -3.7374    5.6776    0.0000 C   0  0  0  0  0  0  0  0  0  0  0  0
   -4.7411    6.7923    0.0000 C   0  0  0  0  0  0  0  0  0  0  0  0
   -6.2083    6.4805    0.0000 C   0  0  0  0  0  0  0  0  0  0  0  0
   -6.6718    5.0539    0.0000 C   0  0  0  0  0  0  0  0  0  0  0  0
   -0.7500    1.2990    0.0000 C   0  0  0  0  0  0  0  0  0  0  0  0
    0.7500    1.2990    0.0000 C   0  0  0  0  0  0  0  0  0  0  0  0
  1  2  1  0
  2  3  1  0
  3  4  1  0
  4  5  1  0
  5  6  1  0
  6  7  2  0
  6  8  1  0
  8  9  1  0
  9 10  2  0
 10 11  1  0
 11 12  2  0
 12 13  1  0
 13 14  1  0
 14 15  2  0
 15 16  1  0
 16 17  2  0
 17 18  1  0
 18 19  2  0
  5 20  1  0
 20 21  1  0
 21  2  1  0
 13  9  1  0
 19 14  1  0
M  END
>  <Title>  (561) 
idAATQgen6

$$$$

     RDKit          2D

 42 47  0  0  0  0  0  0  0  0999 V2000
  -10.8769    0.4894    0.0000 C   0  0  0  0  0  0  0  0  0  0  0  0
  -10.3762   -0.9246    0.0000 C   0  0  0  0  0  0  0  0  0  0  0  0
  -11.3504   -2.0652    0.0000 O   0  0  0  0  0  0  0  0  0  0  0  0
   -8.9013   -1.1979    0.0000 O   0  0  0  0  0  0  0  0  0  0  0  0
   -8.4006   -2.6119    0.0000 C   0  0  0  0  0  0  0  0  0  0  0  0
   -9.2502   -3.8481    0.0000 C   0  0  0  0  0  0  0  0  0  0  0  0
   -8.3371   -5.0381    0.0000 C   0  0  0  0  0  0  0  0  0  0  0  0
   -6.9231   -4.5374    0.0000 C   0  0  0  0  0  0  0  0  0  0  0  0
   -5.6869   -5.3870    0.0000 O   0  0  0  0  0  0  0  0  0  0  0  0
   -6.9624   -3.0379    0.0000 C   0  0  0  0  0  0  0  0  0  0  0  0
   -5.7723   -2.1248    0.0000 C   0  0  0  0  0  0  0  0  0  0  0  0
   -4.3865   -2.6988    0.0000 C   0  0  0  0  0  0  0  0  0  0  0  0
   -3.1965   -1.7857    0.0000 C   0  0  0  0  0  0  0  0  0  0  0  0
   -1.8107   -2.3597    0.0000 C   0  0  0  0  0  0  0  0  0  0  0  0
   -1.8107   -3.8597    0.0000 C   0  0  0  0  0  0  0  0  0  0  0  0
   -0.7500   -4.9204    0.0000 C   0  0  0  0  0  0  0  0  0  0  0  0
    0.7500   -4.9204    0.0000 C   0  0  0  0  0  0  0  0  0  0  0  0
    2.2454   -5.0380    0.0000 C   0  0  0  0  0  0  0  0  0  0  0  0
    2.8194   -3.6522    0.0000 C   0  0  0  0  0  0  0  0  0  0  0  0
    1.8107   -2.3597    0.0000 C   0  0  0  0  0  0  0  0  0  0  0  0
    1.8107   -3.8597    0.0000 C   0  0  0  0  0  0  0  0  0  0  0  0
    3.1965   -4.4337    0.0000 N   0  0  0  0  0  0  0  0  0  0  0  0
    4.3865   -3.5206    0.0000 N   0  0  0  0  0  0  0  0  0  0  0  0
    5.7723   -4.0946    0.0000 N   0  0  0  0  0  0  0  0  0  0  0  0
    6.9624   -3.1815    0.0000 N   0  0  0  0  0  0  0  0  0  0  0  0
    8.3482   -3.7555    0.0000 C   0  0  0  0  0  0  0  0  0  0  0  0
    9.6271   -2.9717    0.0000 C   0  0  0  0  0  0  0  0  0  0  0  0
   10.7677   -3.9459    0.0000 C   0  0  0  0  0  0  0  0  0  0  0  0
   10.1937   -5.3317    0.0000 C   0  0  0  0  0  0  0  0  0  0  0  0
    8.6983   -5.2140    0.0000 C   0  0  0  0  0  0  0  0  0  0  0  0
    0.7500   -1.2990    0.0000 C   0  0  0  0  0  0  0  0  0  0  0  0
    1.5000    0.0000    0.0000 C   0  0  0  0  0  0  0  0  0  0  0  0
    0.7500    1.2990    0.0000 C   0  0  0  0  0  0  0  0  0  0  0  0
   -0.7500    1.2990    0.0000 C   0  0  0  0  0  0  0  0  0  0  0  0
   -1.5000    0.0000    0.0000 C   0  0  0  0  0  0  0  0  0  0  0  0
   -0.7500   -1.2990    0.0000 C   0  0  0  0  0  0  0  0  0  0  0  0
   -3.3923   -0.2985    0.0000 N   0  0  0  0  0  0  0  0  0  0  0  0
   -4.7105    0.4172    0.0000 C   0  0  0  0  0  0  0  0  0  0  0  0
   -4.4371    1.8921    0.0000 C   0  0  0  0  0  0  0  0  0  0  0  0
   -2.9500    2.0879    0.0000 C   0  0  0  0  0  0  0  0  0  0  0  0
   -2.2342    3.4061    0.0000 O   0  0  0  0  0  0  0  0  0  0  0  0
   -2.3042    0.7340    0.0000 N   0  0  0  0  0  0  0  0  0  0  0  0
  1  2  1  0
  2  3  2  0
  2  4  1  0
  4  5  1  0
  5  6  2  0
  6  7  1  0
  7  8  2  0
  8  9  1  0
  8 10  1  0
 10 11  1  0
 11 12  1  0
 12 13  1  0
 13 14  1  0
 14 15  2  0
 15 16  1  0
 16 17  2  0
 17 18  1  0
 18 19  2  0
 19 20  1  0
 20 21  1  0
 21 22  2  3
 22 23  1  0
 23 24  2  3
 24 25  1  0
 25 26  2  3
 26 27  1  0
 27 28  2  0
 28 29  1  0
 29 30  2  0
 20 31  1  0
 31 32  2  0
 32 33  1  0
 33 34  2  0
 34 35  1  0
 35 36  2  0
 13 37  1  0
 37 38  1  0
 38 39  1  0
 39 40  1  0
 40 41  2  0
 40 42  1  0
 10  5  1  0
 36 14  1  0
 42 37  1  0
 21 17  1  0
 30 26  1  0
 36 31  1  0
M  END
>  <Title>  (562) 
idAATRgen6

$$$$

     RDKit          2D

 13 14  0  0  0  0  0  0  0  0999 V2000
    3.4598   -0.0000    0.0000 C   0  0  0  0  0  0  0  0  0  0  0  0
    1.9598    0.0000    0.0000 C   0  0  0  0  0  0  0  0  0  0  0  0
    1.3858   -1.3858    0.0000 C   0  0  0  0  0  0  0  0  0  0  0  0
   -0.0000   -1.9598    0.0000 C   0  0  0  0  0  0  0  0  0  0  0  0
   -0.1177   -3.4552    0.0000 C   0  0  0  0  0  0  0  0  0  0  0  0
   -1.5762   -3.8054    0.0000 C   0  0  0  0  0  0  0  0  0  0  0  0
   -2.1503   -5.1912    0.0000 O   0  0  0  0  0  0  0  0  0  0  0  0
   -2.3600   -2.5264    0.0000 N   0  0  0  0  0  0  0  0  0  0  0  0
   -1.3858   -1.3858    0.0000 C   0  0  0  0  0  0  0  0  0  0  0  0
   -1.9598    0.0000    0.0000 C   0  0  0  0  0  0  0  0  0  0  0  0
   -1.3858    1.3858    0.0000 C   0  0  0  0  0  0  0  0  0  0  0  0
    0.0000    1.9598    0.0000 C   0  0  0  0  0  0  0  0  0  0  0  0
    1.3858    1.3858    0.0000 C   0  0  0  0  0  0  0  0  0  0  0  0
  1  2  1  0
  2  3  1  0
  3  4  2  0
  4  5  1  0
  5  6  1  0
  6  7  2  0
  6  8  1  0
  8  9  1  0
  9 10  2  0
 10 11  1  0
 11 12  2  0
 12 13  1  0
 13  2  1  0
  9  4  1  0
M  END
>  <Title>  (563) 
idAATSgen6

$$$$

     RDKit          2D

  7  7  0  0  0  0  0  0  0  0999 V2000
    3.5260   -1.2990    0.0000 C   0  0  0  0  0  0  0  0  0  0  0  0
    2.7760    0.0000    0.0000 O   0  0  0  0  0  0  0  0  0  0  0  0
    1.2760    0.0000    0.0000 C   0  0  0  0  0  0  0  0  0  0  0  0
    0.3943    1.2135    0.0000 C   0  0  0  0  0  0  0  0  0  0  0  0
   -1.0323    0.7500    0.0000 C   0  0  0  0  0  0  0  0  0  0  0  0
   -1.0323   -0.7500    0.0000 C   0  0  0  0  0  0  0  0  0  0  0  0
    0.3943   -1.2135    0.0000 C   0  0  0  0  0  0  0  0  0  0  0  0
  1  2  1  0
  2  3  1  0
  3  4  2  0
  4  5  1  0
  5  6  2  0
  6  7  1  0
  7  3  1  0
M  END
>  <Title>  (564) 
idAATTgen6

$$$$

     RDKit          2D

 24 26  0  0  0  0  0  0  0  0999 V2000
   -3.8876   -9.0580    0.0000 C   0  0  0  0  0  0  0  0  0  0  0  0
   -3.5757   -7.5908    0.0000 C   0  0  0  0  0  0  0  0  0  0  0  0
   -2.1491   -7.1273    0.0000 O   0  0  0  0  0  0  0  0  0  0  0  0
   -4.6904   -6.5871    0.0000 C   0  0  0  0  0  0  0  0  0  0  0  0
   -6.1170   -7.0506    0.0000 C   0  0  0  0  0  0  0  0  0  0  0  0
   -6.4289   -8.5179    0.0000 C   0  0  0  0  0  0  0  0  0  0  0  0
   -5.4252   -9.6326    0.0000 C   0  0  0  0  0  0  0  0  0  0  0  0
   -6.1752  -10.9316    0.0000 C   0  0  0  0  0  0  0  0  0  0  0  0
   -7.6424  -10.6198    0.0000 C   0  0  0  0  0  0  0  0  0  0  0  0
   -7.7992   -9.1280    0.0000 C   0  0  0  0  0  0  0  0  0  0  0  0
   -4.3786   -5.1199    0.0000 N   0  0  0  0  0  0  0  0  0  0  0  0
   -2.9520   -4.6564    0.0000 C   0  0  0  0  0  0  0  0  0  0  0  0
   -1.8373   -5.6601    0.0000 O   0  0  0  0  0  0  0  0  0  0  0  0
   -2.6401   -3.1891    0.0000 C   0  0  0  0  0  0  0  0  0  0  0  0
   -1.2135   -2.7256    0.0000 N   0  0  0  0  0  0  0  0  0  0  0  0
   -0.0000   -3.6073    0.0000 C   0  0  0  0  0  0  0  0  0  0  0  0
    1.2135   -2.7256    0.0000 C   0  0  0  0  0  0  0  0  0  0  0  0
    0.7500   -1.2990    0.0000 C   0  0  0  0  0  0  0  0  0  0  0  0
    1.5000    0.0000    0.0000 C   0  0  0  0  0  0  0  0  0  0  0  0
    0.7500    1.2990    0.0000 C   0  0  0  0  0  0  0  0  0  0  0  0
   -0.7500    1.2990    0.0000 C   0  0  0  0  0  0  0  0  0  0  0  0
   -1.5000    2.5981    0.0000 O   0  0  0  0  0  0  0  0  0  0  0  0
   -1.5000    0.0000    0.0000 C   0  0  0  0  0  0  0  0  0  0  0  0
   -0.7500   -1.2990    0.0000 C   0  0  0  0  0  0  0  0  0  0  0  0
  1  2  1  0
  2  3  2  0
  2  4  1  0
  4  5  1  0
  5  6  1  0
  6  7  2  0
  7  8  1  0
  8  9  2  0
  9 10  1  0
  4 11  1  0
 11 12  1  0
 12 13  2  0
 12 14  1  0
 14 15  1  0
 15 16  1  0
 16 17  2  0
 17 18  1  0
 18 19  2  0
 19 20  1  0
 20 21  2  0
 21 22  1  0
 21 23  1  0
 23 24  2  0
 10  6  1  0
 24 15  1  0
 24 18  1  0
M  END
>  <Title>  (565) 
idAATUgen6

$$$$

     RDKit          2D

 31 32  0  0  0  0  0  0  0  0999 V2000
    8.4616   -2.9609    0.0000 C   0  0  0  0  0  0  0  0  0  0  0  0
    8.0302   -1.5242    0.0000 C   0  0  0  0  0  0  0  0  0  0  0  0
    6.5306   -1.4906    0.0000 C   0  0  0  0  0  0  0  0  0  0  0  0
    6.6986    0.0000    0.0000 C   0  0  0  0  0  0  0  0  0  0  0  0
    6.5306    1.4906    0.0000 C   0  0  0  0  0  0  0  0  0  0  0  0
    6.0352    2.9064    0.0000 C   0  0  0  0  0  0  0  0  0  0  0  0
    5.2371    4.1765    0.0000 C   0  0  0  0  0  0  0  0  0  0  0  0
    4.1765    5.2371    0.0000 C   0  0  0  0  0  0  0  0  0  0  0  0
    2.9064    6.0352    0.0000 C   0  0  0  0  0  0  0  0  0  0  0  0
    1.4906    6.5306    0.0000 C   0  0  0  0  0  0  0  0  0  0  0  0
    0.0000    6.6986    0.0000 C   0  0  0  0  0  0  0  0  0  0  0  0
   -1.4906    6.5306    0.0000 C   0  0  0  0  0  0  0  0  0  0  0  0
   -2.9064    6.0352    0.0000 C   0  0  0  0  0  0  0  0  0  0  0  0
   -4.1765    5.2371    0.0000 C   0  0  0  0  0  0  0  0  0  0  0  0
   -5.2371    4.1765    0.0000 C   0  0  0  0  0  0  0  0  0  0  0  0
   -6.0352    2.9064    0.0000 C   0  0  0  0  0  0  0  0  0  0  0  0
   -6.5306    1.4906    0.0000 C   0  0  0  0  0  0  0  0  0  0  0  0
   -6.6986    0.0000    0.0000 C   0  0  0  0  0  0  0  0  0  0  0  0
   -6.5306   -1.4906    0.0000 C   0  0  0  0  0  0  0  0  0  0  0  0
   -6.0352   -2.9064    0.0000 C   0  0  0  0  0  0  0  0  0  0  0  0
   -5.2371   -4.1765    0.0000 C   0  0  0  0  0  0  0  0  0  0  0  0
   -4.1765   -5.2371    0.0000 C   0  0  0  0  0  0  0  0  0  0  0  0
   -2.9064   -6.0352    0.0000 C   0  0  0  0  0  0  0  0  0  0  0  0
   -1.4906   -6.5306    0.0000 C   0  0  0  0  0  0  0  0  0  0  0  0
   -0.0000   -6.6986    0.0000 C   0  0  0  0  0  0  0  0  0  0  0  0
    1.4906   -6.5306    0.0000 C   0  0  0  0  0  0  0  0  0  0  0  0
    2.9064   -6.0352    0.0000 C   0  0  0  0  0  0  0  0  0  0  0  0
    4.1765   -5.2371    0.0000 C   0  0  0  0  0  0  0  0  0  0  0  0
    5.2371   -4.1765    0.0000 C   0  0  0  0  0  0  0  0  0  0  0  0
    6.0352   -2.9064    0.0000 C   0  0  0  0  0  0  0  0  0  0  0  0
    7.2286   -3.8151    0.0000 C   0  0  0  0  0  0  0  0  0  0  0  0
  1  2  2  0
  2  3  1  0
  3  4  2  0
  4  5  1  0
  5  6  1  0
  6  7  1  0
  7  8  1  0
  8  9  1  0
  9 10  1  0
 10 11  1  0
 11 12  1  0
 12 13  1  0
 13 14  1  0
 14 15  1  0
 15 16  1  0
 16 17  1  0
 17 18  1  0
 18 19  1  0
 19 20  1  0
 20 21  1  0
 21 22  1  0
 22 23  1  0
 23 24  1  0
 24 25  1  0
 25 26  1  0
 26 27  1  0
 27 28  1  0
 28 29  1  0
 29 30  1  0
 30 31  2  0
 31  1  1  0
 30  3  1  0
M  END
>  <Title>  (566) 
idAATVgen6

$$$$

     RDKit          2D

 29 31  0  0  0  0  0  0  0  0999 V2000
   -3.0020   -0.6956    0.0000 C   0  0  0  0  0  0  0  0  0  0  0  0
   -2.1203   -1.9091    0.0000 C   0  0  0  0  0  0  0  0  0  0  0  0
   -3.1240   -3.0239    0.0000 C   0  0  0  0  0  0  0  0  0  0  0  0
   -3.5875   -4.4504    0.0000 C   0  0  0  0  0  0  0  0  0  0  0  0
   -3.4307   -5.9422    0.0000 C   0  0  0  0  0  0  0  0  0  0  0  0
   -2.6807   -7.2413    0.0000 C   0  0  0  0  0  0  0  0  0  0  0  0
   -1.4672   -8.1229    0.0000 C   0  0  0  0  0  0  0  0  0  0  0  0
   -0.0000   -8.4348    0.0000 C   0  0  0  0  0  0  0  0  0  0  0  0
    1.4672   -8.1229    0.0000 C   0  0  0  0  0  0  0  0  0  0  0  0
    2.6807   -7.2413    0.0000 C   0  0  0  0  0  0  0  0  0  0  0  0
    3.4307   -5.9422    0.0000 C   0  0  0  0  0  0  0  0  0  0  0  0
    3.5875   -4.4504    0.0000 C   0  0  0  0  0  0  0  0  0  0  0  0
    3.1240   -3.0239    0.0000 C   0  0  0  0  0  0  0  0  0  0  0  0
    2.1203   -1.9091    0.0000 C   0  0  0  0  0  0  0  0  0  0  0  0
    3.0020   -0.6956    0.0000 C   0  0  0  0  0  0  0  0  0  0  0  0
    2.3919    0.6747    0.0000 O   0  0  0  0  0  0  0  0  0  0  0  0
    4.4938   -0.8524    0.0000 N   0  0  0  0  0  0  0  0  0  0  0  0
    5.3755    0.3611    0.0000 C   0  0  0  0  0  0  0  0  0  0  0  0
    6.8672    0.2043    0.0000 N   0  0  0  0  0  0  0  0  0  0  0  0
    7.7489    1.4178    0.0000 N   0  0  0  0  0  0  0  0  0  0  0  0
    7.1388    2.7882    0.0000 N   0  0  0  0  0  0  0  0  0  0  0  0
    5.6470    2.9450    0.0000 N   0  0  0  0  0  0  0  0  0  0  0  0
    4.7654    1.7314    0.0000 N   0  0  0  0  0  0  0  0  0  0  0  0
    0.7500   -1.2990    0.0000 C   0  0  0  0  0  0  0  0  0  0  0  0
    1.5000    0.0000    0.0000 C   0  0  0  0  0  0  0  0  0  0  0  0
    0.7500    1.2990    0.0000 C   0  0  0  0  0  0  0  0  0  0  0  0
   -0.7500    1.2990    0.0000 C   0  0  0  0  0  0  0  0  0  0  0  0
   -1.5000    0.0000    0.0000 C   0  0  0  0  0  0  0  0  0  0  0  0
   -0.7500   -1.2990    0.0000 C   0  0  0  0  0  0  0  0  0  0  0  0
  1  2  1  0
  2  3  1  0
  3  4  2  0
  4  5  1  0
  5  6  1  0
  6  7  1  0
  7  8  1  0
  8  9  1  0
  9 10  1  0
 10 11  1  0
 11 12  1  0
 12 13  1  0
 13 14  1  0
 14 15  1  0
 15 16  2  0
 15 17  1  0
 17 18  1  0
 18 19  2  0
 19 20  1  0
 20 21  2  0
 21 22  1  0
 22 23  2  0
 14 24  1  0
 24 25  2  0
 25 26  1  0
 26 27  2  0
 27 28  1  0
 28 29  2  0
 29  2  1  0
 23 18  1  0
 29 24  1  0
M  END
>  <Title>  (567) 
idAATWgen6

$$$$

     RDKit          2D

 32 36  0  0  0  0  0  0  0  0999 V2000
   -0.7500   -3.8971    0.0000 O   0  0  0  0  0  0  0  0  0  0  0  0
    0.7500   -3.8971    0.0000 C   0  0  0  0  0  0  0  0  0  0  0  0
    1.5000   -2.5981    0.0000 C   0  0  0  0  0  0  0  0  0  0  0  0
    0.7500   -1.2990    0.0000 C   0  0  0  0  0  0  0  0  0  0  0  0
    1.5000    0.0000    0.0000 C   0  0  0  0  0  0  0  0  0  0  0  0
    0.7500    1.2990    0.0000 C   0  0  0  0  0  0  0  0  0  0  0  0
   -0.7500    1.2990    0.0000 C   0  0  0  0  0  0  0  0  0  0  0  0
   -1.5000    2.5981    0.0000 N   0  0  0  0  0  0  0  0  0  0  0  0
   -2.9918    2.7549    0.0000 C   0  0  0  0  0  0  0  0  0  0  0  0
   -3.3037    4.2221    0.0000 C   0  0  0  0  0  0  0  0  0  0  0  0
   -2.0046    4.9721    0.0000 C   0  0  0  0  0  0  0  0  0  0  0  0
   -0.8899    3.9684    0.0000 C   0  0  0  0  0  0  0  0  0  0  0  0
   -1.5000    0.0000    0.0000 C   0  0  0  0  0  0  0  0  0  0  0  0
   -0.7500   -1.2990    0.0000 C   0  0  0  0  0  0  0  0  0  0  0  0
    1.5000   -5.1962    0.0000 N   0  0  0  0  0  0  0  0  0  0  0  0
    0.7500   -6.4952    0.0000 C   0  0  0  0  0  0  0  0  0  0  0  0
    1.5000   -7.7942    0.0000 C   0  0  0  0  0  0  0  0  0  0  0  0
    3.0000   -7.7942    0.0000 C   0  0  0  0  0  0  0  0  0  0  0  0
    3.7500   -9.0933    0.0000 N   0  0  0  0  0  0  0  0  0  0  0  0
    3.0000  -10.3923    0.0000 C   0  0  0  0  0  0  0  0  0  0  0  0
    3.7500  -11.6913    0.0000 C   0  0  0  0  0  0  0  0  0  0  0  0
    5.2500  -11.6913    0.0000 C   0  0  0  0  0  0  0  0  0  0  0  0
    6.0000  -12.9904    0.0000 C   0  0  0  0  0  0  0  0  0  0  0  0
    5.2500  -14.2894    0.0000 C   0  0  0  0  0  0  0  0  0  0  0  0
    6.0000  -15.5885    0.0000 C   0  0  0  0  0  0  0  0  0  0  0  0
    7.5000  -15.5885    0.0000 C   0  0  0  0  0  0  0  0  0  0  0  0
    8.2500  -14.2894    0.0000 C   0  0  0  0  0  0  0  0  0  0  0  0
    7.5000  -12.9904    0.0000 C   0  0  0  0  0  0  0  0  0  0  0  0
    6.0000  -10.3923    0.0000 C   0  0  0  0  0  0  0  0  0  0  0  0
    5.2500   -9.0933    0.0000 C   0  0  0  0  0  0  0  0  0  0  0  0
    3.7500   -6.4952    0.0000 C   0  0  0  0  0  0  0  0  0  0  0  0
    3.0000   -5.1962    0.0000 C   0  0  0  0  0  0  0  0  0  0  0  0
  1  2  2  0
  2  3  1  0
  3  4  1  0
  4  5  2  0
  5  6  1  0
  6  7  2  0
  7  8  1  0
  8  9  1  0
  9 10  1  0
 10 11  1  0
 11 12  1  0
  7 13  1  0
 13 14  1  0
  2 15  1  0
 15 16  1  0
 16 17  1  0
 17 18  1  0
 18 19  1  0
 19 20  1  0
 20 21  2  0
 21 22  1  0
 22 23  1  0
 23 24  2  0
 24 25  1  0
 25 26  2  0
 26 27  1  0
 27 28  2  0
 22 29  1  0
 29 30  1  0
 18 31  1  0
 31 32  1  0
 14  4  1  0
 32 15  1  0
 12  8  1  0
 30 19  1  0
 28 23  1  0
M  END
>  <Title>  (568) 
idAATXgen6

$$$$

     RDKit          2D

 16 16  0  0  0  0  0  0  0  0999 V2000
    7.5000   -2.5981    0.0000 C   0  0  0  0  0  0  0  0  0  0  0  0
    6.0000   -2.5981    0.0000 C   0  0  0  0  0  0  0  0  0  0  0  0
    5.2500   -3.8971    0.0000 O   0  0  0  0  0  0  0  0  0  0  0  0
    5.2500   -1.2990    0.0000 C   0  0  0  0  0  0  0  0  0  0  0  0
    3.7500   -1.2990    0.0000 N   0  0  0  0  0  0  0  0  0  0  0  0
    3.0000    0.0000    0.0000 C   0  0  0  0  0  0  0  0  0  0  0  0
    3.7500    1.2990    0.0000 O   0  0  0  0  0  0  0  0  0  0  0  0
    1.5000    0.0000    0.0000 C   0  0  0  0  0  0  0  0  0  0  0  0
    0.7500   -1.2990    0.0000 C   0  0  0  0  0  0  0  0  0  0  0  0
   -0.7500   -1.2990    0.0000 C   0  0  0  0  0  0  0  0  0  0  0  0
   -1.5000    0.0000    0.0000 C   0  0  0  0  0  0  0  0  0  0  0  0
   -0.7500    1.2990    0.0000 C   0  0  0  0  0  0  0  0  0  0  0  0
    0.7500    1.2990    0.0000 C   0  0  0  0  0  0  0  0  0  0  0  0
    6.0000    0.0000    0.0000 C   0  0  0  0  0  0  0  0  0  0  0  0
    5.2500    1.2990    0.0000 O   0  0  0  0  0  0  0  0  0  0  0  0
    7.5000   -0.0000    0.0000 O   0  0  0  0  0  0  0  0  0  0  0  0
  1  2  1  0
  2  3  2  0
  2  4  1  0
  4  5  1  0
  5  6  1  0
  6  7  2  0
  6  8  1  0
  8  9  1  0
  9 10  1  0
 10 11  1  0
 11 12  1  0
 12 13  1  0
  4 14  1  0
 14 15  2  0
 14 16  1  0
 13  8  1  0
M  END
>  <Title>  (569) 
idAATYgen6

$$$$

     RDKit          2D

 17 18  0  0  0  0  0  0  0  0999 V2000
   -6.1170   -7.0506    0.0000 C   0  0  0  0  0  0  0  0  0  0  0  0
   -4.6904   -6.5871    0.0000 C   0  0  0  0  0  0  0  0  0  0  0  0
   -4.3786   -5.1199    0.0000 C   0  0  0  0  0  0  0  0  0  0  0  0
   -2.9520   -4.6564    0.0000 C   0  0  0  0  0  0  0  0  0  0  0  0
   -1.8373   -5.6601    0.0000 O   0  0  0  0  0  0  0  0  0  0  0  0
   -2.6401   -3.1891    0.0000 O   0  0  0  0  0  0  0  0  0  0  0  0
   -1.2135   -2.7256    0.0000 C   0  0  0  0  0  0  0  0  0  0  0  0
   -0.0000   -3.6073    0.0000 C   0  0  0  0  0  0  0  0  0  0  0  0
    1.2135   -2.7256    0.0000 S   0  0  0  0  0  0  0  0  0  0  0  0
    2.5838   -2.1155    0.0000 O   0  0  0  0  0  0  0  0  0  0  0  0
    1.9635   -4.0247    0.0000 O   0  0  0  0  0  0  0  0  0  0  0  0
    0.7500   -1.2990    0.0000 C   0  0  0  0  0  0  0  0  0  0  0  0
    1.5000    0.0000    0.0000 C   0  0  0  0  0  0  0  0  0  0  0  0
    0.7500    1.2990    0.0000 C   0  0  0  0  0  0  0  0  0  0  0  0
   -0.7500    1.2990    0.0000 C   0  0  0  0  0  0  0  0  0  0  0  0
   -1.5000    0.0000    0.0000 C   0  0  0  0  0  0  0  0  0  0  0  0
   -0.7500   -1.2990    0.0000 C   0  0  0  0  0  0  0  0  0  0  0  0
  1  2  2  0
  2  3  1  0
  3  4  1  0
  4  5  2  0
  4  6  1  0
  6  7  1  0
  7  8  2  0
  8  9  1  0
  9 10  2  0
  9 11  2  0
  9 12  1  0
 12 13  2  0
 13 14  1  0
 14 15  2  0
 15 16  1  0
 16 17  2  0
 17  7  1  0
 17 12  1  0
M  END
>  <Title>  (570) 
idAATZgen6

$$$$

     RDKit          2D

 31 34  0  0  0  0  0  0  0  0999 V2000
   -3.7500   -3.8971    0.0000 C   0  0  0  0  0  0  0  0  0  0  0  0
   -3.0000   -2.5981    0.0000 O   0  0  0  0  0  0  0  0  0  0  0  0
   -1.5000   -2.5981    0.0000 C   0  0  0  0  0  0  0  0  0  0  0  0
   -0.7500   -3.8971    0.0000 C   0  0  0  0  0  0  0  0  0  0  0  0
    0.7500   -3.8971    0.0000 C   0  0  0  0  0  0  0  0  0  0  0  0
    1.5000   -5.1962    0.0000 C   0  0  0  0  0  0  0  0  0  0  0  0
    2.9918   -5.3529    0.0000 C   0  0  0  0  0  0  0  0  0  0  0  0
    3.3037   -6.8202    0.0000 C   0  0  0  0  0  0  0  0  0  0  0  0
    2.0046   -7.5702    0.0000 C   0  0  0  0  0  0  0  0  0  0  0  0
    1.8478   -9.0619    0.0000 C   0  0  0  0  0  0  0  0  0  0  0  0
    3.0613   -9.9436    0.0000 O   0  0  0  0  0  0  0  0  0  0  0  0
    0.4775   -9.6721    0.0000 N   0  0  0  0  0  0  0  0  0  0  0  0
    0.3207  -11.1638    0.0000 C   0  0  0  0  0  0  0  0  0  0  0  0
    1.5342  -12.0455    0.0000 O   0  0  0  0  0  0  0  0  0  0  0  0
   -1.0496  -11.7739    0.0000 C   0  0  0  0  0  0  0  0  0  0  0  0
   -1.2064  -13.2657    0.0000 C   0  0  0  0  0  0  0  0  0  0  0  0
   -2.5767  -13.8758    0.0000 C   0  0  0  0  0  0  0  0  0  0  0  0
   -2.7335  -15.3676    0.0000 C   0  0  0  0  0  0  0  0  0  0  0  0
   -1.5200  -16.2493    0.0000 C   0  0  0  0  0  0  0  0  0  0  0  0
   -0.1497  -15.6392    0.0000 C   0  0  0  0  0  0  0  0  0  0  0  0
    0.0071  -14.1474    0.0000 C   0  0  0  0  0  0  0  0  0  0  0  0
    0.8899   -6.5665    0.0000 C   0  0  0  0  0  0  0  0  0  0  0  0
    1.5000   -2.5981    0.0000 O   0  0  0  0  0  0  0  0  0  0  0  0
    0.7500   -1.2990    0.0000 C   0  0  0  0  0  0  0  0  0  0  0  0
    1.5000    0.0000    0.0000 C   0  0  0  0  0  0  0  0  0  0  0  0
    0.7500    1.2990    0.0000 C   0  0  0  0  0  0  0  0  0  0  0  0
   -0.7500    1.2990    0.0000 C   0  0  0  0  0  0  0  0  0  0  0  0
   -1.5000    2.5981    0.0000 C   0  0  0  0  0  0  0  0  0  0  0  0
   -2.2500    3.8971    0.0000 N   0  0  0  0  0  0  0  0  0  0  0  0
   -1.5000    0.0000    0.0000 C   0  0  0  0  0  0  0  0  0  0  0  0
   -0.7500   -1.2990    0.0000 C   0  0  0  0  0  0  0  0  0  0  0  0
  1  2  1  0
  2  3  1  0
  3  4  1  0
  4  5  2  0
  5  6  1  0
  6  7  1  0
  7  8  1  0
  8  9  1  0
  9 10  1  0
 10 11  2  0
 10 12  1  0
 12 13  1  0
 13 14  2  0
 13 15  1  0
 15 16  1  0
 16 17  2  0
 17 18  1  0
 18 19  2  0
 19 20  1  0
 20 21  2  0
  9 22  1  0
  5 23  1  0
 23 24  1  0
 24 25  2  0
 25 26  1  0
 26 27  2  0
 27 28  1  0
 28 29  3  0
 27 30  1  0
 30 31  2  0
 31  3  1  0
 22  6  1  0
 31 24  1  0
 21 16  1  0
M  END
>  <Title>  (571) 
idAAUAgen6

$$$$

     RDKit          2D

 24 26  0  0  0  0  0  0  0  0999 V2000
    3.0000    0.0000    0.0000 C   0  0  0  0  0  0  0  0  0  0  0  0
    1.5000    0.0000    0.0000 C   0  0  0  0  0  0  0  0  0  0  0  0
    0.7500   -1.2990    0.0000 C   0  0  0  0  0  0  0  0  0  0  0  0
   -0.7500   -1.2990    0.0000 C   0  0  0  0  0  0  0  0  0  0  0  0
   -1.5000    0.0000    0.0000 C   0  0  0  0  0  0  0  0  0  0  0  0
   -0.7500    1.2990    0.0000 C   0  0  0  0  0  0  0  0  0  0  0  0
   -1.5000    2.5981    0.0000 N   0  0  0  0  0  0  0  0  0  0  0  0
   -2.9918    2.7549    0.0000 C   0  0  0  0  0  0  0  0  0  0  0  0
   -3.3037    4.2221    0.0000 C   0  0  0  0  0  0  0  0  0  0  0  0
   -2.0046    4.9721    0.0000 C   0  0  0  0  0  0  0  0  0  0  0  0
   -1.8478    6.4639    0.0000 C   0  0  0  0  0  0  0  0  0  0  0  0
   -3.0613    7.3456    0.0000 O   0  0  0  0  0  0  0  0  0  0  0  0
   -0.4775    7.0740    0.0000 N   0  0  0  0  0  0  0  0  0  0  0  0
   -0.3207    8.5658    0.0000 C   0  0  0  0  0  0  0  0  0  0  0  0
   -1.5342    9.4474    0.0000 O   0  0  0  0  0  0  0  0  0  0  0  0
    1.0496    9.1759    0.0000 C   0  0  0  0  0  0  0  0  0  0  0  0
    2.2631    8.2942    0.0000 C   0  0  0  0  0  0  0  0  0  0  0  0
    3.6335    8.9043    0.0000 C   0  0  0  0  0  0  0  0  0  0  0  0
    3.7902   10.3961    0.0000 C   0  0  0  0  0  0  0  0  0  0  0  0
    2.5767   11.2778    0.0000 C   0  0  0  0  0  0  0  0  0  0  0  0
    1.2064   10.6676    0.0000 C   0  0  0  0  0  0  0  0  0  0  0  0
   -0.8899    3.9684    0.0000 C   0  0  0  0  0  0  0  0  0  0  0  0
    0.5773    4.2803    0.0000 O   0  0  0  0  0  0  0  0  0  0  0  0
    0.7500    1.2990    0.0000 N   0  0  0  0  0  0  0  0  0  0  0  0
  1  2  1  0
  2  3  1  0
  3  4  2  0
  4  5  1  0
  5  6  2  0
  6  7  1  0
  7  8  1  0
  8  9  2  0
  9 10  1  0
 10 11  1  0
 11 12  2  0
 11 13  1  0
 13 14  1  0
 14 15  2  0
 14 16  1  0
 16 17  2  0
 17 18  1  0
 18 19  2  0
 19 20  1  0
 20 21  2  0
 10 22  1  0
 22 23  2  0
  6 24  1  0
 24  2  1  0
 22  7  1  0
 21 16  1  0
M  END
>  <Title>  (572) 
idAAUBgen6

$$$$

     RDKit          2D

 32 35  0  0  0  0  0  0  0  0999 V2000
    8.2141    1.4678    0.0000 C   0  0  0  0  0  0  0  0  0  0  0  0
    7.2442    0.3235    0.0000 C   0  0  0  0  0  0  0  0  0  0  0  0
    5.7924    0.7009    0.0000 C   0  0  0  0  0  0  0  0  0  0  0  0
    4.5922   -0.1988    0.0000 C   0  0  0  0  0  0  0  0  0  0  0  0
    4.5474   -1.6982    0.0000 C   0  0  0  0  0  0  0  0  0  0  0  0
    3.1771   -2.3083    0.0000 C   0  0  0  0  0  0  0  0  0  0  0  0
    1.9635   -1.4266    0.0000 C   0  0  0  0  0  0  0  0  0  0  0  0
    2.4271    0.0000    0.0000 C   0  0  0  0  0  0  0  0  0  0  0  0
    1.9635    1.4266    0.0000 C   0  0  0  0  0  0  0  0  0  0  0  0
    3.1771    2.3083    0.0000 C   0  0  0  0  0  0  0  0  0  0  0  0
    4.5474    1.6982    0.0000 C   0  0  0  0  0  0  0  0  0  0  0  0
    5.7609    2.5798    0.0000 C   0  0  0  0  0  0  0  0  0  0  0  0
    5.6041    4.0716    0.0000 C   0  0  0  0  0  0  0  0  0  0  0  0
    4.2338    4.6817    0.0000 C   0  0  0  0  0  0  0  0  0  0  0  0
    3.0203    3.8000    0.0000 C   0  0  0  0  0  0  0  0  0  0  0  0
    0.7500    2.3083    0.0000 C   0  0  0  0  0  0  0  0  0  0  0  0
   -0.7500    2.3083    0.0000 C   0  0  0  0  0  0  0  0  0  0  0  0
   -1.9635    1.4266    0.0000 C   0  0  0  0  0  0  0  0  0  0  0  0
   -2.4271    0.0000    0.0000 C   0  0  0  0  0  0  0  0  0  0  0  0
   -1.9635   -1.4266    0.0000 C   0  0  0  0  0  0  0  0  0  0  0  0
   -0.7500   -2.3083    0.0000 C   0  0  0  0  0  0  0  0  0  0  0  0
    0.7500   -2.3083    0.0000 C   0  0  0  0  0  0  0  0  0  0  0  0
    1.2135   -3.7348    0.0000 C   0  0  0  0  0  0  0  0  0  0  0  0
    0.2098   -4.8496    0.0000 C   0  0  0  0  0  0  0  0  0  0  0  0
    0.6734   -6.2761    0.0000 C   0  0  0  0  0  0  0  0  0  0  0  0
    2.1406   -6.5880    0.0000 C   0  0  0  0  0  0  0  0  0  0  0  0
    3.1443   -5.4733    0.0000 C   0  0  0  0  0  0  0  0  0  0  0  0
    2.6807   -4.0467    0.0000 C   0  0  0  0  0  0  0  0  0  0  0  0
    5.6916   -2.6681    0.0000 C   0  0  0  0  0  0  0  0  0  0  0  0
    7.1633   -2.3782    0.0000 C   0  0  0  0  0  0  0  0  0  0  0  0
    8.0631   -3.5784    0.0000 C   0  0  0  0  0  0  0  0  0  0  0  0
    7.8543   -1.0468    0.0000 C   0  0  0  0  0  0  0  0  0  0  0  0
  1  2  1  0
  2  3  1  0
  3  4  1  0
  4  5  1  0
  5  6  1  0
  6  7  1  0
  7  8  2  0
  8  9  1  0
  9 10  1  0
 10 11  2  0
 11 12  1  0
 12 13  2  0
 13 14  1  0
 14 15  2  0
  9 16  2  0
 16 17  1  0
 17 18  2  0
 18 19  1  0
 19 20  2  0
 20 21  1  0
 21 22  2  0
 22 23  1  0
 23 24  2  0
 24 25  1  0
 25 26  2  0
 26 27  1  0
 27 28  2  0
  5 29  1  0
 29 30  1  0
 30 31  1  0
 30 32  1  0
 32  2  1  0
 22  7  1  0
 28 23  1  0
 15 10  1  0
M  END
>  <Title>  (573) 
idAAUCgen6

$$$$

     RDKit          2D

 29 31  0  0  0  0  0  0  0  0999 V2000
   -6.4140    9.7578    0.0000 C   0  0  0  0  0  0  0  0  0  0  0  0
   -5.6640    8.4587    0.0000 C   0  0  0  0  0  0  0  0  0  0  0  0
   -4.1640    8.4587    0.0000 O   0  0  0  0  0  0  0  0  0  0  0  0
   -6.4140    7.1597    0.0000 O   0  0  0  0  0  0  0  0  0  0  0  0
   -5.6640    5.8606    0.0000 C   0  0  0  0  0  0  0  0  0  0  0  0
   -4.1640    5.8606    0.0000 O   0  0  0  0  0  0  0  0  0  0  0  0
   -6.4140    4.5616    0.0000 C   0  0  0  0  0  0  0  0  0  0  0  0
   -7.9140    4.5616    0.0000 C   0  0  0  0  0  0  0  0  0  0  0  0
   -8.6640    5.8606    0.0000 C   0  0  0  0  0  0  0  0  0  0  0  0
   -7.9140    7.1597    0.0000 C   0  0  0  0  0  0  0  0  0  0  0  0
   -8.6640    8.4587    0.0000 C   0  0  0  0  0  0  0  0  0  0  0  0
  -10.1640    8.4587    0.0000 C   0  0  0  0  0  0  0  0  0  0  0  0
  -10.9140    7.1597    0.0000 C   0  0  0  0  0  0  0  0  0  0  0  0
  -10.1640    5.8606    0.0000 C   0  0  0  0  0  0  0  0  0  0  0  0
   -5.6640    3.2626    0.0000 N   0  0  0  0  0  0  0  0  0  0  0  0
   -4.1640    3.2626    0.0000 C   0  0  0  0  0  0  0  0  0  0  0  0
   -3.4140    4.5616    0.0000 O   0  0  0  0  0  0  0  0  0  0  0  0
   -3.4140    1.9635    0.0000 C   0  0  0  0  0  0  0  0  0  0  0  0
   -4.1640    0.6645    0.0000 C   0  0  0  0  0  0  0  0  0  0  0  0
   -3.4140   -0.6346    0.0000 O   0  0  0  0  0  0  0  0  0  0  0  0
   -5.6640    0.6645    0.0000 O   0  0  0  0  0  0  0  0  0  0  0  0
   -1.9140    1.9635    0.0000 C   0  0  0  0  0  0  0  0  0  0  0  0
   -1.0323    3.1771    0.0000 C   0  0  0  0  0  0  0  0  0  0  0  0
    0.3943    2.7135    0.0000 C   0  0  0  0  0  0  0  0  0  0  0  0
    0.3943    1.2135    0.0000 C   0  0  0  0  0  0  0  0  0  0  0  0
    1.2760    0.0000    0.0000 C   0  0  0  0  0  0  0  0  0  0  0  0
    0.3943   -1.2135    0.0000 C   0  0  0  0  0  0  0  0  0  0  0  0
   -1.0323   -0.7500    0.0000 C   0  0  0  0  0  0  0  0  0  0  0  0
   -1.0323    0.7500    0.0000 C   0  0  0  0  0  0  0  0  0  0  0  0
  1  2  1  0
  2  3  2  0
  2  4  1  0
  4  5  1  0
  5  6  2  0
  5  7  1  0
  7  8  1  0
  8  9  1  0
  9 10  2  0
 10 11  1  0
 11 12  2  0
 12 13  1  0
 13 14  2  0
  7 15  1  0
 15 16  1  0
 16 17  2  0
 16 18  1  0
 18 19  1  0
 19 20  2  0
 19 21  1  0
 18 22  1  0
 22 23  2  0
 23 24  1  0
 24 25  2  0
 25 26  1  0
 26 27  2  0
 27 28  1  0
 28 29  2  0
 14  9  1  0
 29 22  1  0
 29 25  1  0
M  END
>  <Title>  (574) 
idAAUDgen6

$$$$

     RDKit          2D

 22 24  0  0  0  0  0  0  0  0999 V2000
    5.2500   -1.2990    0.0000 C   0  0  0  0  0  0  0  0  0  0  0  0
    3.7500   -1.2990    0.0000 C   0  0  0  0  0  0  0  0  0  0  0  0
    3.0000   -2.5981    0.0000 O   0  0  0  0  0  0  0  0  0  0  0  0
    3.0000    0.0000    0.0000 C   0  0  0  0  0  0  0  0  0  0  0  0
    3.7500    1.2990    0.0000 O   0  0  0  0  0  0  0  0  0  0  0  0
    1.5000    0.0000    0.0000 C   0  0  0  0  0  0  0  0  0  0  0  0
    0.7500   -1.2990    0.0000 C   0  0  0  0  0  0  0  0  0  0  0  0
   -0.7500   -1.2990    0.0000 C   0  0  0  0  0  0  0  0  0  0  0  0
   -1.5000    0.0000    0.0000 C   0  0  0  0  0  0  0  0  0  0  0  0
   -3.0000    0.0000    0.0000 N   0  0  0  0  0  0  0  0  0  0  0  0
   -3.8817   -1.2135    0.0000 C   0  0  0  0  0  0  0  0  0  0  0  0
   -5.3083   -0.7500    0.0000 C   0  0  0  0  0  0  0  0  0  0  0  0
   -5.3083    0.7500    0.0000 C   0  0  0  0  0  0  0  0  0  0  0  0
   -6.5218    1.6317    0.0000 C   0  0  0  0  0  0  0  0  0  0  0  0
   -6.3650    3.1235    0.0000 C   0  0  0  0  0  0  0  0  0  0  0  0
   -7.5785    4.0051    0.0000 C   0  0  0  0  0  0  0  0  0  0  0  0
   -8.9488    3.3950    0.0000 C   0  0  0  0  0  0  0  0  0  0  0  0
   -9.1056    1.9033    0.0000 C   0  0  0  0  0  0  0  0  0  0  0  0
   -7.8921    1.0216    0.0000 C   0  0  0  0  0  0  0  0  0  0  0  0
   -3.8817    1.2135    0.0000 C   0  0  0  0  0  0  0  0  0  0  0  0
   -0.7500    1.2990    0.0000 C   0  0  0  0  0  0  0  0  0  0  0  0
    0.7500    1.2990    0.0000 C   0  0  0  0  0  0  0  0  0  0  0  0
  1  2  1  0
  2  3  2  0
  2  4  1  0
  4  5  2  0
  4  6  1  0
  6  7  2  0
  7  8  1  0
  8  9  2  0
  9 10  1  0
 10 11  1  0
 11 12  1  0
 12 13  1  0
 13 14  1  0
 14 15  2  0
 15 16  1  0
 16 17  2  0
 17 18  1  0
 18 19  2  0
 13 20  1  0
  9 21  1  0
 21 22  1  0
 22  6  1  0
 20 10  1  0
 19 14  1  0
M  END
>  <Title>  (575) 
idAAUEgen6

$$$$

     RDKit          2D

 15 15  0  0  0  0  0  0  0  0999 V2000
    6.0000   -2.5981    0.0000 C   0  0  0  0  0  0  0  0  0  0  0  0
    5.2500   -1.2990    0.0000 C   0  0  0  0  0  0  0  0  0  0  0  0
    6.0000    0.0000    0.0000 O   0  0  0  0  0  0  0  0  0  0  0  0
    3.7500   -1.2990    0.0000 C   0  0  0  0  0  0  0  0  0  0  0  0
    3.0000    0.0000    0.0000 C   0  0  0  0  0  0  0  0  0  0  0  0
    1.5000    0.0000    0.0000 C   0  0  0  0  0  0  0  0  0  0  0  0
    0.7500   -1.2990    0.0000 C   0  0  0  0  0  0  0  0  0  0  0  0
   -0.7500   -1.2990    0.0000 C   0  0  0  0  0  0  0  0  0  0  0  0
   -1.5000    0.0000    0.0000 C   0  0  0  0  0  0  0  0  0  0  0  0
   -3.0000    0.0000    0.0000 O   0  0  0  0  0  0  0  0  0  0  0  0
   -0.7500    1.2990    0.0000 C   0  0  0  0  0  0  0  0  0  0  0  0
    0.7500    1.2990    0.0000 C   0  0  0  0  0  0  0  0  0  0  0  0
    3.0000   -2.5981    0.0000 C   0  0  0  0  0  0  0  0  0  0  0  0
    1.5000   -2.5981    0.0000 O   0  0  0  0  0  0  0  0  0  0  0  0
    3.7500   -3.8971    0.0000 O   0  0  0  0  0  0  0  0  0  0  0  0
  1  2  1  0
  2  3  2  0
  2  4  1  0
  4  5  2  3
  5  6  1  0
  6  7  2  0
  7  8  1  0
  8  9  2  0
  9 10  1  0
  9 11  1  0
 11 12  2  0
  4 13  1  0
 13 14  2  0
 13 15  1  0
 12  6  1  0
M  END
>  <Title>  (576) 
idAAUFgen6

$$$$

     RDKit          2D

 48 53  0  0  0  0  0  0  0  0999 V2000
    3.4598   -0.0000    0.0000 C   0  0  0  0  0  0  0  0  0  0  0  0
    1.9598    0.0000    0.0000 C   0  0  0  0  0  0  0  0  0  0  0  0
    1.3858   -1.3858    0.0000 C   0  0  0  0  0  0  0  0  0  0  0  0
   -0.0000   -1.9598    0.0000 C   0  0  0  0  0  0  0  0  0  0  0  0
   -1.3858   -1.3858    0.0000 C   0  0  0  0  0  0  0  0  0  0  0  0
   -1.9598    0.0000    0.0000 C   0  0  0  0  0  0  0  0  0  0  0  0
   -1.3858    1.3858    0.0000 C   0  0  0  0  0  0  0  0  0  0  0  0
    0.0000    1.9598    0.0000 C   0  0  0  0  0  0  0  0  0  0  0  0
    0.0000    3.4598    0.0000 N   0  0  0  0  0  0  0  0  0  0  0  0
   -1.2990    4.2098    0.0000 C   0  0  0  0  0  0  0  0  0  0  0  0
   -2.5981    3.4598    0.0000 O   0  0  0  0  0  0  0  0  0  0  0  0
   -1.2990    5.7098    0.0000 C   0  0  0  0  0  0  0  0  0  0  0  0
    0.0000    6.4598    0.0000 C   0  0  0  0  0  0  0  0  0  0  0  0
    0.0000    7.9598    0.0000 C   0  0  0  0  0  0  0  0  0  0  0  0
   -1.2990    8.7098    0.0000 C   0  0  0  0  0  0  0  0  0  0  0  0
   -1.2990   10.2098    0.0000 O   0  0  0  0  0  0  0  0  0  0  0  0
   -2.5981    7.9598    0.0000 C   0  0  0  0  0  0  0  0  0  0  0  0
   -2.5981    6.4598    0.0000 C   0  0  0  0  0  0  0  0  0  0  0  0
    1.3858    1.3858    0.0000 C   0  0  0  0  0  0  0  0  0  0  0  0
    2.4465    2.4465    0.0000 C   0  0  0  0  0  0  0  0  0  0  0  0
    2.0583    3.8954    0.0000 C   0  0  0  0  0  0  0  0  0  0  0  0
    3.1189    4.9560    0.0000 C   0  0  0  0  0  0  0  0  0  0  0  0
    4.5678    4.5678    0.0000 O   0  0  0  0  0  0  0  0  0  0  0  0
    2.7307    6.4049    0.0000 N   0  0  0  0  0  0  0  0  0  0  0  0
    3.7913    7.4656    0.0000 C   0  0  0  0  0  0  0  0  0  0  0  0
    3.4031    8.9145    0.0000 C   0  0  0  0  0  0  0  0  0  0  0  0
    1.9542    9.3027    0.0000 C   0  0  0  0  0  0  0  0  0  0  0  0
    1.5660   10.7516    0.0000 C   0  0  0  0  0  0  0  0  0  0  0  0
    0.1656   11.2891    0.0000 N   0  0  0  0  0  0  0  0  0  0  0  0
    0.2441   12.7871    0.0000 N   0  0  0  0  0  0  0  0  0  0  0  0
    1.6930   13.1753    0.0000 N   0  0  0  0  0  0  0  0  0  0  0  0
    2.5100   11.9173    0.0000 N   0  0  0  0  0  0  0  0  0  0  0  0
    4.0079   11.8388    0.0000 C   0  0  0  0  0  0  0  0  0  0  0  0
    4.9519   13.0045    0.0000 C   0  0  0  0  0  0  0  0  0  0  0  0
    6.3523   12.4670    0.0000 C   0  0  0  0  0  0  0  0  0  0  0  0
    6.2738   10.9690    0.0000 C   0  0  0  0  0  0  0  0  0  0  0  0
    7.4395   10.0250    0.0000 C   0  0  0  0  0  0  0  0  0  0  0  0
    8.8399   10.5626    0.0000 O   0  0  0  0  0  0  0  0  0  0  0  0
    7.2048    8.5435    0.0000 N   0  0  0  0  0  0  0  0  0  0  0  0
    8.3706    7.5995    0.0000 C   0  0  0  0  0  0  0  0  0  0  0  0
    8.1359    6.1180    0.0000 C   0  0  0  0  0  0  0  0  0  0  0  0
    9.3016    5.1740    0.0000 C   0  0  0  0  0  0  0  0  0  0  0  0
   10.7020    5.7116    0.0000 C   0  0  0  0  0  0  0  0  0  0  0  0
   10.9366    7.1931    0.0000 C   0  0  0  0  0  0  0  0  0  0  0  0
    9.7709    8.1371    0.0000 C   0  0  0  0  0  0  0  0  0  0  0  0
    4.8249   10.5808    0.0000 C   0  0  0  0  0  0  0  0  0  0  0  0
    0.8936    8.2420    0.0000 C   0  0  0  0  0  0  0  0  0  0  0  0
    1.2818    6.7931    0.0000 C   0  0  0  0  0  0  0  0  0  0  0  0
  1  2  1  0
  2  3  1  0
  3  4  2  0
  4  5  1  0
  5  6  1  0
  6  7  1  0
  7  8  1  0
  8  9  1  0
  9 10  1  0
 10 11  2  0
 10 12  1  0
 12 13  2  0
 13 14  1  0
 14 15  2  0
 15 16  1  0
 15 17  1  0
 17 18  2  0
  8 19  1  0
 19 20  1  0
 20 21  1  0
 21 22  1  0
 22 23  2  0
 22 24  1  0
 24 25  1  0
 25 26  1  0
 26 27  1  0
 27 28  1  0
 28 29  2  0
 29 30  1  0
 30 31  2  0
 31 32  1  0
 32 33  1  0
 33 34  2  0
 34 35  1  0
 35 36  2  0
 36 37  1  0
 37 38  2  0
 37 39  1  0
 39 40  1  0
 40 41  2  0
 41 42  1  0
 42 43  2  0
 43 44  1  0
 44 45  2  0
 36 46  1  0
 27 47  1  0
 47 48  1  0
 19  2  1  0
 48 24  1  0
 18 12  1  0
 32 28  1  0
 46 33  1  0
 45 40  1  0
M  END
>  <Title>  (577) 
idAAUGgen6

$$$$

     RDKit          2D

 23 25  0  0  0  0  0  0  0  0999 V2000
    3.5761  -12.5951    0.0000 C   0  0  0  0  0  0  0  0  0  0  0  0
    4.3261  -11.2961    0.0000 C   0  0  0  0  0  0  0  0  0  0  0  0
    5.8179  -11.1393    0.0000 C   0  0  0  0  0  0  0  0  0  0  0  0
    6.1298   -9.6721    0.0000 C   0  0  0  0  0  0  0  0  0  0  0  0
    4.8308   -8.9221    0.0000 C   0  0  0  0  0  0  0  0  0  0  0  0
    4.6740   -7.4303    0.0000 C   0  0  0  0  0  0  0  0  0  0  0  0
    5.8875   -6.5486    0.0000 O   0  0  0  0  0  0  0  0  0  0  0  0
    3.3037   -6.8202    0.0000 N   0  0  0  0  0  0  0  0  0  0  0  0
    2.0046   -7.5702    0.0000 C   0  0  0  0  0  0  0  0  0  0  0  0
    0.8899   -6.5665    0.0000 C   0  0  0  0  0  0  0  0  0  0  0  0
    1.5000   -5.1962    0.0000 C   0  0  0  0  0  0  0  0  0  0  0  0
    0.7500   -3.8971    0.0000 C   0  0  0  0  0  0  0  0  0  0  0  0
   -0.7500   -3.8971    0.0000 O   0  0  0  0  0  0  0  0  0  0  0  0
    1.5000   -2.5981    0.0000 N   0  0  0  0  0  0  0  0  0  0  0  0
    0.7500   -1.2990    0.0000 C   0  0  0  0  0  0  0  0  0  0  0  0
    1.5000    0.0000    0.0000 N   0  0  0  0  0  0  0  0  0  0  0  0
    0.7500    1.2990    0.0000 N   0  0  0  0  0  0  0  0  0  0  0  0
   -0.7500    1.2990    0.0000 N   0  0  0  0  0  0  0  0  0  0  0  0
   -1.5000    0.0000    0.0000 N   0  0  0  0  0  0  0  0  0  0  0  0
   -0.7500   -1.2990    0.0000 N   0  0  0  0  0  0  0  0  0  0  0  0
    2.9918   -5.3529    0.0000 C   0  0  0  0  0  0  0  0  0  0  0  0
    3.9955   -4.2382    0.0000 O   0  0  0  0  0  0  0  0  0  0  0  0
    3.7160   -9.9258    0.0000 N   0  0  0  0  0  0  0  0  0  0  0  0
  1  2  1  0
  2  3  2  0
  3  4  1  0
  4  5  2  0
  5  6  1  0
  6  7  2  0
  6  8  1  0
  8  9  1  0
  9 10  1  0
 10 11  1  0
 11 12  1  0
 12 13  2  0
 12 14  1  0
 14 15  1  0
 15 16  2  0
 16 17  1  0
 17 18  2  0
 18 19  1  0
 19 20  2  0
 11 21  1  0
 21 22  2  0
  5 23  1  0
 23  2  1  0
 21  8  1  0
 20 15  1  0
M  END
>  <Title>  (578) 
idAAUHgen6

$$$$

     RDKit          2D

  3  2  0  0  0  0  0  0  0  0999 V2000
    0.0000    0.0000    0.0000 C   0  0  0  0  0  0  0  0  0  0  0  0
    1.2990    0.7500    0.0000 C   0  0  0  0  0  0  0  0  0  0  0  0
    2.5981   -0.0000    0.0000 O   0  0  0  0  0  0  0  0  0  0  0  0
  1  2  1  0
  2  3  1  0
M  END
>  <Title>  (579) 
idAAUIgen6

$$$$

     RDKit          2D

 46 49  0  0  0  0  0  0  0  0999 V2000
   -6.5449   -2.4926    0.0000 O   0  0  0  0  0  0  0  0  0  0  0  0
   -5.8717   -1.1521    0.0000 C   0  0  0  0  0  0  0  0  0  0  0  0
   -4.3743   -1.0649    0.0000 N   0  0  0  0  0  0  0  0  0  0  0  0
   -3.5500   -2.3182    0.0000 C   0  0  0  0  0  0  0  0  0  0  0  0
   -4.6991   -3.2823    0.0000 C   0  0  0  0  0  0  0  0  0  0  0  0
   -5.5948   -4.4855    0.0000 C   0  0  0  0  0  0  0  0  0  0  0  0
   -6.1889   -5.8629    0.0000 C   0  0  0  0  0  0  0  0  0  0  0  0
   -6.4494   -7.3401    0.0000 C   0  0  0  0  0  0  0  0  0  0  0  0
   -6.3622   -8.8375    0.0000 C   0  0  0  0  0  0  0  0  0  0  0  0
   -5.9320  -10.2745    0.0000 C   0  0  0  0  0  0  0  0  0  0  0  0
   -5.1820  -11.5735    0.0000 C   0  0  0  0  0  0  0  0  0  0  0  0
   -4.1526  -12.6646    0.0000 C   0  0  0  0  0  0  0  0  0  0  0  0
   -2.8994  -13.4889    0.0000 C   0  0  0  0  0  0  0  0  0  0  0  0
   -1.4899  -14.0019    0.0000 C   0  0  0  0  0  0  0  0  0  0  0  0
    0.0000  -14.1760    0.0000 C   0  0  0  0  0  0  0  0  0  0  0  0
    1.4899  -14.0019    0.0000 C   0  0  0  0  0  0  0  0  0  0  0  0
    2.8994  -13.4889    0.0000 C   0  0  0  0  0  0  0  0  0  0  0  0
    4.1526  -12.6646    0.0000 C   0  0  0  0  0  0  0  0  0  0  0  0
    5.1820  -11.5735    0.0000 C   0  0  0  0  0  0  0  0  0  0  0  0
    5.9320  -10.2745    0.0000 C   0  0  0  0  0  0  0  0  0  0  0  0
    6.3622   -8.8375    0.0000 C   0  0  0  0  0  0  0  0  0  0  0  0
    6.4494   -7.3401    0.0000 C   0  0  0  0  0  0  0  0  0  0  0  0
    6.1889   -5.8629    0.0000 C   0  0  0  0  0  0  0  0  0  0  0  0
    5.5948   -4.4855    0.0000 C   0  0  0  0  0  0  0  0  0  0  0  0
    4.6991   -3.2823    0.0000 C   0  0  0  0  0  0  0  0  0  0  0  0
    3.5500   -2.3182    0.0000 C   0  0  0  0  0  0  0  0  0  0  0  0
    2.2096   -1.6450    0.0000 C   0  0  0  0  0  0  0  0  0  0  0  0
    0.7500   -1.2990    0.0000 C   0  0  0  0  0  0  0  0  0  0  0  0
    1.5000    0.0000    0.0000 C   0  0  0  0  0  0  0  0  0  0  0  0
    0.7500    1.2990    0.0000 C   0  0  0  0  0  0  0  0  0  0  0  0
   -0.7500    1.2990    0.0000 C   0  0  0  0  0  0  0  0  0  0  0  0
   -1.5000    0.0000    0.0000 C   0  0  0  0  0  0  0  0  0  0  0  0
   -0.7500   -1.2990    0.0000 C   0  0  0  0  0  0  0  0  0  0  0  0
   -2.2096   -1.6450    0.0000 C   0  0  0  0  0  0  0  0  0  0  0  0
   -2.7226   -0.2354    0.0000 C   0  0  0  0  0  0  0  0  0  0  0  0
   -1.7584    0.9136    0.0000 C   0  0  0  0  0  0  0  0  0  0  0  0
   -2.2714    2.3232    0.0000 C   0  0  0  0  0  0  0  0  0  0  0  0
   -3.7487    2.5837    0.0000 C   0  0  0  0  0  0  0  0  0  0  0  0
   -4.7128    1.4346    0.0000 C   0  0  0  0  0  0  0  0  0  0  0  0
   -4.1998    0.0250    0.0000 C   0  0  0  0  0  0  0  0  0  0  0  0
   -6.6960    0.1011    0.0000 C   0  0  0  0  0  0  0  0  0  0  0  0
   -6.0228    1.4415    0.0000 C   0  0  0  0  0  0  0  0  0  0  0  0
   -6.8471    2.6948    0.0000 C   0  0  0  0  0  0  0  0  0  0  0  0
   -8.3445    2.6075    0.0000 C   0  0  0  0  0  0  0  0  0  0  0  0
   -9.0177    1.2671    0.0000 C   0  0  0  0  0  0  0  0  0  0  0  0
   -8.1935    0.0139    0.0000 C   0  0  0  0  0  0  0  0  0  0  0  0
  1  2  2  0
  2  3  1  0
  3  4  1  0
  4  5  1  0
  5  6  1  0
  6  7  1  0
  7  8  1  0
  8  9  1  0
  9 10  1  0
 10 11  1  0
 11 12  1  0
 12 13  1  0
 13 14  1  0
 14 15  1  0
 15 16  1  0
 16 17  1  0
 17 18  1  0
 18 19  1  0
 19 20  1  0
 20 21  1  0
 21 22  1  0
 22 23  1  0
 23 24  1  0
 24 25  1  0
 25 26  1  0
 26 27  1  0
 27 28  1  0
 28 29  2  0
 29 30  1  0
 30 31  2  0
 31 32  1  0
 32 33  2  0
 33 34  1  0
 34 35  1  0
 35 36  2  0
 36 37  1  0
 37 38  2  0
 38 39  1  0
 39 40  2  0
  2 41  1  0
 41 42  2  0
 42 43  1  0
 43 44  2  0
 44 45  1  0
 45 46  2  0
 34  4  1  0
 40 35  1  0
 46 41  1  0
 33 28  1  0
M  END
>  <Title>  (580) 
idAAUJgen6

$$$$

     RDKit          2D

 28 32  0  0  0  0  0  0  0  0999 V2000
   -3.5898   -0.7046    0.0000 O   0  0  0  0  0  0  0  0  0  0  0  0
   -3.1476   -2.1380    0.0000 C   0  0  0  0  0  0  0  0  0  0  0  0
   -4.1679   -3.2376    0.0000 N   0  0  0  0  0  0  0  0  0  0  0  0
   -5.6303   -2.9038    0.0000 C   0  0  0  0  0  0  0  0  0  0  0  0
   -6.0724   -1.4704    0.0000 C   0  0  0  0  0  0  0  0  0  0  0  0
   -7.5348   -1.1367    0.0000 C   0  0  0  0  0  0  0  0  0  0  0  0
   -8.5551   -2.2362    0.0000 C   0  0  0  0  0  0  0  0  0  0  0  0
  -10.0175   -1.9025    0.0000 C   0  0  0  0  0  0  0  0  0  0  0  0
  -10.4596   -0.4691    0.0000 N   0  0  0  0  0  0  0  0  0  0  0  0
  -11.9220   -0.1353    0.0000 N   0  0  0  0  0  0  0  0  0  0  0  0
  -12.9422   -1.2349    0.0000 N   0  0  0  0  0  0  0  0  0  0  0  0
  -12.5001   -2.6683    0.0000 N   0  0  0  0  0  0  0  0  0  0  0  0
  -11.0377   -3.0020    0.0000 N   0  0  0  0  0  0  0  0  0  0  0  0
   -8.1129   -3.6696    0.0000 C   0  0  0  0  0  0  0  0  0  0  0  0
   -6.6505   -4.0034    0.0000 C   0  0  0  0  0  0  0  0  0  0  0  0
   -1.6852   -2.4718    0.0000 N   0  0  0  0  0  0  0  0  0  0  0  0
   -1.3515   -3.9342    0.0000 C   0  0  0  0  0  0  0  0  0  0  0  0
   -0.0000   -4.5850    0.0000 C   0  0  0  0  0  0  0  0  0  0  0  0
    1.3515   -3.9342    0.0000 C   0  0  0  0  0  0  0  0  0  0  0  0
    2.7848   -3.4920    0.0000 C   0  0  0  0  0  0  0  0  0  0  0  0
    4.2472   -3.8258    0.0000 O   0  0  0  0  0  0  0  0  0  0  0  0
    1.6852   -2.4718    0.0000 N   0  0  0  0  0  0  0  0  0  0  0  0
    0.7500   -1.2990    0.0000 C   0  0  0  0  0  0  0  0  0  0  0  0
    1.5000    0.0000    0.0000 C   0  0  0  0  0  0  0  0  0  0  0  0
    0.7500    1.2990    0.0000 C   0  0  0  0  0  0  0  0  0  0  0  0
   -0.7500    1.2990    0.0000 C   0  0  0  0  0  0  0  0  0  0  0  0
   -1.5000    0.0000    0.0000 C   0  0  0  0  0  0  0  0  0  0  0  0
   -0.7500   -1.2990    0.0000 C   0  0  0  0  0  0  0  0  0  0  0  0
  1  2  2  0
  2  3  1  0
  3  4  1  0
  4  5  1  0
  5  6  1  0
  6  7  1  0
  7  8  1  0
  8  9  2  0
  9 10  1  0
 10 11  2  0
 11 12  1  0
 12 13  2  0
  7 14  1  0
 14 15  1  0
  2 16  1  0
 16 17  1  0
 17 18  1  0
 18 19  1  0
 19 20  1  0
 20 21  2  0
 20 22  1  0
 22 23  1  0
 23 24  2  0
 24 25  1  0
 25 26  2  0
 26 27  1  0
 27 28  2  0
 15  4  1  0
 28 16  1  0
 13  8  1  0
 22 19  1  0
 28 23  1  0
M  END
>  <Title>  (581) 
idAAUKgen6

$$$$

     RDKit          2D

  7  6  0  0  0  0  0  0  0  0999 V2000
    0.0000    0.0000    0.0000 C   0  0  0  0  0  0  0  0  0  0  0  0
    1.2990    0.7500    0.0000 C   0  0  0  0  0  0  0  0  0  0  0  0
    2.5981    1.5000    0.0000 C   0  0  0  0  0  0  0  0  0  0  0  0
    3.8971    2.2500    0.0000 C   0  0  0  0  0  0  0  0  0  0  0  0
    4.6471    0.9510    0.0000 C   0  0  0  0  0  0  0  0  0  0  0  0
    3.1471    3.5490    0.0000 C   0  0  0  0  0  0  0  0  0  0  0  0
    5.1962    3.0000    0.0000 C   0  0  0  0  0  0  0  0  0  0  0  0
  1  2  1  0
  2  3  3  0
  3  4  1  0
  4  5  1  0
  4  6  1  0
  4  7  1  0
M  END
>  <Title>  (582) 
idAAULgen6

$$$$

     RDKit          2D

 30 33  0  0  0  0  0  0  0  0999 V2000
    3.0000    0.0000    0.0000 C   0  0  0  0  0  0  0  0  0  0  0  0
    1.5000    0.0000    0.0000 C   0  0  0  0  0  0  0  0  0  0  0  0
    0.7500   -1.2990    0.0000 C   0  0  0  0  0  0  0  0  0  0  0  0
   -0.7500   -1.2990    0.0000 C   0  0  0  0  0  0  0  0  0  0  0  0
   -1.5000    0.0000    0.0000 C   0  0  0  0  0  0  0  0  0  0  0  0
   -3.0000    0.0000    0.0000 C   0  0  0  0  0  0  0  0  0  0  0  0
   -3.7500   -1.2990    0.0000 O   0  0  0  0  0  0  0  0  0  0  0  0
   -3.7500    1.2990    0.0000 N   0  0  0  0  0  0  0  0  0  0  0  0
   -3.0000    2.5981    0.0000 C   0  0  0  0  0  0  0  0  0  0  0  0
   -3.7500    3.8971    0.0000 C   0  0  0  0  0  0  0  0  0  0  0  0
   -5.2500    3.8971    0.0000 C   0  0  0  0  0  0  0  0  0  0  0  0
   -6.0000    5.1962    0.0000 N   0  0  0  0  0  0  0  0  0  0  0  0
   -5.2500    6.4952    0.0000 C   0  0  0  0  0  0  0  0  0  0  0  0
   -6.0000    7.7942    0.0000 C   0  0  0  0  0  0  0  0  0  0  0  0
   -7.5000    7.7942    0.0000 N   0  0  0  0  0  0  0  0  0  0  0  0
   -8.2500    9.0933    0.0000 C   0  0  0  0  0  0  0  0  0  0  0  0
   -9.7500    9.0933    0.0000 O   0  0  0  0  0  0  0  0  0  0  0  0
   -7.5000   10.3923    0.0000 N   0  0  0  0  0  0  0  0  0  0  0  0
   -8.2500   11.6913    0.0000 C   0  0  0  0  0  0  0  0  0  0  0  0
   -7.5000   12.9904    0.0000 N   0  0  0  0  0  0  0  0  0  0  0  0
   -8.2500   14.2894    0.0000 N   0  0  0  0  0  0  0  0  0  0  0  0
   -9.7500   14.2894    0.0000 N   0  0  0  0  0  0  0  0  0  0  0  0
  -10.5000   12.9904    0.0000 N   0  0  0  0  0  0  0  0  0  0  0  0
   -9.7500   11.6913    0.0000 N   0  0  0  0  0  0  0  0  0  0  0  0
   -8.2500    6.4952    0.0000 C   0  0  0  0  0  0  0  0  0  0  0  0
   -7.5000    5.1962    0.0000 C   0  0  0  0  0  0  0  0  0  0  0  0
   -6.0000    2.5981    0.0000 C   0  0  0  0  0  0  0  0  0  0  0  0
   -5.2500    1.2990    0.0000 C   0  0  0  0  0  0  0  0  0  0  0  0
   -0.7500    1.2990    0.0000 C   0  0  0  0  0  0  0  0  0  0  0  0
    0.7500    1.2990    0.0000 C   0  0  0  0  0  0  0  0  0  0  0  0
  1  2  1  0
  2  3  1  0
  3  4  2  0
  4  5  1  0
  5  6  1  0
  6  7  2  0
  6  8  1  0
  8  9  1  0
  9 10  1  0
 10 11  1  0
 11 12  1  0
 12 13  1  0
 13 14  1  0
 14 15  1  0
 15 16  1  0
 16 17  2  0
 16 18  1  0
 18 19  1  0
 19 20  2  0
 20 21  1  0
 21 22  2  0
 22 23  1  0
 23 24  2  0
 15 25  1  0
 25 26  1  0
 11 27  1  0
 27 28  1  0
  5 29  1  0
 29 30  1  0
 30  2  1  0
 28  8  1  0
 26 12  1  0
 24 19  1  0
M  END
>  <Title>  (583) 
idAAUMgen6

$$$$

     RDKit          2D

 23 25  0  0  0  0  0  0  0  0999 V2000
   -3.1965   -1.7857    0.0000 C   0  0  0  0  0  0  0  0  0  0  0  0
   -1.8107   -2.3597    0.0000 C   0  0  0  0  0  0  0  0  0  0  0  0
   -1.8107   -3.8597    0.0000 C   0  0  0  0  0  0  0  0  0  0  0  0
   -0.7500   -4.9204    0.0000 C   0  0  0  0  0  0  0  0  0  0  0  0
    0.7500   -4.9204    0.0000 C   0  0  0  0  0  0  0  0  0  0  0  0
    1.3240   -6.3062    0.0000 C   0  0  0  0  0  0  0  0  0  0  0  0
    2.8112   -6.5020    0.0000 O   0  0  0  0  0  0  0  0  0  0  0  0
    0.4109   -7.4962    0.0000 N   0  0  0  0  0  0  0  0  0  0  0  0
    0.9849   -8.8820    0.0000 C   0  0  0  0  0  0  0  0  0  0  0  0
    0.0718  -10.0721    0.0000 N   0  0  0  0  0  0  0  0  0  0  0  0
    0.6458  -11.4579    0.0000 N   0  0  0  0  0  0  0  0  0  0  0  0
    2.1330  -11.6537    0.0000 N   0  0  0  0  0  0  0  0  0  0  0  0
    3.0461  -10.4636    0.0000 N   0  0  0  0  0  0  0  0  0  0  0  0
    2.4721   -9.0778    0.0000 N   0  0  0  0  0  0  0  0  0  0  0  0
    1.8107   -3.8597    0.0000 C   0  0  0  0  0  0  0  0  0  0  0  0
    3.1965   -4.4337    0.0000 O   0  0  0  0  0  0  0  0  0  0  0  0
    1.8107   -2.3597    0.0000 O   0  0  0  0  0  0  0  0  0  0  0  0
    0.7500   -1.2990    0.0000 C   0  0  0  0  0  0  0  0  0  0  0  0
    1.5000    0.0000    0.0000 C   0  0  0  0  0  0  0  0  0  0  0  0
    0.7500    1.2990    0.0000 C   0  0  0  0  0  0  0  0  0  0  0  0
   -0.7500    1.2990    0.0000 C   0  0  0  0  0  0  0  0  0  0  0  0
   -1.5000    0.0000    0.0000 C   0  0  0  0  0  0  0  0  0  0  0  0
   -0.7500   -1.2990    0.0000 C   0  0  0  0  0  0  0  0  0  0  0  0
  1  2  1  0
  2  3  1  0
  3  4  1  0
  4  5  1  0
  5  6  1  0
  6  7  2  0
  6  8  1  0
  8  9  1  0
  9 10  2  0
 10 11  1  0
 11 12  2  0
 12 13  1  0
 13 14  2  0
  5 15  1  0
 15 16  2  0
 15 17  1  0
 17 18  1  0
 18 19  2  0
 19 20  1  0
 20 21  2  0
 21 22  1  0
 22 23  2  0
 23  2  1  0
 14  9  1  0
 23 18  1  0
M  END
>  <Title>  (584) 
idAAUNgen6

$$$$

     RDKit          2D

 18 20  0  0  0  0  0  0  0  0999 V2000
    3.0000    0.0000    0.0000 C   0  0  0  0  0  0  0  0  0  0  0  0
    1.5000    0.0000    0.0000 C   0  0  0  0  0  0  0  0  0  0  0  0
    0.7500   -1.2990    0.0000 C   0  0  0  0  0  0  0  0  0  0  0  0
   -0.7500   -1.2990    0.0000 C   0  0  0  0  0  0  0  0  0  0  0  0
   -1.5000    0.0000    0.0000 C   0  0  0  0  0  0  0  0  0  0  0  0
   -3.0000    0.0000    0.0000 N   0  0  0  0  0  0  0  0  0  0  0  0
   -3.8817   -1.2135    0.0000 C   0  0  0  0  0  0  0  0  0  0  0  0
   -5.3083   -0.7500    0.0000 C   0  0  0  0  0  0  0  0  0  0  0  0
   -5.3083    0.7500    0.0000 C   0  0  0  0  0  0  0  0  0  0  0  0
   -6.5218    1.6317    0.0000 C   0  0  0  0  0  0  0  0  0  0  0  0
   -6.3650    3.1235    0.0000 N   0  0  0  0  0  0  0  0  0  0  0  0
   -7.5785    4.0051    0.0000 N   0  0  0  0  0  0  0  0  0  0  0  0
   -8.9488    3.3950    0.0000 N   0  0  0  0  0  0  0  0  0  0  0  0
   -9.1056    1.9033    0.0000 N   0  0  0  0  0  0  0  0  0  0  0  0
   -7.8921    1.0216    0.0000 N   0  0  0  0  0  0  0  0  0  0  0  0
   -3.8817    1.2135    0.0000 C   0  0  0  0  0  0  0  0  0  0  0  0
   -0.7500    1.2990    0.0000 C   0  0  0  0  0  0  0  0  0  0  0  0
    0.7500    1.2990    0.0000 C   0  0  0  0  0  0  0  0  0  0  0  0
  1  2  1  0
  2  3  2  0
  3  4  1  0
  4  5  2  0
  5  6  1  0
  6  7  1  0
  7  8  1  0
  8  9  1  0
  9 10  1  0
 10 11  2  0
 11 12  1  0
 12 13  2  0
 13 14  1  0
 14 15  2  0
  9 16  1  0
  5 17  1  0
 17 18  1  0
 18  2  1  0
 16  6  1  0
 15 10  1  0
M  END
>  <Title>  (585) 
idAAUOgen6

$$$$

     RDKit          2D

 19 20  0  0  0  0  0  0  0  0999 V2000
    0.3207  -11.1638    0.0000 C   0  0  0  0  0  0  0  0  0  0  0  0
    0.4775   -9.6721    0.0000 C   0  0  0  0  0  0  0  0  0  0  0  0
   -0.7360   -8.7904    0.0000 O   0  0  0  0  0  0  0  0  0  0  0  0
    1.8478   -9.0619    0.0000 C   0  0  0  0  0  0  0  0  0  0  0  0
    3.0613   -9.9436    0.0000 O   0  0  0  0  0  0  0  0  0  0  0  0
    2.0046   -7.5702    0.0000 C   0  0  0  0  0  0  0  0  0  0  0  0
    3.3037   -6.8202    0.0000 C   0  0  0  0  0  0  0  0  0  0  0  0
    2.9918   -5.3529    0.0000 C   0  0  0  0  0  0  0  0  0  0  0  0
    1.5000   -5.1962    0.0000 C   0  0  0  0  0  0  0  0  0  0  0  0
    0.7500   -3.8971    0.0000 C   0  0  0  0  0  0  0  0  0  0  0  0
   -0.7500   -3.8971    0.0000 O   0  0  0  0  0  0  0  0  0  0  0  0
    1.5000   -2.5981    0.0000 O   0  0  0  0  0  0  0  0  0  0  0  0
    0.7500   -1.2990    0.0000 C   0  0  0  0  0  0  0  0  0  0  0  0
    1.5000    0.0000    0.0000 C   0  0  0  0  0  0  0  0  0  0  0  0
    0.7500    1.2990    0.0000 C   0  0  0  0  0  0  0  0  0  0  0  0
   -0.7500    1.2990    0.0000 C   0  0  0  0  0  0  0  0  0  0  0  0
   -1.5000    0.0000    0.0000 C   0  0  0  0  0  0  0  0  0  0  0  0
   -0.7500   -1.2990    0.0000 C   0  0  0  0  0  0  0  0  0  0  0  0
    0.8899   -6.5665    0.0000 C   0  0  0  0  0  0  0  0  0  0  0  0
  1  2  1  0
  2  3  2  0
  2  4  1  0
  4  5  2  0
  4  6  1  0
  6  7  1  0
  7  8  1  0
  8  9  2  0
  9 10  1  0
 10 11  2  0
 10 12  1  0
 12 13  1  0
 13 14  2  0
 14 15  1  0
 15 16  2  0
 16 17  1  0
 17 18  2  0
  9 19  1  0
 19  6  1  0
 18 13  1  0
M  END
>  <Title>  (586) 
idAAUPgen6

$$$$

     RDKit          2D

 19 20  0  0  0  0  0  0  0  0999 V2000
    3.0000    0.0000    0.0000 C   0  0  0  0  0  0  0  0  0  0  0  0
    1.5000    0.0000    0.0000 C   0  0  0  0  0  0  0  0  0  0  0  0
    0.7500   -1.2990    0.0000 C   0  0  0  0  0  0  0  0  0  0  0  0
   -0.7500   -1.2990    0.0000 C   0  0  0  0  0  0  0  0  0  0  0  0
   -1.5000   -2.5981    0.0000 C   0  0  0  0  0  0  0  0  0  0  0  0
   -2.2500   -3.8971    0.0000 N   0  0  0  0  0  0  0  0  0  0  0  0
   -1.5000    0.0000    0.0000 N   0  0  0  0  0  0  0  0  0  0  0  0
   -0.7500    1.2990    0.0000 C   0  0  0  0  0  0  0  0  0  0  0  0
   -1.5000    2.5981    0.0000 O   0  0  0  0  0  0  0  0  0  0  0  0
    0.7500    1.2990    0.0000 N   0  0  0  0  0  0  0  0  0  0  0  0
    1.5000    2.5981    0.0000 C   0  0  0  0  0  0  0  0  0  0  0  0
    0.8899    3.9684    0.0000 C   0  0  0  0  0  0  0  0  0  0  0  0
    2.0046    4.9721    0.0000 S   0  0  0  0  0  0  0  0  0  0  0  0
    0.8899    5.9758    0.0000 O   0  0  0  0  0  0  0  0  0  0  0  0
    2.8863    6.1856    0.0000 O   0  0  0  0  0  0  0  0  0  0  0  0
    3.3037    4.2221    0.0000 C   0  0  0  0  0  0  0  0  0  0  0  0
    4.6740    4.8322    0.0000 O   0  0  0  0  0  0  0  0  0  0  0  0
    2.9918    2.7549    0.0000 C   0  0  0  0  0  0  0  0  0  0  0  0
    3.9955    1.6402    0.0000 O   0  0  0  0  0  0  0  0  0  0  0  0
  1  2  1  0
  2  3  2  0
  3  4  1  0
  4  5  1  0
  5  6  3  0
  4  7  2  0
  7  8  1  0
  8  9  2  0
  8 10  1  0
 10 11  1  0
 11 12  2  0
 12 13  1  0
 13 14  2  0
 13 15  2  0
 13 16  1  0
 16 17  1  0
 16 18  1  0
 18 19  1  0
 10  2  1  0
 18 11  1  0
M  END
>  <Title>  (587) 
idAAUQgen6

$$$$

     RDKit          2D

 29 31  0  0  0  0  0  0  0  0999 V2000
   -4.3152    2.8995    0.0000 C   0  0  0  0  0  0  0  0  0  0  0  0
   -2.9244    2.3377    0.0000 C   0  0  0  0  0  0  0  0  0  0  0  0
   -1.6455    3.1214    0.0000 N   0  0  0  0  0  0  0  0  0  0  0  0
   -0.1869    2.7713    0.0000 S   0  0  0  0  0  6  0  0  0  0  0  0
   -0.2262    4.2707    0.0000 N   0  0  0  0  0  0  0  0  0  0  0  0
    1.2513    3.1973    0.0000 O   0  0  0  0  0  0  0  0  0  0  0  0
    0.3943    1.2135    0.0000 C   0  0  0  0  0  0  0  0  0  0  0  0
    1.2760   -0.0000    0.0000 C   0  0  0  0  0  0  0  0  0  0  0  0
    0.3943   -1.2135    0.0000 C   0  0  0  0  0  0  0  0  0  0  0  0
   -1.0323   -0.7500    0.0000 C   0  0  0  0  0  0  0  0  0  0  0  0
   -2.4908   -0.3998    0.0000 C   0  0  0  0  0  0  0  0  0  0  0  0
   -3.2746    0.8791    0.0000 C   0  0  0  0  0  0  0  0  0  0  0  0
   -1.0323    0.7500    0.0000 N   0  0  0  0  0  0  0  0  0  0  0  0
   -2.2458    1.6317    0.0000 C   0  0  0  0  0  0  0  0  0  0  0  0
   -2.0890    3.1235    0.0000 C   0  0  0  0  0  0  0  0  0  0  0  0
   -3.3025    4.0051    0.0000 C   0  0  0  0  0  0  0  0  0  0  0  0
   -3.1458    5.4969    0.0000 C   0  0  0  0  0  0  0  0  0  0  0  0
   -4.3593    6.3786    0.0000 C   0  0  0  0  0  0  0  0  0  0  0  0
   -4.2025    7.8704    0.0000 C   0  0  0  0  0  0  0  0  0  0  0  0
   -5.4160    8.7521    0.0000 C   0  0  0  0  0  0  0  0  0  0  0  0
   -5.2592   10.2438    0.0000 C   0  0  0  0  0  0  0  0  0  0  0  0
   -3.8889   10.8539    0.0000 C   0  0  0  0  0  0  0  0  0  0  0  0
   -3.7321   12.3457    0.0000 C   0  0  0  0  0  0  0  0  0  0  0  0
   -4.9456   13.2274    0.0000 C   0  0  0  0  0  0  0  0  0  0  0  0
   -6.3160   12.6173    0.0000 C   0  0  0  0  0  0  0  0  0  0  0  0
   -6.4727   11.1255    0.0000 C   0  0  0  0  0  0  0  0  0  0  0  0
   -4.6729    3.3950    0.0000 N   0  0  0  0  0  0  0  0  0  0  0  0
   -5.8864    4.2767    0.0000 C   0  0  0  0  0  0  0  0  0  0  0  0
   -4.8297    1.9033    0.0000 C   0  0  0  0  0  0  0  0  0  0  0  0
  1  2  1  0
  2  3  2  0
  3  4  1  0
  4  5  1  0
  4  6  2  0
  4  7  1  0
  7  8  1  0
  8  9  1  0
  9 10  1  0
 10 11  1  0
 11 12  1  0
 10 13  1  0
 13 14  1  0
 14 15  1  0
 15 16  1  0
 16 17  1  0
 17 18  1  0
 18 19  1  0
 19 20  1  0
 20 21  1  0
 21 22  2  0
 22 23  1  0
 23 24  2  0
 24 25  1  0
 25 26  2  0
 16 27  1  0
 27 28  1  0
 27 29  1  0
 12  2  1  0
 26 21  1  0
 13  7  1  0
M  END
>  <Title>  (588) 
idAAURgen6

$$$$

     RDKit          2D

 36 40  0  0  0  0  0  0  0  0999 V2000
   -5.6205   -5.8840    0.0000 C   0  0  0  0  0  0  0  0  0  0  0  0
   -4.8705   -4.5850    0.0000 O   0  0  0  0  0  0  0  0  0  0  0  0
   -3.3705   -4.5850    0.0000 C   0  0  0  0  0  0  0  0  0  0  0  0
   -3.0367   -6.0474    0.0000 C   0  0  0  0  0  0  0  0  0  0  0  0
   -2.1015   -7.2201    0.0000 C   0  0  0  0  0  0  0  0  0  0  0  0
   -0.7500   -7.8710    0.0000 C   0  0  0  0  0  0  0  0  0  0  0  0
    0.7500   -7.8710    0.0000 C   0  0  0  0  0  0  0  0  0  0  0  0
    2.1015   -7.2201    0.0000 C   0  0  0  0  0  0  0  0  0  0  0  0
    3.0367   -6.0474    0.0000 C   0  0  0  0  0  0  0  0  0  0  0  0
    3.3705   -4.5850    0.0000 C   0  0  0  0  0  0  0  0  0  0  0  0
    3.0367   -3.1226    0.0000 C   0  0  0  0  0  0  0  0  0  0  0  0
    4.4410   -2.5955    0.0000 C   0  0  0  0  0  0  0  0  0  0  0  0
    5.6929   -3.4219    0.0000 C   0  0  0  0  0  0  0  0  0  0  0  0
    5.6032   -4.9192    0.0000 O   0  0  0  0  0  0  0  0  0  0  0  0
    7.0345   -2.7509    0.0000 N   0  0  0  0  0  0  0  0  0  0  0  0
    8.2863   -3.5773    0.0000 C   0  0  0  0  0  0  0  0  0  0  0  0
    8.1966   -5.0746    0.0000 N   0  0  0  0  0  0  0  0  0  0  0  0
    9.4485   -5.9009    0.0000 N   0  0  0  0  0  0  0  0  0  0  0  0
   10.7900   -5.2300    0.0000 N   0  0  0  0  0  0  0  0  0  0  0  0
   10.8798   -3.7326    0.0000 N   0  0  0  0  0  0  0  0  0  0  0  0
    9.6279   -2.9063    0.0000 N   0  0  0  0  0  0  0  0  0  0  0  0
    4.3737   -1.0971    0.0000 C   0  0  0  0  0  0  0  0  0  0  0  0
    2.9278   -0.6980    0.0000 C   0  0  0  0  0  0  0  0  0  0  0  0
    2.1015   -1.9499    0.0000 C   0  0  0  0  0  0  0  0  0  0  0  0
    0.7500   -1.2990    0.0000 C   0  0  0  0  0  0  0  0  0  0  0  0
    1.5000    0.0000    0.0000 C   0  0  0  0  0  0  0  0  0  0  0  0
    0.7500    1.2990    0.0000 C   0  0  0  0  0  0  0  0  0  0  0  0
   -0.7500    1.2990    0.0000 C   0  0  0  0  0  0  0  0  0  0  0  0
   -1.5000    0.0000    0.0000 C   0  0  0  0  0  0  0  0  0  0  0  0
   -0.7500   -1.2990    0.0000 C   0  0  0  0  0  0  0  0  0  0  0  0
   -2.1015   -1.9499    0.0000 C   0  0  0  0  0  0  0  0  0  0  0  0
   -2.6495   -0.5536    0.0000 C   0  0  0  0  0  0  0  0  0  0  0  0
   -4.1327   -0.3300    0.0000 C   0  0  0  0  0  0  0  0  0  0  0  0
   -5.0679   -1.5027    0.0000 C   0  0  0  0  0  0  0  0  0  0  0  0
   -4.5199   -2.8990    0.0000 C   0  0  0  0  0  0  0  0  0  0  0  0
   -3.0367   -3.1226    0.0000 C   0  0  0  0  0  0  0  0  0  0  0  0
  1  2  1  0
  2  3  1  0
  3  4  1  0
  4  5  2  0
  5  6  1  0
  6  7  2  0
  7  8  1  0
  8  9  2  0
  9 10  1  0
 10 11  2  0
 11 12  1  0
 12 13  1  0
 13 14  2  0
 13 15  1  0
 15 16  1  0
 16 17  2  0
 17 18  1  0
 18 19  2  0
 19 20  1  0
 20 21  2  0
 12 22  2  0
 22 23  1  0
 23 24  2  0
 24 25  1  0
 25 26  2  0
 26 27  1  0
 27 28  2  0
 28 29  1  0
 29 30  2  0
 30 31  1  0
 31 32  2  0
 32 33  1  0
 33 34  2  0
 34 35  1  0
 35 36  2  0
 36  3  1  0
 24 11  1  0
 30 25  1  0
 36 31  1  0
 21 16  1  0
M  END
>  <Title>  (589) 
idAAUSgen6

$$$$

     RDKit          2D

  8  8  0  0  0  0  0  0  0  0999 V2000
    3.0000    0.0000    0.0000 C   0  0  0  0  0  0  0  0  0  0  0  0
    1.5000    0.0000    0.0000 C   0  0  0  0  0  0  0  0  0  0  0  0
    0.7500   -1.2990    0.0000 C   0  0  0  0  0  0  0  0  0  0  0  0
   -0.7500   -1.2990    0.0000 C   0  0  0  0  0  0  0  0  0  0  0  0
   -1.5000    0.0000    0.0000 C   0  0  0  0  0  0  0  0  0  0  0  0
   -3.0000    0.0000    0.0000 O   0  0  0  0  0  0  0  0  0  0  0  0
   -0.7500    1.2990    0.0000 C   0  0  0  0  0  0  0  0  0  0  0  0
    0.7500    1.2990    0.0000 C   0  0  0  0  0  0  0  0  0  0  0  0
  1  2  1  0
  2  3  2  0
  3  4  1  0
  4  5  2  0
  5  6  1  0
  5  7  1  0
  7  8  1  0
  8  2  1  0
M  END
>  <Title>  (590) 
idAAUTgen6

$$$$

     RDKit          2D

 26 29  0  0  0  0  0  0  0  0999 V2000
    3.0000    0.0000    0.0000 C   0  0  0  0  0  0  0  0  0  0  0  0
    1.5000    0.0000    0.0000 C   0  0  0  0  0  0  0  0  0  0  0  0
    0.7500   -1.2990    0.0000 C   0  0  0  0  0  0  0  0  0  0  0  0
   -0.7500   -1.2990    0.0000 C   0  0  0  0  0  0  0  0  0  0  0  0
   -1.5000    0.0000    0.0000 C   0  0  0  0  0  0  0  0  0  0  0  0
   -3.0000    0.0000    0.0000 C   0  0  0  0  0  0  0  0  0  0  0  0
   -3.8817   -1.2135    0.0000 N   0  0  0  0  0  0  0  0  0  0  0  0
   -5.3083   -0.7500    0.0000 N   0  0  0  0  0  0  0  0  0  0  0  0
   -5.3083    0.7500    0.0000 N   0  0  0  0  0  0  0  0  0  0  0  0
   -3.8817    1.2135    0.0000 N   0  0  0  0  0  0  0  0  0  0  0  0
   -3.4182    2.6401    0.0000 C   0  0  0  0  0  0  0  0  0  0  0  0
   -4.2998    3.8536    0.0000 C   0  0  0  0  0  0  0  0  0  0  0  0
   -3.4182    5.0672    0.0000 C   0  0  0  0  0  0  0  0  0  0  0  0
   -1.9916    4.6036    0.0000 C   0  0  0  0  0  0  0  0  0  0  0  0
   -0.7780    5.4853    0.0000 C   0  0  0  0  0  0  0  0  0  0  0  0
   -0.9348    6.9771    0.0000 O   0  0  0  0  0  0  0  0  0  0  0  0
    0.5923    4.8752    0.0000 N   0  0  0  0  0  0  0  0  0  0  0  0
    1.8058    5.7569    0.0000 C   0  0  0  0  0  0  0  0  0  0  0  0
    3.1761    5.1468    0.0000 C   0  0  0  0  0  0  0  0  0  0  0  0
    4.3896    6.0285    0.0000 C   0  0  0  0  0  0  0  0  0  0  0  0
    4.2329    7.5202    0.0000 C   0  0  0  0  0  0  0  0  0  0  0  0
    2.8625    8.1303    0.0000 C   0  0  0  0  0  0  0  0  0  0  0  0
    1.6490    7.2487    0.0000 C   0  0  0  0  0  0  0  0  0  0  0  0
   -1.9916    3.1036    0.0000 C   0  0  0  0  0  0  0  0  0  0  0  0
   -0.7500    1.2990    0.0000 N   0  0  0  0  0  0  0  0  0  0  0  0
    0.7500    1.2990    0.0000 C   0  0  0  0  0  0  0  0  0  0  0  0
  1  2  1  0
  2  3  1  0
  3  4  2  0
  4  5  1  0
  5  6  1  0
  6  7  2  0
  7  8  1  0
  8  9  2  0
  9 10  1  0
 10 11  1  0
 11 12  2  0
 12 13  1  0
 13 14  2  0
 14 15  1  0
 15 16  2  0
 15 17  1  0
 17 18  1  0
 18 19  2  0
 19 20  1  0
 20 21  2  0
 21 22  1  0
 22 23  2  0
 14 24  1  0
  5 25  1  0
 25 26  1  0
 26  2  1  0
 10  6  1  0
 24 11  1  0
 23 18  1  0
M  END
>  <Title>  (591) 
idAAUUgen6

$$$$

     RDKit          2D

 32 34  0  0  0  0  0  0  0  0999 V2000
   -0.5452  -10.2487    0.0000 C   0  0  0  0  0  0  0  0  0  0  0  0
   -1.3679   -8.9944    0.0000 C   0  0  0  0  0  0  0  0  0  0  0  0
   -0.2373   -8.0086    0.0000 C   0  0  0  0  0  0  0  0  0  0  0  0
    0.5853   -6.7543    0.0000 C   0  0  0  0  0  0  0  0  0  0  0  0
    1.0391   -5.3246    0.0000 C   0  0  0  0  0  0  0  0  0  0  0  0
    1.0903   -3.8255    0.0000 C   0  0  0  0  0  0  0  0  0  0  0  0
    0.7352   -2.3682    0.0000 C   0  0  0  0  0  0  0  0  0  0  0  0
   -0.0000   -1.0607    0.0000 C   0  0  0  0  0  0  0  0  0  0  0  0
    1.0607    0.0000    0.0000 N   0  0  0  0  0  0  0  0  0  0  0  0
    0.0000    1.0607    0.0000 C   0  0  0  0  0  0  0  0  0  0  0  0
    0.0000    2.5607    0.0000 O   0  0  0  0  0  0  0  0  0  0  0  0
   -1.0607    0.0000    0.0000 C   0  0  0  0  0  0  0  0  0  0  0  0
   -2.3682    0.7352    0.0000 N   0  0  0  0  0  0  0  0  0  0  0  0
   -3.8255    1.0903    0.0000 N   0  0  0  0  0  0  0  0  0  0  0  0
   -5.3246    1.0391    0.0000 C   0  0  0  0  0  0  0  0  0  0  0  0
   -5.7784    2.4688    0.0000 N   0  0  0  0  0  0  0  0  0  0  0  0
   -7.2081    2.0150    0.0000 C   0  0  0  0  0  0  0  0  0  0  0  0
   -8.5399    2.7051    0.0000 O   0  0  0  0  0  0  0  0  0  0  0  0
   -6.7543    0.5853    0.0000 C   0  0  0  0  0  0  0  0  0  0  0  0
   -8.0086   -0.2373    0.0000 C   0  0  0  0  0  0  0  0  0  0  0  0
   -8.9944   -1.3679    0.0000 C   0  0  0  0  0  0  0  0  0  0  0  0
   -9.6386   -2.7225    0.0000 C   0  0  0  0  0  0  0  0  0  0  0  0
   -9.8935   -4.2007    0.0000 C   0  0  0  0  0  0  0  0  0  0  0  0
   -9.7401   -5.6929    0.0000 C   0  0  0  0  0  0  0  0  0  0  0  0
   -9.1898   -7.0883    0.0000 C   0  0  0  0  0  0  0  0  0  0  0  0
   -8.2835   -8.2835    0.0000 C   0  0  0  0  0  0  0  0  0  0  0  0
   -7.0883   -9.1898    0.0000 C   0  0  0  0  0  0  0  0  0  0  0  0
   -7.8234  -10.4973    0.0000 C   0  0  0  0  0  0  0  0  0  0  0  0
   -5.6929   -9.7401    0.0000 C   0  0  0  0  0  0  0  0  0  0  0  0
   -4.2007   -9.8935    0.0000 C   0  0  0  0  0  0  0  0  0  0  0  0
   -4.1495  -11.3926    0.0000 C   0  0  0  0  0  0  0  0  0  0  0  0
   -2.7225   -9.6386    0.0000 C   0  0  0  0  0  0  0  0  0  0  0  0
  1  2  1  0
  2  3  1  0
  3  4  1  0
  4  5  1  0
  5  6  2  0
  6  7  1  0
  7  8  2  0
  8  9  1  0
  9 10  1  0
 10 11  2  0
 10 12  1  0
 12 13  2  0
 13 14  1  0
 14 15  2  0
 15 16  1  0
 16 17  1  0
 17 18  2  0
 17 19  1  0
 19 20  1  0
 20 21  1  0
 21 22  1  0
 22 23  1  0
 23 24  1  0
 24 25  1  0
 25 26  1  0
 26 27  1  0
 27 28  1  0
 27 29  1  0
 29 30  1  0
 30 31  1  0
 30 32  1  0
 32  2  1  0
 12  8  1  0
 19 15  1  0
M  END
>  <Title>  (592) 
idAAUVgen6

$$$$

     RDKit          2D

 21 22  0  0  0  0  0  0  0  0999 V2000
    3.0000    0.0000    0.0000 C   0  0  0  0  0  0  0  0  0  0  0  0
    1.5000    0.0000    0.0000 C   0  0  0  0  0  0  0  0  0  0  0  0
    0.7500   -1.2990    0.0000 C   0  0  0  0  0  0  0  0  0  0  0  0
   -0.7500   -1.2990    0.0000 C   0  0  0  0  0  0  0  0  0  0  0  0
   -1.5000    0.0000    0.0000 C   0  0  0  0  0  0  0  0  0  0  0  0
   -0.7500    1.2990    0.0000 C   0  0  0  0  0  0  0  0  0  0  0  0
   -1.5000    2.5981    0.0000 O   0  0  0  0  0  0  0  0  0  0  0  0
    0.7500    1.2990    0.0000 C   0  0  0  0  0  0  0  0  0  0  0  0
    1.5000    2.5981    0.0000 C   0  0  0  0  0  0  0  0  0  0  0  0
    3.0000    2.5981    0.0000 C   0  0  0  0  0  0  0  0  0  0  0  0
    3.7500    3.8971    0.0000 N   0  0  0  0  0  0  0  0  0  0  0  0
    5.2500    3.8971    0.0000 C   0  0  0  0  0  0  0  0  0  0  0  0
    3.0000    5.1962    0.0000 C   0  0  0  0  0  0  0  0  0  0  0  0
    1.5000    5.1962    0.0000 O   0  0  0  0  0  0  0  0  0  0  0  0
    3.7500    6.4952    0.0000 C   0  0  0  0  0  0  0  0  0  0  0  0
    3.0000    7.7942    0.0000 C   0  0  0  0  0  0  0  0  0  0  0  0
    3.7500    9.0933    0.0000 C   0  0  0  0  0  0  0  0  0  0  0  0
    3.0000   10.3923    0.0000 C   0  0  0  0  0  0  0  0  0  0  0  0
    1.5000   10.3923    0.0000 C   0  0  0  0  0  0  0  0  0  0  0  0
    0.7500    9.0933    0.0000 C   0  0  0  0  0  0  0  0  0  0  0  0
    1.5000    7.7942    0.0000 C   0  0  0  0  0  0  0  0  0  0  0  0
  1  2  1  0
  2  3  2  0
  3  4  1  0
  4  5  2  0
  5  6  1  0
  6  7  1  0
  6  8  1  0
  8  9  1  0
  9 10  1  0
 10 11  1  0
 11 12  1  0
 11 13  1  0
 13 14  2  0
 13 15  1  0
 15 16  1  0
 16 17  2  0
 17 18  1  0
 18 19  2  0
 19 20  1  0
 20 21  2  0
  8  2  1  0
 21 16  1  0
M  END
>  <Title>  (593) 
idAAUWgen6

$$$$

     RDKit          2D

 23 23  0  0  0  0  0  0  0  0999 V2000
    5.5080    0.0000    0.0000 C   0  0  0  0  0  0  0  0  0  0  0  0
    5.3037    1.4860    0.0000 C   0  0  0  0  0  0  0  0  0  0  0  0
    4.7061    2.8618    0.0000 C   0  0  0  0  0  0  0  0  0  0  0  0
    3.7595    4.0254    0.0000 C   0  0  0  0  0  0  0  0  0  0  0  0
    2.5340    4.8904    0.0000 C   0  0  0  0  0  0  0  0  0  0  0  0
    1.1206    5.3928    0.0000 C   0  0  0  0  0  0  0  0  0  0  0  0
   -0.3759    5.4951    0.0000 C   0  0  0  0  0  0  0  0  0  0  0  0
   -1.8445    5.1899    0.0000 C   0  0  0  0  0  0  0  0  0  0  0  0
   -3.1763    4.4998    0.0000 C   0  0  0  0  0  0  0  0  0  0  0  0
   -4.2726    3.4760    0.0000 C   0  0  0  0  0  0  0  0  0  0  0  0
   -5.0520    2.1944    0.0000 C   0  0  0  0  0  0  0  0  0  0  0  0
   -5.4567    0.7500    0.0000 C   0  0  0  0  0  0  0  0  0  0  0  0
   -5.4567   -0.7500    0.0000 C   0  0  0  0  0  0  0  0  0  0  0  0
   -5.0520   -2.1944    0.0000 C   0  0  0  0  0  0  0  0  0  0  0  0
   -4.2726   -3.4760    0.0000 C   0  0  0  0  0  0  0  0  0  0  0  0
   -3.1763   -4.4998    0.0000 C   0  0  0  0  0  0  0  0  0  0  0  0
   -1.8445   -5.1899    0.0000 C   0  0  0  0  0  0  0  0  0  0  0  0
   -0.3759   -5.4951    0.0000 C   0  0  0  0  0  0  0  0  0  0  0  0
    1.1206   -5.3928    0.0000 C   0  0  0  0  0  0  0  0  0  0  0  0
    2.5340   -4.8904    0.0000 C   0  0  0  0  0  0  0  0  0  0  0  0
    3.7595   -4.0254    0.0000 C   0  0  0  0  0  0  0  0  0  0  0  0
    4.7061   -2.8618    0.0000 C   0  0  0  0  0  0  0  0  0  0  0  0
    5.3037   -1.4860    0.0000 C   0  0  0  0  0  0  0  0  0  0  0  0
  1  2  1  0
  2  3  1  0
  3  4  1  0
  4  5  1  0
  5  6  1  0
  6  7  1  0
  7  8  1  0
  8  9  1  0
  9 10  1  0
 10 11  1  0
 11 12  1  0
 12 13  1  0
 13 14  1  0
 14 15  1  0
 15 16  1  0
 16 17  1  0
 17 18  1  0
 18 19  1  0
 19 20  1  0
 20 21  1  0
 21 22  1  0
 22 23  1  0
 23  1  1  0
M  END
>  <Title>  (594) 
idAAUXgen6

$$$$

     RDKit          2D

 39 40  0  0  0  0  0  0  0  0999 V2000
   -4.9314   -6.3421    0.0000 C   0  0  0  0  0  0  0  0  0  0  0  0
   -3.4622   -6.6447    0.0000 C   0  0  0  0  0  0  0  0  0  0  0  0
   -3.6042   -8.1380    0.0000 C   0  0  0  0  0  0  0  0  0  0  0  0
   -3.4219   -9.6268    0.0000 C   0  0  0  0  0  0  0  0  0  0  0  0
   -2.9237  -11.0417    0.0000 C   0  0  0  0  0  0  0  0  0  0  0  0
   -2.1330  -12.3164    0.0000 C   0  0  0  0  0  0  0  0  0  0  0  0
   -1.0868  -13.3913    0.0000 C   0  0  0  0  0  0  0  0  0  0  0  0
    0.1660  -14.2162    0.0000 C   0  0  0  0  0  0  0  0  0  0  0  0
    1.5668  -14.7525    0.0000 C   0  0  0  0  0  0  0  0  0  0  0  0
    3.0502  -14.9751    0.0000 C   0  0  0  0  0  0  0  0  0  0  0  0
    4.5468  -14.8736    0.0000 C   0  0  0  0  0  0  0  0  0  0  0  0
    5.9865  -14.4528    0.0000 C   0  0  0  0  0  0  0  0  0  0  0  0
    7.3022  -13.7323    0.0000 C   0  0  0  0  0  0  0  0  0  0  0  0
    8.4322  -12.7458    0.0000 C   0  0  0  0  0  0  0  0  0  0  0  0
    9.3237  -11.5395    0.0000 C   0  0  0  0  0  0  0  0  0  0  0  0
    9.9350  -10.1697    0.0000 C   0  0  0  0  0  0  0  0  0  0  0  0
   10.2376   -8.7006    0.0000 C   0  0  0  0  0  0  0  0  0  0  0  0
   10.2173   -7.2007    0.0000 C   0  0  0  0  0  0  0  0  0  0  0  0
    9.8750   -5.7403    0.0000 C   0  0  0  0  0  0  0  0  0  0  0  0
    9.2268   -4.3876    0.0000 C   0  0  0  0  0  0  0  0  0  0  0  0
    8.3030   -3.2058    0.0000 C   0  0  0  0  0  0  0  0  0  0  0  0
    7.1467   -2.2503    0.0000 C   0  0  0  0  0  0  0  0  0  0  0  0
    5.8120   -1.5657    0.0000 C   0  0  0  0  0  0  0  0  0  0  0  0
    4.3614   -1.1840    0.0000 C   0  0  0  0  0  0  0  0  0  0  0  0
    2.8626   -1.1231    0.0000 C   0  0  0  0  0  0  0  0  0  0  0  0
    1.3858   -1.3858    0.0000 C   0  0  0  0  0  0  0  0  0  0  0  0
    1.9598    0.0000    0.0000 C   0  0  0  0  0  0  0  0  0  0  0  0
    1.3858    1.3858    0.0000 C   0  0  0  0  0  0  0  0  0  0  0  0
    0.0000    1.9598    0.0000 C   0  0  0  0  0  0  0  0  0  0  0  0
    0.0000    3.4598    0.0000 C   0  0  0  0  0  0  0  0  0  0  0  0
    0.0000    4.9598    0.0000 N   0  0  0  0  0  0  0  0  0  0  0  0
   -1.3858    1.3858    0.0000 C   0  0  0  0  0  0  0  0  0  0  0  0
   -1.9598    0.0000    0.0000 C   0  0  0  0  0  0  0  0  0  0  0  0
   -1.3858   -1.3858    0.0000 C   0  0  0  0  0  0  0  0  0  0  0  0
   -0.0000   -1.9598    0.0000 C   0  0  0  0  0  0  0  0  0  0  0  0
   -1.2300   -2.8184    0.0000 C   0  0  0  0  0  0  0  0  0  0  0  0
   -2.2165   -1.6884    0.0000 C   0  0  0  0  0  0  0  0  0  0  0  0
   -2.2467   -3.9212    0.0000 C   0  0  0  0  0  0  0  0  0  0  0  0
   -3.0026   -5.2169    0.0000 N   0  0  0  0  0  0  0  0  0  0  0  0
  1  2  1  0
  2  3  1  0
  3  4  2  0
  4  5  1  0
  5  6  1  0
  6  7  1  0
  7  8  1  0
  8  9  1  0
  9 10  1  0
 10 11  1  0
 11 12  1  0
 12 13  1  0
 13 14  1  0
 14 15  1  0
 15 16  1  0
 16 17  1  0
 17 18  1  0
 18 19  1  0
 19 20  1  0
 20 21  1  0
 21 22  1  0
 22 23  1  0
 23 24  1  0
 24 25  1  0
 25 26  1  0
 26 27  2  0
 27 28  1  0
 28 29  2  0
 29 30  1  0
 30 31  3  0
 29 32  1  0
 32 33  2  0
 33 34  1  0
 34 35  2  0
 35 36  1  0
 36 37  1  0
 36 38  1  0
 38 39  1  0
 39  2  1  0
 35 26  1  0
M  END
>  <Title>  (595) 
idAAUYgen6

$$$$

     RDKit          2D

 13 13  0  0  0  0  0  0  0  0999 V2000
    3.6929    0.0000    0.0000 C   0  0  0  0  0  0  0  0  0  0  0  0
    2.1929    0.0000    0.0000 C   0  0  0  0  0  0  0  0  0  0  0  0
    1.6798    1.4095    0.0000 C   0  0  0  0  0  0  0  0  0  0  0  0
    0.3808    2.1595    0.0000 C   0  0  0  0  0  0  0  0  0  0  0  0
   -1.0964    1.8991    0.0000 C   0  0  0  0  0  0  0  0  0  0  0  0
   -2.0606    0.7500    0.0000 C   0  0  0  0  0  0  0  0  0  0  0  0
   -2.0606   -0.7500    0.0000 C   0  0  0  0  0  0  0  0  0  0  0  0
   -1.0964   -1.8991    0.0000 C   0  0  0  0  0  0  0  0  0  0  0  0
    0.3808   -2.1595    0.0000 C   0  0  0  0  0  0  0  0  0  0  0  0
    0.6413   -3.6368    0.0000 C   0  0  0  0  0  0  0  0  0  0  0  0
    2.0508   -4.1498    0.0000 O   0  0  0  0  0  0  0  0  0  0  0  0
   -0.5078   -4.6009    0.0000 O   0  0  0  0  0  0  0  0  0  0  0  0
    1.6798   -1.4095    0.0000 C   0  0  0  0  0  0  0  0  0  0  0  0
  1  2  1  0
  2  3  1  0
  3  4  1  0
  4  5  1  0
  5  6  1  0
  6  7  1  0
  7  8  1  0
  8  9  1  0
  9 10  1  0
 10 11  2  0
 10 12  1  0
  9 13  1  0
 13  2  1  0
M  END
>  <Title>  (596) 
idAAUZgen6

$$$$

     RDKit          2D

 44 50  0  0  0  0  0  0  0  0999 V2000
   -0.0000   -8.0154    0.0000 C   0  0  0  0  0  0  0  0  0  0  0  0
   -0.0000   -6.5154    0.0000 C   0  0  0  0  0  0  0  0  0  0  0  0
    1.4392   -6.0928    0.0000 C   0  0  0  0  0  0  0  0  0  0  0  0
    2.4215   -4.9592    0.0000 C   0  0  0  0  0  0  0  0  0  0  0  0
    2.6350   -3.4744    0.0000 C   0  0  0  0  0  0  0  0  0  0  0  0
    2.0119   -2.1100    0.0000 C   0  0  0  0  0  0  0  0  0  0  0  0
    3.1455   -1.1277    0.0000 C   0  0  0  0  0  0  0  0  0  0  0  0
    2.8616    0.3452    0.0000 O   0  0  0  0  0  0  0  0  0  0  0  0
    4.5630   -1.6183    0.0000 N   0  0  0  0  0  0  0  0  0  0  0  0
    5.6966   -0.6360    0.0000 C   0  0  0  0  0  0  0  0  0  0  0  0
    5.5683    0.8585    0.0000 N   0  0  0  0  0  0  0  0  0  0  0  0
    6.9500    1.4424    0.0000 N   0  0  0  0  0  0  0  0  0  0  0  0
    7.9322    0.3088    0.0000 N   0  0  0  0  0  0  0  0  0  0  0  0
    7.1576   -0.9758    0.0000 N   0  0  0  0  0  0  0  0  0  0  0  0
    7.7416   -2.3574    0.0000 C   0  0  0  0  0  0  0  0  0  0  0  0
    6.8369   -3.5540    0.0000 C   0  0  0  0  0  0  0  0  0  0  0  0
    7.4208   -4.9357    0.0000 C   0  0  0  0  0  0  0  0  0  0  0  0
    8.9094   -5.1208    0.0000 C   0  0  0  0  0  0  0  0  0  0  0  0
    9.8140   -3.9243    0.0000 C   0  0  0  0  0  0  0  0  0  0  0  0
    9.2301   -2.5426    0.0000 C   0  0  0  0  0  0  0  0  0  0  0  0
   10.1347   -1.3461    0.0000 C   0  0  0  0  0  0  0  0  0  0  0  0
   11.6232   -1.5313    0.0000 C   0  0  0  0  0  0  0  0  0  0  0  0
   12.5279   -0.3347    0.0000 C   0  0  0  0  0  0  0  0  0  0  0  0
   11.9439    1.0469    0.0000 C   0  0  0  0  0  0  0  0  0  0  0  0
   10.4554    1.2321    0.0000 C   0  0  0  0  0  0  0  0  0  0  0  0
    9.5508    0.0356    0.0000 C   0  0  0  0  0  0  0  0  0  0  0  0
    0.7500   -1.2990    0.0000 C   0  0  0  0  0  0  0  0  0  0  0  0
    1.5000    0.0000    0.0000 C   0  0  0  0  0  0  0  0  0  0  0  0
    0.7500    1.2990    0.0000 C   0  0  0  0  0  0  0  0  0  0  0  0
   -0.7500    1.2990    0.0000 C   0  0  0  0  0  0  0  0  0  0  0  0
   -1.5000    0.0000    0.0000 C   0  0  0  0  0  0  0  0  0  0  0  0
   -0.7500   -1.2990    0.0000 C   0  0  0  0  0  0  0  0  0  0  0  0
   -2.0119   -2.1100    0.0000 C   0  0  0  0  0  0  0  0  0  0  0  0
   -2.8820   -0.8881    0.0000 C   0  0  0  0  0  0  0  0  0  0  0  0
   -4.3752   -1.0307    0.0000 C   0  0  0  0  0  0  0  0  0  0  0  0
   -4.9983   -2.3952    0.0000 C   0  0  0  0  0  0  0  0  0  0  0  0
   -4.1282   -3.6170    0.0000 C   0  0  0  0  0  0  0  0  0  0  0  0
   -2.6350   -3.4744    0.0000 C   0  0  0  0  0  0  0  0  0  0  0  0
   -2.4215   -4.9592    0.0000 C   0  0  0  0  0  0  0  0  0  0  0  0
   -3.8944   -5.2431    0.0000 C   0  0  0  0  0  0  0  0  0  0  0  0
   -4.3850   -6.6606    0.0000 C   0  0  0  0  0  0  0  0  0  0  0  0
   -3.4027   -7.7942    0.0000 C   0  0  0  0  0  0  0  0  0  0  0  0
   -1.9298   -7.5103    0.0000 C   0  0  0  0  0  0  0  0  0  0  0  0
   -1.4392   -6.0928    0.0000 C   0  0  0  0  0  0  0  0  0  0  0  0
  1  2  1  0
  2  3  2  0
  3  4  1  0
  4  5  1  0
  5  6  1  0
  6  7  1  0
  7  8  2  0
  7  9  1  0
  9 10  1  0
 10 11  2  0
 11 12  1  0
 12 13  2  0
 13 14  1  0
 14 15  1  0
 15 16  2  0
 16 17  1  0
 17 18  2  0
 18 19  1  0
 19 20  2  0
 20 21  1  0
 21 22  2  0
 22 23  1  0
 23 24  2  0
 24 25  1  0
 25 26  2  0
  6 27  1  0
 27 28  2  0
 28 29  1  0
 29 30  2  0
 30 31  1  0
 31 32  2  0
 32 33  1  0
 33 34  2  0
 34 35  1  0
 35 36  2  0
 36 37  1  0
 37 38  2  0
 38 39  1  0
 39 40  2  0
 40 41  1  0
 41 42  2  0
 42 43  1  0
 43 44  2  0
 44  2  1  0
 14 10  1  0
 20 15  1  0
 26 21  1  0
 32 27  1  0
 38 33  1  0
 44 39  1  0
M  END
>  <Title>  (597) 
idAAVAgen6

$$$$

     RDKit          2D

  6  6  0  0  0  0  0  0  0  0999 V2000
    2.7760    0.0000    0.0000 O   0  0  0  0  0  0  0  0  0  0  0  0
    1.2760    0.0000    0.0000 C   0  0  0  0  0  0  0  0  0  0  0  0
    0.3943    1.2135    0.0000 C   0  0  0  0  0  0  0  0  0  0  0  0
   -1.0323    0.7500    0.0000 C   0  0  0  0  0  0  0  0  0  0  0  0
   -1.0323   -0.7500    0.0000 C   0  0  0  0  0  0  0  0  0  0  0  0
    0.3943   -1.2135    0.0000 C   0  0  0  0  0  0  0  0  0  0  0  0
  1  2  1  0
  2  3  1  0
  3  4  2  0
  4  5  1  0
  5  6  1  0
  6  2  1  0
M  END
>  <Title>  (598) 
idAAVBgen6

$$$$

     RDKit          2D

 21 23  0  0  0  0  0  0  0  0999 V2000
   -2.3093   -5.6662    0.0000 C   0  0  0  0  0  0  0  0  0  0  0  0
   -2.1785   -4.1719    0.0000 C   0  0  0  0  0  0  0  0  0  0  0  0
   -0.7296   -3.7837    0.0000 C   0  0  0  0  0  0  0  0  0  0  0  0
    0.1307   -2.5550    0.0000 C   0  0  0  0  0  0  0  0  0  0  0  0
   -0.0000   -1.0607    0.0000 C   0  0  0  0  0  0  0  0  0  0  0  0
    1.0607    0.0000    0.0000 C   0  0  0  0  0  0  0  0  0  0  0  0
    2.5607    0.0000    0.0000 O   0  0  0  0  0  0  0  0  0  0  0  0
    0.0000    1.0607    0.0000 O   0  0  0  0  0  0  0  0  0  0  0  0
   -1.0607    0.0000    0.0000 C   0  0  0  0  0  0  0  0  0  0  0  0
   -2.5550    0.1307    0.0000 C   0  0  0  0  0  0  0  0  0  0  0  0
   -3.7837   -0.7296    0.0000 C   0  0  0  0  0  0  0  0  0  0  0  0
   -4.1719   -2.1785    0.0000 C   0  0  0  0  0  0  0  0  0  0  0  0
   -3.5380   -3.5380    0.0000 C   0  0  0  0  0  0  0  0  0  0  0  0
   -4.5986   -4.5986    0.0000 C   0  0  0  0  0  0  0  0  0  0  0  0
   -4.3640   -6.0802    0.0000 C   0  0  0  0  0  0  0  0  0  0  0  0
   -5.7005   -6.7612    0.0000 C   0  0  0  0  0  0  0  0  0  0  0  0
   -6.7612   -5.7005    0.0000 C   0  0  0  0  0  0  0  0  0  0  0  0
   -8.2427   -5.9352    0.0000 C   0  0  0  0  0  0  0  0  0  0  0  0
   -8.7802   -7.3355    0.0000 O   0  0  0  0  0  0  0  0  0  0  0  0
   -9.1867   -4.7694    0.0000 O   0  0  0  0  0  0  0  0  0  0  0  0
   -6.0802   -4.3640    0.0000 C   0  0  0  0  0  0  0  0  0  0  0  0
  1  2  1  0
  2  3  1  0
  3  4  2  0
  4  5  1  0
  5  6  1  0
  6  7  2  0
  6  8  1  0
  8  9  1  0
  9 10  2  0
 10 11  1  0
 11 12  2  0
 12 13  1  0
 13 14  1  0
 14 15  1  0
 15 16  1  0
 16 17  1  0
 17 18  1  0
 18 19  2  0
 18 20  1  0
 17 21  1  0
 13  2  1  0
 21 14  1  0
  9  5  1  0
M  END
>  <Title>  (599) 
idAAVCgen6

$$$$

     RDKit          2D

 27 29  0  0  0  0  0  0  0  0999 V2000
   -8.1129   -3.6696    0.0000 C   0  0  0  0  0  0  0  0  0  0  0  0
   -6.6505   -4.0034    0.0000 C   0  0  0  0  0  0  0  0  0  0  0  0
   -6.2084   -5.4367    0.0000 O   0  0  0  0  0  0  0  0  0  0  0  0
   -5.6303   -2.9038    0.0000 C   0  0  0  0  0  0  0  0  0  0  0  0
   -6.0724   -1.4704    0.0000 C   0  0  0  0  0  0  0  0  0  0  0  0
   -5.0522   -0.3709    0.0000 O   0  0  0  0  0  0  0  0  0  0  0  0
   -7.5348   -1.1367    0.0000 O   0  0  0  0  0  0  0  0  0  0  0  0
   -4.1679   -3.2376    0.0000 C   0  0  0  0  0  0  0  0  0  0  0  0
   -3.7258   -4.6709    0.0000 O   0  0  0  0  0  0  0  0  0  0  0  0
   -3.1476   -2.1380    0.0000 N   0  0  0  0  0  0  0  0  0  0  0  0
   -1.6852   -2.4718    0.0000 C   0  0  0  0  0  0  0  0  0  0  0  0
   -1.3515   -3.9342    0.0000 N   0  0  0  0  0  0  0  0  0  0  0  0
   -0.0000   -4.5850    0.0000 N   0  0  0  0  0  0  0  0  0  0  0  0
    1.3515   -3.9342    0.0000 C   0  0  0  0  0  0  0  0  0  0  0  0
    2.4510   -4.9544    0.0000 C   0  0  0  0  0  0  0  0  0  0  0  0
    2.1172   -6.4168    0.0000 O   0  0  0  0  0  0  0  0  0  0  0  0
    3.8844   -4.5123    0.0000 O   0  0  0  0  0  0  0  0  0  0  0  0
    4.2182   -3.0499    0.0000 C   0  0  0  0  0  0  0  0  0  0  0  0
    5.6515   -2.6078    0.0000 O   0  0  0  0  0  0  0  0  0  0  0  0
    3.1186   -2.0297    0.0000 C   0  0  0  0  0  0  0  0  0  0  0  0
    1.6852   -2.4718    0.0000 N   0  0  0  0  0  0  0  0  0  0  0  0
    0.7500   -1.2990    0.0000 C   0  0  0  0  0  0  0  0  0  0  0  0
    1.5000    0.0000    0.0000 C   0  0  0  0  0  0  0  0  0  0  0  0
    0.7500    1.2990    0.0000 C   0  0  0  0  0  0  0  0  0  0  0  0
   -0.7500    1.2990    0.0000 C   0  0  0  0  0  0  0  0  0  0  0  0
   -1.5000    0.0000    0.0000 C   0  0  0  0  0  0  0  0  0  0  0  0
   -0.7500   -1.2990    0.0000 C   0  0  0  0  0  0  0  0  0  0  0  0
  1  2  1  0
  2  3  2  0
  2  4  1  0
  4  5  1  0
  5  6  2  0
  5  7  1  0
  4  8  1  0
  8  9  2  0
  8 10  1  0
 10 11  1  0
 11 12  2  0
 12 13  1  0
 13 14  2  0
 14 15  1  0
 15 16  2  0
 15 17  1  0
 17 18  1  0
 18 19  2  0
 18 20  1  0
 20 21  1  0
 21 22  1  0
 22 23  2  0
 23 24  1  0
 24 25  2  0
 25 26  1  0
 26 27  2  0
 27 11  1  0
 21 14  1  0
 27 22  1  0
M  END
>  <Title>  (600) 
idAAVDgen6

$$$$

     RDKit          2D

 19 20  0  0  0  0  0  0  0  0999 V2000
    5.2500   -1.2990    0.0000 C   0  0  0  0  0  0  0  0  0  0  0  0
    3.7500   -1.2990    0.0000 C   0  0  0  0  0  0  0  0  0  0  0  0
    3.0000   -2.5981    0.0000 O   0  0  0  0  0  0  0  0  0  0  0  0
    3.0000    0.0000    0.0000 N   0  0  0  0  0  0  0  0  0  0  0  0
    1.5000    0.0000    0.0000 C   0  0  0  0  0  0  0  0  0  0  0  0
    0.7500   -1.2990    0.0000 C   0  0  0  0  0  0  0  0  0  0  0  0
   -0.7500   -1.2990    0.0000 C   0  0  0  0  0  0  0  0  0  0  0  0
   -1.5000    0.0000    0.0000 C   0  0  0  0  0  0  0  0  0  0  0  0
   -0.7500    1.2990    0.0000 C   0  0  0  0  0  0  0  0  0  0  0  0
   -1.5000    2.5981    0.0000 C   0  0  0  0  0  0  0  0  0  0  0  0
   -3.0000    2.5981    0.0000 O   0  0  0  0  0  0  0  0  0  0  0  0
   -0.7500    3.8971    0.0000 N   0  0  0  0  0  0  0  0  0  0  0  0
   -1.5000    5.1962    0.0000 C   0  0  0  0  0  0  0  0  0  0  0  0
   -0.7500    6.4952    0.0000 N   0  0  0  0  0  0  0  0  0  0  0  0
   -1.5000    7.7942    0.0000 N   0  0  0  0  0  0  0  0  0  0  0  0
   -3.0000    7.7942    0.0000 N   0  0  0  0  0  0  0  0  0  0  0  0
   -3.7500    6.4952    0.0000 N   0  0  0  0  0  0  0  0  0  0  0  0
   -3.0000    5.1962    0.0000 N   0  0  0  0  0  0  0  0  0  0  0  0
    0.7500    1.2990    0.0000 C   0  0  0  0  0  0  0  0  0  0  0  0
  1  2  1  0
  2  3  2  0
  2  4  1  0
  4  5  1  0
  5  6  1  0
  6  7  1  0
  7  8  1  0
  8  9  1  0
  9 10  1  0
 10 11  2  0
 10 12  1  0
 12 13  1  0
 13 14  2  0
 14 15  1  0
 15 16  2  0
 16 17  1  0
 17 18  2  0
  9 19  1  0
 19  5  1  0
 18 13  1  0
M  END
>  <Title>  (601) 
idAAVEgen6

$$$$

     RDKit          2D

 19 21  0  0  0  0  0  0  0  0999 V2000
    3.7500   -1.2990    0.0000 C   0  0  0  0  0  0  0  0  0  0  0  0
    3.0000    0.0000    0.0000 O   0  0  0  0  0  0  0  0  0  0  0  0
    1.5000    0.0000    0.0000 C   0  0  0  0  0  0  0  0  0  0  0  0
    0.7500   -1.2990    0.0000 C   0  0  0  0  0  0  0  0  0  0  0  0
   -0.7500   -1.2990    0.0000 C   0  0  0  0  0  0  0  0  0  0  0  0
   -1.5000    0.0000    0.0000 C   0  0  0  0  0  0  0  0  0  0  0  0
   -3.0000    0.0000    0.0000 N   0  0  0  0  0  0  0  0  0  0  0  0
   -3.8817   -1.2135    0.0000 C   0  0  0  0  0  0  0  0  0  0  0  0
   -5.3083   -0.7500    0.0000 C   0  0  0  0  0  0  0  0  0  0  0  0
   -5.3083    0.7500    0.0000 C   0  0  0  0  0  0  0  0  0  0  0  0
   -6.5218    1.6317    0.0000 C   0  0  0  0  0  0  0  0  0  0  0  0
   -6.3650    3.1235    0.0000 C   0  0  0  0  0  0  0  0  0  0  0  0
   -7.5785    4.0051    0.0000 C   0  0  0  0  0  0  0  0  0  0  0  0
   -8.9488    3.3950    0.0000 C   0  0  0  0  0  0  0  0  0  0  0  0
   -9.1056    1.9033    0.0000 C   0  0  0  0  0  0  0  0  0  0  0  0
   -7.8921    1.0216    0.0000 C   0  0  0  0  0  0  0  0  0  0  0  0
   -3.8817    1.2135    0.0000 C   0  0  0  0  0  0  0  0  0  0  0  0
   -0.7500    1.2990    0.0000 C   0  0  0  0  0  0  0  0  0  0  0  0
    0.7500    1.2990    0.0000 C   0  0  0  0  0  0  0  0  0  0  0  0
  1  2  1  0
  2  3  1  0
  3  4  2  0
  4  5  1  0
  5  6  2  0
  6  7  1  0
  7  8  1  0
  8  9  1  0
  9 10  1  0
 10 11  1  0
 11 12  2  0
 12 13  1  0
 13 14  2  0
 14 15  1  0
 15 16  2  0
 10 17  1  0
  6 18  1  0
 18 19  1  0
 19  3  1  0
 17  7  1  0
 16 11  1  0
M  END
>  <Title>  (602) 
idAAVFgen6

$$$$

     RDKit          2D

 21 22  0  0  0  0  0  0  0  0999 V2000
    4.4429    1.2990    0.0000 C   0  0  0  0  0  0  0  0  0  0  0  0
    3.6929    0.0000    0.0000 O   0  0  0  0  0  0  0  0  0  0  0  0
    2.1929    0.0000    0.0000 C   0  0  0  0  0  0  0  0  0  0  0  0
    1.6798    1.4095    0.0000 C   0  0  0  0  0  0  0  0  0  0  0  0
    0.3808    2.1595    0.0000 C   0  0  0  0  0  0  0  0  0  0  0  0
   -1.0964    1.8991    0.0000 C   0  0  0  0  0  0  0  0  0  0  0  0
   -2.0606    0.7500    0.0000 C   0  0  0  0  0  0  0  0  0  0  0  0
   -2.0606   -0.7500    0.0000 C   0  0  0  0  0  0  0  0  0  0  0  0
   -1.0964   -1.8991    0.0000 C   0  0  0  0  0  0  0  0  0  0  0  0
    0.3808   -2.1595    0.0000 C   0  0  0  0  0  0  0  0  0  0  0  0
    1.6798   -1.4095    0.0000 C   0  0  0  0  0  0  0  0  0  0  0  0
    1.8106   -2.9038    0.0000 C   0  0  0  0  0  0  0  0  0  0  0  0
    0.8464   -4.0529    0.0000 O   0  0  0  0  0  0  0  0  0  0  0  0
    3.3048   -2.7731    0.0000 N   0  0  0  0  0  0  0  0  0  0  0  0
    3.1741   -1.2788    0.0000 C   0  0  0  0  0  0  0  0  0  0  0  0
    4.1383   -0.1297    0.0000 N   0  0  0  0  0  0  0  0  0  0  0  0
    5.6155   -0.3902    0.0000 N   0  0  0  0  0  0  0  0  0  0  0  0
    6.5797    0.7589    0.0000 N   0  0  0  0  0  0  0  0  0  0  0  0
    8.0569    0.4984    0.0000 N   0  0  0  0  0  0  0  0  0  0  0  0
    9.0211    1.6475    0.0000 C   0  0  0  0  0  0  0  0  0  0  0  0
    8.5699   -0.9112    0.0000 C   0  0  0  0  0  0  0  0  0  0  0  0
  1  2  1  0
  2  3  1  0
  3  4  1  0
  4  5  2  0
  5  6  1  0
  6  7  1  0
  7  8  1  0
  8  9  1  0
  9 10  1  0
 10 11  1  0
 11 12  1  0
 12 13  2  0
 12 14  1  0
 14 15  1  0
 15 16  2  3
 16 17  1  0
 17 18  2  3
 18 19  1  0
 19 20  1  0
 19 21  1  0
 11  3  1  0
 15 11  1  0
M  END
>  <Title>  (603) 
idAAVGgen6

$$$$

     RDKit          2D

 31 33  0  0  0  0  0  0  0  0999 V2000
   -2.9384   -0.5656    0.0000 C   0  0  0  0  0  0  0  0  0  0  0  0
   -2.1487   -1.8409    0.0000 C   0  0  0  0  0  0  0  0  0  0  0  0
   -3.2572   -2.8514    0.0000 C   0  0  0  0  0  0  0  0  0  0  0  0
   -3.9258   -4.1942    0.0000 C   0  0  0  0  0  0  0  0  0  0  0  0
   -4.0642   -5.6878    0.0000 C   0  0  0  0  0  0  0  0  0  0  0  0
   -3.6537   -7.1305    0.0000 C   0  0  0  0  0  0  0  0  0  0  0  0
   -2.7498   -8.3276    0.0000 C   0  0  0  0  0  0  0  0  0  0  0  0
   -1.4745   -9.1172    0.0000 C   0  0  0  0  0  0  0  0  0  0  0  0
   -0.0000   -9.3928    0.0000 C   0  0  0  0  0  0  0  0  0  0  0  0
    1.4745   -9.1172    0.0000 C   0  0  0  0  0  0  0  0  0  0  0  0
    2.7498   -8.3276    0.0000 C   0  0  0  0  0  0  0  0  0  0  0  0
    3.6537   -7.1305    0.0000 C   0  0  0  0  0  0  0  0  0  0  0  0
    4.0642   -5.6878    0.0000 C   0  0  0  0  0  0  0  0  0  0  0  0
    3.9258   -4.1942    0.0000 C   0  0  0  0  0  0  0  0  0  0  0  0
    3.2572   -2.8514    0.0000 C   0  0  0  0  0  0  0  0  0  0  0  0
    2.1487   -1.8409    0.0000 C   0  0  0  0  0  0  0  0  0  0  0  0
    2.9384   -0.5656    0.0000 C   0  0  0  0  0  0  0  0  0  0  0  0
    2.2287    0.7559    0.0000 O   0  0  0  0  0  0  0  0  0  0  0  0
    4.4376   -0.6118    0.0000 N   0  0  0  0  0  0  0  0  0  0  0  0
    5.2273    0.6636    0.0000 C   0  0  0  0  0  0  0  0  0  0  0  0
    6.7266    0.6174    0.0000 N   0  0  0  0  0  0  0  0  0  0  0  0
    7.5162    1.8927    0.0000 N   0  0  0  0  0  0  0  0  0  0  0  0
    6.8066    3.2142    0.0000 N   0  0  0  0  0  0  0  0  0  0  0  0
    5.3073    3.2604    0.0000 N   0  0  0  0  0  0  0  0  0  0  0  0
    4.5177    1.9851    0.0000 N   0  0  0  0  0  0  0  0  0  0  0  0
    0.7500   -1.2990    0.0000 C   0  0  0  0  0  0  0  0  0  0  0  0
    1.5000    0.0000    0.0000 C   0  0  0  0  0  0  0  0  0  0  0  0
    0.7500    1.2990    0.0000 C   0  0  0  0  0  0  0  0  0  0  0  0
   -0.7500    1.2990    0.0000 C   0  0  0  0  0  0  0  0  0  0  0  0
   -1.5000    0.0000    0.0000 C   0  0  0  0  0  0  0  0  0  0  0  0
   -0.7500   -1.2990    0.0000 C   0  0  0  0  0  0  0  0  0  0  0  0
  1  2  1  0
  2  3  1  0
  3  4  1  0
  4  5  1  0
  5  6  1  0
  6  7  1  0
  7  8  1  0
  8  9  1  0
  9 10  1  0
 10 11  1  0
 11 12  2  0
 12 13  1  0
 13 14  2  0
 14 15  1  0
 15 16  2  0
 16 17  1  0
 17 18  2  0
 17 19  1  0
 19 20  1  0
 20 21  2  0
 21 22  1  0
 22 23  2  0
 23 24  1  0
 24 25  2  0
 16 26  1  0
 26 27  2  0
 27 28  1  0
 28 29  2  0
 29 30  1  0
 30 31  2  0
 31  2  1  0
 25 20  1  0
 31 26  1  0
M  END
>  <Title>  (604) 
idAAVHgen6

$$$$

     RDKit          2D

 21 23  0  0  0  0  0  0  0  0999 V2000
    3.0000    0.0000    0.0000 C   0  0  0  0  0  0  0  0  0  0  0  0
    1.5000    0.0000    0.0000 C   0  0  0  0  0  0  0  0  0  0  0  0
    0.7500   -1.2990    0.0000 C   0  0  0  0  0  0  0  0  0  0  0  0
   -0.7500   -1.2990    0.0000 C   0  0  0  0  0  0  0  0  0  0  0  0
   -1.5000    0.0000    0.0000 C   0  0  0  0  0  0  0  0  0  0  0  0
   -0.7500    1.2990    0.0000 C   0  0  0  0  0  0  0  0  0  0  0  0
    0.7500    1.2990    0.0000 C   0  0  0  0  0  0  0  0  0  0  0  0
   -1.7537    2.4138    0.0000 C   0  0  0  0  0  0  0  0  0  0  0  0
   -1.4418    3.8810    0.0000 C   0  0  0  0  0  0  0  0  0  0  0  0
   -3.1240    1.8037    0.0000 C   0  0  0  0  0  0  0  0  0  0  0  0
   -2.9672    0.3119    0.0000 C   0  0  0  0  0  0  0  0  0  0  0  0
   -4.4672    0.3119    0.0000 C   0  0  0  0  0  0  0  0  0  0  0  0
   -3.1240   -1.1799    0.0000 C   0  0  0  0  0  0  0  0  0  0  0  0
   -1.9105   -2.0616    0.0000 O   0  0  0  0  0  0  0  0  0  0  0  0
   -4.4943   -1.7900    0.0000 N   0  0  0  0  0  0  0  0  0  0  0  0
   -4.6511   -3.2818    0.0000 C   0  0  0  0  0  0  0  0  0  0  0  0
   -6.0214   -3.8919    0.0000 N   0  0  0  0  0  0  0  0  0  0  0  0
   -6.1782   -5.3837    0.0000 N   0  0  0  0  0  0  0  0  0  0  0  0
   -4.9647   -6.2654    0.0000 N   0  0  0  0  0  0  0  0  0  0  0  0
   -3.5944   -5.6553    0.0000 N   0  0  0  0  0  0  0  0  0  0  0  0
   -3.4376   -4.1635    0.0000 N   0  0  0  0  0  0  0  0  0  0  0  0
  1  2  1  0
  2  3  2  0
  3  4  1  0
  4  5  2  0
  5  6  1  0
  6  7  2  0
  6  8  1  0
  8  9  1  0
  8 10  1  0
 10 11  1  0
 11 12  1  0
 11 13  1  0
 13 14  2  0
 13 15  1  0
 15 16  1  0
 16 17  2  0
 17 18  1  0
 18 19  2  0
 19 20  1  0
 20 21  2  0
  7  2  1  0
 21 16  1  0
 11  5  1  0
M  END
>  <Title>  (605) 
idAAVIgen6

$$$$

     RDKit          2D

 22 24  0  0  0  0  0  0  0  0999 V2000
   -3.1965   -1.7857    0.0000 C   0  0  0  0  0  0  0  0  0  0  0  0
   -1.8107   -2.3597    0.0000 C   0  0  0  0  0  0  0  0  0  0  0  0
   -1.8107   -3.8597    0.0000 C   0  0  0  0  0  0  0  0  0  0  0  0
   -0.7500   -4.9204    0.0000 C   0  0  0  0  0  0  0  0  0  0  0  0
    0.7500   -4.9204    0.0000 C   0  0  0  0  0  0  0  0  0  0  0  0
    1.8107   -3.8597    0.0000 C   0  0  0  0  0  0  0  0  0  0  0  0
    1.8107   -2.3597    0.0000 C   0  0  0  0  0  0  0  0  0  0  0  0
    3.1965   -1.7857    0.0000 C   0  0  0  0  0  0  0  0  0  0  0  0
    3.3923   -0.2985    0.0000 O   0  0  0  0  0  0  0  0  0  0  0  0
    4.3865   -2.6988    0.0000 N   0  0  0  0  0  0  0  0  0  0  0  0
    5.7723   -2.1248    0.0000 C   0  0  0  0  0  0  0  0  0  0  0  0
    6.1225   -0.6662    0.0000 N   0  0  0  0  0  0  0  0  0  0  0  0
    7.6179   -0.5485    0.0000 N   0  0  0  0  0  0  0  0  0  0  0  0
    8.1919   -1.9344    0.0000 N   0  0  0  0  0  0  0  0  0  0  0  0
    7.0513   -2.9085    0.0000 C   0  0  0  0  0  0  0  0  0  0  0  0
    7.1690   -4.4039    0.0000 O   0  0  0  0  0  0  0  0  0  0  0  0
    0.7500   -1.2990    0.0000 C   0  0  0  0  0  0  0  0  0  0  0  0
    1.5000    0.0000    0.0000 C   0  0  0  0  0  0  0  0  0  0  0  0
    0.7500    1.2990    0.0000 C   0  0  0  0  0  0  0  0  0  0  0  0
   -0.7500    1.2990    0.0000 C   0  0  0  0  0  0  0  0  0  0  0  0
   -1.5000    0.0000    0.0000 C   0  0  0  0  0  0  0  0  0  0  0  0
   -0.7500   -1.2990    0.0000 C   0  0  0  0  0  0  0  0  0  0  0  0
  1  2  1  0
  2  3  1  0
  3  4  1  0
  4  5  1  0
  5  6  1  0
  6  7  1  0
  7  8  1  0
  8  9  2  0
  8 10  1  0
 10 11  1  0
 11 12  2  0
 12 13  1  0
 13 14  2  0
 14 15  1  0
 15 16  2  0
  7 17  1  0
 17 18  2  0
 18 19  1  0
 19 20  2  0
 20 21  1  0
 21 22  2  0
 22  2  1  0
 15 11  1  0
 22 17  1  0
M  END
>  <Title>  (606) 
idAAVJgen6

$$$$

     RDKit          2D

 28 31  0  0  0  0  0  0  0  0999 V2000
    1.3240   -7.8062    0.0000 C   0  0  0  0  0  0  0  0  0  0  0  0
    0.7500   -6.4204    0.0000 C   0  0  0  0  0  0  0  0  0  0  0  0
   -0.7500   -6.4204    0.0000 C   0  0  0  0  0  0  0  0  0  0  0  0
   -1.8107   -5.3597    0.0000 C   0  0  0  0  0  0  0  0  0  0  0  0
   -1.8107   -3.8597    0.0000 C   0  0  0  0  0  0  0  0  0  0  0  0
   -3.1965   -3.2857    0.0000 C   0  0  0  0  0  0  0  0  0  0  0  0
   -3.3923   -1.7985    0.0000 O   0  0  0  0  0  0  0  0  0  0  0  0
   -4.3865   -4.1988    0.0000 N   0  0  0  0  0  0  0  0  0  0  0  0
   -5.7723   -3.6248    0.0000 C   0  0  0  0  0  0  0  0  0  0  0  0
   -5.9681   -2.1376    0.0000 N   0  0  0  0  0  0  0  0  0  0  0  0
   -7.3539   -1.5636    0.0000 N   0  0  0  0  0  0  0  0  0  0  0  0
   -8.5440   -2.4767    0.0000 N   0  0  0  0  0  0  0  0  0  0  0  0
   -8.3482   -3.9639    0.0000 N   0  0  0  0  0  0  0  0  0  0  0  0
   -6.9624   -4.5379    0.0000 N   0  0  0  0  0  0  0  0  0  0  0  0
   -0.7500   -2.7990    0.0000 C   0  0  0  0  0  0  0  0  0  0  0  0
    0.7500   -2.7990    0.0000 C   0  0  0  0  0  0  0  0  0  0  0  0
    1.8107   -3.8597    0.0000 C   0  0  0  0  0  0  0  0  0  0  0  0
    3.1965   -3.2857    0.0000 O   0  0  0  0  0  0  0  0  0  0  0  0
    1.8107   -5.3597    0.0000 C   0  0  0  0  0  0  0  0  0  0  0  0
    3.1965   -5.9337    0.0000 C   0  0  0  0  0  0  0  0  0  0  0  0
    3.3923   -7.4209    0.0000 O   0  0  0  0  0  0  0  0  0  0  0  0
    4.3865   -5.0206    0.0000 O   0  0  0  0  0  0  0  0  0  0  0  0
    0.7500   -1.2990    0.0000 C   0  0  0  0  0  0  0  0  0  0  0  0
    1.5000    0.0000    0.0000 C   0  0  0  0  0  0  0  0  0  0  0  0
    0.7500    1.2990    0.0000 C   0  0  0  0  0  0  0  0  0  0  0  0
   -0.7500    1.2990    0.0000 C   0  0  0  0  0  0  0  0  0  0  0  0
   -1.5000    0.0000    0.0000 C   0  0  0  0  0  0  0  0  0  0  0  0
   -0.7500   -1.2990    0.0000 C   0  0  0  0  0  0  0  0  0  0  0  0
  1  2  1  0
  2  3  1  0
  3  4  1  0
  4  5  1  0
  5  6  1  0
  6  7  2  0
  6  8  1  0
  8  9  1  0
  9 10  2  0
 10 11  1  0
 11 12  2  0
 12 13  1  0
 13 14  2  0
  5 15  1  0
 15 16  2  0
 16 17  1  0
 17 18  2  0
 17 19  1  0
 19 20  1  0
 20 21  2  0
 20 22  1  0
 16 23  1  0
 23 24  2  0
 24 25  1  0
 25 26  2  0
 26 27  1  0
 27 28  2  0
 19  2  1  0
 28 23  1  0
 14  9  1  0
 28 15  1  0
M  END
>  <Title>  (607) 
idAAVKgen6

$$$$

     RDKit          2D

 15 16  0  0  0  0  0  0  0  0999 V2000
    3.7500   -1.2990    0.0000 C   0  0  0  0  0  0  0  0  0  0  0  0
    3.0000    0.0000    0.0000 O   0  0  0  0  0  0  0  0  0  0  0  0
    1.5000    0.0000    0.0000 C   0  0  0  0  0  0  0  0  0  0  0  0
    0.7500   -1.2990    0.0000 C   0  0  0  0  0  0  0  0  0  0  0  0
   -0.7500   -1.2990    0.0000 C   0  0  0  0  0  0  0  0  0  0  0  0
   -1.5000    0.0000    0.0000 C   0  0  0  0  0  0  0  0  0  0  0  0
   -3.0000    0.0000    0.0000 C   0  0  0  0  0  0  0  0  0  0  0  0
   -3.8817   -1.2135    0.0000 C   0  0  0  0  0  0  0  0  0  0  0  0
   -5.3083   -0.7500    0.0000 N   0  0  0  0  0  0  0  0  0  0  0  0
   -5.3083    0.7500    0.0000 N   0  0  0  0  0  0  0  0  0  0  0  0
   -3.8817    1.2135    0.0000 N   0  0  0  0  0  0  0  0  0  0  0  0
   -0.7500    1.2990    0.0000 C   0  0  0  0  0  0  0  0  0  0  0  0
   -1.5000    2.5981    0.0000 C   0  0  0  0  0  0  0  0  0  0  0  0
   -0.7500    3.8971    0.0000 O   0  0  0  0  0  0  0  0  0  0  0  0
    0.7500    1.2990    0.0000 C   0  0  0  0  0  0  0  0  0  0  0  0
  1  2  1  0
  2  3  1  0
  3  4  2  0
  4  5  1  0
  5  6  2  0
  6  7  1  0
  7  8  2  0
  8  9  1  0
  9 10  2  0
 10 11  1  0
  6 12  1  0
 12 13  1  0
 13 14  1  0
 12 15  1  0
 15  3  1  0
 11  7  1  0
M  END
>  <Title>  (608) 
idAAVLgen6

$$$$

     RDKit          2D

 20 21  0  0  0  0  0  0  0  0999 V2000
    5.0260    1.2990    0.0000 C   0  0  0  0  0  0  0  0  0  0  0  0
    3.5260    1.2990    0.0000 C   0  0  0  0  0  0  0  0  0  0  0  0
    2.7760    2.5981    0.0000 O   0  0  0  0  0  0  0  0  0  0  0  0
    2.7760    0.0000    0.0000 C   0  0  0  0  0  0  0  0  0  0  0  0
    3.5260   -1.2990    0.0000 O   0  0  0  0  0  0  0  0  0  0  0  0
    1.2760    0.0000    0.0000 C   0  0  0  0  0  0  0  0  0  0  0  0
    0.3943    1.2135    0.0000 C   0  0  0  0  0  0  0  0  0  0  0  0
   -1.0323    0.7500    0.0000 C   0  0  0  0  0  0  0  0  0  0  0  0
   -1.0323   -0.7500    0.0000 C   0  0  0  0  0  0  0  0  0  0  0  0
   -2.2458   -1.6317    0.0000 O   0  0  0  0  0  0  0  0  0  0  0  0
    0.3943   -1.2135    0.0000 N   0  0  0  0  0  0  0  0  0  0  0  0
    0.8578   -2.6401    0.0000 C   0  0  0  0  0  0  0  0  0  0  0  0
    2.2844   -3.1036    0.0000 C   0  0  0  0  0  0  0  0  0  0  0  0
    2.2844   -4.6036    0.0000 C   0  0  0  0  0  0  0  0  0  0  0  0
    0.8578   -5.0672    0.0000 C   0  0  0  0  0  0  0  0  0  0  0  0
    0.3943   -6.4937    0.0000 C   0  0  0  0  0  0  0  0  0  0  0  0
    1.3980   -7.6085    0.0000 O   0  0  0  0  0  0  0  0  0  0  0  0
   -1.0729   -6.8056    0.0000 O   0  0  0  0  0  0  0  0  0  0  0  0
   -0.0239   -3.8536    0.0000 C   0  0  0  0  0  0  0  0  0  0  0  0
   -1.5239   -3.8536    0.0000 O   0  0  0  0  0  0  0  0  0  0  0  0
  1  2  1  0
  2  3  2  0
  2  4  1  0
  4  5  2  0
  4  6  1  0
  6  7  1  0
  7  8  1  0
  8  9  1  0
  9 10  2  0
  9 11  1  0
 11 12  1  0
 12 13  2  0
 13 14  1  0
 14 15  2  0
 15 16  1  0
 16 17  2  0
 16 18  1  0
 15 19  1  0
 19 20  2  0
 11  6  1  0
 19 12  1  0
M  END
>  <Title>  (609) 
idAAVMgen6

$$$$

     RDKit          2D

 24 26  0  0  0  0  0  0  0  0999 V2000
    7.9460    1.6299    0.0000 C   0  0  0  0  0  0  0  0  0  0  0  0
    6.4627    1.8535    0.0000 C   0  0  0  0  0  0  0  0  0  0  0  0
    5.5275    0.6808    0.0000 C   0  0  0  0  0  0  0  0  0  0  0  0
    4.0442    0.9043    0.0000 C   0  0  0  0  0  0  0  0  0  0  0  0
    3.4962    2.3006    0.0000 C   0  0  0  0  0  0  0  0  0  0  0  0
    2.0130    2.5242    0.0000 C   0  0  0  0  0  0  0  0  0  0  0  0
    1.4650    3.9205    0.0000 O   0  0  0  0  0  0  0  0  0  0  0  0
    1.0777    1.3515    0.0000 N   0  0  0  0  0  0  0  0  0  0  0  0
    1.7286    0.0000    0.0000 C   0  0  0  0  0  0  0  0  0  0  0  0
    1.0777   -1.3515    0.0000 C   0  0  0  0  0  0  0  0  0  0  0  0
   -0.3846   -1.6852    0.0000 C   0  0  0  0  0  0  0  0  0  0  0  0
   -0.7184   -3.1476    0.0000 C   0  0  0  0  0  0  0  0  0  0  0  0
   -2.1518   -3.5898    0.0000 C   0  0  0  0  0  0  0  0  0  0  0  0
   -2.4856   -5.0522    0.0000 C   0  0  0  0  0  0  0  0  0  0  0  0
   -1.3860   -6.0724    0.0000 C   0  0  0  0  0  0  0  0  0  0  0  0
    0.0474   -5.6303    0.0000 C   0  0  0  0  0  0  0  0  0  0  0  0
    0.3812   -4.1679    0.0000 C   0  0  0  0  0  0  0  0  0  0  0  0
   -1.5574   -0.7500    0.0000 C   0  0  0  0  0  0  0  0  0  0  0  0
   -2.9088   -1.4008    0.0000 O   0  0  0  0  0  0  0  0  0  0  0  0
   -1.5574    0.7500    0.0000 N   0  0  0  0  0  0  0  0  0  0  0  0
   -0.3846    1.6852    0.0000 C   0  0  0  0  0  0  0  0  0  0  0  0
   -0.7184    3.1476    0.0000 O   0  0  0  0  0  0  0  0  0  0  0  0
    4.4315    3.4734    0.0000 C   0  0  0  0  0  0  0  0  0  0  0  0
    5.9147    3.2498    0.0000 C   0  0  0  0  0  0  0  0  0  0  0  0
  1  2  1  0
  2  3  1  0
  3  4  1  0
  4  5  1  0
  5  6  1  0
  6  7  2  0
  6  8  1  0
  8  9  1  0
  9 10  1  0
 10 11  1  0
 11 12  1  0
 12 13  2  0
 13 14  1  0
 14 15  2  0
 15 16  1  0
 16 17  2  0
 11 18  1  0
 18 19  2  0
 18 20  1  0
 20 21  1  0
 21 22  2  0
  5 23  1  0
 23 24  1  0
 24  2  1  0
 21  8  1  0
 17 12  1  0
M  END
>  <Title>  (610) 
idAAVNgen6

$$$$

     RDKit          2D

 13 14  0  0  0  0  0  0  0  0999 V2000
    4.2976   -0.3872    0.0000 C   0  0  0  0  0  0  0  0  0  0  0  0
    2.9013   -0.9352    0.0000 O   0  0  0  0  0  0  0  0  0  0  0  0
    1.7286    0.0000    0.0000 C   0  0  0  0  0  0  0  0  0  0  0  0
    2.9013    0.9352    0.0000 C   0  0  0  0  0  0  0  0  0  0  0  0
    1.0777    1.3515    0.0000 C   0  0  0  0  0  0  0  0  0  0  0  0
   -0.3846    1.6852    0.0000 C   0  0  0  0  0  0  0  0  0  0  0  0
   -1.3199    2.8580    0.0000 C   0  0  0  0  0  0  0  0  0  0  0  0
   -1.1519    4.3486    0.0000 O   0  0  0  0  0  0  0  0  0  0  0  0
   -2.4926    1.9227    0.0000 N   0  0  0  0  0  0  0  0  0  0  0  0
   -1.5574    0.7500    0.0000 C   0  0  0  0  0  0  0  0  0  0  0  0
   -1.5574   -0.7500    0.0000 N   0  0  0  0  0  0  0  0  0  0  0  0
   -0.3846   -1.6852    0.0000 N   0  0  0  0  0  0  0  0  0  0  0  0
    1.0777   -1.3515    0.0000 N   0  0  0  0  0  0  0  0  0  0  0  0
  1  2  1  0
  2  3  1  0
  3  4  1  0
  3  5  1  0
  5  6  1  0
  6  7  1  0
  7  8  2  0
  7  9  1  0
  9 10  1  0
 10 11  2  0
 11 12  1  0
 12 13  2  0
 13  3  1  0
 10  6  1  0
M  END
>  <Title>  (611) 
idAAVOgen6

$$$$

     RDKit          2D

 11 11  0  0  0  0  0  0  0  0999 V2000
    6.0000   -2.5981    0.0000 C   0  0  0  0  0  0  0  0  0  0  0  0
    5.2500   -1.2990    0.0000 C   0  0  0  0  0  0  0  0  0  0  0  0
    6.0000    0.0000    0.0000 O   0  0  0  0  0  0  0  0  0  0  0  0
    3.7500   -1.2990    0.0000 O   0  0  0  0  0  0  0  0  0  0  0  0
    3.0000    0.0000    0.0000 C   0  0  0  0  0  0  0  0  0  0  0  0
    1.5000    0.0000    0.0000 C   0  0  0  0  0  0  0  0  0  0  0  0
    0.7500   -1.2990    0.0000 C   0  0  0  0  0  0  0  0  0  0  0  0
   -0.7500   -1.2990    0.0000 C   0  0  0  0  0  0  0  0  0  0  0  0
   -1.5000    0.0000    0.0000 C   0  0  0  0  0  0  0  0  0  0  0  0
   -0.7500    1.2990    0.0000 C   0  0  0  0  0  0  0  0  0  0  0  0
    0.7500    1.2990    0.0000 C   0  0  0  0  0  0  0  0  0  0  0  0
  1  2  1  0
  2  3  2  0
  2  4  1  0
  4  5  1  0
  5  6  1  0
  6  7  2  0
  7  8  1  0
  8  9  2  0
  9 10  1  0
 10 11  2  0
 11  6  1  0
M  END
>  <Title>  (612) 
idAAVPgen6

$$$$

     RDKit          2D

 16 18  0  0  0  0  0  0  0  0999 V2000
    1.5000   -5.1962    0.0000 O   0  0  0  0  0  0  0  0  0  0  0  0
    0.7500   -3.8971    0.0000 C   0  0  0  0  0  0  0  0  0  0  0  0
    1.5000   -2.5981    0.0000 N   0  0  0  0  0  0  0  0  0  0  0  0
    0.7500   -1.2990    0.0000 C   0  0  0  0  0  0  0  0  0  0  0  0
    1.5000    0.0000    0.0000 C   0  0  0  0  0  0  0  0  0  0  0  0
    0.7500    1.2990    0.0000 C   0  0  0  0  0  0  0  0  0  0  0  0
   -0.7500    1.2990    0.0000 C   0  0  0  0  0  0  0  0  0  0  0  0
   -1.5000    0.0000    0.0000 C   0  0  0  0  0  0  0  0  0  0  0  0
   -0.7500   -1.2990    0.0000 C   0  0  0  0  0  0  0  0  0  0  0  0
   -1.5000   -2.5981    0.0000 C   0  0  0  0  0  0  0  0  0  0  0  0
   -3.0000   -2.5981    0.0000 C   0  0  0  0  0  0  0  0  0  0  0  0
   -3.7500   -3.8971    0.0000 C   0  0  0  0  0  0  0  0  0  0  0  0
   -3.0000   -5.1962    0.0000 C   0  0  0  0  0  0  0  0  0  0  0  0
   -3.7500   -6.4952    0.0000 O   0  0  0  0  0  0  0  0  0  0  0  0
   -1.5000   -5.1962    0.0000 C   0  0  0  0  0  0  0  0  0  0  0  0
   -0.7500   -3.8971    0.0000 C   0  0  0  0  0  0  0  0  0  0  0  0
  1  2  2  0
  2  3  1  0
  3  4  1  0
  4  5  2  0
  5  6  1  0
  6  7  2  0
  7  8  1  0
  8  9  2  0
  9 10  1  0
 10 11  2  0
 11 12  1  0
 12 13  2  0
 13 14  1  0
 13 15  1  0
 15 16  2  0
 16  2  1  0
  9  4  1  0
 16 10  1  0
M  END
>  <Title>  (613) 
idAAVQgen6

$$$$

     RDKit          2D

 39 44  0  0  0  0  0  0  0  0999 V2000
   -3.1771   -1.2990    0.0000 C   0  0  0  0  0  0  0  0  0  0  0  0
   -1.9635   -2.1807    0.0000 C   0  0  0  0  0  0  0  0  0  0  0  0
   -2.4271   -3.6073    0.0000 C   0  0  0  0  0  0  0  0  0  0  0  0
   -1.9635   -5.0339    0.0000 C   0  0  0  0  0  0  0  0  0  0  0  0
   -0.7500   -5.9156    0.0000 C   0  0  0  0  0  0  0  0  0  0  0  0
   -1.2135   -7.3421    0.0000 C   0  0  0  0  0  0  0  0  0  0  0  0
   -0.2098   -8.4569    0.0000 O   0  0  0  0  0  0  0  0  0  0  0  0
   -2.6807   -7.6540    0.0000 N   0  0  0  0  0  0  0  0  0  0  0  0
   -3.1443   -9.0806    0.0000 C   0  0  0  0  0  0  0  0  0  0  0  0
   -4.6115   -9.3925    0.0000 N   0  0  0  0  0  0  0  0  0  0  0  0
   -5.0750  -10.8191    0.0000 N   0  0  0  0  0  0  0  0  0  0  0  0
   -4.0713  -11.9338    0.0000 N   0  0  0  0  0  0  0  0  0  0  0  0
   -2.6041  -11.6219    0.0000 N   0  0  0  0  0  0  0  0  0  0  0  0
   -2.1406  -10.1953    0.0000 N   0  0  0  0  0  0  0  0  0  0  0  0
    0.7500   -5.9156    0.0000 C   0  0  0  0  0  0  0  0  0  0  0  0
    1.2135   -7.3421    0.0000 C   0  0  0  0  0  0  0  0  0  0  0  0
    2.7135   -7.3421    0.0000 C   0  0  0  0  0  0  0  0  0  0  0  0
    3.1771   -5.9156    0.0000 C   0  0  0  0  0  0  0  0  0  0  0  0
    4.6036   -5.4520    0.0000 C   0  0  0  0  0  0  0  0  0  0  0  0
    4.9155   -3.9848    0.0000 O   0  0  0  0  0  0  0  0  0  0  0  0
    5.7184   -6.4557    0.0000 N   0  0  0  0  0  0  0  0  0  0  0  0
    7.1449   -5.9922    0.0000 C   0  0  0  0  0  0  0  0  0  0  0  0
    8.2597   -6.9959    0.0000 N   0  0  0  0  0  0  0  0  0  0  0  0
    9.6862   -6.5324    0.0000 N   0  0  0  0  0  0  0  0  0  0  0  0
    9.9981   -5.0652    0.0000 N   0  0  0  0  0  0  0  0  0  0  0  0
    8.8834   -4.0615    0.0000 N   0  0  0  0  0  0  0  0  0  0  0  0
    7.4568   -4.5250    0.0000 N   0  0  0  0  0  0  0  0  0  0  0  0
    1.9635   -5.0339    0.0000 C   0  0  0  0  0  0  0  0  0  0  0  0
    2.4271   -3.6073    0.0000 C   0  0  0  0  0  0  0  0  0  0  0  0
    3.9271   -3.6073    0.0000 C   0  0  0  0  0  0  0  0  0  0  0  0
    4.3906   -2.1807    0.0000 C   0  0  0  0  0  0  0  0  0  0  0  0
    3.1771   -1.2990    0.0000 C   0  0  0  0  0  0  0  0  0  0  0  0
    1.9635   -2.1807    0.0000 C   0  0  0  0  0  0  0  0  0  0  0  0
    0.7500   -1.2990    0.0000 C   0  0  0  0  0  0  0  0  0  0  0  0
    1.5000    0.0000    0.0000 C   0  0  0  0  0  0  0  0  0  0  0  0
    0.7500    1.2990    0.0000 C   0  0  0  0  0  0  0  0  0  0  0  0
   -0.7500    1.2990    0.0000 C   0  0  0  0  0  0  0  0  0  0  0  0
   -1.5000    0.0000    0.0000 C   0  0  0  0  0  0  0  0  0  0  0  0
   -0.7500   -1.2990    0.0000 C   0  0  0  0  0  0  0  0  0  0  0  0
  1  2  1  0
  2  3  1  0
  3  4  1  0
  4  5  1  0
  5  6  1  0
  6  7  2  0
  6  8  1  0
  8  9  1  0
  9 10  2  0
 10 11  1  0
 11 12  2  0
 12 13  1  0
 13 14  2  0
  5 15  1  0
 15 16  2  0
 16 17  1  0
 17 18  2  0
 18 19  1  0
 19 20  2  0
 19 21  1  0
 21 22  1  0
 22 23  2  0
 23 24  1  0
 24 25  2  0
 25 26  1  0
 26 27  2  0
 18 28  1  0
 28 29  1  0
 29 30  1  0
 30 31  2  0
 31 32  1  0
 32 33  2  0
 33 34  1  0
 34 35  2  0
 35 36  1  0
 36 37  2  0
 37 38  1  0
 38 39  2  0
 39  2  1  0
 14  9  1  0
 28 15  1  0
 33 29  1  0
 39 34  1  0
 27 22  1  0
M  END
>  <Title>  (614) 
idAAVRgen6

$$$$

     RDKit          2D

 20 22  0  0  0  0  0  0  0  0999 V2000
   -3.0000   -2.5981    0.0000 C   0  0  0  0  0  0  0  0  0  0  0  0
   -1.5000   -2.5981    0.0000 C   0  0  0  0  0  0  0  0  0  0  0  0
   -0.7500   -3.8971    0.0000 C   0  0  0  0  0  0  0  0  0  0  0  0
    0.7500   -3.8971    0.0000 C   0  0  0  0  0  0  0  0  0  0  0  0
    1.5000   -2.5981    0.0000 C   0  0  0  0  0  0  0  0  0  0  0  0
    3.0000   -2.5981    0.0000 C   0  0  0  0  0  0  0  0  0  0  0  0
    3.7500   -1.2990    0.0000 O   0  0  0  0  0  0  0  0  0  0  0  0
    3.7500   -3.8971    0.0000 N   0  0  0  0  0  0  0  0  0  0  0  0
    5.2500   -3.8971    0.0000 C   0  0  0  0  0  0  0  0  0  0  0  0
    6.0000   -5.1962    0.0000 C   0  0  0  0  0  0  0  0  0  0  0  0
    7.5000   -5.1962    0.0000 N   0  0  0  0  0  0  0  0  0  0  0  0
    8.2500   -3.8971    0.0000 N   0  0  0  0  0  0  0  0  0  0  0  0
    7.5000   -2.5981    0.0000 N   0  0  0  0  0  0  0  0  0  0  0  0
    6.0000   -2.5981    0.0000 N   0  0  0  0  0  0  0  0  0  0  0  0
    0.7500   -1.2990    0.0000 C   0  0  0  0  0  0  0  0  0  0  0  0
    1.5000    0.0000    0.0000 C   0  0  0  0  0  0  0  0  0  0  0  0
    0.7500    1.2990    0.0000 C   0  0  0  0  0  0  0  0  0  0  0  0
   -0.7500    1.2990    0.0000 C   0  0  0  0  0  0  0  0  0  0  0  0
   -1.5000    0.0000    0.0000 C   0  0  0  0  0  0  0  0  0  0  0  0
   -0.7500   -1.2990    0.0000 C   0  0  0  0  0  0  0  0  0  0  0  0
  1  2  1  0
  2  3  1  0
  3  4  1  0
  4  5  1  0
  5  6  1  0
  6  7  2  0
  6  8  1  0
  8  9  1  0
  9 10  2  0
 10 11  1  0
 11 12  2  0
 12 13  1  0
 13 14  2  0
  5 15  1  0
 15 16  2  0
 16 17  1  0
 17 18  2  0
 18 19  1  0
 19 20  2  0
 20  2  1  0
 14  9  1  0
 20 15  1  0
M  END
>  <Title>  (615) 
idAAVSgen6

$$$$

     RDKit          2D

 27 29  0  0  0  0  0  0  0  0999 V2000
    6.0000   -2.5981    0.0000 C   0  0  0  0  0  0  0  0  0  0  0  0
    5.2500   -1.2990    0.0000 C   0  0  0  0  0  0  0  0  0  0  0  0
    6.0000    0.0000    0.0000 C   0  0  0  0  0  0  0  0  0  0  0  0
    7.5000   -0.0000    0.0000 C   0  0  0  0  0  0  0  0  0  0  0  0
    8.2500   -1.2990    0.0000 O   0  0  0  0  0  0  0  0  0  0  0  0
    8.2500    1.2990    0.0000 O   0  0  0  0  0  0  0  0  0  0  0  0
    3.7500   -1.2990    0.0000 C   0  0  0  0  0  0  0  0  0  0  0  0
    3.0000    0.0000    0.0000 C   0  0  0  0  0  0  0  0  0  0  0  0
    3.7500    1.2990    0.0000 O   0  0  0  0  0  0  0  0  0  0  0  0
    1.5000    0.0000    0.0000 N   0  0  0  0  0  0  0  0  0  0  0  0
    0.7500   -1.2990    0.0000 C   0  0  0  0  0  0  0  0  0  0  0  0
   -0.7500   -1.2990    0.0000 C   0  0  0  0  0  0  0  0  0  0  0  0
   -1.5000    0.0000    0.0000 C   0  0  0  0  0  0  0  0  0  0  0  0
   -3.0000    0.0000    0.0000 N   0  0  0  0  0  0  0  0  0  0  0  0
   -3.7500    1.2990    0.0000 C   0  0  0  0  0  0  0  0  0  0  0  0
   -5.2500    1.2990    0.0000 C   0  0  0  0  0  0  0  0  0  0  0  0
   -6.0000    0.0000    0.0000 C   0  0  0  0  0  0  0  0  0  0  0  0
   -7.5000    0.0000    0.0000 C   0  0  0  0  0  0  0  0  0  0  0  0
   -8.2500    1.2990    0.0000 C   0  0  0  0  0  0  0  0  0  0  0  0
   -9.7500    1.2990    0.0000 C   0  0  0  0  0  0  0  0  0  0  0  0
  -10.5000    0.0000    0.0000 C   0  0  0  0  0  0  0  0  0  0  0  0
   -9.7500   -1.2990    0.0000 C   0  0  0  0  0  0  0  0  0  0  0  0
   -8.2500   -1.2990    0.0000 C   0  0  0  0  0  0  0  0  0  0  0  0
   -5.2500   -1.2990    0.0000 C   0  0  0  0  0  0  0  0  0  0  0  0
   -3.7500   -1.2990    0.0000 C   0  0  0  0  0  0  0  0  0  0  0  0
   -0.7500    1.2990    0.0000 C   0  0  0  0  0  0  0  0  0  0  0  0
    0.7500    1.2990    0.0000 C   0  0  0  0  0  0  0  0  0  0  0  0
  1  2  1  0
  2  3  1  0
  3  4  1  0
  4  5  2  0
  4  6  1  0
  2  7  1  0
  7  8  1  0
  8  9  2  0
  8 10  1  0
 10 11  1  0
 11 12  1  0
 12 13  1  0
 13 14  1  0
 14 15  1  0
 15 16  1  0
 16 17  1  0
 17 18  1  0
 18 19  2  0
 19 20  1  0
 20 21  2  0
 21 22  1  0
 22 23  2  0
 17 24  1  0
 24 25  1  0
 13 26  1  0
 26 27  1  0
 27 10  1  0
 25 14  1  0
 23 18  1  0
M  END
>  <Title>  (616) 
idAAVTgen6

$$$$

     RDKit          2D

 11 11  0  0  0  0  0  0  0  0999 V2000
    3.7500   -1.2990    0.0000 C   0  0  0  0  0  0  0  0  0  0  0  0
    3.0000    0.0000    0.0000 O   0  0  0  0  0  0  0  0  0  0  0  0
    1.5000    0.0000    0.0000 C   0  0  0  0  0  0  0  0  0  0  0  0
    0.7500   -1.2990    0.0000 C   0  0  0  0  0  0  0  0  0  0  0  0
   -0.7500   -1.2990    0.0000 C   0  0  0  0  0  0  0  0  0  0  0  0
   -1.5000    0.0000    0.0000 C   0  0  0  0  0  0  0  0  0  0  0  0
   -3.0000    0.0000    0.0000 C   0  0  0  0  0  0  0  0  0  0  0  0
   -4.5000    0.0000    0.0000 N   0  0  0  0  0  0  0  0  0  0  0  0
   -0.7500    1.2990    0.0000 C   0  0  0  0  0  0  0  0  0  0  0  0
    0.7500    1.2990    0.0000 C   0  0  0  0  0  0  0  0  0  0  0  0
    1.5000    2.5981    0.0000 C   0  0  0  0  0  0  0  0  0  0  0  0
  1  2  1  0
  2  3  1  0
  3  4  2  0
  4  5  1  0
  5  6  2  0
  6  7  1  0
  7  8  3  0
  6  9  1  0
  9 10  2  0
 10 11  1  0
 10  3  1  0
M  END
>  <Title>  (617) 
idAAVUgen6

$$$$

     RDKit          2D

 22 24  0  0  0  0  0  0  0  0999 V2000
    5.2500   -1.2990    0.0000 C   0  0  0  0  0  0  0  0  0  0  0  0
    3.7500   -1.2990    0.0000 C   0  0  0  0  0  0  0  0  0  0  0  0
    3.0000   -2.5981    0.0000 O   0  0  0  0  0  0  0  0  0  0  0  0
    3.0000    0.0000    0.0000 O   0  0  0  0  0  0  0  0  0  0  0  0
    1.5000    0.0000    0.0000 C   0  0  0  0  0  0  0  0  0  0  0  0
    0.7500   -1.2990    0.0000 C   0  0  0  0  0  0  0  0  0  0  0  0
   -0.7500   -1.2990    0.0000 C   0  0  0  0  0  0  0  0  0  0  0  0
   -1.5000    0.0000    0.0000 C   0  0  0  0  0  0  0  0  0  0  0  0
   -3.0000    0.0000    0.0000 N   0  0  0  0  0  0  0  0  0  0  0  0
   -3.8817   -1.2135    0.0000 C   0  0  0  0  0  0  0  0  0  0  0  0
   -5.3083   -0.7500    0.0000 C   0  0  0  0  0  0  0  0  0  0  0  0
   -5.3083    0.7500    0.0000 C   0  0  0  0  0  0  0  0  0  0  0  0
   -6.5218    1.6317    0.0000 C   0  0  0  0  0  0  0  0  0  0  0  0
   -6.3650    3.1235    0.0000 C   0  0  0  0  0  0  0  0  0  0  0  0
   -7.5785    4.0051    0.0000 C   0  0  0  0  0  0  0  0  0  0  0  0
   -8.9488    3.3950    0.0000 C   0  0  0  0  0  0  0  0  0  0  0  0
  -10.1624    4.2767    0.0000 O   0  0  0  0  0  0  0  0  0  0  0  0
   -9.1056    1.9033    0.0000 C   0  0  0  0  0  0  0  0  0  0  0  0
   -7.8921    1.0216    0.0000 C   0  0  0  0  0  0  0  0  0  0  0  0
   -3.8817    1.2135    0.0000 C   0  0  0  0  0  0  0  0  0  0  0  0
   -0.7500    1.2990    0.0000 C   0  0  0  0  0  0  0  0  0  0  0  0
    0.7500    1.2990    0.0000 C   0  0  0  0  0  0  0  0  0  0  0  0
  1  2  1  0
  2  3  2  0
  2  4  1  0
  4  5  1  0
  5  6  2  0
  6  7  1  0
  7  8  2  0
  8  9  1  0
  9 10  1  0
 10 11  1  0
 11 12  1  0
 12 13  1  0
 13 14  2  0
 14 15  1  0
 15 16  2  0
 16 17  1  0
 16 18  1  0
 18 19  2  0
 12 20  1  0
  8 21  1  0
 21 22  1  0
 22  5  1  0
 20  9  1  0
 19 13  1  0
M  END
>  <Title>  (618) 
idAAVVgen6

$$$$

     RDKit          2D

 27 30  0  0  0  0  0  0  0  0999 V2000
   -0.5690    7.5626    0.0000 C   0  0  0  0  0  0  0  0  0  0  0  0
   -0.9064    6.1011    0.0000 O   0  0  0  0  0  0  0  0  0  0  0  0
    0.1906    5.0781    0.0000 C   0  0  0  0  0  0  0  0  0  0  0  0
    1.5026    5.8053    0.0000 C   0  0  0  0  0  0  0  0  0  0  0  0
    2.9914    5.6225    0.0000 C   0  0  0  0  0  0  0  0  0  0  0  0
    4.0884    4.5995    0.0000 C   0  0  0  0  0  0  0  0  0  0  0  0
    4.3746    3.1271    0.0000 C   0  0  0  0  0  0  0  0  0  0  0  0
    5.8634    2.9443    0.0000 C   0  0  0  0  0  0  0  0  0  0  0  0
    6.4495    1.5635    0.0000 C   0  0  0  0  0  0  0  0  0  0  0  0
    7.9384    1.3807    0.0000 C   0  0  0  0  0  0  0  0  0  0  0  0
    8.8411    2.5786    0.0000 C   0  0  0  0  0  0  0  0  0  0  0  0
    8.2550    3.9594    0.0000 C   0  0  0  0  0  0  0  0  0  0  0  0
    6.7662    4.1422    0.0000 C   0  0  0  0  0  0  0  0  0  0  0  0
    3.7407    1.7676    0.0000 N   0  0  0  0  0  0  0  0  0  0  0  0
    2.3979    1.0548    0.0000 C   0  0  0  0  0  0  0  0  0  0  0  0
    2.5286   -0.4395    0.0000 C   0  0  0  0  0  0  0  0  0  0  0  0
    1.3858   -1.3858    0.0000 C   0  0  0  0  0  0  0  0  0  0  0  0
    1.2598   -0.0000    0.0000 C   0  0  0  0  0  0  0  0  0  0  0  0
    0.8908    0.8908    0.0000 C   0  0  0  0  0  0  0  0  0  0  0  0
    0.0000    1.2598    0.0000 C   0  0  0  0  0  0  0  0  0  0  0  0
   -1.3858    1.3858    0.0000 C   0  0  0  0  0  0  0  0  0  0  0  0
   -1.9598    0.0000    0.0000 C   0  0  0  0  0  0  0  0  0  0  0  0
   -1.3858   -1.3858    0.0000 C   0  0  0  0  0  0  0  0  0  0  0  0
   -0.0000   -1.9598    0.0000 C   0  0  0  0  0  0  0  0  0  0  0  0
   -0.1571    2.2462    0.0000 C   0  0  0  0  0  0  0  0  0  0  0  0
    1.3372    2.1155    0.0000 N   0  0  0  0  0  0  0  0  0  0  0  0
   -0.4433    3.7186    0.0000 C   0  0  0  0  0  0  0  0  0  0  0  0
  1  2  1  0
  2  3  1  0
  3  4  2  0
  4  5  1  0
  5  6  1  0
  6  7  1  0
  7  8  1  0
  8  9  2  0
  9 10  1  0
 10 11  2  0
 11 12  1  0
 12 13  2  0
  7 14  1  0
 14 15  2  0
 15 16  1  0
 16 17  1  0
 17 18  2  0
 18 19  1  0
 19 20  2  0
 20 21  1  0
 21 22  2  0
 22 23  1  0
 23 24  2  0
 21 25  1  0
 25 26  2  0
 25 27  1  0
 27  3  1  0
 13  8  1  0
 26 15  1  0
 24 17  1  0
M  END
>  <Title>  (619) 
idAAVWgen6

$$$$

     RDKit          2D

 21 23  0  0  0  0  0  0  0  0999 V2000
   -2.5242   -4.8694    0.0000 C   0  0  0  0  0  0  0  0  0  0  0  0
   -1.3515   -3.9342    0.0000 C   0  0  0  0  0  0  0  0  0  0  0  0
   -0.0000   -4.5850    0.0000 C   0  0  0  0  0  0  0  0  0  0  0  0
    1.3515   -3.9342    0.0000 C   0  0  0  0  0  0  0  0  0  0  0  0
    1.6852   -2.4718    0.0000 C   0  0  0  0  0  0  0  0  0  0  0  0
    3.1476   -2.1380    0.0000 C   0  0  0  0  0  0  0  0  0  0  0  0
    3.5898   -0.7046    0.0000 O   0  0  0  0  0  0  0  0  0  0  0  0
    4.1679   -3.2376    0.0000 N   0  0  0  0  0  0  0  0  0  0  0  0
    5.6303   -2.9038    0.0000 C   0  0  0  0  0  0  0  0  0  0  0  0
    6.6505   -4.0034    0.0000 N   0  0  0  0  0  0  0  0  0  0  0  0
    8.1129   -3.6696    0.0000 N   0  0  0  0  0  0  0  0  0  0  0  0
    8.5551   -2.2362    0.0000 N   0  0  0  0  0  0  0  0  0  0  0  0
    7.5348   -1.1367    0.0000 N   0  0  0  0  0  0  0  0  0  0  0  0
    6.0724   -1.4704    0.0000 N   0  0  0  0  0  0  0  0  0  0  0  0
    0.7500   -1.2990    0.0000 C   0  0  0  0  0  0  0  0  0  0  0  0
    1.5000    0.0000    0.0000 C   0  0  0  0  0  0  0  0  0  0  0  0
    0.7500    1.2990    0.0000 C   0  0  0  0  0  0  0  0  0  0  0  0
   -0.7500    1.2990    0.0000 C   0  0  0  0  0  0  0  0  0  0  0  0
   -1.5000    0.0000    0.0000 C   0  0  0  0  0  0  0  0  0  0  0  0
   -0.7500   -1.2990    0.0000 C   0  0  0  0  0  0  0  0  0  0  0  0
   -1.6852   -2.4718    0.0000 C   0  0  0  0  0  0  0  0  0  0  0  0
  1  2  1  0
  2  3  1  0
  3  4  1  0
  4  5  1  0
  5  6  1  0
  6  7  2  0
  6  8  1  0
  8  9  1  0
  9 10  2  0
 10 11  1  0
 11 12  2  0
 12 13  1  0
 13 14  2  0
  5 15  1  0
 15 16  2  0
 16 17  1  0
 17 18  2  0
 18 19  1  0
 19 20  2  0
 20 21  1  0
 21  2  1  0
 14  9  1  0
 20 15  1  0
M  END
>  <Title>  (620) 
idAAVXgen6

$$$$

     RDKit          2D

 31 34  0  0  0  0  0  0  0  0999 V2000
   -5.7609   -1.0275    0.0000 C   0  0  0  0  0  0  0  0  0  0  0  0
   -4.5474   -1.9091    0.0000 C   0  0  0  0  0  0  0  0  0  0  0  0
   -4.7042   -3.4009    0.0000 O   0  0  0  0  0  0  0  0  0  0  0  0
   -3.1771   -1.2990    0.0000 O   0  0  0  0  0  0  0  0  0  0  0  0
   -1.9635   -2.1807    0.0000 C   0  0  0  0  0  0  0  0  0  0  0  0
   -2.4271   -3.6073    0.0000 C   0  0  0  0  0  0  0  0  0  0  0  0
   -1.9635   -5.0339    0.0000 C   0  0  0  0  0  0  0  0  0  0  0  0
   -0.7500   -5.9156    0.0000 C   0  0  0  0  0  0  0  0  0  0  0  0
    0.7500   -5.9156    0.0000 C   0  0  0  0  0  0  0  0  0  0  0  0
    1.2135   -7.3421    0.0000 C   0  0  0  0  0  0  0  0  0  0  0  0
    2.7135   -7.3421    0.0000 C   0  0  0  0  0  0  0  0  0  0  0  0
    3.1771   -5.9156    0.0000 C   0  0  0  0  0  0  0  0  0  0  0  0
    4.6036   -5.4520    0.0000 O   0  0  0  0  0  0  0  0  0  0  0  0
    1.9635   -5.0339    0.0000 N   0  0  0  0  0  0  0  0  0  0  0  0
    2.4271   -3.6073    0.0000 C   0  0  0  0  0  0  0  0  0  0  0  0
    1.9635   -2.1807    0.0000 C   0  0  0  0  0  0  0  0  0  0  0  0
    3.1771   -1.2990    0.0000 C   0  0  0  0  0  0  0  0  0  0  0  0
    3.0203    0.1927    0.0000 O   0  0  0  0  0  0  0  0  0  0  0  0
    4.5474   -1.9091    0.0000 N   0  0  0  0  0  0  0  0  0  0  0  0
    5.7609   -1.0275    0.0000 C   0  0  0  0  0  0  0  0  0  0  0  0
    7.1312   -1.6376    0.0000 N   0  0  0  0  0  0  0  0  0  0  0  0
    8.3447   -0.7559    0.0000 N   0  0  0  0  0  0  0  0  0  0  0  0
    8.1879    0.7359    0.0000 N   0  0  0  0  0  0  0  0  0  0  0  0
    6.8176    1.3460    0.0000 N   0  0  0  0  0  0  0  0  0  0  0  0
    5.6041    0.4643    0.0000 N   0  0  0  0  0  0  0  0  0  0  0  0
    0.7500   -1.2990    0.0000 C   0  0  0  0  0  0  0  0  0  0  0  0
    1.5000    0.0000    0.0000 C   0  0  0  0  0  0  0  0  0  0  0  0
    0.7500    1.2990    0.0000 C   0  0  0  0  0  0  0  0  0  0  0  0
   -0.7500    1.2990    0.0000 C   0  0  0  0  0  0  0  0  0  0  0  0
   -1.5000    0.0000    0.0000 C   0  0  0  0  0  0  0  0  0  0  0  0
   -0.7500   -1.2990    0.0000 C   0  0  0  0  0  0  0  0  0  0  0  0
  1  2  1  0
  2  3  2  0
  2  4  1  0
  4  5  1  0
  5  6  2  0
  6  7  1  0
  7  8  1  0
  8  9  1  0
  9 10  1  0
 10 11  1  0
 11 12  1  0
 12 13  2  0
 12 14  1  0
 14 15  1  0
 15 16  1  0
 16 17  1  0
 17 18  2  0
 17 19  1  0
 19 20  1  0
 20 21  2  0
 21 22  1  0
 22 23  2  0
 23 24  1  0
 24 25  2  0
 16 26  1  0
 26 27  2  0
 27 28  1  0
 28 29  2  0
 29 30  1  0
 30 31  2  0
 31  5  1  0
 14  9  1  0
 25 20  1  0
 31 26  1  0
M  END
>  <Title>  (621) 
idAAVYgen6

$$$$

     RDKit          2D

 43 48  0  0  0  0  0  0  0  0999 V2000
   -1.3240   -6.3062    0.0000 C   0  0  0  0  0  0  0  0  0  0  0  0
   -0.7500   -4.9204    0.0000 C   0  0  0  0  0  0  0  0  0  0  0  0
    0.7500   -4.9204    0.0000 C   0  0  0  0  0  0  0  0  0  0  0  0
    1.8107   -3.8597    0.0000 C   0  0  0  0  0  0  0  0  0  0  0  0
    1.8107   -2.3597    0.0000 C   0  0  0  0  0  0  0  0  0  0  0  0
    3.1965   -1.7857    0.0000 C   0  0  0  0  0  0  0  0  0  0  0  0
    3.3923   -0.2985    0.0000 O   0  0  0  0  0  0  0  0  0  0  0  0
    4.3865   -2.6988    0.0000 N   0  0  0  0  0  0  0  0  0  0  0  0
    5.7723   -2.1248    0.0000 C   0  0  0  0  0  0  0  0  0  0  0  0
    6.1225   -0.6662    0.0000 N   0  0  0  0  0  0  0  0  0  0  0  0
    7.6179   -0.5485    0.0000 N   0  0  0  0  0  0  0  0  0  0  0  0
    8.1919   -1.9344    0.0000 N   0  0  0  0  0  0  0  0  0  0  0  0
    7.0513   -2.9085    0.0000 N   0  0  0  0  0  0  0  0  0  0  0  0
    7.1690   -4.4039    0.0000 C   0  0  0  0  0  0  0  0  0  0  0  0
    8.4479   -5.1877    0.0000 C   0  0  0  0  0  0  0  0  0  0  0  0
    8.0978   -6.6462    0.0000 C   0  0  0  0  0  0  0  0  0  0  0  0
    6.6024   -6.7639    0.0000 C   0  0  0  0  0  0  0  0  0  0  0  0
    5.8186   -8.0429    0.0000 N   0  0  0  0  0  0  0  0  0  0  0  0
    4.3192   -8.0036    0.0000 C   0  0  0  0  0  0  0  0  0  0  0  0
    3.6034   -6.6854    0.0000 O   0  0  0  0  0  0  0  0  0  0  0  0
    3.5354   -9.2826    0.0000 C   0  0  0  0  0  0  0  0  0  0  0  0
    2.0359   -9.2433    0.0000 C   0  0  0  0  0  0  0  0  0  0  0  0
    1.2522  -10.5223    0.0000 C   0  0  0  0  0  0  0  0  0  0  0  0
    1.9679  -11.8405    0.0000 C   0  0  0  0  0  0  0  0  0  0  0  0
    3.4674  -11.8797    0.0000 C   0  0  0  0  0  0  0  0  0  0  0  0
    4.2512  -10.6008    0.0000 C   0  0  0  0  0  0  0  0  0  0  0  0
    6.0284   -5.3781    0.0000 C   0  0  0  0  0  0  0  0  0  0  0  0
    4.5698   -5.0279    0.0000 O   0  0  0  0  0  0  0  0  0  0  0  0
    0.7500   -1.2990    0.0000 C   0  0  0  0  0  0  0  0  0  0  0  0
    1.5000    0.0000    0.0000 C   0  0  0  0  0  0  0  0  0  0  0  0
    0.7500    1.2990    0.0000 C   0  0  0  0  0  0  0  0  0  0  0  0
   -0.7500    1.2990    0.0000 C   0  0  0  0  0  0  0  0  0  0  0  0
   -1.5000    2.5981    0.0000 C   0  0  0  0  0  0  0  0  0  0  0  0
   -2.2500    3.8971    0.0000 N   0  0  0  0  0  0  0  0  0  0  0  0
   -1.5000    0.0000    0.0000 C   0  0  0  0  0  0  0  0  0  0  0  0
   -0.7500   -1.2990    0.0000 C   0  0  0  0  0  0  0  0  0  0  0  0
   -1.8107   -2.3597    0.0000 C   0  0  0  0  0  0  0  0  0  0  0  0
   -3.1097   -1.6097    0.0000 C   0  0  0  0  0  0  0  0  0  0  0  0
   -4.4087   -2.3597    0.0000 C   0  0  0  0  0  0  0  0  0  0  0  0
   -4.4087   -3.8597    0.0000 C   0  0  0  0  0  0  0  0  0  0  0  0
   -5.7078   -4.6097    0.0000 O   0  0  0  0  0  0  0  0  0  0  0  0
   -3.1097   -4.6097    0.0000 C   0  0  0  0  0  0  0  0  0  0  0  0
   -1.8107   -3.8597    0.0000 C   0  0  0  0  0  0  0  0  0  0  0  0
  1  2  1  0
  2  3  1  0
  3  4  1  0
  4  5  1  0
  5  6  1  0
  6  7  2  0
  6  8  1  0
  8  9  1  0
  9 10  2  0
 10 11  1  0
 11 12  2  0
 12 13  1  0
 13 14  1  0
 14 15  2  0
 15 16  1  0
 16 17  2  0
 17 18  1  0
 18 19  1  0
 19 20  2  0
 19 21  1  0
 21 22  2  0
 22 23  1  0
 23 24  2  0
 24 25  1  0
 25 26  2  0
 17 27  1  0
 27 28  2  0
  5 29  1  0
 29 30  2  0
 30 31  1  0
 31 32  2  0
 32 33  1  0
 33 34  3  0
 32 35  1  0
 35 36  2  0
 36 37  1  0
 37 38  2  0
 38 39  1  0
 39 40  2  0
 40 41  1  0
 40 42  1  0
 42 43  2  0
 43  2  1  0
 13  9  1  0
 27 14  1  0
 36 29  1  0
 43 37  1  0
 26 21  1  0
M  END
>  <Title>  (622) 
idAAVZgen6

$$$$

     RDKit          2D

 26 29  0  0  0  0  0  0  0  0999 V2000
   -9.1066   -3.8115    0.0000 C   0  0  0  0  0  0  0  0  0  0  0  0
   -8.1846   -2.6284    0.0000 C   0  0  0  0  0  0  0  0  0  0  0  0
   -6.6854   -2.6788    0.0000 C   0  0  0  0  0  0  0  0  0  0  0  0
   -6.1742   -1.2687    0.0000 C   0  0  0  0  0  0  0  0  0  0  0  0
   -4.7328   -0.8534    0.0000 N   0  0  0  0  0  0  0  0  0  0  0  0
   -3.6525   -1.8941    0.0000 C   0  0  0  0  0  0  0  0  0  0  0  0
   -4.0135   -3.3500    0.0000 O   0  0  0  0  0  0  0  0  0  0  0  0
   -1.0839   -0.4312    0.0000 N   0  0  0  0  0  0  0  0  0  0  0  0
   -0.5740   -1.3560    0.0000 C   0  0  0  0  0  0  0  0  0  0  0  0
    0.4718   -1.0961    0.0000 C   0  0  0  0  0  0  0  0  0  0  0  0
    1.3858   -1.3858    0.0000 C   0  0  0  0  0  0  0  0  0  0  0  0
    1.9598    0.0000    0.0000 C   0  0  0  0  0  0  0  0  0  0  0  0
    3.4598   -0.0000    0.0000 O   0  0  0  0  0  0  0  0  0  0  0  0
    1.3858    1.3858    0.0000 N   0  0  0  0  0  0  0  0  0  0  0  0
    0.0000    1.9598    0.0000 N   0  0  0  0  0  0  0  0  0  0  0  0
   -1.3858    1.3858    0.0000 N   0  0  0  0  0  0  0  0  0  0  0  0
   -1.9598    0.0000    0.0000 C   0  0  0  0  0  0  0  0  0  0  0  0
   -1.3858   -1.3858    0.0000 N   0  0  0  0  0  0  0  0  0  0  0  0
   -0.0000   -1.9598    0.0000 C   0  0  0  0  0  0  0  0  0  0  0  0
   -0.0000   -3.4598    0.0000 O   0  0  0  0  0  0  0  0  0  0  0  0
   -7.3573   -0.3467    0.0000 C   0  0  0  0  0  0  0  0  0  0  0  0
   -7.4638    1.1496    0.0000 C   0  0  0  0  0  0  0  0  0  0  0  0
   -8.8128    1.8054    0.0000 C   0  0  0  0  0  0  0  0  0  0  0  0
  -10.0553    0.9651    0.0000 C   0  0  0  0  0  0  0  0  0  0  0  0
   -9.9488   -0.5311    0.0000 C   0  0  0  0  0  0  0  0  0  0  0  0
   -8.5998   -1.1870    0.0000 C   0  0  0  0  0  0  0  0  0  0  0  0
  1  2  1  0
  2  3  1  0
  3  4  2  0
  4  5  1  0
  5  6  1  0
  6  7  2  0
  6  8  1  0
  8  9  1  0
  9 10  1  0
 10 11  1  0
 11 12  1  0
 12 13  2  0
 12 14  1  0
 14 15  2  0
 15 16  1  0
 16 17  2  0
 17 18  1  0
 18 19  1  0
 19 20  2  0
  4 21  1  0
 21 22  2  0
 22 23  1  0
 23 24  2  0
 24 25  1  0
 25 26  2  0
 26  2  1  0
 17  8  1  0
 26 21  1  0
 19 11  1  0
M  END
>  <Title>  (623) 
idAAWAgen6

$$$$

     RDKit          2D

 25 28  0  0  0  0  0  0  0  0999 V2000
   -3.0000   -2.5981    0.0000 C   0  0  0  0  0  0  0  0  0  0  0  0
   -1.5000   -2.5981    0.0000 C   0  0  0  0  0  0  0  0  0  0  0  0
   -0.7500   -3.8971    0.0000 C   0  0  0  0  0  0  0  0  0  0  0  0
    0.7500   -3.8971    0.0000 C   0  0  0  0  0  0  0  0  0  0  0  0
    1.5000   -2.5981    0.0000 C   0  0  0  0  0  0  0  0  0  0  0  0
    3.0000   -2.5981    0.0000 C   0  0  0  0  0  0  0  0  0  0  0  0
    3.7500   -1.2990    0.0000 O   0  0  0  0  0  0  0  0  0  0  0  0
    3.7500   -3.8971    0.0000 N   0  0  0  0  0  0  0  0  0  0  0  0
    5.2500   -3.8971    0.0000 C   0  0  0  0  0  0  0  0  0  0  0  0
    6.1317   -2.6836    0.0000 N   0  0  0  0  0  0  0  0  0  0  0  0
    7.5583   -3.1471    0.0000 N   0  0  0  0  0  0  0  0  0  0  0  0
    7.5583   -4.6471    0.0000 N   0  0  0  0  0  0  0  0  0  0  0  0
    6.1317   -5.1106    0.0000 N   0  0  0  0  0  0  0  0  0  0  0  0
    5.6682   -6.5372    0.0000 C   0  0  0  0  0  0  0  0  0  0  0  0
    4.2009   -6.8491    0.0000 C   0  0  0  0  0  0  0  0  0  0  0  0
    3.7374   -8.2757    0.0000 C   0  0  0  0  0  0  0  0  0  0  0  0
    4.7411   -9.3904    0.0000 C   0  0  0  0  0  0  0  0  0  0  0  0
    6.2083   -9.0785    0.0000 C   0  0  0  0  0  0  0  0  0  0  0  0
    6.6718   -7.6519    0.0000 C   0  0  0  0  0  0  0  0  0  0  0  0
    0.7500   -1.2990    0.0000 C   0  0  0  0  0  0  0  0  0  0  0  0
    1.5000    0.0000    0.0000 C   0  0  0  0  0  0  0  0  0  0  0  0
    0.7500    1.2990    0.0000 C   0  0  0  0  0  0  0  0  0  0  0  0
   -0.7500    1.2990    0.0000 C   0  0  0  0  0  0  0  0  0  0  0  0
   -1.5000    0.0000    0.0000 C   0  0  0  0  0  0  0  0  0  0  0  0
   -0.7500   -1.2990    0.0000 C   0  0  0  0  0  0  0  0  0  0  0  0
  1  2  1  0
  2  3  1  0
  3  4  1  0
  4  5  1  0
  5  6  1  0
  6  7  2  0
  6  8  1  0
  8  9  1  0
  9 10  2  0
 10 11  1  0
 11 12  2  0
 12 13  1  0
 13 14  1  0
 14 15  2  0
 15 16  1  0
 16 17  2  0
 17 18  1  0
 18 19  2  0
  5 20  1  0
 20 21  2  0
 21 22  1  0
 22 23  2  0
 23 24  1  0
 24 25  2  0
 25  2  1  0
 13  9  1  0
 19 14  1  0
 25 20  1  0
M  END
>  <Title>  (624) 
idAAWBgen6

$$$$

     RDKit          2D

 43 45  0  0  0  0  0  0  0  0999 V2000
   -3.0587   -3.7172    0.0000 C   0  0  0  0  0  0  0  0  0  0  0  0
   -3.5779   -2.3099    0.0000 C   0  0  0  0  0  0  0  0  0  0  0  0
   -5.0293   -2.6887    0.0000 C   0  0  0  0  0  0  0  0  0  0  0  0
   -6.5267   -2.7770    0.0000 C   0  0  0  0  0  0  0  0  0  0  0  0
   -8.0125   -2.5715    0.0000 C   0  0  0  0  0  0  0  0  0  0  0  0
   -9.4297   -2.0800    0.0000 C   0  0  0  0  0  0  0  0  0  0  0  0
  -10.7239   -1.3215    0.0000 C   0  0  0  0  0  0  0  0  0  0  0  0
  -11.8451   -0.3252    0.0000 C   0  0  0  0  0  0  0  0  0  0  0  0
  -12.7504    0.8708    0.0000 C   0  0  0  0  0  0  0  0  0  0  0  0
  -13.4051    2.2204    0.0000 C   0  0  0  0  0  0  0  0  0  0  0  0
  -13.7838    3.6718    0.0000 C   0  0  0  0  0  0  0  0  0  0  0  0
  -13.8721    5.1692    0.0000 C   0  0  0  0  0  0  0  0  0  0  0  0
  -13.6666    6.6551    0.0000 C   0  0  0  0  0  0  0  0  0  0  0  0
  -13.1751    8.0723    0.0000 C   0  0  0  0  0  0  0  0  0  0  0  0
  -12.4167    9.3664    0.0000 C   0  0  0  0  0  0  0  0  0  0  0  0
  -11.4203   10.4877    0.0000 C   0  0  0  0  0  0  0  0  0  0  0  0
  -10.2243   11.3930    0.0000 C   0  0  0  0  0  0  0  0  0  0  0  0
   -8.8747   12.0476    0.0000 C   0  0  0  0  0  0  0  0  0  0  0  0
   -7.4233   12.4263    0.0000 C   0  0  0  0  0  0  0  0  0  0  0  0
   -5.9259   12.5147    0.0000 C   0  0  0  0  0  0  0  0  0  0  0  0
   -4.4400   12.3091    0.0000 C   0  0  0  0  0  0  0  0  0  0  0  0
   -3.0228   11.8177    0.0000 C   0  0  0  0  0  0  0  0  0  0  0  0
   -1.7287   11.0592    0.0000 C   0  0  0  0  0  0  0  0  0  0  0  0
   -0.6074   10.0628    0.0000 C   0  0  0  0  0  0  0  0  0  0  0  0
    0.2979    8.8668    0.0000 C   0  0  0  0  0  0  0  0  0  0  0  0
    0.9525    7.5172    0.0000 C   0  0  0  0  0  0  0  0  0  0  0  0
    1.3312    6.0658    0.0000 C   0  0  0  0  0  0  0  0  0  0  0  0
    1.4195    4.5684    0.0000 C   0  0  0  0  0  0  0  0  0  0  0  0
    1.2140    3.0826    0.0000 C   0  0  0  0  0  0  0  0  0  0  0  0
    2.6726    2.7324    0.0000 O   0  0  0  0  0  0  0  0  0  0  0  0
    3.7051    3.8205    0.0000 C   0  0  0  0  0  0  0  0  0  0  0  0
    5.1637    3.4703    0.0000 C   0  0  0  0  0  0  0  0  0  0  0  0
    5.5897    2.0321    0.0000 O   0  0  0  0  0  0  0  0  0  0  0  0
    6.1962    4.5584    0.0000 N   0  0  0  0  0  0  0  0  0  0  0  0
    7.6957    4.5976    0.0000 C   0  0  0  0  0  0  0  0  0  0  0  0
    7.6564    6.0971    0.0000 C   0  0  0  0  0  0  0  0  0  0  0  0
    6.1569    6.0578    0.0000 C   0  0  0  0  0  0  0  0  0  0  0  0
    0.3943    1.2135    0.0000 C   0  0  0  0  0  0  0  0  0  0  0  0
    1.2760    0.0000    0.0000 C   0  0  0  0  0  0  0  0  0  0  0  0
    0.3943   -1.2135    0.0000 C   0  0  0  0  0  0  0  0  0  0  0  0
   -1.0323   -0.7500    0.0000 C   0  0  0  0  0  0  0  0  0  0  0  0
   -2.2283   -1.6553    0.0000 C   0  0  0  0  0  0  0  0  0  0  0  0
   -1.0323    0.7500    0.0000 O   0  0  0  0  0  0  0  0  0  0  0  0
  1  2  1  0
  2  3  1  0
  3  4  2  0
  4  5  1  0
  5  6  1  0
  6  7  1  0
  7  8  1  0
  8  9  1  0
  9 10  1  0
 10 11  1  0
 11 12  1  0
 12 13  1  0
 13 14  1  0
 14 15  1  0
 15 16  1  0
 16 17  1  0
 17 18  1  0
 18 19  1  0
 19 20  1  0
 20 21  1  0
 21 22  1  0
 22 23  1  0
 23 24  1  0
 24 25  2  0
 25 26  1  0
 26 27  2  0
 27 28  1  0
 28 29  2  0
 29 30  1  0
 30 31  1  0
 31 32  1  0
 32 33  2  0
 32 34  1  0
 34 35  1  0
 35 36  1  0
 36 37  1  0
 29 38  1  0
 38 39  1  0
 39 40  1  0
 40 41  1  0
 41 42  1  0
 41 43  1  0
 42  2  1  0
 37 34  1  0
 43 38  1  0
M  END
>  <Title>  (625) 
idAAWCgen6

$$$$

     RDKit          2D

 48 55  0  0  0  0  0  0  0  0999 V2000
   -3.0000   -5.1962    0.0000 O   0  0  0  0  0  0  0  0  0  0  0  0
   -3.7500   -3.8971    0.0000 C   0  0  0  0  0  0  0  0  0  0  0  0
   -3.0000   -2.5981    0.0000 C   0  0  0  0  0  0  0  0  0  0  0  0
   -1.5000   -2.5981    0.0000 C   0  0  0  0  0  0  0  0  0  0  0  0
   -0.7500   -3.8971    0.0000 C   0  0  0  0  0  0  0  0  0  0  0  0
    0.7500   -3.8971    0.0000 S   0  0  0  0  0  4  0  0  0  0  0  0
    1.5000   -2.5981    0.0000 C   0  0  0  0  0  0  0  0  0  0  0  0
    3.0000   -2.5981    0.0000 N   0  0  0  0  0  0  0  0  0  0  0  0
    3.7500   -3.8971    0.0000 C   0  0  0  0  0  0  0  0  0  0  0  0
    5.2500   -3.8971    0.0000 C   0  0  0  0  0  0  0  0  0  0  0  0
    6.0000   -2.5981    0.0000 C   0  0  0  0  0  0  0  0  0  0  0  0
    7.5000   -2.5981    0.0000 C   0  0  0  0  0  0  0  0  0  0  0  0
    8.2500   -3.8971    0.0000 C   0  0  0  0  0  0  0  0  0  0  0  0
    9.7500   -3.8971    0.0000 C   0  0  0  0  0  0  0  0  0  0  0  0
   10.5000   -2.5981    0.0000 C   0  0  0  0  0  0  0  0  0  0  0  0
    9.7500   -1.2990    0.0000 C   0  0  0  0  0  0  0  0  0  0  0  0
    8.2500   -1.2990    0.0000 C   0  0  0  0  0  0  0  0  0  0  0  0
    5.2500   -1.2990    0.0000 C   0  0  0  0  0  0  0  0  0  0  0  0
    3.7500   -1.2990    0.0000 C   0  0  0  0  0  0  0  0  0  0  0  0
    0.7500   -1.2990    0.0000 C   0  0  0  0  0  0  0  0  0  0  0  0
    1.5000    0.0000    0.0000 C   0  0  0  0  0  0  0  0  0  0  0  0
    0.7500    1.2990    0.0000 C   0  0  0  0  0  0  0  0  0  0  0  0
   -0.7500    1.2990    0.0000 C   0  0  0  0  0  0  0  0  0  0  0  0
   -1.5000    0.0000    0.0000 C   0  0  0  0  0  0  0  0  0  0  0  0
   -0.7500   -1.2990    0.0000 C   0  0  0  0  0  0  0  0  0  0  0  0
   -5.2500   -3.8971    0.0000 N   0  0  0  0  0  0  0  0  0  0  0  0
   -6.0000   -5.1962    0.0000 C   0  0  0  0  0  0  0  0  0  0  0  0
   -5.3899   -6.5665    0.0000 N   0  0  0  0  0  0  0  0  0  0  0  0
   -6.5046   -7.5702    0.0000 N   0  0  0  0  0  0  0  0  0  0  0  0
   -7.8037   -6.8202    0.0000 N   0  0  0  0  0  0  0  0  0  0  0  0
   -7.4918   -5.3529    0.0000 N   0  0  0  0  0  0  0  0  0  0  0  0
   -8.4955   -4.2382    0.0000 N   0  0  0  0  0  0  0  0  0  0  0  0
   -8.0320   -2.8116    0.0000 C   0  0  0  0  0  0  0  0  0  0  0  0
   -9.0356   -1.6969    0.0000 C   0  0  0  0  0  0  0  0  0  0  0  0
  -10.5029   -2.0088    0.0000 C   0  0  0  0  0  0  0  0  0  0  0  0
  -11.5066   -0.8941    0.0000 N   0  0  0  0  0  0  0  0  0  0  0  0
  -12.9983   -1.0509    0.0000 C   0  0  0  0  0  0  0  0  0  0  0  0
  -13.6085    0.3194    0.0000 C   0  0  0  0  0  0  0  0  0  0  0  0
  -12.4937    1.3231    0.0000 C   0  0  0  0  0  0  0  0  0  0  0  0
  -12.6505    2.8149    0.0000 C   0  0  0  0  0  0  0  0  0  0  0  0
  -11.4370    3.6966    0.0000 C   0  0  0  0  0  0  0  0  0  0  0  0
  -11.5938    5.1884    0.0000 C   0  0  0  0  0  0  0  0  0  0  0  0
  -12.9641    5.7985    0.0000 C   0  0  0  0  0  0  0  0  0  0  0  0
  -14.1776    4.9168    0.0000 C   0  0  0  0  0  0  0  0  0  0  0  0
  -14.0208    3.4250    0.0000 C   0  0  0  0  0  0  0  0  0  0  0  0
  -11.1947    0.5731    0.0000 C   0  0  0  0  0  0  0  0  0  0  0  0
  -10.9664   -3.4354    0.0000 C   0  0  0  0  0  0  0  0  0  0  0  0
   -9.9627   -4.5501    0.0000 C   0  0  0  0  0  0  0  0  0  0  0  0
  1  2  2  0
  2  3  1  0
  3  4  1  0
  4  5  2  0
  5  6  1  0
  6  7  2  0
  7  8  1  0
  8  9  1  0
  9 10  1  0
 10 11  1  0
 11 12  1  0
 12 13  2  0
 13 14  1  0
 14 15  2  0
 15 16  1  0
 16 17  2  0
 11 18  1  0
 18 19  1  0
  7 20  1  0
 20 21  2  0
 21 22  1  0
 22 23  2  0
 23 24  1  0
 24 25  2  0
  2 26  1  0
 26 27  1  0
 27 28  2  0
 28 29  1  0
 29 30  2  0
 30 31  1  0
 31 32  1  0
 32 33  1  0
 33 34  1  0
 34 35  1  0
 35 36  1  0
 36 37  1  0
 37 38  1  0
 38 39  1  0
 39 40  1  0
 40 41  2  0
 41 42  1  0
 42 43  2  0
 43 44  1  0
 44 45  2  0
 39 46  1  0
 35 47  1  0
 47 48  1  0
 25  4  1  0
 31 27  1  0
 48 32  1  0
 19  8  1  0
 25 20  1  0
 46 36  1  0
 17 12  1  0
 45 40  1  0
M  END
>  <Title>  (626) 
idAAWDgen6

$$$$

     RDKit          2D

 15 15  0  0  0  0  0  0  0  0999 V2000
    6.0000   -2.5981    0.0000 C   0  0  0  0  0  0  0  0  0  0  0  0
    5.2500   -1.2990    0.0000 C   0  0  0  0  0  0  0  0  0  0  0  0
    6.0000    0.0000    0.0000 O   0  0  0  0  0  0  0  0  0  0  0  0
    3.7500   -1.2990    0.0000 C   0  0  0  0  0  0  0  0  0  0  0  0
    3.0000    0.0000    0.0000 C   0  0  0  0  0  0  0  0  0  0  0  0
    1.5000    0.0000    0.0000 C   0  0  0  0  0  0  0  0  0  0  0  0
    0.7500   -1.2990    0.0000 C   0  0  0  0  0  0  0  0  0  0  0  0
   -0.7500   -1.2990    0.0000 C   0  0  0  0  0  0  0  0  0  0  0  0
   -1.5000    0.0000    0.0000 C   0  0  0  0  0  0  0  0  0  0  0  0
   -3.0000    0.0000    0.0000 O   0  0  0  0  0  0  0  0  0  0  0  0
   -0.7500    1.2990    0.0000 C   0  0  0  0  0  0  0  0  0  0  0  0
    0.7500    1.2990    0.0000 C   0  0  0  0  0  0  0  0  0  0  0  0
    3.0000   -2.5981    0.0000 C   0  0  0  0  0  0  0  0  0  0  0  0
    1.5000   -2.5981    0.0000 O   0  0  0  0  0  0  0  0  0  0  0  0
    3.7500   -3.8971    0.0000 O   0  0  0  0  0  0  0  0  0  0  0  0
  1  2  1  0
  2  3  2  0
  2  4  1  0
  4  5  1  0
  5  6  1  0
  6  7  2  0
  7  8  1  0
  8  9  2  0
  9 10  1  0
  9 11  1  0
 11 12  2  0
  4 13  1  0
 13 14  2  0
 13 15  1  0
 12  6  1  0
M  END
>  <Title>  (627) 
idAAWEgen6

$$$$

     RDKit          2D

 21 23  0  0  0  0  0  0  0  0999 V2000
   -3.7500   -3.8971    0.0000 C   0  0  0  0  0  0  0  0  0  0  0  0
   -3.0000   -2.5981    0.0000 O   0  0  0  0  0  0  0  0  0  0  0  0
   -1.5000   -2.5981    0.0000 C   0  0  0  0  0  0  0  0  0  0  0  0
   -0.7500   -3.8971    0.0000 C   0  0  0  0  0  0  0  0  0  0  0  0
    0.7500   -3.8971    0.0000 C   0  0  0  0  0  0  0  0  0  0  0  0
    1.5000   -2.5981    0.0000 C   0  0  0  0  0  0  0  0  0  0  0  0
    3.0000   -2.5981    0.0000 C   0  0  0  0  0  0  0  0  0  0  0  0
    3.7500   -1.2990    0.0000 O   0  0  0  0  0  0  0  0  0  0  0  0
    3.7500   -3.8971    0.0000 N   0  0  0  0  0  0  0  0  0  0  0  0
    5.2500   -3.8971    0.0000 C   0  0  0  0  0  0  0  0  0  0  0  0
    6.0000   -5.1962    0.0000 N   0  0  0  0  0  0  0  0  0  0  0  0
    7.5000   -5.1962    0.0000 N   0  0  0  0  0  0  0  0  0  0  0  0
    8.2500   -3.8971    0.0000 N   0  0  0  0  0  0  0  0  0  0  0  0
    7.5000   -2.5981    0.0000 N   0  0  0  0  0  0  0  0  0  0  0  0
    6.0000   -2.5981    0.0000 N   0  0  0  0  0  0  0  0  0  0  0  0
    0.7500   -1.2990    0.0000 C   0  0  0  0  0  0  0  0  0  0  0  0
    1.5000    0.0000    0.0000 C   0  0  0  0  0  0  0  0  0  0  0  0
    0.7500    1.2990    0.0000 C   0  0  0  0  0  0  0  0  0  0  0  0
   -0.7500    1.2990    0.0000 C   0  0  0  0  0  0  0  0  0  0  0  0
   -1.5000    0.0000    0.0000 C   0  0  0  0  0  0  0  0  0  0  0  0
   -0.7500   -1.2990    0.0000 C   0  0  0  0  0  0  0  0  0  0  0  0
  1  2  1  0
  2  3  1  0
  3  4  1  0
  4  5  2  0
  5  6  1  0
  6  7  1  0
  7  8  2  0
  7  9  1  0
  9 10  1  0
 10 11  2  0
 11 12  1  0
 12 13  2  0
 13 14  1  0
 14 15  2  0
  6 16  1  0
 16 17  2  0
 17 18  1  0
 18 19  2  0
 19 20  1  0
 20 21  2  0
 21  3  1  0
 15 10  1  0
 21 16  1  0
M  END
>  <Title>  (628) 
idAAWFgen6

$$$$

     RDKit          2D

 34 38  0  0  0  0  0  0  0  0999 V2000
   -3.1476   -2.1380    0.0000 C   0  0  0  0  0  0  0  0  0  0  0  0
   -1.6852   -2.4718    0.0000 C   0  0  0  0  0  0  0  0  0  0  0  0
   -1.3515   -3.9342    0.0000 C   0  0  0  0  0  0  0  0  0  0  0  0
   -0.0000   -4.5850    0.0000 C   0  0  0  0  0  0  0  0  0  0  0  0
    1.3515   -3.9342    0.0000 C   0  0  0  0  0  0  0  0  0  0  0  0
    2.5242   -4.8694    0.0000 C   0  0  0  0  0  0  0  0  0  0  0  0
    3.9205   -4.3214    0.0000 O   0  0  0  0  0  0  0  0  0  0  0  0
    2.3006   -6.3527    0.0000 N   0  0  0  0  0  0  0  0  0  0  0  0
    3.4734   -7.2879    0.0000 C   0  0  0  0  0  0  0  0  0  0  0  0
    4.9193   -6.8888    0.0000 N   0  0  0  0  0  0  0  0  0  0  0  0
    5.7457   -8.1407    0.0000 N   0  0  0  0  0  0  0  0  0  0  0  0
    4.8104   -9.3134    0.0000 N   0  0  0  0  0  0  0  0  0  0  0  0
    3.4061   -8.7864    0.0000 N   0  0  0  0  0  0  0  0  0  0  0  0
    2.1542   -9.6127    0.0000 C   0  0  0  0  0  0  0  0  0  0  0  0
    2.0869  -11.1112    0.0000 C   0  0  0  0  0  0  0  0  0  0  0  0
    0.6410  -11.5103    0.0000 C   0  0  0  0  0  0  0  0  0  0  0  0
   -0.1854  -10.2584    0.0000 C   0  0  0  0  0  0  0  0  0  0  0  0
   -1.6838  -10.1911    0.0000 C   0  0  0  0  0  0  0  0  0  0  0  0
   -2.4914  -11.4552    0.0000 O   0  0  0  0  0  0  0  0  0  0  0  0
   -2.3748   -8.8597    0.0000 N   0  0  0  0  0  0  0  0  0  0  0  0
   -3.8733   -8.7924    0.0000 C   0  0  0  0  0  0  0  0  0  0  0  0
   -4.5643   -7.4611    0.0000 N   0  0  0  0  0  0  0  0  0  0  0  0
   -6.0628   -7.3938    0.0000 N   0  0  0  0  0  0  0  0  0  0  0  0
   -6.8703   -8.6578    0.0000 N   0  0  0  0  0  0  0  0  0  0  0  0
   -6.1793   -9.9892    0.0000 N   0  0  0  0  0  0  0  0  0  0  0  0
   -4.6808  -10.0565    0.0000 N   0  0  0  0  0  0  0  0  0  0  0  0
    0.7499   -9.0857    0.0000 C   0  0  0  0  0  0  0  0  0  0  0  0
    1.6852   -2.4718    0.0000 C   0  0  0  0  0  0  0  0  0  0  0  0
    0.7500   -1.2990    0.0000 C   0  0  0  0  0  0  0  0  0  0  0  0
    1.5000    0.0000    0.0000 C   0  0  0  0  0  0  0  0  0  0  0  0
    0.7500    1.2990    0.0000 C   0  0  0  0  0  0  0  0  0  0  0  0
   -0.7500    1.2990    0.0000 C   0  0  0  0  0  0  0  0  0  0  0  0
   -1.5000    0.0000    0.0000 C   0  0  0  0  0  0  0  0  0  0  0  0
   -0.7500   -1.2990    0.0000 C   0  0  0  0  0  0  0  0  0  0  0  0
  1  2  1  0
  2  3  1  0
  3  4  2  0
  4  5  1  0
  5  6  1  0
  6  7  2  0
  6  8  1  0
  8  9  1  0
  9 10  2  0
 10 11  1  0
 11 12  2  0
 12 13  1  0
 13 14  1  0
 14 15  2  0
 15 16  1  0
 16 17  2  0
 17 18  1  0
 18 19  2  0
 18 20  1  0
 20 21  1  0
 21 22  2  0
 22 23  1  0
 23 24  2  0
 24 25  1  0
 25 26  2  0
 17 27  1  0
  5 28  1  0
 28 29  1  0
 29 30  2  0
 30 31  1  0
 31 32  2  0
 32 33  1  0
 33 34  2  0
 34  2  1  0
 13  9  1  0
 27 14  1  0
 34 29  1  0
 26 21  1  0
M  END
>  <Title>  (629) 
idAAWGgen6

$$$$

     RDKit          2D

 27 29  0  0  0  0  0  0  0  0999 V2000
    3.0000    0.0000    0.0000 C   0  0  0  0  0  0  0  0  0  0  0  0
    1.5000    0.0000    0.0000 C   0  0  0  0  0  0  0  0  0  0  0  0
    0.7500   -1.2990    0.0000 C   0  0  0  0  0  0  0  0  0  0  0  0
   -0.7500   -1.2990    0.0000 C   0  0  0  0  0  0  0  0  0  0  0  0
   -0.6896   -2.7978    0.0000 C   0  0  0  0  0  0  0  0  0  0  0  0
   -1.3326   -4.1530    0.0000 C   0  0  0  0  0  0  0  0  0  0  0  0
   -2.5318   -5.0541    0.0000 C   0  0  0  0  0  0  0  0  0  0  0  0
   -4.0124   -5.2947    0.0000 C   0  0  0  0  0  0  0  0  0  0  0  0
   -5.4352   -4.8197    0.0000 C   0  0  0  0  0  0  0  0  0  0  0  0
   -6.4743   -3.7379    0.0000 C   0  0  0  0  0  0  0  0  0  0  0  0
   -7.7733   -4.4879    0.0000 C   0  0  0  0  0  0  0  0  0  0  0  0
   -6.8916   -2.2971    0.0000 C   0  0  0  0  0  0  0  0  0  0  0  0
   -6.5916   -0.8275    0.0000 C   0  0  0  0  0  0  0  0  0  0  0  0
   -5.6429    0.3344    0.0000 C   0  0  0  0  0  0  0  0  0  0  0  0
   -6.5440    1.5336    0.0000 C   0  0  0  0  0  0  0  0  0  0  0  0
   -4.2629    0.9224    0.0000 N   0  0  0  0  0  0  0  0  0  0  0  0
   -2.7678    0.8017    0.0000 C   0  0  0  0  0  0  0  0  0  0  0  0
   -2.2928    2.2245    0.0000 C   0  0  0  0  0  0  0  0  0  0  0  0
   -0.8231    2.5245    0.0000 O   0  0  0  0  0  0  0  0  0  0  0  0
   -3.2875    3.3473    0.0000 N   0  0  0  0  0  0  0  0  0  0  0  0
   -3.1969    4.8445    0.0000 C   0  0  0  0  0  0  0  0  0  0  0  0
   -4.6942    4.9351    0.0000 C   0  0  0  0  0  0  0  0  0  0  0  0
   -4.7847    3.4378    0.0000 C   0  0  0  0  0  0  0  0  0  0  0  0
   -5.9075    2.4432    0.0000 O   0  0  0  0  0  0  0  0  0  0  0  0
   -1.5000    0.0000    0.0000 C   0  0  0  0  0  0  0  0  0  0  0  0
   -0.7500    1.2990    0.0000 C   0  0  0  0  0  0  0  0  0  0  0  0
    0.7500    1.2990    0.0000 C   0  0  0  0  0  0  0  0  0  0  0  0
  1  2  1  0
  2  3  2  0
  3  4  1  0
  4  5  1  0
  5  6  1  0
  6  7  1  0
  7  8  1  0
  8  9  1  0
  9 10  1  0
 10 11  1  0
 10 12  1  0
 12 13  1  0
 13 14  1  0
 14 15  1  0
 14 16  1  0
 16 17  1  0
 17 18  1  0
 18 19  2  0
 18 20  1  0
 20 21  1  0
 21 22  2  0
 22 23  1  0
 23 24  2  0
 17 25  1  0
 25 26  1  0
 26 27  1  0
 27  2  1  0
 25  4  1  0
 23 20  1  0
M  END
>  <Title>  (630) 
idAAWHgen6

$$$$

     RDKit          2D

  9  8  0  0  0  0  0  0  0  0999 V2000
    0.0000    0.0000    0.0000 C   0  0  0  0  0  0  0  0  0  0  0  0
    1.2990    0.7500    0.0000 C   0  0  0  0  0  0  0  0  0  0  0  0
    2.5981   -0.0000    0.0000 C   0  0  0  0  0  0  0  0  0  0  0  0
    3.8971    0.7500    0.0000 C   0  0  0  0  0  0  0  0  0  0  0  0
    2.5981   -1.5000    0.0000 C   0  0  0  0  0  0  0  0  0  0  0  0
    3.8971   -2.2500    0.0000 C   0  0  0  0  0  0  0  0  0  0  0  0
    5.1962   -3.0000    0.0000 C   0  0  0  0  0  0  0  0  0  0  0  0
    6.4952   -3.7500    0.0000 C   0  0  0  0  0  0  0  0  0  0  0  0
    7.7942   -4.5000    0.0000 N   0  0  0  0  0  0  0  0  0  0  0  0
  1  2  1  0
  2  3  1  0
  3  4  1  0
  3  5  1  0
  5  6  1  0
  6  7  3  0
  7  8  1  0
  8  9  3  0
M  END
>  <Title>  (631) 
idAAWIgen6

$$$$

     RDKit          2D

 11 12  0  0  0  0  0  0  0  0999 V2000
   -2.9520   -4.6564    0.0000 C   0  0  0  0  0  0  0  0  0  0  0  0
   -2.6401   -3.1891    0.0000 O   0  0  0  0  0  0  0  0  0  0  0  0
   -1.2135   -2.7256    0.0000 C   0  0  0  0  0  0  0  0  0  0  0  0
   -0.0000   -3.6073    0.0000 C   0  0  0  0  0  0  0  0  0  0  0  0
    1.2135   -2.7256    0.0000 C   0  0  0  0  0  0  0  0  0  0  0  0
    0.7500   -1.2990    0.0000 C   0  0  0  0  0  0  0  0  0  0  0  0
    1.5000    0.0000    0.0000 C   0  0  0  0  0  0  0  0  0  0  0  0
    0.7500    1.2990    0.0000 C   0  0  0  0  0  0  0  0  0  0  0  0
   -0.7500    1.2990    0.0000 C   0  0  0  0  0  0  0  0  0  0  0  0
   -1.5000    0.0000    0.0000 C   0  0  0  0  0  0  0  0  0  0  0  0
   -0.7500   -1.2990    0.0000 C   0  0  0  0  0  0  0  0  0  0  0  0
  1  2  1  0
  2  3  1  0
  3  4  1  0
  4  5  2  0
  5  6  1  0
  6  7  2  0
  7  8  1  0
  8  9  2  0
  9 10  1  0
 10 11  2  0
 11  3  1  0
 11  6  1  0
M  END
>  <Title>  (632) 
idAAWJgen6

$$$$

     RDKit          2D

  4  3  0  0  0  0  0  0  0  0999 V2000
    0.0000    0.0000    0.0000 C   0  0  0  0  0  0  0  0  0  0  0  0
   -0.0000   -1.5000    0.0000 C   0  0  0  0  0  0  0  0  0  0  0  0
   -0.0000   -3.0000    0.0000 C   0  0  0  0  0  0  0  0  0  0  0  0
   -0.0000   -4.5000    0.0000 C   0  0  0  0  0  0  0  0  0  0  0  0
  1  2  3  0
  2  3  1  0
  3  4  3  0
M  END
>  <Title>  (633) 
idAAWKgen6

$$$$

     RDKit          2D

 17 17  0  0  0  0  0  0  0  0999 V2000
    9.0000   -5.1962    0.0000 C   0  0  0  0  0  0  0  0  0  0  0  0
    8.2500   -3.8971    0.0000 C   0  0  0  0  0  0  0  0  0  0  0  0
    6.7500   -3.8971    0.0000 O   0  0  0  0  0  0  0  0  0  0  0  0
    9.0000   -2.5981    0.0000 C   0  0  0  0  0  0  0  0  0  0  0  0
   10.5000   -2.5981    0.0000 C   0  0  0  0  0  0  0  0  0  0  0  0
    8.2500   -1.2990    0.0000 C   0  0  0  0  0  0  0  0  0  0  0  0
    6.7500   -1.2990    0.0000 C   0  0  0  0  0  0  0  0  0  0  0  0
    5.2500   -1.2990    0.0000 C   0  0  0  0  0  0  0  0  0  0  0  0
    3.7500   -1.2990    0.0000 C   0  0  0  0  0  0  0  0  0  0  0  0
    3.0000   -2.5981    0.0000 O   0  0  0  0  0  0  0  0  0  0  0  0
    3.0000    0.0000    0.0000 N   0  0  0  0  0  0  0  0  0  0  0  0
    1.5000    0.0000    0.0000 C   0  0  0  0  0  0  0  0  0  0  0  0
    0.7500   -1.2990    0.0000 C   0  0  0  0  0  0  0  0  0  0  0  0
   -0.7500   -1.2990    0.0000 C   0  0  0  0  0  0  0  0  0  0  0  0
   -1.5000    0.0000    0.0000 C   0  0  0  0  0  0  0  0  0  0  0  0
   -0.7500    1.2990    0.0000 C   0  0  0  0  0  0  0  0  0  0  0  0
    0.7500    1.2990    0.0000 C   0  0  0  0  0  0  0  0  0  0  0  0
  1  2  1  0
  2  3  2  0
  2  4  1  0
  4  5  1  0
  4  6  2  3
  6  7  1  0
  7  8  3  0
  8  9  1  0
  9 10  2  0
  9 11  1  0
 11 12  1  0
 12 13  2  0
 13 14  1  0
 14 15  2  0
 15 16  1  0
 16 17  2  0
 17 12  1  0
M  END
>  <Title>  (634) 
idAAWLgen6

$$$$

     RDKit          2D

 13 12  0  0  0  0  0  0  0  0999 V2000
    0.0000    0.0000    0.0000 C   0  0  0  0  0  0  0  0  0  0  0  0
    1.2990    0.7500    0.0000 C   0  0  0  0  0  0  0  0  0  0  0  0
    2.5981   -0.0000    0.0000 C   0  0  0  0  0  0  0  0  0  0  0  0
    3.8971    0.7500    0.0000 C   0  0  0  0  0  0  0  0  0  0  0  0
    5.1962   -0.0000    0.0000 C   0  0  0  0  0  0  0  0  0  0  0  0
    6.4952    0.7500    0.0000 C   0  0  0  0  0  0  0  0  0  0  0  0
    7.7942   -0.0000    0.0000 C   0  0  0  0  0  0  0  0  0  0  0  0
    9.0933    0.7500    0.0000 C   0  0  0  0  0  0  0  0  0  0  0  0
   10.3923   -0.0000    0.0000 C   0  0  0  0  0  0  0  0  0  0  0  0
   11.6913    0.7500    0.0000 C   0  0  0  0  0  0  0  0  0  0  0  0
   12.9904   -0.0000    0.0000 C   0  0  0  0  0  0  0  0  0  0  0  0
   14.2894    0.7500    0.0000 C   0  0  0  0  0  0  0  0  0  0  0  0
   15.5885   -0.0000    0.0000 C   0  0  0  0  0  0  0  0  0  0  0  0
  1  2  1  0
  2  3  1  0
  3  4  1  0
  4  5  1  0
  5  6  1  0
  6  7  1  0
  7  8  1  0
  8  9  1  0
  9 10  1  0
 10 11  1  0
 11 12  1  0
 12 13  1  0
M  END
>  <Title>  (635) 
idAAWMgen6

$$$$

     RDKit          2D

 10 10  0  0  0  0  0  0  0  0999 V2000
    3.7500   -1.2990    0.0000 C   0  0  0  0  0  0  0  0  0  0  0  0
    3.0000    0.0000    0.0000 C   0  0  0  0  0  0  0  0  0  0  0  0
    1.5000    0.0000    0.0000 C   0  0  0  0  0  0  0  0  0  0  0  0
    0.7500   -1.2990    0.0000 N   0  0  0  0  0  0  0  0  0  0  0  0
   -0.7500   -1.2990    0.0000 C   0  0  0  0  0  0  0  0  0  0  0  0
   -1.5000   -2.5981    0.0000 C   0  0  0  0  0  0  0  0  0  0  0  0
   -1.5000    0.0000    0.0000 C   0  0  0  0  0  0  0  0  0  0  0  0
   -0.7500    1.2990    0.0000 C   0  0  0  0  0  0  0  0  0  0  0  0
   -1.5000    2.5981    0.0000 C   0  0  0  0  0  0  0  0  0  0  0  0
    0.7500    1.2990    0.0000 N   0  0  0  0  0  0  0  0  0  0  0  0
  1  2  1  0
  2  3  1  0
  3  4  2  0
  4  5  1  0
  5  6  1  0
  5  7  2  0
  7  8  1  0
  8  9  1  0
  8 10  2  0
 10  3  1  0
M  END
>  <Title>  (636) 
idAAWNgen6

$$$$

     RDKit          2D

 17 19  0  0  0  0  0  0  0  0999 V2000
    1.2990   -4.8481    0.0000 O   0  0  0  0  0  0  0  0  0  0  0  0
   -0.0000   -4.0981    0.0000 C   0  0  0  0  0  0  0  0  0  0  0  0
   -1.2990   -4.8481    0.0000 N   0  0  0  0  0  0  0  0  0  0  0  0
   -1.2990   -6.3481    0.0000 C   0  0  0  0  0  0  0  0  0  0  0  0
   -2.5981   -7.0981    0.0000 N   0  0  0  0  0  0  0  0  0  0  0  0
   -2.5981   -8.5981    0.0000 N   0  0  0  0  0  0  0  0  0  0  0  0
   -1.2990   -9.3481    0.0000 N   0  0  0  0  0  0  0  0  0  0  0  0
   -0.0000   -8.5981    0.0000 N   0  0  0  0  0  0  0  0  0  0  0  0
   -0.0000   -7.0981    0.0000 N   0  0  0  0  0  0  0  0  0  0  0  0
   -0.0000   -2.5981    0.0000 N   0  0  0  0  0  0  0  0  0  0  0  0
    0.7500   -1.2990    0.0000 C   0  0  0  0  0  0  0  0  0  0  0  0
    1.5000    0.0000    0.0000 C   0  0  0  0  0  0  0  0  0  0  0  0
    0.7500    1.2990    0.0000 C   0  0  0  0  0  0  0  0  0  0  0  0
   -0.7500    1.2990    0.0000 C   0  0  0  0  0  0  0  0  0  0  0  0
   -1.5000    2.5981    0.0000 O   0  0  0  0  0  0  0  0  0  0  0  0
   -1.5000    0.0000    0.0000 C   0  0  0  0  0  0  0  0  0  0  0  0
   -0.7500   -1.2990    0.0000 C   0  0  0  0  0  0  0  0  0  0  0  0
  1  2  2  0
  2  3  1  0
  3  4  1  0
  4  5  2  0
  5  6  1  0
  6  7  2  0
  7  8  1  0
  8  9  2  0
  2 10  1  0
 10 11  1  0
 11 12  2  0
 12 13  1  0
 13 14  2  0
 14 15  1  0
 14 16  1  0
 16 17  2  0
  9  4  1  0
 17 10  1  0
 17 11  1  0
M  END
>  <Title>  (637) 
idAAWOgen6

$$$$

     RDKit          2D

  7  7  0  0  0  0  0  0  0  0999 V2000
    3.5260   -1.2990    0.0000 C   0  0  0  0  0  0  0  0  0  0  0  0
    2.7760    0.0000    0.0000 O   0  0  0  0  0  0  0  0  0  0  0  0
    1.2760    0.0000    0.0000 C   0  0  0  0  0  0  0  0  0  0  0  0
    0.3943    1.2135    0.0000 C   0  0  0  0  0  0  0  0  0  0  0  0
   -1.0323    0.7500    0.0000 C   0  0  0  0  0  0  0  0  0  0  0  0
   -1.0323   -0.7500    0.0000 C   0  0  0  0  0  0  0  0  0  0  0  0
    0.3943   -1.2135    0.0000 C   0  0  0  0  0  0  0  0  0  0  0  0
  1  2  1  0
  2  3  1  0
  3  4  1  0
  4  5  2  0
  5  6  1  0
  6  7  1  0
  7  3  1  0
M  END
>  <Title>  (638) 
idAAWPgen6

$$$$

     RDKit          2D

  9  8  0  0  0  0  0  0  0  0999 V2000
    0.0000    0.0000    0.0000 C   0  0  0  0  0  0  0  0  0  0  0  0
    1.2990    0.7500    0.0000 C   0  0  0  0  0  0  0  0  0  0  0  0
    2.5981   -0.0000    0.0000 C   0  0  0  0  0  0  0  0  0  0  0  0
    3.8971    0.7500    0.0000 C   0  0  0  0  0  0  0  0  0  0  0  0
    5.1962   -0.0000    0.0000 C   0  0  0  0  0  0  0  0  0  0  0  0
    3.8971    2.2500    0.0000 C   0  0  0  0  0  0  0  0  0  0  0  0
    3.8971    3.7500    0.0000 C   0  0  0  0  0  0  0  0  0  0  0  0
    3.8971    5.2500    0.0000 C   0  0  0  0  0  0  0  0  0  0  0  0
    3.8971    6.7500    0.0000 N   0  0  0  0  0  0  0  0  0  0  0  0
  1  2  1  0
  2  3  1  0
  3  4  1  0
  4  5  1  0
  4  6  1  0
  6  7  3  0
  7  8  1  0
  8  9  3  0
M  END
>  <Title>  (639) 
idAAWQgen6

$$$$

     RDKit          2D

 12 12  0  0  0  0  0  0  0  0999 V2000
    4.2760   -5.1962    0.0000 C   0  0  0  0  0  0  0  0  0  0  0  0
    3.5260   -3.8971    0.0000 O   0  0  0  0  0  0  0  0  0  0  0  0
    4.2760   -2.5981    0.0000 C   0  0  0  0  0  0  0  0  0  0  0  0
    3.5260   -1.2990    0.0000 P   0  0  0  0  0  0  0  0  0  0  0  0
    4.8250   -0.5490    0.0000 O   0  0  0  0  0  0  0  0  0  0  0  0
    2.2269   -2.0490    0.0000 O   0  0  0  0  0  0  0  0  0  0  0  0
    2.7760    0.0000    0.0000 C   0  0  0  0  0  0  0  0  0  0  0  0
    1.2760    0.0000    0.0000 C   0  0  0  0  0  0  0  0  0  0  0  0
    0.3943    1.2135    0.0000 C   0  0  0  0  0  0  0  0  0  0  0  0
   -1.0323    0.7500    0.0000 C   0  0  0  0  0  0  0  0  0  0  0  0
   -1.0323   -0.7500    0.0000 C   0  0  0  0  0  0  0  0  0  0  0  0
    0.3943   -1.2135    0.0000 C   0  0  0  0  0  0  0  0  0  0  0  0
  1  2  1  0
  2  3  1  0
  3  4  1  0
  4  5  2  0
  4  6  1  0
  4  7  1  0
  7  8  1  0
  8  9  2  0
  9 10  1  0
 10 11  1  0
 11 12  2  0
 12  8  1  0
M  END
>  <Title>  (640) 
idAAWRgen6

$$$$

     RDKit          2D

 38 43  0  0  0  0  0  0  0  0999 V2000
   -3.1771   -5.9156    0.0000 C   0  0  0  0  0  0  0  0  0  0  0  0
   -1.9635   -5.0339    0.0000 C   0  0  0  0  0  0  0  0  0  0  0  0
   -0.7500   -5.9156    0.0000 C   0  0  0  0  0  0  0  0  0  0  0  0
    0.7500   -5.9156    0.0000 C   0  0  0  0  0  0  0  0  0  0  0  0
    1.9635   -5.0339    0.0000 C   0  0  0  0  0  0  0  0  0  0  0  0
    2.4271   -3.6073    0.0000 C   0  0  0  0  0  0  0  0  0  0  0  0
    1.9635   -2.1807    0.0000 C   0  0  0  0  0  0  0  0  0  0  0  0
    3.1771   -1.2990    0.0000 O   0  0  0  0  0  0  0  0  0  0  0  0
    4.5474   -1.9091    0.0000 C   0  0  0  0  0  0  0  0  0  0  0  0
    5.8464   -1.1591    0.0000 C   0  0  0  0  0  0  0  0  0  0  0  0
    6.9611   -2.1628    0.0000 C   0  0  0  0  0  0  0  0  0  0  0  0
    8.4529   -2.3196    0.0000 C   0  0  0  0  0  0  0  0  0  0  0  0
    8.7648   -3.7869    0.0000 C   0  0  0  0  0  0  0  0  0  0  0  0
   10.1351   -4.3970    0.0000 N   0  0  0  0  0  0  0  0  0  0  0  0
   10.2919   -5.8887    0.0000 C   0  0  0  0  0  0  0  0  0  0  0  0
    9.0784   -6.7704    0.0000 O   0  0  0  0  0  0  0  0  0  0  0  0
   11.6622   -6.4988    0.0000 C   0  0  0  0  0  0  0  0  0  0  0  0
   11.8190   -7.9906    0.0000 C   0  0  0  0  0  0  0  0  0  0  0  0
   10.6055   -8.8723    0.0000 C   0  0  0  0  0  0  0  0  0  0  0  0
   10.7623  -10.3641    0.0000 C   0  0  0  0  0  0  0  0  0  0  0  0
   12.1326  -10.9742    0.0000 C   0  0  0  0  0  0  0  0  0  0  0  0
   13.3461  -10.0925    0.0000 C   0  0  0  0  0  0  0  0  0  0  0  0
   13.1893   -8.6007    0.0000 C   0  0  0  0  0  0  0  0  0  0  0  0
    7.4657   -4.5369    0.0000 C   0  0  0  0  0  0  0  0  0  0  0  0
    6.3510   -3.5332    0.0000 C   0  0  0  0  0  0  0  0  0  0  0  0
    4.8592   -3.3764    0.0000 C   0  0  0  0  0  0  0  0  0  0  0  0
    0.7500   -1.2990    0.0000 C   0  0  0  0  0  0  0  0  0  0  0  0
    1.5000    0.0000    0.0000 C   0  0  0  0  0  0  0  0  0  0  0  0
    0.7500    1.2990    0.0000 C   0  0  0  0  0  0  0  0  0  0  0  0
   -0.7500    1.2990    0.0000 N   0  0  0  0  0  0  0  0  0  0  0  0
   -1.5000    0.0000    0.0000 C   0  0  0  0  0  0  0  0  0  0  0  0
   -0.7500   -1.2990    0.0000 C   0  0  0  0  0  0  0  0  0  0  0  0
   -1.9635   -2.1807    0.0000 C   0  0  0  0  0  0  0  0  0  0  0  0
   -2.9672   -1.0660    0.0000 C   0  0  0  0  0  0  0  0  0  0  0  0
   -4.4344   -1.3779    0.0000 C   0  0  0  0  0  0  0  0  0  0  0  0
   -4.8980   -2.8045    0.0000 C   0  0  0  0  0  0  0  0  0  0  0  0
   -3.8943   -3.9192    0.0000 C   0  0  0  0  0  0  0  0  0  0  0  0
   -2.4271   -3.6073    0.0000 C   0  0  0  0  0  0  0  0  0  0  0  0
  1  2  1  0
  2  3  1  0
  3  4  1  0
  4  5  1  0
  5  6  1  0
  6  7  1  0
  7  8  1  0
  8  9  1  0
  9 10  1  0
 10 11  1  0
 11 12  1  0
 12 13  1  0
 13 14  1  0
 14 15  1  0
 15 16  2  0
 15 17  1  0
 17 18  1  0
 18 19  2  0
 19 20  1  0
 20 21  2  0
 21 22  1  0
 22 23  2  0
 13 24  1  0
 24 25  1  0
 25 26  1  0
  7 27  1  0
 27 28  2  0
 28 29  1  0
 29 30  2  0
 30 31  1  0
 31 32  2  0
 32 33  1  0
 33 34  2  0
 34 35  1  0
 35 36  2  0
 36 37  1  0
 37 38  2  0
 38  2  1  0
 26  9  1  0
 32 27  1  0
 38 33  1  0
 25 11  1  0
 23 18  1  0
M  END
>  <Title>  (641) 
idAAWSgen6

$$$$

     RDKit          2D

 29 32  0  0  0  0  0  0  0  0999 V2000
   -2.6401   -3.1891    0.0000 C   0  0  0  0  0  0  0  0  0  0  0  0
   -1.2135   -2.7256    0.0000 C   0  0  0  0  0  0  0  0  0  0  0  0
   -0.0000   -3.6073    0.0000 C   0  0  0  0  0  0  0  0  0  0  0  0
    1.2135   -2.7256    0.0000 C   0  0  0  0  0  0  0  0  0  0  0  0
    2.6401   -3.1891    0.0000 O   0  0  0  0  0  0  0  0  0  0  0  0
    2.9520   -4.6564    0.0000 C   0  0  0  0  0  0  0  0  0  0  0  0
    4.3223   -5.2665    0.0000 C   0  0  0  0  0  0  0  0  0  0  0  0
    4.1655   -6.7583    0.0000 C   0  0  0  0  0  0  0  0  0  0  0  0
    2.6983   -7.0701    0.0000 C   0  0  0  0  0  0  0  0  0  0  0  0
    2.0882   -8.4404    0.0000 N   0  0  0  0  0  0  0  0  0  0  0  0
    0.5964   -8.5972    0.0000 C   0  0  0  0  0  0  0  0  0  0  0  0
   -0.2853   -7.3837    0.0000 O   0  0  0  0  0  0  0  0  0  0  0  0
   -0.0137   -9.9676    0.0000 N   0  0  0  0  0  0  0  0  0  0  0  0
   -1.5055  -10.1243    0.0000 C   0  0  0  0  0  0  0  0  0  0  0  0
   -2.3872   -8.9108    0.0000 N   0  0  0  0  0  0  0  0  0  0  0  0
   -3.8790   -9.0676    0.0000 N   0  0  0  0  0  0  0  0  0  0  0  0
   -4.4891  -10.4379    0.0000 N   0  0  0  0  0  0  0  0  0  0  0  0
   -3.6074  -11.6515    0.0000 N   0  0  0  0  0  0  0  0  0  0  0  0
   -2.1156  -11.4947    0.0000 N   0  0  0  0  0  0  0  0  0  0  0  0
    1.9483   -5.7711    0.0000 C   0  0  0  0  0  0  0  0  0  0  0  0
    0.4565   -5.6143    0.0000 O   0  0  0  0  0  0  0  0  0  0  0  0
    0.7500   -1.2990    0.0000 C   0  0  0  0  0  0  0  0  0  0  0  0
    1.5000    0.0000    0.0000 C   0  0  0  0  0  0  0  0  0  0  0  0
    0.7500    1.2990    0.0000 C   0  0  0  0  0  0  0  0  0  0  0  0
   -0.7500    1.2990    0.0000 C   0  0  0  0  0  0  0  0  0  0  0  0
   -1.5000    2.5981    0.0000 C   0  0  0  0  0  0  0  0  0  0  0  0
   -2.2500    3.8971    0.0000 N   0  0  0  0  0  0  0  0  0  0  0  0
   -1.5000    0.0000    0.0000 C   0  0  0  0  0  0  0  0  0  0  0  0
   -0.7500   -1.2990    0.0000 C   0  0  0  0  0  0  0  0  0  0  0  0
  1  2  1  0
  2  3  2  0
  3  4  1  0
  4  5  1  0
  5  6  1  0
  6  7  2  0
  7  8  1  0
  8  9  2  0
  9 10  1  0
 10 11  1  0
 11 12  2  0
 11 13  1  0
 13 14  1  0
 14 15  2  0
 15 16  1  0
 16 17  2  0
 17 18  1  0
 18 19  2  0
  9 20  1  0
 20 21  2  0
  4 22  1  0
 22 23  2  0
 23 24  1  0
 24 25  2  0
 25 26  1  0
 26 27  3  0
 25 28  1  0
 28 29  2  0
 29  2  1  0
 20  6  1  0
 29 22  1  0
 19 14  1  0
M  END
>  <Title>  (642) 
idAAWTgen6

$$$$

     RDKit          2D

 18 18  0  0  0  0  0  0  0  0999 V2000
    4.3191    0.0000    0.0000 C   0  0  0  0  0  0  0  0  0  0  0  0
    4.0586   -1.4772    0.0000 C   0  0  0  0  0  0  0  0  0  0  0  0
    3.3086   -2.7762    0.0000 C   0  0  0  0  0  0  0  0  0  0  0  0
    2.1595   -3.7404    0.0000 C   0  0  0  0  0  0  0  0  0  0  0  0
    0.7500   -4.2535    0.0000 C   0  0  0  0  0  0  0  0  0  0  0  0
   -0.7500   -4.2535    0.0000 C   0  0  0  0  0  0  0  0  0  0  0  0
   -2.1595   -3.7404    0.0000 C   0  0  0  0  0  0  0  0  0  0  0  0
   -3.3086   -2.7762    0.0000 C   0  0  0  0  0  0  0  0  0  0  0  0
   -4.0586   -1.4772    0.0000 C   0  0  0  0  0  0  0  0  0  0  0  0
   -4.3191    0.0000    0.0000 C   0  0  0  0  0  0  0  0  0  0  0  0
   -4.0586    1.4772    0.0000 C   0  0  0  0  0  0  0  0  0  0  0  0
   -3.3086    2.7762    0.0000 C   0  0  0  0  0  0  0  0  0  0  0  0
   -2.1595    3.7404    0.0000 C   0  0  0  0  0  0  0  0  0  0  0  0
   -0.7500    4.2535    0.0000 C   0  0  0  0  0  0  0  0  0  0  0  0
    0.7500    4.2535    0.0000 C   0  0  0  0  0  0  0  0  0  0  0  0
    2.1595    3.7404    0.0000 C   0  0  0  0  0  0  0  0  0  0  0  0
    3.3086    2.7762    0.0000 C   0  0  0  0  0  0  0  0  0  0  0  0
    4.0586    1.4772    0.0000 C   0  0  0  0  0  0  0  0  0  0  0  0
  1  2  1  0
  2  3  1  0
  3  4  1  0
  4  5  1  0
  5  6  1  0
  6  7  1  0
  7  8  1  0
  8  9  1  0
  9 10  1  0
 10 11  1  0
 11 12  1  0
 12 13  1  0
 13 14  1  0
 14 15  1  0
 15 16  1  0
 16 17  1  0
 17 18  1  0
 18  1  1  0
M  END
>  <Title>  (643) 
idAAWUgen6

$$$$

     RDKit          2D

 12 12  0  0  0  0  0  0  0  0999 V2000
    3.9271    0.0000    0.0000 C   0  0  0  0  0  0  0  0  0  0  0  0
    2.4271    0.0000    0.0000 C   0  0  0  0  0  0  0  0  0  0  0  0
    1.9635   -1.4266    0.0000 C   0  0  0  0  0  0  0  0  0  0  0  0
    0.7500   -2.3083    0.0000 C   0  0  0  0  0  0  0  0  0  0  0  0
   -0.7500   -2.3083    0.0000 C   0  0  0  0  0  0  0  0  0  0  0  0
   -1.9635   -1.4266    0.0000 C   0  0  0  0  0  0  0  0  0  0  0  0
   -2.4271    0.0000    0.0000 C   0  0  0  0  0  0  0  0  0  0  0  0
   -1.9635    1.4266    0.0000 C   0  0  0  0  0  0  0  0  0  0  0  0
   -0.7500    2.3083    0.0000 C   0  0  0  0  0  0  0  0  0  0  0  0
    0.7500    2.3083    0.0000 C   0  0  0  0  0  0  0  0  0  0  0  0
    1.9635    1.4266    0.0000 C   0  0  0  0  0  0  0  0  0  0  0  0
    3.1771    2.3083    0.0000 O   0  0  0  0  0  0  0  0  0  0  0  0
  1  2  1  0
  2  3  1  0
  3  4  2  0
  4  5  1  0
  5  6  2  0
  6  7  1  0
  7  8  2  0
  8  9  1  0
  9 10  2  0
 10 11  1  0
 11 12  2  0
 11  2  1  0
M  END
>  <Title>  (644) 
idAAWVgen6

$$$$

     RDKit          2D

  8  8  0  0  0  0  0  0  0  0999 V2000
    3.0000    0.0000    0.0000 C   0  0  0  0  0  0  0  0  0  0  0  0
    1.5000    0.0000    0.0000 C   0  0  0  0  0  0  0  0  0  0  0  0
    0.7500   -1.2990    0.0000 C   0  0  0  0  0  0  0  0  0  0  0  0
   -0.7500   -1.2990    0.0000 C   0  0  0  0  0  0  0  0  0  0  0  0
   -1.5000    0.0000    0.0000 C   0  0  0  0  0  0  0  0  0  0  0  0
   -3.0000    0.0000    0.0000 C   0  0  0  0  0  0  0  0  0  0  0  0
   -0.7500    1.2990    0.0000 C   0  0  0  0  0  0  0  0  0  0  0  0
    0.7500    1.2990    0.0000 C   0  0  0  0  0  0  0  0  0  0  0  0
  1  2  1  0
  2  3  1  0
  3  4  1  0
  4  5  1  0
  5  6  1  0
  5  7  1  0
  7  8  1  0
  8  2  1  0
M  END
>  <Title>  (645) 
idAAWWgen6

$$$$

     RDKit          2D

 17 17  0  0  0  0  0  0  0  0999 V2000
    3.0000   -7.7942    0.0000 C   0  0  0  0  0  0  0  0  0  0  0  0
    3.7500   -6.4952    0.0000 C   0  0  0  0  0  0  0  0  0  0  0  0
    5.2500   -6.4952    0.0000 O   0  0  0  0  0  0  0  0  0  0  0  0
    3.0000   -5.1962    0.0000 O   0  0  0  0  0  0  0  0  0  0  0  0
    3.7500   -3.8971    0.0000 C   0  0  0  0  0  0  0  0  0  0  0  0
    5.2500   -3.8971    0.0000 O   0  0  0  0  0  0  0  0  0  0  0  0
    3.0000   -2.5981    0.0000 C   0  0  0  0  0  0  0  0  0  0  0  0
    3.7500   -1.2990    0.0000 N   0  0  0  0  0  0  0  0  0  0  0  0
    5.2500   -1.2990    0.0000 C   0  0  0  0  0  0  0  0  0  0  0  0
    3.0000    0.0000    0.0000 C   0  0  0  0  0  0  0  0  0  0  0  0
    3.7500    1.2990    0.0000 O   0  0  0  0  0  0  0  0  0  0  0  0
    1.5000    0.0000    0.0000 C   0  0  0  0  0  0  0  0  0  0  0  0
    0.7500   -1.2990    0.0000 C   0  0  0  0  0  0  0  0  0  0  0  0
   -0.7500   -1.2990    0.0000 C   0  0  0  0  0  0  0  0  0  0  0  0
   -1.5000    0.0000    0.0000 C   0  0  0  0  0  0  0  0  0  0  0  0
   -0.7500    1.2990    0.0000 C   0  0  0  0  0  0  0  0  0  0  0  0
    0.7500    1.2990    0.0000 C   0  0  0  0  0  0  0  0  0  0  0  0
  1  2  1  0
  2  3  2  0
  2  4  1  0
  4  5  1  0
  5  6  2  0
  5  7  1  0
  7  8  1  0
  8  9  1  0
  8 10  1  0
 10 11  2  0
 10 12  1  0
 12 13  2  0
 13 14  1  0
 14 15  2  0
 15 16  1  0
 16 17  2  0
 17 12  1  0
M  END
>  <Title>  (646) 
idAAWXgen6

$$$$

     RDKit          2D

 21 23  0  0  0  0  0  0  0  0999 V2000
    3.0000    0.0000    0.0000 C   0  0  0  0  0  0  0  0  0  0  0  0
    1.5000    0.0000    0.0000 C   0  0  0  0  0  0  0  0  0  0  0  0
    0.7500   -1.2990    0.0000 C   0  0  0  0  0  0  0  0  0  0  0  0
   -0.7500   -1.2990    0.0000 C   0  0  0  0  0  0  0  0  0  0  0  0
   -1.5000    0.0000    0.0000 C   0  0  0  0  0  0  0  0  0  0  0  0
   -0.7500    1.2990    0.0000 C   0  0  0  0  0  0  0  0  0  0  0  0
    0.7500    1.2990    0.0000 C   0  0  0  0  0  0  0  0  0  0  0  0
   -1.5000    2.5981    0.0000 C   0  0  0  0  0  0  0  0  0  0  0  0
   -0.7500    3.8971    0.0000 C   0  0  0  0  0  0  0  0  0  0  0  0
   -3.0000    2.5981    0.0000 C   0  0  0  0  0  0  0  0  0  0  0  0
   -3.7500    1.2990    0.0000 C   0  0  0  0  0  0  0  0  0  0  0  0
   -3.0000    0.0000    0.0000 C   0  0  0  0  0  0  0  0  0  0  0  0
   -3.7500   -1.2990    0.0000 C   0  0  0  0  0  0  0  0  0  0  0  0
   -3.0000   -2.5981    0.0000 O   0  0  0  0  0  0  0  0  0  0  0  0
   -5.2500   -1.2990    0.0000 N   0  0  0  0  0  0  0  0  0  0  0  0
   -6.0000   -2.5981    0.0000 C   0  0  0  0  0  0  0  0  0  0  0  0
   -7.5000   -2.5981    0.0000 N   0  0  0  0  0  0  0  0  0  0  0  0
   -8.2500   -3.8971    0.0000 N   0  0  0  0  0  0  0  0  0  0  0  0
   -7.5000   -5.1962    0.0000 N   0  0  0  0  0  0  0  0  0  0  0  0
   -6.0000   -5.1962    0.0000 N   0  0  0  0  0  0  0  0  0  0  0  0
   -5.2500   -3.8971    0.0000 N   0  0  0  0  0  0  0  0  0  0  0  0
  1  2  1  0
  2  3  2  0
  3  4  1  0
  4  5  2  0
  5  6  1  0
  6  7  2  0
  6  8  1  0
  8  9  1  0
  8 10  1  0
 10 11  1  0
 11 12  1  0
 12 13  1  0
 13 14  2  0
 13 15  1  0
 15 16  1  0
 16 17  2  0
 17 18  1  0
 18 19  2  0
 19 20  1  0
 20 21  2  0
  7  2  1  0
 21 16  1  0
 12  5  1  0
M  END
>  <Title>  (647) 
idAAWYgen6

$$$$

     RDKit          2D

 33 37  0  0  0  0  0  0  0  0999 V2000
   -3.4300   -8.0397    0.0000 C   0  0  0  0  0  0  0  0  0  0  0  0
   -2.7490   -6.7032    0.0000 C   0  0  0  0  0  0  0  0  0  0  0  0
   -3.8097   -5.6425    0.0000 C   0  0  0  0  0  0  0  0  0  0  0  0
   -4.0443   -4.1610    0.0000 C   0  0  0  0  0  0  0  0  0  0  0  0
   -3.3634   -2.8245    0.0000 C   0  0  0  0  0  0  0  0  0  0  0  0
   -4.4240   -1.7638    0.0000 C   0  0  0  0  0  0  0  0  0  0  0  0
   -4.0358   -0.3150    0.0000 O   0  0  0  0  0  0  0  0  0  0  0  0
   -5.8729   -2.1521    0.0000 N   0  0  0  0  0  0  0  0  0  0  0  0
   -6.9336   -1.0914    0.0000 C   0  0  0  0  0  0  0  0  0  0  0  0
   -6.5453    0.3575    0.0000 N   0  0  0  0  0  0  0  0  0  0  0  0
   -7.6060    1.4181    0.0000 N   0  0  0  0  0  0  0  0  0  0  0  0
   -9.0549    1.0299    0.0000 N   0  0  0  0  0  0  0  0  0  0  0  0
   -9.4431   -0.4190    0.0000 N   0  0  0  0  0  0  0  0  0  0  0  0
   -8.3825   -1.4796    0.0000 N   0  0  0  0  0  0  0  0  0  0  0  0
   -1.8107   -2.3597    0.0000 C   0  0  0  0  0  0  0  0  0  0  0  0
   -1.8107   -3.8597    0.0000 C   0  0  0  0  0  0  0  0  0  0  0  0
   -0.7500   -4.9204    0.0000 C   0  0  0  0  0  0  0  0  0  0  0  0
    0.7500   -4.9204    0.0000 C   0  0  0  0  0  0  0  0  0  0  0  0
    1.8107   -3.8597    0.0000 C   0  0  0  0  0  0  0  0  0  0  0  0
    3.1965   -4.4337    0.0000 O   0  0  0  0  0  0  0  0  0  0  0  0
    1.8107   -2.3597    0.0000 N   0  0  0  0  0  0  0  0  0  0  0  0
    0.7500   -1.2990    0.0000 C   0  0  0  0  0  0  0  0  0  0  0  0
    1.5000    0.0000    0.0000 C   0  0  0  0  0  0  0  0  0  0  0  0
    0.7500    1.2990    0.0000 C   0  0  0  0  0  0  0  0  0  0  0  0
   -0.7500    1.2990    0.0000 C   0  0  0  0  0  0  0  0  0  0  0  0
   -1.5000    0.0000    0.0000 C   0  0  0  0  0  0  0  0  0  0  0  0
   -0.7500   -1.2990    0.0000 C   0  0  0  0  0  0  0  0  0  0  0  0
    0.0690   -6.2569    0.0000 C   0  0  0  0  0  0  0  0  0  0  0  0
    1.3270   -7.0738    0.0000 C   0  0  0  0  0  0  0  0  0  0  0  0
    1.2485   -8.5718    0.0000 C   0  0  0  0  0  0  0  0  0  0  0  0
   -0.0880   -9.2528    0.0000 C   0  0  0  0  0  0  0  0  0  0  0  0
   -1.3460   -8.4358    0.0000 C   0  0  0  0  0  0  0  0  0  0  0  0
   -1.2675   -6.9379    0.0000 C   0  0  0  0  0  0  0  0  0  0  0  0
  1  2  1  0
  2  3  1  0
  3  4  1  0
  4  5  1  0
  5  6  1  0
  6  7  2  0
  6  8  1  0
  8  9  1  0
  9 10  2  0
 10 11  1  0
 11 12  2  0
 12 13  1  0
 13 14  2  0
  5 15  1  0
 15 16  2  0
 16 17  1  0
 17 18  2  0
 18 19  1  0
 19 20  2  0
 19 21  1  0
 21 22  1  0
 22 23  2  0
 23 24  1  0
 24 25  2  0
 25 26  1  0
 26 27  2  0
 18 28  1  0
 28 29  2  0
 29 30  1  0
 30 31  2  0
 31 32  1  0
 32 33  2  0
 33  2  1  0
 14  9  1  0
 27 15  1  0
 33 28  1  0
 27 22  1  0
M  END
>  <Title>  (648) 
idAAWZgen6

$$$$

     RDKit          2D

  8  7  0  0  0  0  0  0  0  0999 V2000
    0.0000    0.0000    0.0000 C   0  0  0  0  0  0  0  0  0  0  0  0
    1.2990    0.7500    0.0000 C   0  0  0  0  0  0  0  0  0  0  0  0
    1.2990    2.2500    0.0000 O   0  0  0  0  0  0  0  0  0  0  0  0
    2.5981   -0.0000    0.0000 C   0  0  0  0  0  0  0  0  0  0  0  0
    3.3481    1.2990    0.0000 C   0  0  0  0  0  0  0  0  0  0  0  0
    1.8481   -1.2990    0.0000 C   0  0  0  0  0  0  0  0  0  0  0  0
    3.8971   -0.7500    0.0000 C   0  0  0  0  0  0  0  0  0  0  0  0
    5.1962   -1.5000    0.0000 N   0  0  0  0  0  0  0  0  0  0  0  0
  1  2  1  0
  2  3  2  0
  2  4  1  0
  4  5  1  0
  4  6  1  0
  4  7  1  0
  7  8  3  0
M  END
>  <Title>  (649) 
idAAXAgen6

$$$$

     RDKit          2D

 22 23  0  0  0  0  0  0  0  0999 V2000
    8.7990   -4.4462    0.0000 C   0  0  0  0  0  0  0  0  0  0  0  0
    7.5000   -5.1962    0.0000 C   0  0  0  0  0  0  0  0  0  0  0  0
    6.2010   -5.9462    0.0000 C   0  0  0  0  0  0  0  0  0  0  0  0
    8.2500   -6.4952    0.0000 C   0  0  0  0  0  0  0  0  0  0  0  0
    6.7500   -3.8971    0.0000 C   0  0  0  0  0  0  0  0  0  0  0  0
    6.0000   -2.5981    0.0000 C   0  0  0  0  0  0  0  0  0  0  0  0
    5.2500   -1.2990    0.0000 C   0  0  0  0  0  0  0  0  0  0  0  0
    3.7500   -1.2990    0.0000 C   0  0  0  0  0  0  0  0  0  0  0  0
    3.0000   -2.5981    0.0000 O   0  0  0  0  0  0  0  0  0  0  0  0
    3.0000    0.0000    0.0000 N   0  0  0  0  0  0  0  0  0  0  0  0
    1.5000    0.0000    0.0000 C   0  0  0  0  0  0  0  0  0  0  0  0
    0.7500   -1.2990    0.0000 N   0  0  0  0  0  0  0  0  0  0  0  0
   -0.7500   -1.2990    0.0000 N   0  0  0  0  0  0  0  0  0  0  0  0
   -1.5000    0.0000    0.0000 N   0  0  0  0  0  0  0  0  0  0  0  0
   -0.7500    1.2990    0.0000 N   0  0  0  0  0  0  0  0  0  0  0  0
   -1.5000    2.5981    0.0000 C   0  0  0  0  0  0  0  0  0  0  0  0
   -0.7500    3.8971    0.0000 C   0  0  0  0  0  0  0  0  0  0  0  0
   -1.5000    5.1962    0.0000 C   0  0  0  0  0  0  0  0  0  0  0  0
   -3.0000    5.1962    0.0000 C   0  0  0  0  0  0  0  0  0  0  0  0
   -3.7500    3.8971    0.0000 C   0  0  0  0  0  0  0  0  0  0  0  0
   -3.0000    2.5981    0.0000 C   0  0  0  0  0  0  0  0  0  0  0  0
    0.7500    1.2990    0.0000 C   0  0  0  0  0  0  0  0  0  0  0  0
  1  2  1  0
  2  3  1  0
  2  4  1  0
  2  5  1  0
  5  6  3  0
  6  7  1  0
  7  8  1  0
  8  9  2  0
  8 10  1  0
 10 11  1  0
 11 12  2  0
 12 13  1  0
 13 14  2  0
 14 15  1  0
 15 16  1  0
 16 17  2  0
 17 18  1  0
 18 19  2  0
 19 20  1  0
 20 21  2  0
 15 22  1  0
 22 11  1  0
 21 16  1  0
M  END
>  <Title>  (650) 
idAAXBgen6

$$$$

     RDKit          2D

 28 31  0  0  0  0  0  0  0  0999 V2000
   -1.3240   -6.3062    0.0000 C   0  0  0  0  0  0  0  0  0  0  0  0
   -0.7500   -4.9204    0.0000 C   0  0  0  0  0  0  0  0  0  0  0  0
    0.7500   -4.9204    0.0000 C   0  0  0  0  0  0  0  0  0  0  0  0
    1.8107   -3.8597    0.0000 C   0  0  0  0  0  0  0  0  0  0  0  0
    1.8107   -2.3597    0.0000 C   0  0  0  0  0  0  0  0  0  0  0  0
    3.1965   -1.7857    0.0000 C   0  0  0  0  0  0  0  0  0  0  0  0
    3.3923   -0.2985    0.0000 O   0  0  0  0  0  0  0  0  0  0  0  0
    4.3865   -2.6988    0.0000 N   0  0  0  0  0  0  0  0  0  0  0  0
    5.7723   -2.1248    0.0000 C   0  0  0  0  0  0  0  0  0  0  0  0
    6.9624   -3.0379    0.0000 N   0  0  0  0  0  0  0  0  0  0  0  0
    8.3482   -2.4639    0.0000 N   0  0  0  0  0  0  0  0  0  0  0  0
    8.5440   -0.9767    0.0000 N   0  0  0  0  0  0  0  0  0  0  0  0
    7.3539   -0.0636    0.0000 N   0  0  0  0  0  0  0  0  0  0  0  0
    5.9681   -0.6376    0.0000 N   0  0  0  0  0  0  0  0  0  0  0  0
    0.7500   -1.2990    0.0000 C   0  0  0  0  0  0  0  0  0  0  0  0
    1.5000    0.0000    0.0000 C   0  0  0  0  0  0  0  0  0  0  0  0
    0.7500    1.2990    0.0000 C   0  0  0  0  0  0  0  0  0  0  0  0
   -0.7500    1.2990    0.0000 C   0  0  0  0  0  0  0  0  0  0  0  0
   -1.5000    0.0000    0.0000 C   0  0  0  0  0  0  0  0  0  0  0  0
   -0.7500   -1.2990    0.0000 C   0  0  0  0  0  0  0  0  0  0  0  0
   -1.8107   -2.3597    0.0000 C   0  0  0  0  0  0  0  0  0  0  0  0
   -3.1097   -1.6097    0.0000 C   0  0  0  0  0  0  0  0  0  0  0  0
   -4.4087   -2.3597    0.0000 C   0  0  0  0  0  0  0  0  0  0  0  0
   -4.4087   -3.8597    0.0000 C   0  0  0  0  0  0  0  0  0  0  0  0
   -5.7078   -4.6097    0.0000 C   0  0  0  0  0  0  0  0  0  0  0  0
   -7.0068   -5.3597    0.0000 N   0  0  0  0  0  0  0  0  0  0  0  0
   -3.1097   -4.6097    0.0000 C   0  0  0  0  0  0  0  0  0  0  0  0
   -1.8107   -3.8597    0.0000 C   0  0  0  0  0  0  0  0  0  0  0  0
  1  2  1  0
  2  3  1  0
  3  4  1  0
  4  5  1  0
  5  6  1  0
  6  7  2  0
  6  8  1  0
  8  9  1  0
  9 10  2  0
 10 11  1  0
 11 12  2  0
 12 13  1  0
 13 14  2  0
  5 15  1  0
 15 16  2  0
 16 17  1  0
 17 18  2  0
 18 19  1  0
 19 20  2  0
 20 21  1  0
 21 22  2  0
 22 23  1  0
 23 24  2  0
 24 25  1  0
 25 26  3  0
 24 27  1  0
 27 28  2  0
 28  2  1  0
 14  9  1  0
 20 15  1  0
 28 21  1  0
M  END
>  <Title>  (651) 
idAAXCgen6

$$$$

     RDKit          2D

  7  7  0  0  0  0  0  0  0  0999 V2000
    3.0000    0.0000    0.0000 C   0  0  0  0  0  0  0  0  0  0  0  0
    1.5000    0.0000    0.0000 N   0  0  0  0  0  0  0  0  0  0  0  0
    0.7500   -1.2990    0.0000 C   0  0  0  0  0  0  0  0  0  0  0  0
   -0.7500   -1.2990    0.0000 C   0  0  0  0  0  0  0  0  0  0  0  0
   -1.5000    0.0000    0.0000 C   0  0  0  0  0  0  0  0  0  0  0  0
   -0.7500    1.2990    0.0000 C   0  0  0  0  0  0  0  0  0  0  0  0
    0.7500    1.2990    0.0000 C   0  0  0  0  0  0  0  0  0  0  0  0
  1  2  1  0
  2  3  1  0
  3  4  1  0
  4  5  1  0
  5  6  1  0
  6  7  1  0
  7  2  1  0
M  END
>  <Title>  (652) 
idAAXDgen6

$$$$

     RDKit          2D

  8  8  0  0  0  0  0  0  0  0999 V2000
    3.7500   -1.2990    0.0000 C   0  0  0  0  0  0  0  0  0  0  0  0
    3.0000    0.0000    0.0000 O   0  0  0  0  0  0  0  0  0  0  0  0
    1.5000    0.0000    0.0000 C   0  0  0  0  0  0  0  0  0  0  0  0
    0.7500   -1.2990    0.0000 C   0  0  0  0  0  0  0  0  0  0  0  0
   -0.7500   -1.2990    0.0000 C   0  0  0  0  0  0  0  0  0  0  0  0
   -1.5000    0.0000    0.0000 C   0  0  0  0  0  0  0  0  0  0  0  0
   -0.7500    1.2990    0.0000 C   0  0  0  0  0  0  0  0  0  0  0  0
    0.7500    1.2990    0.0000 C   0  0  0  0  0  0  0  0  0  0  0  0
  1  2  1  0
  2  3  1  0
  3  4  1  0
  4  5  2  0
  5  6  1  0
  6  7  1  0
  7  8  1  0
  8  3  1  0
M  END
>  <Title>  (653) 
idAAXEgen6

$$$$

     RDKit          2D

  8  8  0  0  0  0  0  0  0  0999 V2000
    3.2286   -0.0000    0.0000 C   0  0  0  0  0  0  0  0  0  0  0  0
    1.7286    0.0000    0.0000 C   0  0  0  0  0  0  0  0  0  0  0  0
    1.0777    1.3515    0.0000 C   0  0  0  0  0  0  0  0  0  0  0  0
   -0.3846    1.6852    0.0000 C   0  0  0  0  0  0  0  0  0  0  0  0
   -1.5574    0.7500    0.0000 C   0  0  0  0  0  0  0  0  0  0  0  0
   -1.5574   -0.7500    0.0000 C   0  0  0  0  0  0  0  0  0  0  0  0
   -0.3846   -1.6852    0.0000 C   0  0  0  0  0  0  0  0  0  0  0  0
    1.0777   -1.3515    0.0000 C   0  0  0  0  0  0  0  0  0  0  0  0
  1  2  1  0
  2  3  1  0
  3  4  1  0
  4  5  1  0
  5  6  2  0
  6  7  1  0
  7  8  1  0
  8  2  1  0
M  END
>  <Title>  (654) 
idAAXFgen6

$$$$

     RDKit          2D

 20 21  0  0  0  0  0  0  0  0999 V2000
    5.2500   -1.2990    0.0000 C   0  0  0  0  0  0  0  0  0  0  0  0
    3.7500   -1.2990    0.0000 C   0  0  0  0  0  0  0  0  0  0  0  0
    3.0000   -2.5981    0.0000 O   0  0  0  0  0  0  0  0  0  0  0  0
    3.0000    0.0000    0.0000 C   0  0  0  0  0  0  0  0  0  0  0  0
    3.7500    1.2990    0.0000 O   0  0  0  0  0  0  0  0  0  0  0  0
    1.5000    0.0000    0.0000 C   0  0  0  0  0  0  0  0  0  0  0  0
    0.7500   -1.2990    0.0000 C   0  0  0  0  0  0  0  0  0  0  0  0
   -0.7500   -1.2990    0.0000 C   0  0  0  0  0  0  0  0  0  0  0  0
   -1.5000    0.0000    0.0000 C   0  0  0  0  0  0  0  0  0  0  0  0
   -3.0000    0.0000    0.0000 C   0  0  0  0  0  0  0  0  0  0  0  0
   -3.7500   -1.2990    0.0000 O   0  0  0  0  0  0  0  0  0  0  0  0
   -3.7500    1.2990    0.0000 N   0  0  0  0  0  0  0  0  0  0  0  0
   -5.2500    1.2990    0.0000 C   0  0  0  0  0  0  0  0  0  0  0  0
   -6.0000    2.5981    0.0000 N   0  0  0  0  0  0  0  0  0  0  0  0
   -7.5000    2.5981    0.0000 N   0  0  0  0  0  0  0  0  0  0  0  0
   -8.2500    1.2990    0.0000 N   0  0  0  0  0  0  0  0  0  0  0  0
   -7.5000    0.0000    0.0000 N   0  0  0  0  0  0  0  0  0  0  0  0
   -6.0000    0.0000    0.0000 N   0  0  0  0  0  0  0  0  0  0  0  0
   -0.7500    1.2990    0.0000 C   0  0  0  0  0  0  0  0  0  0  0  0
    0.7500    1.2990    0.0000 C   0  0  0  0  0  0  0  0  0  0  0  0
  1  2  1  0
  2  3  2  0
  2  4  1  0
  4  5  2  0
  4  6  1  0
  6  7  1  0
  7  8  1  0
  8  9  1  0
  9 10  1  0
 10 11  2  0
 10 12  1  0
 12 13  1  0
 13 14  2  0
 14 15  1  0
 15 16  2  0
 16 17  1  0
 17 18  2  0
  9 19  1  0
 19 20  1  0
 20  6  1  0
 18 13  1  0
M  END
>  <Title>  (655) 
idAAXGgen6

$$$$

     RDKit          2D

 15 16  0  0  0  0  0  0  0  0999 V2000
    3.0000    0.0000    0.0000 C   0  0  0  0  0  0  0  0  0  0  0  0
    1.5000    0.0000    0.0000 C   0  0  0  0  0  0  0  0  0  0  0  0
    0.7500   -1.2990    0.0000 C   0  0  0  0  0  0  0  0  0  0  0  0
   -0.7500   -1.2990    0.0000 C   0  0  0  0  0  0  0  0  0  0  0  0
   -1.5000    0.0000    0.0000 C   0  0  0  0  0  0  0  0  0  0  0  0
   -3.0000    0.0000    0.0000 C   0  0  0  0  0  0  0  0  0  0  0  0
   -3.7500   -1.2990    0.0000 O   0  0  0  0  0  0  0  0  0  0  0  0
   -3.7500    1.2990    0.0000 N   0  0  0  0  0  0  0  0  0  0  0  0
   -5.2500    1.2990    0.0000 C   0  0  0  0  0  0  0  0  0  0  0  0
   -6.1317    0.0855    0.0000 N   0  0  0  0  0  0  0  0  0  0  0  0
   -7.5583    0.5490    0.0000 N   0  0  0  0  0  0  0  0  0  0  0  0
   -7.5583    2.0490    0.0000 N   0  0  0  0  0  0  0  0  0  0  0  0
   -6.1317    2.5126    0.0000 N   0  0  0  0  0  0  0  0  0  0  0  0
   -0.7500    1.2990    0.0000 C   0  0  0  0  0  0  0  0  0  0  0  0
    0.7500    1.2990    0.0000 C   0  0  0  0  0  0  0  0  0  0  0  0
  1  2  1  0
  2  3  2  0
  3  4  1  0
  4  5  2  0
  5  6  1  0
  6  7  2  0
  6  8  1  0
  8  9  1  0
  9 10  2  0
 10 11  1  0
 11 12  2  0
 12 13  1  0
  5 14  1  0
 14 15  1  0
 15  2  1  0
 13  9  1  0
M  END
>  <Title>  (656) 
idAAXHgen6

$$$$

     RDKit          2D

 10  9  0  0  0  0  0  0  0  0999 V2000
    0.0000    0.0000    0.0000 C   0  0  0  0  0  0  0  0  0  0  0  0
    1.2990    0.7500    0.0000 C   0  0  0  0  0  0  0  0  0  0  0  0
    1.2990    2.2500    0.0000 O   0  0  0  0  0  0  0  0  0  0  0  0
    2.5981   -0.0000    0.0000 C   0  0  0  0  0  0  0  0  0  0  0  0
    3.8971    0.7500    0.0000 C   0  0  0  0  0  0  0  0  0  0  0  0
    3.8971    2.2500    0.0000 O   0  0  0  0  0  0  0  0  0  0  0  0
    5.1962   -0.0000    0.0000 O   0  0  0  0  0  0  0  0  0  0  0  0
    2.5981   -1.5000    0.0000 C   0  0  0  0  0  0  0  0  0  0  0  0
    1.2990   -2.2500    0.0000 O   0  0  0  0  0  0  0  0  0  0  0  0
    3.8971   -2.2500    0.0000 O   0  0  0  0  0  0  0  0  0  0  0  0
  1  2  1  0
  2  3  2  0
  2  4  1  0
  4  5  1  0
  5  6  2  0
  5  7  1  0
  4  8  1  0
  8  9  2  0
  8 10  1  0
M  END
>  <Title>  (657) 
idAAXIgen6

$$$$

     RDKit          2D

  9  9  0  0  0  0  0  0  0  0999 V2000
    3.7500   -1.2990    0.0000 C   0  0  0  0  0  0  0  0  0  0  0  0
    3.0000    0.0000    0.0000 O   0  0  0  0  0  0  0  0  0  0  0  0
    1.5000    0.0000    0.0000 C   0  0  0  0  0  0  0  0  0  0  0  0
    0.7500   -1.2990    0.0000 C   0  0  0  0  0  0  0  0  0  0  0  0
   -0.7500   -1.2990    0.0000 C   0  0  0  0  0  0  0  0  0  0  0  0
   -1.5000    0.0000    0.0000 C   0  0  0  0  0  0  0  0  0  0  0  0
   -3.0000    0.0000    0.0000 O   0  0  0  0  0  0  0  0  0  0  0  0
   -0.7500    1.2990    0.0000 C   0  0  0  0  0  0  0  0  0  0  0  0
    0.7500    1.2990    0.0000 C   0  0  0  0  0  0  0  0  0  0  0  0
  1  2  1  0
  2  3  1  0
  3  4  2  0
  4  5  1  0
  5  6  2  0
  6  7  1  0
  6  8  1  0
  8  9  2  0
  9  3  1  0
M  END
>  <Title>  (658) 
idAAXJgen6

$$$$

     RDKit          2D

 32 35  0  0  0  0  0  0  0  0999 V2000
    3.0000    0.0000    0.0000 C   0  0  0  0  0  0  0  0  0  0  0  0
    1.5000    0.0000    0.0000 C   0  0  0  0  0  0  0  0  0  0  0  0
    0.7500   -1.2990    0.0000 C   0  0  0  0  0  0  0  0  0  0  0  0
   -0.7500   -1.2990    0.0000 C   0  0  0  0  0  0  0  0  0  0  0  0
   -1.5000    0.0000    0.0000 C   0  0  0  0  0  0  0  0  0  0  0  0
   -0.7500    1.2990    0.0000 C   0  0  0  0  0  0  0  0  0  0  0  0
    0.7500    1.2990    0.0000 C   0  0  0  0  0  0  0  0  0  0  0  0
   -0.6379    2.7948    0.0000 C   0  0  0  0  0  0  0  0  0  0  0  0
    0.8453    3.0184    0.0000 C   0  0  0  0  0  0  0  0  0  0  0  0
   -1.1859    4.1912    0.0000 C   0  0  0  0  0  0  0  0  0  0  0  0
   -2.2855    5.2114    0.0000 C   0  0  0  0  0  0  0  0  0  0  0  0
   -3.7189    5.6535    0.0000 C   0  0  0  0  0  0  0  0  0  0  0  0
   -5.2021    5.4300    0.0000 C   0  0  0  0  0  0  0  0  0  0  0  0
   -6.4415    4.5850    0.0000 C   0  0  0  0  0  0  0  0  0  0  0  0
   -7.1915    3.2860    0.0000 C   0  0  0  0  0  0  0  0  0  0  0  0
   -7.3036    1.7902    0.0000 C   0  0  0  0  0  0  0  0  0  0  0  0
   -6.7555    0.3938    0.0000 C   0  0  0  0  0  0  0  0  0  0  0  0
   -5.6560   -0.6264    0.0000 C   0  0  0  0  0  0  0  0  0  0  0  0
   -4.2226   -1.0685    0.0000 N   0  0  0  0  0  0  0  0  0  0  0  0
   -2.7394   -0.8450    0.0000 C   0  0  0  0  0  0  0  0  0  0  0  0
   -2.1913   -2.2413    0.0000 N   0  0  0  0  0  0  0  0  0  0  0  0
   -0.7396   -2.6187    0.0000 C   0  0  0  0  0  0  0  0  0  0  0  0
   -0.6499   -4.1160    0.0000 C   0  0  0  0  0  0  0  0  0  0  0  0
   -2.0462   -4.6640    0.0000 C   0  0  0  0  0  0  0  0  0  0  0  0
   -2.4236   -6.1157    0.0000 N   0  0  0  0  0  0  0  0  0  0  0  0
   -3.8695   -6.5148    0.0000 C   0  0  0  0  0  0  0  0  0  0  0  0
   -4.2469   -7.9666    0.0000 C   0  0  0  0  0  0  0  0  0  0  0  0
   -3.1783   -9.0193    0.0000 C   0  0  0  0  0  0  0  0  0  0  0  0
   -1.7324   -8.6202    0.0000 C   0  0  0  0  0  0  0  0  0  0  0  0
   -1.3550   -7.1684    0.0000 C   0  0  0  0  0  0  0  0  0  0  0  0
   -2.9989   -3.5054    0.0000 C   0  0  0  0  0  0  0  0  0  0  0  0
   -4.4962   -3.5951    0.0000 O   0  0  0  0  0  0  0  0  0  0  0  0
  1  2  1  0
  2  3  2  0
  3  4  1  0
  4  5  2  0
  5  6  1  0
  6  7  2  0
  6  8  1  0
  8  9  1  0
  8 10  1  0
 10 11  2  0
 11 12  1  0
 12 13  2  0
 13 14  1  0
 14 15  2  0
 15 16  1  0
 16 17  2  0
 17 18  1  0
 18 19  1  0
 19 20  1  0
 20 21  1  0
 21 22  1  0
 22 23  1  0
 23 24  1  0
 24 25  1  0
 25 26  1  0
 26 27  2  0
 27 28  1  0
 28 29  2  0
 29 30  1  0
 24 31  1  0
 31 32  2  0
  7  2  1  0
 31 21  1  0
 20  5  1  0
 30 25  1  0
M  END
>  <Title>  (659) 
idAAXKgen6

$$$$

     RDKit          2D

  7  6  0  0  0  0  0  0  0  0999 V2000
    0.0000    0.0000    0.0000 C   0  0  0  0  0  0  0  0  0  0  0  0
    1.2990    0.7500    0.0000 C   0  0  0  0  0  0  0  0  0  0  0  0
    2.5981   -0.0000    0.0000 C   0  0  0  0  0  0  0  0  0  0  0  0
    3.8971    0.7500    0.0000 C   0  0  0  0  0  0  0  0  0  0  0  0
    5.1962    1.5000    0.0000 C   0  0  0  0  0  0  0  0  0  0  0  0
    6.4952    2.2500    0.0000 C   0  0  0  0  0  0  0  0  0  0  0  0
    7.7942    3.0000    0.0000 N   0  0  0  0  0  0  0  0  0  0  0  0
  1  2  2  0
  2  3  1  0
  3  4  1  0
  4  5  3  0
  5  6  1  0
  6  7  3  0
M  END
>  <Title>  (660) 
idAAXLgen6

$$$$

     RDKit          2D

 35 39  0  0  0  0  0  0  0  0999 V2000
    2.1535   -8.4451    0.0000 C   0  0  0  0  0  0  0  0  0  0  0  0
    1.4564   -7.1169    0.0000 C   0  0  0  0  0  0  0  0  0  0  0  0
    2.5792   -6.1222    0.0000 C   0  0  0  0  0  0  0  0  0  0  0  0
    3.1111   -4.7197    0.0000 C   0  0  0  0  0  0  0  0  0  0  0  0
    2.9303   -3.2306    0.0000 C   0  0  0  0  0  0  0  0  0  0  0  0
    2.0782   -1.9961    0.0000 C   0  0  0  0  0  0  0  0  0  0  0  0
    3.0729   -0.8734    0.0000 C   0  0  0  0  0  0  0  0  0  0  0  0
    2.5979    0.5494    0.0000 O   0  0  0  0  0  0  0  0  0  0  0  0
    4.5426   -1.1734    0.0000 N   0  0  0  0  0  0  0  0  0  0  0  0
    5.5372   -0.0506    0.0000 C   0  0  0  0  0  0  0  0  0  0  0  0
    7.0069   -0.3507    0.0000 N   0  0  0  0  0  0  0  0  0  0  0  0
    8.0016    0.7721    0.0000 N   0  0  0  0  0  0  0  0  0  0  0  0
    7.5266    2.1949    0.0000 N   0  0  0  0  0  0  0  0  0  0  0  0
    6.0569    2.4949    0.0000 N   0  0  0  0  0  0  0  0  0  0  0  0
    5.0622    1.3722    0.0000 N   0  0  0  0  0  0  0  0  0  0  0  0
    0.7500   -1.2990    0.0000 C   0  0  0  0  0  0  0  0  0  0  0  0
    1.5000    0.0000    0.0000 C   0  0  0  0  0  0  0  0  0  0  0  0
    0.7500    1.2990    0.0000 C   0  0  0  0  0  0  0  0  0  0  0  0
   -0.7500    1.2990    0.0000 C   0  0  0  0  0  0  0  0  0  0  0  0
   -1.5000    0.0000    0.0000 C   0  0  0  0  0  0  0  0  0  0  0  0
   -0.7500   -1.2990    0.0000 C   0  0  0  0  0  0  0  0  0  0  0  0
   -2.0782   -1.9961    0.0000 C   0  0  0  0  0  0  0  0  0  0  0  0
   -2.9303   -3.2306    0.0000 C   0  0  0  0  0  0  0  0  0  0  0  0
   -3.1111   -4.7197    0.0000 C   0  0  0  0  0  0  0  0  0  0  0  0
   -4.5917   -4.4790    0.0000 C   0  0  0  0  0  0  0  0  0  0  0  0
   -5.5403   -5.6410    0.0000 C   0  0  0  0  0  0  0  0  0  0  0  0
   -5.0084   -7.0435    0.0000 C   0  0  0  0  0  0  0  0  0  0  0  0
   -3.5278   -7.2841    0.0000 C   0  0  0  0  0  0  0  0  0  0  0  0
   -2.5792   -6.1222    0.0000 C   0  0  0  0  0  0  0  0  0  0  0  0
   -1.4564   -7.1169    0.0000 C   0  0  0  0  0  0  0  0  0  0  0  0
   -2.4955   -8.1987    0.0000 C   0  0  0  0  0  0  0  0  0  0  0  0
   -2.0782   -9.6395    0.0000 C   0  0  0  0  0  0  0  0  0  0  0  0
   -0.6218   -9.9984    0.0000 C   0  0  0  0  0  0  0  0  0  0  0  0
    0.4173   -8.9166    0.0000 C   0  0  0  0  0  0  0  0  0  0  0  0
   -0.0000   -7.4758    0.0000 C   0  0  0  0  0  0  0  0  0  0  0  0
  1  2  1  0
  2  3  1  0
  3  4  1  0
  4  5  1  0
  5  6  1  0
  6  7  1  0
  7  8  2  0
  7  9  1  0
  9 10  1  0
 10 11  2  0
 11 12  1  0
 12 13  2  0
 13 14  1  0
 14 15  2  0
  6 16  1  0
 16 17  2  0
 17 18  1  0
 18 19  2  0
 19 20  1  0
 20 21  2  0
 21 22  1  0
 22 23  1  0
 23 24  1  0
 24 25  2  0
 25 26  1  0
 26 27  2  0
 27 28  1  0
 28 29  2  0
 29 30  1  0
 30 31  2  0
 31 32  1  0
 32 33  2  0
 33 34  1  0
 34 35  2  0
 35  2  1  0
 15 10  1  0
 21 16  1  0
 29 24  1  0
 35 30  1  0
M  END
>  <Title>  (661) 
idAAXMgen6

$$$$

     RDKit          2D

 50 57  0  0  0  0  0  0  0  0999 V2000
   -1.8373   -5.6601    0.0000 O   0  0  0  0  0  0  0  0  0  0  0  0
   -2.9520   -4.6564    0.0000 C   0  0  0  0  0  0  0  0  0  0  0  0
   -4.3786   -5.1199    0.0000 N   0  0  0  0  0  0  0  0  0  0  0  0
   -4.6904   -6.5871    0.0000 C   0  0  0  0  0  0  0  0  0  0  0  0
   -3.6867   -7.7018    0.0000 N   0  0  0  0  0  0  0  0  0  0  0  0
   -4.4367   -9.0009    0.0000 N   0  0  0  0  0  0  0  0  0  0  0  0
   -5.9040   -8.6890    0.0000 N   0  0  0  0  0  0  0  0  0  0  0  0
   -6.0607   -7.1972    0.0000 N   0  0  0  0  0  0  0  0  0  0  0  0
   -7.3598   -6.4472    0.0000 N   0  0  0  0  0  0  0  0  0  0  0  0
   -7.3598   -4.9472    0.0000 C   0  0  0  0  0  0  0  0  0  0  0  0
   -8.6588   -4.1972    0.0000 C   0  0  0  0  0  0  0  0  0  0  0  0
   -9.9579   -4.9472    0.0000 C   0  0  0  0  0  0  0  0  0  0  0  0
  -11.2569   -4.1972    0.0000 N   0  0  0  0  0  0  0  0  0  0  0  0
  -12.6272   -4.8073    0.0000 C   0  0  0  0  0  0  0  0  0  0  0  0
  -13.6309   -3.6926    0.0000 C   0  0  0  0  0  0  0  0  0  0  0  0
  -12.8809   -2.3936    0.0000 C   0  0  0  0  0  0  0  0  0  0  0  0
  -13.4910   -1.0233    0.0000 C   0  0  0  0  0  0  0  0  0  0  0  0
  -12.6093    0.1903    0.0000 C   0  0  0  0  0  0  0  0  0  0  0  0
  -13.2194    1.5606    0.0000 C   0  0  0  0  0  0  0  0  0  0  0  0
  -14.7112    1.7174    0.0000 C   0  0  0  0  0  0  0  0  0  0  0  0
  -15.5929    0.5039    0.0000 C   0  0  0  0  0  0  0  0  0  0  0  0
  -14.9828   -0.8665    0.0000 C   0  0  0  0  0  0  0  0  0  0  0  0
  -11.4137   -2.7054    0.0000 C   0  0  0  0  0  0  0  0  0  0  0  0
   -9.9579   -6.4472    0.0000 C   0  0  0  0  0  0  0  0  0  0  0  0
   -8.6588   -7.1972    0.0000 C   0  0  0  0  0  0  0  0  0  0  0  0
   -2.6401   -3.1891    0.0000 C   0  0  0  0  0  0  0  0  0  0  0  0
   -3.7548   -2.1855    0.0000 O   0  0  0  0  0  0  0  0  0  0  0  0
   -1.2135   -2.7256    0.0000 N   0  0  0  0  0  0  0  0  0  0  0  0
   -0.0000   -3.6073    0.0000 C   0  0  0  0  0  0  0  0  0  0  0  0
    1.2135   -2.7256    0.0000 C   0  0  0  0  0  0  0  0  0  0  0  0
    2.6401   -3.1891    0.0000 C   0  0  0  0  0  0  0  0  0  0  0  0
    3.7548   -2.1855    0.0000 O   0  0  0  0  0  0  0  0  0  0  0  0
    2.9520   -4.6564    0.0000 N   0  0  0  0  0  0  0  0  0  0  0  0
    1.8373   -5.6601    0.0000 C   0  0  0  0  0  0  0  0  0  0  0  0
    2.1491   -7.1273    0.0000 C   0  0  0  0  0  0  0  0  0  0  0  0
    3.5757   -7.5908    0.0000 C   0  0  0  0  0  0  0  0  0  0  0  0
    3.8876   -9.0580    0.0000 C   0  0  0  0  0  0  0  0  0  0  0  0
    2.7729  -10.0617    0.0000 C   0  0  0  0  0  0  0  0  0  0  0  0
    3.0847  -11.5290    0.0000 C   0  0  0  0  0  0  0  0  0  0  0  0
    4.5113  -11.9925    0.0000 C   0  0  0  0  0  0  0  0  0  0  0  0
    5.6260  -10.9888    0.0000 C   0  0  0  0  0  0  0  0  0  0  0  0
    5.3142   -9.5216    0.0000 C   0  0  0  0  0  0  0  0  0  0  0  0
    4.6904   -6.5871    0.0000 C   0  0  0  0  0  0  0  0  0  0  0  0
    4.3786   -5.1199    0.0000 C   0  0  0  0  0  0  0  0  0  0  0  0
    0.7500   -1.2990    0.0000 C   0  0  0  0  0  0  0  0  0  0  0  0
    1.5000    0.0000    0.0000 C   0  0  0  0  0  0  0  0  0  0  0  0
    0.7500    1.2990    0.0000 C   0  0  0  0  0  0  0  0  0  0  0  0
   -0.7500    1.2990    0.0000 C   0  0  0  0  0  0  0  0  0  0  0  0
   -1.5000    0.0000    0.0000 C   0  0  0  0  0  0  0  0  0  0  0  0
   -0.7500   -1.2990    0.0000 C   0  0  0  0  0  0  0  0  0  0  0  0
  1  2  2  0
  2  3  1  0
  3  4  1  0
  4  5  2  0
  5  6  1  0
  6  7  2  0
  7  8  1  0
  8  9  1  0
  9 10  1  0
 10 11  1  0
 11 12  1  0
 12 13  1  0
 13 14  1  0
 14 15  1  0
 15 16  1  0
 16 17  1  0
 17 18  2  0
 18 19  1  0
 19 20  2  0
 20 21  1  0
 21 22  2  0
 16 23  1  0
 12 24  1  0
 24 25  1  0
  2 26  1  0
 26 27  2  0
 26 28  1  0
 28 29  1  0
 29 30  2  0
 30 31  1  0
 31 32  2  0
 31 33  1  0
 33 34  1  0
 34 35  1  0
 35 36  1  0
 36 37  1  0
 37 38  2  0
 38 39  1  0
 39 40  2  0
 40 41  1  0
 41 42  2  0
 36 43  1  0
 43 44  1  0
 30 45  1  0
 45 46  2  0
 46 47  1  0
 47 48  2  0
 48 49  1  0
 49 50  2  0
  8  4  1  0
 25  9  1  0
 50 28  1  0
 23 13  1  0
 44 33  1  0
 50 45  1  0
 22 17  1  0
 42 37  1  0
M  END
>  <Title>  (662) 
idAAXNgen6

$$$$

     RDKit          2D

 23 25  0  0  0  0  0  0  0  0999 V2000
   -3.1981   -1.5132    0.0000 C   0  0  0  0  0  0  0  0  0  0  0  0
   -1.8991   -2.2632    0.0000 C   0  0  0  0  0  0  0  0  0  0  0  0
   -2.1595   -3.7404    0.0000 C   0  0  0  0  0  0  0  0  0  0  0  0
   -1.4095   -5.0395    0.0000 C   0  0  0  0  0  0  0  0  0  0  0  0
   -0.0000   -5.5525    0.0000 C   0  0  0  0  0  0  0  0  0  0  0  0
    1.4095   -5.0395    0.0000 C   0  0  0  0  0  0  0  0  0  0  0  0
    2.1595   -3.7404    0.0000 C   0  0  0  0  0  0  0  0  0  0  0  0
    1.8991   -2.2632    0.0000 C   0  0  0  0  0  0  0  0  0  0  0  0
    3.1981   -1.5132    0.0000 C   0  0  0  0  0  0  0  0  0  0  0  0
    3.1981   -0.0132    0.0000 O   0  0  0  0  0  0  0  0  0  0  0  0
    4.4971   -2.2632    0.0000 N   0  0  0  0  0  0  0  0  0  0  0  0
    5.7962   -1.5132    0.0000 C   0  0  0  0  0  0  0  0  0  0  0  0
    7.0952   -2.2632    0.0000 N   0  0  0  0  0  0  0  0  0  0  0  0
    8.3943   -1.5132    0.0000 N   0  0  0  0  0  0  0  0  0  0  0  0
    8.3943   -0.0132    0.0000 N   0  0  0  0  0  0  0  0  0  0  0  0
    7.0952    0.7368    0.0000 N   0  0  0  0  0  0  0  0  0  0  0  0
    5.7962   -0.0132    0.0000 N   0  0  0  0  0  0  0  0  0  0  0  0
    0.7500   -1.2990    0.0000 C   0  0  0  0  0  0  0  0  0  0  0  0
    1.5000    0.0000    0.0000 C   0  0  0  0  0  0  0  0  0  0  0  0
    0.7500    1.2990    0.0000 C   0  0  0  0  0  0  0  0  0  0  0  0
   -0.7500    1.2990    0.0000 C   0  0  0  0  0  0  0  0  0  0  0  0
   -1.5000    0.0000    0.0000 C   0  0  0  0  0  0  0  0  0  0  0  0
   -0.7500   -1.2990    0.0000 C   0  0  0  0  0  0  0  0  0  0  0  0
  1  2  1  0
  2  3  1  0
  3  4  2  0
  4  5  1  0
  5  6  2  0
  6  7  1  0
  7  8  2  0
  8  9  1  0
  9 10  2  0
  9 11  1  0
 11 12  1  0
 12 13  2  0
 13 14  1  0
 14 15  2  0
 15 16  1  0
 16 17  2  0
  8 18  1  0
 18 19  2  0
 19 20  1  0
 20 21  2  0
 21 22  1  0
 22 23  2  0
 23  2  1  0
 17 12  1  0
 23 18  1  0
M  END
>  <Title>  (663) 
idAAXOgen6

$$$$

     RDKit          2D

 38 42  0  0  0  0  0  0  0  0999 V2000
   -3.1965   -1.7857    0.0000 C   0  0  0  0  0  0  0  0  0  0  0  0
   -1.8107   -2.3597    0.0000 C   0  0  0  0  0  0  0  0  0  0  0  0
   -1.8107   -3.8597    0.0000 C   0  0  0  0  0  0  0  0  0  0  0  0
   -0.7500   -4.9204    0.0000 C   0  0  0  0  0  0  0  0  0  0  0  0
    0.7500   -4.9204    0.0000 C   0  0  0  0  0  0  0  0  0  0  0  0
    1.3240   -6.3062    0.0000 C   0  0  0  0  0  0  0  0  0  0  0  0
    2.8112   -6.5020    0.0000 O   0  0  0  0  0  0  0  0  0  0  0  0
    0.4109   -7.4962    0.0000 N   0  0  0  0  0  0  0  0  0  0  0  0
    0.9849   -8.8820    0.0000 C   0  0  0  0  0  0  0  0  0  0  0  0
    2.4435   -9.2322    0.0000 N   0  0  0  0  0  0  0  0  0  0  0  0
    2.5612  -10.7276    0.0000 N   0  0  0  0  0  0  0  0  0  0  0  0
    1.1753  -11.3016    0.0000 N   0  0  0  0  0  0  0  0  0  0  0  0
    0.2012  -10.1610    0.0000 N   0  0  0  0  0  0  0  0  0  0  0  0
   -1.2942  -10.2787    0.0000 C   0  0  0  0  0  0  0  0  0  0  0  0
   -2.0780  -11.5576    0.0000 C   0  0  0  0  0  0  0  0  0  0  0  0
   -3.5365  -11.2075    0.0000 C   0  0  0  0  0  0  0  0  0  0  0  0
   -3.6542   -9.7121    0.0000 C   0  0  0  0  0  0  0  0  0  0  0  0
   -4.9332   -8.9283    0.0000 O   0  0  0  0  0  0  0  0  0  0  0  0
   -4.8939   -7.4289    0.0000 C   0  0  0  0  0  0  0  0  0  0  0  0
   -3.5757   -6.7131    0.0000 O   0  0  0  0  0  0  0  0  0  0  0  0
   -6.1729   -6.6451    0.0000 N   0  0  0  0  0  0  0  0  0  0  0  0
   -6.1336   -5.1456    0.0000 C   0  0  0  0  0  0  0  0  0  0  0  0
   -4.8154   -4.4299    0.0000 N   0  0  0  0  0  0  0  0  0  0  0  0
   -4.7761   -2.9304    0.0000 N   0  0  0  0  0  0  0  0  0  0  0  0
   -6.0551   -2.1467    0.0000 N   0  0  0  0  0  0  0  0  0  0  0  0
   -7.3733   -2.8624    0.0000 N   0  0  0  0  0  0  0  0  0  0  0  0
   -7.4126   -4.3619    0.0000 N   0  0  0  0  0  0  0  0  0  0  0  0
   -2.2684   -9.1381    0.0000 C   0  0  0  0  0  0  0  0  0  0  0  0
   -1.9182   -7.6795    0.0000 O   0  0  0  0  0  0  0  0  0  0  0  0
    1.8107   -3.8597    0.0000 C   0  0  0  0  0  0  0  0  0  0  0  0
    3.1965   -4.4337    0.0000 O   0  0  0  0  0  0  0  0  0  0  0  0
    1.8107   -2.3597    0.0000 O   0  0  0  0  0  0  0  0  0  0  0  0
    0.7500   -1.2990    0.0000 C   0  0  0  0  0  0  0  0  0  0  0  0
    1.5000    0.0000    0.0000 C   0  0  0  0  0  0  0  0  0  0  0  0
    0.7500    1.2990    0.0000 C   0  0  0  0  0  0  0  0  0  0  0  0
   -0.7500    1.2990    0.0000 C   0  0  0  0  0  0  0  0  0  0  0  0
   -1.5000    0.0000    0.0000 C   0  0  0  0  0  0  0  0  0  0  0  0
   -0.7500   -1.2990    0.0000 C   0  0  0  0  0  0  0  0  0  0  0  0
  1  2  1  0
  2  3  1  0
  3  4  1  0
  4  5  1  0
  5  6  1  0
  6  7  2  0
  6  8  1  0
  8  9  1  0
  9 10  2  0
 10 11  1  0
 11 12  2  0
 12 13  1  0
 13 14  1  0
 14 15  2  0
 15 16  1  0
 16 17  2  0
 17 18  1  0
 18 19  1  0
 19 20  2  0
 19 21  1  0
 21 22  1  0
 22 23  2  0
 23 24  1  0
 24 25  2  0
 25 26  1  0
 26 27  2  0
 17 28  1  0
 28 29  2  0
  5 30  1  0
 30 31  2  0
 30 32  1  0
 32 33  1  0
 33 34  2  0
 34 35  1  0
 35 36  2  0
 36 37  1  0
 37 38  2  0
 38  2  1  0
 13  9  1  0
 28 14  1  0
 38 33  1  0
 27 22  1  0
M  END
>  <Title>  (664) 
idAAXPgen6

$$$$

     RDKit          2D

 39 43  0  0  0  0  0  0  0  0999 V2000
    4.1471   -5.1727    0.0000 C   0  0  0  0  0  0  0  0  0  0  0  0
    5.5890   -4.7592    0.0000 C   0  0  0  0  0  0  0  0  0  0  0  0
    6.1021   -3.3497    0.0000 C   0  0  0  0  0  0  0  0  0  0  0  0
    7.4615   -2.7158    0.0000 C   0  0  0  0  0  0  0  0  0  0  0  0
    6.8276   -1.3563    0.0000 C   0  0  0  0  0  0  0  0  0  0  0  0
    5.4681   -1.9902    0.0000 C   0  0  0  0  0  0  0  0  0  0  0  0
    4.0586   -1.4772    0.0000 N   0  0  0  0  0  0  0  0  0  0  0  0
    4.3191    0.0000    0.0000 C   0  0  0  0  0  0  0  0  0  0  0  0
    4.0586    1.4772    0.0000 C   0  0  0  0  0  0  0  0  0  0  0  0
    3.3086    2.7762    0.0000 C   0  0  0  0  0  0  0  0  0  0  0  0
    2.1595    3.7404    0.0000 C   0  0  0  0  0  0  0  0  0  0  0  0
    0.7500    4.2535    0.0000 C   0  0  0  0  0  0  0  0  0  0  0  0
   -0.7500    4.2535    0.0000 C   0  0  0  0  0  0  0  0  0  0  0  0
   -2.1595    3.7404    0.0000 C   0  0  0  0  0  0  0  0  0  0  0  0
   -3.3086    2.7762    0.0000 C   0  0  0  0  0  0  0  0  0  0  0  0
   -4.0586    1.4772    0.0000 C   0  0  0  0  0  0  0  0  0  0  0  0
   -4.3191    0.0000    0.0000 C   0  0  0  0  0  0  0  0  0  0  0  0
   -4.0586   -1.4772    0.0000 C   0  0  0  0  0  0  0  0  0  0  0  0
   -3.3086   -2.7762    0.0000 C   0  0  0  0  0  0  0  0  0  0  0  0
   -2.1595   -3.7404    0.0000 C   0  0  0  0  0  0  0  0  0  0  0  0
   -0.7500   -4.2535    0.0000 C   0  0  0  0  0  0  0  0  0  0  0  0
    0.7500   -4.2535    0.0000 C   0  0  0  0  0  0  0  0  0  0  0  0
    2.1595   -3.7404    0.0000 C   0  0  0  0  0  0  0  0  0  0  0  0
    3.3086   -2.7762    0.0000 C   0  0  0  0  0  0  0  0  0  0  0  0
    6.4278   -6.0028    0.0000 C   0  0  0  0  0  0  0  0  0  0  0  0
    7.9269   -6.0551    0.0000 C   0  0  0  0  0  0  0  0  0  0  0  0
    8.7218   -4.7831    0.0000 C   0  0  0  0  0  0  0  0  0  0  0  0
   10.2209   -4.8354    0.0000 C   0  0  0  0  0  0  0  0  0  0  0  0
   10.9251   -6.1598    0.0000 N   0  0  0  0  0  0  0  0  0  0  0  0
   12.4242   -6.2122    0.0000 C   0  0  0  0  0  0  0  0  0  0  0  0
   13.2191   -4.9401    0.0000 C   0  0  0  0  0  0  0  0  0  0  0  0
   14.7181   -4.9925    0.0000 C   0  0  0  0  0  0  0  0  0  0  0  0
   15.4223   -6.3169    0.0000 C   0  0  0  0  0  0  0  0  0  0  0  0
   14.6275   -7.5890    0.0000 C   0  0  0  0  0  0  0  0  0  0  0  0
   13.1284   -7.5366    0.0000 C   0  0  0  0  0  0  0  0  0  0  0  0
   10.1302   -7.4319    0.0000 C   0  0  0  0  0  0  0  0  0  0  0  0
    8.6311   -7.3796    0.0000 C   0  0  0  0  0  0  0  0  0  0  0  0
    5.5043   -7.1848    0.0000 C   0  0  0  0  0  0  0  0  0  0  0  0
    4.0948   -6.6718    0.0000 C   0  0  0  0  0  0  0  0  0  0  0  0
  1  2  2  0
  2  3  1  0
  3  4  1  0
  4  5  1  0
  5  6  1  0
  6  7  1  0
  7  8  1  0
  8  9  1  0
  9 10  1  0
 10 11  1  0
 11 12  1  0
 12 13  1  0
 13 14  1  0
 14 15  1  0
 15 16  1  0
 16 17  1  0
 17 18  1  0
 18 19  1  0
 19 20  1  0
 20 21  1  0
 21 22  1  0
 22 23  1  0
 23 24  1  0
  2 25  1  0
 25 26  1  0
 26 27  1  0
 27 28  1  0
 28 29  1  0
 29 30  1  0
 30 31  2  0
 31 32  1  0
 32 33  2  0
 33 34  1  0
 34 35  2  0
 29 36  1  0
 36 37  1  0
 25 38  1  0
 38 39  1  0
 39  1  1  0
  6  3  1  0
 24  7  1  0
 37 26  1  0
 35 30  1  0
M  END
>  <Title>  (665) 
idAAXQgen6

$$$$

     RDKit          2D

 16 17  0  0  0  0  0  0  0  0999 V2000
    3.0000    0.0000    0.0000 C   0  0  0  0  0  0  0  0  0  0  0  0
    1.5000    0.0000    0.0000 C   0  0  0  0  0  0  0  0  0  0  0  0
    0.7500   -1.2990    0.0000 C   0  0  0  0  0  0  0  0  0  0  0  0
   -0.7500   -1.2990    0.0000 C   0  0  0  0  0  0  0  0  0  0  0  0
   -1.5000    0.0000    0.0000 C   0  0  0  0  0  0  0  0  0  0  0  0
   -0.7500    1.2990    0.0000 C   0  0  0  0  0  0  0  0  0  0  0  0
   -1.5000    2.5981    0.0000 C   0  0  0  0  0  0  0  0  0  0  0  0
   -3.0000    2.5981    0.0000 O   0  0  0  0  0  0  0  0  0  0  0  0
   -0.7500    3.8971    0.0000 N   0  0  0  0  0  0  0  0  0  0  0  0
   -1.5000    5.1962    0.0000 C   0  0  0  0  0  0  0  0  0  0  0  0
   -0.7500    6.4952    0.0000 N   0  0  0  0  0  0  0  0  0  0  0  0
   -1.5000    7.7942    0.0000 N   0  0  0  0  0  0  0  0  0  0  0  0
   -3.0000    7.7942    0.0000 N   0  0  0  0  0  0  0  0  0  0  0  0
   -3.7500    6.4952    0.0000 N   0  0  0  0  0  0  0  0  0  0  0  0
   -3.0000    5.1962    0.0000 N   0  0  0  0  0  0  0  0  0  0  0  0
    0.7500    1.2990    0.0000 C   0  0  0  0  0  0  0  0  0  0  0  0
  1  2  1  0
  2  3  1  0
  3  4  2  0
  4  5  1  0
  5  6  2  0
  6  7  1  0
  7  8  2  0
  7  9  1  0
  9 10  1  0
 10 11  2  0
 11 12  1  0
 12 13  2  0
 13 14  1  0
 14 15  2  0
  6 16  1  0
 16  2  1  0
 15 10  1  0
M  END
>  <Title>  (666) 
idAAXRgen6

$$$$

     RDKit          2D

 13 14  0  0  0  0  0  0  0  0999 V2000
    2.7907    5.3916    0.0000 C   0  0  0  0  0  0  0  0  0  0  0  0
    2.1097    4.0551    0.0000 C   0  0  0  0  0  0  0  0  0  0  0  0
    2.9267    2.7971    0.0000 O   0  0  0  0  0  0  0  0  0  0  0  0
    0.6118    3.9766    0.0000 C   0  0  0  0  0  0  0  0  0  0  0  0
   -0.0692    2.6401    0.0000 C   0  0  0  0  0  0  0  0  0  0  0  0
    0.3943    1.2135    0.0000 C   0  0  0  0  0  0  0  0  0  0  0  0
    1.2760    0.0000    0.0000 C   0  0  0  0  0  0  0  0  0  0  0  0
    2.7760    0.0000    0.0000 O   0  0  0  0  0  0  0  0  0  0  0  0
    0.3943   -1.2135    0.0000 C   0  0  0  0  0  0  0  0  0  0  0  0
   -1.0323   -0.7500    0.0000 C   0  0  0  0  0  0  0  0  0  0  0  0
   -1.0323    0.7500    0.0000 C   0  0  0  0  0  0  0  0  0  0  0  0
   -1.4958    2.1766    0.0000 C   0  0  0  0  0  0  0  0  0  0  0  0
   -2.8323    2.8576    0.0000 O   0  0  0  0  0  0  0  0  0  0  0  0
  1  2  1  0
  2  3  2  0
  2  4  1  0
  4  5  1  0
  5  6  2  0
  6  7  1  0
  7  8  1  0
  7  9  2  0
  9 10  1  0
 10 11  2  0
 11 12  1  0
 12 13  2  0
 12  5  1  0
 11  6  1  0
M  END
>  <Title>  (667) 
idAAXSgen6

$$$$

     RDKit          2D

 47 51  0  0  0  0  0  0  0  0999 V2000
   -1.9423  -13.8955    0.0000 C   0  0  0  0  0  0  0  0  0  0  0  0
   -2.8124  -12.6736    0.0000 O   0  0  0  0  0  0  0  0  0  0  0  0
   -2.1892  -11.3092    0.0000 C   0  0  0  0  0  0  0  0  0  0  0  0
   -0.7500  -11.7318    0.0000 C   0  0  0  0  0  0  0  0  0  0  0  0
    0.7500  -11.7318    0.0000 C   0  0  0  0  0  0  0  0  0  0  0  0
    2.1892  -11.3092    0.0000 C   0  0  0  0  0  0  0  0  0  0  0  0
    3.4511  -10.4982    0.0000 C   0  0  0  0  0  0  0  0  0  0  0  0
    4.4334   -9.3646    0.0000 C   0  0  0  0  0  0  0  0  0  0  0  0
    5.0565   -8.0001    0.0000 C   0  0  0  0  0  0  0  0  0  0  0  0
    5.2700   -6.5154    0.0000 C   0  0  0  0  0  0  0  0  0  0  0  0
    5.0565   -5.0307    0.0000 N   0  0  0  0  0  0  0  0  0  0  0  0
    4.4334   -3.6662    0.0000 C   0  0  0  0  0  0  0  0  0  0  0  0
    3.4511   -2.5326    0.0000 C   0  0  0  0  0  0  0  0  0  0  0  0
    2.1892   -1.7216    0.0000 C   0  0  0  0  0  0  0  0  0  0  0  0
    0.7500   -1.2990    0.0000 C   0  0  0  0  0  0  0  0  0  0  0  0
    1.5000    0.0000    0.0000 C   0  0  0  0  0  0  0  0  0  0  0  0
    0.7500    1.2990    0.0000 C   0  0  0  0  0  0  0  0  0  0  0  0
   -0.7500    1.2990    0.0000 C   0  0  0  0  0  0  0  0  0  0  0  0
   -1.5000    0.0000    0.0000 C   0  0  0  0  0  0  0  0  0  0  0  0
   -0.7500   -1.2990    0.0000 C   0  0  0  0  0  0  0  0  0  0  0  0
   -2.1892   -1.7216    0.0000 C   0  0  0  0  0  0  0  0  0  0  0  0
   -3.4511   -2.5326    0.0000 C   0  0  0  0  0  0  0  0  0  0  0  0
   -4.2257   -1.2481    0.0000 C   0  0  0  0  0  0  0  0  0  0  0  0
   -5.6867   -1.5878    0.0000 C   0  0  0  0  0  0  0  0  0  0  0  0
   -5.8151   -3.0823    0.0000 C   0  0  0  0  0  0  0  0  0  0  0  0
   -4.4334   -3.6662    0.0000 C   0  0  0  0  0  0  0  0  0  0  0  0
   -5.0565   -5.0307    0.0000 C   0  0  0  0  0  0  0  0  0  0  0  0
   -5.2700   -6.5154    0.0000 C   0  0  0  0  0  0  0  0  0  0  0  0
   -5.0565   -8.0001    0.0000 C   0  0  0  0  0  0  0  0  0  0  0  0
   -6.4958   -8.4227    0.0000 C   0  0  0  0  0  0  0  0  0  0  0  0
   -4.4334   -9.3646    0.0000 C   0  0  0  0  0  0  0  0  0  0  0  0
   -5.6953  -10.1755    0.0000 O   0  0  0  0  0  0  0  0  0  0  0  0
   -3.4511  -10.4982    0.0000 C   0  0  0  0  0  0  0  0  0  0  0  0
   -4.4334  -11.6318    0.0000 C   0  0  0  0  0  0  0  0  0  0  0  0
   -4.0937  -13.0928    0.0000 C   0  0  0  0  0  0  0  0  0  0  0  0
   -5.3782  -13.8674    0.0000 C   0  0  0  0  0  0  0  0  0  0  0  0
   -6.5118  -12.8852    0.0000 C   0  0  0  0  0  0  0  0  0  0  0  0
   -7.9728  -13.2249    0.0000 C   0  0  0  0  0  0  0  0  0  0  0  0
   -8.4091  -14.6601    0.0000 O   0  0  0  0  0  0  0  0  0  0  0  0
   -8.9976  -12.1295    0.0000 N   0  0  0  0  0  0  0  0  0  0  0  0
  -10.4586  -12.4692    0.0000 C   0  0  0  0  0  0  0  0  0  0  0  0
  -11.4833  -11.3738    0.0000 N   0  0  0  0  0  0  0  0  0  0  0  0
  -12.9443  -11.7136    0.0000 N   0  0  0  0  0  0  0  0  0  0  0  0
  -13.3806  -13.1487    0.0000 N   0  0  0  0  0  0  0  0  0  0  0  0
  -12.3559  -14.2441    0.0000 N   0  0  0  0  0  0  0  0  0  0  0  0
  -10.8949  -13.9044    0.0000 N   0  0  0  0  0  0  0  0  0  0  0  0
   -5.9279  -11.5035    0.0000 C   0  0  0  0  0  0  0  0  0  0  0  0
  1  2  1  0
  2  3  1  0
  3  4  1  0
  4  5  2  0
  5  6  1  0
  6  7  2  0
  7  8  1  0
  8  9  2  0
  9 10  1  0
 10 11  1  0
 11 12  1  0
 12 13  1  0
 13 14  1  0
 14 15  1  0
 15 16  2  0
 16 17  1  0
 17 18  2  0
 18 19  1  0
 19 20  2  0
 20 21  1  0
 21 22  2  0
 22 23  1  0
 23 24  2  0
 24 25  1  0
 25 26  2  0
 26 27  1  0
 27 28  1  0
 28 29  1  0
 29 30  1  0
 29 31  1  0
 31 32  2  0
 31 33  1  0
 33 34  1  0
 34 35  1  0
 35 36  1  0
 36 37  1  0
 37 38  1  0
 38 39  2  0
 38 40  1  0
 40 41  1  0
 41 42  2  0
 42 43  1  0
 43 44  2  0
 44 45  1  0
 45 46  2  0
 37 47  1  0
 33  3  1  0
 47 34  1  0
 20 15  1  0
 26 22  1  0
 46 41  1  0
M  END
>  <Title>  (668) 
idAAXTgen6

$$$$

     RDKit          2D

 11 11  0  0  0  0  0  0  0  0999 V2000
    3.5260    1.2990    0.0000 C   0  0  0  0  0  0  0  0  0  0  0  0
    2.7760    0.0000    0.0000 C   0  0  0  0  0  0  0  0  0  0  0  0
    1.2760    0.0000    0.0000 C   0  0  0  0  0  0  0  0  0  0  0  0
    0.3943    1.2135    0.0000 C   0  0  0  0  0  0  0  0  0  0  0  0
   -1.0323    0.7500    0.0000 C   0  0  0  0  0  0  0  0  0  0  0  0
   -1.0323   -0.7500    0.0000 C   0  0  0  0  0  0  0  0  0  0  0  0
   -2.2458   -1.6317    0.0000 C   0  0  0  0  0  0  0  0  0  0  0  0
   -2.0890   -3.1235    0.0000 O   0  0  0  0  0  0  0  0  0  0  0  0
   -3.6161   -1.0216    0.0000 O   0  0  0  0  0  0  0  0  0  0  0  0
    0.3943   -1.2135    0.0000 C   0  0  0  0  0  0  0  0  0  0  0  0
    0.8578   -2.6401    0.0000 C   0  0  0  0  0  0  0  0  0  0  0  0
  1  2  1  0
  2  3  1  0
  3  4  2  0
  4  5  1  0
  5  6  2  0
  6  7  1  0
  7  8  2  0
  7  9  1  0
  6 10  1  0
 10 11  1  0
 10  3  1  0
M  END
>  <Title>  (669) 
idAAXUgen6

$$$$

     RDKit          2D

 28 30  0  0  0  0  0  0  0  0999 V2000
   -5.7962   -1.5132    0.0000 C   0  0  0  0  0  0  0  0  0  0  0  0
   -4.4971   -2.2632    0.0000 C   0  0  0  0  0  0  0  0  0  0  0  0
   -4.4971   -3.7632    0.0000 O   0  0  0  0  0  0  0  0  0  0  0  0
   -3.1981   -1.5132    0.0000 O   0  0  0  0  0  0  0  0  0  0  0  0
   -1.8991   -2.2632    0.0000 C   0  0  0  0  0  0  0  0  0  0  0  0
   -2.1595   -3.7404    0.0000 C   0  0  0  0  0  0  0  0  0  0  0  0
   -1.4095   -5.0395    0.0000 C   0  0  0  0  0  0  0  0  0  0  0  0
   -0.0000   -5.5525    0.0000 C   0  0  0  0  0  0  0  0  0  0  0  0
   -0.0000   -7.0525    0.0000 C   0  0  0  0  0  0  0  0  0  0  0  0
    1.2990   -7.8025    0.0000 O   0  0  0  0  0  0  0  0  0  0  0  0
   -1.2990   -7.8025    0.0000 N   0  0  0  0  0  0  0  0  0  0  0  0
   -1.2990   -9.3025    0.0000 C   0  0  0  0  0  0  0  0  0  0  0  0
   -2.5981  -10.0525    0.0000 C   0  0  0  0  0  0  0  0  0  0  0  0
   -2.5981  -11.5525    0.0000 C   0  0  0  0  0  0  0  0  0  0  0  0
   -1.2990  -12.3025    0.0000 C   0  0  0  0  0  0  0  0  0  0  0  0
   -0.0000  -11.5525    0.0000 C   0  0  0  0  0  0  0  0  0  0  0  0
   -0.0000  -10.0525    0.0000 C   0  0  0  0  0  0  0  0  0  0  0  0
    1.4095   -5.0395    0.0000 C   0  0  0  0  0  0  0  0  0  0  0  0
    2.3737   -6.1885    0.0000 O   0  0  0  0  0  0  0  0  0  0  0  0
    2.1595   -3.7404    0.0000 O   0  0  0  0  0  0  0  0  0  0  0  0
    1.8991   -2.2632    0.0000 C   0  0  0  0  0  0  0  0  0  0  0  0
    3.1981   -1.5132    0.0000 O   0  0  0  0  0  0  0  0  0  0  0  0
    0.7500   -1.2990    0.0000 C   0  0  0  0  0  0  0  0  0  0  0  0
    1.5000    0.0000    0.0000 C   0  0  0  0  0  0  0  0  0  0  0  0
    0.7500    1.2990    0.0000 C   0  0  0  0  0  0  0  0  0  0  0  0
   -0.7500    1.2990    0.0000 C   0  0  0  0  0  0  0  0  0  0  0  0
   -1.5000    0.0000    0.0000 C   0  0  0  0  0  0  0  0  0  0  0  0
   -0.7500   -1.2990    0.0000 C   0  0  0  0  0  0  0  0  0  0  0  0
  1  2  1  0
  2  3  2  0
  2  4  1  0
  4  5  1  0
  5  6  2  0
  6  7  1  0
  7  8  2  0
  8  9  1  0
  9 10  2  0
  9 11  1  0
 11 12  1  0
 12 13  2  0
 13 14  1  0
 14 15  2  0
 15 16  1  0
 16 17  2  0
  8 18  1  0
 18 19  2  0
 18 20  1  0
 20 21  1  0
 21 22  2  0
 21 23  1  0
 23 24  2  0
 24 25  1  0
 25 26  2  0
 26 27  1  0
 27 28  2  0
 28  5  1  0
 17 12  1  0
 28 23  1  0
M  END
>  <Title>  (670) 
idAAXVgen6

$$$$

     RDKit          2D

  9  9  0  0  0  0  0  0  0  0999 V2000
    2.7760    0.0000    0.0000 C   0  0  0  0  0  0  0  0  0  0  0  0
    1.2760    0.0000    0.0000 C   0  0  0  0  0  0  0  0  0  0  0  0
    0.3943    1.2135    0.0000 C   0  0  0  0  0  0  0  0  0  0  0  0
   -1.0323    0.7500    0.0000 C   0  0  0  0  0  0  0  0  0  0  0  0
   -1.0323   -0.7500    0.0000 C   0  0  0  0  0  0  0  0  0  0  0  0
   -2.2458   -1.6317    0.0000 N   0  0  0  0  0  0  0  0  0  0  0  0
   -3.6161   -1.0216    0.0000 C   0  0  0  0  0  0  0  0  0  0  0  0
   -2.0890   -3.1235    0.0000 C   0  0  0  0  0  0  0  0  0  0  0  0
    0.3943   -1.2135    0.0000 C   0  0  0  0  0  0  0  0  0  0  0  0
  1  2  1  0
  2  3  1  0
  3  4  2  0
  4  5  1  0
  5  6  1  0
  6  7  1  0
  6  8  1  0
  5  9  2  0
  9  2  1  0
M  END
>  <Title>  (671) 
idAAXWgen6

$$$$

     RDKit          2D

 21 22  0  0  0  0  0  0  0  0999 V2000
    1.6727   -8.1774    0.0000 C   0  0  0  0  0  0  0  0  0  0  0  0
    3.1399   -7.8655    0.0000 C   0  0  0  0  0  0  0  0  0  0  0  0
    4.2546   -8.8692    0.0000 C   0  0  0  0  0  0  0  0  0  0  0  0
    4.0978  -10.3610    0.0000 O   0  0  0  0  0  0  0  0  0  0  0  0
    5.5537   -8.1192    0.0000 C   0  0  0  0  0  0  0  0  0  0  0  0
    5.2418   -6.6520    0.0000 C   0  0  0  0  0  0  0  0  0  0  0  0
    3.7500   -6.4952    0.0000 C   0  0  0  0  0  0  0  0  0  0  0  0
    3.0000   -5.1962    0.0000 C   0  0  0  0  0  0  0  0  0  0  0  0
    1.5000   -5.1962    0.0000 O   0  0  0  0  0  0  0  0  0  0  0  0
    3.7500   -3.8971    0.0000 N   0  0  0  0  0  0  0  0  0  0  0  0
    5.2500   -3.8971    0.0000 C   0  0  0  0  0  0  0  0  0  0  0  0
    3.0000   -2.5981    0.0000 C   0  0  0  0  0  0  0  0  0  0  0  0
    1.5000   -2.5981    0.0000 C   0  0  0  0  0  0  0  0  0  0  0  0
    0.7500   -1.2990    0.0000 C   0  0  0  0  0  0  0  0  0  0  0  0
    1.5000    0.0000    0.0000 C   0  0  0  0  0  0  0  0  0  0  0  0
    0.7500    1.2990    0.0000 C   0  0  0  0  0  0  0  0  0  0  0  0
    1.5000    2.5981    0.0000 O   0  0  0  0  0  0  0  0  0  0  0  0
   -0.7500    1.2990    0.0000 C   0  0  0  0  0  0  0  0  0  0  0  0
   -1.5000    0.0000    0.0000 C   0  0  0  0  0  0  0  0  0  0  0  0
   -0.7500   -1.2990    0.0000 C   0  0  0  0  0  0  0  0  0  0  0  0
   -1.5000   -2.5981    0.0000 C   0  0  0  0  0  0  0  0  0  0  0  0
  1  2  1  0
  2  3  1  0
  3  4  1  0
  3  5  2  0
  5  6  1  0
  6  7  2  0
  7  8  1  0
  8  9  2  0
  8 10  1  0
 10 11  1  0
 10 12  1  0
 12 13  1  0
 13 14  1  0
 14 15  1  0
 15 16  1  0
 16 17  1  0
 16 18  1  0
 18 19  1  0
 19 20  1  0
 20 21  1  0
  7  2  1  0
 20 14  1  0
M  END
>  <Title>  (672) 
idAAXXgen6

$$$$

     RDKit          2D

 21 22  0  0  0  0  0  0  0  0999 V2000
    4.2558    4.6904    0.0000 C   0  0  0  0  0  0  0  0  0  0  0  0
    2.7886    4.3786    0.0000 C   0  0  0  0  0  0  0  0  0  0  0  0
    1.7849    5.4933    0.0000 O   0  0  0  0  0  0  0  0  0  0  0  0
    2.3250    2.9520    0.0000 C   0  0  0  0  0  0  0  0  0  0  0  0
    0.8578    2.6401    0.0000 C   0  0  0  0  0  0  0  0  0  0  0  0
    0.3943    1.2135    0.0000 C   0  0  0  0  0  0  0  0  0  0  0  0
    1.2760    0.0000    0.0000 C   0  0  0  0  0  0  0  0  0  0  0  0
    0.3943   -1.2135    0.0000 C   0  0  0  0  0  0  0  0  0  0  0  0
   -1.0323   -0.7500    0.0000 C   0  0  0  0  0  0  0  0  0  0  0  0
   -1.0323    0.7500    0.0000 C   0  0  0  0  0  0  0  0  0  0  0  0
    3.3287    1.8373    0.0000 N   0  0  0  0  0  0  0  0  0  0  0  0
    4.7960    2.1491    0.0000 C   0  0  0  0  0  0  0  0  0  0  0  0
    5.2595    3.5757    0.0000 O   0  0  0  0  0  0  0  0  0  0  0  0
    5.7997    1.0344    0.0000 C   0  0  0  0  0  0  0  0  0  0  0  0
    7.2914    1.1912    0.0000 C   0  0  0  0  0  0  0  0  0  0  0  0
    7.9015   -0.1791    0.0000 C   0  0  0  0  0  0  0  0  0  0  0  0
    6.7868   -1.1828    0.0000 C   0  0  0  0  0  0  0  0  0  0  0  0
    6.9436   -2.6746    0.0000 C   0  0  0  0  0  0  0  0  0  0  0  0
    8.3139   -3.2847    0.0000 O   0  0  0  0  0  0  0  0  0  0  0  0
    5.7301   -3.5563    0.0000 O   0  0  0  0  0  0  0  0  0  0  0  0
    5.4878   -0.4328    0.0000 C   0  0  0  0  0  0  0  0  0  0  0  0
  1  2  1  0
  2  3  2  0
  2  4  1  0
  4  5  1  0
  5  6  1  0
  6  7  2  0
  7  8  1  0
  8  9  2  0
  9 10  1  0
  4 11  1  0
 11 12  1  0
 12 13  2  0
 12 14  1  0
 14 15  1  0
 15 16  1  0
 16 17  1  0
 17 18  1  0
 18 19  2  0
 18 20  1  0
 17 21  1  0
 10  6  1  0
 21 14  1  0
M  END
>  <Title>  (673) 
idAAXYgen6

$$$$

     RDKit          2D

 35 37  0  0  0  0  0  0  0  0999 V2000
   11.3668   -5.5196    0.0000 C   0  0  0  0  0  0  0  0  0  0  0  0
    9.9572   -5.0065    0.0000 C   0  0  0  0  0  0  0  0  0  0  0  0
    8.8082   -5.9707    0.0000 C   0  0  0  0  0  0  0  0  0  0  0  0
    7.3986   -5.4577    0.0000 C   0  0  0  0  0  0  0  0  0  0  0  0
    7.1382   -3.9805    0.0000 C   0  0  0  0  0  0  0  0  0  0  0  0
    5.7286   -3.4675    0.0000 C   0  0  0  0  0  0  0  0  0  0  0  0
    5.4681   -1.9902    0.0000 O   0  0  0  0  0  0  0  0  0  0  0  0
    4.0586   -1.4772    0.0000 C   0  0  0  0  0  0  0  0  0  0  0  0
    4.3191    0.0000    0.0000 C   0  0  0  0  0  0  0  0  0  0  0  0
    4.0586    1.4772    0.0000 C   0  0  0  0  0  0  0  0  0  0  0  0
    3.3086    2.7762    0.0000 C   0  0  0  0  0  0  0  0  0  0  0  0
    2.1595    3.7404    0.0000 C   0  0  0  0  0  0  0  0  0  0  0  0
    0.7500    4.2535    0.0000 C   0  0  0  0  0  0  0  0  0  0  0  0
   -0.7500    4.2535    0.0000 C   0  0  0  0  0  0  0  0  0  0  0  0
   -2.1595    3.7404    0.0000 C   0  0  0  0  0  0  0  0  0  0  0  0
   -3.3086    2.7762    0.0000 C   0  0  0  0  0  0  0  0  0  0  0  0
   -4.0586    1.4772    0.0000 C   0  0  0  0  0  0  0  0  0  0  0  0
   -4.3191    0.0000    0.0000 C   0  0  0  0  0  0  0  0  0  0  0  0
   -4.0586   -1.4772    0.0000 C   0  0  0  0  0  0  0  0  0  0  0  0
   -3.3086   -2.7762    0.0000 C   0  0  0  0  0  0  0  0  0  0  0  0
   -2.1595   -3.7404    0.0000 C   0  0  0  0  0  0  0  0  0  0  0  0
   -0.7500   -4.2535    0.0000 C   0  0  0  0  0  0  0  0  0  0  0  0
    0.7500   -4.2535    0.0000 C   0  0  0  0  0  0  0  0  0  0  0  0
    2.1595   -3.7404    0.0000 C   0  0  0  0  0  0  0  0  0  0  0  0
    2.9095   -5.0395    0.0000 C   0  0  0  0  0  0  0  0  0  0  0  0
    3.3086   -2.7762    0.0000 C   0  0  0  0  0  0  0  0  0  0  0  0
    8.2872   -3.0163    0.0000 C   0  0  0  0  0  0  0  0  0  0  0  0
    8.0268   -1.5391    0.0000 C   0  0  0  0  0  0  0  0  0  0  0  0
    6.6172   -1.0261    0.0000 C   0  0  0  0  0  0  0  0  0  0  0  0
    6.3567    0.4512    0.0000 C   0  0  0  0  0  0  0  0  0  0  0  0
    7.5058    1.4153    0.0000 C   0  0  0  0  0  0  0  0  0  0  0  0
    8.9153    0.9023    0.0000 C   0  0  0  0  0  0  0  0  0  0  0  0
    9.1758   -0.5749    0.0000 C   0  0  0  0  0  0  0  0  0  0  0  0
   10.5854   -1.0879    0.0000 O   0  0  0  0  0  0  0  0  0  0  0  0
    9.6968   -3.5293    0.0000 C   0  0  0  0  0  0  0  0  0  0  0  0
  1  2  1  0
  2  3  2  0
  3  4  1  0
  4  5  2  0
  5  6  1  0
  6  7  1  0
  7  8  1  0
  8  9  2  0
  9 10  1  0
 10 11  2  0
 11 12  1  0
 12 13  2  0
 13 14  1  0
 14 15  2  0
 15 16  1  0
 16 17  1  0
 17 18  1  0
 18 19  1  0
 19 20  1  0
 20 21  1  0
 21 22  1  0
 22 23  1  0
 23 24  1  0
 24 25  1  0
 24 26  1  0
  5 27  1  0
 27 28  1  0
 28 29  2  0
 29 30  1  0
 30 31  2  0
 31 32  1  0
 32 33  2  0
 33 34  1  0
 27 35  2  0
 35  2  1  0
 26  8  1  0
 33 28  1  0
M  END
>  <Title>  (674) 
idAAXZgen6

$$$$

     RDKit          2D

 23 25  0  0  0  0  0  0  0  0999 V2000
   -5.7723   -2.1248    0.0000 C   0  0  0  0  0  0  0  0  0  0  0  0
   -4.3865   -2.6988    0.0000 C   0  0  0  0  0  0  0  0  0  0  0  0
   -4.1907   -4.1860    0.0000 O   0  0  0  0  0  0  0  0  0  0  0  0
   -3.1965   -1.7857    0.0000 O   0  0  0  0  0  0  0  0  0  0  0  0
   -1.8107   -2.3597    0.0000 C   0  0  0  0  0  0  0  0  0  0  0  0
   -1.8107   -3.8597    0.0000 C   0  0  0  0  0  0  0  0  0  0  0  0
   -0.7500   -4.9204    0.0000 C   0  0  0  0  0  0  0  0  0  0  0  0
    0.7500   -4.9204    0.0000 C   0  0  0  0  0  0  0  0  0  0  0  0
    1.3240   -6.3062    0.0000 C   0  0  0  0  0  0  0  0  0  0  0  0
    0.4109   -7.4962    0.0000 C   0  0  0  0  0  0  0  0  0  0  0  0
    0.9849   -8.8820    0.0000 C   0  0  0  0  0  0  0  0  0  0  0  0
    2.4721   -9.0778    0.0000 C   0  0  0  0  0  0  0  0  0  0  0  0
    3.3852   -7.8878    0.0000 C   0  0  0  0  0  0  0  0  0  0  0  0
    2.8112   -6.5020    0.0000 C   0  0  0  0  0  0  0  0  0  0  0  0
    1.8107   -3.8597    0.0000 C   0  0  0  0  0  0  0  0  0  0  0  0
    3.1965   -4.4337    0.0000 O   0  0  0  0  0  0  0  0  0  0  0  0
    1.8107   -2.3597    0.0000 O   0  0  0  0  0  0  0  0  0  0  0  0
    0.7500   -1.2990    0.0000 C   0  0  0  0  0  0  0  0  0  0  0  0
    1.5000    0.0000    0.0000 C   0  0  0  0  0  0  0  0  0  0  0  0
    0.7500    1.2990    0.0000 C   0  0  0  0  0  0  0  0  0  0  0  0
   -0.7500    1.2990    0.0000 C   0  0  0  0  0  0  0  0  0  0  0  0
   -1.5000    0.0000    0.0000 C   0  0  0  0  0  0  0  0  0  0  0  0
   -0.7500   -1.2990    0.0000 C   0  0  0  0  0  0  0  0  0  0  0  0
  1  2  1  0
  2  3  2  0
  2  4  1  0
  4  5  1  0
  5  6  2  0
  6  7  1  0
  7  8  2  0
  8  9  1  0
  9 10  2  0
 10 11  1  0
 11 12  2  0
 12 13  1  0
 13 14  2  0
  8 15  1  0
 15 16  2  0
 15 17  1  0
 17 18  1  0
 18 19  2  0
 19 20  1  0
 20 21  2  0
 21 22  1  0
 22 23  2  0
 23  5  1  0
 14  9  1  0
 23 18  1  0
M  END
>  <Title>  (675) 
idAAYAgen6

$$$$

     RDKit          2D

 26 29  0  0  0  0  0  0  0  0999 V2000
   -1.3240   -6.3062    0.0000 C   0  0  0  0  0  0  0  0  0  0  0  0
   -0.7500   -4.9204    0.0000 C   0  0  0  0  0  0  0  0  0  0  0  0
    0.7500   -4.9204    0.0000 C   0  0  0  0  0  0  0  0  0  0  0  0
    1.8107   -3.8597    0.0000 C   0  0  0  0  0  0  0  0  0  0  0  0
    1.8107   -2.3597    0.0000 C   0  0  0  0  0  0  0  0  0  0  0  0
    3.1965   -1.7857    0.0000 C   0  0  0  0  0  0  0  0  0  0  0  0
    3.3923   -0.2985    0.0000 O   0  0  0  0  0  0  0  0  0  0  0  0
    4.3865   -2.6988    0.0000 O   0  0  0  0  0  0  0  0  0  0  0  0
    5.7723   -2.1248    0.0000 C   0  0  0  0  0  0  0  0  0  0  0  0
    6.9624   -3.0379    0.0000 N   0  0  0  0  0  0  0  0  0  0  0  0
    8.3482   -2.4639    0.0000 N   0  0  0  0  0  0  0  0  0  0  0  0
    8.5440   -0.9767    0.0000 N   0  0  0  0  0  0  0  0  0  0  0  0
    7.3539   -0.0636    0.0000 N   0  0  0  0  0  0  0  0  0  0  0  0
    5.9681   -0.6376    0.0000 N   0  0  0  0  0  0  0  0  0  0  0  0
    0.7500   -1.2990    0.0000 C   0  0  0  0  0  0  0  0  0  0  0  0
    1.5000    0.0000    0.0000 C   0  0  0  0  0  0  0  0  0  0  0  0
    0.7500    1.2990    0.0000 C   0  0  0  0  0  0  0  0  0  0  0  0
   -0.7500    1.2990    0.0000 C   0  0  0  0  0  0  0  0  0  0  0  0
   -1.5000    0.0000    0.0000 C   0  0  0  0  0  0  0  0  0  0  0  0
   -0.7500   -1.2990    0.0000 C   0  0  0  0  0  0  0  0  0  0  0  0
   -1.8107   -2.3597    0.0000 C   0  0  0  0  0  0  0  0  0  0  0  0
   -3.1097   -1.6097    0.0000 C   0  0  0  0  0  0  0  0  0  0  0  0
   -4.4087   -2.3597    0.0000 C   0  0  0  0  0  0  0  0  0  0  0  0
   -4.4087   -3.8597    0.0000 C   0  0  0  0  0  0  0  0  0  0  0  0
   -3.1097   -4.6097    0.0000 C   0  0  0  0  0  0  0  0  0  0  0  0
   -1.8107   -3.8597    0.0000 C   0  0  0  0  0  0  0  0  0  0  0  0
  1  2  1  0
  2  3  1  0
  3  4  1  0
  4  5  1  0
  5  6  1  0
  6  7  2  0
  6  8  1  0
  8  9  1  0
  9 10  2  0
 10 11  1  0
 11 12  2  0
 12 13  1  0
 13 14  2  0
  5 15  1  0
 15 16  2  0
 16 17  1  0
 17 18  2  0
 18 19  1  0
 19 20  2  0
 20 21  1  0
 21 22  2  0
 22 23  1  0
 23 24  2  0
 24 25  1  0
 25 26  2  0
 26  2  1  0
 14  9  1  0
 20 15  1  0
 26 21  1  0
M  END
>  <Title>  (676) 
idAAYBgen6

$$$$

     RDKit          2D

 30 34  0  0  0  0  0  0  0  0999 V2000
   -3.7500   -1.2990    0.0000 O   0  0  0  0  0  0  0  0  0  0  0  0
   -3.0000   -2.5981    0.0000 C   0  0  0  0  0  0  0  0  0  0  0  0
   -3.7500   -3.8971    0.0000 N   0  0  0  0  0  0  0  0  0  0  0  0
   -5.2500   -3.8971    0.0000 C   0  0  0  0  0  0  0  0  0  0  0  0
   -6.1317   -2.6836    0.0000 N   0  0  0  0  0  0  0  0  0  0  0  0
   -7.5583   -3.1471    0.0000 N   0  0  0  0  0  0  0  0  0  0  0  0
   -7.5583   -4.6471    0.0000 N   0  0  0  0  0  0  0  0  0  0  0  0
   -6.1317   -5.1106    0.0000 N   0  0  0  0  0  0  0  0  0  0  0  0
   -5.6682   -6.5372    0.0000 N   0  0  0  0  0  0  0  0  0  0  0  0
   -6.6718   -7.6519    0.0000 C   0  0  0  0  0  0  0  0  0  0  0  0
   -6.2083   -9.0785    0.0000 C   0  0  0  0  0  0  0  0  0  0  0  0
   -4.7411   -9.3904    0.0000 C   0  0  0  0  0  0  0  0  0  0  0  0
   -3.7374   -8.2757    0.0000 C   0  0  0  0  0  0  0  0  0  0  0  0
   -4.2009   -6.8491    0.0000 C   0  0  0  0  0  0  0  0  0  0  0  0
   -1.5000   -2.5981    0.0000 N   0  0  0  0  0  0  0  0  0  0  0  0
   -0.7500   -3.8971    0.0000 C   0  0  0  0  0  0  0  0  0  0  0  0
    0.7500   -3.8971    0.0000 C   0  0  0  0  0  0  0  0  0  0  0  0
    1.5000   -2.5981    0.0000 C   0  0  0  0  0  0  0  0  0  0  0  0
    3.0000   -2.5981    0.0000 C   0  0  0  0  0  0  0  0  0  0  0  0
    3.7500   -3.8971    0.0000 C   0  0  0  0  0  0  0  0  0  0  0  0
    5.2500   -3.8971    0.0000 C   0  0  0  0  0  0  0  0  0  0  0  0
    6.0000   -2.5981    0.0000 C   0  0  0  0  0  0  0  0  0  0  0  0
    5.2500   -1.2990    0.0000 C   0  0  0  0  0  0  0  0  0  0  0  0
    3.7500   -1.2990    0.0000 C   0  0  0  0  0  0  0  0  0  0  0  0
    0.7500   -1.2990    0.0000 C   0  0  0  0  0  0  0  0  0  0  0  0
    1.5000    0.0000    0.0000 C   0  0  0  0  0  0  0  0  0  0  0  0
    0.7500    1.2990    0.0000 C   0  0  0  0  0  0  0  0  0  0  0  0
   -0.7500    1.2990    0.0000 C   0  0  0  0  0  0  0  0  0  0  0  0
   -1.5000    0.0000    0.0000 C   0  0  0  0  0  0  0  0  0  0  0  0
   -0.7500   -1.2990    0.0000 C   0  0  0  0  0  0  0  0  0  0  0  0
  1  2  2  0
  2  3  1  0
  3  4  1  0
  4  5  2  0
  5  6  1  0
  6  7  2  0
  7  8  1  0
  8  9  1  0
  9 10  1  0
 10 11  1  0
 11 12  1  0
 12 13  1  0
 13 14  1  0
  2 15  1  0
 15 16  1  0
 16 17  1  0
 17 18  1  0
 18 19  1  0
 19 20  2  0
 20 21  1  0
 21 22  2  0
 22 23  1  0
 23 24  2  0
 18 25  1  0
 25 26  2  0
 26 27  1  0
 27 28  2  0
 28 29  1  0
 29 30  2  0
  8  4  1  0
 14  9  1  0
 30 15  1  0
 24 19  1  0
 30 25  1  0
M  END
>  <Title>  (677) 
idAAYCgen6

$$$$

     RDKit          2D

 26 28  0  0  0  0  0  0  0  0999 V2000
   -3.1097   -0.9884    0.0000 C   0  0  0  0  0  0  0  0  0  0  0  0
   -2.0490   -2.0490    0.0000 C   0  0  0  0  0  0  0  0  0  0  0  0
   -2.7990   -3.3481    0.0000 C   0  0  0  0  0  0  0  0  0  0  0  0
   -2.7990   -4.8481    0.0000 C   0  0  0  0  0  0  0  0  0  0  0  0
   -2.0490   -6.1471    0.0000 C   0  0  0  0  0  0  0  0  0  0  0  0
   -0.7500   -6.8971    0.0000 C   0  0  0  0  0  0  0  0  0  0  0  0
    0.7500   -6.8971    0.0000 C   0  0  0  0  0  0  0  0  0  0  0  0
    2.0490   -6.1471    0.0000 C   0  0  0  0  0  0  0  0  0  0  0  0
    2.7990   -4.8481    0.0000 C   0  0  0  0  0  0  0  0  0  0  0  0
    2.7990   -3.3481    0.0000 C   0  0  0  0  0  0  0  0  0  0  0  0
    2.0490   -2.0490    0.0000 C   0  0  0  0  0  0  0  0  0  0  0  0
    3.1097   -0.9884    0.0000 C   0  0  0  0  0  0  0  0  0  0  0  0
    2.7215    0.4605    0.0000 O   0  0  0  0  0  0  0  0  0  0  0  0
    4.5586   -1.3766    0.0000 O   0  0  0  0  0  0  0  0  0  0  0  0
    5.6192   -0.3159    0.0000 C   0  0  0  0  0  0  0  0  0  0  0  0
    7.0681   -0.7042    0.0000 N   0  0  0  0  0  0  0  0  0  0  0  0
    8.1288    0.3565    0.0000 N   0  0  0  0  0  0  0  0  0  0  0  0
    7.7406    1.8054    0.0000 N   0  0  0  0  0  0  0  0  0  0  0  0
    6.2917    2.1936    0.0000 N   0  0  0  0  0  0  0  0  0  0  0  0
    5.2310    1.1329    0.0000 N   0  0  0  0  0  0  0  0  0  0  0  0
    0.7500   -1.2990    0.0000 C   0  0  0  0  0  0  0  0  0  0  0  0
    1.5000    0.0000    0.0000 C   0  0  0  0  0  0  0  0  0  0  0  0
    0.7500    1.2990    0.0000 C   0  0  0  0  0  0  0  0  0  0  0  0
   -0.7500    1.2990    0.0000 C   0  0  0  0  0  0  0  0  0  0  0  0
   -1.5000    0.0000    0.0000 C   0  0  0  0  0  0  0  0  0  0  0  0
   -0.7500   -1.2990    0.0000 C   0  0  0  0  0  0  0  0  0  0  0  0
  1  2  1  0
  2  3  1  0
  3  4  1  0
  4  5  1  0
  5  6  1  0
  6  7  1  0
  7  8  1  0
  8  9  2  0
  9 10  1  0
 10 11  2  0
 11 12  1  0
 12 13  2  0
 12 14  1  0
 14 15  1  0
 15 16  2  0
 16 17  1  0
 17 18  2  0
 18 19  1  0
 19 20  2  0
 11 21  1  0
 21 22  2  0
 22 23  1  0
 23 24  2  0
 24 25  1  0
 25 26  2  0
 26  2  1  0
 20 15  1  0
 26 21  1  0
M  END
>  <Title>  (678) 
idAAYDgen6

$$$$

     RDKit          2D

 23 25  0  0  0  0  0  0  0  0999 V2000
   -5.2500   -3.8971    0.0000 C   0  0  0  0  0  0  0  0  0  0  0  0
   -3.7500   -3.8971    0.0000 C   0  0  0  0  0  0  0  0  0  0  0  0
   -3.0000   -5.1962    0.0000 O   0  0  0  0  0  0  0  0  0  0  0  0
   -3.0000   -2.5981    0.0000 O   0  0  0  0  0  0  0  0  0  0  0  0
   -1.5000   -2.5981    0.0000 C   0  0  0  0  0  0  0  0  0  0  0  0
   -0.7500   -3.8971    0.0000 C   0  0  0  0  0  0  0  0  0  0  0  0
    0.7500   -3.8971    0.0000 C   0  0  0  0  0  0  0  0  0  0  0  0
    1.5000   -2.5981    0.0000 C   0  0  0  0  0  0  0  0  0  0  0  0
    3.0000   -2.5981    0.0000 C   0  0  0  0  0  0  0  0  0  0  0  0
    3.7500   -1.2990    0.0000 O   0  0  0  0  0  0  0  0  0  0  0  0
    3.7500   -3.8971    0.0000 N   0  0  0  0  0  0  0  0  0  0  0  0
    5.2500   -3.8971    0.0000 C   0  0  0  0  0  0  0  0  0  0  0  0
    6.0000   -5.1962    0.0000 N   0  0  0  0  0  0  0  0  0  0  0  0
    7.5000   -5.1962    0.0000 N   0  0  0  0  0  0  0  0  0  0  0  0
    8.2500   -3.8971    0.0000 N   0  0  0  0  0  0  0  0  0  0  0  0
    7.5000   -2.5981    0.0000 N   0  0  0  0  0  0  0  0  0  0  0  0
    6.0000   -2.5981    0.0000 N   0  0  0  0  0  0  0  0  0  0  0  0
    0.7500   -1.2990    0.0000 C   0  0  0  0  0  0  0  0  0  0  0  0
    1.5000    0.0000    0.0000 C   0  0  0  0  0  0  0  0  0  0  0  0
    0.7500    1.2990    0.0000 C   0  0  0  0  0  0  0  0  0  0  0  0
   -0.7500    1.2990    0.0000 C   0  0  0  0  0  0  0  0  0  0  0  0
   -1.5000    0.0000    0.0000 C   0  0  0  0  0  0  0  0  0  0  0  0
   -0.7500   -1.2990    0.0000 C   0  0  0  0  0  0  0  0  0  0  0  0
  1  2  1  0
  2  3  2  0
  2  4  1  0
  4  5  1  0
  5  6  2  0
  6  7  1  0
  7  8  2  0
  8  9  1  0
  9 10  2  0
  9 11  1  0
 11 12  1  0
 12 13  2  0
 13 14  1  0
 14 15  2  0
 15 16  1  0
 16 17  2  0
  8 18  1  0
 18 19  2  0
 19 20  1  0
 20 21  2  0
 21 22  1  0
 22 23  2  0
 23  5  1  0
 17 12  1  0
 23 18  1  0
M  END
>  <Title>  (679) 
idAAYEgen6

$$$$

     RDKit          2D

 14 15  0  0  0  0  0  0  0  0999 V2000
    5.2500   -1.2990    0.0000 C   0  0  0  0  0  0  0  0  0  0  0  0
    3.7500   -1.2990    0.0000 C   0  0  0  0  0  0  0  0  0  0  0  0
    3.0000   -2.5981    0.0000 O   0  0  0  0  0  0  0  0  0  0  0  0
    3.0000    0.0000    0.0000 C   0  0  0  0  0  0  0  0  0  0  0  0
    1.5000    0.0000    0.0000 C   0  0  0  0  0  0  0  0  0  0  0  0
    0.7500   -1.2990    0.0000 C   0  0  0  0  0  0  0  0  0  0  0  0
   -0.7500   -1.2990    0.0000 C   0  0  0  0  0  0  0  0  0  0  0  0
   -1.5000    0.0000    0.0000 C   0  0  0  0  0  0  0  0  0  0  0  0
   -3.0000    0.0000    0.0000 C   0  0  0  0  0  0  0  0  0  0  0  0
   -4.2990   -0.7500    0.0000 C   0  0  0  0  0  0  0  0  0  0  0  0
   -4.2990    0.7500    0.0000 C   0  0  0  0  0  0  0  0  0  0  0  0
   -0.7500    1.2990    0.0000 C   0  0  0  0  0  0  0  0  0  0  0  0
   -1.5000    2.5981    0.0000 O   0  0  0  0  0  0  0  0  0  0  0  0
    0.7500    1.2990    0.0000 N   0  0  0  0  0  0  0  0  0  0  0  0
  1  2  1  0
  2  3  2  0
  2  4  1  0
  4  5  1  0
  5  6  2  0
  6  7  1  0
  7  8  2  0
  8  9  1  0
  9 10  1  0
 10 11  1  0
  8 12  1  0
 12 13  2  0
 12 14  1  0
 14  5  1  0
 11  9  1  0
M  END
>  <Title>  (680) 
idAAYFgen6

$$$$

     RDKit          2D

 22 24  0  0  0  0  0  0  0  0999 V2000
    5.2500   -1.2990    0.0000 C   0  0  0  0  0  0  0  0  0  0  0  0
    3.7500   -1.2990    0.0000 C   0  0  0  0  0  0  0  0  0  0  0  0
    3.0000   -2.5981    0.0000 O   0  0  0  0  0  0  0  0  0  0  0  0
    3.0000    0.0000    0.0000 C   0  0  0  0  0  0  0  0  0  0  0  0
    3.7500    1.2990    0.0000 O   0  0  0  0  0  0  0  0  0  0  0  0
    1.5000    0.0000    0.0000 C   0  0  0  0  0  0  0  0  0  0  0  0
    0.7500   -1.2990    0.0000 C   0  0  0  0  0  0  0  0  0  0  0  0
   -0.7500   -1.2990    0.0000 C   0  0  0  0  0  0  0  0  0  0  0  0
   -1.5000    0.0000    0.0000 C   0  0  0  0  0  0  0  0  0  0  0  0
   -3.0000    0.0000    0.0000 C   0  0  0  0  0  0  0  0  0  0  0  0
   -3.8817   -1.2135    0.0000 C   0  0  0  0  0  0  0  0  0  0  0  0
   -5.3083   -0.7500    0.0000 C   0  0  0  0  0  0  0  0  0  0  0  0
   -5.3083    0.7500    0.0000 C   0  0  0  0  0  0  0  0  0  0  0  0
   -6.5218    1.6317    0.0000 C   0  0  0  0  0  0  0  0  0  0  0  0
   -6.3650    3.1235    0.0000 C   0  0  0  0  0  0  0  0  0  0  0  0
   -7.5785    4.0051    0.0000 C   0  0  0  0  0  0  0  0  0  0  0  0
   -8.9488    3.3950    0.0000 C   0  0  0  0  0  0  0  0  0  0  0  0
   -9.1056    1.9033    0.0000 C   0  0  0  0  0  0  0  0  0  0  0  0
   -7.8921    1.0216    0.0000 C   0  0  0  0  0  0  0  0  0  0  0  0
   -3.8817    1.2135    0.0000 C   0  0  0  0  0  0  0  0  0  0  0  0
   -0.7500    1.2990    0.0000 C   0  0  0  0  0  0  0  0  0  0  0  0
    0.7500    1.2990    0.0000 C   0  0  0  0  0  0  0  0  0  0  0  0
  1  2  1  0
  2  3  2  0
  2  4  1  0
  4  5  2  0
  4  6  1  0
  6  7  1  0
  7  8  1  0
  8  9  1  0
  9 10  1  0
 10 11  1  0
 11 12  1  0
 12 13  1  0
 13 14  1  0
 14 15  2  0
 15 16  1  0
 16 17  2  0
 17 18  1  0
 18 19  2  0
 13 20  1  0
  9 21  1  0
 21 22  1  0
 22  6  1  0
 20 10  1  0
 19 14  1  0
M  END
>  <Title>  (681) 
idAAYGgen6

$$$$

     RDKit          2D

 17 19  0  0  0  0  0  0  0  0999 V2000
   -6.4827   -2.9610    0.0000 O   0  0  0  0  0  0  0  0  0  0  0  0
   -5.8017   -4.2975    0.0000 C   0  0  0  0  0  0  0  0  0  0  0  0
   -6.4827   -5.6340    0.0000 N   0  0  0  0  0  0  0  0  0  0  0  0
   -5.4221   -6.6946    0.0000 C   0  0  0  0  0  0  0  0  0  0  0  0
   -4.0856   -6.0137    0.0000 C   0  0  0  0  0  0  0  0  0  0  0  0
   -4.3202   -4.5321    0.0000 C   0  0  0  0  0  0  0  0  0  0  0  0
   -3.2595   -3.4715    0.0000 C   0  0  0  0  0  0  0  0  0  0  0  0
   -1.8107   -3.8597    0.0000 C   0  0  0  0  0  0  0  0  0  0  0  0
   -0.7500   -2.7990    0.0000 N   0  0  0  0  0  0  0  0  0  0  0  0
    0.7500   -2.7990    0.0000 C   0  0  0  0  0  0  0  0  0  0  0  0
    1.8107   -3.8597    0.0000 O   0  0  0  0  0  0  0  0  0  0  0  0
    0.7500   -1.2990    0.0000 C   0  0  0  0  0  0  0  0  0  0  0  0
    1.5000    0.0000    0.0000 C   0  0  0  0  0  0  0  0  0  0  0  0
    0.7500    1.2990    0.0000 C   0  0  0  0  0  0  0  0  0  0  0  0
   -0.7500    1.2990    0.0000 C   0  0  0  0  0  0  0  0  0  0  0  0
   -1.5000    0.0000    0.0000 C   0  0  0  0  0  0  0  0  0  0  0  0
   -0.7500   -1.2990    0.0000 C   0  0  0  0  0  0  0  0  0  0  0  0
  1  2  2  0
  2  3  1  0
  3  4  1  0
  4  5  1  0
  5  6  1  0
  6  7  1  0
  7  8  1  0
  8  9  1  0
  9 10  1  0
 10 11  2  0
 10 12  1  0
 12 13  2  0
 13 14  1  0
 14 15  2  0
 15 16  1  0
 16 17  2  0
  6  2  1  0
 17  9  1  0
 17 12  1  0
M  END
>  <Title>  (682) 
idAAYHgen6

$$$$

     RDKit          2D

 27 28  0  0  0  0  0  0  0  0999 V2000
   -3.6937   -8.7166    0.0000 C   0  0  0  0  0  0  0  0  0  0  0  0
   -2.6330   -7.6559    0.0000 C   0  0  0  0  0  0  0  0  0  0  0  0
   -1.3858   -8.4893    0.0000 C   0  0  0  0  0  0  0  0  0  0  0  0
    0.0854   -8.7819    0.0000 C   0  0  0  0  0  0  0  0  0  0  0  0
    1.5565   -8.4893    0.0000 C   0  0  0  0  0  0  0  0  0  0  0  0
    2.8037   -7.6559    0.0000 C   0  0  0  0  0  0  0  0  0  0  0  0
    3.6371   -6.4087    0.0000 C   0  0  0  0  0  0  0  0  0  0  0  0
    3.9297   -4.9376    0.0000 C   0  0  0  0  0  0  0  0  0  0  0  0
    3.6371   -3.4664    0.0000 C   0  0  0  0  0  0  0  0  0  0  0  0
    2.8037   -2.2192    0.0000 C   0  0  0  0  0  0  0  0  0  0  0  0
    1.3858   -1.3858    0.0000 C   0  0  0  0  0  0  0  0  0  0  0  0
    1.9598    0.0000    0.0000 C   0  0  0  0  0  0  0  0  0  0  0  0
    3.4598   -0.0000    0.0000 O   0  0  0  0  0  0  0  0  0  0  0  0
    1.3858    1.3858    0.0000 O   0  0  0  0  0  0  0  0  0  0  0  0
    0.0000    1.9598    0.0000 C   0  0  0  0  0  0  0  0  0  0  0  0
    0.0000    3.4598    0.0000 O   0  0  0  0  0  0  0  0  0  0  0  0
   -1.3858    1.3858    0.0000 C   0  0  0  0  0  0  0  0  0  0  0  0
   -1.9598    0.0000    0.0000 C   0  0  0  0  0  0  0  0  0  0  0  0
   -1.3858   -1.3858    0.0000 N   0  0  0  0  0  0  0  0  0  0  0  0
   -0.0000   -1.9598    0.0000 C   0  0  0  0  0  0  0  0  0  0  0  0
   -0.0000   -3.4598    0.0000 O   0  0  0  0  0  0  0  0  0  0  0  0
   -2.6330   -2.2192    0.0000 C   0  0  0  0  0  0  0  0  0  0  0  0
   -3.6937   -1.1585    0.0000 C   0  0  0  0  0  0  0  0  0  0  0  0
   -3.4664   -3.4664    0.0000 C   0  0  0  0  0  0  0  0  0  0  0  0
   -3.7590   -4.9376    0.0000 C   0  0  0  0  0  0  0  0  0  0  0  0
   -3.4664   -6.4087    0.0000 C   0  0  0  0  0  0  0  0  0  0  0  0
   -4.8522   -6.9828    0.0000 O   0  0  0  0  0  0  0  0  0  0  0  0
  1  2  1  0
  2  3  2  0
  3  4  1  0
  4  5  2  0
  5  6  1  0
  6  7  2  0
  7  8  1  0
  8  9  2  0
  9 10  1  0
 10 11  2  0
 11 12  1  0
 12 13  2  0
 12 14  1  0
 14 15  1  0
 15 16  2  0
 15 17  1  0
 17 18  1  0
 18 19  1  0
 19 20  1  0
 20 21  2  0
 19 22  1  0
 22 23  1  0
 22 24  1  0
 24 25  1  0
 25 26  1  0
 26 27  1  0
 26  2  1  0
 20 11  1  0
M  END
>  <Title>  (683) 
idAAYIgen6

$$$$

     RDKit          2D

 41 46  0  0  0  0  0  0  0  0999 V2000
   -0.7500   -3.8971    0.0000 O   0  0  0  0  0  0  0  0  0  0  0  0
    0.7500   -3.8971    0.0000 C   0  0  0  0  0  0  0  0  0  0  0  0
    1.5000   -2.5981    0.0000 N   0  0  0  0  0  0  0  0  0  0  0  0
    0.7500   -1.2990    0.0000 C   0  0  0  0  0  0  0  0  0  0  0  0
    1.5000    0.0000    0.0000 N   0  0  0  0  0  0  0  0  0  0  0  0
    0.7500    1.2990    0.0000 N   0  0  0  0  0  0  0  0  0  0  0  0
   -0.7500    1.2990    0.0000 N   0  0  0  0  0  0  0  0  0  0  0  0
   -1.5000    0.0000    0.0000 N   0  0  0  0  0  0  0  0  0  0  0  0
   -0.7500   -1.2990    0.0000 N   0  0  0  0  0  0  0  0  0  0  0  0
    1.5000   -5.1962    0.0000 C   0  0  0  0  0  0  0  0  0  0  0  0
    0.7500   -6.4952    0.0000 C   0  0  0  0  0  0  0  0  0  0  0  0
    1.5000   -7.7942    0.0000 C   0  0  0  0  0  0  0  0  0  0  0  0
    3.0000   -7.7942    0.0000 C   0  0  0  0  0  0  0  0  0  0  0  0
    3.7500   -9.0933    0.0000 C   0  0  0  0  0  0  0  0  0  0  0  0
    3.0000  -10.3923    0.0000 C   0  0  0  0  0  0  0  0  0  0  0  0
    3.7500  -11.6913    0.0000 C   0  0  0  0  0  0  0  0  0  0  0  0
    5.2500  -11.6913    0.0000 C   0  0  0  0  0  0  0  0  0  0  0  0
    6.0000  -10.3923    0.0000 C   0  0  0  0  0  0  0  0  0  0  0  0
    5.2500   -9.0933    0.0000 C   0  0  0  0  0  0  0  0  0  0  0  0
    6.0000   -7.7942    0.0000 C   0  0  0  0  0  0  0  0  0  0  0  0
    5.2500   -6.4952    0.0000 O   0  0  0  0  0  0  0  0  0  0  0  0
    7.5000   -7.7942    0.0000 N   0  0  0  0  0  0  0  0  0  0  0  0
    8.2500   -6.4952    0.0000 C   0  0  0  0  0  0  0  0  0  0  0  0
    7.6399   -5.1249    0.0000 N   0  0  0  0  0  0  0  0  0  0  0  0
    8.7546   -4.1212    0.0000 N   0  0  0  0  0  0  0  0  0  0  0  0
   10.0537   -4.8712    0.0000 N   0  0  0  0  0  0  0  0  0  0  0  0
    9.7418   -6.3384    0.0000 N   0  0  0  0  0  0  0  0  0  0  0  0
   10.7455   -7.4531    0.0000 N   0  0  0  0  0  0  0  0  0  0  0  0
   10.2820   -8.8797    0.0000 C   0  0  0  0  0  0  0  0  0  0  0  0
   11.2856   -9.9944    0.0000 C   0  0  0  0  0  0  0  0  0  0  0  0
   12.7529   -9.6825    0.0000 C   0  0  0  0  0  0  0  0  0  0  0  0
   13.7566  -10.7973    0.0000 N   0  0  0  0  0  0  0  0  0  0  0  0
   15.2483  -10.6405    0.0000 C   0  0  0  0  0  0  0  0  0  0  0  0
   15.8585  -12.0108    0.0000 C   0  0  0  0  0  0  0  0  0  0  0  0
   14.7437  -13.0145    0.0000 C   0  0  0  0  0  0  0  0  0  0  0  0
   14.9005  -14.5063    0.0000 O   0  0  0  0  0  0  0  0  0  0  0  0
   13.4447  -12.2645    0.0000 C   0  0  0  0  0  0  0  0  0  0  0  0
   13.2164   -8.2560    0.0000 C   0  0  0  0  0  0  0  0  0  0  0  0
   12.2127   -7.1412    0.0000 C   0  0  0  0  0  0  0  0  0  0  0  0
    3.7500   -6.4952    0.0000 C   0  0  0  0  0  0  0  0  0  0  0  0
    3.0000   -5.1962    0.0000 C   0  0  0  0  0  0  0  0  0  0  0  0
  1  2  2  0
  2  3  1  0
  3  4  1  0
  4  5  2  0
  5  6  1  0
  6  7  2  0
  7  8  1  0
  8  9  2  0
  2 10  1  0
 10 11  2  0
 11 12  1  0
 12 13  2  0
 13 14  1  0
 14 15  2  0
 15 16  1  0
 16 17  2  0
 17 18  1  0
 18 19  2  0
 19 20  1  0
 20 21  2  0
 20 22  1  0
 22 23  1  0
 23 24  2  0
 24 25  1  0
 25 26  2  0
 26 27  1  0
 27 28  1  0
 28 29  1  0
 29 30  1  0
 30 31  1  0
 31 32  1  0
 32 33  1  0
 33 34  1  0
 34 35  1  0
 35 36  1  0
 35 37  1  0
 31 38  1  0
 38 39  1  0
 13 40  1  0
 40 41  1  0
  9  4  1  0
 41 10  1  0
 19 14  1  0
 27 23  1  0
 39 28  1  0
 37 32  1  0
M  END
>  <Title>  (684) 
idAAYJgen6

$$$$

     RDKit          2D

 33 36  0  0  0  0  0  0  0  0999 V2000
   -7.5432   -1.0216    0.0000 C   0  0  0  0  0  0  0  0  0  0  0  0
   -6.3297   -0.1399    0.0000 C   0  0  0  0  0  0  0  0  0  0  0  0
   -6.4864    1.3519    0.0000 O   0  0  0  0  0  0  0  0  0  0  0  0
   -4.9593   -0.7500    0.0000 C   0  0  0  0  0  0  0  0  0  0  0  0
   -4.8025   -2.2418    0.0000 O   0  0  0  0  0  0  0  0  0  0  0  0
   -3.7458    0.1317    0.0000 C   0  0  0  0  0  0  0  0  0  0  0  0
   -4.2093    1.5583    0.0000 C   0  0  0  0  0  0  0  0  0  0  0  0
   -3.7458    2.9848    0.0000 C   0  0  0  0  0  0  0  0  0  0  0  0
   -2.5323    3.8665    0.0000 N   0  0  0  0  0  0  0  0  0  0  0  0
   -1.0323    3.8665    0.0000 C   0  0  0  0  0  0  0  0  0  0  0  0
    0.1812    2.9848    0.0000 C   0  0  0  0  0  0  0  0  0  0  0  0
    0.3943    1.2135    0.0000 C   0  0  0  0  0  0  0  0  0  0  0  0
    1.2760    0.0000    0.0000 C   0  0  0  0  0  0  0  0  0  0  0  0
    0.3943   -1.2135    0.0000 C   0  0  0  0  0  0  0  0  0  0  0  0
   -1.0323   -0.7500    0.0000 C   0  0  0  0  0  0  0  0  0  0  0  0
   -2.5323   -0.7500    0.0000 C   0  0  0  0  0  0  0  0  0  0  0  0
   -1.0323    0.7500    0.0000 C   0  0  0  0  0  0  0  0  0  0  0  0
   -2.2458    1.6317    0.0000 C   0  0  0  0  0  0  0  0  0  0  0  0
   -3.6161    1.0216    0.0000 O   0  0  0  0  0  0  0  0  0  0  0  0
   -2.0890    3.1235    0.0000 N   0  0  0  0  0  0  0  0  0  0  0  0
   -3.2037    4.1272    0.0000 C   0  0  0  0  0  0  0  0  0  0  0  0
   -2.5936    5.4975    0.0000 C   0  0  0  0  0  0  0  0  0  0  0  0
   -1.1018    5.3407    0.0000 C   0  0  0  0  0  0  0  0  0  0  0  0
   -0.0982    6.4554    0.0000 C   0  0  0  0  0  0  0  0  0  0  0  0
   -0.5617    7.8820    0.0000 O   0  0  0  0  0  0  0  0  0  0  0  0
    1.3691    6.1435    0.0000 N   0  0  0  0  0  0  0  0  0  0  0  0
    2.3728    7.2582    0.0000 C   0  0  0  0  0  0  0  0  0  0  0  0
    3.8400    6.9464    0.0000 N   0  0  0  0  0  0  0  0  0  0  0  0
    4.8437    8.0611    0.0000 N   0  0  0  0  0  0  0  0  0  0  0  0
    4.3802    9.4877    0.0000 N   0  0  0  0  0  0  0  0  0  0  0  0
    2.9129    9.7996    0.0000 N   0  0  0  0  0  0  0  0  0  0  0  0
    1.9092    8.6848    0.0000 N   0  0  0  0  0  0  0  0  0  0  0  0
   -0.7900    3.8735    0.0000 C   0  0  0  0  0  0  0  0  0  0  0  0
  1  2  2  0
  2  3  1  0
  2  4  1  0
  4  5  2  0
  4  6  1  0
  6  7  1  0
  7  8  2  0
  8  9  1  0
  9 10  2  0
 10 11  1  0
 11 12  1  0
 12 13  1  0
 13 14  1  0
 14 15  1  0
 15 16  1  0
 15 17  1  0
 17 18  1  0
 18 19  2  0
 18 20  1  0
 20 21  1  0
 21 22  2  0
 22 23  1  0
 23 24  1  0
 24 25  2  0
 24 26  1  0
 26 27  1  0
 27 28  2  0
 28 29  1  0
 29 30  2  0
 30 31  1  0
 31 32  2  0
 23 33  1  0
 16  6  1  0
 33 20  1  0
 17 12  1  0
 32 27  1  0
M  END
>  <Title>  (685) 
idAAYKgen6

$$$$

     RDKit          2D

 33 36  0  0  0  0  0  0  0  0999 V2000
    9.1257   -9.8294    0.0000 C   0  0  0  0  0  0  0  0  0  0  0  0
    9.0544   -8.3311    0.0000 C   0  0  0  0  0  0  0  0  0  0  0  0
    8.9830   -6.8328    0.0000 C   0  0  0  0  0  0  0  0  0  0  0  0
   10.5527   -8.2597    0.0000 C   0  0  0  0  0  0  0  0  0  0  0  0
    7.5561   -8.4024    0.0000 C   0  0  0  0  0  0  0  0  0  0  0  0
    6.0578   -8.4738    0.0000 C   0  0  0  0  0  0  0  0  0  0  0  0
    4.5595   -8.5452    0.0000 C   0  0  0  0  0  0  0  0  0  0  0  0
    3.7485   -7.2833    0.0000 C   0  0  0  0  0  0  0  0  0  0  0  0
    4.4358   -5.9501    0.0000 O   0  0  0  0  0  0  0  0  0  0  0  0
    2.2502   -7.3547    0.0000 N   0  0  0  0  0  0  0  0  0  0  0  0
    1.4392   -6.0928    0.0000 C   0  0  0  0  0  0  0  0  0  0  0  0
    2.4215   -4.9592    0.0000 C   0  0  0  0  0  0  0  0  0  0  0  0
    2.6350   -3.4744    0.0000 C   0  0  0  0  0  0  0  0  0  0  0  0
    3.9995   -2.8513    0.0000 C   0  0  0  0  0  0  0  0  0  0  0  0
    3.3763   -1.4869    0.0000 C   0  0  0  0  0  0  0  0  0  0  0  0
    2.0119   -2.1100    0.0000 C   0  0  0  0  0  0  0  0  0  0  0  0
    0.7500   -1.2990    0.0000 C   0  0  0  0  0  0  0  0  0  0  0  0
    1.5000    0.0000    0.0000 C   0  0  0  0  0  0  0  0  0  0  0  0
    0.7500    1.2990    0.0000 C   0  0  0  0  0  0  0  0  0  0  0  0
   -0.7500    1.2990    0.0000 C   0  0  0  0  0  0  0  0  0  0  0  0
   -1.5000    0.0000    0.0000 C   0  0  0  0  0  0  0  0  0  0  0  0
   -0.7500   -1.2990    0.0000 C   0  0  0  0  0  0  0  0  0  0  0  0
   -2.0119   -2.1100    0.0000 C   0  0  0  0  0  0  0  0  0  0  0  0
   -3.1455   -1.1277    0.0000 O   0  0  0  0  0  0  0  0  0  0  0  0
   -2.6350   -3.4744    0.0000 O   0  0  0  0  0  0  0  0  0  0  0  0
   -2.4215   -4.9592    0.0000 C   0  0  0  0  0  0  0  0  0  0  0  0
   -3.8944   -5.2431    0.0000 C   0  0  0  0  0  0  0  0  0  0  0  0
   -4.3850   -6.6606    0.0000 C   0  0  0  0  0  0  0  0  0  0  0  0
   -3.4027   -7.7942    0.0000 C   0  0  0  0  0  0  0  0  0  0  0  0
   -1.9298   -7.5103    0.0000 C   0  0  0  0  0  0  0  0  0  0  0  0
   -1.4392   -6.0928    0.0000 C   0  0  0  0  0  0  0  0  0  0  0  0
   -0.0000   -6.5154    0.0000 C   0  0  0  0  0  0  0  0  0  0  0  0
   -0.0000   -8.0154    0.0000 O   0  0  0  0  0  0  0  0  0  0  0  0
  1  2  1  0
  2  3  1  0
  2  4  1  0
  2  5  1  0
  5  6  3  0
  6  7  1  0
  7  8  1  0
  8  9  2  0
  8 10  1  0
 10 11  1  0
 11 12  1  0
 12 13  1  0
 13 14  1  0
 14 15  1  0
 15 16  1  0
 16 17  1  0
 17 18  2  0
 18 19  1  0
 19 20  2  0
 20 21  1  0
 21 22  2  0
 22 23  1  0
 23 24  2  0
 23 25  1  0
 25 26  1  0
 26 27  2  0
 27 28  1  0
 28 29  2  0
 29 30  1  0
 30 31  2  0
 31 32  1  0
 32 33  2  0
 32 11  1  0
 16 13  1  0
 22 17  1  0
 31 26  1  0
M  END
>  <Title>  (686) 
idAAYLgen6

$$$$

     RDKit          2D

 16 17  0  0  0  0  0  0  0  0999 V2000
    6.3579   -8.4259    0.0000 C   0  0  0  0  0  0  0  0  0  0  0  0
    6.2011   -6.9341    0.0000 C   0  0  0  0  0  0  0  0  0  0  0  0
    7.4146   -6.0524    0.0000 O   0  0  0  0  0  0  0  0  0  0  0  0
    4.8308   -6.3240    0.0000 O   0  0  0  0  0  0  0  0  0  0  0  0
    4.6740   -4.8322    0.0000 C   0  0  0  0  0  0  0  0  0  0  0  0
    3.3037   -4.2221    0.0000 C   0  0  0  0  0  0  0  0  0  0  0  0
    2.9918   -2.7549    0.0000 C   0  0  0  0  0  0  0  0  0  0  0  0
    1.5000   -2.5981    0.0000 C   0  0  0  0  0  0  0  0  0  0  0  0
    0.7500   -1.2990    0.0000 C   0  0  0  0  0  0  0  0  0  0  0  0
    1.5000    0.0000    0.0000 C   0  0  0  0  0  0  0  0  0  0  0  0
    0.7500    1.2990    0.0000 C   0  0  0  0  0  0  0  0  0  0  0  0
   -0.7500    1.2990    0.0000 C   0  0  0  0  0  0  0  0  0  0  0  0
   -1.5000    0.0000    0.0000 C   0  0  0  0  0  0  0  0  0  0  0  0
   -0.7500   -1.2990    0.0000 C   0  0  0  0  0  0  0  0  0  0  0  0
    0.8899   -3.9684    0.0000 C   0  0  0  0  0  0  0  0  0  0  0  0
    2.0046   -4.9721    0.0000 C   0  0  0  0  0  0  0  0  0  0  0  0
  1  2  1  0
  2  3  2  0
  2  4  1  0
  4  5  1  0
  5  6  1  0
  6  7  2  0
  7  8  1  0
  8  9  1  0
  9 10  2  0
 10 11  1  0
 11 12  2  0
 12 13  1  0
 13 14  2  0
  8 15  1  0
 15 16  1  0
 16  6  1  0
 14  9  1  0
M  END
>  <Title>  (687) 
idAAYMgen6

$$$$

     RDKit          2D

 19 21  0  0  0  0  0  0  0  0999 V2000
   -2.6401   -3.1891    0.0000 C   0  0  0  0  0  0  0  0  0  0  0  0
   -1.2135   -2.7256    0.0000 C   0  0  0  0  0  0  0  0  0  0  0  0
   -0.0000   -3.6073    0.0000 C   0  0  0  0  0  0  0  0  0  0  0  0
    1.2135   -2.7256    0.0000 C   0  0  0  0  0  0  0  0  0  0  0  0
    2.6401   -3.1891    0.0000 C   0  0  0  0  0  0  0  0  0  0  0  0
    3.7548   -2.1855    0.0000 O   0  0  0  0  0  0  0  0  0  0  0  0
    2.9520   -4.6564    0.0000 N   0  0  0  0  0  0  0  0  0  0  0  0
    4.3786   -5.1199    0.0000 C   0  0  0  0  0  0  0  0  0  0  0  0
    4.6904   -6.5871    0.0000 N   0  0  0  0  0  0  0  0  0  0  0  0
    6.1170   -7.0506    0.0000 N   0  0  0  0  0  0  0  0  0  0  0  0
    7.2317   -6.0469    0.0000 N   0  0  0  0  0  0  0  0  0  0  0  0
    6.9199   -4.5797    0.0000 N   0  0  0  0  0  0  0  0  0  0  0  0
    5.4933   -4.1162    0.0000 N   0  0  0  0  0  0  0  0  0  0  0  0
    0.7500   -1.2990    0.0000 C   0  0  0  0  0  0  0  0  0  0  0  0
    1.5000    0.0000    0.0000 C   0  0  0  0  0  0  0  0  0  0  0  0
    0.7500    1.2990    0.0000 C   0  0  0  0  0  0  0  0  0  0  0  0
   -0.7500    1.2990    0.0000 C   0  0  0  0  0  0  0  0  0  0  0  0
   -1.5000    0.0000    0.0000 C   0  0  0  0  0  0  0  0  0  0  0  0
   -0.7500   -1.2990    0.0000 C   0  0  0  0  0  0  0  0  0  0  0  0
  1  2  1  0
  2  3  1  0
  3  4  2  0
  4  5  1  0
  5  6  2  0
  5  7  1  0
  7  8  1  0
  8  9  2  0
  9 10  1  0
 10 11  2  0
 11 12  1  0
 12 13  2  0
  4 14  1  0
 14 15  2  0
 15 16  1  0
 16 17  2  0
 17 18  1  0
 18 19  2  0
 19  2  1  0
 13  8  1  0
 19 14  1  0
M  END
>  <Title>  (688) 
idAAYNgen6

$$$$

     RDKit          2D

  5  5  0  0  0  0  0  0  0  0999 V2000
    1.2760    0.0000    0.0000 C   0  0  0  0  0  0  0  0  0  0  0  0
    0.3943    1.2135    0.0000 C   0  0  0  0  0  0  0  0  0  0  0  0
   -1.0323    0.7500    0.0000 C   0  0  0  0  0  0  0  0  0  0  0  0
   -1.0323   -0.7500    0.0000 C   0  0  0  0  0  0  0  0  0  0  0  0
    0.3943   -1.2135    0.0000 C   0  0  0  0  0  0  0  0  0  0  0  0
  1  2  2  0
  2  3  1  0
  3  4  1  0
  4  5  2  0
  5  1  1  0
M  END
>  <Title>  (689) 
idAAYOgen6

$$$$

     RDKit          2D

 14 14  0  0  0  0  0  0  0  0999 V2000
    2.8817   -4.9418    0.0000 C   0  0  0  0  0  0  0  0  0  0  0  0
    3.1935   -3.4746    0.0000 C   0  0  0  0  0  0  0  0  0  0  0  0
    4.6201   -3.0111    0.0000 O   0  0  0  0  0  0  0  0  0  0  0  0
    2.0788   -2.4709    0.0000 O   0  0  0  0  0  0  0  0  0  0  0  0
    2.3907   -1.0037    0.0000 C   0  0  0  0  0  0  0  0  0  0  0  0
    3.8173   -0.5402    0.0000 O   0  0  0  0  0  0  0  0  0  0  0  0
    1.2760    0.0000    0.0000 C   0  0  0  0  0  0  0  0  0  0  0  0
    2.3907    1.0037    0.0000 C   0  0  0  0  0  0  0  0  0  0  0  0
    0.3943    1.2135    0.0000 C   0  0  0  0  0  0  0  0  0  0  0  0
   -1.0323    0.7500    0.0000 C   0  0  0  0  0  0  0  0  0  0  0  0
   -1.0323   -0.7500    0.0000 C   0  0  0  0  0  0  0  0  0  0  0  0
   -2.2458   -1.6317    0.0000 O   0  0  0  0  0  0  0  0  0  0  0  0
    0.3943   -1.2135    0.0000 C   0  0  0  0  0  0  0  0  0  0  0  0
    0.8578   -2.6401    0.0000 O   0  0  0  0  0  0  0  0  0  0  0  0
  1  2  1  0
  2  3  2  0
  2  4  1  0
  4  5  1  0
  5  6  2  0
  5  7  1  0
  7  8  1  0
  7  9  1  0
  9 10  1  0
 10 11  1  0
 11 12  1  0
 11 13  1  0
 13 14  1  0
 13  7  1  0
M  END
>  <Title>  (690) 
idAAYPgen6

$$$$

     RDKit          2D

 32 34  0  0  0  0  0  0  0  0999 V2000
    8.6134    0.8346    0.0000 C   0  0  0  0  0  0  0  0  0  0  0  0
    7.7136   -0.3656    0.0000 C   0  0  0  0  0  0  0  0  0  0  0  0
    6.8139   -1.5658    0.0000 C   0  0  0  0  0  0  0  0  0  0  0  0
    8.9138   -1.2653    0.0000 O   0  0  0  0  0  0  0  0  0  0  0  0
    6.5134    0.5342    0.0000 C   0  0  0  0  0  0  0  0  0  0  0  0
    6.6925    2.0234    0.0000 C   0  0  0  0  0  0  0  0  0  0  0  0
    5.4923    2.9232    0.0000 C   0  0  0  0  0  0  0  0  0  0  0  0
    5.6714    4.4124    0.0000 C   0  0  0  0  0  0  0  0  0  0  0  0
    7.0507    5.0020    0.0000 O   0  0  0  0  0  0  0  0  0  0  0  0
    4.4712    5.3122    0.0000 C   0  0  0  0  0  0  0  0  0  0  0  0
    3.0919    4.7226    0.0000 C   0  0  0  0  0  0  0  0  0  0  0  0
    3.2264    3.2287    0.0000 C   0  0  0  0  0  0  0  0  0  0  0  0
    4.6888    2.8949    0.0000 O   0  0  0  0  0  0  0  0  0  0  0  0
    2.4570    1.9410    0.0000 O   0  0  0  0  0  0  0  0  0  0  0  0
    1.0777    1.3515    0.0000 C   0  0  0  0  0  0  0  0  0  0  0  0
    1.7286    0.0000    0.0000 C   0  0  0  0  0  0  0  0  0  0  0  0
    1.0777   -1.3515    0.0000 C   0  0  0  0  0  0  0  0  0  0  0  0
   -0.3846   -1.6852    0.0000 C   0  0  0  0  0  0  0  0  0  0  0  0
   -0.7184   -3.1476    0.0000 O   0  0  0  0  0  0  0  0  0  0  0  0
   -1.5574   -0.7500    0.0000 C   0  0  0  0  0  0  0  0  0  0  0  0
   -1.5574    0.7500    0.0000 C   0  0  0  0  0  0  0  0  0  0  0  0
   -0.3846    1.6852    0.0000 C   0  0  0  0  0  0  0  0  0  0  0  0
   -1.3716    2.8148    0.0000 C   0  0  0  0  0  0  0  0  0  0  0  0
   -1.5060    4.3088    0.0000 C   0  0  0  0  0  0  0  0  0  0  0  0
   -0.7367    5.5965    0.0000 C   0  0  0  0  0  0  0  0  0  0  0  0
    0.6426    6.1860    0.0000 C   0  0  0  0  0  0  0  0  0  0  0  0
    2.1050    5.8522    0.0000 C   0  0  0  0  0  0  0  0  0  0  0  0
    2.8744    7.1399    0.0000 C   0  0  0  0  0  0  0  0  0  0  0  0
    2.2848    8.5192    0.0000 C   0  0  0  0  0  0  0  0  0  0  0  0
    3.4144    9.5061    0.0000 C   0  0  0  0  0  0  0  0  0  0  0  0
    4.7021    8.7368    0.0000 C   0  0  0  0  0  0  0  0  0  0  0  0
    4.3683    7.2744    0.0000 C   0  0  0  0  0  0  0  0  0  0  0  0
  1  2  1  0
  2  3  1  0
  2  4  1  0
  2  5  1  0
  5  6  1  0
  6  7  1  0
  7  8  1  0
  8  9  1  0
  8 10  1  0
 10 11  1  0
 11 12  1  0
 12 13  2  0
 12 14  1  0
 14 15  1  0
 15 16  2  0
 16 17  1  0
 17 18  2  0
 18 19  1  0
 18 20  1  0
 20 21  2  0
 21 22  1  0
 22 23  2  0
 23 24  1  0
 24 25  2  0
 25 26  1  0
 26 27  2  0
 27 28  1  0
 28 29  2  0
 29 30  1  0
 30 31  2  0
 31 32  1  0
 27 11  1  0
 32 28  1  0
 22 15  1  0
M  END
>  <Title>  (691) 
idAAYQgen6

$$$$

     RDKit          2D

 26 29  0  0  0  0  0  0  0  0999 V2000
    3.3107   -8.3323    0.0000 C   0  0  0  0  0  0  0  0  0  0  0  0
    2.5607   -7.0333    0.0000 C   0  0  0  0  0  0  0  0  0  0  0  0
    1.1118   -6.6450    0.0000 C   0  0  0  0  0  0  0  0  0  0  0  0
    1.5000   -5.1962    0.0000 C   0  0  0  0  0  0  0  0  0  0  0  0
    0.7500   -3.8971    0.0000 C   0  0  0  0  0  0  0  0  0  0  0  0
   -0.7500   -3.8971    0.0000 O   0  0  0  0  0  0  0  0  0  0  0  0
    1.5000   -2.5981    0.0000 N   0  0  0  0  0  0  0  0  0  0  0  0
    0.7500   -1.2990    0.0000 C   0  0  0  0  0  0  0  0  0  0  0  0
    1.5000    0.0000    0.0000 N   0  0  0  0  0  0  0  0  0  0  0  0
    0.7500    1.2990    0.0000 N   0  0  0  0  0  0  0  0  0  0  0  0
   -0.7500    1.2990    0.0000 N   0  0  0  0  0  0  0  0  0  0  0  0
   -1.5000    0.0000    0.0000 N   0  0  0  0  0  0  0  0  0  0  0  0
   -3.0000    0.0000    0.0000 N   0  0  0  0  0  0  0  0  0  0  0  0
   -3.7500    1.2990    0.0000 C   0  0  0  0  0  0  0  0  0  0  0  0
   -5.2500    1.2990    0.0000 C   0  0  0  0  0  0  0  0  0  0  0  0
   -6.0000    0.0000    0.0000 N   0  0  0  0  0  0  0  0  0  0  0  0
   -7.5000    0.0000    0.0000 C   0  0  0  0  0  0  0  0  0  0  0  0
   -8.2500   -1.2990    0.0000 O   0  0  0  0  0  0  0  0  0  0  0  0
   -8.2500    1.2990    0.0000 C   0  0  0  0  0  0  0  0  0  0  0  0
   -7.8618    2.7479    0.0000 C   0  0  0  0  0  0  0  0  0  0  0  0
   -9.3107    3.1362    0.0000 C   0  0  0  0  0  0  0  0  0  0  0  0
   -9.6989    1.6873    0.0000 C   0  0  0  0  0  0  0  0  0  0  0  0
   -5.2500   -1.2990    0.0000 C   0  0  0  0  0  0  0  0  0  0  0  0
   -3.7500   -1.2990    0.0000 C   0  0  0  0  0  0  0  0  0  0  0  0
   -0.7500   -1.2990    0.0000 C   0  0  0  0  0  0  0  0  0  0  0  0
    2.9489   -5.5844    0.0000 C   0  0  0  0  0  0  0  0  0  0  0  0
  1  2  1  0
  2  3  2  0
  3  4  1  0
  4  5  1  0
  5  6  2  0
  5  7  1  0
  7  8  1  0
  8  9  2  0
  9 10  1  0
 10 11  2  0
 11 12  1  0
 12 13  1  0
 13 14  1  0
 14 15  1  0
 15 16  1  0
 16 17  1  0
 17 18  2  0
 17 19  1  0
 19 20  1  0
 20 21  1  0
 21 22  1  0
 16 23  1  0
 23 24  1  0
 12 25  1  0
  4 26  1  0
 26  2  1  0
 25  8  1  0
 24 13  1  0
 22 19  1  0
M  END
>  <Title>  (692) 
idAAYRgen6

$$$$

     RDKit          2D

 17 19  0  0  0  0  0  0  0  0999 V2000
    8.5549   -4.7740    0.0000 C   0  0  0  0  0  0  0  0  0  0  0  0
    7.0877   -5.0859    0.0000 C   0  0  0  0  0  0  0  0  0  0  0  0
    5.9730   -4.0822    0.0000 N   0  0  0  0  0  0  0  0  0  0  0  0
    4.6740   -4.8322    0.0000 C   0  0  0  0  0  0  0  0  0  0  0  0
    3.3037   -4.2221    0.0000 N   0  0  0  0  0  0  0  0  0  0  0  0
    2.0046   -4.9721    0.0000 C   0  0  0  0  0  0  0  0  0  0  0  0
    0.8899   -3.9684    0.0000 C   0  0  0  0  0  0  0  0  0  0  0  0
    1.5000   -2.5981    0.0000 C   0  0  0  0  0  0  0  0  0  0  0  0
    0.7500   -1.2990    0.0000 C   0  0  0  0  0  0  0  0  0  0  0  0
    1.5000    0.0000    0.0000 C   0  0  0  0  0  0  0  0  0  0  0  0
    0.7500    1.2990    0.0000 C   0  0  0  0  0  0  0  0  0  0  0  0
   -0.7500    1.2990    0.0000 C   0  0  0  0  0  0  0  0  0  0  0  0
   -1.5000    0.0000    0.0000 C   0  0  0  0  0  0  0  0  0  0  0  0
   -0.7500   -1.2990    0.0000 C   0  0  0  0  0  0  0  0  0  0  0  0
    2.9918   -2.7549    0.0000 C   0  0  0  0  0  0  0  0  0  0  0  0
    4.9858   -6.2994    0.0000 C   0  0  0  0  0  0  0  0  0  0  0  0
    6.4776   -6.4562    0.0000 C   0  0  0  0  0  0  0  0  0  0  0  0
  1  2  1  0
  2  3  2  0
  3  4  1  0
  4  5  1  0
  5  6  1  0
  6  7  1  0
  7  8  1  0
  8  9  1  0
  9 10  2  0
 10 11  1  0
 11 12  2  0
 12 13  1  0
 13 14  2  0
  8 15  1  0
  4 16  1  0
 16 17  1  0
 17  2  1  0
 15  5  1  0
 14  9  1  0
M  END
>  <Title>  (693) 
idAAYSgen6

$$$$

     RDKit          2D

 19 20  0  0  0  0  0  0  0  0999 V2000
    5.7760    2.5981    0.0000 C   0  0  0  0  0  0  0  0  0  0  0  0
    5.0260    1.2990    0.0000 C   0  0  0  0  0  0  0  0  0  0  0  0
    5.7760   -0.0000    0.0000 O   0  0  0  0  0  0  0  0  0  0  0  0
    3.5260    1.2990    0.0000 O   0  0  0  0  0  0  0  0  0  0  0  0
    2.7760    0.0000    0.0000 C   0  0  0  0  0  0  0  0  0  0  0  0
    1.2760    0.0000    0.0000 C   0  0  0  0  0  0  0  0  0  0  0  0
    0.3943    1.2135    0.0000 C   0  0  0  0  0  0  0  0  0  0  0  0
   -1.0323    0.7500    0.0000 C   0  0  0  0  0  0  0  0  0  0  0  0
   -1.0323   -0.7500    0.0000 C   0  0  0  0  0  0  0  0  0  0  0  0
    0.3943   -1.2135    0.0000 C   0  0  0  0  0  0  0  0  0  0  0  0
    0.8578   -2.6401    0.0000 C   0  0  0  0  0  0  0  0  0  0  0  0
    2.2844   -3.1036    0.0000 C   0  0  0  0  0  0  0  0  0  0  0  0
    2.2844   -4.6036    0.0000 C   0  0  0  0  0  0  0  0  0  0  0  0
    0.8578   -5.0672    0.0000 C   0  0  0  0  0  0  0  0  0  0  0  0
    0.3943   -6.4937    0.0000 C   0  0  0  0  0  0  0  0  0  0  0  0
    1.3980   -7.6085    0.0000 O   0  0  0  0  0  0  0  0  0  0  0  0
   -1.0729   -6.8056    0.0000 O   0  0  0  0  0  0  0  0  0  0  0  0
   -0.0239   -3.8536    0.0000 C   0  0  0  0  0  0  0  0  0  0  0  0
   -1.5239   -3.8536    0.0000 O   0  0  0  0  0  0  0  0  0  0  0  0
  1  2  1  0
  2  3  2  0
  2  4  1  0
  4  5  1  0
  5  6  1  0
  6  7  2  0
  7  8  1  0
  8  9  1  0
  9 10  2  0
 10 11  1  0
 11 12  2  0
 12 13  1  0
 13 14  2  0
 14 15  1  0
 15 16  2  0
 15 17  1  0
 14 18  1  0
 18 19  2  0
 10  6  1  0
 18 11  1  0
M  END
>  <Title>  (694) 
idAAYTgen6

$$$$

     RDKit          2D

 30 33  0  0  0  0  0  0  0  0999 V2000
   -0.7500   -3.8971    0.0000 O   0  0  0  0  0  0  0  0  0  0  0  0
    0.7500   -3.8971    0.0000 C   0  0  0  0  0  0  0  0  0  0  0  0
    1.5000   -2.5981    0.0000 N   0  0  0  0  0  0  0  0  0  0  0  0
    0.7500   -1.2990    0.0000 C   0  0  0  0  0  0  0  0  0  0  0  0
    1.5000    0.0000    0.0000 C   0  0  0  0  0  0  0  0  0  0  0  0
    0.7500    1.2990    0.0000 C   0  0  0  0  0  0  0  0  0  0  0  0
   -0.7500    1.2990    0.0000 C   0  0  0  0  0  0  0  0  0  0  0  0
   -1.5000    2.5981    0.0000 O   0  0  0  0  0  0  0  0  0  0  0  0
   -0.7500    3.8971    0.0000 C   0  0  0  0  0  0  0  0  0  0  0  0
    0.7500    3.8971    0.0000 C   0  0  0  0  0  0  0  0  0  0  0  0
    1.5000    5.1962    0.0000 C   0  0  0  0  0  0  0  0  0  0  0  0
    0.7500    6.4952    0.0000 C   0  0  0  0  0  0  0  0  0  0  0  0
   -0.7500    6.4952    0.0000 C   0  0  0  0  0  0  0  0  0  0  0  0
   -1.5000    5.1962    0.0000 C   0  0  0  0  0  0  0  0  0  0  0  0
   -1.5000    0.0000    0.0000 C   0  0  0  0  0  0  0  0  0  0  0  0
   -3.0000    0.0000    0.0000 O   0  0  0  0  0  0  0  0  0  0  0  0
   -0.7500   -1.2990    0.0000 N   0  0  0  0  0  0  0  0  0  0  0  0
   -1.5000   -2.5981    0.0000 C   0  0  0  0  0  0  0  0  0  0  0  0
   -3.0000   -2.5981    0.0000 C   0  0  0  0  0  0  0  0  0  0  0  0
   -3.7500   -1.2990    0.0000 C   0  0  0  0  0  0  0  0  0  0  0  0
   -5.2500   -1.2990    0.0000 C   0  0  0  0  0  0  0  0  0  0  0  0
   -6.0000   -2.5981    0.0000 C   0  0  0  0  0  0  0  0  0  0  0  0
   -5.2500   -3.8971    0.0000 C   0  0  0  0  0  0  0  0  0  0  0  0
   -3.7500   -3.8971    0.0000 C   0  0  0  0  0  0  0  0  0  0  0  0
    1.5000   -5.1962    0.0000 C   0  0  0  0  0  0  0  0  0  0  0  0
    0.7500   -6.4952    0.0000 C   0  0  0  0  0  0  0  0  0  0  0  0
    1.5000   -7.7942    0.0000 C   0  0  0  0  0  0  0  0  0  0  0  0
    3.0000   -7.7942    0.0000 C   0  0  0  0  0  0  0  0  0  0  0  0
    3.7500   -6.4952    0.0000 C   0  0  0  0  0  0  0  0  0  0  0  0
    3.0000   -5.1962    0.0000 C   0  0  0  0  0  0  0  0  0  0  0  0
  1  2  2  0
  2  3  1  0
  3  4  1  0
  4  5  2  0
  5  6  1  0
  6  7  2  0
  7  8  1  0
  8  9  1  0
  9 10  2  0
 10 11  1  0
 11 12  2  0
 12 13  1  0
 13 14  2  0
  7 15  1  0
 15 16  2  0
 15 17  1  0
 17 18  1  0
 18 19  1  0
 19 20  2  0
 20 21  1  0
 21 22  2  0
 22 23  1  0
 23 24  2  0
  2 25  1  0
 25 26  2  0
 26 27  1  0
 27 28  2  0
 28 29  1  0
 29 30  2  0
 17  4  1  0
 24 19  1  0
 30 25  1  0
 14  9  1  0
M  END
>  <Title>  (695) 
idAAYUgen6

$$$$

     RDKit          2D

 28 31  0  0  0  0  0  0  0  0999 V2000
    3.7500   -1.2990    0.0000 C   0  0  0  0  0  0  0  0  0  0  0  0
    3.0000    0.0000    0.0000 O   0  0  0  0  0  0  0  0  0  0  0  0
    1.5000    0.0000    0.0000 C   0  0  0  0  0  0  0  0  0  0  0  0
    0.7500   -1.2990    0.0000 C   0  0  0  0  0  0  0  0  0  0  0  0
   -0.7500   -1.2990    0.0000 C   0  0  0  0  0  0  0  0  0  0  0  0
   -1.5000    0.0000    0.0000 C   0  0  0  0  0  0  0  0  0  0  0  0
   -3.0000    0.0000    0.0000 N   0  0  0  0  0  0  0  0  0  0  0  0
   -3.7500    1.2990    0.0000 C   0  0  0  0  0  0  0  0  0  0  0  0
   -5.2500    1.2990    0.0000 C   0  0  0  0  0  0  0  0  0  0  0  0
   -6.0000    0.0000    0.0000 C   0  0  0  0  0  0  0  0  0  0  0  0
   -7.5000    0.0000    0.0000 N   0  0  0  0  0  0  0  0  0  0  0  0
   -8.3817   -1.2135    0.0000 C   0  0  0  0  0  0  0  0  0  0  0  0
   -9.8083   -0.7500    0.0000 C   0  0  0  0  0  0  0  0  0  0  0  0
   -9.8083    0.7500    0.0000 N   0  0  0  0  0  0  0  0  0  0  0  0
  -11.0218    1.6317    0.0000 C   0  0  0  0  0  0  0  0  0  0  0  0
  -12.3921    1.0216    0.0000 O   0  0  0  0  0  0  0  0  0  0  0  0
  -10.8650    3.1235    0.0000 N   0  0  0  0  0  0  0  0  0  0  0  0
  -12.0785    4.0051    0.0000 C   0  0  0  0  0  0  0  0  0  0  0  0
  -11.9217    5.4969    0.0000 C   0  0  0  0  0  0  0  0  0  0  0  0
  -13.1353    6.3786    0.0000 C   0  0  0  0  0  0  0  0  0  0  0  0
  -14.5056    5.7685    0.0000 C   0  0  0  0  0  0  0  0  0  0  0  0
  -14.6624    4.2767    0.0000 C   0  0  0  0  0  0  0  0  0  0  0  0
  -13.4488    3.3950    0.0000 C   0  0  0  0  0  0  0  0  0  0  0  0
   -8.3817    1.2135    0.0000 C   0  0  0  0  0  0  0  0  0  0  0  0
   -5.2500   -1.2990    0.0000 C   0  0  0  0  0  0  0  0  0  0  0  0
   -3.7500   -1.2990    0.0000 C   0  0  0  0  0  0  0  0  0  0  0  0
   -0.7500    1.2990    0.0000 C   0  0  0  0  0  0  0  0  0  0  0  0
    0.7500    1.2990    0.0000 C   0  0  0  0  0  0  0  0  0  0  0  0
  1  2  1  0
  2  3  1  0
  3  4  2  0
  4  5  1  0
  5  6  2  0
  6  7  1  0
  7  8  1  0
  8  9  1  0
  9 10  1  0
 10 11  1  0
 11 12  1  0
 12 13  1  0
 13 14  1  0
 14 15  1  0
 15 16  2  0
 15 17  1  0
 17 18  1  0
 18 19  2  0
 19 20  1  0
 20 21  2  0
 21 22  1  0
 22 23  2  0
 14 24  1  0
 10 25  1  0
 25 26  1  0
  6 27  1  0
 27 28  1  0
 28  3  1  0
 26  7  1  0
 24 11  1  0
 23 18  1  0
M  END
>  <Title>  (696) 
idAAYVgen6

$$$$

     RDKit          2D

 32 35  0  0  0  0  0  0  0  0999 V2000
   -4.2338   -8.2890    0.0000 C   0  0  0  0  0  0  0  0  0  0  0  0
   -3.0203   -7.4073    0.0000 C   0  0  0  0  0  0  0  0  0  0  0  0
   -1.6499   -8.0175    0.0000 O   0  0  0  0  0  0  0  0  0  0  0  0
   -3.1771   -5.9156    0.0000 O   0  0  0  0  0  0  0  0  0  0  0  0
   -1.9635   -5.0339    0.0000 C   0  0  0  0  0  0  0  0  0  0  0  0
   -0.7500   -5.9156    0.0000 N   0  0  0  0  0  0  0  0  0  0  0  0
    0.7500   -5.9156    0.0000 N   0  0  0  0  0  0  0  0  0  0  0  0
    1.9635   -5.0339    0.0000 C   0  0  0  0  0  0  0  0  0  0  0  0
    3.1771   -5.9156    0.0000 N   0  0  0  0  0  0  0  0  0  0  0  0
    4.6036   -5.4520    0.0000 C   0  0  0  0  0  0  0  0  0  0  0  0
    5.4853   -6.6656    0.0000 C   0  0  0  0  0  0  0  0  0  0  0  0
    4.6036   -7.8791    0.0000 C   0  0  0  0  0  0  0  0  0  0  0  0
    5.0672   -9.3057    0.0000 C   0  0  0  0  0  0  0  0  0  0  0  0
    6.5344   -9.6175    0.0000 O   0  0  0  0  0  0  0  0  0  0  0  0
    4.0635  -10.4204    0.0000 O   0  0  0  0  0  0  0  0  0  0  0  0
    3.1771   -7.4156    0.0000 C   0  0  0  0  0  0  0  0  0  0  0  0
    1.9635   -8.2972    0.0000 O   0  0  0  0  0  0  0  0  0  0  0  0
    2.4271   -3.6073    0.0000 C   0  0  0  0  0  0  0  0  0  0  0  0
    3.9271   -3.6073    0.0000 O   0  0  0  0  0  0  0  0  0  0  0  0
    1.9635   -2.1807    0.0000 N   0  0  0  0  0  0  0  0  0  0  0  0
    0.7500   -1.2990    0.0000 C   0  0  0  0  0  0  0  0  0  0  0  0
    1.5000    0.0000    0.0000 C   0  0  0  0  0  0  0  0  0  0  0  0
    0.7500    1.2990    0.0000 C   0  0  0  0  0  0  0  0  0  0  0  0
   -0.7500    1.2990    0.0000 C   0  0  0  0  0  0  0  0  0  0  0  0
   -1.5000    0.0000    0.0000 C   0  0  0  0  0  0  0  0  0  0  0  0
   -0.7500   -1.2990    0.0000 C   0  0  0  0  0  0  0  0  0  0  0  0
   -1.9635   -2.1807    0.0000 C   0  0  0  0  0  0  0  0  0  0  0  0
   -2.9672   -1.0660    0.0000 C   0  0  0  0  0  0  0  0  0  0  0  0
   -4.4344   -1.3779    0.0000 C   0  0  0  0  0  0  0  0  0  0  0  0
   -4.8980   -2.8045    0.0000 C   0  0  0  0  0  0  0  0  0  0  0  0
   -3.8943   -3.9192    0.0000 C   0  0  0  0  0  0  0  0  0  0  0  0
   -2.4271   -3.6073    0.0000 C   0  0  0  0  0  0  0  0  0  0  0  0
  1  2  1  0
  2  3  2  0
  2  4  1  0
  4  5  1  0
  5  6  2  0
  6  7  1  0
  7  8  2  0
  8  9  1  0
  9 10  1  0
 10 11  1  0
 11 12  1  0
 12 13  1  0
 13 14  2  0
 13 15  1  0
 12 16  1  0
 16 17  2  0
  8 18  1  0
 18 19  2  0
 18 20  1  0
 20 21  1  0
 21 22  2  0
 22 23  1  0
 23 24  2  0
 24 25  1  0
 25 26  2  0
 26 27  1  0
 27 28  2  0
 28 29  1  0
 29 30  2  0
 30 31  1  0
 31 32  2  0
 32  5  1  0
 16  9  1  0
 26 21  1  0
 32 27  1  0
M  END
>  <Title>  (697) 
idAAYWgen6

$$$$

     RDKit          2D

 17 19  0  0  0  0  0  0  0  0999 V2000
    3.0000   -2.5981    0.0000 O   0  0  0  0  0  0  0  0  0  0  0  0
    1.5000   -2.5981    0.0000 C   0  0  0  0  0  0  0  0  0  0  0  0
    0.7500   -3.8971    0.0000 N   0  0  0  0  0  0  0  0  0  0  0  0
    1.5000   -5.1962    0.0000 C   0  0  0  0  0  0  0  0  0  0  0  0
    0.7500   -6.4952    0.0000 C   0  0  0  0  0  0  0  0  0  0  0  0
    1.5000   -7.7942    0.0000 C   0  0  0  0  0  0  0  0  0  0  0  0
    3.0000   -7.7942    0.0000 C   0  0  0  0  0  0  0  0  0  0  0  0
    3.7500   -6.4952    0.0000 C   0  0  0  0  0  0  0  0  0  0  0  0
    3.0000   -5.1962    0.0000 C   0  0  0  0  0  0  0  0  0  0  0  0
    0.7500   -1.2990    0.0000 N   0  0  0  0  0  0  0  0  0  0  0  0
    1.5000    0.0000    0.0000 C   0  0  0  0  0  0  0  0  0  0  0  0
    0.7500    1.2990    0.0000 C   0  0  0  0  0  0  0  0  0  0  0  0
   -0.7500    1.2990    0.0000 C   0  0  0  0  0  0  0  0  0  0  0  0
   -2.2500    1.2990    0.0000 C   0  0  0  0  0  0  0  0  0  0  0  0
   -3.5490    2.0490    0.0000 O   0  0  0  0  0  0  0  0  0  0  0  0
   -1.5000    0.0000    0.0000 N   0  0  0  0  0  0  0  0  0  0  0  0
   -0.7500   -1.2990    0.0000 C   0  0  0  0  0  0  0  0  0  0  0  0
  1  2  2  0
  2  3  1  0
  3  4  1  0
  4  5  2  0
  5  6  1  0
  6  7  2  0
  7  8  1  0
  8  9  2  0
  2 10  1  0
 10 11  1  0
 11 12  1  0
 12 13  1  0
 13 14  1  0
 14 15  2  0
 14 16  1  0
 16 17  1  0
  9  4  1  0
 17 10  1  0
 16 13  1  0
M  END
>  <Title>  (698) 
idAAYXgen6

$$$$

     RDKit          2D

 12 13  0  0  0  0  0  0  0  0999 V2000
   -2.9520   -4.6564    0.0000 C   0  0  0  0  0  0  0  0  0  0  0  0
   -2.6401   -3.1891    0.0000 O   0  0  0  0  0  0  0  0  0  0  0  0
   -1.2135   -2.7256    0.0000 C   0  0  0  0  0  0  0  0  0  0  0  0
   -0.0000   -3.6073    0.0000 C   0  0  0  0  0  0  0  0  0  0  0  0
   -0.0000   -5.1073    0.0000 O   0  0  0  0  0  0  0  0  0  0  0  0
    1.2135   -2.7256    0.0000 O   0  0  0  0  0  0  0  0  0  0  0  0
    0.7500   -1.2990    0.0000 C   0  0  0  0  0  0  0  0  0  0  0  0
    1.5000    0.0000    0.0000 C   0  0  0  0  0  0  0  0  0  0  0  0
    0.7500    1.2990    0.0000 C   0  0  0  0  0  0  0  0  0  0  0  0
   -0.7500    1.2990    0.0000 C   0  0  0  0  0  0  0  0  0  0  0  0
   -1.5000    0.0000    0.0000 C   0  0  0  0  0  0  0  0  0  0  0  0
   -0.7500   -1.2990    0.0000 C   0  0  0  0  0  0  0  0  0  0  0  0
  1  2  1  0
  2  3  1  0
  3  4  1  0
  4  5  2  0
  4  6  1  0
  6  7  1  0
  7  8  2  0
  8  9  1  0
  9 10  2  0
 10 11  1  0
 11 12  2  0
 12  3  1  0
 12  7  1  0
M  END
>  <Title>  (699) 
idAAYYgen6

$$$$

     RDKit          2D

 27 30  0  0  0  0  0  0  0  0999 V2000
    3.0000    0.0000    0.0000 C   0  0  0  0  0  0  0  0  0  0  0  0
    1.5000    0.0000    0.0000 C   0  0  0  0  0  0  0  0  0  0  0  0
    0.7500   -1.2990    0.0000 C   0  0  0  0  0  0  0  0  0  0  0  0
   -0.7500   -1.2990    0.0000 C   0  0  0  0  0  0  0  0  0  0  0  0
   -1.5000    0.0000    0.0000 C   0  0  0  0  0  0  0  0  0  0  0  0
   -3.0000    0.0000    0.0000 C   0  0  0  0  0  0  0  0  0  0  0  0
   -3.7500   -1.2990    0.0000 O   0  0  0  0  0  0  0  0  0  0  0  0
   -3.7500    1.2990    0.0000 N   0  0  0  0  0  0  0  0  0  0  0  0
   -5.2500    1.2990    0.0000 C   0  0  0  0  0  0  0  0  0  0  0  0
   -6.1317    0.0855    0.0000 N   0  0  0  0  0  0  0  0  0  0  0  0
   -7.5583    0.5490    0.0000 N   0  0  0  0  0  0  0  0  0  0  0  0
   -7.5583    2.0490    0.0000 N   0  0  0  0  0  0  0  0  0  0  0  0
   -6.1317    2.5126    0.0000 N   0  0  0  0  0  0  0  0  0  0  0  0
   -5.6682    3.9391    0.0000 C   0  0  0  0  0  0  0  0  0  0  0  0
   -4.2009    4.2510    0.0000 C   0  0  0  0  0  0  0  0  0  0  0  0
   -3.7374    5.6776    0.0000 C   0  0  0  0  0  0  0  0  0  0  0  0
   -4.7411    6.7923    0.0000 C   0  0  0  0  0  0  0  0  0  0  0  0
   -6.2083    6.4805    0.0000 C   0  0  0  0  0  0  0  0  0  0  0  0
   -6.6718    5.0539    0.0000 C   0  0  0  0  0  0  0  0  0  0  0  0
   -8.1391    4.7420    0.0000 C   0  0  0  0  0  0  0  0  0  0  0  0
   -9.1428    5.8567    0.0000 C   0  0  0  0  0  0  0  0  0  0  0  0
  -10.6100    5.5448    0.0000 C   0  0  0  0  0  0  0  0  0  0  0  0
  -11.0735    4.1183    0.0000 C   0  0  0  0  0  0  0  0  0  0  0  0
  -10.0698    3.0035    0.0000 C   0  0  0  0  0  0  0  0  0  0  0  0
   -8.6026    3.3154    0.0000 C   0  0  0  0  0  0  0  0  0  0  0  0
   -0.7500    1.2990    0.0000 C   0  0  0  0  0  0  0  0  0  0  0  0
    0.7500    1.2990    0.0000 C   0  0  0  0  0  0  0  0  0  0  0  0
  1  2  1  0
  2  3  1  0
  3  4  2  0
  4  5  1  0
  5  6  1  0
  6  7  2  0
  6  8  1  0
  8  9  1  0
  9 10  2  0
 10 11  1  0
 11 12  2  0
 12 13  1  0
 13 14  1  0
 14 15  2  0
 15 16  1  0
 16 17  2  0
 17 18  1  0
 18 19  2  0
 19 20  1  0
 20 21  2  0
 21 22  1  0
 22 23  2  0
 23 24  1  0
 24 25  2  0
  5 26  1  0
 26 27  1  0
 27  2  1  0
 13  9  1  0
 19 14  1  0
 25 20  1  0
M  END
>  <Title>  (700) 
idAAYZgen6

$$$$

     RDKit          2D

 21 22  0  0  0  0  0  0  0  0999 V2000
    8.2500    1.2990    0.0000 C   0  0  0  0  0  0  0  0  0  0  0  0
    7.5000   -0.0000    0.0000 C   0  0  0  0  0  0  0  0  0  0  0  0
    8.2500   -1.2990    0.0000 O   0  0  0  0  0  0  0  0  0  0  0  0
    6.0000    0.0000    0.0000 C   0  0  0  0  0  0  0  0  0  0  0  0
    5.2500   -1.2990    0.0000 N   0  0  0  0  0  0  0  0  0  0  0  0
    6.0000   -2.5981    0.0000 C   0  0  0  0  0  0  0  0  0  0  0  0
    3.7500   -1.2990    0.0000 C   0  0  0  0  0  0  0  0  0  0  0  0
    3.0000   -2.5981    0.0000 O   0  0  0  0  0  0  0  0  0  0  0  0
    3.0000    0.0000    0.0000 C   0  0  0  0  0  0  0  0  0  0  0  0
    1.5000    0.0000    0.0000 N   0  0  0  0  0  0  0  0  0  0  0  0
    0.7500   -1.2990    0.0000 C   0  0  0  0  0  0  0  0  0  0  0  0
   -0.7500   -1.2990    0.0000 C   0  0  0  0  0  0  0  0  0  0  0  0
   -1.5000    0.0000    0.0000 C   0  0  0  0  0  0  0  0  0  0  0  0
   -3.0000    0.0000    0.0000 C   0  0  0  0  0  0  0  0  0  0  0  0
   -3.7500    1.2990    0.0000 C   0  0  0  0  0  0  0  0  0  0  0  0
   -5.2500    1.2990    0.0000 C   0  0  0  0  0  0  0  0  0  0  0  0
   -6.0000    0.0000    0.0000 C   0  0  0  0  0  0  0  0  0  0  0  0
   -5.2500   -1.2990    0.0000 C   0  0  0  0  0  0  0  0  0  0  0  0
   -3.7500   -1.2990    0.0000 C   0  0  0  0  0  0  0  0  0  0  0  0
   -0.7500    1.2990    0.0000 C   0  0  0  0  0  0  0  0  0  0  0  0
    0.7500    1.2990    0.0000 C   0  0  0  0  0  0  0  0  0  0  0  0
  1  2  1  0
  2  3  2  0
  2  4  1  0
  4  5  1  0
  5  6  1  0
  5  7  1  0
  7  8  2  0
  7  9  1  0
  9 10  1  0
 10 11  1  0
 11 12  2  0
 12 13  1  0
 13 14  1  0
 14 15  2  0
 15 16  1  0
 16 17  2  0
 17 18  1  0
 18 19  2  0
 13 20  1  0
 20 21  1  0
 21 10  1  0
 19 14  1  0
M  END
>  <Title>  (701) 
idAAZAgen6

$$$$

     RDKit          2D

 26 29  0  0  0  0  0  0  0  0999 V2000
    3.7500   -1.2990    0.0000 C   0  0  0  0  0  0  0  0  0  0  0  0
    3.0000    0.0000    0.0000 O   0  0  0  0  0  0  0  0  0  0  0  0
    1.5000    0.0000    0.0000 C   0  0  0  0  0  0  0  0  0  0  0  0
    0.7500   -1.2990    0.0000 C   0  0  0  0  0  0  0  0  0  0  0  0
   -0.7500   -1.2990    0.0000 C   0  0  0  0  0  0  0  0  0  0  0  0
   -1.5000   -2.5981    0.0000 C   0  0  0  0  0  0  0  0  0  0  0  0
   -1.5000    0.0000    0.0000 C   0  0  0  0  0  0  0  0  0  0  0  0
   -0.7500    1.2990    0.0000 C   0  0  0  0  0  0  0  0  0  0  0  0
    0.7500    1.2990    0.0000 C   0  0  0  0  0  0  0  0  0  0  0  0
    1.5000    2.5981    0.0000 C   0  0  0  0  0  0  0  0  0  0  0  0
    3.0000    2.5981    0.0000 C   0  0  0  0  0  0  0  0  0  0  0  0
    3.7500    3.8971    0.0000 C   0  0  0  0  0  0  0  0  0  0  0  0
    3.0000    5.1962    0.0000 C   0  0  0  0  0  0  0  0  0  0  0  0
    3.7500    6.4952    0.0000 N   0  0  0  0  0  0  0  0  0  0  0  0
    3.1399    7.8655    0.0000 C   0  0  0  0  0  0  0  0  0  0  0  0
    4.2546    8.8692    0.0000 C   0  0  0  0  0  0  0  0  0  0  0  0
    5.5537    8.1192    0.0000 C   0  0  0  0  0  0  0  0  0  0  0  0
    6.9240    8.7293    0.0000 N   0  0  0  0  0  0  0  0  0  0  0  0
    7.2358   10.1965    0.0000 C   0  0  0  0  0  0  0  0  0  0  0  0
    8.7276   10.3533    0.0000 C   0  0  0  0  0  0  0  0  0  0  0  0
    9.3377    8.9830    0.0000 C   0  0  0  0  0  0  0  0  0  0  0  0
    8.2230    7.9793    0.0000 C   0  0  0  0  0  0  0  0  0  0  0  0
    8.3798    6.4875    0.0000 O   0  0  0  0  0  0  0  0  0  0  0  0
    5.2418    6.6520    0.0000 C   0  0  0  0  0  0  0  0  0  0  0  0
    1.5000    5.1962    0.0000 C   0  0  0  0  0  0  0  0  0  0  0  0
    0.7500    3.8971    0.0000 C   0  0  0  0  0  0  0  0  0  0  0  0
  1  2  1  0
  2  3  1  0
  3  4  2  0
  4  5  1  0
  5  6  1  0
  5  7  1  0
  7  8  1  0
  8  9  2  0
  9 10  1  0
 10 11  2  0
 11 12  1  0
 12 13  2  0
 13 14  1  0
 14 15  1  0
 15 16  1  0
 16 17  1  0
 17 18  1  0
 18 19  1  0
 19 20  1  0
 20 21  1  0
 21 22  1  0
 22 23  2  0
 17 24  1  0
 13 25  1  0
 25 26  1  0
  9  3  1  0
 26 10  1  0
 24 14  1  0
 22 18  1  0
M  END
>  <Title>  (702) 
idAAZBgen6

$$$$

     RDKit          2D

  7  6  0  0  0  0  0  0  0  0999 V2000
    0.0000    0.0000    0.0000 C   0  0  0  0  0  0  0  0  0  0  0  0
    1.2990    0.7500    0.0000 C   0  0  0  0  0  0  0  0  0  0  0  0
    1.2990    2.2500    0.0000 O   0  0  0  0  0  0  0  0  0  0  0  0
    2.5981   -0.0000    0.0000 C   0  0  0  0  0  0  0  0  0  0  0  0
    3.8971   -0.7500    0.0000 C   0  0  0  0  0  0  0  0  0  0  0  0
    5.1962   -1.5000    0.0000 C   0  0  0  0  0  0  0  0  0  0  0  0
    6.4952   -2.2500    0.0000 N   0  0  0  0  0  0  0  0  0  0  0  0
  1  2  1  0
  2  3  2  0
  2  4  1  0
  4  5  3  0
  5  6  1  0
  6  7  3  0
M  END
>  <Title>  (703) 
idAAZCgen6

$$$$

     RDKit          2D

 24 26  0  0  0  0  0  0  0  0999 V2000
    1.3970   -5.0033    0.0000 O   0  0  0  0  0  0  0  0  0  0  0  0
    1.6317   -3.5218    0.0000 C   0  0  0  0  0  0  0  0  0  0  0  0
    2.8452   -2.6401    0.0000 O   0  0  0  0  0  0  0  0  0  0  0  0
    1.9635   -1.4266    0.0000 C   0  0  0  0  0  0  0  0  0  0  0  0
    2.4271    0.0000    0.0000 C   0  0  0  0  0  0  0  0  0  0  0  0
    1.9635    1.4266    0.0000 C   0  0  0  0  0  0  0  0  0  0  0  0
    0.7500    2.3083    0.0000 C   0  0  0  0  0  0  0  0  0  0  0  0
   -0.7500    2.3083    0.0000 C   0  0  0  0  0  0  0  0  0  0  0  0
   -1.9635    1.4266    0.0000 C   0  0  0  0  0  0  0  0  0  0  0  0
   -2.4271    0.0000    0.0000 N   0  0  0  0  0  0  0  0  0  0  0  0
   -3.9271    0.0000    0.0000 C   0  0  0  0  0  0  0  0  0  0  0  0
   -4.6771   -1.2990    0.0000 O   0  0  0  0  0  0  0  0  0  0  0  0
   -4.6771    1.2990    0.0000 N   0  0  0  0  0  0  0  0  0  0  0  0
   -6.1771    1.2990    0.0000 C   0  0  0  0  0  0  0  0  0  0  0  0
   -6.8279   -0.0524    0.0000 C   0  0  0  0  0  0  0  0  0  0  0  0
   -8.2903   -0.3862    0.0000 C   0  0  0  0  0  0  0  0  0  0  0  0
   -9.4630    0.5490    0.0000 C   0  0  0  0  0  0  0  0  0  0  0  0
   -9.4630    2.0490    0.0000 C   0  0  0  0  0  0  0  0  0  0  0  0
  -10.8145    2.6999    0.0000 Cl  0  0  0  0  0  0  0  0  0  0  0  0
   -8.2903    2.9843    0.0000 C   0  0  0  0  0  0  0  0  0  0  0  0
   -6.8279    2.6505    0.0000 C   0  0  0  0  0  0  0  0  0  0  0  0
   -1.9635   -1.4266    0.0000 C   0  0  0  0  0  0  0  0  0  0  0  0
   -0.7500   -2.3083    0.0000 C   0  0  0  0  0  0  0  0  0  0  0  0
    0.7500   -2.3083    0.0000 C   0  0  0  0  0  0  0  0  0  0  0  0
  1  2  2  0
  2  3  1  0
  3  4  1  0
  4  5  2  0
  5  6  1  0
  6  7  2  0
  7  8  1  0
  8  9  2  0
  9 10  1  0
 10 11  1  0
 11 12  2  0
 11 13  1  0
 13 14  1  0
 14 15  1  0
 15 16  1  0
 16 17  1  0
 17 18  1  0
 18 19  1  0
 18 20  1  0
 20 21  1  0
 10 22  1  0
 22 23  1  0
 23 24  1  0
 24  2  1  0
 24  4  1  0
 21 14  1  0
M  END
>  <Title>  (704) 
idAAZDgen6

$$$$

     RDKit          2D

 19 21  0  0  0  0  0  0  0  0999 V2000
   -2.6401   -3.1891    0.0000 C   0  0  0  0  0  0  0  0  0  0  0  0
   -1.2135   -2.7256    0.0000 C   0  0  0  0  0  0  0  0  0  0  0  0
   -0.0000   -3.6073    0.0000 C   0  0  0  0  0  0  0  0  0  0  0  0
    1.2135   -2.7256    0.0000 C   0  0  0  0  0  0  0  0  0  0  0  0
    2.6401   -3.1891    0.0000 C   0  0  0  0  0  0  0  0  0  0  0  0
    3.7548   -2.1855    0.0000 O   0  0  0  0  0  0  0  0  0  0  0  0
    2.9520   -4.6564    0.0000 N   0  0  0  0  0  0  0  0  0  0  0  0
    4.3786   -5.1199    0.0000 C   0  0  0  0  0  0  0  0  0  0  0  0
    4.6904   -6.5871    0.0000 N   0  0  0  0  0  0  0  0  0  0  0  0
    6.1170   -7.0506    0.0000 N   0  0  0  0  0  0  0  0  0  0  0  0
    7.2317   -6.0469    0.0000 N   0  0  0  0  0  0  0  0  0  0  0  0
    6.9199   -4.5797    0.0000 N   0  0  0  0  0  0  0  0  0  0  0  0
    5.4933   -4.1162    0.0000 N   0  0  0  0  0  0  0  0  0  0  0  0
    0.7500   -1.2990    0.0000 C   0  0  0  0  0  0  0  0  0  0  0  0
    1.5000    0.0000    0.0000 C   0  0  0  0  0  0  0  0  0  0  0  0
    0.7500    1.2990    0.0000 C   0  0  0  0  0  0  0  0  0  0  0  0
   -0.7500    1.2990    0.0000 C   0  0  0  0  0  0  0  0  0  0  0  0
   -1.5000    0.0000    0.0000 C   0  0  0  0  0  0  0  0  0  0  0  0
   -0.7500   -1.2990    0.0000 C   0  0  0  0  0  0  0  0  0  0  0  0
  1  2  1  0
  2  3  1  0
  3  4  1  0
  4  5  1  0
  5  6  2  0
  5  7  1  0
  7  8  1  0
  8  9  2  0
  9 10  1  0
 10 11  2  0
 11 12  1  0
 12 13  2  0
  4 14  1  0
 14 15  2  0
 15 16  1  0
 16 17  2  0
 17 18  1  0
 18 19  2  0
 19  2  1  0
 13  8  1  0
 19 14  1  0
M  END
>  <Title>  (705) 
idAAZEgen6

$$$$

     RDKit          2D

  9  9  0  0  0  0  0  0  0  0999 V2000
    3.4598   -0.0000    0.0000 C   0  0  0  0  0  0  0  0  0  0  0  0
    1.9598    0.0000    0.0000 C   0  0  0  0  0  0  0  0  0  0  0  0
    1.3858   -1.3858    0.0000 C   0  0  0  0  0  0  0  0  0  0  0  0
   -0.0000   -1.9598    0.0000 C   0  0  0  0  0  0  0  0  0  0  0  0
   -1.3858   -1.3858    0.0000 C   0  0  0  0  0  0  0  0  0  0  0  0
   -1.9598    0.0000    0.0000 C   0  0  0  0  0  0  0  0  0  0  0  0
   -1.3858    1.3858    0.0000 C   0  0  0  0  0  0  0  0  0  0  0  0
    0.0000    1.9598    0.0000 C   0  0  0  0  0  0  0  0  0  0  0  0
    1.3858    1.3858    0.0000 C   0  0  0  0  0  0  0  0  0  0  0  0
  1  2  1  0
  2  3  1  0
  3  4  2  0
  4  5  1  0
  5  6  2  0
  6  7  1  0
  7  8  2  0
  8  9  1  0
  9  2  1  0
M  END
>  <Title>  (706) 
idAAZFgen6

$$$$

     RDKit          2D

 19 21  0  0  0  0  0  0  0  0999 V2000
    3.0000    0.0000    0.0000 C   0  0  0  0  0  0  0  0  0  0  0  0
    1.5000    0.0000    0.0000 C   0  0  0  0  0  0  0  0  0  0  0  0
    0.7500   -1.2990    0.0000 C   0  0  0  0  0  0  0  0  0  0  0  0
   -0.7500   -1.2990    0.0000 C   0  0  0  0  0  0  0  0  0  0  0  0
   -1.5000    0.0000    0.0000 C   0  0  0  0  0  0  0  0  0  0  0  0
   -3.0000    0.0000    0.0000 N   0  0  0  0  0  0  0  0  0  0  0  0
   -3.7500    1.2990    0.0000 C   0  0  0  0  0  0  0  0  0  0  0  0
   -5.2500    1.2990    0.0000 C   0  0  0  0  0  0  0  0  0  0  0  0
   -6.0000    0.0000    0.0000 C   0  0  0  0  0  0  0  0  0  0  0  0
   -7.5000    0.0000    0.0000 C   0  0  0  0  0  0  0  0  0  0  0  0
   -8.2500    1.2990    0.0000 C   0  0  0  0  0  0  0  0  0  0  0  0
   -9.7500    1.2990    0.0000 C   0  0  0  0  0  0  0  0  0  0  0  0
  -10.5000    0.0000    0.0000 C   0  0  0  0  0  0  0  0  0  0  0  0
   -9.7500   -1.2990    0.0000 C   0  0  0  0  0  0  0  0  0  0  0  0
   -8.2500   -1.2990    0.0000 C   0  0  0  0  0  0  0  0  0  0  0  0
   -5.2500   -1.2990    0.0000 C   0  0  0  0  0  0  0  0  0  0  0  0
   -3.7500   -1.2990    0.0000 C   0  0  0  0  0  0  0  0  0  0  0  0
   -0.7500    1.2990    0.0000 C   0  0  0  0  0  0  0  0  0  0  0  0
    0.7500    1.2990    0.0000 C   0  0  0  0  0  0  0  0  0  0  0  0
  1  2  1  0
  2  3  1  0
  3  4  1  0
  4  5  1  0
  5  6  1  0
  6  7  1  0
  7  8  1  0
  8  9  1  0
  9 10  1  0
 10 11  2  0
 11 12  1  0
 12 13  2  0
 13 14  1  0
 14 15  2  0
  9 16  1  0
 16 17  1  0
  5 18  1  0
 18 19  1  0
 19  2  1  0
 17  6  1  0
 15 10  1  0
M  END
>  <Title>  (707) 
idAAZGgen6

$$$$

     RDKit          2D

 20 22  0  0  0  0  0  0  0  0999 V2000
   -3.0000   -2.5981    0.0000 C   0  0  0  0  0  0  0  0  0  0  0  0
   -1.5000   -2.5981    0.0000 C   0  0  0  0  0  0  0  0  0  0  0  0
   -0.7500   -3.8971    0.0000 C   0  0  0  0  0  0  0  0  0  0  0  0
    0.7500   -3.8971    0.0000 C   0  0  0  0  0  0  0  0  0  0  0  0
    1.5000   -2.5981    0.0000 C   0  0  0  0  0  0  0  0  0  0  0  0
    3.0000   -2.5981    0.0000 C   0  0  0  0  0  0  0  0  0  0  0  0
    3.7500   -1.2990    0.0000 O   0  0  0  0  0  0  0  0  0  0  0  0
    3.7500   -3.8971    0.0000 O   0  0  0  0  0  0  0  0  0  0  0  0
    5.2500   -3.8971    0.0000 C   0  0  0  0  0  0  0  0  0  0  0  0
    6.0000   -5.1962    0.0000 N   0  0  0  0  0  0  0  0  0  0  0  0
    7.5000   -5.1962    0.0000 N   0  0  0  0  0  0  0  0  0  0  0  0
    8.2500   -3.8971    0.0000 N   0  0  0  0  0  0  0  0  0  0  0  0
    7.5000   -2.5981    0.0000 N   0  0  0  0  0  0  0  0  0  0  0  0
    6.0000   -2.5981    0.0000 N   0  0  0  0  0  0  0  0  0  0  0  0
    0.7500   -1.2990    0.0000 C   0  0  0  0  0  0  0  0  0  0  0  0
    1.5000    0.0000    0.0000 C   0  0  0  0  0  0  0  0  0  0  0  0
    0.7500    1.2990    0.0000 C   0  0  0  0  0  0  0  0  0  0  0  0
   -0.7500    1.2990    0.0000 C   0  0  0  0  0  0  0  0  0  0  0  0
   -1.5000    0.0000    0.0000 C   0  0  0  0  0  0  0  0  0  0  0  0
   -0.7500   -1.2990    0.0000 C   0  0  0  0  0  0  0  0  0  0  0  0
  1  2  1  0
  2  3  1  0
  3  4  2  0
  4  5  1  0
  5  6  1  0
  6  7  2  0
  6  8  1  0
  8  9  1  0
  9 10  2  0
 10 11  1  0
 11 12  2  0
 12 13  1  0
 13 14  2  0
  5 15  1  0
 15 16  2  0
 16 17  1  0
 17 18  2  0
 18 19  1  0
 19 20  2  0
 20  2  1  0
 14  9  1  0
 20 15  1  0
M  END
>  <Title>  (708) 
idAAZHgen6

$$$$

     RDKit          2D

  9 10  0  0  0  0  0  0  0  0999 V2000
   -0.0000   -4.0981    0.0000 C   0  0  0  0  0  0  0  0  0  0  0  0
   -0.0000   -2.5981    0.0000 C   0  0  0  0  0  0  0  0  0  0  0  0
    0.7500   -1.2990    0.0000 C   0  0  0  0  0  0  0  0  0  0  0  0
    1.5000    0.0000    0.0000 C   0  0  0  0  0  0  0  0  0  0  0  0
    0.7500    1.2990    0.0000 C   0  0  0  0  0  0  0  0  0  0  0  0
   -0.7500    1.2990    0.0000 C   0  0  0  0  0  0  0  0  0  0  0  0
   -1.5000    2.5981    0.0000 O   0  0  0  0  0  0  0  0  0  0  0  0
   -1.5000    0.0000    0.0000 C   0  0  0  0  0  0  0  0  0  0  0  0
   -0.7500   -1.2990    0.0000 C   0  0  0  0  0  0  0  0  0  0  0  0
  1  2  1  0
  2  3  1  0
  3  4  2  0
  4  5  1  0
  5  6  2  0
  6  7  1  0
  6  8  1  0
  8  9  2  0
  9  2  1  0
  9  3  1  0
M  END
>  <Title>  (709) 
idAAZIgen6

$$$$

     RDKit          2D

 25 28  0  0  0  0  0  0  0  0999 V2000
    3.7500   -1.2990    0.0000 C   0  0  0  0  0  0  0  0  0  0  0  0
    3.0000    0.0000    0.0000 O   0  0  0  0  0  0  0  0  0  0  0  0
    1.5000    0.0000    0.0000 C   0  0  0  0  0  0  0  0  0  0  0  0
    0.7500   -1.2990    0.0000 C   0  0  0  0  0  0  0  0  0  0  0  0
   -0.7500   -1.2990    0.0000 C   0  0  0  0  0  0  0  0  0  0  0  0
   -1.5000    0.0000    0.0000 C   0  0  0  0  0  0  0  0  0  0  0  0
   -3.0000    0.0000    0.0000 N   0  0  0  0  0  0  0  0  0  0  0  0
   -3.8817   -1.2135    0.0000 C   0  0  0  0  0  0  0  0  0  0  0  0
   -5.3083   -0.7500    0.0000 C   0  0  0  0  0  0  0  0  0  0  0  0
   -5.3083    0.7500    0.0000 C   0  0  0  0  0  0  0  0  0  0  0  0
   -6.5218    1.6317    0.0000 C   0  0  0  0  0  0  0  0  0  0  0  0
   -6.3650    3.1235    0.0000 C   0  0  0  0  0  0  0  0  0  0  0  0
   -7.5785    4.0051    0.0000 C   0  0  0  0  0  0  0  0  0  0  0  0
   -8.9488    3.3950    0.0000 C   0  0  0  0  0  0  0  0  0  0  0  0
   -9.1056    1.9033    0.0000 C   0  0  0  0  0  0  0  0  0  0  0  0
   -7.8921    1.0216    0.0000 C   0  0  0  0  0  0  0  0  0  0  0  0
   -3.8817    1.2135    0.0000 C   0  0  0  0  0  0  0  0  0  0  0  0
   -3.4182    2.6401    0.0000 C   0  0  0  0  0  0  0  0  0  0  0  0
   -1.9509    2.9520    0.0000 C   0  0  0  0  0  0  0  0  0  0  0  0
   -1.4874    4.3786    0.0000 C   0  0  0  0  0  0  0  0  0  0  0  0
   -2.4911    5.4933    0.0000 C   0  0  0  0  0  0  0  0  0  0  0  0
   -3.9583    5.1814    0.0000 C   0  0  0  0  0  0  0  0  0  0  0  0
   -4.4218    3.7548    0.0000 C   0  0  0  0  0  0  0  0  0  0  0  0
   -0.7500    1.2990    0.0000 C   0  0  0  0  0  0  0  0  0  0  0  0
    0.7500    1.2990    0.0000 C   0  0  0  0  0  0  0  0  0  0  0  0
  1  2  1  0
  2  3  1  0
  3  4  2  0
  4  5  1  0
  5  6  2  0
  6  7  1  0
  7  8  1  0
  8  9  1  0
  9 10  1  0
 10 11  1  0
 11 12  2  0
 12 13  1  0
 13 14  2  0
 14 15  1  0
 15 16  2  0
 10 17  1  0
 17 18  1  0
 18 19  2  0
 19 20  1  0
 20 21  2  0
 21 22  1  0
 22 23  2  0
  6 24  1  0
 24 25  1  0
 25  3  1  0
 17  7  1  0
 23 18  1  0
 16 11  1  0
M  END
>  <Title>  (710) 
idAAZJgen6

$$$$

     RDKit          2D

  7  7  0  0  0  0  0  0  0  0999 V2000
    2.5607    0.0000    0.0000 C   0  0  0  0  0  0  0  0  0  0  0  0
    1.0607    0.0000    0.0000 C   0  0  0  0  0  0  0  0  0  0  0  0
   -0.0000   -1.0607    0.0000 C   0  0  0  0  0  0  0  0  0  0  0  0
   -1.0607    0.0000    0.0000 C   0  0  0  0  0  0  0  0  0  0  0  0
   -2.5607    0.0000    0.0000 O   0  0  0  0  0  0  0  0  0  0  0  0
    0.0000    1.0607    0.0000 C   0  0  0  0  0  0  0  0  0  0  0  0
    0.0000    2.5607    0.0000 C   0  0  0  0  0  0  0  0  0  0  0  0
  1  2  1  0
  2  3  1  0
  3  4  1  0
  4  5  1  0
  4  6  1  0
  6  7  1  0
  6  2  1  0
M  END
>  <Title>  (711) 
idAAZKgen6

$$$$

     RDKit          2D

  7  6  0  0  0  0  0  0  0  0999 V2000
    0.0000    0.0000    0.0000 C   0  0  0  0  0  0  0  0  0  0  0  0
    1.2990    0.7500    0.0000 C   0  0  0  0  0  0  0  0  0  0  0  0
    1.2990    2.2500    0.0000 O   0  0  0  0  0  0  0  0  0  0  0  0
    2.5981   -0.0000    0.0000 C   0  0  0  0  0  0  0  0  0  0  0  0
    3.8971    0.7500    0.0000 C   0  0  0  0  0  0  0  0  0  0  0  0
    5.1962   -0.0000    0.0000 C   0  0  0  0  0  0  0  0  0  0  0  0
    6.4952   -0.7500    0.0000 N   0  0  0  0  0  0  0  0  0  0  0  0
  1  2  1  0
  2  3  2  0
  2  4  1  0
  4  5  1  0
  5  6  1  0
  6  7  3  0
M  END
>  <Title>  (712) 
idAAZLgen6

$$$$

     RDKit          2D

 15 16  0  0  0  0  0  0  0  0999 V2000
    1.8478   -9.0619    0.0000 C   0  0  0  0  0  0  0  0  0  0  0  0
    2.0046   -7.5702    0.0000 C   0  0  0  0  0  0  0  0  0  0  0  0
    3.3037   -6.8202    0.0000 C   0  0  0  0  0  0  0  0  0  0  0  0
    2.9918   -5.3529    0.0000 C   0  0  0  0  0  0  0  0  0  0  0  0
    1.5000   -5.1962    0.0000 C   0  0  0  0  0  0  0  0  0  0  0  0
    0.7500   -3.8971    0.0000 C   0  0  0  0  0  0  0  0  0  0  0  0
   -0.7500   -3.8971    0.0000 O   0  0  0  0  0  0  0  0  0  0  0  0
    1.5000   -2.5981    0.0000 N   0  0  0  0  0  0  0  0  0  0  0  0
    0.7500   -1.2990    0.0000 C   0  0  0  0  0  0  0  0  0  0  0  0
    1.5000    0.0000    0.0000 N   0  0  0  0  0  0  0  0  0  0  0  0
    0.7500    1.2990    0.0000 C   0  0  0  0  0  0  0  0  0  0  0  0
   -0.7500    1.2990    0.0000 N   0  0  0  0  0  0  0  0  0  0  0  0
   -1.5000    0.0000    0.0000 N   0  0  0  0  0  0  0  0  0  0  0  0
   -0.7500   -1.2990    0.0000 N   0  0  0  0  0  0  0  0  0  0  0  0
    0.8899   -6.5665    0.0000 C   0  0  0  0  0  0  0  0  0  0  0  0
  1  2  1  0
  2  3  1  0
  3  4  1  0
  4  5  1  0
  5  6  1  0
  6  7  2  0
  6  8  1  0
  8  9  1  0
  9 10  2  0
 10 11  1  0
 11 12  2  0
 12 13  1  0
 13 14  2  0
  5 15  1  0
 15  2  1  0
 14  9  1  0
M  END
>  <Title>  (713) 
idAAZMgen6

$$$$

     RDKit          2D

 19 21  0  0  0  0  0  0  0  0999 V2000
   -6.0000   -7.7942    0.0000 C   0  0  0  0  0  0  0  0  0  0  0  0
   -5.2500   -6.4952    0.0000 C   0  0  0  0  0  0  0  0  0  0  0  0
   -6.0000   -5.1962    0.0000 C   0  0  0  0  0  0  0  0  0  0  0  0
   -5.2500   -3.8971    0.0000 C   0  0  0  0  0  0  0  0  0  0  0  0
   -3.7500   -3.8971    0.0000 C   0  0  0  0  0  0  0  0  0  0  0  0
   -3.0000   -2.5981    0.0000 O   0  0  0  0  0  0  0  0  0  0  0  0
   -1.5000   -2.5981    0.0000 C   0  0  0  0  0  0  0  0  0  0  0  0
   -0.7500   -3.8971    0.0000 C   0  0  0  0  0  0  0  0  0  0  0  0
    0.7500   -3.8971    0.0000 C   0  0  0  0  0  0  0  0  0  0  0  0
    1.5000   -5.1962    0.0000 O   0  0  0  0  0  0  0  0  0  0  0  0
    1.5000   -2.5981    0.0000 O   0  0  0  0  0  0  0  0  0  0  0  0
    0.7500   -1.2990    0.0000 C   0  0  0  0  0  0  0  0  0  0  0  0
    1.5000    0.0000    0.0000 C   0  0  0  0  0  0  0  0  0  0  0  0
    0.7500    1.2990    0.0000 C   0  0  0  0  0  0  0  0  0  0  0  0
   -0.7500    1.2990    0.0000 C   0  0  0  0  0  0  0  0  0  0  0  0
   -1.5000    0.0000    0.0000 C   0  0  0  0  0  0  0  0  0  0  0  0
   -0.7500   -1.2990    0.0000 C   0  0  0  0  0  0  0  0  0  0  0  0
   -3.0000   -5.1962    0.0000 C   0  0  0  0  0  0  0  0  0  0  0  0
   -3.7500   -6.4952    0.0000 C   0  0  0  0  0  0  0  0  0  0  0  0
  1  2  1  0
  2  3  1  0
  3  4  1  0
  4  5  1  0
  5  6  1  0
  6  7  1  0
  7  8  2  0
  8  9  1  0
  9 10  2  0
  9 11  1  0
 11 12  1  0
 12 13  2  0
 13 14  1  0
 14 15  2  0
 15 16  1  0
 16 17  2  0
  5 18  1  0
 18 19  1  0
 19  2  1  0
 17  7  1  0
 17 12  1  0
M  END
>  <Title>  (714) 
idAAZNgen6

$$$$

     RDKit          2D

 26 29  0  0  0  0  0  0  0  0999 V2000
   -3.0000   -2.5981    0.0000 C   0  0  0  0  0  0  0  0  0  0  0  0
   -1.5000   -2.5981    0.0000 C   0  0  0  0  0  0  0  0  0  0  0  0
   -0.7500   -3.8971    0.0000 C   0  0  0  0  0  0  0  0  0  0  0  0
    0.7500   -3.8971    0.0000 C   0  0  0  0  0  0  0  0  0  0  0  0
    1.5000   -2.5981    0.0000 C   0  0  0  0  0  0  0  0  0  0  0  0
    3.0000   -2.5981    0.0000 N   0  0  0  0  0  0  0  0  0  0  0  0
    3.7500   -3.8971    0.0000 C   0  0  0  0  0  0  0  0  0  0  0  0
    3.0000   -5.1962    0.0000 O   0  0  0  0  0  0  0  0  0  0  0  0
    5.2500   -3.8971    0.0000 C   0  0  0  0  0  0  0  0  0  0  0  0
    6.0000   -5.1962    0.0000 C   0  0  0  0  0  0  0  0  0  0  0  0
    7.5000   -5.1962    0.0000 C   0  0  0  0  0  0  0  0  0  0  0  0
    8.2500   -3.8971    0.0000 C   0  0  0  0  0  0  0  0  0  0  0  0
    7.5000   -2.5981    0.0000 C   0  0  0  0  0  0  0  0  0  0  0  0
    6.0000   -2.5981    0.0000 C   0  0  0  0  0  0  0  0  0  0  0  0
    5.2500   -1.2990    0.0000 C   0  0  0  0  0  0  0  0  0  0  0  0
    6.0000    0.0000    0.0000 C   0  0  0  0  0  0  0  0  0  0  0  0
    5.2500    1.2990    0.0000 C   0  0  0  0  0  0  0  0  0  0  0  0
    3.7500    1.2990    0.0000 C   0  0  0  0  0  0  0  0  0  0  0  0
    3.0000    0.0000    0.0000 C   0  0  0  0  0  0  0  0  0  0  0  0
    3.7500   -1.2990    0.0000 C   0  0  0  0  0  0  0  0  0  0  0  0
    0.7500   -1.2990    0.0000 C   0  0  0  0  0  0  0  0  0  0  0  0
    1.5000    0.0000    0.0000 C   0  0  0  0  0  0  0  0  0  0  0  0
    0.7500    1.2990    0.0000 C   0  0  0  0  0  0  0  0  0  0  0  0
   -0.7500    1.2990    0.0000 C   0  0  0  0  0  0  0  0  0  0  0  0
   -1.5000    0.0000    0.0000 C   0  0  0  0  0  0  0  0  0  0  0  0
   -0.7500   -1.2990    0.0000 C   0  0  0  0  0  0  0  0  0  0  0  0
  1  2  1  0
  2  3  1  0
  3  4  1  0
  4  5  1  0
  5  6  2  3
  6  7  1  0
  7  8  2  0
  7  9  1  0
  9 10  2  0
 10 11  1  0
 11 12  2  0
 12 13  1  0
 13 14  2  0
 14 15  1  0
 15 16  2  0
 16 17  1  0
 17 18  2  0
 18 19  1  0
 19 20  2  0
  5 21  1  0
 21 22  2  0
 22 23  1  0
 23 24  2  0
 24 25  1  0
 25 26  2  0
 26  2  1  0
 14  9  1  0
 20 15  1  0
 26 21  1  0
M  END
>  <Title>  (715) 
idAAZOgen6

$$$$

     RDKit          2D

 16 17  0  0  0  0  0  0  0  0999 V2000
   -0.7500   -3.8971    0.0000 O   0  0  0  0  0  0  0  0  0  0  0  0
    0.7500   -3.8971    0.0000 C   0  0  0  0  0  0  0  0  0  0  0  0
    1.5000   -2.5981    0.0000 N   0  0  0  0  0  0  0  0  0  0  0  0
    0.7500   -1.2990    0.0000 C   0  0  0  0  0  0  0  0  0  0  0  0
    1.5000    0.0000    0.0000 C   0  0  0  0  0  0  0  0  0  0  0  0
    0.7500    1.2990    0.0000 C   0  0  0  0  0  0  0  0  0  0  0  0
   -0.7500    1.2990    0.0000 C   0  0  0  0  0  0  0  0  0  0  0  0
   -1.5000    0.0000    0.0000 C   0  0  0  0  0  0  0  0  0  0  0  0
   -0.7500   -1.2990    0.0000 C   0  0  0  0  0  0  0  0  0  0  0  0
    1.5000   -5.1962    0.0000 C   0  0  0  0  0  0  0  0  0  0  0  0
    0.7500   -6.4952    0.0000 C   0  0  0  0  0  0  0  0  0  0  0  0
    1.5000   -7.7942    0.0000 C   0  0  0  0  0  0  0  0  0  0  0  0
    3.0000   -7.7942    0.0000 C   0  0  0  0  0  0  0  0  0  0  0  0
    3.7500   -9.0933    0.0000 O   0  0  0  0  0  0  0  0  0  0  0  0
    3.7500   -6.4952    0.0000 C   0  0  0  0  0  0  0  0  0  0  0  0
    3.0000   -5.1962    0.0000 C   0  0  0  0  0  0  0  0  0  0  0  0
  1  2  2  0
  2  3  1  0
  3  4  1  0
  4  5  2  0
  5  6  1  0
  6  7  2  0
  7  8  1  0
  8  9  2  0
  2 10  1  0
 10 11  2  0
 11 12  1  0
 12 13  2  0
 13 14  1  0
 13 15  1  0
 15 16  2  0
  9  4  1  0
 16 10  1  0
M  END
>  <Title>  (716) 
idAAZPgen6

$$$$

     RDKit          2D

 35 37  0  0  0  0  0  0  0  0999 V2000
   -7.2201   -4.8692    0.0000 C   0  0  0  0  0  0  0  0  0  0  0  0
   -5.7935   -5.3327    0.0000 C   0  0  0  0  0  0  0  0  0  0  0  0
   -6.0746   -6.8061    0.0000 C   0  0  0  0  0  0  0  0  0  0  0  0
   -5.9804   -8.3032    0.0000 C   0  0  0  0  0  0  0  0  0  0  0  0
   -5.5169   -9.7298    0.0000 C   0  0  0  0  0  0  0  0  0  0  0  0
   -4.7131  -10.9962    0.0000 C   0  0  0  0  0  0  0  0  0  0  0  0
   -3.6197  -12.0231    0.0000 C   0  0  0  0  0  0  0  0  0  0  0  0
   -2.3052  -12.7457    0.0000 C   0  0  0  0  0  0  0  0  0  0  0  0
   -0.8524  -13.1187    0.0000 C   0  0  0  0  0  0  0  0  0  0  0  0
    0.6476  -13.1187    0.0000 C   0  0  0  0  0  0  0  0  0  0  0  0
    2.1005  -12.7457    0.0000 C   0  0  0  0  0  0  0  0  0  0  0  0
    3.4150  -12.0231    0.0000 C   0  0  0  0  0  0  0  0  0  0  0  0
    4.5084  -10.9962    0.0000 C   0  0  0  0  0  0  0  0  0  0  0  0
    5.3122   -9.7298    0.0000 C   0  0  0  0  0  0  0  0  0  0  0  0
    5.7757   -8.3032    0.0000 C   0  0  0  0  0  0  0  0  0  0  0  0
    7.2727   -8.3974    0.0000 N   0  0  0  0  0  0  0  0  0  0  0  0
    7.3669   -6.9003    0.0000 C   0  0  0  0  0  0  0  0  0  0  0  0
    8.4921   -5.9083    0.0000 O   0  0  0  0  0  0  0  0  0  0  0  0
    5.8699   -6.8061    0.0000 C   0  0  0  0  0  0  0  0  0  0  0  0
    5.5888   -5.3327    0.0000 C   0  0  0  0  0  0  0  0  0  0  0  0
    4.9501   -3.9755    0.0000 C   0  0  0  0  0  0  0  0  0  0  0  0
    3.9940   -2.8197    0.0000 C   0  0  0  0  0  0  0  0  0  0  0  0
    2.7805   -1.9380    0.0000 C   0  0  0  0  0  0  0  0  0  0  0  0
    1.3858   -1.3858    0.0000 C   0  0  0  0  0  0  0  0  0  0  0  0
    1.9598    0.0000    0.0000 C   0  0  0  0  0  0  0  0  0  0  0  0
    1.3858    1.3858    0.0000 C   0  0  0  0  0  0  0  0  0  0  0  0
    0.0000    1.9598    0.0000 C   0  0  0  0  0  0  0  0  0  0  0  0
   -1.3858    1.3858    0.0000 C   0  0  0  0  0  0  0  0  0  0  0  0
   -1.9598    0.0000    0.0000 C   0  0  0  0  0  0  0  0  0  0  0  0
   -1.3858   -1.3858    0.0000 C   0  0  0  0  0  0  0  0  0  0  0  0
   -2.9852   -1.9380    0.0000 C   0  0  0  0  0  0  0  0  0  0  0  0
   -4.1987   -2.8197    0.0000 C   0  0  0  0  0  0  0  0  0  0  0  0
   -5.1549   -3.9755    0.0000 C   0  0  0  0  0  0  0  0  0  0  0  0
   -6.4213   -3.1717    0.0000 O   0  0  0  0  0  0  0  0  0  0  0  0
   -0.0000   -1.9598    0.0000 C   0  0  0  0  0  0  0  0  0  0  0  0
  1  2  1  0
  2  3  1  0
  3  4  2  0
  4  5  1  0
  5  6  2  0
  6  7  1  0
  7  8  1  0
  8  9  1  0
  9 10  1  0
 10 11  1  0
 11 12  1  0
 12 13  1  0
 13 14  1  0
 14 15  1  0
 15 16  1  0
 16 17  1  0
 17 18  2  0
 17 19  1  0
 19 20  2  0
 20 21  1  0
 21 22  2  0
 22 23  1  0
 23 24  2  0
 24 25  1  0
 25 26  2  0
 26 27  1  0
 27 28  2  0
 28 29  1  0
 29 30  2  0
 30 31  1  0
 31 32  1  0
 32 33  1  0
 33 34  2  0
 30 35  1  0
 33  2  1  0
 19 15  1  0
 35 24  1  0
M  END
>  <Title>  (717) 
idAAZQgen6

$$$$

     RDKit          2D

 18 19  0  0  0  0  0  0  0  0999 V2000
    3.9271    0.0000    0.0000 C   0  0  0  0  0  0  0  0  0  0  0  0
    2.4271    0.0000    0.0000 C   0  0  0  0  0  0  0  0  0  0  0  0
    1.9635   -1.4266    0.0000 C   0  0  0  0  0  0  0  0  0  0  0  0
    0.7500   -2.3083    0.0000 C   0  0  0  0  0  0  0  0  0  0  0  0
   -0.7500   -2.3083    0.0000 C   0  0  0  0  0  0  0  0  0  0  0  0
   -1.9635   -1.4266    0.0000 C   0  0  0  0  0  0  0  0  0  0  0  0
   -2.4271    0.0000    0.0000 C   0  0  0  0  0  0  0  0  0  0  0  0
   -1.9635    1.4266    0.0000 C   0  0  0  0  0  0  0  0  0  0  0  0
   -0.7500    2.3083    0.0000 C   0  0  0  0  0  0  0  0  0  0  0  0
   -1.2135    3.7348    0.0000 N   0  0  0  0  0  0  0  0  0  0  0  0
   -0.2098    4.8496    0.0000 C   0  0  0  0  0  0  0  0  0  0  0  0
    1.2574    4.5377    0.0000 O   0  0  0  0  0  0  0  0  0  0  0  0
   -0.6734    6.2761    0.0000 C   0  0  0  0  0  0  0  0  0  0  0  0
    0.0076    7.6127    0.0000 C   0  0  0  0  0  0  0  0  0  0  0  0
   -1.3289    8.2936    0.0000 C   0  0  0  0  0  0  0  0  0  0  0  0
   -2.0099    6.9571    0.0000 C   0  0  0  0  0  0  0  0  0  0  0  0
    0.7500    2.3083    0.0000 C   0  0  0  0  0  0  0  0  0  0  0  0
    1.9635    1.4266    0.0000 N   0  0  0  0  0  0  0  0  0  0  0  0
  1  2  1  0
  2  3  1  0
  3  4  2  0
  4  5  1  0
  5  6  1  0
  6  7  1  0
  7  8  1  0
  8  9  1  0
  9 10  1  0
 10 11  1  0
 11 12  2  0
 11 13  1  0
 13 14  1  0
 14 15  1  0
 15 16  1  0
  9 17  1  0
 17 18  1  0
 18  2  1  0
 16 13  1  0
M  END
>  <Title>  (718) 
idAAZRgen6

$$$$

     RDKit          2D

 14 15  0  0  0  0  0  0  0  0999 V2000
   -0.7500   -3.8971    0.0000 O   0  0  0  0  0  0  0  0  0  0  0  0
    0.7500   -3.8971    0.0000 C   0  0  0  0  0  0  0  0  0  0  0  0
    1.5000   -2.5981    0.0000 N   0  0  0  0  0  0  0  0  0  0  0  0
    0.7500   -1.2990    0.0000 C   0  0  0  0  0  0  0  0  0  0  0  0
    1.5000    0.0000    0.0000 N   0  0  0  0  0  0  0  0  0  0  0  0
    0.7500    1.2990    0.0000 N   0  0  0  0  0  0  0  0  0  0  0  0
   -0.7500    1.2990    0.0000 N   0  0  0  0  0  0  0  0  0  0  0  0
   -1.5000    0.0000    0.0000 N   0  0  0  0  0  0  0  0  0  0  0  0
   -0.7500   -1.2990    0.0000 N   0  0  0  0  0  0  0  0  0  0  0  0
    1.5000   -5.1962    0.0000 N   0  0  0  0  0  0  0  0  0  0  0  0
    2.9918   -5.3529    0.0000 C   0  0  0  0  0  0  0  0  0  0  0  0
    3.3037   -6.8202    0.0000 C   0  0  0  0  0  0  0  0  0  0  0  0
    2.0046   -7.5702    0.0000 C   0  0  0  0  0  0  0  0  0  0  0  0
    0.8899   -6.5665    0.0000 C   0  0  0  0  0  0  0  0  0  0  0  0
  1  2  2  0
  2  3  1  0
  3  4  1  0
  4  5  2  0
  5  6  1  0
  6  7  2  0
  7  8  1  0
  8  9  2  0
  2 10  1  0
 10 11  1  0
 11 12  1  0
 12 13  1  0
 13 14  1  0
  9  4  1  0
 14 10  1  0
M  END
>  <Title>  (719) 
idAAZSgen6

$$$$

     RDKit          2D

 12 13  0  0  0  0  0  0  0  0999 V2000
    1.8478   -6.4639    0.0000 C   0  0  0  0  0  0  0  0  0  0  0  0
    2.0046   -4.9721    0.0000 C   0  0  0  0  0  0  0  0  0  0  0  0
    3.3037   -4.2221    0.0000 C   0  0  0  0  0  0  0  0  0  0  0  0
    2.9918   -2.7549    0.0000 C   0  0  0  0  0  0  0  0  0  0  0  0
    1.5000   -2.5981    0.0000 C   0  0  0  0  0  0  0  0  0  0  0  0
    0.7500   -1.2990    0.0000 C   0  0  0  0  0  0  0  0  0  0  0  0
    1.5000    0.0000    0.0000 C   0  0  0  0  0  0  0  0  0  0  0  0
    0.7500    1.2990    0.0000 C   0  0  0  0  0  0  0  0  0  0  0  0
   -0.7500    1.2990    0.0000 C   0  0  0  0  0  0  0  0  0  0  0  0
   -1.5000    0.0000    0.0000 C   0  0  0  0  0  0  0  0  0  0  0  0
   -0.7500   -1.2990    0.0000 C   0  0  0  0  0  0  0  0  0  0  0  0
    0.8899   -3.9684    0.0000 C   0  0  0  0  0  0  0  0  0  0  0  0
  1  2  1  0
  2  3  2  0
  3  4  1  0
  4  5  2  0
  5  6  1  0
  6  7  2  0
  7  8  1  0
  8  9  2  0
  9 10  1  0
 10 11  2  0
  5 12  1  0
 12  2  1  0
 11  6  1  0
M  END
>  <Title>  (720) 
idAAZTgen6

$$$$

     RDKit          2D

 23 26  0  0  0  0  0  0  0  0999 V2000
   -2.6401   -3.1891    0.0000 C   0  0  0  0  0  0  0  0  0  0  0  0
   -1.2135   -2.7256    0.0000 C   0  0  0  0  0  0  0  0  0  0  0  0
   -0.0000   -3.6073    0.0000 C   0  0  0  0  0  0  0  0  0  0  0  0
    1.2135   -2.7256    0.0000 C   0  0  0  0  0  0  0  0  0  0  0  0
    2.6401   -3.1891    0.0000 C   0  0  0  0  0  0  0  0  0  0  0  0
    3.7548   -2.1855    0.0000 O   0  0  0  0  0  0  0  0  0  0  0  0
    2.9520   -4.6564    0.0000 N   0  0  0  0  0  0  0  0  0  0  0  0
    4.3223   -5.2665    0.0000 C   0  0  0  0  0  0  0  0  0  0  0  0
    4.1655   -6.7583    0.0000 C   0  0  0  0  0  0  0  0  0  0  0  0
    2.6983   -7.0701    0.0000 C   0  0  0  0  0  0  0  0  0  0  0  0
    2.0882   -8.4404    0.0000 C   0  0  0  0  0  0  0  0  0  0  0  0
    0.5964   -8.5972    0.0000 C   0  0  0  0  0  0  0  0  0  0  0  0
   -0.0137   -9.9676    0.0000 C   0  0  0  0  0  0  0  0  0  0  0  0
    0.8680  -11.1811    0.0000 C   0  0  0  0  0  0  0  0  0  0  0  0
    2.3597  -11.0243    0.0000 C   0  0  0  0  0  0  0  0  0  0  0  0
    2.9699   -9.6540    0.0000 C   0  0  0  0  0  0  0  0  0  0  0  0
    1.9483   -5.7711    0.0000 C   0  0  0  0  0  0  0  0  0  0  0  0
    0.7500   -1.2990    0.0000 C   0  0  0  0  0  0  0  0  0  0  0  0
    1.5000    0.0000    0.0000 C   0  0  0  0  0  0  0  0  0  0  0  0
    0.7500    1.2990    0.0000 C   0  0  0  0  0  0  0  0  0  0  0  0
   -0.7500    1.2990    0.0000 C   0  0  0  0  0  0  0  0  0  0  0  0
   -1.5000    0.0000    0.0000 C   0  0  0  0  0  0  0  0  0  0  0  0
   -0.7500   -1.2990    0.0000 C   0  0  0  0  0  0  0  0  0  0  0  0
  1  2  1  0
  2  3  2  0
  3  4  1  0
  4  5  1  0
  5  6  2  0
  5  7  1  0
  7  8  1  0
  8  9  2  0
  9 10  1  0
 10 11  1  0
 11 12  2  0
 12 13  1  0
 13 14  2  0
 14 15  1  0
 15 16  2  0
 10 17  1  0
  4 18  1  0
 18 19  2  0
 19 20  1  0
 20 21  2  0
 21 22  1  0
 22 23  2  0
 23  2  1  0
 17  7  1  0
 23 18  1  0
 16 11  1  0
M  END
>  <Title>  (721) 
idAAZUgen6

$$$$

     RDKit          2D

 29 33  0  0  0  0  0  0  0  0999 V2000
   -2.6401   -3.1891    0.0000 C   0  0  0  0  0  0  0  0  0  0  0  0
   -1.2135   -2.7256    0.0000 C   0  0  0  0  0  0  0  0  0  0  0  0
   -0.0000   -3.6073    0.0000 C   0  0  0  0  0  0  0  0  0  0  0  0
    1.2135   -2.7256    0.0000 C   0  0  0  0  0  0  0  0  0  0  0  0
    2.6401   -3.1891    0.0000 C   0  0  0  0  0  0  0  0  0  0  0  0
    3.3211   -4.5257    0.0000 C   0  0  0  0  0  0  0  0  0  0  0  0
    4.6576   -3.8447    0.0000 C   0  0  0  0  0  0  0  0  0  0  0  0
    6.0842   -4.3082    0.0000 C   0  0  0  0  0  0  0  0  0  0  0  0
    7.1989   -3.3045    0.0000 O   0  0  0  0  0  0  0  0  0  0  0  0
    6.3961   -5.7754    0.0000 N   0  0  0  0  0  0  0  0  0  0  0  0
    7.8226   -6.2389    0.0000 C   0  0  0  0  0  0  0  0  0  0  0  0
    8.1345   -7.7062    0.0000 N   0  0  0  0  0  0  0  0  0  0  0  0
    9.5611   -8.1697    0.0000 N   0  0  0  0  0  0  0  0  0  0  0  0
   10.6758   -7.1660    0.0000 N   0  0  0  0  0  0  0  0  0  0  0  0
   10.3639   -5.6988    0.0000 N   0  0  0  0  0  0  0  0  0  0  0  0
    8.9374   -5.2352    0.0000 N   0  0  0  0  0  0  0  0  0  0  0  0
    3.9766   -2.5082    0.0000 N   0  0  0  0  0  0  0  0  0  0  0  0
    4.4401   -1.0816    0.0000 C   0  0  0  0  0  0  0  0  0  0  0  0
    5.9074   -0.7697    0.0000 C   0  0  0  0  0  0  0  0  0  0  0  0
    6.3709    0.6569    0.0000 C   0  0  0  0  0  0  0  0  0  0  0  0
    5.3672    1.7716    0.0000 C   0  0  0  0  0  0  0  0  0  0  0  0
    3.9000    1.4597    0.0000 C   0  0  0  0  0  0  0  0  0  0  0  0
    3.4364    0.0331    0.0000 C   0  0  0  0  0  0  0  0  0  0  0  0
    0.7500   -1.2990    0.0000 C   0  0  0  0  0  0  0  0  0  0  0  0
    1.5000    0.0000    0.0000 C   0  0  0  0  0  0  0  0  0  0  0  0
    0.7500    1.2990    0.0000 C   0  0  0  0  0  0  0  0  0  0  0  0
   -0.7500    1.2990    0.0000 C   0  0  0  0  0  0  0  0  0  0  0  0
   -1.5000    0.0000    0.0000 C   0  0  0  0  0  0  0  0  0  0  0  0
   -0.7500   -1.2990    0.0000 C   0  0  0  0  0  0  0  0  0  0  0  0
  1  2  1  0
  2  3  1  0
  3  4  2  0
  4  5  1  0
  5  6  2  0
  6  7  1  0
  7  8  1  0
  8  9  2  0
  8 10  1  0
 10 11  1  0
 11 12  2  0
 12 13  1  0
 13 14  2  0
 14 15  1  0
 15 16  2  0
  7 17  1  0
 17 18  1  0
 18 19  2  0
 19 20  1  0
 20 21  2  0
 21 22  1  0
 22 23  2  0
  4 24  1  0
 24 25  2  0
 25 26  1  0
 26 27  2  0
 27 28  1  0
 28 29  2  0
 29  2  1  0
 17  5  1  0
 23 18  1  0
 29 24  1  0
 16 11  1  0
M  END
>  <Title>  (722) 
idAAZVgen6

$$$$

     RDKit          2D

 44 48  0  0  0  0  0  0  0  0999 V2000
    3.9271    0.0000    0.0000 C   0  0  0  0  0  0  0  0  0  0  0  0
    2.4271    0.0000    0.0000 C   0  0  0  0  0  0  0  0  0  0  0  0
    1.9635   -1.4266    0.0000 C   0  0  0  0  0  0  0  0  0  0  0  0
    0.7500   -2.3083    0.0000 C   0  0  0  0  0  0  0  0  0  0  0  0
   -0.7500   -2.3083    0.0000 C   0  0  0  0  0  0  0  0  0  0  0  0
   -1.9635   -1.4266    0.0000 C   0  0  0  0  0  0  0  0  0  0  0  0
   -3.1771   -2.3083    0.0000 C   0  0  0  0  0  0  0  0  0  0  0  0
   -4.5474   -1.6982    0.0000 C   0  0  0  0  0  0  0  0  0  0  0  0
   -4.7042   -0.2064    0.0000 O   0  0  0  0  0  0  0  0  0  0  0  0
   -5.7609   -2.5798    0.0000 N   0  0  0  0  0  0  0  0  0  0  0  0
   -7.1312   -1.9697    0.0000 C   0  0  0  0  0  0  0  0  0  0  0  0
   -8.3447   -2.8514    0.0000 C   0  0  0  0  0  0  0  0  0  0  0  0
   -8.1879   -4.3432    0.0000 C   0  0  0  0  0  0  0  0  0  0  0  0
   -9.4015   -5.2249    0.0000 C   0  0  0  0  0  0  0  0  0  0  0  0
   -9.2447   -6.7167    0.0000 O   0  0  0  0  0  0  0  0  0  0  0  0
  -10.7718   -4.6148    0.0000 O   0  0  0  0  0  0  0  0  0  0  0  0
   -6.8176   -4.9533    0.0000 C   0  0  0  0  0  0  0  0  0  0  0  0
   -5.6041   -4.0716    0.0000 C   0  0  0  0  0  0  0  0  0  0  0  0
   -2.4271    0.0000    0.0000 C   0  0  0  0  0  0  0  0  0  0  0  0
   -1.9635    1.4266    0.0000 C   0  0  0  0  0  0  0  0  0  0  0  0
   -0.7500    2.3083    0.0000 C   0  0  0  0  0  0  0  0  0  0  0  0
   -1.2135    3.7348    0.0000 C   0  0  0  0  0  0  0  0  0  0  0  0
   -0.2098    4.8496    0.0000 C   0  0  0  0  0  0  0  0  0  0  0  0
   -0.6734    6.2761    0.0000 C   0  0  0  0  0  0  0  0  0  0  0  0
   -2.1406    6.5880    0.0000 C   0  0  0  0  0  0  0  0  0  0  0  0
   -3.1443    5.4733    0.0000 C   0  0  0  0  0  0  0  0  0  0  0  0
   -2.6807    4.0467    0.0000 C   0  0  0  0  0  0  0  0  0  0  0  0
   -3.6844    2.9320    0.0000 N   0  0  0  0  0  0  0  0  0  0  0  0
   -3.3726    1.4648    0.0000 N   0  0  0  0  0  0  0  0  0  0  0  0
   -4.6716    0.7148    0.0000 N   0  0  0  0  0  0  0  0  0  0  0  0
   -5.7863    1.7185    0.0000 N   0  0  0  0  0  0  0  0  0  0  0  0
   -5.1762    3.0888    0.0000 C   0  0  0  0  0  0  0  0  0  0  0  0
   -5.9262    4.3878    0.0000 N   0  0  0  0  0  0  0  0  0  0  0  0
   -7.4262    4.3878    0.0000 C   0  0  0  0  0  0  0  0  0  0  0  0
   -8.1762    3.0888    0.0000 O   0  0  0  0  0  0  0  0  0  0  0  0
   -8.1762    5.6869    0.0000 C   0  0  0  0  0  0  0  0  0  0  0  0
   -7.4262    6.9859    0.0000 C   0  0  0  0  0  0  0  0  0  0  0  0
   -8.1762    8.2849    0.0000 C   0  0  0  0  0  0  0  0  0  0  0  0
   -9.6762    8.2849    0.0000 C   0  0  0  0  0  0  0  0  0  0  0  0
  -10.4262    9.5840    0.0000 C   0  0  0  0  0  0  0  0  0  0  0  0
  -10.4262    6.9859    0.0000 C   0  0  0  0  0  0  0  0  0  0  0  0
   -9.6762    5.6869    0.0000 C   0  0  0  0  0  0  0  0  0  0  0  0
    0.7500    2.3083    0.0000 C   0  0  0  0  0  0  0  0  0  0  0  0
    1.9635    1.4266    0.0000 C   0  0  0  0  0  0  0  0  0  0  0  0
  1  2  1  0
  2  3  2  0
  3  4  1  0
  4  5  2  0
  5  6  1  0
  6  7  1  0
  7  8  1  0
  8  9  2  0
  8 10  1  0
 10 11  1  0
 11 12  2  0
 12 13  1  0
 13 14  1  0
 14 15  2  0
 14 16  1  0
 13 17  1  0
 17 18  1  0
  6 19  2  0
 19 20  1  0
 20 21  2  0
 21 22  1  0
 22 23  2  0
 23 24  1  0
 24 25  2  0
 25 26  1  0
 26 27  2  0
 27 28  1  0
 28 29  1  0
 29 30  2  0
 30 31  1  0
 31 32  2  0
 32 33  1  0
 33 34  1  0
 34 35  2  0
 34 36  1  0
 36 37  1  0
 37 38  1  0
 38 39  1  0
 39 40  1  0
 39 41  1  0
 41 42  1  0
 21 43  1  0
 43 44  2  0
 44  2  1  0
 18 10  1  0
 27 22  1  0
 32 28  1  0
 42 36  1  0
M  END
>  <Title>  (723) 
idAAZWgen6

$$$$

     RDKit          2D

 24 27  0  0  0  0  0  0  0  0999 V2000
   -3.1965   -1.7857    0.0000 C   0  0  0  0  0  0  0  0  0  0  0  0
   -1.8107   -2.3597    0.0000 C   0  0  0  0  0  0  0  0  0  0  0  0
   -1.8107   -3.8597    0.0000 C   0  0  0  0  0  0  0  0  0  0  0  0
   -0.7500   -4.9204    0.0000 C   0  0  0  0  0  0  0  0  0  0  0  0
    0.7500   -4.9204    0.0000 C   0  0  0  0  0  0  0  0  0  0  0  0
    1.3240   -6.3062    0.0000 C   0  0  0  0  0  0  0  0  0  0  0  0
    0.7500   -7.6920    0.0000 C   0  0  0  0  0  0  0  0  0  0  0  0
    2.1358   -8.2660    0.0000 C   0  0  0  0  0  0  0  0  0  0  0  0
    2.7098   -6.8802    0.0000 C   0  0  0  0  0  0  0  0  0  0  0  0
    4.0957   -6.3062    0.0000 C   0  0  0  0  0  0  0  0  0  0  0  0
    5.2857   -7.2193    0.0000 C   0  0  0  0  0  0  0  0  0  0  0  0
    6.6715   -6.6453    0.0000 C   0  0  0  0  0  0  0  0  0  0  0  0
    6.8673   -5.1581    0.0000 C   0  0  0  0  0  0  0  0  0  0  0  0
    5.6773   -4.2450    0.0000 C   0  0  0  0  0  0  0  0  0  0  0  0
    4.2915   -4.8190    0.0000 C   0  0  0  0  0  0  0  0  0  0  0  0
    1.8107   -3.8597    0.0000 C   0  0  0  0  0  0  0  0  0  0  0  0
    3.1965   -4.4337    0.0000 O   0  0  0  0  0  0  0  0  0  0  0  0
    1.8107   -2.3597    0.0000 O   0  0  0  0  0  0  0  0  0  0  0  0
    0.7500   -1.2990    0.0000 C   0  0  0  0  0  0  0  0  0  0  0  0
    1.5000    0.0000    0.0000 C   0  0  0  0  0  0  0  0  0  0  0  0
    0.7500    1.2990    0.0000 C   0  0  0  0  0  0  0  0  0  0  0  0
   -0.7500    1.2990    0.0000 C   0  0  0  0  0  0  0  0  0  0  0  0
   -1.5000    0.0000    0.0000 C   0  0  0  0  0  0  0  0  0  0  0  0
   -0.7500   -1.2990    0.0000 C   0  0  0  0  0  0  0  0  0  0  0  0
  1  2  1  0
  2  3  2  0
  3  4  1  0
  4  5  2  0
  5  6  1  0
  6  7  1  0
  7  8  1  0
  8  9  1  0
  9 10  1  0
 10 11  2  0
 11 12  1  0
 12 13  2  0
 13 14  1  0
 14 15  2  0
  5 16  1  0
 16 17  2  0
 16 18  1  0
 18 19  1  0
 19 20  2  0
 20 21  1  0
 21 22  2  0
 22 23  1  0
 23 24  2  0
 24  2  1  0
  9  6  1  0
 15 10  1  0
 24 19  1  0
M  END
>  <Title>  (724) 
idAAZXgen6

$$$$

     RDKit          2D

 13 13  0  0  0  0  0  0  0  0999 V2000
    4.3978    0.0000    0.0000 C   0  0  0  0  0  0  0  0  0  0  0  0
    2.8978    0.0000    0.0000 C   0  0  0  0  0  0  0  0  0  0  0  0
    2.5095   -1.4489    0.0000 C   0  0  0  0  0  0  0  0  0  0  0  0
    1.4489   -2.5095    0.0000 C   0  0  0  0  0  0  0  0  0  0  0  0
   -0.0000   -2.8978    0.0000 C   0  0  0  0  0  0  0  0  0  0  0  0
   -1.4489   -2.5095    0.0000 C   0  0  0  0  0  0  0  0  0  0  0  0
   -2.5095   -1.4489    0.0000 C   0  0  0  0  0  0  0  0  0  0  0  0
   -2.8978    0.0000    0.0000 C   0  0  0  0  0  0  0  0  0  0  0  0
   -2.5095    1.4489    0.0000 C   0  0  0  0  0  0  0  0  0  0  0  0
   -1.4489    2.5095    0.0000 C   0  0  0  0  0  0  0  0  0  0  0  0
    0.0000    2.8978    0.0000 C   0  0  0  0  0  0  0  0  0  0  0  0
    1.4489    2.5095    0.0000 C   0  0  0  0  0  0  0  0  0  0  0  0
    2.5095    1.4489    0.0000 C   0  0  0  0  0  0  0  0  0  0  0  0
  1  2  1  0
  2  3  1  0
  3  4  1  0
  4  5  1  0
  5  6  1  0
  6  7  1  0
  7  8  1  0
  8  9  1  0
  9 10  1  0
 10 11  1  0
 11 12  1  0
 12 13  1  0
 13  2  1  0
M  END
>  <Title>  (725) 
idAAZYgen6

$$$$

     RDKit          2D

 37 41  0  0  0  0  0  0  0  0999 V2000
    8.7276   -7.7552    0.0000 O   0  0  0  0  0  0  0  0  0  0  0  0
    7.2276   -7.7552    0.0000 C   0  0  0  0  0  0  0  0  0  0  0  0
    6.4776   -9.0543    0.0000 O   0  0  0  0  0  0  0  0  0  0  0  0
    6.4776   -6.4562    0.0000 C   0  0  0  0  0  0  0  0  0  0  0  0
    7.0877   -5.0859    0.0000 C   0  0  0  0  0  0  0  0  0  0  0  0
    5.9730   -4.0822    0.0000 C   0  0  0  0  0  0  0  0  0  0  0  0
    4.6740   -4.8322    0.0000 N   0  0  0  0  0  0  0  0  0  0  0  0
    3.3037   -4.2221    0.0000 C   0  0  0  0  0  0  0  0  0  0  0  0
    2.0046   -4.9721    0.0000 C   0  0  0  0  0  0  0  0  0  0  0  0
    0.8899   -3.9684    0.0000 C   0  0  0  0  0  0  0  0  0  0  0  0
    1.5000   -2.5981    0.0000 N   0  0  0  0  0  0  0  0  0  0  0  0
    0.7500   -1.2990    0.0000 C   0  0  0  0  0  0  0  0  0  0  0  0
    1.5000    0.0000    0.0000 C   0  0  0  0  0  0  0  0  0  0  0  0
    0.7500    1.2990    0.0000 C   0  0  0  0  0  0  0  0  0  0  0  0
   -0.7500    1.2990    0.0000 N   0  0  0  0  0  0  0  0  0  0  0  0
   -1.5000    2.5981    0.0000 C   0  0  0  0  0  0  0  0  0  0  0  0
   -3.0000    2.5981    0.0000 O   0  0  0  0  0  0  0  0  0  0  0  0
   -0.7500    3.8971    0.0000 N   0  0  0  0  0  0  0  0  0  0  0  0
   -1.5000    5.1962    0.0000 C   0  0  0  0  0  0  0  0  0  0  0  0
   -2.9918    5.3529    0.0000 N   0  0  0  0  0  0  0  0  0  0  0  0
   -3.3037    6.8202    0.0000 N   0  0  0  0  0  0  0  0  0  0  0  0
   -2.0046    7.5702    0.0000 N   0  0  0  0  0  0  0  0  0  0  0  0
   -0.8899    6.5665    0.0000 N   0  0  0  0  0  0  0  0  0  0  0  0
    0.5773    6.8783    0.0000 N   0  0  0  0  0  0  0  0  0  0  0  0
    1.1874    8.2487    0.0000 C   0  0  0  0  0  0  0  0  0  0  0  0
    2.6792    8.0919    0.0000 C   0  0  0  0  0  0  0  0  0  0  0  0
    2.9911    6.6246    0.0000 C   0  0  0  0  0  0  0  0  0  0  0  0
    4.3614    6.0145    0.0000 C   0  0  0  0  0  0  0  0  0  0  0  0
    5.5749    6.8962    0.0000 O   0  0  0  0  0  0  0  0  0  0  0  0
    4.5182    4.5228    0.0000 O   0  0  0  0  0  0  0  0  0  0  0  0
    1.6920    5.8746    0.0000 C   0  0  0  0  0  0  0  0  0  0  0  0
    1.5353    4.3829    0.0000 O   0  0  0  0  0  0  0  0  0  0  0  0
   -1.5000    0.0000    0.0000 C   0  0  0  0  0  0  0  0  0  0  0  0
   -0.7500   -1.2990    0.0000 C   0  0  0  0  0  0  0  0  0  0  0  0
    2.9918   -2.7549    0.0000 C   0  0  0  0  0  0  0  0  0  0  0  0
    3.9955   -1.6402    0.0000 O   0  0  0  0  0  0  0  0  0  0  0  0
    4.9858   -6.2994    0.0000 C   0  0  0  0  0  0  0  0  0  0  0  0
  1  2  2  0
  2  3  1  0
  2  4  1  0
  4  5  1  0
  5  6  1  0
  6  7  1  0
  7  8  1  0
  8  9  1  0
  9 10  1  0
 10 11  1  0
 11 12  1  0
 12 13  1  0
 13 14  1  0
 14 15  1  0
 15 16  1  0
 16 17  2  0
 16 18  1  0
 18 19  1  0
 19 20  2  0
 20 21  1  0
 21 22  2  0
 22 23  1  0
 23 24  1  0
 24 25  1  0
 25 26  1  0
 26 27  1  0
 27 28  1  0
 28 29  2  0
 28 30  1  0
 27 31  1  0
 31 32  2  0
 15 33  1  0
 33 34  1  0
 11 35  1  0
 35 36  2  0
  7 37  1  0
 37  4  1  0
 35  8  1  0
 34 12  1  0
 23 19  1  0
 31 24  1  0
M  END
>  <Title>  (726) 
idAAZZgen6

$$$$

     RDKit          2D

  8  9  0  0  0  0  0  0  0  0999 V2000
   -0.0000   -4.0981    0.0000 C   0  0  0  0  0  0  0  0  0  0  0  0
   -0.0000   -2.5981    0.0000 C   0  0  0  0  0  0  0  0  0  0  0  0
    0.7500   -1.2990    0.0000 C   0  0  0  0  0  0  0  0  0  0  0  0
    1.5000    0.0000    0.0000 C   0  0  0  0  0  0  0  0  0  0  0  0
    0.7500    1.2990    0.0000 C   0  0  0  0  0  0  0  0  0  0  0  0
   -0.7500    1.2990    0.0000 C   0  0  0  0  0  0  0  0  0  0  0  0
   -1.5000    0.0000    0.0000 C   0  0  0  0  0  0  0  0  0  0  0  0
   -0.7500   -1.2990    0.0000 C   0  0  0  0  0  0  0  0  0  0  0  0
  1  2  1  0
  2  3  1  0
  3  4  2  0
  4  5  1  0
  5  6  2  0
  6  7  1  0
  7  8  2  0
  8  2  1  0
  8  3  1  0
M  END
>  <Title>  (727) 
idABAAgen6

$$$$

     RDKit          2D

  9  9  0  0  0  0  0  0  0  0999 V2000
    5.0260   -1.2990    0.0000 C   0  0  0  0  0  0  0  0  0  0  0  0
    3.5260   -1.2990    0.0000 C   0  0  0  0  0  0  0  0  0  0  0  0
    2.7760   -2.5981    0.0000 O   0  0  0  0  0  0  0  0  0  0  0  0
    2.7760    0.0000    0.0000 C   0  0  0  0  0  0  0  0  0  0  0  0
    1.2760    0.0000    0.0000 C   0  0  0  0  0  0  0  0  0  0  0  0
    0.3943    1.2135    0.0000 C   0  0  0  0  0  0  0  0  0  0  0  0
   -1.0323    0.7500    0.0000 C   0  0  0  0  0  0  0  0  0  0  0  0
   -1.0323   -0.7500    0.0000 C   0  0  0  0  0  0  0  0  0  0  0  0
    0.3943   -1.2135    0.0000 C   0  0  0  0  0  0  0  0  0  0  0  0
  1  2  1  0
  2  3  2  0
  2  4  1  0
  4  5  1  0
  5  6  2  0
  6  7  1  0
  7  8  1  0
  8  9  2  0
  9  5  1  0
M  END
>  <Title>  (728) 
idABABgen6

$$$$

     RDKit          2D

 15 16  0  0  0  0  0  0  0  0999 V2000
    5.2500   -1.2990    0.0000 C   0  0  0  0  0  0  0  0  0  0  0  0
    3.7500   -1.2990    0.0000 C   0  0  0  0  0  0  0  0  0  0  0  0
    3.0000   -2.5981    0.0000 O   0  0  0  0  0  0  0  0  0  0  0  0
    3.0000    0.0000    0.0000 O   0  0  0  0  0  0  0  0  0  0  0  0
    1.5000    0.0000    0.0000 C   0  0  0  0  0  0  0  0  0  0  0  0
    0.7500   -1.2990    0.0000 C   0  0  0  0  0  0  0  0  0  0  0  0
   -0.7500   -1.2990    0.0000 C   0  0  0  0  0  0  0  0  0  0  0  0
   -1.5000    0.0000    0.0000 C   0  0  0  0  0  0  0  0  0  0  0  0
   -0.7500    1.2990    0.0000 C   0  0  0  0  0  0  0  0  0  0  0  0
   -1.5000    2.5981    0.0000 C   0  0  0  0  0  0  0  0  0  0  0  0
   -0.7500    3.8971    0.0000 C   0  0  0  0  0  0  0  0  0  0  0  0
    0.7500    3.8971    0.0000 C   0  0  0  0  0  0  0  0  0  0  0  0
    1.5000    5.1962    0.0000 O   0  0  0  0  0  0  0  0  0  0  0  0
    1.5000    2.5981    0.0000 C   0  0  0  0  0  0  0  0  0  0  0  0
    0.7500    1.2990    0.0000 C   0  0  0  0  0  0  0  0  0  0  0  0
  1  2  1  0
  2  3  2  0
  2  4  1  0
  4  5  1  0
  5  6  1  0
  6  7  1  0
  7  8  1  0
  8  9  1  0
  9 10  2  0
 10 11  1  0
 11 12  2  0
 12 13  1  0
 12 14  1  0
 14 15  2  0
 15  5  1  0
 15  9  1  0
M  END
>  <Title>  (729) 
idABACgen6

$$$$

     RDKit          2D

 25 28  0  0  0  0  0  0  0  0999 V2000
   -3.0000   -2.5981    0.0000 C   0  0  0  0  0  0  0  0  0  0  0  0
   -1.5000   -2.5981    0.0000 C   0  0  0  0  0  0  0  0  0  0  0  0
   -0.7500   -3.8971    0.0000 C   0  0  0  0  0  0  0  0  0  0  0  0
    0.7500   -3.8971    0.0000 C   0  0  0  0  0  0  0  0  0  0  0  0
    1.5000   -2.5981    0.0000 C   0  0  0  0  0  0  0  0  0  0  0  0
    3.0000   -2.5981    0.0000 N   0  0  0  0  0  0  0  0  0  0  0  0
    3.8817   -1.3846    0.0000 C   0  0  0  0  0  0  0  0  0  0  0  0
    5.3083   -1.8481    0.0000 C   0  0  0  0  0  0  0  0  0  0  0  0
    5.3083   -3.3481    0.0000 C   0  0  0  0  0  0  0  0  0  0  0  0
    6.5218   -4.2298    0.0000 C   0  0  0  0  0  0  0  0  0  0  0  0
    7.8921   -3.6196    0.0000 O   0  0  0  0  0  0  0  0  0  0  0  0
    6.3650   -5.7215    0.0000 N   0  0  0  0  0  0  0  0  0  0  0  0
    7.5785   -6.6032    0.0000 C   0  0  0  0  0  0  0  0  0  0  0  0
    7.4217   -8.0950    0.0000 N   0  0  0  0  0  0  0  0  0  0  0  0
    8.6353   -8.9767    0.0000 N   0  0  0  0  0  0  0  0  0  0  0  0
   10.0056   -8.3666    0.0000 N   0  0  0  0  0  0  0  0  0  0  0  0
   10.1624   -6.8748    0.0000 N   0  0  0  0  0  0  0  0  0  0  0  0
    8.9488   -5.9931    0.0000 N   0  0  0  0  0  0  0  0  0  0  0  0
    3.8817   -3.8116    0.0000 C   0  0  0  0  0  0  0  0  0  0  0  0
    0.7500   -1.2990    0.0000 C   0  0  0  0  0  0  0  0  0  0  0  0
    1.5000    0.0000    0.0000 C   0  0  0  0  0  0  0  0  0  0  0  0
    0.7500    1.2990    0.0000 C   0  0  0  0  0  0  0  0  0  0  0  0
   -0.7500    1.2990    0.0000 C   0  0  0  0  0  0  0  0  0  0  0  0
   -1.5000    0.0000    0.0000 C   0  0  0  0  0  0  0  0  0  0  0  0
   -0.7500   -1.2990    0.0000 C   0  0  0  0  0  0  0  0  0  0  0  0
  1  2  1  0
  2  3  1  0
  3  4  1  0
  4  5  1  0
  5  6  1  0
  6  7  1  0
  7  8  1  0
  8  9  1  0
  9 10  1  0
 10 11  2  0
 10 12  1  0
 12 13  1  0
 13 14  2  0
 14 15  1  0
 15 16  2  0
 16 17  1  0
 17 18  2  0
  9 19  1  0
  5 20  1  0
 20 21  2  0
 21 22  1  0
 22 23  2  0
 23 24  1  0
 24 25  2  0
 25  2  1  0
 19  6  1  0
 25 20  1  0
 18 13  1  0
M  END
>  <Title>  (730) 
idABADgen6

$$$$

     RDKit          2D

 25 28  0  0  0  0  0  0  0  0999 V2000
   -3.0000   -2.5981    0.0000 C   0  0  0  0  0  0  0  0  0  0  0  0
   -1.5000   -2.5981    0.0000 C   0  0  0  0  0  0  0  0  0  0  0  0
   -0.7500   -3.8971    0.0000 C   0  0  0  0  0  0  0  0  0  0  0  0
    0.7500   -3.8971    0.0000 C   0  0  0  0  0  0  0  0  0  0  0  0
    1.5000   -2.5981    0.0000 C   0  0  0  0  0  0  0  0  0  0  0  0
    3.0000   -2.5981    0.0000 C   0  0  0  0  0  0  0  0  0  0  0  0
    3.8817   -1.3846    0.0000 C   0  0  0  0  0  0  0  0  0  0  0  0
    5.3083   -1.8481    0.0000 C   0  0  0  0  0  0  0  0  0  0  0  0
    5.3083   -3.3481    0.0000 C   0  0  0  0  0  0  0  0  0  0  0  0
    6.5218   -4.2298    0.0000 C   0  0  0  0  0  0  0  0  0  0  0  0
    7.8921   -3.6196    0.0000 O   0  0  0  0  0  0  0  0  0  0  0  0
    6.3650   -5.7215    0.0000 N   0  0  0  0  0  0  0  0  0  0  0  0
    7.5785   -6.6032    0.0000 C   0  0  0  0  0  0  0  0  0  0  0  0
    7.4217   -8.0950    0.0000 C   0  0  0  0  0  0  0  0  0  0  0  0
    8.6353   -8.9767    0.0000 C   0  0  0  0  0  0  0  0  0  0  0  0
   10.0056   -8.3666    0.0000 C   0  0  0  0  0  0  0  0  0  0  0  0
   10.1624   -6.8748    0.0000 C   0  0  0  0  0  0  0  0  0  0  0  0
    8.9488   -5.9931    0.0000 C   0  0  0  0  0  0  0  0  0  0  0  0
    3.8817   -3.8116    0.0000 C   0  0  0  0  0  0  0  0  0  0  0  0
    0.7500   -1.2990    0.0000 C   0  0  0  0  0  0  0  0  0  0  0  0
    1.5000    0.0000    0.0000 C   0  0  0  0  0  0  0  0  0  0  0  0
    0.7500    1.2990    0.0000 C   0  0  0  0  0  0  0  0  0  0  0  0
   -0.7500    1.2990    0.0000 C   0  0  0  0  0  0  0  0  0  0  0  0
   -1.5000    0.0000    0.0000 C   0  0  0  0  0  0  0  0  0  0  0  0
   -0.7500   -1.2990    0.0000 C   0  0  0  0  0  0  0  0  0  0  0  0
  1  2  1  0
  2  3  2  0
  3  4  1  0
  4  5  2  0
  5  6  1  0
  6  7  1  0
  7  8  1  0
  8  9  1  0
  9 10  1  0
 10 11  2  0
 10 12  1  0
 12 13  1  0
 13 14  2  0
 14 15  1  0
 15 16  2  0
 16 17  1  0
 17 18  2  0
  9 19  1  0
  5 20  1  0
 20 21  2  0
 21 22  1  0
 22 23  2  0
 23 24  1  0
 24 25  2  0
 25  2  1  0
 19  6  1  0
 25 20  1  0
 18 13  1  0
M  END
>  <Title>  (731) 
idABAEgen6

$$$$

     RDKit          2D

 45 47  0  0  0  0  0  0  0  0999 V2000
  -14.3246   23.0639    0.0000 C   0  0  0  0  0  0  0  0  0  0  0  0
  -13.2099   22.0602    0.0000 C   0  0  0  0  0  0  0  0  0  0  0  0
  -11.7833   22.5237    0.0000 O   0  0  0  0  0  0  0  0  0  0  0  0
  -13.5218   20.5930    0.0000 C   0  0  0  0  0  0  0  0  0  0  0  0
  -12.4071   19.5893    0.0000 C   0  0  0  0  0  0  0  0  0  0  0  0
  -12.7189   18.1221    0.0000 C   0  0  0  0  0  0  0  0  0  0  0  0
  -11.6042   17.1184    0.0000 C   0  0  0  0  0  0  0  0  0  0  0  0
  -11.9161   15.6511    0.0000 C   0  0  0  0  0  0  0  0  0  0  0  0
  -10.8014   14.6474    0.0000 C   0  0  0  0  0  0  0  0  0  0  0  0
  -11.1132   13.1802    0.0000 C   0  0  0  0  0  0  0  0  0  0  0  0
   -9.9985   12.1765    0.0000 C   0  0  0  0  0  0  0  0  0  0  0  0
  -10.3104   10.7093    0.0000 C   0  0  0  0  0  0  0  0  0  0  0  0
   -9.1957    9.7056    0.0000 C   0  0  0  0  0  0  0  0  0  0  0  0
   -9.5075    8.2384    0.0000 C   0  0  0  0  0  0  0  0  0  0  0  0
   -8.3928    7.2347    0.0000 C   0  0  0  0  0  0  0  0  0  0  0  0
   -8.7047    5.7675    0.0000 C   0  0  0  0  0  0  0  0  0  0  0  0
   -7.5900    4.7638    0.0000 C   0  0  0  0  0  0  0  0  0  0  0  0
   -7.9018    3.2966    0.0000 C   0  0  0  0  0  0  0  0  0  0  0  0
   -9.3284    2.8330    0.0000 O   0  0  0  0  0  0  0  0  0  0  0  0
   -6.7871    2.2929    0.0000 C   0  0  0  0  0  0  0  0  0  0  0  0
   -7.0990    0.8256    0.0000 N   0  0  0  0  0  0  0  0  0  0  0  0
   -5.9843   -0.1781    0.0000 C   0  0  0  0  0  0  0  0  0  0  0  0
   -4.5577    0.2855    0.0000 O   0  0  0  0  0  0  0  0  0  0  0  0
   -6.2961   -1.6453    0.0000 C   0  0  0  0  0  0  0  0  0  0  0  0
   -7.7227   -2.1088    0.0000 C   0  0  0  0  0  0  0  0  0  0  0  0
   -8.8374   -1.1051    0.0000 C   0  0  0  0  0  0  0  0  0  0  0  0
   -8.5256    0.3621    0.0000 C   0  0  0  0  0  0  0  0  0  0  0  0
   -9.6403    1.3658    0.0000 C   0  0  0  0  0  0  0  0  0  0  0  0
  -11.0669    0.9023    0.0000 C   0  0  0  0  0  0  0  0  0  0  0  0
  -11.3787   -0.5649    0.0000 C   0  0  0  0  0  0  0  0  0  0  0  0
  -10.2640   -1.5686    0.0000 C   0  0  0  0  0  0  0  0  0  0  0  0
   -5.1814   -2.6490    0.0000 N   0  0  0  0  0  0  0  0  0  0  0  0
   -3.7548   -2.1855    0.0000 C   0  0  0  0  0  0  0  0  0  0  0  0
   -3.4430   -0.7182    0.0000 O   0  0  0  0  0  0  0  0  0  0  0  0
   -2.6401   -3.1891    0.0000 C   0  0  0  0  0  0  0  0  0  0  0  0
   -1.2135   -2.7256    0.0000 N   0  0  0  0  0  0  0  0  0  0  0  0
   -0.0000   -3.6073    0.0000 C   0  0  0  0  0  0  0  0  0  0  0  0
    0.0000   -5.1073    0.0000 O   0  0  0  0  0  0  0  0  0  0  0  0
    1.2135   -2.7256    0.0000 O   0  0  0  0  0  0  0  0  0  0  0  0
    0.7500   -1.2990    0.0000 C   0  0  0  0  0  0  0  0  0  0  0  0
    1.5000    0.0000    0.0000 C   0  0  0  0  0  0  0  0  0  0  0  0
    0.7500    1.2990    0.0000 C   0  0  0  0  0  0  0  0  0  0  0  0
   -0.7500    1.2990    0.0000 C   0  0  0  0  0  0  0  0  0  0  0  0
   -1.5000    0.0000    0.0000 C   0  0  0  0  0  0  0  0  0  0  0  0
   -0.7500   -1.2990    0.0000 C   0  0  0  0  0  0  0  0  0  0  0  0
  1  2  1  0
  2  3  2  0
  2  4  1  0
  4  5  1  0
  5  6  1  0
  6  7  1  0
  7  8  1  0
  8  9  1  0
  9 10  1  0
 10 11  1  0
 11 12  1  0
 12 13  1  0
 13 14  1  0
 14 15  1  0
 15 16  1  0
 16 17  1  0
 17 18  1  0
 18 19  1  0
 18 20  1  0
 20 21  1  0
 21 22  1  0
 22 23  2  0
 22 24  1  0
 24 25  1  0
 25 26  1  0
 26 27  2  0
 27 28  1  0
 28 29  2  0
 29 30  1  0
 30 31  2  0
 24 32  1  0
 32 33  1  0
 33 34  2  0
 33 35  1  0
 35 36  1  0
 36 37  1  0
 37 38  2  0
 37 39  1  0
 39 40  1  0
 40 41  2  0
 41 42  1  0
 42 43  2  0
 43 44  1  0
 44 45  2  0
 31 26  1  0
 45 36  1  0
 45 40  1  0
M  END
>  <Title>  (732) 
idABAFgen6

$$$$

     RDKit          2D

 31 31  0  0  0  0  0  0  0  0999 V2000
    9.1868   -1.2990    0.0000 C   0  0  0  0  0  0  0  0  0  0  0  0
    8.4368    0.0000    0.0000 O   0  0  0  0  0  0  0  0  0  0  0  0
    6.9368    0.0000    0.0000 C   0  0  0  0  0  0  0  0  0  0  0  0
    6.7746    1.4912    0.0000 C   0  0  0  0  0  0  0  0  0  0  0  0
    6.2957    2.9127    0.0000 C   0  0  0  0  0  0  0  0  0  0  0  0
    5.5223    4.1980    0.0000 C   0  0  0  0  0  0  0  0  0  0  0  0
    4.4908    5.2870    0.0000 C   0  0  0  0  0  0  0  0  0  0  0  0
    3.2493    6.1287    0.0000 C   0  0  0  0  0  0  0  0  0  0  0  0
    1.8558    6.6840    0.0000 C   0  0  0  0  0  0  0  0  0  0  0  0
    0.3756    6.9266    0.0000 C   0  0  0  0  0  0  0  0  0  0  0  0
   -1.1222    6.8454    0.0000 C   0  0  0  0  0  0  0  0  0  0  0  0
   -2.5676    6.4441    0.0000 C   0  0  0  0  0  0  0  0  0  0  0  0
   -3.8928    5.7415    0.0000 C   0  0  0  0  0  0  0  0  0  0  0  0
   -5.0361    4.7704    0.0000 C   0  0  0  0  0  0  0  0  0  0  0  0
   -5.9438    3.5763    0.0000 C   0  0  0  0  0  0  0  0  0  0  0  0
   -6.5737    2.2149    0.0000 C   0  0  0  0  0  0  0  0  0  0  0  0
   -6.8961    0.7500    0.0000 C   0  0  0  0  0  0  0  0  0  0  0  0
   -6.8961   -0.7500    0.0000 C   0  0  0  0  0  0  0  0  0  0  0  0
   -6.5737   -2.2149    0.0000 C   0  0  0  0  0  0  0  0  0  0  0  0
   -5.9438   -3.5763    0.0000 C   0  0  0  0  0  0  0  0  0  0  0  0
   -5.0361   -4.7704    0.0000 C   0  0  0  0  0  0  0  0  0  0  0  0
   -3.8928   -5.7415    0.0000 C   0  0  0  0  0  0  0  0  0  0  0  0
   -2.5676   -6.4441    0.0000 C   0  0  0  0  0  0  0  0  0  0  0  0
   -1.1222   -6.8454    0.0000 C   0  0  0  0  0  0  0  0  0  0  0  0
    0.3756   -6.9266    0.0000 C   0  0  0  0  0  0  0  0  0  0  0  0
    1.8558   -6.6840    0.0000 C   0  0  0  0  0  0  0  0  0  0  0  0
    3.2493   -6.1287    0.0000 C   0  0  0  0  0  0  0  0  0  0  0  0
    4.4908   -5.2870    0.0000 C   0  0  0  0  0  0  0  0  0  0  0  0
    5.5223   -4.1980    0.0000 C   0  0  0  0  0  0  0  0  0  0  0  0
    6.2957   -2.9127    0.0000 C   0  0  0  0  0  0  0  0  0  0  0  0
    6.7746   -1.4912    0.0000 N   0  0  0  0  0  0  0  0  0  0  0  0
  1  2  1  0
  2  3  1  0
  3  4  1  0
  4  5  2  0
  5  6  1  0
  6  7  1  0
  7  8  1  0
  8  9  1  0
  9 10  1  0
 10 11  1  0
 11 12  1  0
 12 13  1  0
 13 14  1  0
 14 15  1  0
 15 16  1  0
 16 17  1  0
 17 18  1  0
 18 19  1  0
 19 20  1  0
 20 21  1  0
 21 22  1  0
 22 23  1  0
 23 24  1  0
 24 25  1  0
 25 26  1  0
 26 27  1  0
 27 28  1  0
 28 29  1  0
 29 30  1  0
 30 31  1  0
 31  3  1  0
M  END
>  <Title>  (733) 
idABAGgen6

$$$$

     RDKit          2D

 22 24  0  0  0  0  0  0  0  0999 V2000
    1.5000   -5.1962    0.0000 C   0  0  0  0  0  0  0  0  0  0  0  0
    0.7500   -3.8971    0.0000 C   0  0  0  0  0  0  0  0  0  0  0  0
   -0.7500   -3.8971    0.0000 O   0  0  0  0  0  0  0  0  0  0  0  0
    1.5000   -2.5981    0.0000 C   0  0  0  0  0  0  0  0  0  0  0  0
    0.7500   -1.2990    0.0000 C   0  0  0  0  0  0  0  0  0  0  0  0
    1.5000    0.0000    0.0000 C   0  0  0  0  0  0  0  0  0  0  0  0
    0.7500    1.2990    0.0000 C   0  0  0  0  0  0  0  0  0  0  0  0
   -0.7500    1.2990    0.0000 C   0  0  0  0  0  0  0  0  0  0  0  0
   -1.5000    0.0000    0.0000 C   0  0  0  0  0  0  0  0  0  0  0  0
   -0.7500   -1.2990    0.0000 C   0  0  0  0  0  0  0  0  0  0  0  0
    3.0000   -2.5981    0.0000 N   0  0  0  0  0  0  0  0  0  0  0  0
    3.7500   -3.8971    0.0000 C   0  0  0  0  0  0  0  0  0  0  0  0
    5.2500   -3.8971    0.0000 C   0  0  0  0  0  0  0  0  0  0  0  0
    6.0000   -2.5981    0.0000 C   0  0  0  0  0  0  0  0  0  0  0  0
    7.5000   -2.5981    0.0000 C   0  0  0  0  0  0  0  0  0  0  0  0
    8.2500   -3.8971    0.0000 C   0  0  0  0  0  0  0  0  0  0  0  0
    9.7500   -3.8971    0.0000 C   0  0  0  0  0  0  0  0  0  0  0  0
   10.5000   -2.5981    0.0000 C   0  0  0  0  0  0  0  0  0  0  0  0
    9.7500   -1.2990    0.0000 C   0  0  0  0  0  0  0  0  0  0  0  0
    8.2500   -1.2990    0.0000 C   0  0  0  0  0  0  0  0  0  0  0  0
    5.2500   -1.2990    0.0000 C   0  0  0  0  0  0  0  0  0  0  0  0
    3.7500   -1.2990    0.0000 C   0  0  0  0  0  0  0  0  0  0  0  0
  1  2  1  0
  2  3  2  0
  2  4  1  0
  4  5  1  0
  5  6  2  0
  6  7  1  0
  7  8  2  0
  8  9  1  0
  9 10  2  0
  4 11  1  0
 11 12  1  0
 12 13  1  0
 13 14  1  0
 14 15  1  0
 15 16  2  0
 16 17  1  0
 17 18  2  0
 18 19  1  0
 19 20  2  0
 14 21  1  0
 21 22  1  0
 10  5  1  0
 22 11  1  0
 20 15  1  0
M  END
>  <Title>  (734) 
idABAHgen6

$$$$

     RDKit          2D

 21 23  0  0  0  0  0  0  0  0999 V2000
   -3.7500   -3.8971    0.0000 C   0  0  0  0  0  0  0  0  0  0  0  0
   -3.0000   -2.5981    0.0000 O   0  0  0  0  0  0  0  0  0  0  0  0
   -1.5000   -2.5981    0.0000 C   0  0  0  0  0  0  0  0  0  0  0  0
   -0.7500   -3.8971    0.0000 C   0  0  0  0  0  0  0  0  0  0  0  0
    0.7500   -3.8971    0.0000 C   0  0  0  0  0  0  0  0  0  0  0  0
    1.5000   -2.5981    0.0000 C   0  0  0  0  0  0  0  0  0  0  0  0
    3.0000   -2.5981    0.0000 C   0  0  0  0  0  0  0  0  0  0  0  0
    3.7500   -1.2990    0.0000 O   0  0  0  0  0  0  0  0  0  0  0  0
    3.7500   -3.8971    0.0000 N   0  0  0  0  0  0  0  0  0  0  0  0
    5.2500   -3.8971    0.0000 C   0  0  0  0  0  0  0  0  0  0  0  0
    6.0000   -5.1962    0.0000 N   0  0  0  0  0  0  0  0  0  0  0  0
    7.5000   -5.1962    0.0000 N   0  0  0  0  0  0  0  0  0  0  0  0
    8.2500   -3.8971    0.0000 N   0  0  0  0  0  0  0  0  0  0  0  0
    7.5000   -2.5981    0.0000 N   0  0  0  0  0  0  0  0  0  0  0  0
    6.0000   -2.5981    0.0000 N   0  0  0  0  0  0  0  0  0  0  0  0
    0.7500   -1.2990    0.0000 C   0  0  0  0  0  0  0  0  0  0  0  0
    1.5000    0.0000    0.0000 C   0  0  0  0  0  0  0  0  0  0  0  0
    0.7500    1.2990    0.0000 C   0  0  0  0  0  0  0  0  0  0  0  0
   -0.7500    1.2990    0.0000 C   0  0  0  0  0  0  0  0  0  0  0  0
   -1.5000    0.0000    0.0000 C   0  0  0  0  0  0  0  0  0  0  0  0
   -0.7500   -1.2990    0.0000 C   0  0  0  0  0  0  0  0  0  0  0  0
  1  2  1  0
  2  3  1  0
  3  4  2  0
  4  5  1  0
  5  6  2  0
  6  7  1  0
  7  8  2  0
  7  9  1  0
  9 10  1  0
 10 11  2  0
 11 12  1  0
 12 13  2  0
 13 14  1  0
 14 15  2  0
  6 16  1  0
 16 17  2  0
 17 18  1  0
 18 19  2  0
 19 20  1  0
 20 21  2  0
 21  3  1  0
 15 10  1  0
 21 16  1  0
M  END
>  <Title>  (735) 
idABAIgen6

$$$$

     RDKit          2D

 26 28  0  0  0  0  0  0  0  0999 V2000
   -7.6768   -1.7610    0.0000 C   0  0  0  0  0  0  0  0  0  0  0  0
   -7.3649   -0.2938    0.0000 C   0  0  0  0  0  0  0  0  0  0  0  0
   -7.0530    1.1734    0.0000 C   0  0  0  0  0  0  0  0  0  0  0  0
   -8.8321    0.0181    0.0000 C   0  0  0  0  0  0  0  0  0  0  0  0
   -5.8977   -0.6057    0.0000 C   0  0  0  0  0  0  0  0  0  0  0  0
   -5.4341   -2.0322    0.0000 C   0  0  0  0  0  0  0  0  0  0  0  0
   -3.9669   -2.3441    0.0000 O   0  0  0  0  0  0  0  0  0  0  0  0
   -6.4378   -3.1470    0.0000 O   0  0  0  0  0  0  0  0  0  0  0  0
   -4.8940    0.5091    0.0000 C   0  0  0  0  0  0  0  0  0  0  0  0
   -5.3575    1.9356    0.0000 O   0  0  0  0  0  0  0  0  0  0  0  0
   -3.4268    0.1972    0.0000 N   0  0  0  0  0  0  0  0  0  0  0  0
   -2.4231    1.3119    0.0000 C   0  0  0  0  0  0  0  0  0  0  0  0
   -3.1273    2.6363    0.0000 C   0  0  0  0  0  0  0  0  0  0  0  0
   -2.8154    4.1036    0.0000 N   0  0  0  0  0  0  0  0  0  0  0  0
   -1.6334    5.0270    0.0000 C   0  0  0  0  0  0  0  0  0  0  0  0
   -1.5810    6.5261    0.0000 C   0  0  0  0  0  0  0  0  0  0  0  0
   -2.6040    7.6232    0.0000 O   0  0  0  0  0  0  0  0  0  0  0  0
   -0.0820    6.4738    0.0000 O   0  0  0  0  0  0  0  0  0  0  0  0
   -0.1343    4.9747    0.0000 C   0  0  0  0  0  0  0  0  0  0  0  0
    0.9804    3.9710    0.0000 C   0  0  0  0  0  0  0  0  0  0  0  0
    1.1892    2.4856    0.0000 C   0  0  0  0  0  0  0  0  0  0  0  0
    0.3943    1.2135    0.0000 C   0  0  0  0  0  0  0  0  0  0  0  0
    1.2760    0.0000    0.0000 C   0  0  0  0  0  0  0  0  0  0  0  0
    0.3943   -1.2135    0.0000 C   0  0  0  0  0  0  0  0  0  0  0  0
   -1.0323   -0.7500    0.0000 C   0  0  0  0  0  0  0  0  0  0  0  0
   -1.0323    0.7500    0.0000 C   0  0  0  0  0  0  0  0  0  0  0  0
  1  2  1  0
  2  3  1  0
  2  4  1  0
  2  5  1  0
  5  6  1  0
  6  7  2  0
  6  8  1  0
  5  9  1  0
  9 10  2  0
  9 11  1  0
 11 12  1  0
 12 13  2  0
 13 14  1  0
 14 15  2  0
 15 16  1  0
 16 17  2  0
 16 18  1  0
 18 19  1  0
 19 20  2  0
 20 21  1  0
 21 22  2  0
 22 23  1  0
 23 24  2  0
 24 25  1  0
 25 26  2  0
 26 12  1  0
 19 15  1  0
 26 22  1  0
M  END
>  <Title>  (736) 
idABAJgen6

$$$$

     RDKit          2D

 23 25  0  0  0  0  0  0  0  0999 V2000
   -4.3865   -2.6988    0.0000 C   0  0  0  0  0  0  0  0  0  0  0  0
   -3.1965   -1.7857    0.0000 O   0  0  0  0  0  0  0  0  0  0  0  0
   -1.8107   -2.3597    0.0000 C   0  0  0  0  0  0  0  0  0  0  0  0
   -1.8107   -3.8597    0.0000 C   0  0  0  0  0  0  0  0  0  0  0  0
   -0.7500   -4.9204    0.0000 C   0  0  0  0  0  0  0  0  0  0  0  0
    0.7500   -4.9204    0.0000 C   0  0  0  0  0  0  0  0  0  0  0  0
    1.8107   -3.8597    0.0000 C   0  0  0  0  0  0  0  0  0  0  0  0
    1.8107   -2.3597    0.0000 C   0  0  0  0  0  0  0  0  0  0  0  0
    3.1965   -1.7857    0.0000 C   0  0  0  0  0  0  0  0  0  0  0  0
    3.3923   -0.2985    0.0000 O   0  0  0  0  0  0  0  0  0  0  0  0
    4.3865   -2.6988    0.0000 N   0  0  0  0  0  0  0  0  0  0  0  0
    5.7723   -2.1248    0.0000 C   0  0  0  0  0  0  0  0  0  0  0  0
    6.9624   -3.0379    0.0000 N   0  0  0  0  0  0  0  0  0  0  0  0
    8.3482   -2.4639    0.0000 N   0  0  0  0  0  0  0  0  0  0  0  0
    8.5440   -0.9767    0.0000 N   0  0  0  0  0  0  0  0  0  0  0  0
    7.3539   -0.0636    0.0000 N   0  0  0  0  0  0  0  0  0  0  0  0
    5.9681   -0.6376    0.0000 N   0  0  0  0  0  0  0  0  0  0  0  0
    0.7500   -1.2990    0.0000 C   0  0  0  0  0  0  0  0  0  0  0  0
    1.5000    0.0000    0.0000 C   0  0  0  0  0  0  0  0  0  0  0  0
    0.7500    1.2990    0.0000 C   0  0  0  0  0  0  0  0  0  0  0  0
   -0.7500    1.2990    0.0000 C   0  0  0  0  0  0  0  0  0  0  0  0
   -1.5000    0.0000    0.0000 C   0  0  0  0  0  0  0  0  0  0  0  0
   -0.7500   -1.2990    0.0000 C   0  0  0  0  0  0  0  0  0  0  0  0
  1  2  1  0
  2  3  1  0
  3  4  2  0
  4  5  1  0
  5  6  2  0
  6  7  1  0
  7  8  1  0
  8  9  1  0
  9 10  2  0
  9 11  1  0
 11 12  1  0
 12 13  2  0
 13 14  1  0
 14 15  2  0
 15 16  1  0
 16 17  2  0
  8 18  1  0
 18 19  2  0
 19 20  1  0
 20 21  2  0
 21 22  1  0
 22 23  2  0
 23  3  1  0
 17 12  1  0
 23 18  1  0
M  END
>  <Title>  (737) 
idABAKgen6

$$$$

     RDKit          2D

 26 29  0  0  0  0  0  0  0  0999 V2000
   -1.3240   -6.3062    0.0000 C   0  0  0  0  0  0  0  0  0  0  0  0
   -0.7500   -4.9204    0.0000 C   0  0  0  0  0  0  0  0  0  0  0  0
    0.7500   -4.9204    0.0000 C   0  0  0  0  0  0  0  0  0  0  0  0
    1.8107   -3.8597    0.0000 C   0  0  0  0  0  0  0  0  0  0  0  0
    1.8107   -2.3597    0.0000 C   0  0  0  0  0  0  0  0  0  0  0  0
    3.1965   -1.7857    0.0000 C   0  0  0  0  0  0  0  0  0  0  0  0
    3.3923   -0.2985    0.0000 O   0  0  0  0  0  0  0  0  0  0  0  0
    4.3865   -2.6988    0.0000 N   0  0  0  0  0  0  0  0  0  0  0  0
    5.7723   -2.1248    0.0000 C   0  0  0  0  0  0  0  0  0  0  0  0
    6.9624   -3.0379    0.0000 N   0  0  0  0  0  0  0  0  0  0  0  0
    8.3482   -2.4639    0.0000 N   0  0  0  0  0  0  0  0  0  0  0  0
    8.5440   -0.9767    0.0000 N   0  0  0  0  0  0  0  0  0  0  0  0
    7.3539   -0.0636    0.0000 N   0  0  0  0  0  0  0  0  0  0  0  0
    5.9681   -0.6376    0.0000 N   0  0  0  0  0  0  0  0  0  0  0  0
    0.7500   -1.2990    0.0000 C   0  0  0  0  0  0  0  0  0  0  0  0
    1.5000    0.0000    0.0000 C   0  0  0  0  0  0  0  0  0  0  0  0
    0.7500    1.2990    0.0000 C   0  0  0  0  0  0  0  0  0  0  0  0
   -0.7500    1.2990    0.0000 C   0  0  0  0  0  0  0  0  0  0  0  0
   -1.5000    0.0000    0.0000 C   0  0  0  0  0  0  0  0  0  0  0  0
   -0.7500   -1.2990    0.0000 C   0  0  0  0  0  0  0  0  0  0  0  0
   -1.8107   -2.3597    0.0000 C   0  0  0  0  0  0  0  0  0  0  0  0
   -3.1097   -1.6097    0.0000 C   0  0  0  0  0  0  0  0  0  0  0  0
   -4.4087   -2.3597    0.0000 C   0  0  0  0  0  0  0  0  0  0  0  0
   -4.4087   -3.8597    0.0000 C   0  0  0  0  0  0  0  0  0  0  0  0
   -3.1097   -4.6097    0.0000 C   0  0  0  0  0  0  0  0  0  0  0  0
   -1.8107   -3.8597    0.0000 C   0  0  0  0  0  0  0  0  0  0  0  0
  1  2  1  0
  2  3  1  0
  3  4  2  0
  4  5  1  0
  5  6  1  0
  6  7  2  0
  6  8  1  0
  8  9  1  0
  9 10  2  0
 10 11  1  0
 11 12  2  0
 12 13  1  0
 13 14  2  0
  5 15  1  0
 15 16  2  0
 16 17  1  0
 17 18  2  0
 18 19  1  0
 19 20  2  0
 20 21  1  0
 21 22  2  0
 22 23  1  0
 23 24  2  0
 24 25  1  0
 25 26  2  0
 26  2  1  0
 14  9  1  0
 20 15  1  0
 26 21  1  0
M  END
>  <Title>  (738) 
idABALgen6

$$$$

     RDKit          2D

  7  7  0  0  0  0  0  0  0  0999 V2000
    1.7331   -2.5095    0.0000 C   0  0  0  0  0  0  0  0  0  0  0  0
    2.1213   -1.0607    0.0000 C   0  0  0  0  0  0  0  0  0  0  0  0
    1.0607    0.0000    0.0000 C   0  0  0  0  0  0  0  0  0  0  0  0
    2.1213    1.0607    0.0000 C   0  0  0  0  0  0  0  0  0  0  0  0
   -0.0000   -1.0607    0.0000 C   0  0  0  0  0  0  0  0  0  0  0  0
   -1.0607    0.0000    0.0000 C   0  0  0  0  0  0  0  0  0  0  0  0
    0.0000    1.0607    0.0000 C   0  0  0  0  0  0  0  0  0  0  0  0
  1  2  1  0
  2  3  1  0
  3  4  1  0
  3  5  1  0
  5  6  1  0
  6  7  1  0
  7  3  1  0
M  END
>  <Title>  (739) 
idABAMgen6

$$$$

     RDKit          2D

 25 27  0  0  0  0  0  0  0  0999 V2000
   -5.6536    8.0852    0.0000 C   0  0  0  0  0  0  0  0  0  0  0  0
   -4.2492    7.5581    0.0000 C   0  0  0  0  0  0  0  0  0  0  0  0
   -3.0906    8.5108    0.0000 C   0  0  0  0  0  0  0  0  0  0  0  0
   -1.6862    7.9837    0.0000 C   0  0  0  0  0  0  0  0  0  0  0  0
   -1.4405    6.5040    0.0000 C   0  0  0  0  0  0  0  0  0  0  0  0
   -0.0362    5.9769    0.0000 C   0  0  0  0  0  0  0  0  0  0  0  0
    1.1225    6.9296    0.0000 O   0  0  0  0  0  0  0  0  0  0  0  0
    0.2096    4.4972    0.0000 N   0  0  0  0  0  0  0  0  0  0  0  0
    1.6139    3.9701    0.0000 C   0  0  0  0  0  0  0  0  0  0  0  0
    2.8658    4.7965    0.0000 N   0  0  0  0  0  0  0  0  0  0  0  0
    4.0385    3.8613    0.0000 N   0  0  0  0  0  0  0  0  0  0  0  0
    3.5115    2.4569    0.0000 N   0  0  0  0  0  0  0  0  0  0  0  0
    2.0130    2.5242    0.0000 N   0  0  0  0  0  0  0  0  0  0  0  0
    1.0777    1.3515    0.0000 C   0  0  0  0  0  0  0  0  0  0  0  0
    1.7286    0.0000    0.0000 C   0  0  0  0  0  0  0  0  0  0  0  0
    1.0777   -1.3515    0.0000 C   0  0  0  0  0  0  0  0  0  0  0  0
   -0.3846   -1.6852    0.0000 C   0  0  0  0  0  0  0  0  0  0  0  0
   -0.7184   -3.1476    0.0000 C   0  0  0  0  0  0  0  0  0  0  0  0
   -1.0522   -4.6100    0.0000 N   0  0  0  0  0  0  0  0  0  0  0  0
   -1.5574   -0.7500    0.0000 C   0  0  0  0  0  0  0  0  0  0  0  0
   -2.9088   -1.4008    0.0000 C   0  0  0  0  0  0  0  0  0  0  0  0
   -1.5574    0.7500    0.0000 C   0  0  0  0  0  0  0  0  0  0  0  0
   -0.3846    1.6852    0.0000 C   0  0  0  0  0  0  0  0  0  0  0  0
   -2.5991    5.5513    0.0000 C   0  0  0  0  0  0  0  0  0  0  0  0
   -4.0035    6.0784    0.0000 C   0  0  0  0  0  0  0  0  0  0  0  0
  1  2  1  0
  2  3  1  0
  3  4  1  0
  4  5  1  0
  5  6  1  0
  6  7  2  0
  6  8  1  0
  8  9  1  0
  9 10  2  0
 10 11  1  0
 11 12  2  0
 12 13  1  0
 13 14  1  0
 14 15  2  0
 15 16  1  0
 16 17  2  0
 17 18  1  0
 18 19  3  0
 17 20  1  0
 20 21  1  0
 20 22  1  0
 22 23  2  0
  5 24  1  0
 24 25  1  0
 25  2  1  0
 13  9  1  0
 23 14  1  0
M  END
>  <Title>  (740) 
idABANgen6

$$$$

     RDKit          2D

 33 37  0  0  0  0  0  0  0  0999 V2000
    3.0000    0.0000    0.0000 C   0  0  0  0  0  0  0  0  0  0  0  0
    1.5000    0.0000    0.0000 C   0  0  0  0  0  0  0  0  0  0  0  0
    0.7500   -1.2990    0.0000 C   0  0  0  0  0  0  0  0  0  0  0  0
   -0.7500   -1.2990    0.0000 C   0  0  0  0  0  0  0  0  0  0  0  0
   -1.5000    0.0000    0.0000 C   0  0  0  0  0  0  0  0  0  0  0  0
   -0.7500    1.2990    0.0000 C   0  0  0  0  0  0  0  0  0  0  0  0
   -1.5000    2.5981    0.0000 C   0  0  0  0  0  0  0  0  0  0  0  0
   -3.0000    2.5981    0.0000 O   0  0  0  0  0  0  0  0  0  0  0  0
   -0.7500    3.8971    0.0000 O   0  0  0  0  0  0  0  0  0  0  0  0
   -1.5000    5.1962    0.0000 C   0  0  0  0  0  0  0  0  0  0  0  0
   -2.9918    5.3529    0.0000 N   0  0  0  0  0  0  0  0  0  0  0  0
   -3.3037    6.8202    0.0000 N   0  0  0  0  0  0  0  0  0  0  0  0
   -2.0046    7.5702    0.0000 N   0  0  0  0  0  0  0  0  0  0  0  0
   -0.8899    6.5665    0.0000 N   0  0  0  0  0  0  0  0  0  0  0  0
    0.5773    6.8783    0.0000 C   0  0  0  0  0  0  0  0  0  0  0  0
    1.5810    5.7636    0.0000 C   0  0  0  0  0  0  0  0  0  0  0  0
    3.0482    6.0755    0.0000 C   0  0  0  0  0  0  0  0  0  0  0  0
    3.5118    7.5021    0.0000 C   0  0  0  0  0  0  0  0  0  0  0  0
    2.5081    8.6168    0.0000 C   0  0  0  0  0  0  0  0  0  0  0  0
    1.0409    8.3049    0.0000 C   0  0  0  0  0  0  0  0  0  0  0  0
    0.0372    9.4196    0.0000 C   0  0  0  0  0  0  0  0  0  0  0  0
   -1.4301    9.1078    0.0000 C   0  0  0  0  0  0  0  0  0  0  0  0
   -2.4338   10.2225    0.0000 C   0  0  0  0  0  0  0  0  0  0  0  0
   -1.9702   11.6491    0.0000 C   0  0  0  0  0  0  0  0  0  0  0  0
   -0.5030   11.9609    0.0000 C   0  0  0  0  0  0  0  0  0  0  0  0
    0.5007   10.8462    0.0000 C   0  0  0  0  0  0  0  0  0  0  0  0
    1.9679   11.1581    0.0000 C   0  0  0  0  0  0  0  0  0  0  0  0
    2.4314   12.5847    0.0000 C   0  0  0  0  0  0  0  0  0  0  0  0
    3.8986   12.8965    0.0000 C   0  0  0  0  0  0  0  0  0  0  0  0
    4.9023   11.7818    0.0000 C   0  0  0  0  0  0  0  0  0  0  0  0
    4.4388   10.3552    0.0000 C   0  0  0  0  0  0  0  0  0  0  0  0
    2.9716   10.0434    0.0000 C   0  0  0  0  0  0  0  0  0  0  0  0
    0.7500    1.2990    0.0000 C   0  0  0  0  0  0  0  0  0  0  0  0
  1  2  1  0
  2  3  1  0
  3  4  1  0
  4  5  1  0
  5  6  1  0
  6  7  1  0
  7  8  2  0
  7  9  1  0
  9 10  1  0
 10 11  2  0
 11 12  1  0
 12 13  2  0
 13 14  1  0
 14 15  1  0
 15 16  2  0
 16 17  1  0
 17 18  2  0
 18 19  1  0
 19 20  2  0
 20 21  1  0
 21 22  2  0
 22 23  1  0
 23 24  2  0
 24 25  1  0
 25 26  2  0
 26 27  1  0
 27 28  2  0
 28 29  1  0
 29 30  2  0
 30 31  1  0
 31 32  2  0
  6 33  1  0
 33  2  1  0
 14 10  1  0
 20 15  1  0
 26 21  1  0
 32 27  1  0
M  END
>  <Title>  (741) 
idABAOgen6

$$$$

     RDKit          2D

 21 22  0  0  0  0  0  0  0  0999 V2000
    0.7500   -6.4952    0.0000 C   0  0  0  0  0  0  0  0  0  0  0  0
    1.5000   -5.1962    0.0000 C   0  0  0  0  0  0  0  0  0  0  0  0
    3.0000   -5.1962    0.0000 O   0  0  0  0  0  0  0  0  0  0  0  0
    0.7500   -3.8971    0.0000 C   0  0  0  0  0  0  0  0  0  0  0  0
    1.5000   -2.5981    0.0000 C   0  0  0  0  0  0  0  0  0  0  0  0
    0.7500   -1.2990    0.0000 C   0  0  0  0  0  0  0  0  0  0  0  0
    1.5000    0.0000    0.0000 C   0  0  0  0  0  0  0  0  0  0  0  0
    0.7500    1.2990    0.0000 C   0  0  0  0  0  0  0  0  0  0  0  0
   -0.7500    1.2990    0.0000 C   0  0  0  0  0  0  0  0  0  0  0  0
   -1.5000    2.5981    0.0000 O   0  0  0  0  0  0  0  0  0  0  0  0
   -1.5000    0.0000    0.0000 C   0  0  0  0  0  0  0  0  0  0  0  0
   -0.7500   -1.2990    0.0000 C   0  0  0  0  0  0  0  0  0  0  0  0
   -0.7500   -3.8971    0.0000 N   0  0  0  0  0  0  0  0  0  0  0  0
   -1.5000   -5.1962    0.0000 C   0  0  0  0  0  0  0  0  0  0  0  0
   -0.7500   -6.4952    0.0000 O   0  0  0  0  0  0  0  0  0  0  0  0
   -3.0000   -5.1962    0.0000 C   0  0  0  0  0  0  0  0  0  0  0  0
   -3.8817   -6.4097    0.0000 C   0  0  0  0  0  0  0  0  0  0  0  0
   -5.3083   -5.9462    0.0000 C   0  0  0  0  0  0  0  0  0  0  0  0
   -5.3083   -4.4462    0.0000 C   0  0  0  0  0  0  0  0  0  0  0  0
   -6.5218   -3.5645    0.0000 O   0  0  0  0  0  0  0  0  0  0  0  0
   -3.8817   -3.9826    0.0000 N   0  0  0  0  0  0  0  0  0  0  0  0
  1  2  1  0
  2  3  2  0
  2  4  1  0
  4  5  1  0
  5  6  1  0
  6  7  2  0
  7  8  1  0
  8  9  2  0
  9 10  1  0
  9 11  1  0
 11 12  1  0
  4 13  1  0
 13 14  1  0
 14 15  2  0
 14 16  1  0
 16 17  1  0
 17 18  1  0
 18 19  1  0
 19 20  2  0
 19 21  1  0
 12  6  1  0
 21 16  1  0
M  END
>  <Title>  (742) 
idABAPgen6

$$$$

     RDKit          2D

 23 25  0  0  0  0  0  0  0  0999 V2000
    3.2286   -0.0000    0.0000 C   0  0  0  0  0  0  0  0  0  0  0  0
    1.7286    0.0000    0.0000 C   0  0  0  0  0  0  0  0  0  0  0  0
    1.0777    1.3515    0.0000 C   0  0  0  0  0  0  0  0  0  0  0  0
   -0.3846    1.6852    0.0000 C   0  0  0  0  0  0  0  0  0  0  0  0
   -1.5574    0.7500    0.0000 C   0  0  0  0  0  0  0  0  0  0  0  0
   -1.5574   -0.7500    0.0000 C   0  0  0  0  0  0  0  0  0  0  0  0
   -2.4920   -1.5264    0.0000 O   0  0  0  0  0  0  0  0  0  0  0  0
   -0.3846   -1.6852    0.0000 C   0  0  0  0  0  0  0  0  0  0  0  0
    1.0777   -1.3515    0.0000 C   0  0  0  0  0  0  0  0  0  0  0  0
   -1.5574   -2.6205    0.0000 C   0  0  0  0  0  0  0  0  0  0  0  0
   -1.2236   -4.0829    0.0000 C   0  0  0  0  0  0  0  0  0  0  0  0
   -2.3232   -5.1031    0.0000 C   0  0  0  0  0  0  0  0  0  0  0  0
   -1.9894   -6.5655    0.0000 C   0  0  0  0  0  0  0  0  0  0  0  0
   -3.0890   -7.5858    0.0000 C   0  0  0  0  0  0  0  0  0  0  0  0
   -2.7552   -9.0482    0.0000 C   0  0  0  0  0  0  0  0  0  0  0  0
   -1.3218   -9.4903    0.0000 C   0  0  0  0  0  0  0  0  0  0  0  0
   -0.2223   -8.4700    0.0000 C   0  0  0  0  0  0  0  0  0  0  0  0
   -0.5560   -7.0076    0.0000 C   0  0  0  0  0  0  0  0  0  0  0  0
   -3.0198   -2.2867    0.0000 C   0  0  0  0  0  0  0  0  0  0  0  0
   -3.9550   -3.4594    0.0000 O   0  0  0  0  0  0  0  0  0  0  0  0
   -3.6706   -0.9352    0.0000 N   0  0  0  0  0  0  0  0  0  0  0  0
   -3.0198    0.4162    0.0000 C   0  0  0  0  0  0  0  0  0  0  0  0
   -3.9550    1.5890    0.0000 O   0  0  0  0  0  0  0  0  0  0  0  0
  1  2  1  0
  2  3  2  0
  3  4  1  0
  4  5  2  0
  5  6  1  0
  6  7  2  0
  6  8  1  0
  8  9  2  0
  8 10  1  0
 10 11  1  0
 11 12  1  0
 12 13  1  0
 13 14  2  0
 14 15  1  0
 15 16  2  0
 16 17  1  0
 17 18  2  0
 10 19  1  0
 19 20  2  0
 19 21  1  0
 21 22  1  0
 22 23  2  0
  9  2  1  0
 18 13  1  0
 22  5  1  0
M  END
>  <Title>  (743) 
idABAQgen6

$$$$

     RDKit          2D

 11 12  0  0  0  0  0  0  0  0999 V2000
    4.2760   -0.0000    0.0000 N   0  0  0  0  0  0  0  0  0  0  0  0
    2.7760    0.0000    0.0000 C   0  0  0  0  0  0  0  0  0  0  0  0
    1.2760    0.0000    0.0000 C   0  0  0  0  0  0  0  0  0  0  0  0
    0.3943    1.2135    0.0000 C   0  0  0  0  0  0  0  0  0  0  0  0
   -1.0323    0.7500    0.0000 C   0  0  0  0  0  0  0  0  0  0  0  0
   -1.0323   -0.7500    0.0000 C   0  0  0  0  0  0  0  0  0  0  0  0
   -1.9140   -1.9635    0.0000 C   0  0  0  0  0  0  0  0  0  0  0  0
   -1.0323   -3.1771    0.0000 C   0  0  0  0  0  0  0  0  0  0  0  0
    0.3943   -2.7135    0.0000 C   0  0  0  0  0  0  0  0  0  0  0  0
    1.6078   -3.5952    0.0000 O   0  0  0  0  0  0  0  0  0  0  0  0
    0.3943   -1.2135    0.0000 C   0  0  0  0  0  0  0  0  0  0  0  0
  1  2  3  0
  2  3  1  0
  3  4  2  0
  4  5  1  0
  5  6  2  0
  6  7  1  0
  7  8  2  0
  8  9  1  0
  9 10  1  0
  9 11  2  0
 11  3  1  0
 11  6  1  0
M  END
>  <Title>  (744) 
idABARgen6

$$$$

     RDKit          2D

 40 43  0  0  0  0  0  0  0  0999 V2000
   -6.4289   -8.5179    0.0000 C   0  0  0  0  0  0  0  0  0  0  0  0
   -6.1170   -7.0506    0.0000 C   0  0  0  0  0  0  0  0  0  0  0  0
   -7.2317   -6.0469    0.0000 O   0  0  0  0  0  0  0  0  0  0  0  0
   -4.6904   -6.5871    0.0000 O   0  0  0  0  0  0  0  0  0  0  0  0
   -4.3786   -5.1199    0.0000 C   0  0  0  0  0  0  0  0  0  0  0  0
   -5.4933   -4.1162    0.0000 O   0  0  0  0  0  0  0  0  0  0  0  0
   -2.9520   -4.6564    0.0000 C   0  0  0  0  0  0  0  0  0  0  0  0
   -2.6401   -3.1891    0.0000 C   0  0  0  0  0  0  0  0  0  0  0  0
   -1.2135   -2.7256    0.0000 C   0  0  0  0  0  0  0  0  0  0  0  0
   -0.0000   -3.6073    0.0000 C   0  0  0  0  0  0  0  0  0  0  0  0
    1.2135   -2.7256    0.0000 S   0  0  0  0  0  0  0  0  0  0  0  0
    0.7500   -1.2990    0.0000 C   0  0  0  0  0  0  0  0  0  0  0  0
    1.5000    0.0000    0.0000 C   0  0  0  0  0  0  0  0  0  0  0  0
    0.7500    1.2990    0.0000 C   0  0  0  0  0  0  0  0  0  0  0  0
   -0.7500    1.2990    0.0000 C   0  0  0  0  0  0  0  0  0  0  0  0
   -1.5000    0.0000    0.0000 C   0  0  0  0  0  0  0  0  0  0  0  0
   -0.7500   -1.2990    0.0000 C   0  0  0  0  0  0  0  0  0  0  0  0
   -1.8373   -5.6601    0.0000 N   0  0  0  0  0  0  0  0  0  0  0  0
   -2.1491   -7.1273    0.0000 C   0  0  0  0  0  0  0  0  0  0  0  0
   -3.5757   -7.5908    0.0000 O   0  0  0  0  0  0  0  0  0  0  0  0
   -1.0344   -8.1310    0.0000 C   0  0  0  0  0  0  0  0  0  0  0  0
   -1.3463   -9.5982    0.0000 C   0  0  0  0  0  0  0  0  0  0  0  0
   -0.2316  -10.6019    0.0000 C   0  0  0  0  0  0  0  0  0  0  0  0
   -0.5434  -12.0691    0.0000 C   0  0  0  0  0  0  0  0  0  0  0  0
    0.5713  -13.0728    0.0000 C   0  0  0  0  0  0  0  0  0  0  0  0
    1.9979  -12.6093    0.0000 C   0  0  0  0  0  0  0  0  0  0  0  0
    2.3097  -11.1421    0.0000 C   0  0  0  0  0  0  0  0  0  0  0  0
    1.1950  -10.1384    0.0000 C   0  0  0  0  0  0  0  0  0  0  0  0
    0.3922   -7.6675    0.0000 N   0  0  0  0  0  0  0  0  0  0  0  0
    0.7040   -6.2002    0.0000 C   0  0  0  0  0  0  0  0  0  0  0  0
   -0.4107   -5.1965    0.0000 O   0  0  0  0  0  0  0  0  0  0  0  0
    2.1306   -5.7367    0.0000 C   0  0  0  0  0  0  0  0  0  0  0  0
    2.5942   -4.3101    0.0000 C   0  0  0  0  0  0  0  0  0  0  0  0
    4.0942   -4.3101    0.0000 C   0  0  0  0  0  0  0  0  0  0  0  0
    4.5577   -5.7367    0.0000 C   0  0  0  0  0  0  0  0  0  0  0  0
    5.9843   -6.2002    0.0000 C   0  0  0  0  0  0  0  0  0  0  0  0
    7.0990   -5.1965    0.0000 O   0  0  0  0  0  0  0  0  0  0  0  0
    6.2961   -7.6675    0.0000 O   0  0  0  0  0  0  0  0  0  0  0  0
    3.3442   -6.6184    0.0000 C   0  0  0  0  0  0  0  0  0  0  0  0
    3.3442   -8.1184    0.0000 O   0  0  0  0  0  0  0  0  0  0  0  0
  1  2  1  0
  2  3  2  0
  2  4  1  0
  4  5  1  0
  5  6  2  0
  5  7  1  0
  7  8  1  0
  8  9  1  0
  9 10  2  0
 10 11  1  0
 11 12  1  0
 12 13  2  0
 13 14  1  0
 14 15  2  0
 15 16  1  0
 16 17  2  0
  7 18  1  0
 18 19  1  0
 19 20  2  0
 19 21  1  0
 21 22  1  0
 22 23  1  0
 23 24  2  0
 24 25  1  0
 25 26  2  0
 26 27  1  0
 27 28  2  0
 21 29  1  0
 29 30  1  0
 30 31  2  0
 30 32  1  0
 32 33  1  0
 33 34  1  0
 34 35  1  0
 35 36  1  0
 36 37  2  0
 36 38  1  0
 35 39  1  0
 39 40  2  0
 17  9  1  0
 28 23  1  0
 39 32  1  0
 17 12  1  0
M  END
>  <Title>  (745) 
idABASgen6

$$$$

     RDKit          2D

  8  8  0  0  0  0  0  0  0  0999 V2000
    2.7760    0.0000    0.0000 C   0  0  0  0  0  0  0  0  0  0  0  0
    1.2760    0.0000    0.0000 C   0  0  0  0  0  0  0  0  0  0  0  0
    0.3943    1.2135    0.0000 C   0  0  0  0  0  0  0  0  0  0  0  0
   -1.0323    0.7500    0.0000 C   0  0  0  0  0  0  0  0  0  0  0  0
   -2.2458    1.6317    0.0000 O   0  0  0  0  0  0  0  0  0  0  0  0
   -1.0323   -0.7500    0.0000 C   0  0  0  0  0  0  0  0  0  0  0  0
    0.3943   -1.2135    0.0000 C   0  0  0  0  0  0  0  0  0  0  0  0
    0.8578   -2.6401    0.0000 C   0  0  0  0  0  0  0  0  0  0  0  0
  1  2  1  0
  2  3  2  0
  3  4  1  0
  4  5  1  0
  4  6  1  0
  6  7  1  0
  7  8  1  0
  7  2  1  0
M  END
>  <Title>  (746) 
idABATgen6

$$$$

     RDKit          2D

 33 34  0  0  0  0  0  0  0  0999 V2000
    6.4603    0.0000    0.0000 C   0  0  0  0  0  0  0  0  0  0  0  0
    6.2862    1.4899    0.0000 C   0  0  0  0  0  0  0  0  0  0  0  0
    5.7732    2.8994    0.0000 C   0  0  0  0  0  0  0  0  0  0  0  0
    4.9489    4.1526    0.0000 C   0  0  0  0  0  0  0  0  0  0  0  0
    3.8578    5.1820    0.0000 C   0  0  0  0  0  0  0  0  0  0  0  0
    2.5588    5.9320    0.0000 C   0  0  0  0  0  0  0  0  0  0  0  0
    1.1218    6.3622    0.0000 C   0  0  0  0  0  0  0  0  0  0  0  0
   -0.3756    6.4494    0.0000 C   0  0  0  0  0  0  0  0  0  0  0  0
   -1.8528    6.1889    0.0000 C   0  0  0  0  0  0  0  0  0  0  0  0
   -3.2302    5.5948    0.0000 C   0  0  0  0  0  0  0  0  0  0  0  0
   -4.4334    4.6991    0.0000 C   0  0  0  0  0  0  0  0  0  0  0  0
   -5.3975    3.5500    0.0000 C   0  0  0  0  0  0  0  0  0  0  0  0
   -6.0707    2.2096    0.0000 C   0  0  0  0  0  0  0  0  0  0  0  0
   -6.4167    0.7500    0.0000 C   0  0  0  0  0  0  0  0  0  0  0  0
   -6.4167   -0.7500    0.0000 N   0  0  0  0  0  0  0  0  0  0  0  0
   -7.9065   -0.9241    0.0000 C   0  0  0  0  0  0  0  0  0  0  0  0
   -8.8023    0.2790    0.0000 N   0  0  0  0  0  0  0  0  0  0  0  0
  -10.2921    0.1049    0.0000 N   0  0  0  0  0  0  0  0  0  0  0  0
  -10.8862   -1.2724    0.0000 N   0  0  0  0  0  0  0  0  0  0  0  0
   -9.9905   -2.4756    0.0000 N   0  0  0  0  0  0  0  0  0  0  0  0
   -8.5006   -2.3015    0.0000 N   0  0  0  0  0  0  0  0  0  0  0  0
   -6.0707   -2.2096    0.0000 C   0  0  0  0  0  0  0  0  0  0  0  0
   -5.3975   -3.5500    0.0000 C   0  0  0  0  0  0  0  0  0  0  0  0
   -4.4334   -4.6991    0.0000 C   0  0  0  0  0  0  0  0  0  0  0  0
   -3.2302   -5.5948    0.0000 C   0  0  0  0  0  0  0  0  0  0  0  0
   -1.8528   -6.1889    0.0000 C   0  0  0  0  0  0  0  0  0  0  0  0
   -0.3756   -6.4494    0.0000 C   0  0  0  0  0  0  0  0  0  0  0  0
    1.1218   -6.3622    0.0000 C   0  0  0  0  0  0  0  0  0  0  0  0
    2.5588   -5.9320    0.0000 C   0  0  0  0  0  0  0  0  0  0  0  0
    3.8578   -5.1820    0.0000 C   0  0  0  0  0  0  0  0  0  0  0  0
    4.9489   -4.1526    0.0000 C   0  0  0  0  0  0  0  0  0  0  0  0
    5.7732   -2.8994    0.0000 C   0  0  0  0  0  0  0  0  0  0  0  0
    6.2862   -1.4899    0.0000 C   0  0  0  0  0  0  0  0  0  0  0  0
  1  2  1  0
  2  3  1  0
  3  4  1  0
  4  5  1  0
  5  6  1  0
  6  7  1  0
  7  8  1  0
  8  9  1  0
  9 10  1  0
 10 11  1  0
 11 12  1  0
 12 13  1  0
 13 14  1  0
 14 15  1  0
 15 16  1  0
 16 17  2  0
 17 18  1  0
 18 19  2  0
 19 20  1  0
 20 21  2  0
 15 22  1  0
 22 23  1  0
 23 24  1  0
 24 25  1  0
 25 26  1  0
 26 27  1  0
 27 28  1  0
 28 29  1  0
 29 30  1  0
 30 31  1  0
 31 32  1  0
 32 33  1  0
 33  1  1  0
 21 16  1  0
M  END
>  <Title>  (747) 
idABAUgen6

$$$$

     RDKit          2D

  6  6  0  0  0  0  0  0  0  0999 V2000
    2.7760    0.0000    0.0000 C   0  0  0  0  0  0  0  0  0  0  0  0
    1.2760    0.0000    0.0000 C   0  0  0  0  0  0  0  0  0  0  0  0
    0.3943    1.2135    0.0000 C   0  0  0  0  0  0  0  0  0  0  0  0
   -1.0323    0.7500    0.0000 C   0  0  0  0  0  0  0  0  0  0  0  0
   -1.0323   -0.7500    0.0000 C   0  0  0  0  0  0  0  0  0  0  0  0
    0.3943   -1.2135    0.0000 C   0  0  0  0  0  0  0  0  0  0  0  0
  1  2  1  0
  2  3  2  0
  3  4  1  0
  4  5  1  0
  5  6  2  0
  6  2  1  0
M  END
>  <Title>  (748) 
idABAVgen6

$$$$

     RDKit          2D

 53 57  0  0  0  0  0  0  0  0999 V2000
    7.0080   -0.0000    0.0000 C   0  0  0  0  0  0  0  0  0  0  0  0
    5.5080    0.0000    0.0000 C   0  0  0  0  0  0  0  0  0  0  0  0
    5.3037    1.4860    0.0000 C   0  0  0  0  0  0  0  0  0  0  0  0
    4.7061    2.8618    0.0000 C   0  0  0  0  0  0  0  0  0  0  0  0
    3.7595    4.0254    0.0000 C   0  0  0  0  0  0  0  0  0  0  0  0
    2.5340    4.8904    0.0000 C   0  0  0  0  0  0  0  0  0  0  0  0
    1.1206    5.3928    0.0000 C   0  0  0  0  0  0  0  0  0  0  0  0
   -0.3759    5.4951    0.0000 C   0  0  0  0  0  0  0  0  0  0  0  0
   -1.8445    5.1899    0.0000 C   0  0  0  0  0  0  0  0  0  0  0  0
   -3.1763    4.4998    0.0000 C   0  0  0  0  0  0  0  0  0  0  0  0
   -4.2726    3.4760    0.0000 C   0  0  0  0  0  0  0  0  0  0  0  0
   -5.0520    2.1944    0.0000 C   0  0  0  0  0  0  0  0  0  0  0  0
   -5.4567    0.7500    0.0000 C   0  0  0  0  0  0  0  0  0  0  0  0
   -5.4567   -0.7500    0.0000 C   0  0  0  0  0  0  0  0  0  0  0  0
   -5.0520   -2.1944    0.0000 C   0  0  0  0  0  0  0  0  0  0  0  0
   -4.2726   -3.4760    0.0000 C   0  0  0  0  0  0  0  0  0  0  0  0
   -3.1763   -4.4998    0.0000 C   0  0  0  0  0  0  0  0  0  0  0  0
   -1.8445   -5.1899    0.0000 C   0  0  0  0  0  0  0  0  0  0  0  0
   -0.3759   -5.4951    0.0000 C   0  0  0  0  0  0  0  0  0  0  0  0
   -0.4782   -6.9916    0.0000 O   0  0  0  0  0  0  0  0  0  0  0  0
   -1.8254   -7.6512    0.0000 C   0  0  0  0  0  0  0  0  0  0  0  0
   -3.0703   -6.8143    0.0000 C   0  0  0  0  0  0  0  0  0  0  0  0
   -4.4175   -7.4739    0.0000 C   0  0  0  0  0  0  0  0  0  0  0  0
   -4.5198   -8.9704    0.0000 C   0  0  0  0  0  0  0  0  0  0  0  0
   -3.2750   -9.8073    0.0000 C   0  0  0  0  0  0  0  0  0  0  0  0
   -1.9278   -9.1477    0.0000 C   0  0  0  0  0  0  0  0  0  0  0  0
   -0.6830   -9.9846    0.0000 C   0  0  0  0  0  0  0  0  0  0  0  0
    0.7258   -9.4695    0.0000 C   0  0  0  0  0  0  0  0  0  0  0  0
    1.6511  -10.6501    0.0000 C   0  0  0  0  0  0  0  0  0  0  0  0
    0.8142  -11.8949    0.0000 C   0  0  0  0  0  0  0  0  0  0  0  0
    1.3293  -13.3037    0.0000 O   0  0  0  0  0  0  0  0  0  0  0  0
    0.3669  -14.4542    0.0000 C   0  0  0  0  0  0  0  0  0  0  0  0
    0.8821  -15.8629    0.0000 C   0  0  0  0  0  0  0  0  0  0  0  0
   -0.0804  -17.0135    0.0000 C   0  0  0  0  0  0  0  0  0  0  0  0
    0.4348  -18.4222    0.0000 C   0  0  0  0  0  0  0  0  0  0  0  0
    1.9124  -18.6805    0.0000 C   0  0  0  0  0  0  0  0  0  0  0  0
    2.8749  -17.5299    0.0000 C   0  0  0  0  0  0  0  0  0  0  0  0
    2.3597  -16.1212    0.0000 C   0  0  0  0  0  0  0  0  0  0  0  0
   -0.6283  -11.4836    0.0000 C   0  0  0  0  0  0  0  0  0  0  0  0
    1.1206   -5.3928    0.0000 C   0  0  0  0  0  0  0  0  0  0  0  0
    2.5340   -4.8904    0.0000 C   0  0  0  0  0  0  0  0  0  0  0  0
    3.7595   -4.0254    0.0000 C   0  0  0  0  0  0  0  0  0  0  0  0
    4.7833   -5.1217    0.0000 C   0  0  0  0  0  0  0  0  0  0  0  0
    6.2446   -4.7831    0.0000 O   0  0  0  0  0  0  0  0  0  0  0  0
    4.3458   -6.5565    0.0000 N   0  0  0  0  0  0  0  0  0  0  0  0
    5.3697   -7.6527    0.0000 C   0  0  0  0  0  0  0  0  0  0  0  0
    4.9322   -9.0875    0.0000 N   0  0  0  0  0  0  0  0  0  0  0  0
    5.9560  -10.1838    0.0000 N   0  0  0  0  0  0  0  0  0  0  0  0
    7.4173   -9.8452    0.0000 N   0  0  0  0  0  0  0  0  0  0  0  0
    7.8548   -8.4104    0.0000 N   0  0  0  0  0  0  0  0  0  0  0  0
    6.8310   -7.3142    0.0000 N   0  0  0  0  0  0  0  0  0  0  0  0
    4.7061   -2.8618    0.0000 C   0  0  0  0  0  0  0  0  0  0  0  0
    5.3037   -1.4860    0.0000 C   0  0  0  0  0  0  0  0  0  0  0  0
  1  2  1  0
  2  3  1  0
  3  4  2  0
  4  5  1  0
  5  6  2  0
  6  7  1  0
  7  8  2  0
  8  9  1  0
  9 10  2  0
 10 11  1  0
 11 12  1  0
 12 13  1  0
 13 14  1  0
 14 15  1  0
 15 16  1  0
 16 17  1  0
 17 18  1  0
 18 19  1  0
 19 20  1  0
 20 21  1  0
 21 22  2  0
 22 23  1  0
 23 24  2  0
 24 25  1  0
 25 26  2  0
 26 27  1  0
 27 28  2  0
 28 29  1  0
 29 30  2  0
 30 31  1  0
 31 32  1  0
 32 33  1  0
 33 34  2  0
 34 35  1  0
 35 36  2  0
 36 37  1  0
 37 38  2  0
 30 39  1  0
 19 40  1  0
 40 41  2  0
 41 42  1  0
 42 43  1  0
 43 44  2  0
 43 45  1  0
 45 46  1  0
 46 47  2  0
 47 48  1  0
 48 49  2  0
 49 50  1  0
 50 51  2  0
 42 52  1  0
 52 53  1  0
 53  2  1  0
 26 21  1  0
 39 27  1  0
 51 46  1  0
 38 33  1  0
M  END
>  <Title>  (749) 
idABAWgen6

$$$$

     RDKit          2D

 19 20  0  0  0  0  0  0  0  0999 V2000
    5.2500   -1.2990    0.0000 C   0  0  0  0  0  0  0  0  0  0  0  0
    3.7500   -1.2990    0.0000 C   0  0  0  0  0  0  0  0  0  0  0  0
    3.0000   -2.5981    0.0000 O   0  0  0  0  0  0  0  0  0  0  0  0
    3.0000    0.0000    0.0000 C   0  0  0  0  0  0  0  0  0  0  0  0
    3.7500    1.2990    0.0000 O   0  0  0  0  0  0  0  0  0  0  0  0
    1.5000    0.0000    0.0000 C   0  0  0  0  0  0  0  0  0  0  0  0
    0.7500   -1.2990    0.0000 C   0  0  0  0  0  0  0  0  0  0  0  0
   -0.7500   -1.2990    0.0000 C   0  0  0  0  0  0  0  0  0  0  0  0
   -1.5000    0.0000    0.0000 C   0  0  0  0  0  0  0  0  0  0  0  0
   -0.7500    1.2990    0.0000 C   0  0  0  0  0  0  0  0  0  0  0  0
    0.7500    1.2990    0.0000 C   0  0  0  0  0  0  0  0  0  0  0  0
    1.5000    2.5981    0.0000 C   0  0  0  0  0  0  0  0  0  0  0  0
    3.0000    2.5981    0.0000 C   0  0  0  0  0  0  0  0  0  0  0  0
    3.7500    3.8971    0.0000 C   0  0  0  0  0  0  0  0  0  0  0  0
    5.2500    3.8971    0.0000 C   0  0  0  0  0  0  0  0  0  0  0  0
    6.0000    5.1962    0.0000 C   0  0  0  0  0  0  0  0  0  0  0  0
    5.2500    6.4952    0.0000 C   0  0  0  0  0  0  0  0  0  0  0  0
    3.7500    6.4952    0.0000 C   0  0  0  0  0  0  0  0  0  0  0  0
    3.0000    5.1962    0.0000 C   0  0  0  0  0  0  0  0  0  0  0  0
  1  2  1  0
  2  3  2  0
  2  4  1  0
  4  5  2  0
  4  6  1  0
  6  7  2  0
  7  8  1  0
  8  9  2  0
  9 10  1  0
 10 11  2  0
 11 12  1  0
 12 13  1  0
 13 14  1  0
 14 15  2  0
 15 16  1  0
 16 17  2  0
 17 18  1  0
 18 19  2  0
 11  6  1  0
 19 14  1  0
M  END
>  <Title>  (750) 
idABAXgen6

$$$$

     RDKit          2D

 64 71  0  0  0  0  0  0  0  0999 V2000
    3.9491    7.2647    0.0000 O   0  0  0  0  0  0  0  0  0  0  0  0
    4.8187    6.0424    0.0000 C   0  0  0  0  0  0  0  0  0  0  0  0
    3.8835    4.8697    0.0000 N   0  0  0  0  0  0  0  0  0  0  0  0
    4.4315    3.4734    0.0000 C   0  0  0  0  0  0  0  0  0  0  0  0
    5.9147    3.2498    0.0000 O   0  0  0  0  0  0  0  0  0  0  0  0
    3.4962    2.3006    0.0000 C   0  0  0  0  0  0  0  0  0  0  0  0
    2.0130    2.5242    0.0000 C   0  0  0  0  0  0  0  0  0  0  0  0
    1.0777    1.3515    0.0000 C   0  0  0  0  0  0  0  0  0  0  0  0
    1.7286    0.0000    0.0000 C   0  0  0  0  0  0  0  0  0  0  0  0
    1.0777   -1.3515    0.0000 C   0  0  0  0  0  0  0  0  0  0  0  0
   -0.3846   -1.6852    0.0000 C   0  0  0  0  0  0  0  0  0  0  0  0
   -0.7184   -3.1476    0.0000 O   0  0  0  0  0  0  0  0  0  0  0  0
   -1.5574   -0.7500    0.0000 C   0  0  0  0  0  0  0  0  0  0  0  0
   -1.5574    0.7500    0.0000 C   0  0  0  0  0  0  0  0  0  0  0  0
   -0.3846    1.6852    0.0000 C   0  0  0  0  0  0  0  0  0  0  0  0
    4.0442    0.9043    0.0000 N   0  0  0  0  0  0  0  0  0  0  0  0
    5.5275    0.6808    0.0000 C   0  0  0  0  0  0  0  0  0  0  0  0
    6.4627    1.8535    0.0000 O   0  0  0  0  0  0  0  0  0  0  0  0
    6.0755   -0.7155    0.0000 C   0  0  0  0  0  0  0  0  0  0  0  0
    5.1403   -1.8883    0.0000 O   0  0  0  0  0  0  0  0  0  0  0  0
    7.5587   -0.9391    0.0000 N   0  0  0  0  0  0  0  0  0  0  0  0
    8.1068   -2.3354    0.0000 C   0  0  0  0  0  0  0  0  0  0  0  0
    9.5900   -2.5590    0.0000 C   0  0  0  0  0  0  0  0  0  0  0  0
   10.5252   -1.3862    0.0000 C   0  0  0  0  0  0  0  0  0  0  0  0
   12.0085   -1.6098    0.0000 N   0  0  0  0  0  0  0  0  0  0  0  0
   12.8992   -2.8167    0.0000 C   0  0  0  0  0  0  0  0  0  0  0  0
   14.1061   -1.9260    0.0000 C   0  0  0  0  0  0  0  0  0  0  0  0
   13.2154   -0.7191    0.0000 C   0  0  0  0  0  0  0  0  0  0  0  0
   13.4389    0.7642    0.0000 C   0  0  0  0  0  0  0  0  0  0  0  0
   12.1996    1.6092    0.0000 C   0  0  0  0  0  0  0  0  0  0  0  0
   12.0875    3.1050    0.0000 C   0  0  0  0  0  0  0  0  0  0  0  0
   13.1871    4.1252    0.0000 C   0  0  0  0  0  0  0  0  0  0  0  0
   12.7449    5.5586    0.0000 C   0  0  0  0  0  0  0  0  0  0  0  0
   13.7652    6.6582    0.0000 C   0  0  0  0  0  0  0  0  0  0  0  0
   13.3231    8.0915    0.0000 C   0  0  0  0  0  0  0  0  0  0  0  0
   11.8607    8.4253    0.0000 C   0  0  0  0  0  0  0  0  0  0  0  0
   10.8404    7.3257    0.0000 C   0  0  0  0  0  0  0  0  0  0  0  0
   11.2825    5.8924    0.0000 C   0  0  0  0  0  0  0  0  0  0  0  0
   14.6703    3.9017    0.0000 C   0  0  0  0  0  0  0  0  0  0  0  0
   15.5153    5.1410    0.0000 O   0  0  0  0  0  0  0  0  0  0  0  0
   15.4203    2.6026    0.0000 C   0  0  0  0  0  0  0  0  0  0  0  0
   16.5199    3.6229    0.0000 F   0  0  0  0  0  0  0  0  0  0  0  0
   16.6597    1.7576    0.0000 F   0  0  0  0  0  0  0  0  0  0  0  0
   14.8723    1.2063    0.0000 C   0  0  0  0  0  0  0  0  0  0  0  0
    9.9772    0.0101    0.0000 C   0  0  0  0  0  0  0  0  0  0  0  0
    8.4940    0.2336    0.0000 C   0  0  0  0  0  0  0  0  0  0  0  0
    6.3019    5.8189    0.0000 N   0  0  0  0  0  0  0  0  0  0  0  0
    7.2372    6.9916    0.0000 C   0  0  0  0  0  0  0  0  0  0  0  0
    8.7357    6.9243    0.0000 N   0  0  0  0  0  0  0  0  0  0  0  0
    9.2627    8.3287    0.0000 N   0  0  0  0  0  0  0  0  0  0  0  0
    8.0900    9.2639    0.0000 N   0  0  0  0  0  0  0  0  0  0  0  0
    6.8381    8.4376    0.0000 N   0  0  0  0  0  0  0  0  0  0  0  0
    5.4338    8.9646    0.0000 N   0  0  0  0  0  0  0  0  0  0  0  0
    4.1819    8.1383    0.0000 C   0  0  0  0  0  0  0  0  0  0  0  0
    3.0092    9.0735    0.0000 C   0  0  0  0  0  0  0  0  0  0  0  0
    3.5362   10.4779    0.0000 C   0  0  0  0  0  0  0  0  0  0  0  0
    2.7099   11.7297    0.0000 C   0  0  0  0  0  0  0  0  0  0  0  0
    1.2126   11.6400    0.0000 C   0  0  0  0  0  0  0  0  0  0  0  0
    0.3862   12.8919    0.0000 C   0  0  0  0  0  0  0  0  0  0  0  0
    1.0572   14.2335    0.0000 C   0  0  0  0  0  0  0  0  0  0  0  0
    2.5545   14.3232    0.0000 C   0  0  0  0  0  0  0  0  0  0  0  0
    3.3808   13.0713    0.0000 C   0  0  0  0  0  0  0  0  0  0  0  0
    5.0347   10.4106    0.0000 C   0  0  0  0  0  0  0  0  0  0  0  0
    5.9699   11.5833    0.0000 O   0  0  0  0  0  0  0  0  0  0  0  0
  1  2  2  0
  2  3  1  0
  3  4  1  0
  4  5  2  0
  4  6  1  0
  6  7  1  0
  7  8  1  0
  8  9  2  0
  9 10  1  0
 10 11  2  0
 11 12  1  0
 11 13  1  0
 13 14  2  0
 14 15  1  0
  6 16  1  0
 16 17  1  0
 17 18  2  0
 17 19  1  0
 19 20  2  0
 19 21  1  0
 21 22  1  0
 22 23  1  0
 23 24  1  0
 24 25  1  0
 25 26  1  0
 26 27  1  0
 27 28  1  0
 28 29  1  0
 29 30  1  0
 30 31  1  0
 31 32  1  0
 32 33  1  0
 33 34  2  0
 34 35  1  0
 35 36  2  0
 36 37  1  0
 37 38  2  0
 32 39  1  0
 39 40  2  0
 39 41  1  0
 41 42  1  0
 41 43  1  0
 41 44  1  0
 24 45  1  0
 45 46  1  0
  2 47  1  0
 47 48  1  0
 48 49  2  0
 49 50  1  0
 50 51  2  0
 51 52  1  0
 52 53  1  0
 53 54  1  0
 54 55  1  0
 55 56  1  0
 56 57  1  0
 57 58  2  0
 58 59  1  0
 59 60  2  0
 60 61  1  0
 61 62  2  0
 56 63  1  0
 63 64  2  0
 15  8  1  0
 46 21  1  0
 52 48  1  0
 63 53  1  0
 28 25  1  0
 44 29  1  0
 62 57  1  0
 38 33  1  0
M  END
>  <Title>  (751) 
idABAYgen6

$$$$

     RDKit          2D

 20 22  0  0  0  0  0  0  0  0999 V2000
    3.6368   -4.0009    0.0000 O   0  0  0  0  0  0  0  0  0  0  0  0
    2.1595   -3.7404    0.0000 C   0  0  0  0  0  0  0  0  0  0  0  0
    1.8991   -2.2632    0.0000 C   0  0  0  0  0  0  0  0  0  0  0  0
    0.7500   -1.2990    0.0000 C   0  0  0  0  0  0  0  0  0  0  0  0
    1.5000    0.0000    0.0000 C   0  0  0  0  0  0  0  0  0  0  0  0
    0.7500    1.2990    0.0000 C   0  0  0  0  0  0  0  0  0  0  0  0
   -0.7500    1.2990    0.0000 C   0  0  0  0  0  0  0  0  0  0  0  0
   -1.5000    0.0000    0.0000 C   0  0  0  0  0  0  0  0  0  0  0  0
   -0.7500   -1.2990    0.0000 C   0  0  0  0  0  0  0  0  0  0  0  0
   -1.8991   -2.2632    0.0000 C   0  0  0  0  0  0  0  0  0  0  0  0
   -3.1097   -3.1663    0.0000 C   0  0  0  0  0  0  0  0  0  0  0  0
   -3.4979   -4.6152    0.0000 C   0  0  0  0  0  0  0  0  0  0  0  0
   -2.7479   -5.9143    0.0000 C   0  0  0  0  0  0  0  0  0  0  0  0
   -3.6611   -7.1043    0.0000 O   0  0  0  0  0  0  0  0  0  0  0  0
   -1.2990   -6.3025    0.0000 C   0  0  0  0  0  0  0  0  0  0  0  0
   -0.0000   -5.5525    0.0000 C   0  0  0  0  0  0  0  0  0  0  0  0
    1.4095   -5.0395    0.0000 N   0  0  0  0  0  0  0  0  0  0  0  0
   -1.4095   -5.0395    0.0000 N   0  0  0  0  0  0  0  0  0  0  0  0
   -2.1595   -3.7404    0.0000 C   0  0  0  0  0  0  0  0  0  0  0  0
   -2.8878   -4.0647    0.0000 O   0  0  0  0  0  0  0  0  0  0  0  0
  1  2  2  0
  2  3  1  0
  3  4  1  0
  4  5  2  0
  5  6  1  0
  6  7  2  0
  7  8  1  0
  8  9  2  0
  9 10  1  0
 10 11  2  0
 11 12  1  0
 12 13  2  0
 13 14  1  0
 13 15  1  0
 15 16  2  0
 16 17  1  0
 16 18  1  0
 18 19  1  0
 19 20  2  0
 17  2  1  0
  9  4  1  0
 19 10  1  0
M  END
>  <Title>  (752) 
idABAZgen6

$$$$

     RDKit          2D

 25 28  0  0  0  0  0  0  0  0999 V2000
   -4.2253   -8.2836    0.0000 O   0  0  0  0  0  0  0  0  0  0  0  0
   -4.7993   -6.8978    0.0000 C   0  0  0  0  0  0  0  0  0  0  0  0
   -6.2865   -6.7020    0.0000 N   0  0  0  0  0  0  0  0  0  0  0  0
   -7.1996   -7.8920    0.0000 C   0  0  0  0  0  0  0  0  0  0  0  0
   -8.6868   -7.6963    0.0000 C   0  0  0  0  0  0  0  0  0  0  0  0
   -9.5999   -8.8863    0.0000 C   0  0  0  0  0  0  0  0  0  0  0  0
   -9.0259  -10.2721    0.0000 C   0  0  0  0  0  0  0  0  0  0  0  0
   -7.5387  -10.4679    0.0000 C   0  0  0  0  0  0  0  0  0  0  0  0
   -6.6256   -9.2779    0.0000 C   0  0  0  0  0  0  0  0  0  0  0  0
   -3.8862   -5.7078    0.0000 N   0  0  0  0  0  0  0  0  0  0  0  0
   -4.6362   -4.4087    0.0000 C   0  0  0  0  0  0  0  0  0  0  0  0
   -4.2479   -2.9598    0.0000 C   0  0  0  0  0  0  0  0  0  0  0  0
   -2.9489   -2.2098    0.0000 C   0  0  0  0  0  0  0  0  0  0  0  0
   -1.5000   -2.5981    0.0000 C   0  0  0  0  0  0  0  0  0  0  0  0
   -0.7500   -3.8971    0.0000 C   0  0  0  0  0  0  0  0  0  0  0  0
   -1.1382   -5.3460    0.0000 C   0  0  0  0  0  0  0  0  0  0  0  0
   -2.4373   -6.0960    0.0000 C   0  0  0  0  0  0  0  0  0  0  0  0
    0.7500   -3.8971    0.0000 O   0  0  0  0  0  0  0  0  0  0  0  0
    1.5000   -2.5981    0.0000 C   0  0  0  0  0  0  0  0  0  0  0  0
    0.7500   -1.2990    0.0000 C   0  0  0  0  0  0  0  0  0  0  0  0
    1.5000    0.0000    0.0000 C   0  0  0  0  0  0  0  0  0  0  0  0
    0.7500    1.2990    0.0000 C   0  0  0  0  0  0  0  0  0  0  0  0
   -0.7500    1.2990    0.0000 C   0  0  0  0  0  0  0  0  0  0  0  0
   -1.5000    0.0000    0.0000 C   0  0  0  0  0  0  0  0  0  0  0  0
   -0.7500   -1.2990    0.0000 C   0  0  0  0  0  0  0  0  0  0  0  0
  1  2  2  0
  2  3  1  0
  3  4  1  0
  4  5  2  0
  5  6  1  0
  6  7  2  0
  7  8  1  0
  8  9  2  0
  2 10  1  0
 10 11  1  0
 11 12  1  0
 12 13  1  0
 13 14  1  0
 14 15  2  0
 15 16  1  0
 16 17  1  0
 15 18  1  0
 18 19  1  0
 19 20  1  0
 20 21  2  0
 21 22  1  0
 22 23  2  0
 23 24  1  0
 24 25  2  0
  9  4  1  0
 17 10  1  0
 25 20  1  0
 25 14  1  0
M  END
>  <Title>  (753) 
idABBAgen6

$$$$

     RDKit          2D

 13 13  0  0  0  0  0  0  0  0999 V2000
    6.0000    0.0000    0.0000 O   0  0  0  0  0  0  0  0  0  0  0  0
    5.2500   -1.2990    0.0000 C   0  0  0  0  0  0  0  0  0  0  0  0
    6.0000   -2.5981    0.0000 O   0  0  0  0  0  0  0  0  0  0  0  0
    3.7500   -1.2990    0.0000 C   0  0  0  0  0  0  0  0  0  0  0  0
    3.0000   -2.5981    0.0000 O   0  0  0  0  0  0  0  0  0  0  0  0
    3.0000    0.0000    0.0000 N   0  0  0  0  0  0  0  0  0  0  0  0
    1.5000    0.0000    0.0000 C   0  0  0  0  0  0  0  0  0  0  0  0
    0.7500   -1.2990    0.0000 C   0  0  0  0  0  0  0  0  0  0  0  0
   -0.7500   -1.2990    0.0000 C   0  0  0  0  0  0  0  0  0  0  0  0
   -1.5000    0.0000    0.0000 C   0  0  0  0  0  0  0  0  0  0  0  0
   -3.0000    0.0000    0.0000 O   0  0  0  0  0  0  0  0  0  0  0  0
   -0.7500    1.2990    0.0000 C   0  0  0  0  0  0  0  0  0  0  0  0
    0.7500    1.2990    0.0000 C   0  0  0  0  0  0  0  0  0  0  0  0
  1  2  2  0
  2  3  1  0
  2  4  1  0
  4  5  2  0
  4  6  1  0
  6  7  1  0
  7  8  2  0
  8  9  1  0
  9 10  2  0
 10 11  1  0
 10 12  1  0
 12 13  2  0
 13  7  1  0
M  END
>  <Title>  (754) 
idABBBgen6

$$$$

     RDKit          2D

 15 15  0  0  0  0  0  0  0  0999 V2000
    5.3839   -1.2990    0.0000 C   0  0  0  0  0  0  0  0  0  0  0  0
    4.6339    0.0000    0.0000 O   0  0  0  0  0  0  0  0  0  0  0  0
    3.1339    0.0000    0.0000 C   0  0  0  0  0  0  0  0  0  0  0  0
    2.7750    1.4564    0.0000 C   0  0  0  0  0  0  0  0  0  0  0  0
    1.7803    2.5792    0.0000 C   0  0  0  0  0  0  0  0  0  0  0  0
    0.3778    3.1111    0.0000 C   0  0  0  0  0  0  0  0  0  0  0  0
   -1.1113    2.9303    0.0000 C   0  0  0  0  0  0  0  0  0  0  0  0
   -2.3458    2.0782    0.0000 C   0  0  0  0  0  0  0  0  0  0  0  0
   -3.0429    0.7500    0.0000 C   0  0  0  0  0  0  0  0  0  0  0  0
   -3.0429   -0.7500    0.0000 C   0  0  0  0  0  0  0  0  0  0  0  0
   -2.3458   -2.0782    0.0000 C   0  0  0  0  0  0  0  0  0  0  0  0
   -1.1113   -2.9303    0.0000 N   0  0  0  0  0  0  0  0  0  0  0  0
    0.3778   -3.1111    0.0000 C   0  0  0  0  0  0  0  0  0  0  0  0
    1.7803   -2.5792    0.0000 C   0  0  0  0  0  0  0  0  0  0  0  0
    2.7750   -1.4564    0.0000 C   0  0  0  0  0  0  0  0  0  0  0  0
  1  2  1  0
  2  3  1  0
  3  4  1  0
  4  5  1  0
  5  6  1  0
  6  7  1  0
  7  8  1  0
  8  9  1  0
  9 10  1  0
 10 11  1  0
 11 12  1  0
 12 13  1  0
 13 14  1  0
 14 15  1  0
 15  3  1  0
M  END
>  <Title>  (755) 
idABBCgen6

$$$$

     RDKit          2D

  9  9  0  0  0  0  0  0  0  0999 V2000
    2.7760   -2.5981    0.0000 O   0  0  0  0  0  0  0  0  0  0  0  0
    3.5260   -1.2990    0.0000 C   0  0  0  0  0  0  0  0  0  0  0  0
    5.0260   -1.2990    0.0000 O   0  0  0  0  0  0  0  0  0  0  0  0
    2.7760    0.0000    0.0000 O   0  0  0  0  0  0  0  0  0  0  0  0
    1.2760    0.0000    0.0000 C   0  0  0  0  0  0  0  0  0  0  0  0
    0.3943    1.2135    0.0000 C   0  0  0  0  0  0  0  0  0  0  0  0
   -1.0323    0.7500    0.0000 C   0  0  0  0  0  0  0  0  0  0  0  0
   -1.0323   -0.7500    0.0000 C   0  0  0  0  0  0  0  0  0  0  0  0
    0.3943   -1.2135    0.0000 C   0  0  0  0  0  0  0  0  0  0  0  0
  1  2  2  0
  2  3  1  0
  2  4  1  0
  4  5  1  0
  5  6  2  0
  6  7  1  0
  7  8  2  0
  8  9  1  0
  9  5  1  0
M  END
>  <Title>  (756) 
idABBDgen6

$$$$

     RDKit          2D

 15 16  0  0  0  0  0  0  0  0999 V2000
   -2.0490   -6.5490    0.0000 C   0  0  0  0  0  0  0  0  0  0  0  0
   -2.0490   -5.0490    0.0000 C   0  0  0  0  0  0  0  0  0  0  0  0
   -3.3481   -4.2990    0.0000 O   0  0  0  0  0  0  0  0  0  0  0  0
   -0.7500   -4.2990    0.0000 C   0  0  0  0  0  0  0  0  0  0  0  0
    0.5490   -5.0490    0.0000 O   0  0  0  0  0  0  0  0  0  0  0  0
   -0.7500   -2.7990    0.0000 C   0  0  0  0  0  0  0  0  0  0  0  0
   -2.2500   -2.7990    0.0000 C   0  0  0  0  0  0  0  0  0  0  0  0
    0.7500   -2.7990    0.0000 C   0  0  0  0  0  0  0  0  0  0  0  0
    0.7500   -1.2990    0.0000 C   0  0  0  0  0  0  0  0  0  0  0  0
    1.5000    0.0000    0.0000 C   0  0  0  0  0  0  0  0  0  0  0  0
    0.7500    1.2990    0.0000 C   0  0  0  0  0  0  0  0  0  0  0  0
   -0.7500    1.2990    0.0000 C   0  0  0  0  0  0  0  0  0  0  0  0
   -1.5000    2.5981    0.0000 O   0  0  0  0  0  0  0  0  0  0  0  0
   -1.5000    0.0000    0.0000 C   0  0  0  0  0  0  0  0  0  0  0  0
   -0.7500   -1.2990    0.0000 C   0  0  0  0  0  0  0  0  0  0  0  0
  1  2  1  0
  2  3  2  0
  2  4  1  0
  4  5  2  0
  4  6  1  0
  6  7  1  0
  6  8  1  0
  8  9  1  0
  9 10  2  0
 10 11  1  0
 11 12  2  0
 12 13  1  0
 12 14  1  0
 14 15  2  0
 15  6  1  0
 15  9  1  0
M  END
>  <Title>  (757) 
idABBEgen6

$$$$

     RDKit          2D

 20 22  0  0  0  0  0  0  0  0999 V2000
   -3.0000   -2.5981    0.0000 C   0  0  0  0  0  0  0  0  0  0  0  0
   -1.5000   -2.5981    0.0000 C   0  0  0  0  0  0  0  0  0  0  0  0
   -0.7500   -3.8971    0.0000 C   0  0  0  0  0  0  0  0  0  0  0  0
    0.7500   -3.8971    0.0000 C   0  0  0  0  0  0  0  0  0  0  0  0
    1.5000   -2.5981    0.0000 C   0  0  0  0  0  0  0  0  0  0  0  0
    3.0000   -2.5981    0.0000 C   0  0  0  0  0  0  0  0  0  0  0  0
    3.7500   -1.2990    0.0000 O   0  0  0  0  0  0  0  0  0  0  0  0
    3.7500   -3.8971    0.0000 N   0  0  0  0  0  0  0  0  0  0  0  0
    5.2500   -3.8971    0.0000 C   0  0  0  0  0  0  0  0  0  0  0  0
    6.0000   -5.1962    0.0000 N   0  0  0  0  0  0  0  0  0  0  0  0
    7.5000   -5.1962    0.0000 N   0  0  0  0  0  0  0  0  0  0  0  0
    8.2500   -3.8971    0.0000 N   0  0  0  0  0  0  0  0  0  0  0  0
    7.5000   -2.5981    0.0000 N   0  0  0  0  0  0  0  0  0  0  0  0
    6.0000   -2.5981    0.0000 N   0  0  0  0  0  0  0  0  0  0  0  0
    0.7500   -1.2990    0.0000 C   0  0  0  0  0  0  0  0  0  0  0  0
    1.5000    0.0000    0.0000 C   0  0  0  0  0  0  0  0  0  0  0  0
    0.7500    1.2990    0.0000 C   0  0  0  0  0  0  0  0  0  0  0  0
   -0.7500    1.2990    0.0000 C   0  0  0  0  0  0  0  0  0  0  0  0
   -1.5000    0.0000    0.0000 C   0  0  0  0  0  0  0  0  0  0  0  0
   -0.7500   -1.2990    0.0000 C   0  0  0  0  0  0  0  0  0  0  0  0
  1  2  1  0
  2  3  1  0
  3  4  2  0
  4  5  1  0
  5  6  1  0
  6  7  2  0
  6  8  1  0
  8  9  1  0
  9 10  2  0
 10 11  1  0
 11 12  2  0
 12 13  1  0
 13 14  2  0
  5 15  1  0
 15 16  2  0
 16 17  1  0
 17 18  2  0
 18 19  1  0
 19 20  2  0
 20  2  1  0
 14  9  1  0
 20 15  1  0
M  END
>  <Title>  (758) 
idABBFgen6

$$$$

     RDKit          2D

 21 23  0  0  0  0  0  0  0  0999 V2000
   -4.3786   -5.1199    0.0000 C   0  0  0  0  0  0  0  0  0  0  0  0
   -2.9520   -4.6564    0.0000 C   0  0  0  0  0  0  0  0  0  0  0  0
   -2.6401   -3.1891    0.0000 C   0  0  0  0  0  0  0  0  0  0  0  0
   -1.2135   -2.7256    0.0000 C   0  0  0  0  0  0  0  0  0  0  0  0
   -0.0000   -3.6073    0.0000 C   0  0  0  0  0  0  0  0  0  0  0  0
    1.2135   -2.7256    0.0000 C   0  0  0  0  0  0  0  0  0  0  0  0
    2.6401   -3.1891    0.0000 C   0  0  0  0  0  0  0  0  0  0  0  0
    0.7500   -1.2990    0.0000 C   0  0  0  0  0  0  0  0  0  0  0  0
    1.5000    0.0000    0.0000 C   0  0  0  0  0  0  0  0  0  0  0  0
    0.7500    1.2990    0.0000 C   0  0  0  0  0  0  0  0  0  0  0  0
    1.5000    2.5981    0.0000 O   0  0  0  0  0  0  0  0  0  0  0  0
   -0.7500    1.2990    0.0000 C   0  0  0  0  0  0  0  0  0  0  0  0
   -1.5000    0.0000    0.0000 C   0  0  0  0  0  0  0  0  0  0  0  0
   -0.7500   -1.2990    0.0000 C   0  0  0  0  0  0  0  0  0  0  0  0
   -1.8373   -5.6601    0.0000 N   0  0  0  0  0  0  0  0  0  0  0  0
   -2.1491   -7.1273    0.0000 C   0  0  0  0  0  0  0  0  0  0  0  0
   -3.5757   -7.5908    0.0000 N   0  0  0  0  0  0  0  0  0  0  0  0
   -3.8876   -9.0580    0.0000 N   0  0  0  0  0  0  0  0  0  0  0  0
   -2.7729  -10.0617    0.0000 N   0  0  0  0  0  0  0  0  0  0  0  0
   -1.3463   -9.5982    0.0000 N   0  0  0  0  0  0  0  0  0  0  0  0
   -1.0344   -8.1310    0.0000 N   0  0  0  0  0  0  0  0  0  0  0  0
  1  2  2  0
  2  3  1  0
  3  4  1  0
  4  5  1  0
  5  6  1  0
  6  7  1  0
  6  8  1  0
  8  9  2  0
  9 10  1  0
 10 11  1  0
 10 12  2  0
 12 13  1  0
 13 14  2  0
  2 15  1  0
 15 16  1  0
 16 17  2  0
 17 18  1  0
 18 19  2  0
 19 20  1  0
 20 21  2  0
 14  4  1  0
 21 16  1  0
 14  8  1  0
M  END
>  <Title>  (759) 
idABBGgen6

$$$$

     RDKit          2D

  8  8  0  0  0  0  0  0  0  0999 V2000
    3.7500   -1.2990    0.0000 C   0  0  0  0  0  0  0  0  0  0  0  0
    3.0000    0.0000    0.0000 O   0  0  0  0  0  0  0  0  0  0  0  0
    1.5000    0.0000    0.0000 C   0  0  0  0  0  0  0  0  0  0  0  0
    0.7500   -1.2990    0.0000 C   0  0  0  0  0  0  0  0  0  0  0  0
   -0.7500   -1.2990    0.0000 C   0  0  0  0  0  0  0  0  0  0  0  0
   -1.5000    0.0000    0.0000 C   0  0  0  0  0  0  0  0  0  0  0  0
   -0.7500    1.2990    0.0000 C   0  0  0  0  0  0  0  0  0  0  0  0
    0.7500    1.2990    0.0000 C   0  0  0  0  0  0  0  0  0  0  0  0
  1  2  1  0
  2  3  1  0
  3  4  2  0
  4  5  1  0
  5  6  2  0
  6  7  1  0
  7  8  2  0
  8  3  1  0
M  END
>  <Title>  (760) 
idABBHgen6

$$$$

     RDKit          2D

  8  8  0  0  0  0  0  0  0  0999 V2000
    3.3107   -1.2990    0.0000 C   0  0  0  0  0  0  0  0  0  0  0  0
    2.5607    0.0000    0.0000 O   0  0  0  0  0  0  0  0  0  0  0  0
    1.0607    0.0000    0.0000 C   0  0  0  0  0  0  0  0  0  0  0  0
   -0.0000   -1.0607    0.0000 C   0  0  0  0  0  0  0  0  0  0  0  0
   -1.0607    0.0000    0.0000 C   0  0  0  0  0  0  0  0  0  0  0  0
   -2.1213   -1.0607    0.0000 C   0  0  0  0  0  0  0  0  0  0  0  0
   -2.1213    1.0607    0.0000 O   0  0  0  0  0  0  0  0  0  0  0  0
    0.0000    1.0607    0.0000 C   0  0  0  0  0  0  0  0  0  0  0  0
  1  2  1  0
  2  3  1  0
  3  4  2  0
  4  5  1  0
  5  6  1  0
  5  7  1  0
  5  8  1  0
  8  3  1  0
M  END
>  <Title>  (761) 
idABBIgen6

$$$$

     RDKit          2D

 28 31  0  0  0  0  0  0  0  0999 V2000
    2.8249   -8.7471    0.0000 C   0  0  0  0  0  0  0  0  0  0  0  0
    1.8607   -7.5981    0.0000 C   0  0  0  0  0  0  0  0  0  0  0  0
    0.3835   -7.8585    0.0000 O   0  0  0  0  0  0  0  0  0  0  0  0
    2.3737   -6.1885    0.0000 C   0  0  0  0  0  0  0  0  0  0  0  0
    1.4095   -5.0395    0.0000 N   0  0  0  0  0  0  0  0  0  0  0  0
    2.1595   -3.7404    0.0000 C   0  0  0  0  0  0  0  0  0  0  0  0
    3.6368   -4.0009    0.0000 O   0  0  0  0  0  0  0  0  0  0  0  0
    1.8991   -2.2632    0.0000 O   0  0  0  0  0  0  0  0  0  0  0  0
    0.7500   -1.2990    0.0000 C   0  0  0  0  0  0  0  0  0  0  0  0
    1.5000    0.0000    0.0000 C   0  0  0  0  0  0  0  0  0  0  0  0
    0.7500    1.2990    0.0000 C   0  0  0  0  0  0  0  0  0  0  0  0
   -0.7500    1.2990    0.0000 C   0  0  0  0  0  0  0  0  0  0  0  0
   -1.5000    0.0000    0.0000 C   0  0  0  0  0  0  0  0  0  0  0  0
   -0.7500   -1.2990    0.0000 C   0  0  0  0  0  0  0  0  0  0  0  0
   -1.8991   -2.2632    0.0000 C   0  0  0  0  0  0  0  0  0  0  0  0
   -3.0481   -1.2990    0.0000 C   0  0  0  0  0  0  0  0  0  0  0  0
   -4.4577   -1.8121    0.0000 C   0  0  0  0  0  0  0  0  0  0  0  0
   -4.7181   -3.2893    0.0000 C   0  0  0  0  0  0  0  0  0  0  0  0
   -6.1277   -3.8023    0.0000 C   0  0  0  0  0  0  0  0  0  0  0  0
   -7.5372   -4.3153    0.0000 N   0  0  0  0  0  0  0  0  0  0  0  0
   -3.5691   -4.2535    0.0000 C   0  0  0  0  0  0  0  0  0  0  0  0
   -2.1595   -3.7404    0.0000 C   0  0  0  0  0  0  0  0  0  0  0  0
   -1.4095   -5.0395    0.0000 C   0  0  0  0  0  0  0  0  0  0  0  0
   -2.5586   -6.0037    0.0000 C   0  0  0  0  0  0  0  0  0  0  0  0
   -2.2981   -7.4809    0.0000 C   0  0  0  0  0  0  0  0  0  0  0  0
   -0.8886   -7.9939    0.0000 C   0  0  0  0  0  0  0  0  0  0  0  0
    0.2605   -7.0297    0.0000 C   0  0  0  0  0  0  0  0  0  0  0  0
   -0.0000   -5.5525    0.0000 C   0  0  0  0  0  0  0  0  0  0  0  0
  1  2  1  0
  2  3  2  0
  2  4  1  0
  4  5  1  0
  5  6  1  0
  6  7  2  0
  6  8  1  0
  8  9  1  0
  9 10  2  0
 10 11  1  0
 11 12  2  0
 12 13  1  0
 13 14  2  0
 14 15  1  0
 15 16  2  0
 16 17  1  0
 17 18  2  0
 18 19  1  0
 19 20  3  0
 18 21  1  0
 21 22  2  0
 22 23  1  0
 23 24  2  0
 24 25  1  0
 25 26  2  0
 26 27  1  0
 27 28  2  0
 28  5  1  0
 14  9  1  0
 22 15  1  0
 28 23  1  0
M  END
>  <Title>  (762) 
idABBJgen6

$$$$

     RDKit          2D

 47 53  0  0  0  0  0  0  0  0999 V2000
    5.8899   10.9053    0.0000 C   0  0  0  0  0  0  0  0  0  0  0  0
    4.5585   11.5963    0.0000 C   0  0  0  0  0  0  0  0  0  0  0  0
    3.3583   10.6965    0.0000 C   0  0  0  0  0  0  0  0  0  0  0  0
    1.9066   11.0739    0.0000 C   0  0  0  0  0  0  0  0  0  0  0  0
    1.2964   12.4442    0.0000 C   0  0  0  0  0  0  0  0  0  0  0  0
   -0.2029   12.4891    0.0000 C   0  0  0  0  0  0  0  0  0  0  0  0
   -0.9137   13.8100    0.0000 O   0  0  0  0  0  0  0  0  0  0  0  0
   -0.9914   11.2131    0.0000 N   0  0  0  0  0  0  0  0  0  0  0  0
   -2.4907   11.2580    0.0000 C   0  0  0  0  0  0  0  0  0  0  0  0
   -3.3357   12.4973    0.0000 N   0  0  0  0  0  0  0  0  0  0  0  0
   -4.7755   12.0767    0.0000 N   0  0  0  0  0  0  0  0  0  0  0  0
   -4.8204   10.5774    0.0000 N   0  0  0  0  0  0  0  0  0  0  0  0
   -3.4083   10.0714    0.0000 N   0  0  0  0  0  0  0  0  0  0  0  0
   -2.9877    8.6315    0.0000 C   0  0  0  0  0  0  0  0  0  0  0  0
   -1.5304    8.2759    0.0000 C   0  0  0  0  0  0  0  0  0  0  0  0
   -1.1098    6.8361    0.0000 C   0  0  0  0  0  0  0  0  0  0  0  0
   -2.1464    5.7519    0.0000 C   0  0  0  0  0  0  0  0  0  0  0  0
   -1.7258    4.3121    0.0000 O   0  0  0  0  0  0  0  0  0  0  0  0
   -3.6036    6.1075    0.0000 C   0  0  0  0  0  0  0  0  0  0  0  0
   -4.0243    7.5474    0.0000 C   0  0  0  0  0  0  0  0  0  0  0  0
   -5.4815    7.9030    0.0000 C   0  0  0  0  0  0  0  0  0  0  0  0
   -5.9022    9.3428    0.0000 C   0  0  0  0  0  0  0  0  0  0  0  0
   -7.3594    9.6984    0.0000 C   0  0  0  0  0  0  0  0  0  0  0  0
   -8.3960    8.6142    0.0000 C   0  0  0  0  0  0  0  0  0  0  0  0
   -7.9753    7.1744    0.0000 C   0  0  0  0  0  0  0  0  0  0  0  0
   -6.5181    6.8188    0.0000 C   0  0  0  0  0  0  0  0  0  0  0  0
   -6.0975    5.3790    0.0000 C   0  0  0  0  0  0  0  0  0  0  0  0
   -4.6402    5.0234    0.0000 C   0  0  0  0  0  0  0  0  0  0  0  0
   -4.2196    3.5835    0.0000 C   0  0  0  0  0  0  0  0  0  0  0  0
   -5.2562    2.4993    0.0000 C   0  0  0  0  0  0  0  0  0  0  0  0
   -6.7134    2.8550    0.0000 C   0  0  0  0  0  0  0  0  0  0  0  0
   -7.1341    4.2948    0.0000 C   0  0  0  0  0  0  0  0  0  0  0  0
   -8.5913    4.6504    0.0000 C   0  0  0  0  0  0  0  0  0  0  0  0
   -9.0119    6.0902    0.0000 C   0  0  0  0  0  0  0  0  0  0  0  0
  -10.4692    6.4458    0.0000 C   0  0  0  0  0  0  0  0  0  0  0  0
  -11.5058    5.3616    0.0000 C   0  0  0  0  0  0  0  0  0  0  0  0
  -11.0851    3.9218    0.0000 C   0  0  0  0  0  0  0  0  0  0  0  0
   -9.6279    3.5662    0.0000 C   0  0  0  0  0  0  0  0  0  0  0  0
   -9.2072    2.1264    0.0000 C   0  0  0  0  0  0  0  0  0  0  0  0
  -10.2438    1.0422    0.0000 C   0  0  0  0  0  0  0  0  0  0  0  0
   -9.8232   -0.3976    0.0000 C   0  0  0  0  0  0  0  0  0  0  0  0
   -8.3660   -0.7532    0.0000 C   0  0  0  0  0  0  0  0  0  0  0  0
   -7.3294    0.3310    0.0000 C   0  0  0  0  0  0  0  0  0  0  0  0
   -7.7500    1.7708    0.0000 C   0  0  0  0  0  0  0  0  0  0  0  0
    1.9874   13.7756    0.0000 C   0  0  0  0  0  0  0  0  0  0  0  0
    3.4591   14.0655    0.0000 C   0  0  0  0  0  0  0  0  0  0  0  0
    4.6034   13.0956    0.0000 C   0  0  0  0  0  0  0  0  0  0  0  0
  1  2  1  0
  2  3  1  0
  3  4  2  0
  4  5  1  0
  5  6  1  0
  6  7  2  0
  6  8  1  0
  8  9  1  0
  9 10  2  0
 10 11  1  0
 11 12  2  0
 12 13  1  0
 13 14  1  0
 14 15  2  0
 15 16  1  0
 16 17  2  0
 17 18  1  0
 17 19  1  0
 19 20  2  0
 20 21  1  0
 21 22  2  0
 22 23  1  0
 23 24  2  0
 24 25  1  0
 25 26  2  0
 26 27  1  0
 27 28  2  0
 28 29  1  0
 29 30  2  0
 30 31  1  0
 31 32  2  0
 32 33  1  0
 33 34  2  0
 34 35  1  0
 35 36  2  0
 36 37  1  0
 37 38  2  0
 38 39  1  0
 39 40  2  0
 40 41  1  0
 41 42  2  0
 42 43  1  0
 43 44  2  0
  5 45  1  0
 45 46  1  0
 46 47  1  0
 47  2  1  0
 13  9  1  0
 20 14  1  0
 26 21  1  0
 32 27  1  0
 38 33  1  0
 44 39  1  0
M  END
>  <Title>  (763) 
idABBKgen6

$$$$

     RDKit          2D

 28 30  0  0  0  0  0  0  0  0999 V2000
   -3.8853    1.2125    0.0000 C   0  0  0  0  0  0  0  0  0  0  0  0
   -3.2423   -0.1427    0.0000 C   0  0  0  0  0  0  0  0  0  0  0  0
   -4.4042   -1.0913    0.0000 C   0  0  0  0  0  0  0  0  0  0  0  0
   -4.9921   -2.4713    0.0000 C   0  0  0  0  0  0  0  0  0  0  0  0
   -4.8714   -3.9664    0.0000 C   0  0  0  0  0  0  0  0  0  0  0  0
   -4.0697   -5.2342    0.0000 C   0  0  0  0  0  0  0  0  0  0  0  0
   -5.1088   -6.3160    0.0000 C   0  0  0  0  0  0  0  0  0  0  0  0
   -4.6915   -7.7568    0.0000 O   0  0  0  0  0  0  0  0  0  0  0  0
   -6.5652   -5.9571    0.0000 N   0  0  0  0  0  0  0  0  0  0  0  0
   -7.6043   -7.0389    0.0000 C   0  0  0  0  0  0  0  0  0  0  0  0
   -9.0607   -6.6799    0.0000 N   0  0  0  0  0  0  0  0  0  0  0  0
  -10.0998   -7.7617    0.0000 N   0  0  0  0  0  0  0  0  0  0  0  0
   -9.6825   -9.2025    0.0000 N   0  0  0  0  0  0  0  0  0  0  0  0
   -8.2261   -9.5614    0.0000 N   0  0  0  0  0  0  0  0  0  0  0  0
   -7.1870   -8.4796    0.0000 N   0  0  0  0  0  0  0  0  0  0  0  0
   -2.7707   -5.9842    0.0000 C   0  0  0  0  0  0  0  0  0  0  0  0
   -1.2719   -6.0446    0.0000 C   0  0  0  0  0  0  0  0  0  0  0  0
    0.0833   -5.4016    0.0000 C   0  0  0  0  0  0  0  0  0  0  0  0
    0.9844   -4.2024    0.0000 C   0  0  0  0  0  0  0  0  0  0  0  0
    1.2250   -2.7218    0.0000 C   0  0  0  0  0  0  0  0  0  0  0  0
    0.7500   -1.2990    0.0000 C   0  0  0  0  0  0  0  0  0  0  0  0
    1.5000    0.0000    0.0000 C   0  0  0  0  0  0  0  0  0  0  0  0
    0.7500    1.2990    0.0000 C   0  0  0  0  0  0  0  0  0  0  0  0
   -0.7500    1.2990    0.0000 C   0  0  0  0  0  0  0  0  0  0  0  0
   -1.5000    2.5981    0.0000 O   0  0  0  0  0  0  0  0  0  0  0  0
   -1.5000    0.0000    0.0000 N   0  0  0  0  0  0  0  0  0  0  0  0
   -0.7500   -1.2990    0.0000 C   0  0  0  0  0  0  0  0  0  0  0  0
   -1.5000   -2.5981    0.0000 O   0  0  0  0  0  0  0  0  0  0  0  0
  1  2  1  0
  2  3  1  0
  3  4  1  0
  4  5  1  0
  5  6  1  0
  6  7  1  0
  7  8  2  0
  7  9  1  0
  9 10  1  0
 10 11  2  0
 11 12  1  0
 12 13  2  0
 13 14  1  0
 14 15  2  0
  6 16  1  0
 16 17  1  0
 17 18  1  0
 18 19  1  0
 19 20  1  0
 20 21  1  0
 21 22  1  0
 22 23  1  0
 23 24  1  0
 24 25  2  0
 24 26  1  0
 26 27  1  0
 27 28  2  0
 26  2  1  0
 15 10  1  0
 27 21  1  0
M  END
>  <Title>  (764) 
idABBLgen6

$$$$

     RDKit          2D

 29 31  0  0  0  0  0  0  0  0999 V2000
    5.2077    1.4153    0.0000 C   0  0  0  0  0  0  0  0  0  0  0  0
    4.0586    0.4512    0.0000 C   0  0  0  0  0  0  0  0  0  0  0  0
    2.6491    0.9642    0.0000 C   0  0  0  0  0  0  0  0  0  0  0  0
    1.5000    0.0000    0.0000 C   0  0  0  0  0  0  0  0  0  0  0  0
    2.6491   -0.9642    0.0000 O   0  0  0  0  0  0  0  0  0  0  0  0
    0.7500   -1.2990    0.0000 C   0  0  0  0  0  0  0  0  0  0  0  0
   -0.7500   -1.2990    0.0000 C   0  0  0  0  0  0  0  0  0  0  0  0
   -1.5000    0.0000    0.0000 C   0  0  0  0  0  0  0  0  0  0  0  0
   -3.0000    0.0000    0.0000 O   0  0  0  0  0  0  0  0  0  0  0  0
   -3.7500    1.2990    0.0000 C   0  0  0  0  0  0  0  0  0  0  0  0
   -5.2500    1.2990    0.0000 C   0  0  0  0  0  0  0  0  0  0  0  0
   -6.0000    2.5981    0.0000 C   0  0  0  0  0  0  0  0  0  0  0  0
   -5.2500    3.8971    0.0000 C   0  0  0  0  0  0  0  0  0  0  0  0
   -6.0000    5.1962    0.0000 O   0  0  0  0  0  0  0  0  0  0  0  0
   -3.7500    3.8971    0.0000 N   0  0  0  0  0  0  0  0  0  0  0  0
   -3.0000    5.1962    0.0000 C   0  0  0  0  0  0  0  0  0  0  0  0
   -1.5000    5.1962    0.0000 C   0  0  0  0  0  0  0  0  0  0  0  0
   -0.7500    6.4952    0.0000 C   0  0  0  0  0  0  0  0  0  0  0  0
   -1.5000    7.7942    0.0000 C   0  0  0  0  0  0  0  0  0  0  0  0
   -3.0000    7.7942    0.0000 C   0  0  0  0  0  0  0  0  0  0  0  0
   -3.7500    6.4952    0.0000 C   0  0  0  0  0  0  0  0  0  0  0  0
   -7.5000    2.5981    0.0000 C   0  0  0  0  0  0  0  0  0  0  0  0
   -8.2500    3.8971    0.0000 C   0  0  0  0  0  0  0  0  0  0  0  0
   -9.7500    3.8971    0.0000 C   0  0  0  0  0  0  0  0  0  0  0  0
  -10.5000    2.5981    0.0000 C   0  0  0  0  0  0  0  0  0  0  0  0
   -9.7500    1.2990    0.0000 C   0  0  0  0  0  0  0  0  0  0  0  0
   -8.2500    1.2990    0.0000 C   0  0  0  0  0  0  0  0  0  0  0  0
   -0.7500    1.2990    0.0000 C   0  0  0  0  0  0  0  0  0  0  0  0
    0.7500    1.2990    0.0000 C   0  0  0  0  0  0  0  0  0  0  0  0
  1  2  1  0
  2  3  1  0
  3  4  1  0
  4  5  1  0
  4  6  1  0
  6  7  1  0
  7  8  1  0
  8  9  1  0
  9 10  1  0
 10 11  1  0
 11 12  2  3
 12 13  1  0
 13 14  2  0
 13 15  1  0
 15 16  1  0
 16 17  2  0
 17 18  1  0
 18 19  2  0
 19 20  1  0
 20 21  2  0
 12 22  1  0
 22 23  2  0
 23 24  1  0
 24 25  2  0
 25 26  1  0
 26 27  2  0
  8 28  1  0
 28 29  1  0
 29  4  1  0
 21 16  1  0
 27 22  1  0
M  END
>  <Title>  (765) 
idABBMgen6

$$$$

     RDKit          2D

  9  9  0  0  0  0  0  0  0  0999 V2000
    5.0260   -1.2990    0.0000 C   0  0  0  0  0  0  0  0  0  0  0  0
    3.5260   -1.2990    0.0000 C   0  0  0  0  0  0  0  0  0  0  0  0
    2.7760   -2.5981    0.0000 O   0  0  0  0  0  0  0  0  0  0  0  0
    2.7760    0.0000    0.0000 N   0  0  0  0  0  0  0  0  0  0  0  0
    1.2760    0.0000    0.0000 C   0  0  0  0  0  0  0  0  0  0  0  0
    0.3943    1.2135    0.0000 C   0  0  0  0  0  0  0  0  0  0  0  0
   -1.0323    0.7500    0.0000 C   0  0  0  0  0  0  0  0  0  0  0  0
   -1.0323   -0.7500    0.0000 S   0  0  0  0  0  0  0  0  0  0  0  0
    0.3943   -1.2135    0.0000 C   0  0  0  0  0  0  0  0  0  0  0  0
  1  2  1  0
  2  3  2  0
  2  4  1  0
  4  5  1  0
  5  6  1  0
  6  7  2  0
  7  8  1  0
  8  9  1  0
  9  5  2  0
M  END
>  <Title>  (766) 
idABBNgen6

$$$$

     RDKit          2D

 19 20  0  0  0  0  0  0  0  0999 V2000
   -5.7609   -1.0275    0.0000 C   0  0  0  0  0  0  0  0  0  0  0  0
   -4.5474   -1.9091    0.0000 C   0  0  0  0  0  0  0  0  0  0  0  0
   -4.7042   -3.4009    0.0000 O   0  0  0  0  0  0  0  0  0  0  0  0
   -3.1771   -1.2990    0.0000 C   0  0  0  0  0  0  0  0  0  0  0  0
   -3.0203    0.1927    0.0000 O   0  0  0  0  0  0  0  0  0  0  0  0
   -1.9635   -2.1807    0.0000 C   0  0  0  0  0  0  0  0  0  0  0  0
   -2.4271   -3.6073    0.0000 C   0  0  0  0  0  0  0  0  0  0  0  0
   -1.9635   -5.0339    0.0000 C   0  0  0  0  0  0  0  0  0  0  0  0
   -0.7500   -5.9156    0.0000 C   0  0  0  0  0  0  0  0  0  0  0  0
    0.7500   -5.9156    0.0000 C   0  0  0  0  0  0  0  0  0  0  0  0
    1.9635   -5.0339    0.0000 C   0  0  0  0  0  0  0  0  0  0  0  0
    2.4271   -3.6073    0.0000 C   0  0  0  0  0  0  0  0  0  0  0  0
    1.9635   -2.1807    0.0000 N   0  0  0  0  0  0  0  0  0  0  0  0
    0.7500   -1.2990    0.0000 C   0  0  0  0  0  0  0  0  0  0  0  0
    1.5000    0.0000    0.0000 C   0  0  0  0  0  0  0  0  0  0  0  0
    0.7500    1.2990    0.0000 C   0  0  0  0  0  0  0  0  0  0  0  0
   -0.7500    1.2990    0.0000 C   0  0  0  0  0  0  0  0  0  0  0  0
   -1.5000    0.0000    0.0000 C   0  0  0  0  0  0  0  0  0  0  0  0
   -0.7500   -1.2990    0.0000 C   0  0  0  0  0  0  0  0  0  0  0  0
  1  2  1  0
  2  3  2  0
  2  4  1  0
  4  5  2  0
  4  6  1  0
  6  7  1  0
  7  8  1  0
  8  9  1  0
  9 10  1  0
 10 11  1  0
 11 12  1  0
 12 13  1  0
 13 14  1  0
 14 15  2  0
 15 16  1  0
 16 17  2  0
 17 18  1  0
 18 19  2  0
 19  6  1  0
 19 14  1  0
M  END
>  <Title>  (767) 
idABBOgen6

$$$$

     RDKit          2D

  8  8  0  0  0  0  0  0  0  0999 V2000
    3.7500   -1.2990    0.0000 C   0  0  0  0  0  0  0  0  0  0  0  0
    3.0000    0.0000    0.0000 O   0  0  0  0  0  0  0  0  0  0  0  0
    1.5000    0.0000    0.0000 C   0  0  0  0  0  0  0  0  0  0  0  0
    0.7500   -1.2990    0.0000 C   0  0  0  0  0  0  0  0  0  0  0  0
   -0.7500   -1.2990    0.0000 C   0  0  0  0  0  0  0  0  0  0  0  0
   -1.5000    0.0000    0.0000 C   0  0  0  0  0  0  0  0  0  0  0  0
   -0.7500    1.2990    0.0000 C   0  0  0  0  0  0  0  0  0  0  0  0
    0.7500    1.2990    0.0000 C   0  0  0  0  0  0  0  0  0  0  0  0
  1  2  1  0
  2  3  1  0
  3  4  1  0
  4  5  2  0
  5  6  1  0
  6  7  1  0
  7  8  2  0
  8  3  1  0
M  END
>  <Title>  (768) 
idABBPgen6

$$$$

     RDKit          2D

 34 38  0  0  0  0  0  0  0  0999 V2000
   -8.2500   -3.8971    0.0000 O   0  0  0  0  0  0  0  0  0  0  0  0
   -7.5000   -2.5981    0.0000 C   0  0  0  0  0  0  0  0  0  0  0  0
   -8.2500   -1.2990    0.0000 N   0  0  0  0  0  0  0  0  0  0  0  0
   -9.7500   -1.2990    0.0000 C   0  0  0  0  0  0  0  0  0  0  0  0
  -10.5000    0.0000    0.0000 C   0  0  0  0  0  0  0  0  0  0  0  0
  -12.0000    0.0000    0.0000 C   0  0  0  0  0  0  0  0  0  0  0  0
  -12.7500   -1.2990    0.0000 C   0  0  0  0  0  0  0  0  0  0  0  0
  -12.0000   -2.5981    0.0000 C   0  0  0  0  0  0  0  0  0  0  0  0
  -10.5000   -2.5981    0.0000 C   0  0  0  0  0  0  0  0  0  0  0  0
   -6.0000   -2.5981    0.0000 C   0  0  0  0  0  0  0  0  0  0  0  0
   -5.2500   -3.8971    0.0000 C   0  0  0  0  0  0  0  0  0  0  0  0
   -3.7500   -3.8971    0.0000 C   0  0  0  0  0  0  0  0  0  0  0  0
   -3.0000   -2.5981    0.0000 N   0  0  0  0  0  0  0  0  0  0  0  0
   -1.5000   -2.5981    0.0000 C   0  0  0  0  0  0  0  0  0  0  0  0
   -0.7500   -3.8971    0.0000 C   0  0  0  0  0  0  0  0  0  0  0  0
    0.7500   -3.8971    0.0000 C   0  0  0  0  0  0  0  0  0  0  0  0
    1.5000   -2.5981    0.0000 N   0  0  0  0  0  0  0  0  0  0  0  0
    3.0000   -2.5981    0.0000 C   0  0  0  0  0  0  0  0  0  0  0  0
    3.7500   -1.2990    0.0000 O   0  0  0  0  0  0  0  0  0  0  0  0
    3.7500   -3.8971    0.0000 N   0  0  0  0  0  0  0  0  0  0  0  0
    5.2500   -3.8971    0.0000 C   0  0  0  0  0  0  0  0  0  0  0  0
    6.0000   -5.1962    0.0000 N   0  0  0  0  0  0  0  0  0  0  0  0
    7.5000   -5.1962    0.0000 N   0  0  0  0  0  0  0  0  0  0  0  0
    8.2500   -3.8971    0.0000 N   0  0  0  0  0  0  0  0  0  0  0  0
    7.5000   -2.5981    0.0000 N   0  0  0  0  0  0  0  0  0  0  0  0
    6.0000   -2.5981    0.0000 N   0  0  0  0  0  0  0  0  0  0  0  0
    0.7500   -1.2990    0.0000 C   0  0  0  0  0  0  0  0  0  0  0  0
    1.5000    0.0000    0.0000 C   0  0  0  0  0  0  0  0  0  0  0  0
    0.7500    1.2990    0.0000 C   0  0  0  0  0  0  0  0  0  0  0  0
   -0.7500    1.2990    0.0000 C   0  0  0  0  0  0  0  0  0  0  0  0
   -1.5000    0.0000    0.0000 C   0  0  0  0  0  0  0  0  0  0  0  0
   -0.7500   -1.2990    0.0000 C   0  0  0  0  0  0  0  0  0  0  0  0
   -3.7500   -1.2990    0.0000 C   0  0  0  0  0  0  0  0  0  0  0  0
   -5.2500   -1.2990    0.0000 C   0  0  0  0  0  0  0  0  0  0  0  0
  1  2  2  0
  2  3  1  0
  3  4  1  0
  4  5  2  0
  5  6  1  0
  6  7  2  0
  7  8  1  0
  8  9  2  0
  2 10  1  0
 10 11  1  0
 11 12  1  0
 12 13  1  0
 13 14  1  0
 14 15  1  0
 15 16  1  0
 16 17  1  0
 17 18  1  0
 18 19  2  0
 18 20  1  0
 20 21  1  0
 21 22  2  0
 22 23  1  0
 23 24  2  0
 24 25  1  0
 25 26  2  0
 17 27  1  0
 27 28  2  0
 28 29  1  0
 29 30  2  0
 30 31  1  0
 31 32  2  0
 13 33  1  0
 33 34  1  0
  9  4  1  0
 34 10  1  0
 32 14  1  0
 26 21  1  0
 32 27  1  0
M  END
>  <Title>  (769) 
idABBQgen6

$$$$

     RDKit          2D

 15 16  0  0  0  0  0  0  0  0999 V2000
    3.6989   -6.8834    0.0000 C   0  0  0  0  0  0  0  0  0  0  0  0
    2.2500   -6.4952    0.0000 C   0  0  0  0  0  0  0  0  0  0  0  0
    0.9510   -7.2452    0.0000 C   0  0  0  0  0  0  0  0  0  0  0  0
    0.2010   -5.9462    0.0000 C   0  0  0  0  0  0  0  0  0  0  0  0
    1.5000   -5.1962    0.0000 C   0  0  0  0  0  0  0  0  0  0  0  0
    2.7990   -4.4462    0.0000 O   0  0  0  0  0  0  0  0  0  0  0  0
    0.7500   -3.8971    0.0000 C   0  0  0  0  0  0  0  0  0  0  0  0
   -0.7500   -3.8971    0.0000 O   0  0  0  0  0  0  0  0  0  0  0  0
    1.5000   -2.5981    0.0000 N   0  0  0  0  0  0  0  0  0  0  0  0
    0.7500   -1.2990    0.0000 C   0  0  0  0  0  0  0  0  0  0  0  0
    1.5000    0.0000    0.0000 N   0  0  0  0  0  0  0  0  0  0  0  0
    0.7500    1.2990    0.0000 N   0  0  0  0  0  0  0  0  0  0  0  0
   -0.7500    1.2990    0.0000 N   0  0  0  0  0  0  0  0  0  0  0  0
   -1.5000    0.0000    0.0000 N   0  0  0  0  0  0  0  0  0  0  0  0
   -0.7500   -1.2990    0.0000 N   0  0  0  0  0  0  0  0  0  0  0  0
  1  2  1  0
  2  3  1  0
  3  4  1  0
  4  5  1  0
  5  6  1  0
  5  7  1  0
  7  8  2  0
  7  9  1  0
  9 10  1  0
 10 11  2  0
 11 12  1  0
 12 13  2  0
 13 14  1  0
 14 15  2  0
  5  2  1  0
 15 10  1  0
M  END
>  <Title>  (770) 
idABBRgen6

$$$$

     RDKit          2D

  8  7  0  0  0  0  0  0  0  0999 V2000
    0.0000    0.0000    0.0000 C   0  0  0  0  0  0  0  0  0  0  0  0
    1.2990    0.7500    0.0000 O   0  0  0  0  0  0  0  0  0  0  0  0
    2.5981   -0.0000    0.0000 C   0  0  0  0  0  0  0  0  0  0  0  0
    3.8971    0.7500    0.0000 C   0  0  0  0  0  0  0  0  0  0  0  0
    2.5981   -1.5000    0.0000 C   0  0  0  0  0  0  0  0  0  0  0  0
    2.5981   -3.0000    0.0000 C   0  0  0  0  0  0  0  0  0  0  0  0
    2.5981   -4.5000    0.0000 C   0  0  0  0  0  0  0  0  0  0  0  0
    2.5981   -6.0000    0.0000 N   0  0  0  0  0  0  0  0  0  0  0  0
  1  2  1  0
  2  3  1  0
  3  4  1  0
  3  5  1  0
  5  6  3  0
  6  7  1  0
  7  8  3  0
M  END
>  <Title>  (771) 
idABBSgen6

$$$$

     RDKit          2D

 12 12  0  0  0  0  0  0  0  0999 V2000
    6.0000   -2.5981    0.0000 C   0  0  0  0  0  0  0  0  0  0  0  0
    5.2500   -1.2990    0.0000 C   0  0  0  0  0  0  0  0  0  0  0  0
    6.0000    0.0000    0.0000 O   0  0  0  0  0  0  0  0  0  0  0  0
    3.7500   -1.2990    0.0000 C   0  0  0  0  0  0  0  0  0  0  0  0
    3.0000   -2.5981    0.0000 O   0  0  0  0  0  0  0  0  0  0  0  0
    3.0000    0.0000    0.0000 O   0  0  0  0  0  0  0  0  0  0  0  0
    1.5000    0.0000    0.0000 C   0  0  0  0  0  0  0  0  0  0  0  0
    0.7500   -1.2990    0.0000 C   0  0  0  0  0  0  0  0  0  0  0  0
   -0.7500   -1.2990    0.0000 C   0  0  0  0  0  0  0  0  0  0  0  0
   -1.5000    0.0000    0.0000 C   0  0  0  0  0  0  0  0  0  0  0  0
   -0.7500    1.2990    0.0000 C   0  0  0  0  0  0  0  0  0  0  0  0
    0.7500    1.2990    0.0000 C   0  0  0  0  0  0  0  0  0  0  0  0
  1  2  1  0
  2  3  2  0
  2  4  1  0
  4  5  2  0
  4  6  1  0
  6  7  1  0
  7  8  2  0
  8  9  1  0
  9 10  2  0
 10 11  1  0
 11 12  2  0
 12  7  1  0
M  END
>  <Title>  (772) 
idABBTgen6

$$$$

     RDKit          2D

  8  8  0  0  0  0  0  0  0  0999 V2000
    5.0260   -1.2990    0.0000 C   0  0  0  0  0  0  0  0  0  0  0  0
    3.5260   -1.2990    0.0000 C   0  0  0  0  0  0  0  0  0  0  0  0
    2.7760    0.0000    0.0000 N   0  0  0  0  0  0  0  0  0  0  0  0
    1.2760    0.0000    0.0000 C   0  0  0  0  0  0  0  0  0  0  0  0
    0.3943    1.2135    0.0000 C   0  0  0  0  0  0  0  0  0  0  0  0
   -1.0323    0.7500    0.0000 C   0  0  0  0  0  0  0  0  0  0  0  0
   -1.0323   -0.7500    0.0000 C   0  0  0  0  0  0  0  0  0  0  0  0
    0.3943   -1.2135    0.0000 C   0  0  0  0  0  0  0  0  0  0  0  0
  1  2  1  0
  2  3  1  0
  3  4  1  0
  4  5  2  0
  5  6  1  0
  6  7  2  0
  7  8  1  0
  8  4  1  0
M  END
>  <Title>  (773) 
idABBUgen6

$$$$

     RDKit          2D

 32 36  0  0  0  0  0  0  0  0999 V2000
   -3.1476   -2.1380    0.0000 C   0  0  0  0  0  0  0  0  0  0  0  0
   -1.6852   -2.4718    0.0000 C   0  0  0  0  0  0  0  0  0  0  0  0
   -1.3515   -3.9342    0.0000 C   0  0  0  0  0  0  0  0  0  0  0  0
   -0.0000   -4.5850    0.0000 C   0  0  0  0  0  0  0  0  0  0  0  0
    1.3515   -3.9342    0.0000 C   0  0  0  0  0  0  0  0  0  0  0  0
    1.6852   -2.4718    0.0000 C   0  0  0  0  0  0  0  0  0  0  0  0
    3.1476   -2.1380    0.0000 C   0  0  0  0  0  0  0  0  0  0  0  0
    3.5898   -0.7046    0.0000 O   0  0  0  0  0  0  0  0  0  0  0  0
    4.1679   -3.2376    0.0000 N   0  0  0  0  0  0  0  0  0  0  0  0
    5.6303   -2.9038    0.0000 C   0  0  0  0  0  0  0  0  0  0  0  0
    6.2198   -1.5245    0.0000 N   0  0  0  0  0  0  0  0  0  0  0  0
    7.7138   -1.6590    0.0000 N   0  0  0  0  0  0  0  0  0  0  0  0
    8.0476   -3.1214    0.0000 N   0  0  0  0  0  0  0  0  0  0  0  0
    6.7599   -3.8907    0.0000 N   0  0  0  0  0  0  0  0  0  0  0  0
    6.6254   -5.3847    0.0000 C   0  0  0  0  0  0  0  0  0  0  0  0
    5.2644   -6.0152    0.0000 C   0  0  0  0  0  0  0  0  0  0  0  0
    5.1299   -7.5092    0.0000 C   0  0  0  0  0  0  0  0  0  0  0  0
    6.3565   -8.3726    0.0000 C   0  0  0  0  0  0  0  0  0  0  0  0
    7.7175   -7.7421    0.0000 C   0  0  0  0  0  0  0  0  0  0  0  0
    7.8520   -6.2481    0.0000 C   0  0  0  0  0  0  0  0  0  0  0  0
    9.2130   -5.6176    0.0000 C   0  0  0  0  0  0  0  0  0  0  0  0
   10.4396   -6.4810    0.0000 C   0  0  0  0  0  0  0  0  0  0  0  0
   11.8007   -5.8504    0.0000 C   0  0  0  0  0  0  0  0  0  0  0  0
   11.9351   -4.3565    0.0000 C   0  0  0  0  0  0  0  0  0  0  0  0
   10.7085   -3.4931    0.0000 C   0  0  0  0  0  0  0  0  0  0  0  0
    9.3475   -4.1236    0.0000 C   0  0  0  0  0  0  0  0  0  0  0  0
    0.7500   -1.2990    0.0000 C   0  0  0  0  0  0  0  0  0  0  0  0
    1.5000    0.0000    0.0000 C   0  0  0  0  0  0  0  0  0  0  0  0
    0.7500    1.2990    0.0000 C   0  0  0  0  0  0  0  0  0  0  0  0
   -0.7500    1.2990    0.0000 C   0  0  0  0  0  0  0  0  0  0  0  0
   -1.5000    0.0000    0.0000 C   0  0  0  0  0  0  0  0  0  0  0  0
   -0.7500   -1.2990    0.0000 C   0  0  0  0  0  0  0  0  0  0  0  0
  1  2  1  0
  2  3  1  0
  3  4  1  0
  4  5  1  0
  5  6  2  0
  6  7  1  0
  7  8  2  0
  7  9  1  0
  9 10  1  0
 10 11  2  0
 11 12  1  0
 12 13  2  0
 13 14  1  0
 14 15  1  0
 15 16  2  0
 16 17  1  0
 17 18  2  0
 18 19  1  0
 19 20  2  0
 20 21  1  0
 21 22  2  0
 22 23  1  0
 23 24  2  0
 24 25  1  0
 25 26  2  0
  6 27  1  0
 27 28  2  0
 28 29  1  0
 29 30  2  0
 30 31  1  0
 31 32  2  0
 32  2  1  0
 14 10  1  0
 20 15  1  0
 26 21  1  0
 32 27  1  0
M  END
>  <Title>  (774) 
idABBVgen6

$$$$

     RDKit          2D

 18 18  0  0  0  0  0  0  0  0999 V2000
    5.5816    0.0000    0.0000 C   0  0  0  0  0  0  0  0  0  0  0  0
    4.0816    0.0000    0.0000 C   0  0  0  0  0  0  0  0  0  0  0  0
    3.8060    1.4745    0.0000 C   0  0  0  0  0  0  0  0  0  0  0  0
    3.0164    2.7498    0.0000 C   0  0  0  0  0  0  0  0  0  0  0  0
    1.8193    3.6537    0.0000 C   0  0  0  0  0  0  0  0  0  0  0  0
    0.3766    4.0642    0.0000 C   0  0  0  0  0  0  0  0  0  0  0  0
   -1.1170    3.9258    0.0000 C   0  0  0  0  0  0  0  0  0  0  0  0
   -2.4597    3.2572    0.0000 C   0  0  0  0  0  0  0  0  0  0  0  0
   -3.4703    2.1487    0.0000 C   0  0  0  0  0  0  0  0  0  0  0  0
   -4.0121    0.7500    0.0000 C   0  0  0  0  0  0  0  0  0  0  0  0
   -4.0121   -0.7500    0.0000 C   0  0  0  0  0  0  0  0  0  0  0  0
   -3.4703   -2.1487    0.0000 C   0  0  0  0  0  0  0  0  0  0  0  0
   -2.4597   -3.2572    0.0000 C   0  0  0  0  0  0  0  0  0  0  0  0
   -1.1170   -3.9258    0.0000 C   0  0  0  0  0  0  0  0  0  0  0  0
    0.3766   -4.0642    0.0000 C   0  0  0  0  0  0  0  0  0  0  0  0
    1.8193   -3.6537    0.0000 C   0  0  0  0  0  0  0  0  0  0  0  0
    3.0164   -2.7498    0.0000 C   0  0  0  0  0  0  0  0  0  0  0  0
    3.8060   -1.4745    0.0000 C   0  0  0  0  0  0  0  0  0  0  0  0
  1  2  1  0
  2  3  1  0
  3  4  2  0
  4  5  1  0
  5  6  1  0
  6  7  1  0
  7  8  1  0
  8  9  1  0
  9 10  1  0
 10 11  1  0
 11 12  1  0
 12 13  1  0
 13 14  1  0
 14 15  1  0
 15 16  1  0
 16 17  1  0
 17 18  1  0
 18  2  1  0
M  END
>  <Title>  (775) 
idABBWgen6

$$$$

     RDKit          2D

  7  7  0  0  0  0  0  0  0  0999 V2000
    1.7286    0.0000    0.0000 C   0  0  0  0  0  0  0  0  0  0  0  0
    1.0777    1.3515    0.0000 C   0  0  0  0  0  0  0  0  0  0  0  0
   -0.3846    1.6852    0.0000 C   0  0  0  0  0  0  0  0  0  0  0  0
   -1.5574    0.7500    0.0000 C   0  0  0  0  0  0  0  0  0  0  0  0
   -1.5574   -0.7500    0.0000 N   0  0  0  0  0  0  0  0  0  0  0  0
   -0.3846   -1.6852    0.0000 C   0  0  0  0  0  0  0  0  0  0  0  0
    1.0777   -1.3515    0.0000 C   0  0  0  0  0  0  0  0  0  0  0  0
  1  2  1  0
  2  3  1  0
  3  4  1  0
  4  5  1  0
  5  6  1  0
  6  7  1  0
  7  1  1  0
M  END
>  <Title>  (776) 
idABBXgen6

$$$$

     RDKit          2D

  6  6  0  0  0  0  0  0  0  0999 V2000
    2.7760    0.0000    0.0000 C   0  0  0  0  0  0  0  0  0  0  0  0
    1.2760    0.0000    0.0000 C   0  0  0  0  0  0  0  0  0  0  0  0
    0.3943    1.2135    0.0000 C   0  0  0  0  0  0  0  0  0  0  0  0
   -1.0323    0.7500    0.0000 C   0  0  0  0  0  0  0  0  0  0  0  0
   -1.0323   -0.7500    0.0000 C   0  0  0  0  0  0  0  0  0  0  0  0
    0.3943   -1.2135    0.0000 C   0  0  0  0  0  0  0  0  0  0  0  0
  1  2  1  0
  2  3  1  0
  3  4  2  0
  4  5  1  0
  5  6  2  0
  6  2  1  0
M  END
>  <Title>  (777) 
idABBYgen6

$$$$

     RDKit          2D

  8  7  0  0  0  0  0  0  0  0999 V2000
    0.0000    0.0000    0.0000 C   0  0  0  0  0  0  0  0  0  0  0  0
    1.2990    0.7500    0.0000 C   0  0  0  0  0  0  0  0  0  0  0  0
    2.5981   -0.0000    0.0000 C   0  0  0  0  0  0  0  0  0  0  0  0
    1.2990    2.2500    0.0000 C   0  0  0  0  0  0  0  0  0  0  0  0
    2.5981    3.0000    0.0000 C   0  0  0  0  0  0  0  0  0  0  0  0
    3.8971    3.7500    0.0000 C   0  0  0  0  0  0  0  0  0  0  0  0
    5.1962    4.5000    0.0000 C   0  0  0  0  0  0  0  0  0  0  0  0
    6.4952    5.2500    0.0000 N   0  0  0  0  0  0  0  0  0  0  0  0
  1  2  1  0
  2  3  1  0
  2  4  1  0
  4  5  1  0
  5  6  3  0
  6  7  1  0
  7  8  3  0
M  END
>  <Title>  (778) 
idABBZgen6

$$$$

     RDKit          2D

 19 19  0  0  0  0  0  0  0  0999 V2000
    5.8191    0.0000    0.0000 C   0  0  0  0  0  0  0  0  0  0  0  0
    4.3191    0.0000    0.0000 C   0  0  0  0  0  0  0  0  0  0  0  0
    4.0586   -1.4772    0.0000 C   0  0  0  0  0  0  0  0  0  0  0  0
    3.3086   -2.7762    0.0000 C   0  0  0  0  0  0  0  0  0  0  0  0
    2.1595   -3.7404    0.0000 C   0  0  0  0  0  0  0  0  0  0  0  0
    0.7500   -4.2535    0.0000 C   0  0  0  0  0  0  0  0  0  0  0  0
   -0.7500   -4.2535    0.0000 C   0  0  0  0  0  0  0  0  0  0  0  0
   -2.1595   -3.7404    0.0000 C   0  0  0  0  0  0  0  0  0  0  0  0
   -3.3086   -2.7762    0.0000 C   0  0  0  0  0  0  0  0  0  0  0  0
   -4.0586   -1.4772    0.0000 C   0  0  0  0  0  0  0  0  0  0  0  0
   -4.3191    0.0000    0.0000 C   0  0  0  0  0  0  0  0  0  0  0  0
   -4.0586    1.4772    0.0000 C   0  0  0  0  0  0  0  0  0  0  0  0
   -3.3086    2.7762    0.0000 C   0  0  0  0  0  0  0  0  0  0  0  0
   -2.1595    3.7404    0.0000 C   0  0  0  0  0  0  0  0  0  0  0  0
   -0.7500    4.2535    0.0000 C   0  0  0  0  0  0  0  0  0  0  0  0
    0.7500    4.2535    0.0000 C   0  0  0  0  0  0  0  0  0  0  0  0
    2.1595    3.7404    0.0000 N   0  0  0  0  0  0  0  0  0  0  0  0
    3.3086    2.7762    0.0000 N   0  0  0  0  0  0  0  0  0  0  0  0
    4.0586    1.4772    0.0000 N   0  0  0  0  0  0  0  0  0  0  0  0
  1  2  1  0
  2  3  1  0
  3  4  2  0
  4  5  1  0
  5  6  1  0
  6  7  2  0
  7  8  1  0
  8  9  2  0
  9 10  1  0
 10 11  2  0
 11 12  1  0
 12 13  2  0
 13 14  1  0
 14 15  2  0
 15 16  1  0
 16 17  2  0
 17 18  1  0
 18 19  2  0
 19  2  1  0
M  END
>  <Title>  (779) 
idABCAgen6

$$$$

     RDKit          2D

 19 20  0  0  0  0  0  0  0  0999 V2000
    4.6740   -7.4303    0.0000 C   0  0  0  0  0  0  0  0  0  0  0  0
    3.3037   -6.8202    0.0000 C   0  0  0  0  0  0  0  0  0  0  0  0
    2.9918   -5.3529    0.0000 C   0  0  0  0  0  0  0  0  0  0  0  0
    1.5000   -5.1962    0.0000 C   0  0  0  0  0  0  0  0  0  0  0  0
    0.7500   -3.8971    0.0000 C   0  0  0  0  0  0  0  0  0  0  0  0
   -0.7500   -3.8971    0.0000 O   0  0  0  0  0  0  0  0  0  0  0  0
    1.5000   -2.5981    0.0000 N   0  0  0  0  0  0  0  0  0  0  0  0
    0.7500   -1.2990    0.0000 C   0  0  0  0  0  0  0  0  0  0  0  0
    1.5000    0.0000    0.0000 C   0  0  0  0  0  0  0  0  0  0  0  0
    0.7500    1.2990    0.0000 N   0  0  0  0  0  0  0  0  0  0  0  0
   -0.7500    1.2990    0.0000 N   0  0  0  0  0  0  0  0  0  0  0  0
   -1.5000    0.0000    0.0000 N   0  0  0  0  0  0  0  0  0  0  0  0
   -0.7500   -1.2990    0.0000 N   0  0  0  0  0  0  0  0  0  0  0  0
    0.8899   -6.5665    0.0000 C   0  0  0  0  0  0  0  0  0  0  0  0
   -0.5773   -6.8783    0.0000 C   0  0  0  0  0  0  0  0  0  0  0  0
   -1.5810   -5.7636    0.0000 O   0  0  0  0  0  0  0  0  0  0  0  0
   -1.0409   -8.3049    0.0000 O   0  0  0  0  0  0  0  0  0  0  0  0
    2.0046   -7.5702    0.0000 C   0  0  0  0  0  0  0  0  0  0  0  0
    1.8478   -9.0619    0.0000 O   0  0  0  0  0  0  0  0  0  0  0  0
  1  2  1  0
  2  3  1  0
  3  4  2  0
  4  5  1  0
  5  6  2  0
  5  7  1  0
  7  8  1  0
  8  9  2  0
  9 10  1  0
 10 11  2  0
 11 12  1  0
 12 13  2  0
  4 14  1  0
 14 15  1  0
 15 16  2  0
 15 17  1  0
 14 18  1  0
 18 19  2  0
 18  2  1  0
 13  8  1  0
M  END
>  <Title>  (780) 
idABCBgen6

$$$$

     RDKit          2D

 38 42  0  0  0  0  0  0  0  0999 V2000
   -3.1771   -5.9156    0.0000 C   0  0  0  0  0  0  0  0  0  0  0  0
   -1.9635   -5.0339    0.0000 C   0  0  0  0  0  0  0  0  0  0  0  0
   -0.7500   -5.9156    0.0000 C   0  0  0  0  0  0  0  0  0  0  0  0
    0.7500   -5.9156    0.0000 C   0  0  0  0  0  0  0  0  0  0  0  0
    1.9635   -5.0339    0.0000 C   0  0  0  0  0  0  0  0  0  0  0  0
    3.1771   -5.9156    0.0000 C   0  0  0  0  0  0  0  0  0  0  0  0
    4.5474   -5.3055    0.0000 O   0  0  0  0  0  0  0  0  0  0  0  0
    3.0203   -7.4073    0.0000 N   0  0  0  0  0  0  0  0  0  0  0  0
    1.6499   -8.0175    0.0000 C   0  0  0  0  0  0  0  0  0  0  0  0
    1.3381   -9.4847    0.0000 C   0  0  0  0  0  0  0  0  0  0  0  0
   -0.1537   -9.6415    0.0000 C   0  0  0  0  0  0  0  0  0  0  0  0
   -0.9037  -10.9405    0.0000 C   0  0  0  0  0  0  0  0  0  0  0  0
   -1.6537  -12.2395    0.0000 N   0  0  0  0  0  0  0  0  0  0  0  0
   -0.7638   -8.2711    0.0000 C   0  0  0  0  0  0  0  0  0  0  0  0
    0.3509   -7.2675    0.0000 C   0  0  0  0  0  0  0  0  0  0  0  0
    4.2338   -8.2890    0.0000 C   0  0  0  0  0  0  0  0  0  0  0  0
    4.0770   -9.7808    0.0000 C   0  0  0  0  0  0  0  0  0  0  0  0
    5.6041   -7.6789    0.0000 C   0  0  0  0  0  0  0  0  0  0  0  0
    6.8176   -8.5606    0.0000 C   0  0  0  0  0  0  0  0  0  0  0  0
    7.0523  -10.0421    0.0000 C   0  0  0  0  0  0  0  0  0  0  0  0
    8.5338   -9.8075    0.0000 C   0  0  0  0  0  0  0  0  0  0  0  0
    8.2992   -8.3259    0.0000 C   0  0  0  0  0  0  0  0  0  0  0  0
    9.1808   -7.1124    0.0000 O   0  0  0  0  0  0  0  0  0  0  0  0
    2.4271   -3.6073    0.0000 C   0  0  0  0  0  0  0  0  0  0  0  0
    3.9271   -3.6073    0.0000 O   0  0  0  0  0  0  0  0  0  0  0  0
    1.9635   -2.1807    0.0000 O   0  0  0  0  0  0  0  0  0  0  0  0
    0.7500   -1.2990    0.0000 C   0  0  0  0  0  0  0  0  0  0  0  0
    1.5000    0.0000    0.0000 C   0  0  0  0  0  0  0  0  0  0  0  0
    0.7500    1.2990    0.0000 C   0  0  0  0  0  0  0  0  0  0  0  0
   -0.7500    1.2990    0.0000 C   0  0  0  0  0  0  0  0  0  0  0  0
   -1.5000    0.0000    0.0000 C   0  0  0  0  0  0  0  0  0  0  0  0
   -0.7500   -1.2990    0.0000 C   0  0  0  0  0  0  0  0  0  0  0  0
   -1.9635   -2.1807    0.0000 C   0  0  0  0  0  0  0  0  0  0  0  0
   -2.9672   -1.0660    0.0000 C   0  0  0  0  0  0  0  0  0  0  0  0
   -4.4344   -1.3779    0.0000 C   0  0  0  0  0  0  0  0  0  0  0  0
   -4.8980   -2.8045    0.0000 C   0  0  0  0  0  0  0  0  0  0  0  0
   -3.8943   -3.9192    0.0000 C   0  0  0  0  0  0  0  0  0  0  0  0
   -2.4271   -3.6073    0.0000 C   0  0  0  0  0  0  0  0  0  0  0  0
  1  2  1  0
  2  3  1  0
  3  4  1  0
  4  5  1  0
  5  6  1  0
  6  7  2  0
  6  8  1  0
  8  9  1  0
  9 10  2  0
 10 11  1  0
 11 12  1  0
 12 13  3  0
 11 14  1  0
 14 15  2  0
  8 16  1  0
 16 17  1  0
 16 18  1  0
 18 19  2  3
 19 20  1  0
 20 21  1  0
 21 22  1  0
 22 23  2  0
  5 24  1  0
 24 25  2  0
 24 26  1  0
 26 27  1  0
 27 28  2  0
 28 29  1  0
 29 30  2  0
 30 31  1  0
 31 32  2  0
 32 33  1  0
 33 34  2  0
 34 35  1  0
 35 36  2  0
 36 37  1  0
 37 38  2  0
 38  2  1  0
 15  9  1  0
 22 19  1  0
 32 27  1  0
 38 33  1  0
M  END
>  <Title>  (781) 
idABCCgen6

$$$$

     RDKit          2D

  6  6  0  0  0  0  0  0  0  0999 V2000
    1.5000    0.0000    0.0000 C   0  0  0  0  0  0  0  0  0  0  0  0
    0.7500   -1.2990    0.0000 C   0  0  0  0  0  0  0  0  0  0  0  0
   -0.7500   -1.2990    0.0000 C   0  0  0  0  0  0  0  0  0  0  0  0
   -1.5000    0.0000    0.0000 C   0  0  0  0  0  0  0  0  0  0  0  0
   -0.7500    1.2990    0.0000 C   0  0  0  0  0  0  0  0  0  0  0  0
    0.7500    1.2990    0.0000 C   0  0  0  0  0  0  0  0  0  0  0  0
  1  2  1  0
  2  3  1  0
  3  4  1  0
  4  5  1  0
  5  6  1  0
  6  1  1  0
M  END
>  <Title>  (782) 
idABCDgen6

$$$$

     RDKit          2D

 32 35  0  0  0  0  0  0  0  0999 V2000
    7.0771    1.7609    0.0000 C   0  0  0  0  0  0  0  0  0  0  0  0
    5.5939    1.9845    0.0000 C   0  0  0  0  0  0  0  0  0  0  0  0
    4.3870    1.0937    0.0000 C   0  0  0  0  0  0  0  0  0  0  0  0
    3.4962    2.3006    0.0000 C   0  0  0  0  0  0  0  0  0  0  0  0
    2.0130    2.5242    0.0000 C   0  0  0  0  0  0  0  0  0  0  0  0
    1.4650    3.9205    0.0000 O   0  0  0  0  0  0  0  0  0  0  0  0
    1.0777    1.3515    0.0000 N   0  0  0  0  0  0  0  0  0  0  0  0
    1.7286    0.0000    0.0000 C   0  0  0  0  0  0  0  0  0  0  0  0
    1.0777   -1.3515    0.0000 C   0  0  0  0  0  0  0  0  0  0  0  0
   -0.3846   -1.6852    0.0000 C   0  0  0  0  0  0  0  0  0  0  0  0
   -0.7184   -3.1476    0.0000 N   0  0  0  0  0  0  0  0  0  0  0  0
   -2.1518   -3.5898    0.0000 C   0  0  0  0  0  0  0  0  0  0  0  0
    0.3812   -4.1679    0.0000 C   0  0  0  0  0  0  0  0  0  0  0  0
   -1.5574   -0.7500    0.0000 C   0  0  0  0  0  0  0  0  0  0  0  0
   -2.9088   -1.4008    0.0000 C   0  0  0  0  0  0  0  0  0  0  0  0
   -3.1767   -2.8767    0.0000 C   0  0  0  0  0  0  0  0  0  0  0  0
   -4.6631   -3.0781    0.0000 C   0  0  0  0  0  0  0  0  0  0  0  0
   -5.3139   -1.7266    0.0000 C   0  0  0  0  0  0  0  0  0  0  0  0
   -6.7898   -1.4588    0.0000 O   0  0  0  0  0  0  0  0  0  0  0  0
   -7.2958   -0.0467    0.0000 C   0  0  0  0  0  0  0  0  0  0  0  0
   -8.7717    0.2211    0.0000 C   0  0  0  0  0  0  0  0  0  0  0  0
   -9.2777    1.6332    0.0000 C   0  0  0  0  0  0  0  0  0  0  0  0
  -10.7536    1.9010    0.0000 C   0  0  0  0  0  0  0  0  0  0  0  0
  -11.7235    0.7568    0.0000 C   0  0  0  0  0  0  0  0  0  0  0  0
  -11.2175   -0.6553    0.0000 C   0  0  0  0  0  0  0  0  0  0  0  0
   -9.7416   -0.9231    0.0000 C   0  0  0  0  0  0  0  0  0  0  0  0
   -4.2297   -0.6900    0.0000 C   0  0  0  0  0  0  0  0  0  0  0  0
   -4.4311    0.7964    0.0000 O   0  0  0  0  0  0  0  0  0  0  0  0
   -1.5574    0.7500    0.0000 O   0  0  0  0  0  0  0  0  0  0  0  0
   -0.3846    1.6852    0.0000 C   0  0  0  0  0  0  0  0  0  0  0  0
   -0.7184    3.1476    0.0000 O   0  0  0  0  0  0  0  0  0  0  0  0
    4.7031    3.1914    0.0000 C   0  0  0  0  0  0  0  0  0  0  0  0
  1  2  1  0
  2  3  1  0
  3  4  1  0
  4  5  1  0
  5  6  2  0
  5  7  1  0
  7  8  1  0
  8  9  1  0
  9 10  1  0
 10 11  1  0
 11 12  1  0
 11 13  1  0
 10 14  1  0
 14 15  1  0
 15 16  2  0
 16 17  1  0
 17 18  2  0
 18 19  1  0
 19 20  1  0
 20 21  1  0
 21 22  2  0
 22 23  1  0
 23 24  2  0
 24 25  1  0
 25 26  2  0
 18 27  1  0
 27 28  2  0
 14 29  1  0
 29 30  1  0
 30 31  2  0
  4 32  1  0
 32  2  1  0
 30  7  1  0
 27 15  1  0
 26 21  1  0
M  END
>  <Title>  (783) 
idABCEgen6

$$$$

     RDKit          2D

 47 51  0  0  0  0  0  0  0  0999 V2000
   -7.1840   -6.0501    0.0000 C   0  0  0  0  0  0  0  0  0  0  0  0
   -5.6968   -6.2459    0.0000 C   0  0  0  0  0  0  0  0  0  0  0  0
   -5.6968   -7.7459    0.0000 C   0  0  0  0  0  0  0  0  0  0  0  0
   -5.3086   -9.1947    0.0000 C   0  0  0  0  0  0  0  0  0  0  0  0
   -4.5586  -10.4938    0.0000 C   0  0  0  0  0  0  0  0  0  0  0  0
   -3.4979  -11.5544    0.0000 C   0  0  0  0  0  0  0  0  0  0  0  0
   -2.1989  -12.3044    0.0000 C   0  0  0  0  0  0  0  0  0  0  0  0
   -0.7500  -12.6927    0.0000 C   0  0  0  0  0  0  0  0  0  0  0  0
    0.7500  -12.6927    0.0000 C   0  0  0  0  0  0  0  0  0  0  0  0
    2.1989  -12.3044    0.0000 C   0  0  0  0  0  0  0  0  0  0  0  0
    3.4979  -11.5544    0.0000 C   0  0  0  0  0  0  0  0  0  0  0  0
    4.5586  -10.4938    0.0000 C   0  0  0  0  0  0  0  0  0  0  0  0
    5.3086   -9.1947    0.0000 C   0  0  0  0  0  0  0  0  0  0  0  0
    5.6968   -7.7459    0.0000 C   0  0  0  0  0  0  0  0  0  0  0  0
    5.6968   -6.2459    0.0000 C   0  0  0  0  0  0  0  0  0  0  0  0
    5.3086   -4.7970    0.0000 C   0  0  0  0  0  0  0  0  0  0  0  0
    4.5586   -3.4979    0.0000 C   0  0  0  0  0  0  0  0  0  0  0  0
    5.7486   -2.5848    0.0000 O   0  0  0  0  0  0  0  0  0  0  0  0
    7.1344   -3.1588    0.0000 C   0  0  0  0  0  0  0  0  0  0  0  0
    7.3302   -4.6460    0.0000 C   0  0  0  0  0  0  0  0  0  0  0  0
    8.7160   -5.2200    0.0000 C   0  0  0  0  0  0  0  0  0  0  0  0
    9.9061   -4.3069    0.0000 C   0  0  0  0  0  0  0  0  0  0  0  0
    9.7103   -2.8197    0.0000 C   0  0  0  0  0  0  0  0  0  0  0  0
    8.3245   -2.2457    0.0000 C   0  0  0  0  0  0  0  0  0  0  0  0
    3.4979   -2.4373    0.0000 C   0  0  0  0  0  0  0  0  0  0  0  0
    4.4111   -1.2472    0.0000 O   0  0  0  0  0  0  0  0  0  0  0  0
    2.1989   -1.6873    0.0000 N   0  0  0  0  0  0  0  0  0  0  0  0
    0.7500   -1.2990    0.0000 C   0  0  0  0  0  0  0  0  0  0  0  0
    1.5000    0.0000    0.0000 C   0  0  0  0  0  0  0  0  0  0  0  0
    0.7500    1.2990    0.0000 C   0  0  0  0  0  0  0  0  0  0  0  0
   -0.7500    1.2990    0.0000 C   0  0  0  0  0  0  0  0  0  0  0  0
   -1.5000    0.0000    0.0000 C   0  0  0  0  0  0  0  0  0  0  0  0
   -0.7500   -1.2990    0.0000 C   0  0  0  0  0  0  0  0  0  0  0  0
   -2.1989   -1.6873    0.0000 C   0  0  0  0  0  0  0  0  0  0  0  0
   -2.1989   -0.1873    0.0000 C   0  0  0  0  0  0  0  0  0  0  0  0
   -3.4979    0.5627    0.0000 C   0  0  0  0  0  0  0  0  0  0  0  0
   -4.7970   -0.1873    0.0000 C   0  0  0  0  0  0  0  0  0  0  0  0
   -4.7970   -1.6873    0.0000 C   0  0  0  0  0  0  0  0  0  0  0  0
   -3.4979   -2.4373    0.0000 C   0  0  0  0  0  0  0  0  0  0  0  0
   -4.5586   -3.4979    0.0000 C   0  0  0  0  0  0  0  0  0  0  0  0
   -5.3086   -2.1989    0.0000 C   0  0  0  0  0  0  0  0  0  0  0  0
   -6.8086   -2.1989    0.0000 C   0  0  0  0  0  0  0  0  0  0  0  0
   -7.5586   -3.4979    0.0000 C   0  0  0  0  0  0  0  0  0  0  0  0
   -9.0586   -3.4979    0.0000 C   0  0  0  0  0  0  0  0  0  0  0  0
  -10.5586   -3.4979    0.0000 N   0  0  0  0  0  0  0  0  0  0  0  0
   -6.8086   -4.7970    0.0000 C   0  0  0  0  0  0  0  0  0  0  0  0
   -5.3086   -4.7970    0.0000 C   0  0  0  0  0  0  0  0  0  0  0  0
  1  2  1  0
  2  3  1  0
  3  4  2  0
  4  5  1  0
  5  6  1  0
  6  7  1  0
  7  8  1  0
  8  9  1  0
  9 10  1  0
 10 11  1  0
 11 12  1  0
 12 13  1  0
 13 14  1  0
 14 15  1  0
 15 16  1  0
 16 17  1  0
 17 18  1  0
 18 19  1  0
 19 20  2  0
 20 21  1  0
 21 22  2  0
 22 23  1  0
 23 24  2  0
 17 25  1  0
 25 26  2  0
 25 27  1  0
 27 28  1  0
 28 29  2  0
 29 30  1  0
 30 31  2  0
 31 32  1  0
 32 33  2  0
 33 34  1  0
 34 35  2  0
 35 36  1  0
 36 37  2  0
 37 38  1  0
 38 39  2  0
 39 40  1  0
 40 41  2  0
 41 42  1  0
 42 43  2  0
 43 44  1  0
 44 45  3  0
 43 46  1  0
 46 47  2  0
 47  2  1  0
 24 19  1  0
 33 28  1  0
 39 34  1  0
 47 40  1  0
M  END
>  <Title>  (784) 
idABCFgen6

$$$$

     RDKit          2D

 19 21  0  0  0  0  0  0  0  0999 V2000
   -2.6401   -3.1891    0.0000 C   0  0  0  0  0  0  0  0  0  0  0  0
   -1.2135   -2.7256    0.0000 C   0  0  0  0  0  0  0  0  0  0  0  0
   -0.0000   -3.6073    0.0000 C   0  0  0  0  0  0  0  0  0  0  0  0
    1.2135   -2.7256    0.0000 C   0  0  0  0  0  0  0  0  0  0  0  0
    2.6401   -3.1891    0.0000 C   0  0  0  0  0  0  0  0  0  0  0  0
    3.7548   -2.1855    0.0000 O   0  0  0  0  0  0  0  0  0  0  0  0
    2.9520   -4.6564    0.0000 N   0  0  0  0  0  0  0  0  0  0  0  0
    4.3786   -5.1199    0.0000 C   0  0  0  0  0  0  0  0  0  0  0  0
    4.6904   -6.5871    0.0000 C   0  0  0  0  0  0  0  0  0  0  0  0
    6.1170   -7.0506    0.0000 N   0  0  0  0  0  0  0  0  0  0  0  0
    7.2317   -6.0469    0.0000 N   0  0  0  0  0  0  0  0  0  0  0  0
    6.9199   -4.5797    0.0000 N   0  0  0  0  0  0  0  0  0  0  0  0
    5.4933   -4.1162    0.0000 N   0  0  0  0  0  0  0  0  0  0  0  0
    0.7500   -1.2990    0.0000 C   0  0  0  0  0  0  0  0  0  0  0  0
    1.5000    0.0000    0.0000 C   0  0  0  0  0  0  0  0  0  0  0  0
    0.7500    1.2990    0.0000 C   0  0  0  0  0  0  0  0  0  0  0  0
   -0.7500    1.2990    0.0000 C   0  0  0  0  0  0  0  0  0  0  0  0
   -1.5000    0.0000    0.0000 C   0  0  0  0  0  0  0  0  0  0  0  0
   -0.7500   -1.2990    0.0000 C   0  0  0  0  0  0  0  0  0  0  0  0
  1  2  1  0
  2  3  1  0
  3  4  2  0
  4  5  1  0
  5  6  2  0
  5  7  1  0
  7  8  1  0
  8  9  2  0
  9 10  1  0
 10 11  2  0
 11 12  1  0
 12 13  2  0
  4 14  1  0
 14 15  2  0
 15 16  1  0
 16 17  2  0
 17 18  1  0
 18 19  2  0
 19  2  1  0
 13  8  1  0
 19 14  1  0
M  END
>  <Title>  (785) 
idABCGgen6

$$$$

     RDKit          2D

 32 35  0  0  0  0  0  0  0  0999 V2000
  -11.2397   -3.1391    0.0000 C   0  0  0  0  0  0  0  0  0  0  0  0
   -9.9925   -2.3057    0.0000 C   0  0  0  0  0  0  0  0  0  0  0  0
  -10.0906   -0.8090    0.0000 O   0  0  0  0  0  0  0  0  0  0  0  0
   -8.6472   -2.9692    0.0000 C   0  0  0  0  0  0  0  0  0  0  0  0
   -8.5491   -4.4660    0.0000 O   0  0  0  0  0  0  0  0  0  0  0  0
   -7.4000   -2.1358    0.0000 N   0  0  0  0  0  0  0  0  0  0  0  0
   -7.9740   -0.7500    0.0000 C   0  0  0  0  0  0  0  0  0  0  0  0
   -7.9740    0.7500    0.0000 C   0  0  0  0  0  0  0  0  0  0  0  0
   -7.4000    2.1358    0.0000 C   0  0  0  0  0  0  0  0  0  0  0  0
   -8.4607    3.1965    0.0000 C   0  0  0  0  0  0  0  0  0  0  0  0
   -9.9607    3.1965    0.0000 O   0  0  0  0  0  0  0  0  0  0  0  0
   -7.4000    4.2571    0.0000 O   0  0  0  0  0  0  0  0  0  0  0  0
   -6.3393    3.1965    0.0000 C   0  0  0  0  0  0  0  0  0  0  0  0
   -4.9535    3.7705    0.0000 C   0  0  0  0  0  0  0  0  0  0  0  0
   -3.4535    3.7705    0.0000 C   0  0  0  0  0  0  0  0  0  0  0  0
   -2.0677    3.1965    0.0000 C   0  0  0  0  0  0  0  0  0  0  0  0
   -1.0070    2.1358    0.0000 C   0  0  0  0  0  0  0  0  0  0  0  0
   -0.4330    0.7500    0.0000 C   0  0  0  0  0  0  0  0  0  0  0  0
    0.8660    0.0000    0.0000 C   0  0  0  0  0  0  0  0  0  0  0  0
   -0.4330   -0.7500    0.0000 C   0  0  0  0  0  0  0  0  0  0  0  0
    0.6947   -1.7390    0.0000 C   0  0  0  0  0  0  0  0  0  0  0  0
   -1.0070   -2.1358    0.0000 C   0  0  0  0  0  0  0  0  0  0  0  0
    0.2402   -2.9692    0.0000 O   0  0  0  0  0  0  0  0  0  0  0  0
   -2.0677   -3.1965    0.0000 O   0  0  0  0  0  0  0  0  0  0  0  0
   -3.4535   -3.7705    0.0000 C   0  0  0  0  0  0  0  0  0  0  0  0
   -2.7035   -5.0695    0.0000 C   0  0  0  0  0  0  0  0  0  0  0  0
   -3.4535   -6.3686    0.0000 C   0  0  0  0  0  0  0  0  0  0  0  0
   -4.9535   -6.3686    0.0000 C   0  0  0  0  0  0  0  0  0  0  0  0
   -5.7035   -7.6676    0.0000 O   0  0  0  0  0  0  0  0  0  0  0  0
   -5.7035   -5.0695    0.0000 C   0  0  0  0  0  0  0  0  0  0  0  0
   -4.9535   -3.7705    0.0000 C   0  0  0  0  0  0  0  0  0  0  0  0
   -6.3393   -3.1965    0.0000 C   0  0  0  0  0  0  0  0  0  0  0  0
  1  2  1  0
  2  3  2  0
  2  4  1  0
  4  5  2  0
  4  6  1  0
  6  7  1  0
  7  8  1  0
  8  9  1  0
  9 10  1  0
 10 11  2  0
 10 12  1  0
 12 13  1  0
 13 14  2  0
 14 15  1  0
 15 16  2  0
 16 17  1  0
 17 18  2  0
 18 19  1  0
 19 20  1  0
 20 21  1  0
 20 22  1  0
 22 23  2  0
 22 24  1  0
 24 25  1  0
 25 26  2  0
 26 27  1  0
 27 28  2  0
 28 29  1  0
 28 30  1  0
 30 31  2  0
 31 32  1  0
 32  6  1  0
 13  9  1  0
 20 18  1  0
 31 25  1  0
M  END
>  <Title>  (786) 
idABCHgen6

$$$$

     RDKit          2D

 19 21  0  0  0  0  0  0  0  0999 V2000
   -3.2595   -3.4715    0.0000 C   0  0  0  0  0  0  0  0  0  0  0  0
   -1.8107   -3.8597    0.0000 O   0  0  0  0  0  0  0  0  0  0  0  0
   -0.7500   -2.7990    0.0000 C   0  0  0  0  0  0  0  0  0  0  0  0
    0.7500   -2.7990    0.0000 C   0  0  0  0  0  0  0  0  0  0  0  0
    1.8107   -3.8597    0.0000 C   0  0  0  0  0  0  0  0  0  0  0  0
    3.2595   -3.4715    0.0000 O   0  0  0  0  0  0  0  0  0  0  0  0
    1.4224   -5.3086    0.0000 N   0  0  0  0  0  0  0  0  0  0  0  0
    2.4831   -6.3692    0.0000 C   0  0  0  0  0  0  0  0  0  0  0  0
    2.0949   -7.8181    0.0000 N   0  0  0  0  0  0  0  0  0  0  0  0
    3.1555   -8.8788    0.0000 N   0  0  0  0  0  0  0  0  0  0  0  0
    4.6044   -8.4906    0.0000 N   0  0  0  0  0  0  0  0  0  0  0  0
    4.9926   -7.0417    0.0000 N   0  0  0  0  0  0  0  0  0  0  0  0
    3.9320   -5.9810    0.0000 N   0  0  0  0  0  0  0  0  0  0  0  0
    0.7500   -1.2990    0.0000 C   0  0  0  0  0  0  0  0  0  0  0  0
    1.5000    0.0000    0.0000 C   0  0  0  0  0  0  0  0  0  0  0  0
    0.7500    1.2990    0.0000 C   0  0  0  0  0  0  0  0  0  0  0  0
   -0.7500    1.2990    0.0000 C   0  0  0  0  0  0  0  0  0  0  0  0
   -1.5000    0.0000    0.0000 C   0  0  0  0  0  0  0  0  0  0  0  0
   -0.7500   -1.2990    0.0000 C   0  0  0  0  0  0  0  0  0  0  0  0
  1  2  1  0
  2  3  1  0
  3  4  2  0
  4  5  1  0
  5  6  2  0
  5  7  1  0
  7  8  1  0
  8  9  2  0
  9 10  1  0
 10 11  2  0
 11 12  1  0
 12 13  2  0
  4 14  1  0
 14 15  2  0
 15 16  1  0
 16 17  2  0
 17 18  1  0
 18 19  2  0
 19  3  1  0
 13  8  1  0
 19 14  1  0
M  END
>  <Title>  (787) 
idABCIgen6

$$$$

     RDKit          2D

 35 39  0  0  0  0  0  0  0  0999 V2000
   -3.0000   -2.5981    0.0000 C   0  0  0  0  0  0  0  0  0  0  0  0
   -1.5000   -2.5981    0.0000 C   0  0  0  0  0  0  0  0  0  0  0  0
   -0.7500   -3.8971    0.0000 C   0  0  0  0  0  0  0  0  0  0  0  0
    0.7500   -3.8971    0.0000 C   0  0  0  0  0  0  0  0  0  0  0  0
    1.5000   -2.5981    0.0000 C   0  0  0  0  0  0  0  0  0  0  0  0
    3.0000   -2.5981    0.0000 C   0  0  0  0  0  0  0  0  0  0  0  0
    3.7500   -1.2990    0.0000 O   0  0  0  0  0  0  0  0  0  0  0  0
    3.7500   -3.8971    0.0000 N   0  0  0  0  0  0  0  0  0  0  0  0
    5.2500   -3.8971    0.0000 C   0  0  0  0  0  0  0  0  0  0  0  0
    6.0000   -5.1962    0.0000 N   0  0  0  0  0  0  0  0  0  0  0  0
    7.5000   -5.1962    0.0000 N   0  0  0  0  0  0  0  0  0  0  0  0
    8.2500   -3.8971    0.0000 N   0  0  0  0  0  0  0  0  0  0  0  0
    7.5000   -2.5981    0.0000 N   0  0  0  0  0  0  0  0  0  0  0  0
    8.2500   -1.2990    0.0000 N   0  0  0  0  0  0  0  0  0  0  0  0
    9.7500   -1.2990    0.0000 C   0  0  0  0  0  0  0  0  0  0  0  0
   10.5000    0.0000    0.0000 C   0  0  0  0  0  0  0  0  0  0  0  0
    9.7500    1.2990    0.0000 N   0  0  0  0  0  0  0  0  0  0  0  0
   10.5000    2.5981    0.0000 C   0  0  0  0  0  0  0  0  0  0  0  0
    9.7500    3.8971    0.0000 O   0  0  0  0  0  0  0  0  0  0  0  0
   12.0000    2.5981    0.0000 C   0  0  0  0  0  0  0  0  0  0  0  0
   12.7500    1.2990    0.0000 C   0  0  0  0  0  0  0  0  0  0  0  0
   14.2500    1.2990    0.0000 C   0  0  0  0  0  0  0  0  0  0  0  0
   15.0000    2.5981    0.0000 C   0  0  0  0  0  0  0  0  0  0  0  0
   14.2500    3.8971    0.0000 C   0  0  0  0  0  0  0  0  0  0  0  0
   12.7500    3.8971    0.0000 C   0  0  0  0  0  0  0  0  0  0  0  0
    8.2500    1.2990    0.0000 C   0  0  0  0  0  0  0  0  0  0  0  0
    7.5000    0.0000    0.0000 C   0  0  0  0  0  0  0  0  0  0  0  0
    6.0000   -2.5981    0.0000 C   0  0  0  0  0  0  0  0  0  0  0  0
    0.7500   -1.2990    0.0000 C   0  0  0  0  0  0  0  0  0  0  0  0
    1.5000    0.0000    0.0000 C   0  0  0  0  0  0  0  0  0  0  0  0
    0.7500    1.2990    0.0000 C   0  0  0  0  0  0  0  0  0  0  0  0
   -0.7500    1.2990    0.0000 C   0  0  0  0  0  0  0  0  0  0  0  0
   -1.5000    2.5981    0.0000 O   0  0  0  0  0  0  0  0  0  0  0  0
   -1.5000    0.0000    0.0000 C   0  0  0  0  0  0  0  0  0  0  0  0
   -0.7500   -1.2990    0.0000 C   0  0  0  0  0  0  0  0  0  0  0  0
  1  2  1  0
  2  3  1  0
  3  4  1  0
  4  5  1  0
  5  6  1  0
  6  7  2  0
  6  8  1  0
  8  9  1  0
  9 10  2  0
 10 11  1  0
 11 12  2  0
 12 13  1  0
 13 14  1  0
 14 15  1  0
 15 16  1  0
 16 17  1  0
 17 18  1  0
 18 19  2  0
 18 20  1  0
 20 21  2  0
 21 22  1  0
 22 23  2  0
 23 24  1  0
 24 25  2  0
 17 26  1  0
 26 27  1  0
 13 28  1  0
  5 29  1  0
 29 30  2  0
 30 31  1  0
 31 32  2  0
 32 33  1  0
 32 34  1  0
 34 35  2  0
 35  2  1  0
 28  9  1  0
 35 29  1  0
 27 14  1  0
 25 20  1  0
M  END
>  <Title>  (788) 
idABCJgen6

$$$$

     RDKit          2D

 24 26  0  0  0  0  0  0  0  0999 V2000
    7.5000   -0.0000    0.0000 C   0  0  0  0  0  0  0  0  0  0  0  0
    6.0000    0.0000    0.0000 C   0  0  0  0  0  0  0  0  0  0  0  0
    5.2500    1.2990    0.0000 O   0  0  0  0  0  0  0  0  0  0  0  0
    5.2500   -1.2990    0.0000 C   0  0  0  0  0  0  0  0  0  0  0  0
    6.0000   -2.5981    0.0000 C   0  0  0  0  0  0  0  0  0  0  0  0
    3.7500   -1.2990    0.0000 C   0  0  0  0  0  0  0  0  0  0  0  0
    3.0000   -2.5981    0.0000 O   0  0  0  0  0  0  0  0  0  0  0  0
    3.0000    0.0000    0.0000 N   0  0  0  0  0  0  0  0  0  0  0  0
    1.5000    0.0000    0.0000 C   0  0  0  0  0  0  0  0  0  0  0  0
    0.7500   -1.2990    0.0000 C   0  0  0  0  0  0  0  0  0  0  0  0
   -0.7500   -1.2990    0.0000 C   0  0  0  0  0  0  0  0  0  0  0  0
   -1.5000    0.0000    0.0000 C   0  0  0  0  0  0  0  0  0  0  0  0
   -0.7500    1.2990    0.0000 C   0  0  0  0  0  0  0  0  0  0  0  0
    0.7500    1.2990    0.0000 C   0  0  0  0  0  0  0  0  0  0  0  0
    1.5000    2.5981    0.0000 C   0  0  0  0  0  0  0  0  0  0  0  0
    3.0000    2.5981    0.0000 C   0  0  0  0  0  0  0  0  0  0  0  0
    3.7500    3.8971    0.0000 C   0  0  0  0  0  0  0  0  0  0  0  0
    3.0000    5.1962    0.0000 C   0  0  0  0  0  0  0  0  0  0  0  0
    3.7500    6.4952    0.0000 C   0  0  0  0  0  0  0  0  0  0  0  0
    3.7500    7.9952    0.0000 C   0  0  0  0  0  0  0  0  0  0  0  0
    5.0490    7.2452    0.0000 C   0  0  0  0  0  0  0  0  0  0  0  0
    1.5000    5.1962    0.0000 C   0  0  0  0  0  0  0  0  0  0  0  0
    0.7500    6.4952    0.0000 O   0  0  0  0  0  0  0  0  0  0  0  0
    0.7500    3.8971    0.0000 O   0  0  0  0  0  0  0  0  0  0  0  0
  1  2  1  0
  2  3  2  0
  2  4  1  0
  4  5  1  0
  4  6  1  0
  6  7  2  0
  6  8  1  0
  8  9  1  0
  9 10  2  0
 10 11  1  0
 11 12  2  0
 12 13  1  0
 13 14  2  0
 14 15  1  0
 15 16  2  0
 16 17  1  0
 17 18  2  0
 18 19  1  0
 19 20  1  0
 20 21  1  0
 18 22  1  0
 22 23  2  0
 22 24  1  0
 14  9  1  0
 24 15  1  0
 21 19  1  0
M  END
>  <Title>  (789) 
idABCKgen6

$$$$

     RDKit          2D

 29 32  0  0  0  0  0  0  0  0999 V2000
   -5.2500   -3.8971    0.0000 C   0  0  0  0  0  0  0  0  0  0  0  0
   -3.7500   -3.8971    0.0000 C   0  0  0  0  0  0  0  0  0  0  0  0
   -3.0000   -5.1962    0.0000 O   0  0  0  0  0  0  0  0  0  0  0  0
   -3.0000   -2.5981    0.0000 C   0  0  0  0  0  0  0  0  0  0  0  0
   -3.7500   -1.2990    0.0000 O   0  0  0  0  0  0  0  0  0  0  0  0
   -1.5000   -2.5981    0.0000 C   0  0  0  0  0  0  0  0  0  0  0  0
   -0.7500   -3.8971    0.0000 C   0  0  0  0  0  0  0  0  0  0  0  0
    0.7500   -3.8971    0.0000 C   0  0  0  0  0  0  0  0  0  0  0  0
    1.5000   -2.5981    0.0000 C   0  0  0  0  0  0  0  0  0  0  0  0
    3.0000   -2.5981    0.0000 N   0  0  0  0  0  0  0  0  0  0  0  0
    3.7500   -3.8971    0.0000 C   0  0  0  0  0  0  0  0  0  0  0  0
    5.2500   -3.8971    0.0000 C   0  0  0  0  0  0  0  0  0  0  0  0
    6.0000   -2.5981    0.0000 C   0  0  0  0  0  0  0  0  0  0  0  0
    7.5000   -2.5981    0.0000 C   0  0  0  0  0  0  0  0  0  0  0  0
    8.2500   -3.8971    0.0000 C   0  0  0  0  0  0  0  0  0  0  0  0
    9.7500   -3.8971    0.0000 C   0  0  0  0  0  0  0  0  0  0  0  0
   10.5000   -2.5981    0.0000 C   0  0  0  0  0  0  0  0  0  0  0  0
    9.7500   -1.2990    0.0000 C   0  0  0  0  0  0  0  0  0  0  0  0
    8.2500   -1.2990    0.0000 C   0  0  0  0  0  0  0  0  0  0  0  0
    5.2500   -1.2990    0.0000 C   0  0  0  0  0  0  0  0  0  0  0  0
    3.7500   -1.2990    0.0000 C   0  0  0  0  0  0  0  0  0  0  0  0
    0.7500   -1.2990    0.0000 C   0  0  0  0  0  0  0  0  0  0  0  0
    1.5000    0.0000    0.0000 C   0  0  0  0  0  0  0  0  0  0  0  0
    0.7500    1.2990    0.0000 C   0  0  0  0  0  0  0  0  0  0  0  0
   -0.7500    1.2990    0.0000 C   0  0  0  0  0  0  0  0  0  0  0  0
   -1.5000    2.5981    0.0000 C   0  0  0  0  0  0  0  0  0  0  0  0
   -2.2500    3.8971    0.0000 N   0  0  0  0  0  0  0  0  0  0  0  0
   -1.5000    0.0000    0.0000 C   0  0  0  0  0  0  0  0  0  0  0  0
   -0.7500   -1.2990    0.0000 C   0  0  0  0  0  0  0  0  0  0  0  0
  1  2  1  0
  2  3  2  0
  2  4  1  0
  4  5  2  0
  4  6  1  0
  6  7  1  0
  7  8  1  0
  8  9  1  0
  9 10  1  0
 10 11  1  0
 11 12  1  0
 12 13  1  0
 13 14  1  0
 14 15  2  0
 15 16  1  0
 16 17  2  0
 17 18  1  0
 18 19  2  0
 13 20  1  0
 20 21  1  0
  9 22  1  0
 22 23  2  0
 23 24  1  0
 24 25  2  0
 25 26  1  0
 26 27  3  0
 25 28  1  0
 28 29  2  0
 29  6  1  0
 21 10  1  0
 29 22  1  0
 19 14  1  0
M  END
>  <Title>  (790) 
idABCLgen6

$$$$

     RDKit          2D

 22 24  0  0  0  0  0  0  0  0999 V2000
    0.1307   -5.0124    0.0000 C   0  0  0  0  0  0  0  0  0  0  0  0
   -0.7296   -3.7837    0.0000 C   0  0  0  0  0  0  0  0  0  0  0  0
    0.1307   -2.5550    0.0000 C   0  0  0  0  0  0  0  0  0  0  0  0
   -0.0000   -1.0607    0.0000 C   0  0  0  0  0  0  0  0  0  0  0  0
    1.0607    0.0000    0.0000 C   0  0  0  0  0  0  0  0  0  0  0  0
    2.5607    0.0000    0.0000 O   0  0  0  0  0  0  0  0  0  0  0  0
    0.0000    1.0607    0.0000 N   0  0  0  0  0  0  0  0  0  0  0  0
   -1.0607    0.0000    0.0000 C   0  0  0  0  0  0  0  0  0  0  0  0
   -2.5550    0.1307    0.0000 C   0  0  0  0  0  0  0  0  0  0  0  0
   -3.7837   -0.7296    0.0000 C   0  0  0  0  0  0  0  0  0  0  0  0
   -4.1719   -2.1785    0.0000 C   0  0  0  0  0  0  0  0  0  0  0  0
   -3.5380   -3.5380    0.0000 C   0  0  0  0  0  0  0  0  0  0  0  0
   -4.5986   -4.5986    0.0000 C   0  0  0  0  0  0  0  0  0  0  0  0
   -4.2104   -6.0475    0.0000 O   0  0  0  0  0  0  0  0  0  0  0  0
   -6.0475   -4.2104    0.0000 N   0  0  0  0  0  0  0  0  0  0  0  0
   -7.1082   -5.2711    0.0000 C   0  0  0  0  0  0  0  0  0  0  0  0
   -8.5571   -4.8828    0.0000 N   0  0  0  0  0  0  0  0  0  0  0  0
   -9.6177   -5.9435    0.0000 N   0  0  0  0  0  0  0  0  0  0  0  0
   -9.2295   -7.3924    0.0000 N   0  0  0  0  0  0  0  0  0  0  0  0
   -7.7806   -7.7806    0.0000 N   0  0  0  0  0  0  0  0  0  0  0  0
   -6.7200   -6.7200    0.0000 N   0  0  0  0  0  0  0  0  0  0  0  0
   -2.1785   -4.1719    0.0000 C   0  0  0  0  0  0  0  0  0  0  0  0
  1  2  1  0
  2  3  1  0
  3  4  2  0
  4  5  1  0
  5  6  2  0
  5  7  1  0
  7  8  1  0
  8  9  2  0
  9 10  1  0
 10 11  2  0
 11 12  1  0
 12 13  1  0
 13 14  2  0
 13 15  1  0
 15 16  1  0
 16 17  2  0
 17 18  1  0
 18 19  2  0
 19 20  1  0
 20 21  2  0
 12 22  1  0
 22  2  1  0
  8  4  1  0
 21 16  1  0
M  END
>  <Title>  (791) 
idABCMgen6

$$$$

     RDKit          2D

 10 10  0  0  0  0  0  0  0  0999 V2000
    4.2098   -1.2990    0.0000 C   0  0  0  0  0  0  0  0  0  0  0  0
    3.4598   -0.0000    0.0000 O   0  0  0  0  0  0  0  0  0  0  0  0
    1.9598    0.0000    0.0000 C   0  0  0  0  0  0  0  0  0  0  0  0
    1.3858   -1.3858    0.0000 C   0  0  0  0  0  0  0  0  0  0  0  0
   -0.0000   -1.9598    0.0000 C   0  0  0  0  0  0  0  0  0  0  0  0
   -1.3858   -1.3858    0.0000 C   0  0  0  0  0  0  0  0  0  0  0  0
   -1.9598    0.0000    0.0000 C   0  0  0  0  0  0  0  0  0  0  0  0
   -1.3858    1.3858    0.0000 C   0  0  0  0  0  0  0  0  0  0  0  0
    0.0000    1.9598    0.0000 C   0  0  0  0  0  0  0  0  0  0  0  0
    1.3858    1.3858    0.0000 C   0  0  0  0  0  0  0  0  0  0  0  0
  1  2  1  0
  2  3  1  0
  3  4  2  0
  4  5  1  0
  5  6  1  0
  6  7  1  0
  7  8  1  0
  8  9  1  0
  9 10  1  0
 10  3  1  0
M  END
>  <Title>  (792) 
idABCNgen6

$$$$

     RDKit          2D

  7  7  0  0  0  0  0  0  0  0999 V2000
    3.0000    0.0000    0.0000 O   0  0  0  0  0  0  0  0  0  0  0  0
    1.5000    0.0000    0.0000 C   0  0  0  0  0  0  0  0  0  0  0  0
    0.7500   -1.2990    0.0000 C   0  0  0  0  0  0  0  0  0  0  0  0
   -0.7500   -1.2990    0.0000 C   0  0  0  0  0  0  0  0  0  0  0  0
   -1.5000    0.0000    0.0000 C   0  0  0  0  0  0  0  0  0  0  0  0
   -0.7500    1.2990    0.0000 C   0  0  0  0  0  0  0  0  0  0  0  0
    0.7500    1.2990    0.0000 C   0  0  0  0  0  0  0  0  0  0  0  0
  1  2  1  0
  2  3  2  0
  3  4  1  0
  4  5  1  0
  5  6  1  0
  6  7  1  0
  7  2  1  0
M  END
>  <Title>  (793) 
idABCOgen6

$$$$

     RDKit          2D

 27 29  0  0  0  0  0  0  0  0999 V2000
   -4.5586   -1.3766    0.0000 C   0  0  0  0  0  0  0  0  0  0  0  0
   -3.1097   -0.9884    0.0000 O   0  0  0  0  0  0  0  0  0  0  0  0
   -2.0490   -2.0490    0.0000 C   0  0  0  0  0  0  0  0  0  0  0  0
   -2.7990   -3.3481    0.0000 C   0  0  0  0  0  0  0  0  0  0  0  0
   -2.7990   -4.8481    0.0000 C   0  0  0  0  0  0  0  0  0  0  0  0
   -2.0490   -6.1471    0.0000 C   0  0  0  0  0  0  0  0  0  0  0  0
   -0.7500   -6.8971    0.0000 C   0  0  0  0  0  0  0  0  0  0  0  0
    0.7500   -6.8971    0.0000 C   0  0  0  0  0  0  0  0  0  0  0  0
    2.0490   -6.1471    0.0000 C   0  0  0  0  0  0  0  0  0  0  0  0
    2.7990   -4.8481    0.0000 C   0  0  0  0  0  0  0  0  0  0  0  0
    2.7990   -3.3481    0.0000 C   0  0  0  0  0  0  0  0  0  0  0  0
    2.0490   -2.0490    0.0000 C   0  0  0  0  0  0  0  0  0  0  0  0
    3.1097   -0.9884    0.0000 C   0  0  0  0  0  0  0  0  0  0  0  0
    2.7215    0.4605    0.0000 O   0  0  0  0  0  0  0  0  0  0  0  0
    4.5586   -1.3766    0.0000 N   0  0  0  0  0  0  0  0  0  0  0  0
    5.6192   -0.3159    0.0000 C   0  0  0  0  0  0  0  0  0  0  0  0
    7.0681   -0.7042    0.0000 N   0  0  0  0  0  0  0  0  0  0  0  0
    8.1288    0.3565    0.0000 N   0  0  0  0  0  0  0  0  0  0  0  0
    7.7406    1.8054    0.0000 N   0  0  0  0  0  0  0  0  0  0  0  0
    6.2917    2.1936    0.0000 N   0  0  0  0  0  0  0  0  0  0  0  0
    5.2310    1.1329    0.0000 N   0  0  0  0  0  0  0  0  0  0  0  0
    0.7500   -1.2990    0.0000 C   0  0  0  0  0  0  0  0  0  0  0  0
    1.5000    0.0000    0.0000 C   0  0  0  0  0  0  0  0  0  0  0  0
    0.7500    1.2990    0.0000 C   0  0  0  0  0  0  0  0  0  0  0  0
   -0.7500    1.2990    0.0000 C   0  0  0  0  0  0  0  0  0  0  0  0
   -1.5000    0.0000    0.0000 C   0  0  0  0  0  0  0  0  0  0  0  0
   -0.7500   -1.2990    0.0000 C   0  0  0  0  0  0  0  0  0  0  0  0
  1  2  1  0
  2  3  1  0
  3  4  1  0
  4  5  2  0
  5  6  1  0
  6  7  2  0
  7  8  1  0
  8  9  2  0
  9 10  1  0
 10 11  2  0
 11 12  1  0
 12 13  1  0
 13 14  2  0
 13 15  1  0
 15 16  1  0
 16 17  2  0
 17 18  1  0
 18 19  2  0
 19 20  1  0
 20 21  2  0
 12 22  1  0
 22 23  2  0
 23 24  1  0
 24 25  2  0
 25 26  1  0
 26 27  2  0
 27  3  1  0
 21 16  1  0
 27 22  1  0
M  END
>  <Title>  (794) 
idABCPgen6

$$$$

     RDKit          2D

 24 26  0  0  0  0  0  0  0  0999 V2000
   -4.4971   -2.2632    0.0000 C   0  0  0  0  0  0  0  0  0  0  0  0
   -3.1981   -1.5132    0.0000 O   0  0  0  0  0  0  0  0  0  0  0  0
   -1.8991   -2.2632    0.0000 C   0  0  0  0  0  0  0  0  0  0  0  0
   -2.1595   -3.7404    0.0000 C   0  0  0  0  0  0  0  0  0  0  0  0
   -1.4095   -5.0395    0.0000 C   0  0  0  0  0  0  0  0  0  0  0  0
   -0.0000   -5.5525    0.0000 C   0  0  0  0  0  0  0  0  0  0  0  0
    1.4095   -5.0395    0.0000 C   0  0  0  0  0  0  0  0  0  0  0  0
    2.1595   -3.7404    0.0000 C   0  0  0  0  0  0  0  0  0  0  0  0
    1.8991   -2.2632    0.0000 C   0  0  0  0  0  0  0  0  0  0  0  0
    3.1981   -1.5132    0.0000 C   0  0  0  0  0  0  0  0  0  0  0  0
    3.1981   -0.0132    0.0000 O   0  0  0  0  0  0  0  0  0  0  0  0
    4.4971   -2.2632    0.0000 N   0  0  0  0  0  0  0  0  0  0  0  0
    5.7962   -1.5132    0.0000 C   0  0  0  0  0  0  0  0  0  0  0  0
    7.0952   -2.2632    0.0000 N   0  0  0  0  0  0  0  0  0  0  0  0
    8.3943   -1.5132    0.0000 N   0  0  0  0  0  0  0  0  0  0  0  0
    8.3943   -0.0132    0.0000 N   0  0  0  0  0  0  0  0  0  0  0  0
    7.0952    0.7368    0.0000 N   0  0  0  0  0  0  0  0  0  0  0  0
    5.7962   -0.0132    0.0000 N   0  0  0  0  0  0  0  0  0  0  0  0
    0.7500   -1.2990    0.0000 C   0  0  0  0  0  0  0  0  0  0  0  0
    1.5000    0.0000    0.0000 C   0  0  0  0  0  0  0  0  0  0  0  0
    0.7500    1.2990    0.0000 C   0  0  0  0  0  0  0  0  0  0  0  0
   -0.7500    1.2990    0.0000 C   0  0  0  0  0  0  0  0  0  0  0  0
   -1.5000    0.0000    0.0000 C   0  0  0  0  0  0  0  0  0  0  0  0
   -0.7500   -1.2990    0.0000 C   0  0  0  0  0  0  0  0  0  0  0  0
  1  2  1  0
  2  3  1  0
  3  4  1  0
  4  5  2  0
  5  6  1  0
  6  7  2  0
  7  8  1  0
  8  9  2  0
  9 10  1  0
 10 11  2  0
 10 12  1  0
 12 13  1  0
 13 14  2  0
 14 15  1  0
 15 16  2  0
 16 17  1  0
 17 18  2  0
  9 19  1  0
 19 20  2  0
 20 21  1  0
 21 22  2  0
 22 23  1  0
 23 24  2  0
 24  3  1  0
 18 13  1  0
 24 19  1  0
M  END
>  <Title>  (795) 
idABCQgen6

$$$$

     RDKit          2D

 22 23  0  0  0  0  0  0  0  0999 V2000
    6.4598   -2.5981    0.0000 C   0  0  0  0  0  0  0  0  0  0  0  0
    5.7098   -1.2990    0.0000 C   0  0  0  0  0  0  0  0  0  0  0  0
    6.4598    0.0000    0.0000 O   0  0  0  0  0  0  0  0  0  0  0  0
    4.2098   -1.2990    0.0000 C   0  0  0  0  0  0  0  0  0  0  0  0
    3.4598   -0.0000    0.0000 C   0  0  0  0  0  0  0  0  0  0  0  0
    1.9598    0.0000    0.0000 C   0  0  0  0  0  0  0  0  0  0  0  0
    1.3858   -1.3858    0.0000 C   0  0  0  0  0  0  0  0  0  0  0  0
   -0.0000   -1.9598    0.0000 C   0  0  0  0  0  0  0  0  0  0  0  0
   -1.3858   -1.3858    0.0000 C   0  0  0  0  0  0  0  0  0  0  0  0
   -2.4465   -2.4465    0.0000 C   0  0  0  0  0  0  0  0  0  0  0  0
   -3.8954   -2.0583    0.0000 C   0  0  0  0  0  0  0  0  0  0  0  0
   -4.9560   -3.1189    0.0000 C   0  0  0  0  0  0  0  0  0  0  0  0
   -4.5678   -4.5678    0.0000 C   0  0  0  0  0  0  0  0  0  0  0  0
   -3.1189   -4.9560    0.0000 C   0  0  0  0  0  0  0  0  0  0  0  0
   -2.0583   -3.8954    0.0000 C   0  0  0  0  0  0  0  0  0  0  0  0
   -1.9598    0.0000    0.0000 C   0  0  0  0  0  0  0  0  0  0  0  0
   -1.3858    1.3858    0.0000 C   0  0  0  0  0  0  0  0  0  0  0  0
    0.0000    1.9598    0.0000 C   0  0  0  0  0  0  0  0  0  0  0  0
    1.3858    1.3858    0.0000 C   0  0  0  0  0  0  0  0  0  0  0  0
    3.4598   -2.5981    0.0000 C   0  0  0  0  0  0  0  0  0  0  0  0
    1.9598   -2.5981    0.0000 O   0  0  0  0  0  0  0  0  0  0  0  0
    4.2098   -3.8971    0.0000 O   0  0  0  0  0  0  0  0  0  0  0  0
  1  2  1  0
  2  3  2  0
  2  4  1  0
  4  5  1  0
  5  6  1  0
  6  7  2  0
  7  8  1  0
  8  9  2  0
  9 10  1  0
 10 11  2  0
 11 12  1  0
 12 13  2  0
 13 14  1  0
 14 15  2  0
  9 16  1  0
 16 17  2  0
 17 18  1  0
 18 19  2  0
  4 20  1  0
 20 21  2  0
 20 22  1  0
 19  6  1  0
 15 10  1  0
M  END
>  <Title>  (796) 
idABCRgen6

$$$$

     RDKit          2D

 20 22  0  0  0  0  0  0  0  0999 V2000
   -3.0000   -2.5981    0.0000 C   0  0  0  0  0  0  0  0  0  0  0  0
   -1.5000   -2.5981    0.0000 C   0  0  0  0  0  0  0  0  0  0  0  0
   -0.7500   -3.8971    0.0000 C   0  0  0  0  0  0  0  0  0  0  0  0
    0.7500   -3.8971    0.0000 C   0  0  0  0  0  0  0  0  0  0  0  0
    1.5000   -2.5981    0.0000 C   0  0  0  0  0  0  0  0  0  0  0  0
    3.0000   -2.5981    0.0000 C   0  0  0  0  0  0  0  0  0  0  0  0
    3.7500   -3.8971    0.0000 C   0  0  0  0  0  0  0  0  0  0  0  0
    3.7500   -1.2990    0.0000 N   0  0  0  0  0  0  0  0  0  0  0  0
    5.2500   -1.2990    0.0000 C   0  0  0  0  0  0  0  0  0  0  0  0
    6.0000   -2.5981    0.0000 N   0  0  0  0  0  0  0  0  0  0  0  0
    7.5000   -2.5981    0.0000 N   0  0  0  0  0  0  0  0  0  0  0  0
    8.2500   -1.2990    0.0000 N   0  0  0  0  0  0  0  0  0  0  0  0
    7.5000   -0.0000    0.0000 N   0  0  0  0  0  0  0  0  0  0  0  0
    6.0000   -0.0000    0.0000 N   0  0  0  0  0  0  0  0  0  0  0  0
    0.7500   -1.2990    0.0000 C   0  0  0  0  0  0  0  0  0  0  0  0
    1.5000    0.0000    0.0000 C   0  0  0  0  0  0  0  0  0  0  0  0
    0.7500    1.2990    0.0000 C   0  0  0  0  0  0  0  0  0  0  0  0
   -0.7500    1.2990    0.0000 C   0  0  0  0  0  0  0  0  0  0  0  0
   -1.5000    0.0000    0.0000 C   0  0  0  0  0  0  0  0  0  0  0  0
   -0.7500   -1.2990    0.0000 C   0  0  0  0  0  0  0  0  0  0  0  0
  1  2  1  0
  2  3  1  0
  3  4  1  0
  4  5  1  0
  5  6  1  0
  6  7  1  0
  6  8  1  0
  8  9  1  0
  9 10  2  0
 10 11  1  0
 11 12  2  0
 12 13  1  0
 13 14  2  0
  5 15  1  0
 15 16  2  0
 16 17  1  0
 17 18  2  0
 18 19  1  0
 19 20  2  0
 20  2  1  0
 14  9  1  0
 20 15  1  0
M  END
>  <Title>  (797) 
idABCSgen6

$$$$

     RDKit          2D

 26 29  0  0  0  0  0  0  0  0999 V2000
   -3.7500   -3.8971    0.0000 C   0  0  0  0  0  0  0  0  0  0  0  0
   -3.0000   -2.5981    0.0000 O   0  0  0  0  0  0  0  0  0  0  0  0
   -1.5000   -2.5981    0.0000 C   0  0  0  0  0  0  0  0  0  0  0  0
   -0.7500   -3.8971    0.0000 C   0  0  0  0  0  0  0  0  0  0  0  0
    0.7500   -3.8971    0.0000 C   0  0  0  0  0  0  0  0  0  0  0  0
    1.5000   -2.5981    0.0000 C   0  0  0  0  0  0  0  0  0  0  0  0
    3.0000   -2.5981    0.0000 N   0  0  0  0  0  0  0  0  0  0  0  0
    3.8817   -1.3846    0.0000 C   0  0  0  0  0  0  0  0  0  0  0  0
    5.3083   -1.8481    0.0000 C   0  0  0  0  0  0  0  0  0  0  0  0
    5.3083   -3.3481    0.0000 C   0  0  0  0  0  0  0  0  0  0  0  0
    6.5218   -4.2298    0.0000 C   0  0  0  0  0  0  0  0  0  0  0  0
    7.8921   -3.6196    0.0000 O   0  0  0  0  0  0  0  0  0  0  0  0
    6.3650   -5.7215    0.0000 N   0  0  0  0  0  0  0  0  0  0  0  0
    7.5785   -6.6032    0.0000 C   0  0  0  0  0  0  0  0  0  0  0  0
    7.4217   -8.0950    0.0000 N   0  0  0  0  0  0  0  0  0  0  0  0
    8.6353   -8.9767    0.0000 N   0  0  0  0  0  0  0  0  0  0  0  0
   10.0056   -8.3666    0.0000 N   0  0  0  0  0  0  0  0  0  0  0  0
   10.1624   -6.8748    0.0000 N   0  0  0  0  0  0  0  0  0  0  0  0
    8.9488   -5.9931    0.0000 N   0  0  0  0  0  0  0  0  0  0  0  0
    3.8817   -3.8116    0.0000 C   0  0  0  0  0  0  0  0  0  0  0  0
    0.7500   -1.2990    0.0000 C   0  0  0  0  0  0  0  0  0  0  0  0
    1.5000    0.0000    0.0000 C   0  0  0  0  0  0  0  0  0  0  0  0
    0.7500    1.2990    0.0000 C   0  0  0  0  0  0  0  0  0  0  0  0
   -0.7500    1.2990    0.0000 C   0  0  0  0  0  0  0  0  0  0  0  0
   -1.5000    0.0000    0.0000 C   0  0  0  0  0  0  0  0  0  0  0  0
   -0.7500   -1.2990    0.0000 C   0  0  0  0  0  0  0  0  0  0  0  0
  1  2  1  0
  2  3  1  0
  3  4  2  0
  4  5  1  0
  5  6  2  0
  6  7  1  0
  7  8  1  0
  8  9  1  0
  9 10  1  0
 10 11  1  0
 11 12  2  0
 11 13  1  0
 13 14  1  0
 14 15  2  0
 15 16  1  0
 16 17  2  0
 17 18  1  0
 18 19  2  0
 10 20  1  0
  6 21  1  0
 21 22  2  0
 22 23  1  0
 23 24  2  0
 24 25  1  0
 25 26  2  0
 26  3  1  0
 20  7  1  0
 26 21  1  0
 19 14  1  0
M  END
>  <Title>  (798) 
idABCTgen6

$$$$

     RDKit          2D

 39 42  0  0  0  0  0  0  0  0999 V2000
   -8.7875    2.7817    0.0000 C   0  0  0  0  0  0  0  0  0  0  0  0
   -7.5133    3.5732    0.0000 C   0  0  0  0  0  0  0  0  0  0  0  0
   -8.1454    4.9335    0.0000 C   0  0  0  0  0  0  0  0  0  0  0  0
   -8.4336    6.4056    0.0000 C   0  0  0  0  0  0  0  0  0  0  0  0
   -8.3611    7.9038    0.0000 C   0  0  0  0  0  0  0  0  0  0  0  0
   -7.9322    9.3412    0.0000 C   0  0  0  0  0  0  0  0  0  0  0  0
   -7.1717   10.6341    0.0000 C   0  0  0  0  0  0  0  0  0  0  0  0
   -6.1240   11.7075    0.0000 C   0  0  0  0  0  0  0  0  0  0  0  0
   -4.8498   12.4990    0.0000 C   0  0  0  0  0  0  0  0  0  0  0  0
   -3.4232   12.9625    0.0000 C   0  0  0  0  0  0  0  0  0  0  0  0
   -1.9271   13.0712    0.0000 C   0  0  0  0  0  0  0  0  0  0  0  0
   -0.4485   12.8186    0.0000 C   0  0  0  0  0  0  0  0  0  0  0  0
    0.9267   12.2196    0.0000 C   0  0  0  0  0  0  0  0  0  0  0  0
    2.1185   11.3088    0.0000 C   0  0  0  0  0  0  0  0  0  0  0  0
    3.0578   10.1393    0.0000 C   0  0  0  0  0  0  0  0  0  0  0  0
    3.6899    8.7790    0.0000 C   0  0  0  0  0  0  0  0  0  0  0  0
    3.9781    7.3070    0.0000 C   0  0  0  0  0  0  0  0  0  0  0  0
    3.9056    5.8087    0.0000 C   0  0  0  0  0  0  0  0  0  0  0  0
    3.4767    4.3713    0.0000 C   0  0  0  0  0  0  0  0  0  0  0  0
    2.7163    3.0784    0.0000 C   0  0  0  0  0  0  0  0  0  0  0  0
    3.9081    2.1676    0.0000 O   0  0  0  0  0  0  0  0  0  0  0  0
    1.6685    2.0050    0.0000 N   0  0  0  0  0  0  0  0  0  0  0  0
    0.3943    1.2135    0.0000 C   0  0  0  0  0  0  0  0  0  0  0  0
    1.2760    0.0000    0.0000 N   0  0  0  0  0  0  0  0  0  0  0  0
    0.3943   -1.2135    0.0000 N   0  0  0  0  0  0  0  0  0  0  0  0
   -1.0323   -0.7500    0.0000 N   0  0  0  0  0  0  0  0  0  0  0  0
   -1.0323    0.7500    0.0000 N   0  0  0  0  0  0  0  0  0  0  0  0
   -2.5283    0.6413    0.0000 C   0  0  0  0  0  0  0  0  0  0  0  0
   -2.3116   -0.8429    0.0000 C   0  0  0  0  0  0  0  0  0  0  0  0
   -3.6563   -1.5077    0.0000 C   0  0  0  0  0  0  0  0  0  0  0  0
   -4.7040   -0.4343    0.0000 C   0  0  0  0  0  0  0  0  0  0  0  0
   -4.0069    0.8939    0.0000 C   0  0  0  0  0  0  0  0  0  0  0  0
   -5.3821    1.4929    0.0000 C   0  0  0  0  0  0  0  0  0  0  0  0
   -5.5749    0.0054    0.0000 C   0  0  0  0  0  0  0  0  0  0  0  0
   -6.9596   -0.5714    0.0000 C   0  0  0  0  0  0  0  0  0  0  0  0
   -8.1514    0.3393    0.0000 C   0  0  0  0  0  0  0  0  0  0  0  0
   -9.5361   -0.2375    0.0000 O   0  0  0  0  0  0  0  0  0  0  0  0
   -7.9587    1.8269    0.0000 C   0  0  0  0  0  0  0  0  0  0  0  0
   -6.5740    2.4037    0.0000 C   0  0  0  0  0  0  0  0  0  0  0  0
  1  2  1  0
  2  3  1  0
  3  4  1  0
  4  5  1  0
  5  6  1  0
  6  7  1  0
  7  8  1  0
  8  9  1  0
  9 10  1  0
 10 11  1  0
 11 12  1  0
 12 13  1  0
 13 14  1  0
 14 15  1  0
 15 16  1  0
 16 17  1  0
 17 18  1  0
 18 19  1  0
 19 20  1  0
 20 21  2  0
 20 22  1  0
 22 23  1  0
 23 24  2  0
 24 25  1  0
 25 26  2  0
 26 27  1  0
 27 28  1  0
 28 29  1  0
 29 30  2  0
 30 31  1  0
 31 32  2  0
 32 33  1  0
 33 34  2  0
 34 35  1  0
 35 36  2  0
 36 37  1  0
 36 38  1  0
 38 39  2  0
 39  2  1  0
 27 23  1  0
 32 28  1  0
 39 33  1  0
M  END
>  <Title>  (799) 
idABCUgen6

$$$$

     RDKit          2D

 41 46  0  0  0  0  0  0  0  0999 V2000
   -2.6401   -3.1891    0.0000 C   0  0  0  0  0  0  0  0  0  0  0  0
   -1.2135   -2.7256    0.0000 C   0  0  0  0  0  0  0  0  0  0  0  0
   -0.0000   -3.6073    0.0000 C   0  0  0  0  0  0  0  0  0  0  0  0
    1.2135   -2.7256    0.0000 C   0  0  0  0  0  0  0  0  0  0  0  0
    2.6401   -3.1891    0.0000 C   0  0  0  0  0  0  0  0  0  0  0  0
    3.7548   -2.1855    0.0000 O   0  0  0  0  0  0  0  0  0  0  0  0
    2.9520   -4.6564    0.0000 N   0  0  0  0  0  0  0  0  0  0  0  0
    4.3786   -5.1199    0.0000 C   0  0  0  0  0  0  0  0  0  0  0  0
    5.5921   -4.2382    0.0000 N   0  0  0  0  0  0  0  0  0  0  0  0
    6.8056   -5.1199    0.0000 N   0  0  0  0  0  0  0  0  0  0  0  0
    6.3421   -6.5465    0.0000 N   0  0  0  0  0  0  0  0  0  0  0  0
    4.8421   -6.5465    0.0000 N   0  0  0  0  0  0  0  0  0  0  0  0
    3.9604   -7.7600    0.0000 C   0  0  0  0  0  0  0  0  0  0  0  0
    2.4686   -7.6032    0.0000 C   0  0  0  0  0  0  0  0  0  0  0  0
    1.5869   -8.8167    0.0000 C   0  0  0  0  0  0  0  0  0  0  0  0
    2.1971  -10.1871    0.0000 C   0  0  0  0  0  0  0  0  0  0  0  0
    1.3154  -11.4006    0.0000 C   0  0  0  0  0  0  0  0  0  0  0  0
    0.4337  -12.6141    0.0000 N   0  0  0  0  0  0  0  0  0  0  0  0
    3.6888  -10.3438    0.0000 C   0  0  0  0  0  0  0  0  0  0  0  0
    4.5705   -9.1303    0.0000 C   0  0  0  0  0  0  0  0  0  0  0  0
    6.0623   -9.2871    0.0000 C   0  0  0  0  0  0  0  0  0  0  0  0
    7.0660   -8.1724    0.0000 C   0  0  0  0  0  0  0  0  0  0  0  0
    8.4363   -8.7825    0.0000 C   0  0  0  0  0  0  0  0  0  0  0  0
    8.2795  -10.2743    0.0000 C   0  0  0  0  0  0  0  0  0  0  0  0
    9.3942  -11.2780    0.0000 C   0  0  0  0  0  0  0  0  0  0  0  0
   10.8208  -10.8145    0.0000 O   0  0  0  0  0  0  0  0  0  0  0  0
    9.0824  -12.7452    0.0000 N   0  0  0  0  0  0  0  0  0  0  0  0
   10.1971  -13.7489    0.0000 C   0  0  0  0  0  0  0  0  0  0  0  0
    9.8852  -15.2161    0.0000 C   0  0  0  0  0  0  0  0  0  0  0  0
   10.9999  -16.2198    0.0000 C   0  0  0  0  0  0  0  0  0  0  0  0
   12.4265  -15.7563    0.0000 C   0  0  0  0  0  0  0  0  0  0  0  0
   12.7384  -14.2891    0.0000 C   0  0  0  0  0  0  0  0  0  0  0  0
   11.6237  -13.2854    0.0000 C   0  0  0  0  0  0  0  0  0  0  0  0
    6.8123  -10.5862    0.0000 C   0  0  0  0  0  0  0  0  0  0  0  0
    6.2022  -11.9565    0.0000 O   0  0  0  0  0  0  0  0  0  0  0  0
    0.7500   -1.2990    0.0000 C   0  0  0  0  0  0  0  0  0  0  0  0
    1.5000    0.0000    0.0000 C   0  0  0  0  0  0  0  0  0  0  0  0
    0.7500    1.2990    0.0000 C   0  0  0  0  0  0  0  0  0  0  0  0
   -0.7500    1.2990    0.0000 C   0  0  0  0  0  0  0  0  0  0  0  0
   -1.5000    0.0000    0.0000 C   0  0  0  0  0  0  0  0  0  0  0  0
   -0.7500   -1.2990    0.0000 C   0  0  0  0  0  0  0  0  0  0  0  0
  1  2  1  0
  2  3  1  0
  3  4  2  0
  4  5  1  0
  5  6  2  0
  5  7  1  0
  7  8  1  0
  8  9  2  0
  9 10  1  0
 10 11  2  0
 11 12  1  0
 12 13  1  0
 13 14  2  0
 14 15  1  0
 15 16  2  0
 16 17  1  0
 17 18  3  0
 16 19  1  0
 19 20  2  0
 20 21  1  0
 21 22  2  0
 22 23  1  0
 23 24  2  0
 24 25  1  0
 25 26  2  0
 25 27  1  0
 27 28  1  0
 28 29  2  0
 29 30  1  0
 30 31  2  0
 31 32  1  0
 32 33  2  0
 24 34  1  0
 34 35  2  0
  4 36  1  0
 36 37  2  0
 37 38  1  0
 38 39  2  0
 39 40  1  0
 40 41  2  0
 41  2  1  0
 12  8  1  0
 20 13  1  0
 34 21  1  0
 41 36  1  0
 33 28  1  0
M  END
>  <Title>  (800) 
idABCVgen6

$$$$

     RDKit          2D

 33 36  0  0  0  0  0  0  0  0999 V2000
   -6.4140    4.5616    0.0000 C   0  0  0  0  0  0  0  0  0  0  0  0
   -5.6640    3.2626    0.0000 C   0  0  0  0  0  0  0  0  0  0  0  0
   -6.4140    1.9635    0.0000 O   0  0  0  0  0  0  0  0  0  0  0  0
   -4.1640    3.2626    0.0000 C   0  0  0  0  0  0  0  0  0  0  0  0
   -3.4140    1.9635    0.0000 C   0  0  0  0  0  0  0  0  0  0  0  0
   -1.9140    1.9635    0.0000 C   0  0  0  0  0  0  0  0  0  0  0  0
   -1.0323    3.1771    0.0000 C   0  0  0  0  0  0  0  0  0  0  0  0
    0.3943    2.7135    0.0000 C   0  0  0  0  0  0  0  0  0  0  0  0
    0.3943    1.2135    0.0000 C   0  0  0  0  0  0  0  0  0  0  0  0
    1.2760    0.0000    0.0000 C   0  0  0  0  0  0  0  0  0  0  0  0
    0.3943   -1.2135    0.0000 C   0  0  0  0  0  0  0  0  0  0  0  0
   -1.0323   -0.7500    0.0000 C   0  0  0  0  0  0  0  0  0  0  0  0
   -1.0323    0.7500    0.0000 C   0  0  0  0  0  0  0  0  0  0  0  0
   -3.4140    4.5616    0.0000 N   0  0  0  0  0  0  0  0  0  0  0  0
   -4.1640    5.8606    0.0000 C   0  0  0  0  0  0  0  0  0  0  0  0
   -5.6640    5.8606    0.0000 O   0  0  0  0  0  0  0  0  0  0  0  0
   -3.4140    7.1597    0.0000 C   0  0  0  0  0  0  0  0  0  0  0  0
   -4.1640    8.4587    0.0000 C   0  0  0  0  0  0  0  0  0  0  0  0
   -3.4140    9.7578    0.0000 C   0  0  0  0  0  0  0  0  0  0  0  0
   -1.9140    9.7578    0.0000 C   0  0  0  0  0  0  0  0  0  0  0  0
   -1.1640   11.0568    0.0000 C   0  0  0  0  0  0  0  0  0  0  0  0
   -1.9140   12.3558    0.0000 C   0  0  0  0  0  0  0  0  0  0  0  0
   -3.4140   12.3558    0.0000 C   0  0  0  0  0  0  0  0  0  0  0  0
   -4.1640   11.0568    0.0000 C   0  0  0  0  0  0  0  0  0  0  0  0
   -1.9140    7.1597    0.0000 N   0  0  0  0  0  0  0  0  0  0  0  0
   -1.1640    5.8606    0.0000 C   0  0  0  0  0  0  0  0  0  0  0  0
   -1.9140    4.5616    0.0000 O   0  0  0  0  0  0  0  0  0  0  0  0
    0.3360    5.8606    0.0000 C   0  0  0  0  0  0  0  0  0  0  0  0
    1.2177    4.6471    0.0000 C   0  0  0  0  0  0  0  0  0  0  0  0
    2.6443    5.1106    0.0000 C   0  0  0  0  0  0  0  0  0  0  0  0
    2.6443    6.6106    0.0000 C   0  0  0  0  0  0  0  0  0  0  0  0
    3.8578    7.4923    0.0000 O   0  0  0  0  0  0  0  0  0  0  0  0
    1.2177    7.0742    0.0000 C   0  0  0  0  0  0  0  0  0  0  0  0
  1  2  1  0
  2  3  2  0
  2  4  1  0
  4  5  1  0
  5  6  1  0
  6  7  2  0
  7  8  1  0
  8  9  2  0
  9 10  1  0
 10 11  2  0
 11 12  1  0
 12 13  2  0
  4 14  1  0
 14 15  1  0
 15 16  2  0
 15 17  1  0
 17 18  1  0
 18 19  1  0
 19 20  2  0
 20 21  1  0
 21 22  2  0
 22 23  1  0
 23 24  2  0
 17 25  1  0
 25 26  1  0
 26 27  2  0
 26 28  1  0
 28 29  2  0
 29 30  1  0
 30 31  2  0
 31 32  1  0
 31 33  1  0
 13  6  1  0
 24 19  1  0
 33 28  1  0
 13  9  1  0
M  END
>  <Title>  (801) 
idABCWgen6

$$$$

     RDKit          2D

 33 36  0  0  0  0  0  0  0  0999 V2000
    3.0000    0.0000    0.0000 C   0  0  0  0  0  0  0  0  0  0  0  0
    1.5000    0.0000    0.0000 C   0  0  0  0  0  0  0  0  0  0  0  0
    0.7500   -1.2990    0.0000 C   0  0  0  0  0  0  0  0  0  0  0  0
   -0.7500   -1.2990    0.0000 C   0  0  0  0  0  0  0  0  0  0  0  0
   -1.5000    0.0000    0.0000 C   0  0  0  0  0  0  0  0  0  0  0  0
   -3.0000    0.0000    0.0000 C   0  0  0  0  0  0  0  0  0  0  0  0
   -3.7500    1.2990    0.0000 O   0  0  0  0  0  0  0  0  0  0  0  0
   -3.7500   -1.2990    0.0000 N   0  0  0  0  0  0  0  0  0  0  0  0
   -5.2500   -1.2990    0.0000 C   0  0  0  0  0  0  0  0  0  0  0  0
   -6.0000    0.0000    0.0000 N   0  0  0  0  0  0  0  0  0  0  0  0
   -7.5000    0.0000    0.0000 N   0  0  0  0  0  0  0  0  0  0  0  0
   -8.2500   -1.2990    0.0000 N   0  0  0  0  0  0  0  0  0  0  0  0
   -7.5000   -2.5981    0.0000 N   0  0  0  0  0  0  0  0  0  0  0  0
   -6.0000   -2.5981    0.0000 N   0  0  0  0  0  0  0  0  0  0  0  0
   -0.7500    1.2990    0.0000 C   0  0  0  0  0  0  0  0  0  0  0  0
   -1.5000    2.5981    0.0000 C   0  0  0  0  0  0  0  0  0  0  0  0
   -0.7500    3.8971    0.0000 C   0  0  0  0  0  0  0  0  0  0  0  0
    0.7500    3.8971    0.0000 O   0  0  0  0  0  0  0  0  0  0  0  0
   -1.5000    5.1962    0.0000 N   0  0  0  0  0  0  0  0  0  0  0  0
   -2.9918    5.3529    0.0000 C   0  0  0  0  0  0  0  0  0  0  0  0
   -3.3037    6.8202    0.0000 C   0  0  0  0  0  0  0  0  0  0  0  0
   -2.0046    7.5702    0.0000 C   0  0  0  0  0  0  0  0  0  0  0  0
   -1.8478    9.0619    0.0000 C   0  0  0  0  0  0  0  0  0  0  0  0
   -3.0613    9.9436    0.0000 O   0  0  0  0  0  0  0  0  0  0  0  0
   -0.4775    9.6721    0.0000 N   0  0  0  0  0  0  0  0  0  0  0  0
   -0.3207   11.1638    0.0000 C   0  0  0  0  0  0  0  0  0  0  0  0
    1.0496   11.7739    0.0000 N   0  0  0  0  0  0  0  0  0  0  0  0
    1.2064   13.2657    0.0000 N   0  0  0  0  0  0  0  0  0  0  0  0
   -0.0071   14.1474    0.0000 N   0  0  0  0  0  0  0  0  0  0  0  0
   -1.3774   13.5373    0.0000 N   0  0  0  0  0  0  0  0  0  0  0  0
   -1.5342   12.0455    0.0000 N   0  0  0  0  0  0  0  0  0  0  0  0
   -0.8899    6.5665    0.0000 C   0  0  0  0  0  0  0  0  0  0  0  0
    0.7500    1.2990    0.0000 C   0  0  0  0  0  0  0  0  0  0  0  0
  1  2  1  0
  2  3  1  0
  3  4  1  0
  4  5  1  0
  5  6  1  0
  6  7  2  0
  6  8  1  0
  8  9  1  0
  9 10  2  0
 10 11  1  0
 11 12  2  0
 12 13  1  0
 13 14  2  0
  5 15  1  0
 15 16  1  0
 16 17  1  0
 17 18  2  0
 17 19  1  0
 19 20  1  0
 20 21  1  0
 21 22  1  0
 22 23  1  0
 23 24  2  0
 23 25  1  0
 25 26  1  0
 26 27  2  0
 27 28  1  0
 28 29  2  0
 29 30  1  0
 30 31  2  0
 22 32  1  0
 15 33  1  0
 33  2  1  0
 14  9  1  0
 32 19  1  0
 31 26  1  0
M  END
>  <Title>  (802) 
idABCXgen6

$$$$

     RDKit          2D

 21 22  0  0  0  0  0  0  0  0999 V2000
    4.3978    0.0000    0.0000 C   0  0  0  0  0  0  0  0  0  0  0  0
    2.8978    0.0000    0.0000 C   0  0  0  0  0  0  0  0  0  0  0  0
    2.5095   -1.4489    0.0000 C   0  0  0  0  0  0  0  0  0  0  0  0
    1.4489   -2.5095    0.0000 C   0  0  0  0  0  0  0  0  0  0  0  0
   -0.0000   -2.8978    0.0000 C   0  0  0  0  0  0  0  0  0  0  0  0
   -1.4489   -2.5095    0.0000 C   0  0  0  0  0  0  0  0  0  0  0  0
   -2.5095   -1.4489    0.0000 C   0  0  0  0  0  0  0  0  0  0  0  0
   -2.8978    0.0000    0.0000 C   0  0  0  0  0  0  0  0  0  0  0  0
   -2.5095    1.4489    0.0000 C   0  0  0  0  0  0  0  0  0  0  0  0
   -3.8086    2.1989    0.0000 C   0  0  0  0  0  0  0  0  0  0  0  0
   -1.4489    2.5095    0.0000 C   0  0  0  0  0  0  0  0  0  0  0  0
    0.0000    2.8978    0.0000 C   0  0  0  0  0  0  0  0  0  0  0  0
    1.4489    2.5095    0.0000 C   0  0  0  0  0  0  0  0  0  0  0  0
    2.1989    3.8086    0.0000 N   0  0  0  0  0  0  0  0  0  0  0  0
    3.6989    3.8086    0.0000 C   0  0  0  0  0  0  0  0  0  0  0  0
    4.4489    2.5095    0.0000 N   0  0  0  0  0  0  0  0  0  0  0  0
    5.9489    2.5095    0.0000 N   0  0  0  0  0  0  0  0  0  0  0  0
    6.6989    3.8086    0.0000 N   0  0  0  0  0  0  0  0  0  0  0  0
    5.9489    5.1076    0.0000 N   0  0  0  0  0  0  0  0  0  0  0  0
    4.4489    5.1076    0.0000 N   0  0  0  0  0  0  0  0  0  0  0  0
    2.5095    1.4489    0.0000 C   0  0  0  0  0  0  0  0  0  0  0  0
  1  2  1  0
  2  3  1  0
  3  4  2  0
  4  5  1  0
  5  6  1  0
  6  7  1  0
  7  8  1  0
  8  9  1  0
  9 10  1  0
  9 11  1  0
 11 12  1  0
 12 13  1  0
 13 14  1  0
 14 15  1  0
 15 16  2  0
 16 17  1  0
 17 18  2  0
 18 19  1  0
 19 20  2  0
 13 21  1  0
 21  2  1  0
 20 15  1  0
M  END
>  <Title>  (803) 
idABCYgen6

$$$$

     RDKit          2D

 12 12  0  0  0  0  0  0  0  0999 V2000
    6.0000   -2.5981    0.0000 C   0  0  0  0  0  0  0  0  0  0  0  0
    5.2500   -1.2990    0.0000 C   0  0  0  0  0  0  0  0  0  0  0  0
    6.0000    0.0000    0.0000 O   0  0  0  0  0  0  0  0  0  0  0  0
    3.7500   -1.2990    0.0000 N   0  0  0  0  0  0  0  0  0  0  0  0
    3.0000    0.0000    0.0000 C   0  0  0  0  0  0  0  0  0  0  0  0
    3.7500    1.2990    0.0000 O   0  0  0  0  0  0  0  0  0  0  0  0
    1.5000    0.0000    0.0000 C   0  0  0  0  0  0  0  0  0  0  0  0
    0.7500   -1.2990    0.0000 C   0  0  0  0  0  0  0  0  0  0  0  0
   -0.7500   -1.2990    0.0000 C   0  0  0  0  0  0  0  0  0  0  0  0
   -1.5000    0.0000    0.0000 C   0  0  0  0  0  0  0  0  0  0  0  0
   -0.7500    1.2990    0.0000 C   0  0  0  0  0  0  0  0  0  0  0  0
    0.7500    1.2990    0.0000 C   0  0  0  0  0  0  0  0  0  0  0  0
  1  2  1  0
  2  3  2  0
  2  4  1  0
  4  5  1  0
  5  6  2  0
  5  7  1  0
  7  8  2  0
  8  9  1  0
  9 10  2  0
 10 11  1  0
 11 12  2  0
 12  7  1  0
M  END
>  <Title>  (804) 
idABCZgen6

$$$$

     RDKit          2D

  7  7  0  0  0  0  0  0  0  0999 V2000
    2.7760    0.0000    0.0000 C   0  0  0  0  0  0  0  0  0  0  0  0
    1.2760    0.0000    0.0000 C   0  0  0  0  0  0  0  0  0  0  0  0
    0.3943    1.2135    0.0000 C   0  0  0  0  0  0  0  0  0  0  0  0
   -1.0323    0.7500    0.0000 C   0  0  0  0  0  0  0  0  0  0  0  0
   -1.0323   -0.7500    0.0000 C   0  0  0  0  0  0  0  0  0  0  0  0
   -2.2458   -1.6317    0.0000 O   0  0  0  0  0  0  0  0  0  0  0  0
    0.3943   -1.2135    0.0000 N   0  0  0  0  0  0  0  0  0  0  0  0
  1  2  1  0
  2  3  1  0
  3  4  2  0
  4  5  1  0
  5  6  2  0
  5  7  1  0
  7  2  1  0
M  END
>  <Title>  (805) 
idABDAgen6

$$$$

     RDKit          2D

 27 30  0  0  0  0  0  0  0  0999 V2000
   -2.3737   -6.1885    0.0000 C   0  0  0  0  0  0  0  0  0  0  0  0
   -1.4095   -5.0395    0.0000 C   0  0  0  0  0  0  0  0  0  0  0  0
   -0.0000   -5.5525    0.0000 C   0  0  0  0  0  0  0  0  0  0  0  0
    1.4095   -5.0395    0.0000 C   0  0  0  0  0  0  0  0  0  0  0  0
    2.1595   -3.7404    0.0000 C   0  0  0  0  0  0  0  0  0  0  0  0
    1.8991   -2.2632    0.0000 C   0  0  0  0  0  0  0  0  0  0  0  0
    3.1981   -1.5132    0.0000 C   0  0  0  0  0  0  0  0  0  0  0  0
    3.1981   -0.0132    0.0000 O   0  0  0  0  0  0  0  0  0  0  0  0
    4.4971   -2.2632    0.0000 N   0  0  0  0  0  0  0  0  0  0  0  0
    5.7962   -1.5132    0.0000 C   0  0  0  0  0  0  0  0  0  0  0  0
    7.0952   -2.2632    0.0000 N   0  0  0  0  0  0  0  0  0  0  0  0
    8.3943   -1.5132    0.0000 N   0  0  0  0  0  0  0  0  0  0  0  0
    8.3943   -0.0132    0.0000 N   0  0  0  0  0  0  0  0  0  0  0  0
    7.0952    0.7368    0.0000 N   0  0  0  0  0  0  0  0  0  0  0  0
    5.7962   -0.0132    0.0000 N   0  0  0  0  0  0  0  0  0  0  0  0
    0.7500   -1.2990    0.0000 C   0  0  0  0  0  0  0  0  0  0  0  0
    1.5000    0.0000    0.0000 C   0  0  0  0  0  0  0  0  0  0  0  0
    0.7500    1.2990    0.0000 C   0  0  0  0  0  0  0  0  0  0  0  0
   -0.7500    1.2990    0.0000 C   0  0  0  0  0  0  0  0  0  0  0  0
   -1.5000    0.0000    0.0000 C   0  0  0  0  0  0  0  0  0  0  0  0
   -0.7500   -1.2990    0.0000 C   0  0  0  0  0  0  0  0  0  0  0  0
   -1.8991   -2.2632    0.0000 C   0  0  0  0  0  0  0  0  0  0  0  0
   -3.0481   -1.2990    0.0000 C   0  0  0  0  0  0  0  0  0  0  0  0
   -4.4577   -1.8121    0.0000 C   0  0  0  0  0  0  0  0  0  0  0  0
   -4.7181   -3.2893    0.0000 C   0  0  0  0  0  0  0  0  0  0  0  0
   -3.5691   -4.2535    0.0000 C   0  0  0  0  0  0  0  0  0  0  0  0
   -2.1595   -3.7404    0.0000 C   0  0  0  0  0  0  0  0  0  0  0  0
  1  2  1  0
  2  3  2  0
  3  4  1  0
  4  5  1  0
  5  6  1  0
  6  7  1  0
  7  8  2  0
  7  9  1  0
  9 10  1  0
 10 11  2  0
 11 12  1  0
 12 13  2  0
 13 14  1  0
 14 15  2  0
  6 16  1  0
 16 17  2  0
 17 18  1  0
 18 19  2  0
 19 20  1  0
 20 21  2  0
 21 22  1  0
 22 23  2  0
 23 24  1  0
 24 25  2  0
 25 26  1  0
 26 27  2  0
 27  2  1  0
 15 10  1  0
 21 16  1  0
 27 22  1  0
M  END
>  <Title>  (806) 
idABDBgen6

$$$$

     RDKit          2D

 24 26  0  0  0  0  0  0  0  0999 V2000
    3.9786   -1.2990    0.0000 C   0  0  0  0  0  0  0  0  0  0  0  0
    3.2286   -0.0000    0.0000 C   0  0  0  0  0  0  0  0  0  0  0  0
    3.9786    1.2990    0.0000 O   0  0  0  0  0  0  0  0  0  0  0  0
    1.7286    0.0000    0.0000 C   0  0  0  0  0  0  0  0  0  0  0  0
    1.0777    1.3515    0.0000 C   0  0  0  0  0  0  0  0  0  0  0  0
   -0.3846    1.6852    0.0000 C   0  0  0  0  0  0  0  0  0  0  0  0
   -1.5574    0.7500    0.0000 C   0  0  0  0  0  0  0  0  0  0  0  0
   -1.5574   -0.7500    0.0000 C   0  0  0  0  0  0  0  0  0  0  0  0
   -0.3846   -1.6852    0.0000 C   0  0  0  0  0  0  0  0  0  0  0  0
    1.0777   -1.3515    0.0000 C   0  0  0  0  0  0  0  0  0  0  0  0
   -1.5574   -2.6205    0.0000 C   0  0  0  0  0  0  0  0  0  0  0  0
   -1.2236   -4.0829    0.0000 C   0  0  0  0  0  0  0  0  0  0  0  0
   -3.0198   -2.2867    0.0000 C   0  0  0  0  0  0  0  0  0  0  0  0
   -3.6706   -0.9352    0.0000 C   0  0  0  0  0  0  0  0  0  0  0  0
   -3.0198    0.4162    0.0000 C   0  0  0  0  0  0  0  0  0  0  0  0
   -3.9550    1.5890    0.0000 C   0  0  0  0  0  0  0  0  0  0  0  0
   -5.4383    1.3654    0.0000 O   0  0  0  0  0  0  0  0  0  0  0  0
   -3.4070    2.9853    0.0000 N   0  0  0  0  0  0  0  0  0  0  0  0
   -4.3422    4.1580    0.0000 C   0  0  0  0  0  0  0  0  0  0  0  0
   -3.7942    5.5543    0.0000 N   0  0  0  0  0  0  0  0  0  0  0  0
   -4.7295    6.7271    0.0000 N   0  0  0  0  0  0  0  0  0  0  0  0
   -6.2127    6.5035    0.0000 N   0  0  0  0  0  0  0  0  0  0  0  0
   -6.7607    5.1072    0.0000 N   0  0  0  0  0  0  0  0  0  0  0  0
   -5.8255    3.9345    0.0000 N   0  0  0  0  0  0  0  0  0  0  0  0
  1  2  1  0
  2  3  2  0
  2  4  1  0
  4  5  2  0
  5  6  1  0
  6  7  2  0
  7  8  1  0
  8  9  1  0
  9 10  2  0
  9 11  1  0
 11 12  1  0
 11 13  1  0
 13 14  1  0
 14 15  1  0
 15 16  1  0
 16 17  2  0
 16 18  1  0
 18 19  1  0
 19 20  2  0
 20 21  1  0
 21 22  2  0
 22 23  1  0
 23 24  2  0
 10  4  1  0
 24 19  1  0
 15  7  1  0
M  END
>  <Title>  (807) 
idABDCgen6

$$$$

     RDKit          2D

  9  9  0  0  0  0  0  0  0  0999 V2000
    3.5260   -1.2990    0.0000 C   0  0  0  0  0  0  0  0  0  0  0  0
    2.7760    0.0000    0.0000 C   0  0  0  0  0  0  0  0  0  0  0  0
    3.5260    1.2990    0.0000 O   0  0  0  0  0  0  0  0  0  0  0  0
    1.2760    0.0000    0.0000 C   0  0  0  0  0  0  0  0  0  0  0  0
    0.3943    1.2135    0.0000 C   0  0  0  0  0  0  0  0  0  0  0  0
   -1.0323    0.7500    0.0000 C   0  0  0  0  0  0  0  0  0  0  0  0
   -1.0323   -0.7500    0.0000 C   0  0  0  0  0  0  0  0  0  0  0  0
    0.3943   -1.2135    0.0000 C   0  0  0  0  0  0  0  0  0  0  0  0
    0.8578   -2.6401    0.0000 O   0  0  0  0  0  0  0  0  0  0  0  0
  1  2  2  0
  2  3  1  0
  2  4  1  0
  4  5  2  0
  5  6  1  0
  6  7  1  0
  7  8  2  0
  8  9  1  0
  8  4  1  0
M  END
>  <Title>  (808) 
idABDDgen6

$$$$

     RDKit          2D

 22 24  0  0  0  0  0  0  0  0999 V2000
    1.3970   -5.0033    0.0000 O   0  0  0  0  0  0  0  0  0  0  0  0
    1.6317   -3.5218    0.0000 C   0  0  0  0  0  0  0  0  0  0  0  0
    2.8452   -2.6401    0.0000 N   0  0  0  0  0  0  0  0  0  0  0  0
    1.9635   -1.4266    0.0000 C   0  0  0  0  0  0  0  0  0  0  0  0
    2.4271    0.0000    0.0000 C   0  0  0  0  0  0  0  0  0  0  0  0
    1.9635    1.4266    0.0000 C   0  0  0  0  0  0  0  0  0  0  0  0
    0.7500    2.3083    0.0000 C   0  0  0  0  0  0  0  0  0  0  0  0
   -0.7500    2.3083    0.0000 C   0  0  0  0  0  0  0  0  0  0  0  0
   -1.9635    1.4266    0.0000 C   0  0  0  0  0  0  0  0  0  0  0  0
   -2.4271    0.0000    0.0000 N   0  0  0  0  0  0  0  0  0  0  0  0
   -3.9271    0.0000    0.0000 C   0  0  0  0  0  0  0  0  0  0  0  0
   -4.6771   -1.2990    0.0000 O   0  0  0  0  0  0  0  0  0  0  0  0
   -4.6771    1.2990    0.0000 N   0  0  0  0  0  0  0  0  0  0  0  0
   -6.1771    1.2990    0.0000 C   0  0  0  0  0  0  0  0  0  0  0  0
   -6.9271    2.5981    0.0000 C   0  0  0  0  0  0  0  0  0  0  0  0
   -8.4271    2.5981    0.0000 C   0  0  0  0  0  0  0  0  0  0  0  0
   -9.1771    1.2990    0.0000 C   0  0  0  0  0  0  0  0  0  0  0  0
   -8.4271    0.0000    0.0000 C   0  0  0  0  0  0  0  0  0  0  0  0
   -6.9271    0.0000    0.0000 C   0  0  0  0  0  0  0  0  0  0  0  0
   -1.9635   -1.4266    0.0000 C   0  0  0  0  0  0  0  0  0  0  0  0
   -0.7500   -2.3083    0.0000 C   0  0  0  0  0  0  0  0  0  0  0  0
    0.7500   -2.3083    0.0000 C   0  0  0  0  0  0  0  0  0  0  0  0
  1  2  2  0
  2  3  1  0
  3  4  1  0
  4  5  2  0
  5  6  1  0
  6  7  2  0
  7  8  1  0
  8  9  2  0
  9 10  1  0
 10 11  1  0
 11 12  2  0
 11 13  1  0
 13 14  1  0
 14 15  2  0
 15 16  1  0
 16 17  2  0
 17 18  1  0
 18 19  2  0
 10 20  1  0
 20 21  1  0
 21 22  1  0
 22  2  1  0
 22  4  1  0
 19 14  1  0
M  END
>  <Title>  (809) 
idABDEgen6

$$$$

     RDKit          2D

 42 44  0  0  0  0  0  0  0  0999 V2000
    7.0080   -0.0000    0.0000 C   0  0  0  0  0  0  0  0  0  0  0  0
    5.5080    0.0000    0.0000 C   0  0  0  0  0  0  0  0  0  0  0  0
    5.3037    1.4860    0.0000 C   0  0  0  0  0  0  0  0  0  0  0  0
    4.7061    2.8618    0.0000 C   0  0  0  0  0  0  0  0  0  0  0  0
    3.7595    4.0254    0.0000 C   0  0  0  0  0  0  0  0  0  0  0  0
    2.5340    4.8904    0.0000 C   0  0  0  0  0  0  0  0  0  0  0  0
    1.1206    5.3928    0.0000 C   0  0  0  0  0  0  0  0  0  0  0  0
   -0.3759    5.4951    0.0000 C   0  0  0  0  0  0  0  0  0  0  0  0
   -1.8445    5.1899    0.0000 C   0  0  0  0  0  0  0  0  0  0  0  0
   -3.1763    4.4998    0.0000 C   0  0  0  0  0  0  0  0  0  0  0  0
   -4.2726    3.4760    0.0000 C   0  0  0  0  0  0  0  0  0  0  0  0
   -5.0520    2.1944    0.0000 C   0  0  0  0  0  0  0  0  0  0  0  0
   -5.4567    0.7500    0.0000 C   0  0  0  0  0  0  0  0  0  0  0  0
   -5.4567   -0.7500    0.0000 C   0  0  0  0  0  0  0  0  0  0  0  0
   -5.0520   -2.1944    0.0000 C   0  0  0  0  0  0  0  0  0  0  0  0
   -4.2726   -3.4760    0.0000 C   0  0  0  0  0  0  0  0  0  0  0  0
   -3.1763   -4.4998    0.0000 C   0  0  0  0  0  0  0  0  0  0  0  0
   -1.8445   -5.1899    0.0000 C   0  0  0  0  0  0  0  0  0  0  0  0
   -0.3759   -5.4951    0.0000 C   0  0  0  0  0  0  0  0  0  0  0  0
    1.1206   -5.3928    0.0000 C   0  0  0  0  0  0  0  0  0  0  0  0
    2.5340   -4.8904    0.0000 C   0  0  0  0  0  0  0  0  0  0  0  0
    3.7595   -4.0254    0.0000 C   0  0  0  0  0  0  0  0  0  0  0  0
    4.7061   -2.8618    0.0000 C   0  0  0  0  0  0  0  0  0  0  0  0
    5.9877   -3.6412    0.0000 N   0  0  0  0  0  0  0  0  0  0  0  0
    5.9536   -5.1408    0.0000 C   0  0  0  0  0  0  0  0  0  0  0  0
    4.6378   -5.8611    0.0000 O   0  0  0  0  0  0  0  0  0  0  0  0
    7.2352   -5.9202    0.0000 C   0  0  0  0  0  0  0  0  0  0  0  0
    8.6191   -5.3415    0.0000 C   0  0  0  0  0  0  0  0  0  0  0  0
    9.5971   -6.4787    0.0000 C   0  0  0  0  0  0  0  0  0  0  0  0
    8.8178   -7.7604    0.0000 C   0  0  0  0  0  0  0  0  0  0  0  0
    9.3965   -9.1442    0.0000 O   0  0  0  0  0  0  0  0  0  0  0  0
    8.4874  -10.3374    0.0000 C   0  0  0  0  0  0  0  0  0  0  0  0
    9.0662  -11.7212    0.0000 C   0  0  0  0  0  0  0  0  0  0  0  0
    8.1571  -12.9143    0.0000 C   0  0  0  0  0  0  0  0  0  0  0  0
    8.7359  -14.2982    0.0000 C   0  0  0  0  0  0  0  0  0  0  0  0
   10.2237  -14.4889    0.0000 C   0  0  0  0  0  0  0  0  0  0  0  0
   10.8025  -15.8728    0.0000 C   0  0  0  0  0  0  0  0  0  0  0  0
   11.3812  -17.2566    0.0000 N   0  0  0  0  0  0  0  0  0  0  0  0
   11.1328  -13.2958    0.0000 C   0  0  0  0  0  0  0  0  0  0  0  0
   10.5540  -11.9119    0.0000 C   0  0  0  0  0  0  0  0  0  0  0  0
    7.3580   -7.4152    0.0000 C   0  0  0  0  0  0  0  0  0  0  0  0
    5.3037   -1.4860    0.0000 C   0  0  0  0  0  0  0  0  0  0  0  0
  1  2  1  0
  2  3  1  0
  3  4  2  0
  4  5  1  0
  5  6  1  0
  6  7  1  0
  7  8  1  0
  8  9  1  0
  9 10  1  0
 10 11  1  0
 11 12  1  0
 12 13  1  0
 13 14  1  0
 14 15  1  0
 15 16  1  0
 16 17  1  0
 17 18  1  0
 18 19  1  0
 19 20  1  0
 20 21  2  0
 21 22  1  0
 22 23  2  0
 23 24  1  0
 24 25  1  0
 25 26  2  0
 25 27  1  0
 27 28  2  0
 28 29  1  0
 29 30  2  0
 30 31  1  0
 31 32  1  0
 32 33  1  0
 33 34  2  0
 34 35  1  0
 35 36  2  0
 36 37  1  0
 37 38  3  0
 36 39  1  0
 39 40  2  0
 30 41  1  0
 23 42  1  0
 42  2  1  0
 41 27  1  0
 40 33  1  0
M  END
>  <Title>  (810) 
idABDFgen6

$$$$

     RDKit          2D

  9  9  0  0  0  0  0  0  0  0999 V2000
    5.0260   -1.2990    0.0000 C   0  0  0  0  0  0  0  0  0  0  0  0
    3.5260   -1.2990    0.0000 C   0  0  0  0  0  0  0  0  0  0  0  0
    2.7760   -2.5981    0.0000 O   0  0  0  0  0  0  0  0  0  0  0  0
    2.7760    0.0000    0.0000 N   0  0  0  0  0  0  0  0  0  0  0  0
    1.2760    0.0000    0.0000 C   0  0  0  0  0  0  0  0  0  0  0  0
    0.3943    1.2135    0.0000 C   0  0  0  0  0  0  0  0  0  0  0  0
   -1.0323    0.7500    0.0000 C   0  0  0  0  0  0  0  0  0  0  0  0
   -1.0323   -0.7500    0.0000 C   0  0  0  0  0  0  0  0  0  0  0  0
    0.3943   -1.2135    0.0000 C   0  0  0  0  0  0  0  0  0  0  0  0
  1  2  1  0
  2  3  2  0
  2  4  1  0
  4  5  1  0
  5  6  2  0
  6  7  1  0
  7  8  2  0
  8  9  1  0
  9  5  1  0
M  END
>  <Title>  (811) 
idABDGgen6

$$$$

     RDKit          2D

 14 15  0  0  0  0  0  0  0  0999 V2000
   -3.4598   -2.7716    0.0000 C   0  0  0  0  0  0  0  0  0  0  0  0
   -1.9598   -2.7716    0.0000 C   0  0  0  0  0  0  0  0  0  0  0  0
   -1.3858   -4.1575    0.0000 C   0  0  0  0  0  0  0  0  0  0  0  0
   -0.0000   -4.7315    0.0000 C   0  0  0  0  0  0  0  0  0  0  0  0
    1.3858   -4.1575    0.0000 C   0  0  0  0  0  0  0  0  0  0  0  0
    1.9598   -2.7716    0.0000 C   0  0  0  0  0  0  0  0  0  0  0  0
    1.3858   -1.3858    0.0000 C   0  0  0  0  0  0  0  0  0  0  0  0
    1.9598    0.0000    0.0000 C   0  0  0  0  0  0  0  0  0  0  0  0
    1.3858    1.3858    0.0000 C   0  0  0  0  0  0  0  0  0  0  0  0
    0.0000    1.9598    0.0000 C   0  0  0  0  0  0  0  0  0  0  0  0
   -1.3858    1.3858    0.0000 C   0  0  0  0  0  0  0  0  0  0  0  0
   -1.9598    0.0000    0.0000 C   0  0  0  0  0  0  0  0  0  0  0  0
   -1.3858   -1.3858    0.0000 C   0  0  0  0  0  0  0  0  0  0  0  0
   -0.0000   -1.9598    0.0000 C   0  0  0  0  0  0  0  0  0  0  0  0
  1  2  1  0
  2  3  1  0
  3  4  1  0
  4  5  1  0
  5  6  1  0
  6  7  1  0
  7  8  1  0
  8  9  1  0
  9 10  1  0
 10 11  2  0
 11 12  1  0
 12 13  2  0
 13 14  1  0
 13  2  1  0
 14  7  1  0
M  END
>  <Title>  (812) 
idABDHgen6

$$$$

     RDKit          2D

 33 37  0  0  0  0  0  0  0  0999 V2000
   -3.1965   -1.7857    0.0000 C   0  0  0  0  0  0  0  0  0  0  0  0
   -1.8107   -2.3597    0.0000 C   0  0  0  0  0  0  0  0  0  0  0  0
   -1.8107   -3.8597    0.0000 C   0  0  0  0  0  0  0  0  0  0  0  0
   -0.7500   -4.9204    0.0000 C   0  0  0  0  0  0  0  0  0  0  0  0
    0.7500   -4.9204    0.0000 C   0  0  0  0  0  0  0  0  0  0  0  0
    1.3240   -6.3062    0.0000 C   0  0  0  0  0  0  0  0  0  0  0  0
    2.8112   -6.5020    0.0000 O   0  0  0  0  0  0  0  0  0  0  0  0
    0.4109   -7.4962    0.0000 N   0  0  0  0  0  0  0  0  0  0  0  0
    0.9849   -8.8820    0.0000 C   0  0  0  0  0  0  0  0  0  0  0  0
    0.0718  -10.0721    0.0000 N   0  0  0  0  0  0  0  0  0  0  0  0
    0.6458  -11.4579    0.0000 N   0  0  0  0  0  0  0  0  0  0  0  0
    2.1330  -11.6537    0.0000 N   0  0  0  0  0  0  0  0  0  0  0  0
    3.0461  -10.4636    0.0000 N   0  0  0  0  0  0  0  0  0  0  0  0
    2.4721   -9.0778    0.0000 N   0  0  0  0  0  0  0  0  0  0  0  0
    1.8107   -3.8597    0.0000 C   0  0  0  0  0  0  0  0  0  0  0  0
    3.1097   -4.6097    0.0000 C   0  0  0  0  0  0  0  0  0  0  0  0
    4.4087   -3.8597    0.0000 C   0  0  0  0  0  0  0  0  0  0  0  0
    4.4087   -2.3597    0.0000 C   0  0  0  0  0  0  0  0  0  0  0  0
    5.7078   -1.6097    0.0000 O   0  0  0  0  0  0  0  0  0  0  0  0
    7.0068   -2.3597    0.0000 C   0  0  0  0  0  0  0  0  0  0  0  0
    7.0068   -3.8597    0.0000 C   0  0  0  0  0  0  0  0  0  0  0  0
    8.3059   -4.6097    0.0000 C   0  0  0  0  0  0  0  0  0  0  0  0
    9.6049   -3.8597    0.0000 C   0  0  0  0  0  0  0  0  0  0  0  0
    9.6049   -2.3597    0.0000 C   0  0  0  0  0  0  0  0  0  0  0  0
    8.3059   -1.6097    0.0000 C   0  0  0  0  0  0  0  0  0  0  0  0
    3.1097   -1.6097    0.0000 C   0  0  0  0  0  0  0  0  0  0  0  0
    1.8107   -2.3597    0.0000 C   0  0  0  0  0  0  0  0  0  0  0  0
    0.7500   -1.2990    0.0000 C   0  0  0  0  0  0  0  0  0  0  0  0
    1.5000    0.0000    0.0000 C   0  0  0  0  0  0  0  0  0  0  0  0
    0.7500    1.2990    0.0000 C   0  0  0  0  0  0  0  0  0  0  0  0
   -0.7500    1.2990    0.0000 C   0  0  0  0  0  0  0  0  0  0  0  0
   -1.5000    0.0000    0.0000 C   0  0  0  0  0  0  0  0  0  0  0  0
   -0.7500   -1.2990    0.0000 C   0  0  0  0  0  0  0  0  0  0  0  0
  1  2  1  0
  2  3  1  0
  3  4  1  0
  4  5  1  0
  5  6  1  0
  6  7  2  0
  6  8  1  0
  8  9  1  0
  9 10  2  0
 10 11  1  0
 11 12  2  0
 12 13  1  0
 13 14  2  0
  5 15  1  0
 15 16  2  0
 16 17  1  0
 17 18  2  0
 18 19  1  0
 19 20  1  0
 20 21  2  0
 21 22  1  0
 22 23  2  0
 23 24  1  0
 24 25  2  0
 18 26  1  0
 26 27  2  0
 27 28  1  0
 28 29  2  0
 29 30  1  0
 30 31  2  0
 31 32  1  0
 32 33  2  0
 33  2  1  0
 14  9  1  0
 27 15  1  0
 33 28  1  0
 25 20  1  0
M  END
>  <Title>  (813) 
idABDIgen6

$$$$

     RDKit          2D

 14 15  0  0  0  0  0  0  0  0999 V2000
    3.3107   -8.3323    0.0000 C   0  0  0  0  0  0  0  0  0  0  0  0
    2.5607   -7.0333    0.0000 C   0  0  0  0  0  0  0  0  0  0  0  0
    1.1118   -6.6450    0.0000 C   0  0  0  0  0  0  0  0  0  0  0  0
    1.5000   -5.1962    0.0000 C   0  0  0  0  0  0  0  0  0  0  0  0
    0.7500   -3.8971    0.0000 C   0  0  0  0  0  0  0  0  0  0  0  0
   -0.7500   -3.8971    0.0000 O   0  0  0  0  0  0  0  0  0  0  0  0
    1.5000   -2.5981    0.0000 N   0  0  0  0  0  0  0  0  0  0  0  0
    0.7500   -1.2990    0.0000 C   0  0  0  0  0  0  0  0  0  0  0  0
    1.5000    0.0000    0.0000 N   0  0  0  0  0  0  0  0  0  0  0  0
    0.7500    1.2990    0.0000 N   0  0  0  0  0  0  0  0  0  0  0  0
   -0.7500    1.2990    0.0000 N   0  0  0  0  0  0  0  0  0  0  0  0
   -1.5000    0.0000    0.0000 N   0  0  0  0  0  0  0  0  0  0  0  0
   -0.7500   -1.2990    0.0000 N   0  0  0  0  0  0  0  0  0  0  0  0
    2.9489   -5.5844    0.0000 C   0  0  0  0  0  0  0  0  0  0  0  0
  1  2  1  0
  2  3  1  0
  3  4  2  0
  4  5  1  0
  5  6  2  0
  5  7  1  0
  7  8  1  0
  8  9  2  0
  9 10  1  0
 10 11  2  0
 11 12  1  0
 12 13  2  0
  4 14  1  0
 14  2  1  0
 13  8  1  0
M  END
>  <Title>  (814) 
idABDJgen6

$$$$

     RDKit          2D

 26 29  0  0  0  0  0  0  0  0999 V2000
   -0.7500   -3.8971    0.0000 O   0  0  0  0  0  0  0  0  0  0  0  0
    0.7500   -3.8971    0.0000 C   0  0  0  0  0  0  0  0  0  0  0  0
    1.5000   -2.5981    0.0000 N   0  0  0  0  0  0  0  0  0  0  0  0
    0.7500   -1.2990    0.0000 C   0  0  0  0  0  0  0  0  0  0  0  0
    1.5000    0.0000    0.0000 N   0  0  0  0  0  0  0  0  0  0  0  0
    0.7500    1.2990    0.0000 N   0  0  0  0  0  0  0  0  0  0  0  0
   -0.7500    1.2990    0.0000 N   0  0  0  0  0  0  0  0  0  0  0  0
   -1.5000    0.0000    0.0000 N   0  0  0  0  0  0  0  0  0  0  0  0
   -0.7500   -1.2990    0.0000 N   0  0  0  0  0  0  0  0  0  0  0  0
    1.5000   -5.1962    0.0000 N   0  0  0  0  0  0  0  0  0  0  0  0
    0.7500   -6.4952    0.0000 C   0  0  0  0  0  0  0  0  0  0  0  0
    1.5000   -7.7942    0.0000 C   0  0  0  0  0  0  0  0  0  0  0  0
    3.0000   -7.7942    0.0000 N   0  0  0  0  0  0  0  0  0  0  0  0
    3.7500   -9.0933    0.0000 C   0  0  0  0  0  0  0  0  0  0  0  0
    5.2418   -9.2501    0.0000 C   0  0  0  0  0  0  0  0  0  0  0  0
    5.5537  -10.7173    0.0000 C   0  0  0  0  0  0  0  0  0  0  0  0
    4.2546  -11.4673    0.0000 C   0  0  0  0  0  0  0  0  0  0  0  0
    4.0978  -12.9591    0.0000 C   0  0  0  0  0  0  0  0  0  0  0  0
    2.7275  -13.5692    0.0000 C   0  0  0  0  0  0  0  0  0  0  0  0
    2.5707  -15.0610    0.0000 C   0  0  0  0  0  0  0  0  0  0  0  0
    3.7842  -15.9426    0.0000 C   0  0  0  0  0  0  0  0  0  0  0  0
    5.1546  -15.3325    0.0000 C   0  0  0  0  0  0  0  0  0  0  0  0
    5.3113  -13.8407    0.0000 C   0  0  0  0  0  0  0  0  0  0  0  0
    3.1399  -10.4636    0.0000 C   0  0  0  0  0  0  0  0  0  0  0  0
    3.7500   -6.4952    0.0000 C   0  0  0  0  0  0  0  0  0  0  0  0
    3.0000   -5.1962    0.0000 C   0  0  0  0  0  0  0  0  0  0  0  0
  1  2  2  0
  2  3  1  0
  3  4  1  0
  4  5  2  0
  5  6  1  0
  6  7  2  0
  7  8  1  0
  8  9  2  0
  2 10  1  0
 10 11  1  0
 11 12  1  0
 12 13  1  0
 13 14  1  0
 14 15  1  0
 15 16  1  0
 16 17  1  0
 17 18  1  0
 18 19  2  0
 19 20  1  0
 20 21  2  0
 21 22  1  0
 22 23  2  0
 17 24  1  0
 13 25  1  0
 25 26  1  0
  9  4  1  0
 26 10  1  0
 24 14  1  0
 23 18  1  0
M  END
>  <Title>  (815) 
idABDKgen6

$$$$

     RDKit          2D

 20 21  0  0  0  0  0  0  0  0999 V2000
    0.3207  -11.1638    0.0000 C   0  0  0  0  0  0  0  0  0  0  0  0
    0.4775   -9.6721    0.0000 C   0  0  0  0  0  0  0  0  0  0  0  0
   -0.7360   -8.7904    0.0000 C   0  0  0  0  0  0  0  0  0  0  0  0
   -2.1063   -9.4005    0.0000 O   0  0  0  0  0  0  0  0  0  0  0  0
    1.8478   -9.0619    0.0000 C   0  0  0  0  0  0  0  0  0  0  0  0
    3.0613   -9.9436    0.0000 O   0  0  0  0  0  0  0  0  0  0  0  0
    2.0046   -7.5702    0.0000 N   0  0  0  0  0  0  0  0  0  0  0  0
    3.3037   -6.8202    0.0000 C   0  0  0  0  0  0  0  0  0  0  0  0
    2.9918   -5.3529    0.0000 C   0  0  0  0  0  0  0  0  0  0  0  0
    1.5000   -5.1962    0.0000 C   0  0  0  0  0  0  0  0  0  0  0  0
    0.7500   -3.8971    0.0000 C   0  0  0  0  0  0  0  0  0  0  0  0
   -0.7500   -3.8971    0.0000 O   0  0  0  0  0  0  0  0  0  0  0  0
    1.5000   -2.5981    0.0000 N   0  0  0  0  0  0  0  0  0  0  0  0
    0.7500   -1.2990    0.0000 C   0  0  0  0  0  0  0  0  0  0  0  0
    1.5000    0.0000    0.0000 N   0  0  0  0  0  0  0  0  0  0  0  0
    0.7500    1.2990    0.0000 N   0  0  0  0  0  0  0  0  0  0  0  0
   -0.7500    1.2990    0.0000 N   0  0  0  0  0  0  0  0  0  0  0  0
   -1.5000    0.0000    0.0000 N   0  0  0  0  0  0  0  0  0  0  0  0
   -0.7500   -1.2990    0.0000 N   0  0  0  0  0  0  0  0  0  0  0  0
    0.8899   -6.5665    0.0000 C   0  0  0  0  0  0  0  0  0  0  0  0
  1  2  1  0
  2  3  1  0
  3  4  1  0
  2  5  1  0
  5  6  2  0
  5  7  1  0
  7  8  1  0
  8  9  1  0
  9 10  1  0
 10 11  1  0
 11 12  2  0
 11 13  1  0
 13 14  1  0
 14 15  2  0
 15 16  1  0
 16 17  2  0
 17 18  1  0
 18 19  2  0
 10 20  1  0
 20  7  1  0
 19 14  1  0
M  END
>  <Title>  (816) 
idABDLgen6

$$$$

     RDKit          2D

 34 38  0  0  0  0  0  0  0  0999 V2000
    1.2135   -7.3421    0.0000 C   0  0  0  0  0  0  0  0  0  0  0  0
    0.7500   -5.9156    0.0000 C   0  0  0  0  0  0  0  0  0  0  0  0
    1.9635   -5.0339    0.0000 C   0  0  0  0  0  0  0  0  0  0  0  0
    2.4271   -3.6073    0.0000 C   0  0  0  0  0  0  0  0  0  0  0  0
    1.9635   -2.1807    0.0000 C   0  0  0  0  0  0  0  0  0  0  0  0
    3.1771   -1.2990    0.0000 C   0  0  0  0  0  0  0  0  0  0  0  0
    3.0203    0.1927    0.0000 O   0  0  0  0  0  0  0  0  0  0  0  0
    4.5474   -1.9091    0.0000 N   0  0  0  0  0  0  0  0  0  0  0  0
    5.7609   -1.0275    0.0000 C   0  0  0  0  0  0  0  0  0  0  0  0
    5.7609    0.4725    0.0000 N   0  0  0  0  0  0  0  0  0  0  0  0
    7.1875    0.9361    0.0000 N   0  0  0  0  0  0  0  0  0  0  0  0
    8.0692   -0.2775    0.0000 N   0  0  0  0  0  0  0  0  0  0  0  0
    7.1875   -1.4910    0.0000 N   0  0  0  0  0  0  0  0  0  0  0  0
    7.6510   -2.9176    0.0000 C   0  0  0  0  0  0  0  0  0  0  0  0
    6.6473   -4.0323    0.0000 C   0  0  0  0  0  0  0  0  0  0  0  0
    7.1108   -5.4589    0.0000 C   0  0  0  0  0  0  0  0  0  0  0  0
    8.5781   -5.7707    0.0000 C   0  0  0  0  0  0  0  0  0  0  0  0
    9.5818   -4.6560    0.0000 C   0  0  0  0  0  0  0  0  0  0  0  0
    9.1182   -3.2294    0.0000 C   0  0  0  0  0  0  0  0  0  0  0  0
    0.7500   -1.2990    0.0000 C   0  0  0  0  0  0  0  0  0  0  0  0
    1.5000    0.0000    0.0000 C   0  0  0  0  0  0  0  0  0  0  0  0
    0.7500    1.2990    0.0000 C   0  0  0  0  0  0  0  0  0  0  0  0
   -0.7500    1.2990    0.0000 C   0  0  0  0  0  0  0  0  0  0  0  0
   -1.5000    0.0000    0.0000 C   0  0  0  0  0  0  0  0  0  0  0  0
   -0.7500   -1.2990    0.0000 C   0  0  0  0  0  0  0  0  0  0  0  0
   -1.9635   -2.1807    0.0000 C   0  0  0  0  0  0  0  0  0  0  0  0
   -2.4271   -3.6073    0.0000 C   0  0  0  0  0  0  0  0  0  0  0  0
   -3.9271   -3.6073    0.0000 O   0  0  0  0  0  0  0  0  0  0  0  0
   -1.9635   -5.0339    0.0000 C   0  0  0  0  0  0  0  0  0  0  0  0
   -3.3338   -5.6440    0.0000 C   0  0  0  0  0  0  0  0  0  0  0  0
   -3.4906   -7.1358    0.0000 C   0  0  0  0  0  0  0  0  0  0  0  0
   -2.2771   -8.0175    0.0000 C   0  0  0  0  0  0  0  0  0  0  0  0
   -0.9068   -7.4073    0.0000 C   0  0  0  0  0  0  0  0  0  0  0  0
   -0.7500   -5.9156    0.0000 C   0  0  0  0  0  0  0  0  0  0  0  0
  1  2  1  0
  2  3  2  0
  3  4  1  0
  4  5  2  0
  5  6  1  0
  6  7  2  0
  6  8  1  0
  8  9  1  0
  9 10  2  0
 10 11  1  0
 11 12  2  0
 12 13  1  0
 13 14  1  0
 14 15  2  0
 15 16  1  0
 16 17  2  0
 17 18  1  0
 18 19  2  0
  5 20  1  0
 20 21  2  0
 21 22  1  0
 22 23  2  0
 23 24  1  0
 24 25  2  0
 25 26  1  0
 26 27  1  0
 27 28  2  0
 27 29  1  0
 29 30  2  0
 30 31  1  0
 31 32  2  0
 32 33  1  0
 33 34  2  0
 34  2  1  0
 13  9  1  0
 19 14  1  0
 25 20  1  0
 34 29  1  0
M  END
>  <Title>  (817) 
idABDMgen6

$$$$

     RDKit          2D

 22 22  0  0  0  0  0  0  0  0999 V2000
    7.0443   -1.2990    0.0000 C   0  0  0  0  0  0  0  0  0  0  0  0
    6.2943    0.0000    0.0000 O   0  0  0  0  0  0  0  0  0  0  0  0
    4.7943    0.0000    0.0000 C   0  0  0  0  0  0  0  0  0  0  0  0
    4.5597   -1.4815    0.0000 C   0  0  0  0  0  0  0  0  0  0  0  0
    3.8787   -2.8180    0.0000 C   0  0  0  0  0  0  0  0  0  0  0  0
    2.8180   -3.8787    0.0000 C   0  0  0  0  0  0  0  0  0  0  0  0
    1.4815   -4.5597    0.0000 C   0  0  0  0  0  0  0  0  0  0  0  0
   -0.0000   -4.7943    0.0000 C   0  0  0  0  0  0  0  0  0  0  0  0
   -1.4815   -4.5597    0.0000 C   0  0  0  0  0  0  0  0  0  0  0  0
   -2.8180   -3.8787    0.0000 C   0  0  0  0  0  0  0  0  0  0  0  0
   -3.8787   -2.8180    0.0000 C   0  0  0  0  0  0  0  0  0  0  0  0
   -4.5597   -1.4815    0.0000 C   0  0  0  0  0  0  0  0  0  0  0  0
   -4.7943    0.0000    0.0000 C   0  0  0  0  0  0  0  0  0  0  0  0
   -4.5597    1.4815    0.0000 C   0  0  0  0  0  0  0  0  0  0  0  0
   -3.8787    2.8180    0.0000 C   0  0  0  0  0  0  0  0  0  0  0  0
   -2.8180    3.8787    0.0000 C   0  0  0  0  0  0  0  0  0  0  0  0
   -1.4815    4.5597    0.0000 C   0  0  0  0  0  0  0  0  0  0  0  0
    0.0000    4.7943    0.0000 C   0  0  0  0  0  0  0  0  0  0  0  0
    1.4815    4.5597    0.0000 C   0  0  0  0  0  0  0  0  0  0  0  0
    2.8180    3.8787    0.0000 C   0  0  0  0  0  0  0  0  0  0  0  0
    3.8787    2.8180    0.0000 C   0  0  0  0  0  0  0  0  0  0  0  0
    4.5597    1.4815    0.0000 C   0  0  0  0  0  0  0  0  0  0  0  0
  1  2  1  0
  2  3  1  0
  3  4  1  0
  4  5  2  0
  5  6  1  0
  6  7  1  0
  7  8  1  0
  8  9  1  0
  9 10  1  0
 10 11  1  0
 11 12  1  0
 12 13  1  0
 13 14  1  0
 14 15  1  0
 15 16  1  0
 16 17  1  0
 17 18  1  0
 18 19  1  0
 19 20  1  0
 20 21  1  0
 21 22  1  0
 22  3  1  0
M  END
>  <Title>  (818) 
idABDNgen6

$$$$

     RDKit          2D

  9  9  0  0  0  0  0  0  0  0999 V2000
    5.2500   -1.2990    0.0000 C   0  0  0  0  0  0  0  0  0  0  0  0
    3.7500   -1.2990    0.0000 C   0  0  0  0  0  0  0  0  0  0  0  0
    3.0000    0.0000    0.0000 C   0  0  0  0  0  0  0  0  0  0  0  0
    1.5000    0.0000    0.0000 C   0  0  0  0  0  0  0  0  0  0  0  0
    0.7500   -1.2990    0.0000 C   0  0  0  0  0  0  0  0  0  0  0  0
   -0.7500   -1.2990    0.0000 C   0  0  0  0  0  0  0  0  0  0  0  0
   -1.5000    0.0000    0.0000 C   0  0  0  0  0  0  0  0  0  0  0  0
   -0.7500    1.2990    0.0000 C   0  0  0  0  0  0  0  0  0  0  0  0
    0.7500    1.2990    0.0000 C   0  0  0  0  0  0  0  0  0  0  0  0
  1  2  1  0
  2  3  2  3
  3  4  1  0
  4  5  2  0
  5  6  1  0
  6  7  2  0
  7  8  1  0
  8  9  2  0
  9  4  1  0
M  END
>  <Title>  (819) 
idABDOgen6

$$$$

     RDKit          2D

 53 58  0  0  0  0  0  0  0  0999 V2000
   -5.1217  -11.5390    0.0000 C   0  0  0  0  0  0  0  0  0  0  0  0
   -4.0254  -10.5152    0.0000 C   0  0  0  0  0  0  0  0  0  0  0  0
   -2.8618  -11.4618    0.0000 C   0  0  0  0  0  0  0  0  0  0  0  0
   -1.4860  -12.0594    0.0000 C   0  0  0  0  0  0  0  0  0  0  0  0
   -0.0000  -12.2636    0.0000 C   0  0  0  0  0  0  0  0  0  0  0  0
    1.4860  -12.0594    0.0000 C   0  0  0  0  0  0  0  0  0  0  0  0
    2.8618  -11.4618    0.0000 C   0  0  0  0  0  0  0  0  0  0  0  0
    4.0254  -10.5152    0.0000 C   0  0  0  0  0  0  0  0  0  0  0  0
    4.8904   -9.2897    0.0000 C   0  0  0  0  0  0  0  0  0  0  0  0
    5.3928   -7.8763    0.0000 C   0  0  0  0  0  0  0  0  0  0  0  0
    5.4951   -6.3798    0.0000 C   0  0  0  0  0  0  0  0  0  0  0  0
    5.1899   -4.9112    0.0000 C   0  0  0  0  0  0  0  0  0  0  0  0
    4.4998   -3.5794    0.0000 C   0  0  0  0  0  0  0  0  0  0  0  0
    3.4760   -2.4831    0.0000 C   0  0  0  0  0  0  0  0  0  0  0  0
    2.1944   -1.7037    0.0000 C   0  0  0  0  0  0  0  0  0  0  0  0
    0.7500   -1.2990    0.0000 C   0  0  0  0  0  0  0  0  0  0  0  0
    1.5000    0.0000    0.0000 C   0  0  0  0  0  0  0  0  0  0  0  0
    0.7500    1.2990    0.0000 C   0  0  0  0  0  0  0  0  0  0  0  0
   -0.7500    1.2990    0.0000 C   0  0  0  0  0  0  0  0  0  0  0  0
   -1.5000    0.0000    0.0000 C   0  0  0  0  0  0  0  0  0  0  0  0
   -0.7500   -1.2990    0.0000 C   0  0  0  0  0  0  0  0  0  0  0  0
   -2.1944   -1.7037    0.0000 C   0  0  0  0  0  0  0  0  0  0  0  0
   -2.2285   -0.2041    0.0000 C   0  0  0  0  0  0  0  0  0  0  0  0
   -3.5443    0.5161    0.0000 C   0  0  0  0  0  0  0  0  0  0  0  0
   -4.8259   -0.2633    0.0000 C   0  0  0  0  0  0  0  0  0  0  0  0
   -4.7918   -1.7629    0.0000 C   0  0  0  0  0  0  0  0  0  0  0  0
   -3.4760   -2.4831    0.0000 C   0  0  0  0  0  0  0  0  0  0  0  0
   -4.4998   -3.5794    0.0000 C   0  0  0  0  0  0  0  0  0  0  0  0
   -5.3502   -2.4098    0.0000 C   0  0  0  0  0  0  0  0  0  0  0  0
   -6.0998   -1.6499    0.0000 C   0  0  0  0  0  0  0  0  0  0  0  0
   -7.1529   -1.4757    0.0000 C   0  0  0  0  0  0  0  0  0  0  0  0
   -7.4822    0.6995    0.0000 C   0  0  0  0  0  0  0  0  0  0  0  0
   -6.3100    1.6355    0.0000 C   0  0  0  0  0  0  0  0  0  0  0  0
   -6.5346    3.1186    0.0000 C   0  0  0  0  0  0  0  0  0  0  0  0
   -7.9312    3.6657    0.0000 C   0  0  0  0  0  0  0  0  0  0  0  0
   -9.1034    2.7297    0.0000 C   0  0  0  0  0  0  0  0  0  0  0  0
   -8.8788    1.2466    0.0000 C   0  0  0  0  0  0  0  0  0  0  0  0
   -8.1072   -1.9538    0.0000 C   0  0  0  0  0  0  0  0  0  0  0  0
   -8.5983   -2.9015    0.0000 C   0  0  0  0  0  0  0  0  0  0  0  0
   -8.4385   -3.9569    0.0000 C   0  0  0  0  0  0  0  0  0  0  0  0
   -7.6889   -4.7167    0.0000 C   0  0  0  0  0  0  0  0  0  0  0  0
   -8.7011   -6.6701    0.0000 C   0  0  0  0  0  0  0  0  0  0  0  0
   -9.3912   -8.0019    0.0000 N   0  0  0  0  0  0  0  0  0  0  0  0
   -6.6358   -4.8909    0.0000 C   0  0  0  0  0  0  0  0  0  0  0  0
   -5.1899   -4.9112    0.0000 C   0  0  0  0  0  0  0  0  0  0  0  0
   -5.4951   -6.3798    0.0000 C   0  0  0  0  0  0  0  0  0  0  0  0
   -6.8423   -5.7202    0.0000 C   0  0  0  0  0  0  0  0  0  0  0  0
   -8.0871   -6.5571    0.0000 C   0  0  0  0  0  0  0  0  0  0  0  0
   -7.9848   -8.0536    0.0000 C   0  0  0  0  0  0  0  0  0  0  0  0
   -6.6376   -8.7132    0.0000 C   0  0  0  0  0  0  0  0  0  0  0  0
   -5.3928   -7.8763    0.0000 C   0  0  0  0  0  0  0  0  0  0  0  0
   -4.8904   -9.2897    0.0000 C   0  0  0  0  0  0  0  0  0  0  0  0
   -6.2223   -9.9798    0.0000 O   0  0  0  0  0  0  0  0  0  0  0  0
  1  2  1  0
  2  3  1  0
  3  4  1  0
  4  5  1  0
  5  6  1  0
  6  7  1  0
  7  8  1  0
  8  9  1  0
  9 10  1  0
 10 11  1  0
 11 12  1  0
 12 13  1  0
 13 14  1  0
 14 15  1  0
 15 16  1  0
 16 17  2  0
 17 18  1  0
 18 19  2  0
 19 20  1  0
 20 21  2  0
 21 22  1  0
 22 23  2  0
 23 24  1  0
 24 25  2  0
 25 26  1  0
 26 27  2  0
 27 28  1  0
 28 29  2  0
 29 30  1  0
 30 31  2  0
 31 32  1  0
 32 33  2  0
 33 34  1  0
 34 35  2  0
 35 36  1  0
 36 37  2  0
 31 38  1  0
 38 39  2  0
 39 40  1  0
 40 41  2  0
 41 42  1  0
 42 43  3  0
 41 44  1  0
 44 45  2  0
 45 46  1  0
 46 47  2  0
 47 48  1  0
 48 49  2  0
 49 50  1  0
 50 51  2  0
 51 52  1  0
 52 53  2  0
 52  2  1  0
 21 16  1  0
 27 22  1  0
 45 28  1  0
 51 46  1  0
 37 32  1  0
M  END
>  <Title>  (820) 
idABDPgen6

$$$$

     RDKit          2D

 17 18  0  0  0  0  0  0  0  0999 V2000
    5.2500   -1.2990    0.0000 C   0  0  0  0  0  0  0  0  0  0  0  0
    3.7500   -1.2990    0.0000 C   0  0  0  0  0  0  0  0  0  0  0  0
    3.0000   -2.5981    0.0000 C   0  0  0  0  0  0  0  0  0  0  0  0
    3.0000    0.0000    0.0000 C   0  0  0  0  0  0  0  0  0  0  0  0
    3.7500    1.2990    0.0000 O   0  0  0  0  0  0  0  0  0  0  0  0
    1.5000    0.0000    0.0000 N   0  0  0  0  0  0  0  0  0  0  0  0
    0.7500   -1.2990    0.0000 C   0  0  0  0  0  0  0  0  0  0  0  0
   -0.7500   -1.2990    0.0000 C   0  0  0  0  0  0  0  0  0  0  0  0
   -1.5000    0.0000    0.0000 C   0  0  0  0  0  0  0  0  0  0  0  0
   -3.0000    0.0000    0.0000 C   0  0  0  0  0  0  0  0  0  0  0  0
   -3.7500    1.2990    0.0000 C   0  0  0  0  0  0  0  0  0  0  0  0
   -5.2500    1.2990    0.0000 C   0  0  0  0  0  0  0  0  0  0  0  0
   -6.0000    0.0000    0.0000 C   0  0  0  0  0  0  0  0  0  0  0  0
   -5.2500   -1.2990    0.0000 C   0  0  0  0  0  0  0  0  0  0  0  0
   -3.7500   -1.2990    0.0000 C   0  0  0  0  0  0  0  0  0  0  0  0
   -0.7500    1.2990    0.0000 C   0  0  0  0  0  0  0  0  0  0  0  0
    0.7500    1.2990    0.0000 C   0  0  0  0  0  0  0  0  0  0  0  0
  1  2  1  0
  2  3  1  0
  2  4  1  0
  4  5  2  0
  4  6  1  0
  6  7  1  0
  7  8  2  0
  8  9  1  0
  9 10  1  0
 10 11  2  0
 11 12  1  0
 12 13  2  0
 13 14  1  0
 14 15  2  0
  9 16  1  0
 16 17  1  0
 17  6  1  0
 15 10  1  0
M  END
>  <Title>  (821) 
idABDQgen6

$$$$

     RDKit          2D

 36 37  0  0  0  0  0  0  0  0999 V2000
    7.9603    0.0000    0.0000 C   0  0  0  0  0  0  0  0  0  0  0  0
    6.4603    0.0000    0.0000 C   0  0  0  0  0  0  0  0  0  0  0  0
    6.2862    1.4899    0.0000 C   0  0  0  0  0  0  0  0  0  0  0  0
    5.7732    2.8994    0.0000 C   0  0  0  0  0  0  0  0  0  0  0  0
    4.9489    4.1526    0.0000 C   0  0  0  0  0  0  0  0  0  0  0  0
    3.8578    5.1820    0.0000 C   0  0  0  0  0  0  0  0  0  0  0  0
    2.5588    5.9320    0.0000 C   0  0  0  0  0  0  0  0  0  0  0  0
    1.1218    6.3622    0.0000 C   0  0  0  0  0  0  0  0  0  0  0  0
    1.9461    7.6154    0.0000 O   0  0  0  0  0  0  0  0  0  0  0  0
    1.2729    8.9559    0.0000 C   0  0  0  0  0  0  0  0  0  0  0  0
    2.0972   10.2091    0.0000 O   0  0  0  0  0  0  0  0  0  0  0  0
   -0.2246    9.0431    0.0000 C   0  0  0  0  0  0  0  0  0  0  0  0
   -0.8978   10.3835    0.0000 N   0  0  0  0  0  0  0  0  0  0  0  0
   -0.0735   11.6368    0.0000 C   0  0  0  0  0  0  0  0  0  0  0  0
   -2.3952   10.4708    0.0000 C   0  0  0  0  0  0  0  0  0  0  0  0
   -1.0488    7.7899    0.0000 N   0  0  0  0  0  0  0  0  0  0  0  0
   -0.3756    6.4494    0.0000 C   0  0  0  0  0  0  0  0  0  0  0  0
   -1.8528    6.1889    0.0000 C   0  0  0  0  0  0  0  0  0  0  0  0
   -3.2302    5.5948    0.0000 C   0  0  0  0  0  0  0  0  0  0  0  0
   -4.4334    4.6991    0.0000 C   0  0  0  0  0  0  0  0  0  0  0  0
   -5.3975    3.5500    0.0000 C   0  0  0  0  0  0  0  0  0  0  0  0
   -6.0707    2.2096    0.0000 C   0  0  0  0  0  0  0  0  0  0  0  0
   -6.4167    0.7500    0.0000 C   0  0  0  0  0  0  0  0  0  0  0  0
   -6.4167   -0.7500    0.0000 C   0  0  0  0  0  0  0  0  0  0  0  0
   -6.0707   -2.2096    0.0000 C   0  0  0  0  0  0  0  0  0  0  0  0
   -5.3975   -3.5500    0.0000 C   0  0  0  0  0  0  0  0  0  0  0  0
   -4.4334   -4.6991    0.0000 C   0  0  0  0  0  0  0  0  0  0  0  0
   -3.2302   -5.5948    0.0000 C   0  0  0  0  0  0  0  0  0  0  0  0
   -1.8528   -6.1889    0.0000 C   0  0  0  0  0  0  0  0  0  0  0  0
   -0.3756   -6.4494    0.0000 C   0  0  0  0  0  0  0  0  0  0  0  0
    1.1218   -6.3622    0.0000 C   0  0  0  0  0  0  0  0  0  0  0  0
    2.5588   -5.9320    0.0000 C   0  0  0  0  0  0  0  0  0  0  0  0
    3.8578   -5.1820    0.0000 C   0  0  0  0  0  0  0  0  0  0  0  0
    4.9489   -4.1526    0.0000 C   0  0  0  0  0  0  0  0  0  0  0  0
    5.7732   -2.8994    0.0000 C   0  0  0  0  0  0  0  0  0  0  0  0
    6.2862   -1.4899    0.0000 C   0  0  0  0  0  0  0  0  0  0  0  0
  1  2  1  0
  2  3  1  0
  3  4  2  0
  4  5  1  0
  5  6  2  0
  6  7  1  0
  7  8  2  0
  8  9  1  0
  9 10  1  0
 10 11  2  0
 10 12  1  0
 12 13  1  0
 13 14  1  0
 13 15  1  0
 12 16  2  0
 16 17  1  0
 17 18  2  0
 18 19  1  0
 19 20  2  0
 20 21  1  0
 21 22  2  0
 22 23  1  0
 23 24  2  0
 24 25  1  0
 25 26  2  0
 26 27  1  0
 27 28  1  0
 28 29  1  0
 29 30  1  0
 30 31  1  0
 31 32  1  0
 32 33  1  0
 33 34  1  0
 34 35  1  0
 35 36  1  0
 36  2  1  0
 17  8  1  0
M  END
>  <Title>  (822) 
idABDRgen6

$$$$

     RDKit          2D

 19 21  0  0  0  0  0  0  0  0999 V2000
   -4.5813   -9.9130    0.0000 C   0  0  0  0  0  0  0  0  0  0  0  0
   -3.2110   -9.3029    0.0000 C   0  0  0  0  0  0  0  0  0  0  0  0
   -1.9975  -10.1845    0.0000 O   0  0  0  0  0  0  0  0  0  0  0  0
   -3.0542   -7.8111    0.0000 O   0  0  0  0  0  0  0  0  0  0  0  0
   -1.6839   -7.2010    0.0000 C   0  0  0  0  0  0  0  0  0  0  0  0
   -0.4704   -8.0826    0.0000 O   0  0  0  0  0  0  0  0  0  0  0  0
   -1.5271   -5.7092    0.0000 C   0  0  0  0  0  0  0  0  0  0  0  0
   -0.1568   -5.0991    0.0000 C   0  0  0  0  0  0  0  0  0  0  0  0
   -0.0000   -3.6073    0.0000 C   0  0  0  0  0  0  0  0  0  0  0  0
    1.2135   -2.7256    0.0000 N   0  0  0  0  0  0  0  0  0  0  0  0
    0.7500   -1.2990    0.0000 C   0  0  0  0  0  0  0  0  0  0  0  0
    1.5000    0.0000    0.0000 C   0  0  0  0  0  0  0  0  0  0  0  0
    0.7500    1.2990    0.0000 C   0  0  0  0  0  0  0  0  0  0  0  0
   -0.7500    1.2990    0.0000 C   0  0  0  0  0  0  0  0  0  0  0  0
   -1.5000    0.0000    0.0000 C   0  0  0  0  0  0  0  0  0  0  0  0
   -0.7500   -1.2990    0.0000 C   0  0  0  0  0  0  0  0  0  0  0  0
   -1.2135   -2.7256    0.0000 C   0  0  0  0  0  0  0  0  0  0  0  0
   -2.5838   -3.3357    0.0000 C   0  0  0  0  0  0  0  0  0  0  0  0
   -2.7406   -4.8275    0.0000 C   0  0  0  0  0  0  0  0  0  0  0  0
  1  2  1  0
  2  3  2  0
  2  4  1  0
  4  5  1  0
  5  6  2  0
  5  7  1  0
  7  8  1  0
  8  9  2  0
  9 10  1  0
 10 11  1  0
 11 12  2  0
 12 13  1  0
 13 14  2  0
 14 15  1  0
 15 16  2  0
 16 17  1  0
 17 18  1  0
 18 19  1  0
 19  7  1  0
 17  9  1  0
 16 11  1  0
M  END
>  <Title>  (823) 
idABDSgen6

$$$$

     RDKit          2D

 16 18  0  0  0  0  0  0  0  0999 V2000
   -4.3301   -3.0000    0.0000 O   0  0  0  0  0  0  0  0  0  0  0  0
   -4.3301   -1.5000    0.0000 C   0  0  0  0  0  0  0  0  0  0  0  0
   -5.6292   -0.7500    0.0000 N   0  0  0  0  0  0  0  0  0  0  0  0
   -6.9282   -1.5000    0.0000 C   0  0  0  0  0  0  0  0  0  0  0  0
   -8.2272   -0.7500    0.0000 C   0  0  0  0  0  0  0  0  0  0  0  0
   -9.5263   -1.5000    0.0000 C   0  0  0  0  0  0  0  0  0  0  0  0
   -9.5263   -3.0000    0.0000 C   0  0  0  0  0  0  0  0  0  0  0  0
   -8.2272   -3.7500    0.0000 C   0  0  0  0  0  0  0  0  0  0  0  0
   -6.9282   -3.0000    0.0000 C   0  0  0  0  0  0  0  0  0  0  0  0
   -3.0311   -0.7500    0.0000 N   0  0  0  0  0  0  0  0  0  0  0  0
   -3.0311    0.7500    0.0000 C   0  0  0  0  0  0  0  0  0  0  0  0
   -1.7321    1.5000    0.0000 C   0  0  0  0  0  0  0  0  0  0  0  0
   -0.4330    0.7500    0.0000 C   0  0  0  0  0  0  0  0  0  0  0  0
    0.8660    0.0000    0.0000 O   0  0  0  0  0  0  0  0  0  0  0  0
   -0.4330   -0.7500    0.0000 C   0  0  0  0  0  0  0  0  0  0  0  0
   -1.7321   -1.5000    0.0000 C   0  0  0  0  0  0  0  0  0  0  0  0
  1  2  2  0
  2  3  1  0
  3  4  1  0
  4  5  2  0
  5  6  1  0
  6  7  2  0
  7  8  1  0
  8  9  2  0
  2 10  1  0
 10 11  1  0
 11 12  1  0
 12 13  1  0
 13 14  1  0
 14 15  1  0
 15 16  1  0
  9  4  1  0
 16 10  1  0
 15 13  1  0
M  END
>  <Title>  (824) 
idABDTgen6

$$$$

     RDKit          2D

 15 15  0  0  0  0  0  0  0  0999 V2000
    4.8705    0.0000    0.0000 C   0  0  0  0  0  0  0  0  0  0  0  0
    3.3705    0.0000    0.0000 C   0  0  0  0  0  0  0  0  0  0  0  0
    3.0367   -1.4624    0.0000 C   0  0  0  0  0  0  0  0  0  0  0  0
    2.1015   -2.6351    0.0000 C   0  0  0  0  0  0  0  0  0  0  0  0
    0.7500   -3.2860    0.0000 C   0  0  0  0  0  0  0  0  0  0  0  0
   -0.7500   -3.2860    0.0000 C   0  0  0  0  0  0  0  0  0  0  0  0
   -2.1015   -2.6351    0.0000 C   0  0  0  0  0  0  0  0  0  0  0  0
   -3.0367   -1.4624    0.0000 C   0  0  0  0  0  0  0  0  0  0  0  0
   -3.3705    0.0000    0.0000 C   0  0  0  0  0  0  0  0  0  0  0  0
   -3.0367    1.4624    0.0000 C   0  0  0  0  0  0  0  0  0  0  0  0
   -2.1015    2.6351    0.0000 C   0  0  0  0  0  0  0  0  0  0  0  0
   -0.7500    3.2860    0.0000 C   0  0  0  0  0  0  0  0  0  0  0  0
    0.7500    3.2860    0.0000 C   0  0  0  0  0  0  0  0  0  0  0  0
    2.1015    2.6351    0.0000 C   0  0  0  0  0  0  0  0  0  0  0  0
    3.0367    1.4624    0.0000 C   0  0  0  0  0  0  0  0  0  0  0  0
  1  2  1  0
  2  3  1  0
  3  4  1  0
  4  5  1  0
  5  6  1  0
  6  7  1  0
  7  8  1  0
  8  9  1  0
  9 10  1  0
 10 11  1  0
 11 12  1  0
 12 13  1  0
 13 14  1  0
 14 15  1  0
 15  2  1  0
M  END
>  <Title>  (825) 
idABDUgen6

$$$$

     RDKit          2D

 35 39  0  0  0  0  0  0  0  0999 V2000
   -0.0000   -7.0525    0.0000 C   0  0  0  0  0  0  0  0  0  0  0  0
   -0.0000   -5.5525    0.0000 C   0  0  0  0  0  0  0  0  0  0  0  0
    1.4095   -5.0395    0.0000 C   0  0  0  0  0  0  0  0  0  0  0  0
    2.1595   -3.7404    0.0000 C   0  0  0  0  0  0  0  0  0  0  0  0
    1.8991   -2.2632    0.0000 C   0  0  0  0  0  0  0  0  0  0  0  0
    3.1981   -1.5132    0.0000 C   0  0  0  0  0  0  0  0  0  0  0  0
    0.7500   -1.2990    0.0000 C   0  0  0  0  0  0  0  0  0  0  0  0
    1.5000    0.0000    0.0000 C   0  0  0  0  0  0  0  0  0  0  0  0
    0.7500    1.2990    0.0000 C   0  0  0  0  0  0  0  0  0  0  0  0
   -0.7500    1.2990    0.0000 C   0  0  0  0  0  0  0  0  0  0  0  0
   -1.5000    0.0000    0.0000 C   0  0  0  0  0  0  0  0  0  0  0  0
   -0.7500   -1.2990    0.0000 C   0  0  0  0  0  0  0  0  0  0  0  0
   -1.8991   -2.2632    0.0000 C   0  0  0  0  0  0  0  0  0  0  0  0
   -3.1981   -1.5132    0.0000 C   0  0  0  0  0  0  0  0  0  0  0  0
   -3.1981   -0.0132    0.0000 O   0  0  0  0  0  0  0  0  0  0  0  0
   -4.4971   -2.2632    0.0000 N   0  0  0  0  0  0  0  0  0  0  0  0
   -5.7962   -1.5132    0.0000 C   0  0  0  0  0  0  0  0  0  0  0  0
   -5.9530   -0.0214    0.0000 N   0  0  0  0  0  0  0  0  0  0  0  0
   -7.4202    0.2904    0.0000 N   0  0  0  0  0  0  0  0  0  0  0  0
   -8.1702   -1.0086    0.0000 N   0  0  0  0  0  0  0  0  0  0  0  0
   -7.1665   -2.1233    0.0000 N   0  0  0  0  0  0  0  0  0  0  0  0
   -7.4784   -3.5905    0.0000 C   0  0  0  0  0  0  0  0  0  0  0  0
   -8.8487   -4.2007    0.0000 C   0  0  0  0  0  0  0  0  0  0  0  0
   -8.6919   -5.6924    0.0000 C   0  0  0  0  0  0  0  0  0  0  0  0
   -9.8066   -6.6961    0.0000 C   0  0  0  0  0  0  0  0  0  0  0  0
   -9.4947   -8.1634    0.0000 C   0  0  0  0  0  0  0  0  0  0  0  0
  -10.6095   -9.1670    0.0000 C   0  0  0  0  0  0  0  0  0  0  0  0
  -12.0360   -8.7035    0.0000 C   0  0  0  0  0  0  0  0  0  0  0  0
  -12.3479   -7.2363    0.0000 C   0  0  0  0  0  0  0  0  0  0  0  0
  -11.2332   -6.2326    0.0000 C   0  0  0  0  0  0  0  0  0  0  0  0
   -7.2247   -6.0043    0.0000 C   0  0  0  0  0  0  0  0  0  0  0  0
   -6.4747   -4.7053    0.0000 C   0  0  0  0  0  0  0  0  0  0  0  0
   -2.1595   -3.7404    0.0000 C   0  0  0  0  0  0  0  0  0  0  0  0
   -3.6368   -4.0009    0.0000 O   0  0  0  0  0  0  0  0  0  0  0  0
   -1.4095   -5.0395    0.0000 C   0  0  0  0  0  0  0  0  0  0  0  0
  1  2  1  0
  2  3  2  0
  3  4  1  0
  4  5  2  0
  5  6  1  0
  5  7  1  0
  7  8  2  0
  8  9  1  0
  9 10  2  0
 10 11  1  0
 11 12  2  0
 12 13  1  0
 13 14  1  0
 14 15  2  0
 14 16  1  0
 16 17  1  0
 17 18  2  0
 18 19  1  0
 19 20  2  0
 20 21  1  0
 21 22  1  0
 22 23  2  0
 23 24  1  0
 24 25  1  0
 25 26  2  0
 26 27  1  0
 27 28  2  0
 28 29  1  0
 29 30  2  0
 24 31  1  0
 31 32  1  0
 13 33  1  0
 33 34  1  0
 33 35  1  0
 35  2  1  0
 12  7  1  0
 21 17  1  0
 32 22  1  0
 30 25  1  0
M  END
>  <Title>  (826) 
idABDVgen6

$$$$

     RDKit          2D

 10 10  0  0  0  0  0  0  0  0999 V2000
    7.5000    0.0000    0.0000 C   0  0  0  0  0  0  0  0  0  0  0  0
    6.0000    0.0000    0.0000 C   0  0  0  0  0  0  0  0  0  0  0  0
    4.5000    0.0000    0.0000 C   0  0  0  0  0  0  0  0  0  0  0  0
    3.0000    0.0000    0.0000 C   0  0  0  0  0  0  0  0  0  0  0  0
    1.5000    0.0000    0.0000 C   0  0  0  0  0  0  0  0  0  0  0  0
    0.7500   -1.2990    0.0000 C   0  0  0  0  0  0  0  0  0  0  0  0
   -0.7500   -1.2990    0.0000 C   0  0  0  0  0  0  0  0  0  0  0  0
   -1.5000    0.0000    0.0000 C   0  0  0  0  0  0  0  0  0  0  0  0
   -0.7500    1.2990    0.0000 C   0  0  0  0  0  0  0  0  0  0  0  0
    0.7500    1.2990    0.0000 C   0  0  0  0  0  0  0  0  0  0  0  0
  1  2  3  0
  2  3  1  0
  3  4  3  0
  4  5  1  0
  5  6  2  0
  6  7  1  0
  7  8  2  0
  8  9  1  0
  9 10  2  0
 10  5  1  0
M  END
>  <Title>  (827) 
idABDWgen6

$$$$

     RDKit          2D

 33 36  0  0  0  0  0  0  0  0999 V2000
   -3.1455   -1.1277    0.0000 C   0  0  0  0  0  0  0  0  0  0  0  0
   -2.0119   -2.1100    0.0000 C   0  0  0  0  0  0  0  0  0  0  0  0
   -2.6350   -3.4744    0.0000 C   0  0  0  0  0  0  0  0  0  0  0  0
   -2.4215   -4.9592    0.0000 C   0  0  0  0  0  0  0  0  0  0  0  0
   -1.4392   -6.0928    0.0000 C   0  0  0  0  0  0  0  0  0  0  0  0
   -0.0000   -6.5154    0.0000 C   0  0  0  0  0  0  0  0  0  0  0  0
    1.4392   -6.0928    0.0000 C   0  0  0  0  0  0  0  0  0  0  0  0
    2.4215   -4.9592    0.0000 C   0  0  0  0  0  0  0  0  0  0  0  0
    2.6350   -3.4744    0.0000 C   0  0  0  0  0  0  0  0  0  0  0  0
    2.0119   -2.1100    0.0000 C   0  0  0  0  0  0  0  0  0  0  0  0
    3.1455   -1.1277    0.0000 N   0  0  0  0  0  0  0  0  0  0  0  0
    4.5630   -1.6183    0.0000 C   0  0  0  0  0  0  0  0  0  0  0  0
    4.8469   -3.0912    0.0000 O   0  0  0  0  0  0  0  0  0  0  0  0
    5.6966   -0.6360    0.0000 C   0  0  0  0  0  0  0  0  0  0  0  0
    5.5683    0.8585    0.0000 C   0  0  0  0  0  0  0  0  0  0  0  0
    6.9500    1.4424    0.0000 C   0  0  0  0  0  0  0  0  0  0  0  0
    7.9322    0.3088    0.0000 C   0  0  0  0  0  0  0  0  0  0  0  0
    9.4267    0.4371    0.0000 C   0  0  0  0  0  0  0  0  0  0  0  0
   10.0628    1.7956    0.0000 O   0  0  0  0  0  0  0  0  0  0  0  0
   10.2852   -0.7930    0.0000 N   0  0  0  0  0  0  0  0  0  0  0  0
   11.7797   -0.6646    0.0000 C   0  0  0  0  0  0  0  0  0  0  0  0
   12.6381   -1.8947    0.0000 C   0  0  0  0  0  0  0  0  0  0  0  0
   14.1326   -1.7663    0.0000 C   0  0  0  0  0  0  0  0  0  0  0  0
   14.7686   -0.4079    0.0000 C   0  0  0  0  0  0  0  0  0  0  0  0
   13.9102    0.8222    0.0000 C   0  0  0  0  0  0  0  0  0  0  0  0
   12.4157    0.6938    0.0000 C   0  0  0  0  0  0  0  0  0  0  0  0
    7.1576   -0.9758    0.0000 C   0  0  0  0  0  0  0  0  0  0  0  0
    0.7500   -1.2990    0.0000 C   0  0  0  0  0  0  0  0  0  0  0  0
    1.5000    0.0000    0.0000 C   0  0  0  0  0  0  0  0  0  0  0  0
    0.7500    1.2990    0.0000 C   0  0  0  0  0  0  0  0  0  0  0  0
   -0.7500    1.2990    0.0000 C   0  0  0  0  0  0  0  0  0  0  0  0
   -1.5000    0.0000    0.0000 C   0  0  0  0  0  0  0  0  0  0  0  0
   -0.7500   -1.2990    0.0000 C   0  0  0  0  0  0  0  0  0  0  0  0
  1  2  1  0
  2  3  1  0
  3  4  2  0
  4  5  1  0
  5  6  2  0
  6  7  1  0
  7  8  1  0
  8  9  1  0
  9 10  1  0
 10 11  1  0
 11 12  1  0
 12 13  2  0
 12 14  1  0
 14 15  2  0
 15 16  1  0
 16 17  2  0
 17 18  1  0
 18 19  2  0
 18 20  1  0
 20 21  1  0
 21 22  2  0
 22 23  1  0
 23 24  2  0
 24 25  1  0
 25 26  2  0
 17 27  1  0
 10 28  1  0
 28 29  2  0
 29 30  1  0
 30 31  2  0
 31 32  1  0
 32 33  2  0
 33  2  1  0
 27 14  1  0
 33 28  1  0
 26 21  1  0
M  END
>  <Title>  (828) 
idABDXgen6

$$$$

     RDKit          2D

 25 27  0  0  0  0  0  0  0  0999 V2000
    3.2286   -0.0000    0.0000 C   0  0  0  0  0  0  0  0  0  0  0  0
    1.7286    0.0000    0.0000 C   0  0  0  0  0  0  0  0  0  0  0  0
    1.0777    1.3515    0.0000 C   0  0  0  0  0  0  0  0  0  0  0  0
   -0.3846    1.6852    0.0000 C   0  0  0  0  0  0  0  0  0  0  0  0
   -0.7184    3.1476    0.0000 N   0  0  0  0  0  0  0  0  0  0  0  0
   -2.0977    3.7372    0.0000 C   0  0  0  0  0  0  0  0  0  0  0  0
   -1.9633    5.2311    0.0000 C   0  0  0  0  0  0  0  0  0  0  0  0
   -0.5009    5.5649    0.0000 C   0  0  0  0  0  0  0  0  0  0  0  0
    0.0887    6.9442    0.0000 C   0  0  0  0  0  0  0  0  0  0  0  0
   -0.8111    8.1444    0.0000 O   0  0  0  0  0  0  0  0  0  0  0  0
    1.5779    7.1233    0.0000 N   0  0  0  0  0  0  0  0  0  0  0  0
    2.1675    8.5026    0.0000 C   0  0  0  0  0  0  0  0  0  0  0  0
    3.6567    8.6817    0.0000 N   0  0  0  0  0  0  0  0  0  0  0  0
    4.2463   10.0610    0.0000 N   0  0  0  0  0  0  0  0  0  0  0  0
    3.3466   11.2612    0.0000 N   0  0  0  0  0  0  0  0  0  0  0  0
    1.8573   11.0821    0.0000 N   0  0  0  0  0  0  0  0  0  0  0  0
    1.2677    9.7028    0.0000 N   0  0  0  0  0  0  0  0  0  0  0  0
    0.2685    4.2772    0.0000 C   0  0  0  0  0  0  0  0  0  0  0  0
   -1.5574    0.7500    0.0000 C   0  0  0  0  0  0  0  0  0  0  0  0
   -1.5574   -0.7500    0.0000 C   0  0  0  0  0  0  0  0  0  0  0  0
   -0.3846   -1.6852    0.0000 C   0  0  0  0  0  0  0  0  0  0  0  0
    1.0777   -1.3515    0.0000 C   0  0  0  0  0  0  0  0  0  0  0  0
    2.0130   -2.5242    0.0000 C   0  0  0  0  0  0  0  0  0  0  0  0
    3.4962   -2.3006    0.0000 O   0  0  0  0  0  0  0  0  0  0  0  0
    1.4650   -3.9205    0.0000 O   0  0  0  0  0  0  0  0  0  0  0  0
  1  2  1  0
  2  3  2  0
  3  4  1  0
  4  5  1  0
  5  6  1  0
  6  7  1  0
  7  8  1  0
  8  9  1  0
  9 10  2  0
  9 11  1  0
 11 12  1  0
 12 13  2  0
 13 14  1  0
 14 15  2  0
 15 16  1  0
 16 17  2  0
  8 18  1  0
  4 19  1  0
 19 20  2  0
 20 21  1  0
 21 22  2  0
 22 23  1  0
 23 24  2  0
 23 25  1  0
 22  2  1  0
 18  5  1  0
 17 12  1  0
M  END
>  <Title>  (829) 
idABDYgen6

$$$$

     RDKit          2D

 28 31  0  0  0  0  0  0  0  0999 V2000
   -5.2500   -3.8971    0.0000 C   0  0  0  0  0  0  0  0  0  0  0  0
   -3.7500   -3.8971    0.0000 C   0  0  0  0  0  0  0  0  0  0  0  0
   -3.0000   -5.1962    0.0000 O   0  0  0  0  0  0  0  0  0  0  0  0
   -3.0000   -2.5981    0.0000 N   0  0  0  0  0  0  0  0  0  0  0  0
   -1.5000   -2.5981    0.0000 C   0  0  0  0  0  0  0  0  0  0  0  0
   -0.7500   -3.8971    0.0000 C   0  0  0  0  0  0  0  0  0  0  0  0
    0.7500   -3.8971    0.0000 C   0  0  0  0  0  0  0  0  0  0  0  0
    1.5000   -2.5981    0.0000 C   0  0  0  0  0  0  0  0  0  0  0  0
    3.0000   -2.5981    0.0000 O   0  0  0  0  0  0  0  0  0  0  0  0
    3.7500   -3.8971    0.0000 C   0  0  0  0  0  0  0  0  0  0  0  0
    5.2500   -3.8971    0.0000 C   0  0  0  0  0  0  0  0  0  0  0  0
    6.0000   -5.1962    0.0000 C   0  0  0  0  0  0  0  0  0  0  0  0
    7.5000   -5.1962    0.0000 C   0  0  0  0  0  0  0  0  0  0  0  0
    8.2500   -3.8971    0.0000 C   0  0  0  0  0  0  0  0  0  0  0  0
    7.5000   -2.5981    0.0000 C   0  0  0  0  0  0  0  0  0  0  0  0
    6.0000   -2.5981    0.0000 C   0  0  0  0  0  0  0  0  0  0  0  0
    5.2500   -1.2990    0.0000 C   0  0  0  0  0  0  0  0  0  0  0  0
    6.0000    0.0000    0.0000 C   0  0  0  0  0  0  0  0  0  0  0  0
    5.2500    1.2990    0.0000 C   0  0  0  0  0  0  0  0  0  0  0  0
    3.7500    1.2990    0.0000 C   0  0  0  0  0  0  0  0  0  0  0  0
    3.0000    0.0000    0.0000 C   0  0  0  0  0  0  0  0  0  0  0  0
    3.7500   -1.2990    0.0000 C   0  0  0  0  0  0  0  0  0  0  0  0
    0.7500   -1.2990    0.0000 C   0  0  0  0  0  0  0  0  0  0  0  0
    1.5000    0.0000    0.0000 C   0  0  0  0  0  0  0  0  0  0  0  0
    0.7500    1.2990    0.0000 C   0  0  0  0  0  0  0  0  0  0  0  0
   -0.7500    1.2990    0.0000 C   0  0  0  0  0  0  0  0  0  0  0  0
   -1.5000    0.0000    0.0000 C   0  0  0  0  0  0  0  0  0  0  0  0
   -0.7500   -1.2990    0.0000 C   0  0  0  0  0  0  0  0  0  0  0  0
  1  2  1  0
  2  3  2  0
  2  4  1  0
  4  5  1  0
  5  6  2  0
  6  7  1  0
  7  8  2  0
  8  9  1  0
  9 10  1  0
 10 11  1  0
 11 12  2  0
 12 13  1  0
 13 14  2  0
 14 15  1  0
 15 16  2  0
 16 17  1  0
 17 18  2  0
 18 19  1  0
 19 20  2  0
 20 21  1  0
 21 22  2  0
  8 23  1  0
 23 24  2  0
 24 25  1  0
 25 26  2  0
 26 27  1  0
 27 28  2  0
 28  5  1  0
 16 11  1  0
 22 17  1  0
 28 23  1  0
M  END
>  <Title>  (830) 
idABDZgen6

$$$$

     RDKit          2D

 11 11  0  0  0  0  0  0  0  0999 V2000
    5.2500   -1.2990    0.0000 C   0  0  0  0  0  0  0  0  0  0  0  0
    3.7500   -1.2990    0.0000 C   0  0  0  0  0  0  0  0  0  0  0  0
    3.0000   -2.5981    0.0000 O   0  0  0  0  0  0  0  0  0  0  0  0
    3.0000    0.0000    0.0000 C   0  0  0  0  0  0  0  0  0  0  0  0
    3.7500    1.2990    0.0000 O   0  0  0  0  0  0  0  0  0  0  0  0
    1.5000    0.0000    0.0000 C   0  0  0  0  0  0  0  0  0  0  0  0
    0.7500   -1.2990    0.0000 N   0  0  0  0  0  0  0  0  0  0  0  0
   -0.7500   -1.2990    0.0000 N   0  0  0  0  0  0  0  0  0  0  0  0
   -1.5000    0.0000    0.0000 N   0  0  0  0  0  0  0  0  0  0  0  0
   -0.7500    1.2990    0.0000 N   0  0  0  0  0  0  0  0  0  0  0  0
    0.7500    1.2990    0.0000 N   0  0  0  0  0  0  0  0  0  0  0  0
  1  2  1  0
  2  3  2  0
  2  4  1  0
  4  5  2  0
  4  6  1  0
  6  7  2  0
  7  8  1  0
  8  9  2  0
  9 10  1  0
 10 11  2  0
 11  6  1  0
M  END
>  <Title>  (831) 
idABEAgen6

$$$$

     RDKit          2D

 37 41  0  0  0  0  0  0  0  0999 V2000
   -2.7413   -3.9271    0.0000 C   0  0  0  0  0  0  0  0  0  0  0  0
   -2.7413   -2.4271    0.0000 C   0  0  0  0  0  0  0  0  0  0  0  0
   -4.1679   -1.9635    0.0000 C   0  0  0  0  0  0  0  0  0  0  0  0
   -5.0495   -0.7500    0.0000 C   0  0  0  0  0  0  0  0  0  0  0  0
   -5.0495    0.7500    0.0000 C   0  0  0  0  0  0  0  0  0  0  0  0
   -6.4761    1.2135    0.0000 C   0  0  0  0  0  0  0  0  0  0  0  0
   -7.5908    0.2098    0.0000 O   0  0  0  0  0  0  0  0  0  0  0  0
   -6.7880    2.6807    0.0000 O   0  0  0  0  0  0  0  0  0  0  0  0
   -8.2146    3.1443    0.0000 C   0  0  0  0  0  0  0  0  0  0  0  0
   -8.5264    4.6115    0.0000 N   0  0  0  0  0  0  0  0  0  0  0  0
   -9.9530    5.0750    0.0000 N   0  0  0  0  0  0  0  0  0  0  0  0
  -11.0677    4.0713    0.0000 N   0  0  0  0  0  0  0  0  0  0  0  0
  -10.7559    2.6041    0.0000 N   0  0  0  0  0  0  0  0  0  0  0  0
   -9.3293    2.1406    0.0000 N   0  0  0  0  0  0  0  0  0  0  0  0
   -4.1679    1.9635    0.0000 C   0  0  0  0  0  0  0  0  0  0  0  0
   -2.7413    2.4271    0.0000 C   0  0  0  0  0  0  0  0  0  0  0  0
   -1.3147    1.9635    0.0000 C   0  0  0  0  0  0  0  0  0  0  0  0
   -0.4330    0.7500    0.0000 C   0  0  0  0  0  0  0  0  0  0  0  0
    0.8660    0.0000    0.0000 C   0  0  0  0  0  0  0  0  0  0  0  0
    2.3660    0.0000    0.0000 O   0  0  0  0  0  0  0  0  0  0  0  0
   -0.4330   -0.7500    0.0000 N   0  0  0  0  0  0  0  0  0  0  0  0
   -1.3147   -1.9635    0.0000 C   0  0  0  0  0  0  0  0  0  0  0  0
   -0.4330   -3.1771    0.0000 C   0  0  0  0  0  0  0  0  0  0  0  0
   -1.0431   -4.5474    0.0000 C   0  0  0  0  0  0  0  0  0  0  0  0
   -0.1614   -5.7609    0.0000 C   0  0  0  0  0  0  0  0  0  0  0  0
   -0.7715   -7.1312    0.0000 C   0  0  0  0  0  0  0  0  0  0  0  0
   -0.0215   -8.4303    0.0000 C   0  0  0  0  0  0  0  0  0  0  0  0
   -1.0252   -9.5450    0.0000 C   0  0  0  0  0  0  0  0  0  0  0  0
   -2.3956   -8.9349    0.0000 C   0  0  0  0  0  0  0  0  0  0  0  0
   -3.6946   -9.6849    0.0000 O   0  0  0  0  0  0  0  0  0  0  0  0
   -4.9936   -8.9349    0.0000 C   0  0  0  0  0  0  0  0  0  0  0  0
   -4.9936   -7.4349    0.0000 C   0  0  0  0  0  0  0  0  0  0  0  0
   -6.2927   -6.6849    0.0000 N   0  0  0  0  0  0  0  0  0  0  0  0
   -7.5917   -7.4349    0.0000 N   0  0  0  0  0  0  0  0  0  0  0  0
   -7.5917   -8.9349    0.0000 N   0  0  0  0  0  0  0  0  0  0  0  0
   -6.2927   -9.6849    0.0000 N   0  0  0  0  0  0  0  0  0  0  0  0
   -2.2388   -7.4431    0.0000 C   0  0  0  0  0  0  0  0  0  0  0  0
  1  2  1  0
  2  3  1  0
  3  4  1  0
  4  5  1  0
  5  6  1  0
  6  7  2  0
  6  8  1  0
  8  9  1  0
  9 10  2  0
 10 11  1  0
 11 12  2  0
 12 13  1  0
 13 14  2  0
  5 15  1  0
 15 16  2  0
 16 17  1  0
 17 18  2  0
 18 19  1  0
 19 20  2  0
 19 21  1  0
 21 22  1  0
 22 23  2  3
 23 24  1  0
 24 25  2  3
 25 26  1  0
 26 27  2  0
 27 28  1  0
 28 29  2  0
 29 30  1  0
 30 31  1  0
 31 32  2  0
 32 33  1  0
 33 34  2  0
 34 35  1  0
 35 36  2  0
 29 37  1  0
 22  2  1  0
 37 26  1  0
 14  9  1  0
 21 18  1  0
 36 31  1  0
M  END
>  <Title>  (832) 
idABEBgen6

$$$$

     RDKit          2D

 11 12  0  0  0  0  0  0  0  0999 V2000
    3.0000    0.0000    0.0000 C   0  0  0  0  0  0  0  0  0  0  0  0
    1.5000    0.0000    0.0000 C   0  0  0  0  0  0  0  0  0  0  0  0
    0.7500   -1.2990    0.0000 C   0  0  0  0  0  0  0  0  0  0  0  0
   -0.7500   -1.2990    0.0000 C   0  0  0  0  0  0  0  0  0  0  0  0
   -1.5000    0.0000    0.0000 C   0  0  0  0  0  0  0  0  0  0  0  0
   -2.9672    0.3119    0.0000 C   0  0  0  0  0  0  0  0  0  0  0  0
   -3.1240    1.8037    0.0000 C   0  0  0  0  0  0  0  0  0  0  0  0
   -1.7537    2.4138    0.0000 N   0  0  0  0  0  0  0  0  0  0  0  0
   -1.4418    3.8810    0.0000 C   0  0  0  0  0  0  0  0  0  0  0  0
   -0.7500    1.2990    0.0000 C   0  0  0  0  0  0  0  0  0  0  0  0
    0.7500    1.2990    0.0000 C   0  0  0  0  0  0  0  0  0  0  0  0
  1  2  1  0
  2  3  2  0
  3  4  1  0
  4  5  2  0
  5  6  1  0
  6  7  2  0
  7  8  1  0
  8  9  1  0
  8 10  1  0
 10 11  2  0
 11  2  1  0
 10  5  1  0
M  END
>  <Title>  (833) 
idABECgen6

$$$$

     RDKit          2D

 14 15  0  0  0  0  0  0  0  0999 V2000
    5.2500   -1.2990    0.0000 C   0  0  0  0  0  0  0  0  0  0  0  0
    3.7500   -1.2990    0.0000 C   0  0  0  0  0  0  0  0  0  0  0  0
    3.0000   -2.5981    0.0000 O   0  0  0  0  0  0  0  0  0  0  0  0
    3.0000    0.0000    0.0000 C   0  0  0  0  0  0  0  0  0  0  0  0
    3.7500    1.2990    0.0000 O   0  0  0  0  0  0  0  0  0  0  0  0
    1.5000    0.0000    0.0000 N   0  0  0  0  0  0  0  0  0  0  0  0
    0.7500   -1.2990    0.0000 C   0  0  0  0  0  0  0  0  0  0  0  0
   -0.7500   -1.2990    0.0000 C   0  0  0  0  0  0  0  0  0  0  0  0
   -1.5000    0.0000    0.0000 C   0  0  0  0  0  0  0  0  0  0  0  0
   -0.7500    1.2990    0.0000 C   0  0  0  0  0  0  0  0  0  0  0  0
    0.7500    1.2990    0.0000 C   0  0  0  0  0  0  0  0  0  0  0  0
   -0.3647    2.3027    0.0000 N   0  0  0  0  0  0  0  0  0  0  0  0
   -1.6638    1.5527    0.0000 C   0  0  0  0  0  0  0  0  0  0  0  0
   -3.0341    2.1628    0.0000 O   0  0  0  0  0  0  0  0  0  0  0  0
  1  2  1  0
  2  3  2  0
  2  4  1  0
  4  5  2  0
  4  6  1  0
  6  7  1  0
  7  8  1  0
  8  9  1  0
  9 10  1  0
 10 11  2  0
 11 12  1  0
 12 13  1  0
 13 14  2  0
 11  6  1  0
 13  9  1  0
M  END
>  <Title>  (834) 
idABEDgen6

$$$$

     RDKit          2D

 24 26  0  0  0  0  0  0  0  0999 V2000
   -4.4971   -2.2632    0.0000 C   0  0  0  0  0  0  0  0  0  0  0  0
   -3.1981   -1.5132    0.0000 O   0  0  0  0  0  0  0  0  0  0  0  0
   -1.8991   -2.2632    0.0000 C   0  0  0  0  0  0  0  0  0  0  0  0
   -2.1595   -3.7404    0.0000 C   0  0  0  0  0  0  0  0  0  0  0  0
   -1.4095   -5.0395    0.0000 C   0  0  0  0  0  0  0  0  0  0  0  0
   -0.0000   -5.5525    0.0000 C   0  0  0  0  0  0  0  0  0  0  0  0
    1.4095   -5.0395    0.0000 C   0  0  0  0  0  0  0  0  0  0  0  0
    2.1595   -3.7404    0.0000 C   0  0  0  0  0  0  0  0  0  0  0  0
    1.8991   -2.2632    0.0000 C   0  0  0  0  0  0  0  0  0  0  0  0
    3.1981   -1.5132    0.0000 C   0  0  0  0  0  0  0  0  0  0  0  0
    3.1981   -0.0132    0.0000 O   0  0  0  0  0  0  0  0  0  0  0  0
    4.4971   -2.2632    0.0000 N   0  0  0  0  0  0  0  0  0  0  0  0
    5.7962   -1.5132    0.0000 C   0  0  0  0  0  0  0  0  0  0  0  0
    7.0952   -2.2632    0.0000 N   0  0  0  0  0  0  0  0  0  0  0  0
    8.3943   -1.5132    0.0000 N   0  0  0  0  0  0  0  0  0  0  0  0
    8.3943   -0.0132    0.0000 N   0  0  0  0  0  0  0  0  0  0  0  0
    7.0952    0.7368    0.0000 N   0  0  0  0  0  0  0  0  0  0  0  0
    5.7962   -0.0132    0.0000 N   0  0  0  0  0  0  0  0  0  0  0  0
    0.7500   -1.2990    0.0000 C   0  0  0  0  0  0  0  0  0  0  0  0
    1.5000    0.0000    0.0000 C   0  0  0  0  0  0  0  0  0  0  0  0
    0.7500    1.2990    0.0000 C   0  0  0  0  0  0  0  0  0  0  0  0
   -0.7500    1.2990    0.0000 C   0  0  0  0  0  0  0  0  0  0  0  0
   -1.5000    0.0000    0.0000 C   0  0  0  0  0  0  0  0  0  0  0  0
   -0.7500   -1.2990    0.0000 C   0  0  0  0  0  0  0  0  0  0  0  0
  1  2  1  0
  2  3  1  0
  3  4  1  0
  4  5  2  0
  5  6  1  0
  6  7  1  0
  7  8  1  0
  8  9  1  0
  9 10  1  0
 10 11  2  0
 10 12  1  0
 12 13  1  0
 13 14  2  0
 14 15  1  0
 15 16  2  0
 16 17  1  0
 17 18  2  0
  9 19  1  0
 19 20  2  0
 20 21  1  0
 21 22  2  0
 22 23  1  0
 23 24  2  0
 24  3  1  0
 18 13  1  0
 24 19  1  0
M  END
>  <Title>  (835) 
idABEEgen6

$$$$

     RDKit          2D

 11 11  0  0  0  0  0  0  0  0999 V2000
    6.0000   -2.5981    0.0000 C   0  0  0  0  0  0  0  0  0  0  0  0
    5.2500   -1.2990    0.0000 C   0  0  0  0  0  0  0  0  0  0  0  0
    6.0000    0.0000    0.0000 O   0  0  0  0  0  0  0  0  0  0  0  0
    3.7500   -1.2990    0.0000 N   0  0  0  0  0  0  0  0  0  0  0  0
    3.0000    0.0000    0.0000 C   0  0  0  0  0  0  0  0  0  0  0  0
    1.5000    0.0000    0.0000 C   0  0  0  0  0  0  0  0  0  0  0  0
    0.7500   -1.2990    0.0000 C   0  0  0  0  0  0  0  0  0  0  0  0
   -0.7500   -1.2990    0.0000 C   0  0  0  0  0  0  0  0  0  0  0  0
   -1.5000    0.0000    0.0000 C   0  0  0  0  0  0  0  0  0  0  0  0
   -0.7500    1.2990    0.0000 C   0  0  0  0  0  0  0  0  0  0  0  0
    0.7500    1.2990    0.0000 C   0  0  0  0  0  0  0  0  0  0  0  0
  1  2  1  0
  2  3  2  0
  2  4  1  0
  4  5  1  0
  5  6  1  0
  6  7  2  0
  7  8  1  0
  8  9  2  0
  9 10  1  0
 10 11  2  0
 11  6  1  0
M  END
>  <Title>  (836) 
idABEFgen6

$$$$

     RDKit          2D

 18 19  0  0  0  0  0  0  0  0999 V2000
    6.0000   -2.5981    0.0000 C   0  0  0  0  0  0  0  0  0  0  0  0
    5.2500   -1.2990    0.0000 C   0  0  0  0  0  0  0  0  0  0  0  0
    3.7500   -1.2990    0.0000 C   0  0  0  0  0  0  0  0  0  0  0  0
    3.0000   -2.5981    0.0000 O   0  0  0  0  0  0  0  0  0  0  0  0
    3.0000    0.0000    0.0000 C   0  0  0  0  0  0  0  0  0  0  0  0
    3.7500    1.2990    0.0000 O   0  0  0  0  0  0  0  0  0  0  0  0
    1.5000    0.0000    0.0000 N   0  0  0  0  0  0  0  0  0  0  0  0
    0.7500   -1.2990    0.0000 C   0  0  0  0  0  0  0  0  0  0  0  0
   -0.7500   -1.2990    0.0000 C   0  0  0  0  0  0  0  0  0  0  0  0
   -1.5000    0.0000    0.0000 C   0  0  0  0  0  0  0  0  0  0  0  0
   -3.0000    0.0000    0.0000 C   0  0  0  0  0  0  0  0  0  0  0  0
   -3.7500    1.2990    0.0000 C   0  0  0  0  0  0  0  0  0  0  0  0
   -5.2500    1.2990    0.0000 C   0  0  0  0  0  0  0  0  0  0  0  0
   -6.0000    0.0000    0.0000 C   0  0  0  0  0  0  0  0  0  0  0  0
   -5.2500   -1.2990    0.0000 C   0  0  0  0  0  0  0  0  0  0  0  0
   -3.7500   -1.2990    0.0000 C   0  0  0  0  0  0  0  0  0  0  0  0
   -0.7500    1.2990    0.0000 C   0  0  0  0  0  0  0  0  0  0  0  0
    0.7500    1.2990    0.0000 C   0  0  0  0  0  0  0  0  0  0  0  0
  1  2  1  0
  2  3  1  0
  3  4  2  0
  3  5  1  0
  5  6  2  0
  5  7  1  0
  7  8  1  0
  8  9  1  0
  9 10  1  0
 10 11  1  0
 11 12  2  0
 12 13  1  0
 13 14  2  0
 14 15  1  0
 15 16  2  0
 10 17  1  0
 17 18  1  0
 18  7  1  0
 16 11  1  0
M  END
>  <Title>  (837) 
idABEGgen6

$$$$

     RDKit          2D

  8  7  0  0  0  0  0  0  0  0999 V2000
    0.0000    0.0000    0.0000 C   0  0  0  0  0  0  0  0  0  0  0  0
    1.2990    0.7500    0.0000 C   0  0  0  0  0  0  0  0  0  0  0  0
    2.5981    1.5000    0.0000 C   0  0  0  0  0  0  0  0  0  0  0  0
    0.5490    2.0490    0.0000 O   0  0  0  0  0  0  0  0  0  0  0  0
    2.0490   -0.5490    0.0000 C   0  0  0  0  0  0  0  0  0  0  0  0
    2.7990   -1.8481    0.0000 C   0  0  0  0  0  0  0  0  0  0  0  0
    3.5490   -3.1471    0.0000 C   0  0  0  0  0  0  0  0  0  0  0  0
    4.2990   -4.4462    0.0000 N   0  0  0  0  0  0  0  0  0  0  0  0
  1  2  1  0
  2  3  1  0
  2  4  1  0
  2  5  1  0
  5  6  3  0
  6  7  1  0
  7  8  3  0
M  END
>  <Title>  (838) 
idABEHgen6

$$$$

     RDKit          2D

 45 49  0  0  0  0  0  0  0  0999 V2000
    3.0020   -0.6956    0.0000 C   0  0  0  0  0  0  0  0  0  0  0  0
    2.1203   -1.9091    0.0000 C   0  0  0  0  0  0  0  0  0  0  0  0
    0.7500   -1.2990    0.0000 C   0  0  0  0  0  0  0  0  0  0  0  0
    1.5000    0.0000    0.0000 C   0  0  0  0  0  0  0  0  0  0  0  0
    0.7500    1.2990    0.0000 C   0  0  0  0  0  0  0  0  0  0  0  0
   -0.7500    1.2990    0.0000 C   0  0  0  0  0  0  0  0  0  0  0  0
   -1.5000    0.0000    0.0000 C   0  0  0  0  0  0  0  0  0  0  0  0
   -0.7500   -1.2990    0.0000 C   0  0  0  0  0  0  0  0  0  0  0  0
   -2.1203   -1.9091    0.0000 N   0  0  0  0  0  0  0  0  0  0  0  0
   -3.0020   -0.6956    0.0000 C   0  0  0  0  0  0  0  0  0  0  0  0
   -2.7673    0.7859    0.0000 C   0  0  0  0  0  0  0  0  0  0  0  0
   -4.2489    1.0206    0.0000 C   0  0  0  0  0  0  0  0  0  0  0  0
   -5.1306    2.2341    0.0000 N   0  0  0  0  0  0  0  0  0  0  0  0
   -4.5204    3.6044    0.0000 C   0  0  0  0  0  0  0  0  0  0  0  0
   -5.4021    4.8179    0.0000 C   0  0  0  0  0  0  0  0  0  0  0  0
   -6.8939    4.6611    0.0000 C   0  0  0  0  0  0  0  0  0  0  0  0
   -7.7756    5.8747    0.0000 C   0  0  0  0  0  0  0  0  0  0  0  0
   -9.2674    5.7179    0.0000 O   0  0  0  0  0  0  0  0  0  0  0  0
   -7.1655    7.2450    0.0000 N   0  0  0  0  0  0  0  0  0  0  0  0
   -8.0472    8.4585    0.0000 C   0  0  0  0  0  0  0  0  0  0  0  0
   -7.4371    9.8288    0.0000 C   0  0  0  0  0  0  0  0  0  0  0  0
   -8.3187   11.0424    0.0000 C   0  0  0  0  0  0  0  0  0  0  0  0
   -9.8105   10.8856    0.0000 C   0  0  0  0  0  0  0  0  0  0  0  0
  -10.6922   12.0991    0.0000 C   0  0  0  0  0  0  0  0  0  0  0  0
  -11.5739   13.3126    0.0000 C   0  0  0  0  0  0  0  0  0  0  0  0
  -11.9057   11.2174    0.0000 F   0  0  0  0  0  0  0  0  0  0  0  0
   -9.4787   12.9808    0.0000 F   0  0  0  0  0  0  0  0  0  0  0  0
  -10.4206    9.5152    0.0000 C   0  0  0  0  0  0  0  0  0  0  0  0
   -9.5389    8.3017    0.0000 C   0  0  0  0  0  0  0  0  0  0  0  0
   -7.5040    3.2908    0.0000 C   0  0  0  0  0  0  0  0  0  0  0  0
   -6.6223    2.0773    0.0000 C   0  0  0  0  0  0  0  0  0  0  0  0
   -4.4835   -0.4610    0.0000 C   0  0  0  0  0  0  0  0  0  0  0  0
   -5.6971   -1.3426    0.0000 O   0  0  0  0  0  0  0  0  0  0  0  0
   -3.1240   -3.0239    0.0000 C   0  0  0  0  0  0  0  0  0  0  0  0
   -3.5875   -4.4504    0.0000 C   0  0  0  0  0  0  0  0  0  0  0  0
   -3.4307   -5.9422    0.0000 C   0  0  0  0  0  0  0  0  0  0  0  0
   -2.6807   -7.2413    0.0000 C   0  0  0  0  0  0  0  0  0  0  0  0
   -1.4672   -8.1229    0.0000 C   0  0  0  0  0  0  0  0  0  0  0  0
   -0.0000   -8.4348    0.0000 C   0  0  0  0  0  0  0  0  0  0  0  0
    1.4672   -8.1229    0.0000 C   0  0  0  0  0  0  0  0  0  0  0  0
    2.6807   -7.2413    0.0000 C   0  0  0  0  0  0  0  0  0  0  0  0
    3.4307   -5.9422    0.0000 C   0  0  0  0  0  0  0  0  0  0  0  0
    3.5875   -4.4504    0.0000 C   0  0  0  0  0  0  0  0  0  0  0  0
    3.1240   -3.0239    0.0000 C   0  0  0  0  0  0  0  0  0  0  0  0
    4.4231   -2.2739    0.0000 O   0  0  0  0  0  0  0  0  0  0  0  0
  1  2  1  0
  2  3  1  0
  3  4  2  0
  4  5  1  0
  5  6  2  0
  6  7  1  0
  7  8  2  0
  8  9  1  0
  9 10  1  0
 10 11  2  0
 11 12  1  0
 12 13  1  0
 13 14  1  0
 14 15  1  0
 15 16  1  0
 16 17  1  0
 17 18  2  0
 17 19  1  0
 19 20  1  0
 20 21  2  0
 21 22  1  0
 22 23  2  0
 23 24  1  0
 24 25  1  0
 24 26  1  0
 24 27  1  0
 23 28  1  0
 28 29  2  0
 16 30  1  0
 30 31  1  0
 12 32  1  0
 32 33  2  0
  9 34  1  0
 34 35  1  0
 35 36  1  0
 36 37  1  0
 37 38  1  0
 38 39  1  0
 39 40  1  0
 40 41  1  0
 41 42  1  0
 42 43  1  0
 43 44  1  0
 44 45  1  0
 44  2  1  0
  8  3  1  0
 32 10  1  0
 31 13  1  0
 29 20  1  0
M  END
>  <Title>  (839) 
idABEIgen6

$$$$

     RDKit          2D

 47 51  0  0  0  0  0  0  0  0999 V2000
   -2.9384   -0.5656    0.0000 C   0  0  0  0  0  0  0  0  0  0  0  0
   -2.1487   -1.8409    0.0000 C   0  0  0  0  0  0  0  0  0  0  0  0
   -3.2572   -2.8514    0.0000 C   0  0  0  0  0  0  0  0  0  0  0  0
   -3.9258   -4.1942    0.0000 C   0  0  0  0  0  0  0  0  0  0  0  0
   -4.0642   -5.6878    0.0000 C   0  0  0  0  0  0  0  0  0  0  0  0
   -3.6537   -7.1305    0.0000 C   0  0  0  0  0  0  0  0  0  0  0  0
   -2.7498   -8.3276    0.0000 C   0  0  0  0  0  0  0  0  0  0  0  0
   -1.4745   -9.1172    0.0000 C   0  0  0  0  0  0  0  0  0  0  0  0
   -0.0000   -9.3928    0.0000 C   0  0  0  0  0  0  0  0  0  0  0  0
   -0.0000  -10.8928    0.0000 C   0  0  0  0  0  0  0  0  0  0  0  0
   -1.2990  -11.6428    0.0000 O   0  0  0  0  0  0  0  0  0  0  0  0
    0.6366  -11.3726    0.0000 O   0  0  0  0  0  0  0  0  0  0  0  0
    1.4745   -9.1172    0.0000 C   0  0  0  0  0  0  0  0  0  0  0  0
    2.0163  -10.5159    0.0000 C   0  0  0  0  0  0  0  0  0  0  0  0
    1.5960  -11.1933    0.0000 O   0  0  0  0  0  0  0  0  0  0  0  0
    3.4986  -10.7460    0.0000 N   0  0  0  0  0  0  0  0  0  0  0  0
    4.0404  -12.1447    0.0000 C   0  0  0  0  0  0  0  0  0  0  0  0
    5.5227  -12.3748    0.0000 N   0  0  0  0  0  0  0  0  0  0  0  0
    6.0645  -13.7735    0.0000 N   0  0  0  0  0  0  0  0  0  0  0  0
    5.1242  -14.9421    0.0000 N   0  0  0  0  0  0  0  0  0  0  0  0
    3.6419  -14.7120    0.0000 N   0  0  0  0  0  0  0  0  0  0  0  0
    3.1000  -13.3133    0.0000 N   0  0  0  0  0  0  0  0  0  0  0  0
    2.7498   -8.3276    0.0000 C   0  0  0  0  0  0  0  0  0  0  0  0
    3.6537   -7.1305    0.0000 C   0  0  0  0  0  0  0  0  0  0  0  0
    4.0642   -5.6878    0.0000 C   0  0  0  0  0  0  0  0  0  0  0  0
    3.9258   -4.1942    0.0000 C   0  0  0  0  0  0  0  0  0  0  0  0
    5.4179   -4.3479    0.0000 N   0  0  0  0  0  0  0  0  0  0  0  0
    6.4621   -5.4248    0.0000 C   0  0  0  0  0  0  0  0  0  0  0  0
    7.8312   -4.8119    0.0000 O   0  0  0  0  0  0  0  0  0  0  0  0
    6.5698   -6.9209    0.0000 C   0  0  0  0  0  0  0  0  0  0  0  0
    8.0126   -7.3314    0.0000 C   0  0  0  0  0  0  0  0  0  0  0  0
    8.3784   -8.7861    0.0000 C   0  0  0  0  0  0  0  0  0  0  0  0
    9.8212   -9.1966    0.0000 C   0  0  0  0  0  0  0  0  0  0  0  0
   10.8981   -8.1524    0.0000 C   0  0  0  0  0  0  0  0  0  0  0  0
   10.5322   -6.6977    0.0000 C   0  0  0  0  0  0  0  0  0  0  0  0
    9.0894   -6.2872    0.0000 C   0  0  0  0  0  0  0  0  0  0  0  0
    5.6907   -8.1362    0.0000 C   0  0  0  0  0  0  0  0  0  0  0  0
    4.2360   -8.5021    0.0000 C   0  0  0  0  0  0  0  0  0  0  0  0
    3.2572   -2.8514    0.0000 C   0  0  0  0  0  0  0  0  0  0  0  0
    4.4542   -1.9475    0.0000 O   0  0  0  0  0  0  0  0  0  0  0  0
    2.1487   -1.8409    0.0000 N   0  0  0  0  0  0  0  0  0  0  0  0
    0.7500   -1.2990    0.0000 C   0  0  0  0  0  0  0  0  0  0  0  0
    1.5000    0.0000    0.0000 C   0  0  0  0  0  0  0  0  0  0  0  0
    0.7500    1.2990    0.0000 C   0  0  0  0  0  0  0  0  0  0  0  0
   -0.7500    1.2990    0.0000 C   0  0  0  0  0  0  0  0  0  0  0  0
   -1.5000    0.0000    0.0000 C   0  0  0  0  0  0  0  0  0  0  0  0
   -0.7500   -1.2990    0.0000 C   0  0  0  0  0  0  0  0  0  0  0  0
  1  2  1  0
  2  3  1  0
  3  4  1  0
  4  5  1  0
  5  6  1  0
  6  7  1  0
  7  8  1  0
  8  9  1  0
  9 10  1  0
 10 11  2  0
 10 12  1  0
  9 13  1  0
 13 14  1  0
 14 15  2  0
 14 16  1  0
 16 17  1  0
 17 18  2  0
 18 19  1  0
 19 20  2  0
 20 21  1  0
 21 22  2  0
 13 23  1  0
 23 24  2  0
 24 25  1  0
 25 26  2  0
 26 27  1  0
 27 28  1  0
 28 29  2  0
 28 30  1  0
 30 31  1  0
 31 32  2  0
 32 33  1  0
 33 34  2  0
 34 35  1  0
 35 36  2  0
 30 37  1  0
 37 38  2  0
 26 39  1  0
 39 40  2  0
 39 41  1  0
 41 42  1  0
 42 43  2  0
 43 44  1  0
 44 45  2  0
 45 46  1  0
 46 47  2  0
 47  2  1  0
 22 17  1  0
 38 23  1  0
 47 42  1  0
 36 31  1  0
M  END
>  <Title>  (840) 
idABEJgen6

$$$$

     RDKit          2D

  9  9  0  0  0  0  0  0  0  0999 V2000
    3.5260   -1.2990    0.0000 C   0  0  0  0  0  0  0  0  0  0  0  0
    2.7760    0.0000    0.0000 C   0  0  0  0  0  0  0  0  0  0  0  0
    1.2760    0.0000    0.0000 C   0  0  0  0  0  0  0  0  0  0  0  0
    0.3943    1.2135    0.0000 C   0  0  0  0  0  0  0  0  0  0  0  0
    0.8578    2.6401    0.0000 C   0  0  0  0  0  0  0  0  0  0  0  0
   -1.0323    0.7500    0.0000 C   0  0  0  0  0  0  0  0  0  0  0  0
   -1.0323   -0.7500    0.0000 C   0  0  0  0  0  0  0  0  0  0  0  0
    0.3943   -1.2135    0.0000 C   0  0  0  0  0  0  0  0  0  0  0  0
    0.8578   -2.6401    0.0000 O   0  0  0  0  0  0  0  0  0  0  0  0
  1  2  1  0
  2  3  1  0
  3  4  1  0
  4  5  1  0
  4  6  1  0
  6  7  1  0
  7  8  1  0
  8  9  1  0
  8  3  1  0
M  END
>  <Title>  (841) 
idABEKgen6

$$$$

     RDKit          2D

 50 53  0  0  0  0  0  0  0  0999 V2000
    5.9147    3.2498    0.0000 C   0  0  0  0  0  0  0  0  0  0  0  0
    4.4315    3.4734    0.0000 C   0  0  0  0  0  0  0  0  0  0  0  0
    3.8835    4.8697    0.0000 O   0  0  0  0  0  0  0  0  0  0  0  0
    3.4962    2.3006    0.0000 C   0  0  0  0  0  0  0  0  0  0  0  0
    2.0130    2.5242    0.0000 C   0  0  0  0  0  0  0  0  0  0  0  0
    1.0777    1.3515    0.0000 C   0  0  0  0  0  0  0  0  0  0  0  0
    1.7286    0.0000    0.0000 C   0  0  0  0  0  0  0  0  0  0  0  0
    1.0777   -1.3515    0.0000 C   0  0  0  0  0  0  0  0  0  0  0  0
   -0.3846   -1.6852    0.0000 C   0  0  0  0  0  0  0  0  0  0  0  0
   -0.7184   -3.1476    0.0000 O   0  0  0  0  0  0  0  0  0  0  0  0
   -2.1518   -3.5898    0.0000 C   0  0  0  0  0  0  0  0  0  0  0  0
   -2.6366   -5.0093    0.0000 C   0  0  0  0  0  0  0  0  0  0  0  0
   -4.1364   -4.9868    0.0000 C   0  0  0  0  0  0  0  0  0  0  0  0
   -4.5786   -3.5535    0.0000 C   0  0  0  0  0  0  0  0  0  0  0  0
   -5.9981   -3.0686    0.0000 O   0  0  0  0  0  0  0  0  0  0  0  0
   -6.2879   -1.5969    0.0000 C   0  0  0  0  0  0  0  0  0  0  0  0
   -5.1583   -0.6100    0.0000 O   0  0  0  0  0  0  0  0  0  0  0  0
   -7.7074   -1.1121    0.0000 N   0  0  0  0  0  0  0  0  0  0  0  0
   -7.9973    0.3596    0.0000 C   0  0  0  0  0  0  0  0  0  0  0  0
   -6.8677    1.3465    0.0000 N   0  0  0  0  0  0  0  0  0  0  0  0
   -7.1576    2.8183    0.0000 N   0  0  0  0  0  0  0  0  0  0  0  0
   -8.5771    3.3031    0.0000 N   0  0  0  0  0  0  0  0  0  0  0  0
   -9.7067    2.3162    0.0000 N   0  0  0  0  0  0  0  0  0  0  0  0
   -9.4168    0.8444    0.0000 N   0  0  0  0  0  0  0  0  0  0  0  0
   -3.3520   -2.6900    0.0000 C   0  0  0  0  0  0  0  0  0  0  0  0
   -1.5574   -0.7500    0.0000 C   0  0  0  0  0  0  0  0  0  0  0  0
   -1.5574    0.7500    0.0000 C   0  0  0  0  0  0  0  0  0  0  0  0
   -2.9088    1.4008    0.0000 O   0  0  0  0  0  0  0  0  0  0  0  0
   -0.3846    1.6852    0.0000 C   0  0  0  0  0  0  0  0  0  0  0  0
    4.0442    0.9043    0.0000 N   0  0  0  0  0  0  0  0  0  0  0  0
    5.5275    0.6808    0.0000 C   0  0  0  0  0  0  0  0  0  0  0  0
    6.4627    1.8535    0.0000 O   0  0  0  0  0  0  0  0  0  0  0  0
    6.0755   -0.7155    0.0000 C   0  0  0  0  0  0  0  0  0  0  0  0
    5.1403   -1.8883    0.0000 C   0  0  0  0  0  0  0  0  0  0  0  0
    5.6883   -3.2846    0.0000 C   0  0  0  0  0  0  0  0  0  0  0  0
    7.1715   -3.5082    0.0000 C   0  0  0  0  0  0  0  0  0  0  0  0
    7.7195   -4.9045    0.0000 C   0  0  0  0  0  0  0  0  0  0  0  0
    6.7843   -6.0772    0.0000 C   0  0  0  0  0  0  0  0  0  0  0  0
    5.3011   -5.8537    0.0000 C   0  0  0  0  0  0  0  0  0  0  0  0
    4.7530   -4.4574    0.0000 C   0  0  0  0  0  0  0  0  0  0  0  0
    7.5587   -0.9391    0.0000 N   0  0  0  0  0  0  0  0  0  0  0  0
    8.4940    0.2336    0.0000 C   0  0  0  0  0  0  0  0  0  0  0  0
    7.9460    1.6299    0.0000 O   0  0  0  0  0  0  0  0  0  0  0  0
    9.9772    0.0101    0.0000 C   0  0  0  0  0  0  0  0  0  0  0  0
   10.9125    1.1828    0.0000 C   0  0  0  0  0  0  0  0  0  0  0  0
   10.3644    2.5791    0.0000 O   0  0  0  0  0  0  0  0  0  0  0  0
   12.3957    0.9593    0.0000 O   0  0  0  0  0  0  0  0  0  0  0  0
   10.5252   -1.3862    0.0000 C   0  0  0  0  0  0  0  0  0  0  0  0
    9.5900   -2.5590    0.0000 O   0  0  0  0  0  0  0  0  0  0  0  0
   12.0085   -1.6098    0.0000 O   0  0  0  0  0  0  0  0  0  0  0  0
  1  2  1  0
  2  3  2  0
  2  4  1  0
  4  5  1  0
  5  6  1  0
  6  7  2  0
  7  8  1  0
  8  9  2  0
  9 10  1  0
 10 11  1  0
 11 12  2  0
 12 13  1  0
 13 14  2  0
 14 15  1  0
 15 16  1  0
 16 17  2  0
 16 18  1  0
 18 19  1  0
 19 20  2  0
 20 21  1  0
 21 22  2  0
 22 23  1  0
 23 24  2  0
 14 25  1  0
  9 26  1  0
 26 27  1  0
 27 28  1  0
 27 29  1  0
  4 30  1  0
 30 31  1  0
 31 32  2  0
 31 33  1  0
 33 34  1  0
 34 35  1  0
 35 36  2  0
 36 37  1  0
 37 38  2  0
 38 39  1  0
 39 40  2  0
 33 41  1  0
 41 42  1  0
 42 43  2  0
 42 44  1  0
 44 45  1  0
 45 46  2  0
 45 47  1  0
 44 48  1  0
 48 49  2  0
 48 50  1  0
 29  6  1  0
 40 35  1  0
 25 11  1  0
 24 19  1  0
M  END
>  <Title>  (842) 
idABELgen6

$$$$

     RDKit          2D

  3  2  0  0  0  0  0  0  0  0999 V2000
    0.0000    0.0000    0.0000 C   0  0  0  0  0  0  0  0  0  0  0  0
    1.2990    0.7500    0.0000 O   0  0  0  0  0  0  0  0  0  0  0  0
    2.5981   -0.0000    0.0000 C   0  0  0  0  0  0  0  0  0  0  0  0
  1  2  1  0
  2  3  1  0
M  END
>  <Title>  (843) 
idABEMgen6

$$$$

     RDKit          2D

 17 18  0  0  0  0  0  0  0  0999 V2000
    3.2286   -0.0000    0.0000 C   0  0  0  0  0  0  0  0  0  0  0  0
    1.7286    0.0000    0.0000 C   0  0  0  0  0  0  0  0  0  0  0  0
    1.0777    1.3515    0.0000 C   0  0  0  0  0  0  0  0  0  0  0  0
   -0.3846    1.6852    0.0000 C   0  0  0  0  0  0  0  0  0  0  0  0
   -1.5574    0.7500    0.0000 C   0  0  0  0  0  0  0  0  0  0  0  0
   -1.5574   -0.7500    0.0000 C   0  0  0  0  0  0  0  0  0  0  0  0
   -0.3846   -1.6852    0.0000 C   0  0  0  0  0  0  0  0  0  0  0  0
   -0.7184   -3.1476    0.0000 C   0  0  0  0  0  0  0  0  0  0  0  0
    0.3812   -4.1679    0.0000 O   0  0  0  0  0  0  0  0  0  0  0  0
   -2.1518   -3.5898    0.0000 N   0  0  0  0  0  0  0  0  0  0  0  0
   -2.4856   -5.0522    0.0000 C   0  0  0  0  0  0  0  0  0  0  0  0
   -3.9189   -5.4943    0.0000 N   0  0  0  0  0  0  0  0  0  0  0  0
   -4.2527   -6.9567    0.0000 N   0  0  0  0  0  0  0  0  0  0  0  0
   -3.1531   -7.9769    0.0000 N   0  0  0  0  0  0  0  0  0  0  0  0
   -1.7198   -7.5348    0.0000 N   0  0  0  0  0  0  0  0  0  0  0  0
   -1.3860   -6.0724    0.0000 N   0  0  0  0  0  0  0  0  0  0  0  0
    1.0777   -1.3515    0.0000 C   0  0  0  0  0  0  0  0  0  0  0  0
  1  2  1  0
  2  3  1  0
  3  4  1  0
  4  5  1  0
  5  6  1  0
  6  7  1  0
  7  8  1  0
  8  9  2  0
  8 10  1  0
 10 11  1  0
 11 12  2  0
 12 13  1  0
 13 14  2  0
 14 15  1  0
 15 16  2  0
  7 17  1  0
 17  2  1  0
 16 11  1  0
M  END
>  <Title>  (844) 
idABENgen6

$$$$

     RDKit          2D

 33 37  0  0  0  0  0  0  0  0999 V2000
   -3.4300   -8.0397    0.0000 C   0  0  0  0  0  0  0  0  0  0  0  0
   -2.7490   -6.7032    0.0000 C   0  0  0  0  0  0  0  0  0  0  0  0
   -3.8097   -5.6425    0.0000 C   0  0  0  0  0  0  0  0  0  0  0  0
   -4.0443   -4.1610    0.0000 C   0  0  0  0  0  0  0  0  0  0  0  0
   -3.3634   -2.8245    0.0000 C   0  0  0  0  0  0  0  0  0  0  0  0
   -4.4240   -1.7638    0.0000 C   0  0  0  0  0  0  0  0  0  0  0  0
   -4.0358   -0.3150    0.0000 O   0  0  0  0  0  0  0  0  0  0  0  0
   -5.8729   -2.1521    0.0000 N   0  0  0  0  0  0  0  0  0  0  0  0
   -6.9336   -1.0914    0.0000 C   0  0  0  0  0  0  0  0  0  0  0  0
   -6.5453    0.3575    0.0000 N   0  0  0  0  0  0  0  0  0  0  0  0
   -7.6060    1.4181    0.0000 N   0  0  0  0  0  0  0  0  0  0  0  0
   -9.0549    1.0299    0.0000 N   0  0  0  0  0  0  0  0  0  0  0  0
   -9.4431   -0.4190    0.0000 N   0  0  0  0  0  0  0  0  0  0  0  0
   -8.3825   -1.4796    0.0000 N   0  0  0  0  0  0  0  0  0  0  0  0
   -1.8107   -2.3597    0.0000 C   0  0  0  0  0  0  0  0  0  0  0  0
   -1.8107   -3.8597    0.0000 C   0  0  0  0  0  0  0  0  0  0  0  0
   -0.7500   -4.9204    0.0000 C   0  0  0  0  0  0  0  0  0  0  0  0
    0.7500   -4.9204    0.0000 C   0  0  0  0  0  0  0  0  0  0  0  0
    1.8107   -3.8597    0.0000 C   0  0  0  0  0  0  0  0  0  0  0  0
    3.1965   -4.4337    0.0000 O   0  0  0  0  0  0  0  0  0  0  0  0
    1.8107   -2.3597    0.0000 O   0  0  0  0  0  0  0  0  0  0  0  0
    0.7500   -1.2990    0.0000 C   0  0  0  0  0  0  0  0  0  0  0  0
    1.5000    0.0000    0.0000 C   0  0  0  0  0  0  0  0  0  0  0  0
    0.7500    1.2990    0.0000 C   0  0  0  0  0  0  0  0  0  0  0  0
   -0.7500    1.2990    0.0000 C   0  0  0  0  0  0  0  0  0  0  0  0
   -1.5000    0.0000    0.0000 C   0  0  0  0  0  0  0  0  0  0  0  0
   -0.7500   -1.2990    0.0000 C   0  0  0  0  0  0  0  0  0  0  0  0
    0.0690   -6.2569    0.0000 C   0  0  0  0  0  0  0  0  0  0  0  0
    1.3270   -7.0738    0.0000 C   0  0  0  0  0  0  0  0  0  0  0  0
    1.2485   -8.5718    0.0000 C   0  0  0  0  0  0  0  0  0  0  0  0
   -0.0880   -9.2528    0.0000 C   0  0  0  0  0  0  0  0  0  0  0  0
   -1.3460   -8.4358    0.0000 C   0  0  0  0  0  0  0  0  0  0  0  0
   -1.2675   -6.9379    0.0000 C   0  0  0  0  0  0  0  0  0  0  0  0
  1  2  1  0
  2  3  1  0
  3  4  1  0
  4  5  1  0
  5  6  1  0
  6  7  2  0
  6  8  1  0
  8  9  1  0
  9 10  2  0
 10 11  1  0
 11 12  2  0
 12 13  1  0
 13 14  2  0
  5 15  1  0
 15 16  2  0
 16 17  1  0
 17 18  2  0
 18 19  1  0
 19 20  2  0
 19 21  1  0
 21 22  1  0
 22 23  2  0
 23 24  1  0
 24 25  2  0
 25 26  1  0
 26 27  2  0
 18 28  1  0
 28 29  2  0
 29 30  1  0
 30 31  2  0
 31 32  1  0
 32 33  2  0
 33  2  1  0
 14  9  1  0
 27 15  1  0
 33 28  1  0
 27 22  1  0
M  END
>  <Title>  (845) 
idABEOgen6

$$$$

     RDKit          2D

  9  9  0  0  0  0  0  0  0  0999 V2000
    2.7760    0.0000    0.0000 C   0  0  0  0  0  0  0  0  0  0  0  0
    1.2760    0.0000    0.0000 C   0  0  0  0  0  0  0  0  0  0  0  0
    0.3943    1.2135    0.0000 C   0  0  0  0  0  0  0  0  0  0  0  0
   -1.0323    0.7500    0.0000 C   0  0  0  0  0  0  0  0  0  0  0  0
   -1.0323   -0.7500    0.0000 C   0  0  0  0  0  0  0  0  0  0  0  0
   -2.2458   -1.6317    0.0000 N   0  0  0  0  0  0  0  0  0  0  0  0
   -3.6161   -1.0216    0.0000 C   0  0  0  0  0  0  0  0  0  0  0  0
   -2.0890   -3.1235    0.0000 C   0  0  0  0  0  0  0  0  0  0  0  0
    0.3943   -1.2135    0.0000 C   0  0  0  0  0  0  0  0  0  0  0  0
  1  2  1  0
  2  3  1  0
  3  4  1  0
  4  5  1  0
  5  6  1  0
  6  7  1  0
  6  8  1  0
  5  9  1  0
  9  2  1  0
M  END
>  <Title>  (846) 
idABEPgen6

$$$$

     RDKit          2D

 35 38  0  0  0  0  0  0  0  0999 V2000
   -5.2417   -4.0269    0.0000 C   0  0  0  0  0  0  0  0  0  0  0  0
   -3.7705   -4.3195    0.0000 C   0  0  0  0  0  0  0  0  0  0  0  0
   -3.7705   -5.8195    0.0000 C   0  0  0  0  0  0  0  0  0  0  0  0
   -3.1965   -7.2054    0.0000 C   0  0  0  0  0  0  0  0  0  0  0  0
   -2.1358   -8.2660    0.0000 C   0  0  0  0  0  0  0  0  0  0  0  0
   -0.7500   -8.8400    0.0000 C   0  0  0  0  0  0  0  0  0  0  0  0
    0.7500   -8.8400    0.0000 C   0  0  0  0  0  0  0  0  0  0  0  0
    2.1358   -8.2660    0.0000 C   0  0  0  0  0  0  0  0  0  0  0  0
    3.1965   -7.2054    0.0000 C   0  0  0  0  0  0  0  0  0  0  0  0
    3.7705   -5.8195    0.0000 C   0  0  0  0  0  0  0  0  0  0  0  0
    3.7705   -4.3195    0.0000 C   0  0  0  0  0  0  0  0  0  0  0  0
    5.2417   -4.0269    0.0000 C   0  0  0  0  0  0  0  0  0  0  0  0
    5.7238   -2.6065    0.0000 O   0  0  0  0  0  0  0  0  0  0  0  0
    6.2307   -5.1547    0.0000 N   0  0  0  0  0  0  0  0  0  0  0  0
    7.7019   -4.8620    0.0000 C   0  0  0  0  0  0  0  0  0  0  0  0
    8.6909   -5.9898    0.0000 N   0  0  0  0  0  0  0  0  0  0  0  0
   10.1621   -5.6972    0.0000 N   0  0  0  0  0  0  0  0  0  0  0  0
   10.6442   -4.2768    0.0000 N   0  0  0  0  0  0  0  0  0  0  0  0
    9.6552   -3.1490    0.0000 N   0  0  0  0  0  0  0  0  0  0  0  0
    8.1840   -3.4416    0.0000 N   0  0  0  0  0  0  0  0  0  0  0  0
    3.1965   -2.9337    0.0000 C   0  0  0  0  0  0  0  0  0  0  0  0
    4.4437   -2.1004    0.0000 O   0  0  0  0  0  0  0  0  0  0  0  0
    2.1358   -1.8731    0.0000 O   0  0  0  0  0  0  0  0  0  0  0  0
    0.7500   -1.2990    0.0000 C   0  0  0  0  0  0  0  0  0  0  0  0
    1.5000    0.0000    0.0000 C   0  0  0  0  0  0  0  0  0  0  0  0
    0.7500    1.2990    0.0000 C   0  0  0  0  0  0  0  0  0  0  0  0
   -0.7500    1.2990    0.0000 C   0  0  0  0  0  0  0  0  0  0  0  0
   -1.5000    0.0000    0.0000 C   0  0  0  0  0  0  0  0  0  0  0  0
   -0.7500   -1.2990    0.0000 C   0  0  0  0  0  0  0  0  0  0  0  0
   -2.1358   -1.8731    0.0000 C   0  0  0  0  0  0  0  0  0  0  0  0
   -2.5240   -0.4242    0.0000 C   0  0  0  0  0  0  0  0  0  0  0  0
   -3.9729   -0.0359    0.0000 C   0  0  0  0  0  0  0  0  0  0  0  0
   -5.0336   -1.0966    0.0000 C   0  0  0  0  0  0  0  0  0  0  0  0
   -4.6454   -2.5455    0.0000 C   0  0  0  0  0  0  0  0  0  0  0  0
   -3.1965   -2.9337    0.0000 C   0  0  0  0  0  0  0  0  0  0  0  0
  1  2  1  0
  2  3  1  0
  3  4  2  0
  4  5  1  0
  5  6  1  0
  6  7  1  0
  7  8  1  0
  8  9  2  0
  9 10  1  0
 10 11  1  0
 11 12  1  0
 12 13  2  0
 12 14  1  0
 14 15  1  0
 15 16  2  0
 16 17  1  0
 17 18  2  0
 18 19  1  0
 19 20  2  0
 11 21  1  0
 21 22  2  0
 21 23  1  0
 23 24  1  0
 24 25  2  0
 25 26  1  0
 26 27  2  0
 27 28  1  0
 28 29  2  0
 29 30  1  0
 30 31  2  0
 31 32  1  0
 32 33  2  0
 33 34  1  0
 34 35  2  0
 35  2  1  0
 20 15  1  0
 29 24  1  0
 35 30  1  0
M  END
>  <Title>  (847) 
idABEQgen6

$$$$

     RDKit          2D

 25 27  0  0  0  0  0  0  0  0999 V2000
   -6.0000   -5.1962    0.0000 C   0  0  0  0  0  0  0  0  0  0  0  0
   -5.2500   -3.8971    0.0000 C   0  0  0  0  0  0  0  0  0  0  0  0
   -6.0000   -2.5981    0.0000 C   0  0  0  0  0  0  0  0  0  0  0  0
   -3.7500   -3.8971    0.0000 C   0  0  0  0  0  0  0  0  0  0  0  0
   -3.0000   -2.5981    0.0000 C   0  0  0  0  0  0  0  0  0  0  0  0
   -3.7500   -1.2990    0.0000 O   0  0  0  0  0  0  0  0  0  0  0  0
   -1.5000   -2.5981    0.0000 N   0  0  0  0  0  0  0  0  0  0  0  0
   -0.7500   -3.8971    0.0000 C   0  0  0  0  0  0  0  0  0  0  0  0
    0.7500   -3.8971    0.0000 C   0  0  0  0  0  0  0  0  0  0  0  0
    1.5000   -2.5981    0.0000 C   0  0  0  0  0  0  0  0  0  0  0  0
    3.0000   -2.5981    0.0000 C   0  0  0  0  0  0  0  0  0  0  0  0
    3.7500   -1.2990    0.0000 O   0  0  0  0  0  0  0  0  0  0  0  0
    3.7500   -3.8971    0.0000 N   0  0  0  0  0  0  0  0  0  0  0  0
    5.2500   -3.8971    0.0000 C   0  0  0  0  0  0  0  0  0  0  0  0
    6.0000   -5.1962    0.0000 N   0  0  0  0  0  0  0  0  0  0  0  0
    7.5000   -5.1962    0.0000 N   0  0  0  0  0  0  0  0  0  0  0  0
    8.2500   -3.8971    0.0000 N   0  0  0  0  0  0  0  0  0  0  0  0
    7.5000   -2.5981    0.0000 N   0  0  0  0  0  0  0  0  0  0  0  0
    6.0000   -2.5981    0.0000 N   0  0  0  0  0  0  0  0  0  0  0  0
    0.7500   -1.2990    0.0000 C   0  0  0  0  0  0  0  0  0  0  0  0
    1.5000    0.0000    0.0000 C   0  0  0  0  0  0  0  0  0  0  0  0
    0.7500    1.2990    0.0000 C   0  0  0  0  0  0  0  0  0  0  0  0
   -0.7500    1.2990    0.0000 C   0  0  0  0  0  0  0  0  0  0  0  0
   -1.5000    0.0000    0.0000 C   0  0  0  0  0  0  0  0  0  0  0  0
   -0.7500   -1.2990    0.0000 C   0  0  0  0  0  0  0  0  0  0  0  0
  1  2  1  0
  2  3  1  0
  2  4  1  0
  4  5  1  0
  5  6  2  0
  5  7  1  0
  7  8  1  0
  8  9  1  0
  9 10  1  0
 10 11  1  0
 11 12  2  0
 11 13  1  0
 13 14  1  0
 14 15  2  0
 15 16  1  0
 16 17  2  0
 17 18  1  0
 18 19  2  0
 10 20  1  0
 20 21  2  0
 21 22  1  0
 22 23  2  0
 23 24  1  0
 24 25  2  0
 25  7  1  0
 19 14  1  0
 25 20  1  0
M  END
>  <Title>  (848) 
idABERgen6

$$$$

     RDKit          2D

 20 21  0  0  0  0  0  0  0  0999 V2000
    3.2286   -0.0000    0.0000 C   0  0  0  0  0  0  0  0  0  0  0  0
    1.7286    0.0000    0.0000 C   0  0  0  0  0  0  0  0  0  0  0  0
    1.0777    1.3515    0.0000 C   0  0  0  0  0  0  0  0  0  0  0  0
   -0.3846    1.6852    0.0000 C   0  0  0  0  0  0  0  0  0  0  0  0
   -1.5574    0.7500    0.0000 C   0  0  0  0  0  0  0  0  0  0  0  0
   -2.9088    1.4008    0.0000 C   0  0  0  0  0  0  0  0  0  0  0  0
   -4.1482    0.5558    0.0000 O   0  0  0  0  0  0  0  0  0  0  0  0
   -3.0209    2.8966    0.0000 N   0  0  0  0  0  0  0  0  0  0  0  0
   -4.3724    3.5475    0.0000 C   0  0  0  0  0  0  0  0  0  0  0  0
   -4.4845    5.0433    0.0000 N   0  0  0  0  0  0  0  0  0  0  0  0
   -5.8359    5.6941    0.0000 N   0  0  0  0  0  0  0  0  0  0  0  0
   -7.0753    4.8491    0.0000 N   0  0  0  0  0  0  0  0  0  0  0  0
   -6.9632    3.3533    0.0000 N   0  0  0  0  0  0  0  0  0  0  0  0
   -5.6118    2.7025    0.0000 N   0  0  0  0  0  0  0  0  0  0  0  0
   -1.5574   -0.7500    0.0000 C   0  0  0  0  0  0  0  0  0  0  0  0
   -2.9088   -1.4008    0.0000 O   0  0  0  0  0  0  0  0  0  0  0  0
   -0.3846   -1.6852    0.0000 C   0  0  0  0  0  0  0  0  0  0  0  0
   -0.7184   -3.1476    0.0000 O   0  0  0  0  0  0  0  0  0  0  0  0
    1.0777   -1.3515    0.0000 C   0  0  0  0  0  0  0  0  0  0  0  0
    2.0130   -2.5242    0.0000 O   0  0  0  0  0  0  0  0  0  0  0  0
  1  2  1  0
  2  3  1  0
  3  4  1  0
  4  5  1  0
  5  6  1  0
  6  7  2  0
  6  8  1  0
  8  9  1  0
  9 10  2  0
 10 11  1  0
 11 12  2  0
 12 13  1  0
 13 14  2  0
  5 15  1  0
 15 16  1  0
 15 17  1  0
 17 18  1  0
 17 19  1  0
 19 20  1  0
 19  2  1  0
 14  9  1  0
M  END
>  <Title>  (849) 
idABESgen6

$$$$

     RDKit          2D

  8  8  0  0  0  0  0  0  0  0999 V2000
    3.0000    0.0000    0.0000 C   0  0  0  0  0  0  0  0  0  0  0  0
    1.5000    0.0000    0.0000 C   0  0  0  0  0  0  0  0  0  0  0  0
    0.7500   -1.2990    0.0000 C   0  0  0  0  0  0  0  0  0  0  0  0
   -0.7500   -1.2990    0.0000 C   0  0  0  0  0  0  0  0  0  0  0  0
   -1.5000    0.0000    0.0000 C   0  0  0  0  0  0  0  0  0  0  0  0
   -3.0000    0.0000    0.0000 O   0  0  0  0  0  0  0  0  0  0  0  0
   -0.7500    1.2990    0.0000 C   0  0  0  0  0  0  0  0  0  0  0  0
    0.7500    1.2990    0.0000 N   0  0  0  0  0  0  0  0  0  0  0  0
  1  2  1  0
  2  3  1  0
  3  4  1  0
  4  5  1  0
  5  6  1  0
  5  7  1  0
  7  8  1  0
  8  2  1  0
M  END
>  <Title>  (850) 
idABETgen6

$$$$

     RDKit          2D

 23 24  0  0  0  0  0  0  0  0999 V2000
    2.7760    0.0000    0.0000 C   0  0  0  0  0  0  0  0  0  0  0  0
    1.2760    0.0000    0.0000 C   0  0  0  0  0  0  0  0  0  0  0  0
    0.3943    1.2135    0.0000 C   0  0  0  0  0  0  0  0  0  0  0  0
   -1.0323    0.7500    0.0000 C   0  0  0  0  0  0  0  0  0  0  0  0
   -1.0323   -0.7500    0.0000 C   0  0  0  0  0  0  0  0  0  0  0  0
   -2.2458   -1.6317    0.0000 O   0  0  0  0  0  0  0  0  0  0  0  0
    0.3943   -1.2135    0.0000 C   0  0  0  0  0  0  0  0  0  0  0  0
    0.8578   -2.6401    0.0000 C   0  0  0  0  0  0  0  0  0  0  0  0
   -0.1459   -3.7548    0.0000 C   0  0  0  0  0  0  0  0  0  0  0  0
    2.3250   -2.9520    0.0000 C   0  0  0  0  0  0  0  0  0  0  0  0
    3.3287   -1.8373    0.0000 O   0  0  0  0  0  0  0  0  0  0  0  0
    2.7886   -4.3786    0.0000 N   0  0  0  0  0  0  0  0  0  0  0  0
    4.2558   -4.6904    0.0000 C   0  0  0  0  0  0  0  0  0  0  0  0
    5.2595   -3.5757    0.0000 O   0  0  0  0  0  0  0  0  0  0  0  0
    4.7193   -6.1170    0.0000 C   0  0  0  0  0  0  0  0  0  0  0  0
    6.1459   -6.5805    0.0000 C   0  0  0  0  0  0  0  0  0  0  0  0
    6.1459   -8.0805    0.0000 C   0  0  0  0  0  0  0  0  0  0  0  0
    4.7193   -8.5441    0.0000 C   0  0  0  0  0  0  0  0  0  0  0  0
    4.2558   -9.9707    0.0000 C   0  0  0  0  0  0  0  0  0  0  0  0
    5.2595  -11.0854    0.0000 O   0  0  0  0  0  0  0  0  0  0  0  0
    2.7886  -10.2825    0.0000 O   0  0  0  0  0  0  0  0  0  0  0  0
    3.8376   -7.3305    0.0000 C   0  0  0  0  0  0  0  0  0  0  0  0
    2.3376   -7.3305    0.0000 O   0  0  0  0  0  0  0  0  0  0  0  0
  1  2  1  0
  2  3  1  0
  3  4  1  0
  4  5  1  0
  5  6  1  0
  5  7  1  0
  7  8  1  0
  8  9  1  0
  8 10  1  0
 10 11  2  0
 10 12  1  0
 12 13  1  0
 13 14  2  0
 13 15  1  0
 15 16  1  0
 16 17  1  0
 17 18  1  0
 18 19  1  0
 19 20  2  0
 19 21  1  0
 18 22  1  0
 22 23  2  0
  7  2  1  0
 22 15  1  0
M  END
>  <Title>  (851) 
idABEUgen6

$$$$

     RDKit          2D

 47 53  0  0  0  0  0  0  0  0999 V2000
    6.0000  -10.3923    0.0000 C   0  0  0  0  0  0  0  0  0  0  0  0
    5.2500   -9.0933    0.0000 C   0  0  0  0  0  0  0  0  0  0  0  0
    6.0000   -7.7942    0.0000 C   0  0  0  0  0  0  0  0  0  0  0  0
    5.2500   -6.4952    0.0000 C   0  0  0  0  0  0  0  0  0  0  0  0
    3.7500   -6.4952    0.0000 C   0  0  0  0  0  0  0  0  0  0  0  0
    3.0000   -5.1962    0.0000 C   0  0  0  0  0  0  0  0  0  0  0  0
    2.2265   -5.3890    0.0000 O   0  0  0  0  0  0  0  0  0  0  0  0
    3.7500   -3.8971    0.0000 N   0  0  0  0  0  0  0  0  0  0  0  0
    5.2500   -3.8971    0.0000 C   0  0  0  0  0  0  0  0  0  0  0  0
    6.0000   -5.1962    0.0000 N   0  0  0  0  0  0  0  0  0  0  0  0
    7.5000   -5.1962    0.0000 N   0  0  0  0  0  0  0  0  0  0  0  0
    8.2500   -3.8971    0.0000 N   0  0  0  0  0  0  0  0  0  0  0  0
    7.5000   -2.5981    0.0000 N   0  0  0  0  0  0  0  0  0  0  0  0
    8.2500   -1.2990    0.0000 N   0  0  0  0  0  0  0  0  0  0  0  0
    9.7500   -1.2990    0.0000 C   0  0  0  0  0  0  0  0  0  0  0  0
   10.5000    0.0000    0.0000 C   0  0  0  0  0  0  0  0  0  0  0  0
    9.7500    1.2990    0.0000 C   0  0  0  0  0  0  0  0  0  0  0  0
   10.5000    2.5981    0.0000 C   0  0  0  0  0  0  0  0  0  0  0  0
    9.7500    3.8971    0.0000 O   0  0  0  0  0  0  0  0  0  0  0  0
   12.0000    2.5981    0.0000 N   0  0  0  0  0  0  0  0  0  0  0  0
   12.7500    3.8971    0.0000 C   0  0  0  0  0  0  0  0  0  0  0  0
   14.2500    3.8971    0.0000 N   0  0  0  0  0  0  0  0  0  0  0  0
   15.0000    5.1962    0.0000 N   0  0  0  0  0  0  0  0  0  0  0  0
   14.2500    6.4952    0.0000 N   0  0  0  0  0  0  0  0  0  0  0  0
   12.7500    6.4952    0.0000 N   0  0  0  0  0  0  0  0  0  0  0  0
   12.0000    5.1962    0.0000 N   0  0  0  0  0  0  0  0  0  0  0  0
    8.2500    1.2990    0.0000 C   0  0  0  0  0  0  0  0  0  0  0  0
    7.5000    0.0000    0.0000 C   0  0  0  0  0  0  0  0  0  0  0  0
    6.0000   -2.5981    0.0000 C   0  0  0  0  0  0  0  0  0  0  0  0
    5.2500   -1.2990    0.0000 C   0  0  0  0  0  0  0  0  0  0  0  0
    6.0000   -0.0000    0.0000 C   0  0  0  0  0  0  0  0  0  0  0  0
    5.2500    1.2990    0.0000 C   0  0  0  0  0  0  0  0  0  0  0  0
    3.7500    1.2990    0.0000 C   0  0  0  0  0  0  0  0  0  0  0  0
    3.0000    0.0000    0.0000 C   0  0  0  0  0  0  0  0  0  0  0  0
    3.7500   -1.2990    0.0000 C   0  0  0  0  0  0  0  0  0  0  0  0
    3.0000   -2.5981    0.0000 C   0  0  0  0  0  0  0  0  0  0  0  0
    1.5000   -2.5981    0.0000 C   0  0  0  0  0  0  0  0  0  0  0  0
    0.7500   -3.8971    0.0000 C   0  0  0  0  0  0  0  0  0  0  0  0
    1.5000   -5.1962    0.0000 C   0  0  0  0  0  0  0  0  0  0  0  0
    3.0000   -5.1962    0.0000 C   0  0  0  0  0  0  0  0  0  0  0  0
    3.7500   -3.8971    0.0000 C   0  0  0  0  0  0  0  0  0  0  0  0
    3.0000   -7.7942    0.0000 C   0  0  0  0  0  0  0  0  0  0  0  0
    1.5000   -7.7942    0.0000 C   0  0  0  0  0  0  0  0  0  0  0  0
    0.7500   -9.0933    0.0000 C   0  0  0  0  0  0  0  0  0  0  0  0
    1.5000  -10.3923    0.0000 C   0  0  0  0  0  0  0  0  0  0  0  0
    3.0000  -10.3923    0.0000 C   0  0  0  0  0  0  0  0  0  0  0  0
    3.7500   -9.0933    0.0000 C   0  0  0  0  0  0  0  0  0  0  0  0
  1  2  1  0
  2  3  2  0
  3  4  1  0
  4  5  2  0
  5  6  1  0
  6  7  2  0
  6  8  1  0
  8  9  1  0
  9 10  2  0
 10 11  1  0
 11 12  2  0
 12 13  1  0
 13 14  1  0
 14 15  1  0
 15 16  1  0
 16 17  1  0
 17 18  1  0
 18 19  2  0
 18 20  1  0
 20 21  1  0
 21 22  2  0
 22 23  1  0
 23 24  2  0
 24 25  1  0
 25 26  2  0
 17 27  1  0
 27 28  1  0
 13 29  1  0
 29 30  1  0
 30 31  2  0
 31 32  1  0
 32 33  2  0
 33 34  1  0
 34 35  2  0
 35 36  1  0
 36 37  2  0
 37 38  1  0
 38 39  2  0
 39 40  1  0
 40 41  2  0
  5 42  1  0
 42 43  2  0
 43 44  1  0
 44 45  2  0
 45 46  1  0
 46 47  2  0
 47  2  1  0
 29  9  1  0
 35 30  1  0
 41 36  1  0
 47 42  1  0
 28 14  1  0
 26 21  1  0
M  END
>  <Title>  (852) 
idABEVgen6

$$$$

     RDKit          2D

 35 39  0  0  0  0  0  0  0  0999 V2000
   -3.0000   -2.5981    0.0000 C   0  0  0  0  0  0  0  0  0  0  0  0
   -1.5000   -2.5981    0.0000 C   0  0  0  0  0  0  0  0  0  0  0  0
   -0.7500   -3.8971    0.0000 C   0  0  0  0  0  0  0  0  0  0  0  0
    0.7500   -3.8971    0.0000 C   0  0  0  0  0  0  0  0  0  0  0  0
    1.5000   -2.5981    0.0000 C   0  0  0  0  0  0  0  0  0  0  0  0
    3.0000   -2.5981    0.0000 C   0  0  0  0  0  0  0  0  0  0  0  0
    3.7500   -1.2990    0.0000 O   0  0  0  0  0  0  0  0  0  0  0  0
    3.7500   -3.8971    0.0000 N   0  0  0  0  0  0  0  0  0  0  0  0
    5.2500   -3.8971    0.0000 C   0  0  0  0  0  0  0  0  0  0  0  0
    6.1317   -2.6836    0.0000 N   0  0  0  0  0  0  0  0  0  0  0  0
    7.5583   -3.1471    0.0000 N   0  0  0  0  0  0  0  0  0  0  0  0
    7.5583   -4.6471    0.0000 N   0  0  0  0  0  0  0  0  0  0  0  0
    6.1317   -5.1106    0.0000 N   0  0  0  0  0  0  0  0  0  0  0  0
    5.6682   -6.5372    0.0000 C   0  0  0  0  0  0  0  0  0  0  0  0
    6.5498   -7.7508    0.0000 C   0  0  0  0  0  0  0  0  0  0  0  0
    5.6682   -8.9643    0.0000 C   0  0  0  0  0  0  0  0  0  0  0  0
    4.2416   -8.5008    0.0000 C   0  0  0  0  0  0  0  0  0  0  0  0
    3.0280   -9.3824    0.0000 C   0  0  0  0  0  0  0  0  0  0  0  0
    3.1848  -10.8742    0.0000 O   0  0  0  0  0  0  0  0  0  0  0  0
    1.6577   -8.7723    0.0000 N   0  0  0  0  0  0  0  0  0  0  0  0
    0.4442   -9.6540    0.0000 C   0  0  0  0  0  0  0  0  0  0  0  0
    0.6010  -11.1458    0.0000 O   0  0  0  0  0  0  0  0  0  0  0  0
   -0.9261   -9.0439    0.0000 C   0  0  0  0  0  0  0  0  0  0  0  0
   -1.0829   -7.5521    0.0000 C   0  0  0  0  0  0  0  0  0  0  0  0
   -2.4532   -6.9420    0.0000 C   0  0  0  0  0  0  0  0  0  0  0  0
   -3.6668   -7.8237    0.0000 C   0  0  0  0  0  0  0  0  0  0  0  0
   -3.5100   -9.3155    0.0000 C   0  0  0  0  0  0  0  0  0  0  0  0
   -2.1396   -9.9256    0.0000 C   0  0  0  0  0  0  0  0  0  0  0  0
    4.2416   -7.0008    0.0000 C   0  0  0  0  0  0  0  0  0  0  0  0
    0.7500   -1.2990    0.0000 C   0  0  0  0  0  0  0  0  0  0  0  0
    1.5000    0.0000    0.0000 C   0  0  0  0  0  0  0  0  0  0  0  0
    0.7500    1.2990    0.0000 C   0  0  0  0  0  0  0  0  0  0  0  0
   -0.7500    1.2990    0.0000 C   0  0  0  0  0  0  0  0  0  0  0  0
   -1.5000    0.0000    0.0000 C   0  0  0  0  0  0  0  0  0  0  0  0
   -0.7500   -1.2990    0.0000 C   0  0  0  0  0  0  0  0  0  0  0  0
  1  2  1  0
  2  3  1  0
  3  4  1  0
  4  5  1  0
  5  6  1  0
  6  7  2  0
  6  8  1  0
  8  9  1  0
  9 10  2  0
 10 11  1  0
 11 12  2  0
 12 13  1  0
 13 14  1  0
 14 15  2  0
 15 16  1  0
 16 17  2  0
 17 18  1  0
 18 19  2  0
 18 20  1  0
 20 21  1  0
 21 22  2  0
 21 23  1  0
 23 24  2  0
 24 25  1  0
 25 26  2  0
 26 27  1  0
 27 28  2  0
 17 29  1  0
  5 30  1  0
 30 31  2  0
 31 32  1  0
 32 33  2  0
 33 34  1  0
 34 35  2  0
 35  2  1  0
 13  9  1  0
 29 14  1  0
 35 30  1  0
 28 23  1  0
M  END
>  <Title>  (853) 
idABEWgen6

$$$$

     RDKit          2D

  4  3  0  0  0  0  0  0  0  0999 V2000
    0.0000    0.0000    0.0000 C   0  0  0  0  0  0  0  0  0  0  0  0
    1.2990    0.7500    0.0000 C   0  0  0  0  0  0  0  0  0  0  0  0
    2.5981   -0.0000    0.0000 O   0  0  0  0  0  0  0  0  0  0  0  0
    1.2990    2.2500    0.0000 F   0  0  0  0  0  0  0  0  0  0  0  0
  1  2  2  0
  2  3  1  0
  2  4  1  0
M  END
>  <Title>  (854) 
idABEXgen6

$$$$

     RDKit          2D

 23 25  0  0  0  0  0  0  0  0999 V2000
   -7.0505   -2.5713    0.0000 C   0  0  0  0  0  0  0  0  0  0  0  0
   -5.6239   -2.1078    0.0000 C   0  0  0  0  0  0  0  0  0  0  0  0
   -4.5092   -3.1115    0.0000 O   0  0  0  0  0  0  0  0  0  0  0  0
   -5.3120   -0.6406    0.0000 N   0  0  0  0  0  0  0  0  0  0  0  0
   -3.8855   -0.1771    0.0000 C   0  0  0  0  0  0  0  0  0  0  0  0
   -2.7707   -1.1807    0.0000 O   0  0  0  0  0  0  0  0  0  0  0  0
   -3.5736    1.2902    0.0000 C   0  0  0  0  0  0  0  0  0  0  0  0
   -4.6883    2.2939    0.0000 C   0  0  0  0  0  0  0  0  0  0  0  0
   -6.1149    1.8303    0.0000 C   0  0  0  0  0  0  0  0  0  0  0  0
   -7.2296    2.8340    0.0000 C   0  0  0  0  0  0  0  0  0  0  0  0
   -8.6562    2.3705    0.0000 C   0  0  0  0  0  0  0  0  0  0  0  0
   -8.9681    0.9033    0.0000 C   0  0  0  0  0  0  0  0  0  0  0  0
   -7.8533   -0.1004    0.0000 C   0  0  0  0  0  0  0  0  0  0  0  0
   -6.4268    0.3631    0.0000 C   0  0  0  0  0  0  0  0  0  0  0  0
   -2.1470    1.7537    0.0000 N   0  0  0  0  0  0  0  0  0  0  0  0
   -1.8351    3.2209    0.0000 C   0  0  0  0  0  0  0  0  0  0  0  0
   -0.4086    3.6844    0.0000 C   0  0  0  0  0  0  0  0  0  0  0  0
    0.7062    2.6807    0.0000 C   0  0  0  0  0  0  0  0  0  0  0  0
    0.3943    1.2135    0.0000 C   0  0  0  0  0  0  0  0  0  0  0  0
    1.2760    0.0000    0.0000 C   0  0  0  0  0  0  0  0  0  0  0  0
    0.3943   -1.2135    0.0000 C   0  0  0  0  0  0  0  0  0  0  0  0
   -1.0323   -0.7500    0.0000 C   0  0  0  0  0  0  0  0  0  0  0  0
   -1.0323    0.7500    0.0000 C   0  0  0  0  0  0  0  0  0  0  0  0
  1  2  1  0
  2  3  2  0
  2  4  1  0
  4  5  1  0
  5  6  2  0
  5  7  1  0
  7  8  1  0
  8  9  1  0
  9 10  2  0
 10 11  1  0
 11 12  2  0
 12 13  1  0
 13 14  2  0
  7 15  1  0
 15 16  1  0
 16 17  2  0
 17 18  1  0
 18 19  1  0
 19 20  1  0
 20 21  2  0
 21 22  1  0
 22 23  2  0
 14  9  1  0
 23 15  1  0
 23 19  1  0
M  END
>  <Title>  (855) 
idABEYgen6

$$$$

     RDKit          2D

 13 13  0  0  0  0  0  0  0  0999 V2000
    5.0260    1.2990    0.0000 C   0  0  0  0  0  0  0  0  0  0  0  0
    3.5260    1.2990    0.0000 C   0  0  0  0  0  0  0  0  0  0  0  0
    2.7760    2.5981    0.0000 O   0  0  0  0  0  0  0  0  0  0  0  0
    2.7760    0.0000    0.0000 C   0  0  0  0  0  0  0  0  0  0  0  0
    1.2760    0.0000    0.0000 N   0  0  0  0  0  0  0  0  0  0  0  0
    0.3943    1.2135    0.0000 C   0  0  0  0  0  0  0  0  0  0  0  0
   -1.0323    0.7500    0.0000 C   0  0  0  0  0  0  0  0  0  0  0  0
   -1.0323   -0.7500    0.0000 C   0  0  0  0  0  0  0  0  0  0  0  0
   -2.2458   -1.6317    0.0000 C   0  0  0  0  0  0  0  0  0  0  0  0
   -2.0890   -3.1235    0.0000 O   0  0  0  0  0  0  0  0  0  0  0  0
   -3.6161   -1.0216    0.0000 O   0  0  0  0  0  0  0  0  0  0  0  0
    0.3943   -1.2135    0.0000 C   0  0  0  0  0  0  0  0  0  0  0  0
    0.8578   -2.6401    0.0000 O   0  0  0  0  0  0  0  0  0  0  0  0
  1  2  1  0
  2  3  2  0
  2  4  1  0
  4  5  1  0
  5  6  1  0
  6  7  2  0
  7  8  1  0
  8  9  1  0
  9 10  2  0
  9 11  1  0
  8 12  1  0
 12 13  2  0
 12  5  1  0
M  END
>  <Title>  (856) 
idABEZgen6

$$$$

     RDKit          2D

 50 57  0  0  0  0  0  0  0  0999 V2000
   -1.1382   -8.3460    0.0000 C   0  0  0  0  0  0  0  0  0  0  0  0
   -0.7500   -6.8971    0.0000 C   0  0  0  0  0  0  0  0  0  0  0  0
    0.7500   -6.8971    0.0000 C   0  0  0  0  0  0  0  0  0  0  0  0
    2.0490   -6.1471    0.0000 C   0  0  0  0  0  0  0  0  0  0  0  0
    2.7990   -4.8481    0.0000 C   0  0  0  0  0  0  0  0  0  0  0  0
    4.2479   -5.2363    0.0000 C   0  0  0  0  0  0  0  0  0  0  0  0
    4.6362   -6.6852    0.0000 C   0  0  0  0  0  0  0  0  0  0  0  0
    3.6922   -7.8509    0.0000 C   0  0  0  0  0  0  0  0  0  0  0  0
    4.5091   -9.1089    0.0000 C   0  0  0  0  0  0  0  0  0  0  0  0
    5.9580   -8.7207    0.0000 N   0  0  0  0  0  0  0  0  0  0  0  0
    6.0365   -7.2227    0.0000 C   0  0  0  0  0  0  0  0  0  0  0  0
    7.2945   -6.4058    0.0000 C   0  0  0  0  0  0  0  0  0  0  0  0
    7.3730   -4.9078    0.0000 C   0  0  0  0  0  0  0  0  0  0  0  0
    8.8219   -4.5196    0.0000 C   0  0  0  0  0  0  0  0  0  0  0  0
    9.6389   -5.7776    0.0000 C   0  0  0  0  0  0  0  0  0  0  0  0
   11.1368   -5.8561    0.0000 C   0  0  0  0  0  0  0  0  0  0  0  0
   11.9538   -4.5981    0.0000 O   0  0  0  0  0  0  0  0  0  0  0  0
   11.8178   -7.1926    0.0000 N   0  0  0  0  0  0  0  0  0  0  0  0
   13.3158   -7.2711    0.0000 C   0  0  0  0  0  0  0  0  0  0  0  0
   13.9967   -8.6076    0.0000 N   0  0  0  0  0  0  0  0  0  0  0  0
   15.4947   -8.6862    0.0000 N   0  0  0  0  0  0  0  0  0  0  0  0
   16.3116   -7.4281    0.0000 N   0  0  0  0  0  0  0  0  0  0  0  0
   15.6307   -6.0916    0.0000 N   0  0  0  0  0  0  0  0  0  0  0  0
   14.1327   -6.0131    0.0000 N   0  0  0  0  0  0  0  0  0  0  0  0
    8.6949   -6.9433    0.0000 C   0  0  0  0  0  0  0  0  0  0  0  0
    2.7990   -3.3481    0.0000 C   0  0  0  0  0  0  0  0  0  0  0  0
    4.2663   -3.0362    0.0000 C   0  0  0  0  0  0  0  0  0  0  0  0
    4.4231   -1.5444    0.0000 C   0  0  0  0  0  0  0  0  0  0  0  0
    3.0527   -0.9343    0.0000 C   0  0  0  0  0  0  0  0  0  0  0  0
    2.0490   -2.0490    0.0000 C   0  0  0  0  0  0  0  0  0  0  0  0
    0.7500   -1.2990    0.0000 C   0  0  0  0  0  0  0  0  0  0  0  0
    1.5000    0.0000    0.0000 C   0  0  0  0  0  0  0  0  0  0  0  0
    0.7500    1.2990    0.0000 C   0  0  0  0  0  0  0  0  0  0  0  0
   -0.7500    1.2990    0.0000 C   0  0  0  0  0  0  0  0  0  0  0  0
   -1.5000    0.0000    0.0000 C   0  0  0  0  0  0  0  0  0  0  0  0
   -0.7500   -1.2990    0.0000 C   0  0  0  0  0  0  0  0  0  0  0  0
   -2.0490   -2.0490    0.0000 C   0  0  0  0  0  0  0  0  0  0  0  0
   -2.7990   -0.7500    0.0000 C   0  0  0  0  0  0  0  0  0  0  0  0
   -4.2990   -0.7500    0.0000 C   0  0  0  0  0  0  0  0  0  0  0  0
   -5.0490   -2.0490    0.0000 C   0  0  0  0  0  0  0  0  0  0  0  0
   -6.5490   -2.0490    0.0000 C   0  0  0  0  0  0  0  0  0  0  0  0
   -8.0490   -2.0490    0.0000 N   0  0  0  0  0  0  0  0  0  0  0  0
   -4.2990   -3.3481    0.0000 C   0  0  0  0  0  0  0  0  0  0  0  0
   -2.7990   -3.3481    0.0000 C   0  0  0  0  0  0  0  0  0  0  0  0
   -2.7990   -4.8481    0.0000 C   0  0  0  0  0  0  0  0  0  0  0  0
   -4.2990   -4.8481    0.0000 C   0  0  0  0  0  0  0  0  0  0  0  0
   -5.0490   -6.1471    0.0000 C   0  0  0  0  0  0  0  0  0  0  0  0
   -4.2990   -7.4462    0.0000 C   0  0  0  0  0  0  0  0  0  0  0  0
   -2.7990   -7.4462    0.0000 C   0  0  0  0  0  0  0  0  0  0  0  0
   -2.0490   -6.1471    0.0000 C   0  0  0  0  0  0  0  0  0  0  0  0
  1  2  1  0
  2  3  1  0
  3  4  1  0
  4  5  1  0
  5  6  1  0
  6  7  1  0
  7  8  2  0
  8  9  1  0
  9 10  1  0
 10 11  2  0
 11 12  1  0
 12 13  2  0
 13 14  1  0
 14 15  2  0
 15 16  1  0
 16 17  2  0
 16 18  1  0
 18 19  1  0
 19 20  2  0
 20 21  1  0
 21 22  2  0
 22 23  1  0
 23 24  2  0
 15 25  1  0
  5 26  1  0
 26 27  1  0
 27 28  1  0
 28 29  1  0
 29 30  2  0
 30 31  1  0
 31 32  2  0
 32 33  1  0
 33 34  2  0
 34 35  1  0
 35 36  2  0
 36 37  1  0
 37 38  2  0
 38 39  1  0
 39 40  2  0
 40 41  1  0
 41 42  3  0
 40 43  1  0
 43 44  2  0
 44 45  1  0
 45 46  2  0
 46 47  1  0
 47 48  2  0
 48 49  1  0
 49 50  2  0
 50  2  1  0
 11  7  1  0
 25 12  1  0
 30 26  1  0
 36 31  1  0
 44 37  1  0
 50 45  1  0
 24 19  1  0
M  END
>  <Title>  (857) 
idABFAgen6

$$$$

     RDKit          2D

 48 51  0  0  0  0  0  0  0  0999 V2000
  -12.1816    1.9060    0.0000 C   0  0  0  0  0  0  0  0  0  0  0  0
  -11.0669    0.9023    0.0000 C   0  0  0  0  0  0  0  0  0  0  0  0
   -9.6403    1.3658    0.0000 O   0  0  0  0  0  0  0  0  0  0  0  0
  -11.3787   -0.5649    0.0000 C   0  0  0  0  0  0  0  0  0  0  0  0
  -12.8053   -1.0285    0.0000 C   0  0  0  0  0  0  0  0  0  0  0  0
  -13.9200   -0.0248    0.0000 C   0  0  0  0  0  0  0  0  0  0  0  0
  -13.4994    1.4150    0.0000 C   0  0  0  0  0  0  0  0  0  0  0  0
  -14.3628    2.6416    0.0000 N   0  0  0  0  0  0  0  0  0  0  0  0
  -15.8601    2.7313    0.0000 C   0  0  0  0  0  0  0  0  0  0  0  0
  -16.4290    4.1193    0.0000 O   0  0  0  0  0  0  0  0  0  0  0  0
  -16.8638    1.6166    0.0000 N   0  0  0  0  0  0  0  0  0  0  0  0
  -16.6181    0.1369    0.0000 C   0  0  0  0  0  0  0  0  0  0  0  0
  -17.8447   -0.7266    0.0000 O   0  0  0  0  0  0  0  0  0  0  0  0
  -15.3080   -0.5936    0.0000 C   0  0  0  0  0  0  0  0  0  0  0  0
  -15.3977   -2.0909    0.0000 C   0  0  0  0  0  0  0  0  0  0  0  0
  -16.7393   -2.7619    0.0000 C   0  0  0  0  0  0  0  0  0  0  0  0
  -16.8290   -4.2592    0.0000 C   0  0  0  0  0  0  0  0  0  0  0  0
  -15.5771   -5.0856    0.0000 O   0  0  0  0  0  0  0  0  0  0  0  0
  -18.1705   -4.9302    0.0000 O   0  0  0  0  0  0  0  0  0  0  0  0
  -10.2640   -1.5686    0.0000 C   0  0  0  0  0  0  0  0  0  0  0  0
  -10.5759   -3.0359    0.0000 O   0  0  0  0  0  0  0  0  0  0  0  0
   -8.8374   -1.1051    0.0000 N   0  0  0  0  0  0  0  0  0  0  0  0
   -7.7227   -2.1088    0.0000 C   0  0  0  0  0  0  0  0  0  0  0  0
   -8.0346   -3.5760    0.0000 O   0  0  0  0  0  0  0  0  0  0  0  0
   -6.2961   -1.6453    0.0000 C   0  0  0  0  0  0  0  0  0  0  0  0
   -5.1814   -2.6490    0.0000 N   0  0  0  0  0  0  0  0  0  0  0  0
   -3.7548   -2.1855    0.0000 C   0  0  0  0  0  0  0  0  0  0  0  0
   -3.4430   -0.7182    0.0000 O   0  0  0  0  0  0  0  0  0  0  0  0
   -2.6401   -3.1891    0.0000 C   0  0  0  0  0  0  0  0  0  0  0  0
   -2.9520   -4.6564    0.0000 C   0  0  0  0  0  0  0  0  0  0  0  0
   -4.3786   -5.1199    0.0000 C   0  0  0  0  0  0  0  0  0  0  0  0
   -5.4933   -4.1162    0.0000 C   0  0  0  0  0  0  0  0  0  0  0  0
   -6.9199   -4.5797    0.0000 C   0  0  0  0  0  0  0  0  0  0  0  0
   -7.2317   -6.0469    0.0000 C   0  0  0  0  0  0  0  0  0  0  0  0
   -6.1170   -7.0506    0.0000 C   0  0  0  0  0  0  0  0  0  0  0  0
   -4.6904   -6.5871    0.0000 C   0  0  0  0  0  0  0  0  0  0  0  0
   -1.2135   -2.7256    0.0000 N   0  0  0  0  0  0  0  0  0  0  0  0
   -0.7500   -1.2990    0.0000 C   0  0  0  0  0  0  0  0  0  0  0  0
   -1.6317   -0.0855    0.0000 O   0  0  0  0  0  0  0  0  0  0  0  0
    0.7500   -1.2990    0.0000 O   0  0  0  0  0  0  0  0  0  0  0  0
    1.2135   -2.7256    0.0000 C   0  0  0  0  0  0  0  0  0  0  0  0
    2.5838   -3.3357    0.0000 C   0  0  0  0  0  0  0  0  0  0  0  0
    2.7406   -4.8275    0.0000 C   0  0  0  0  0  0  0  0  0  0  0  0
    1.5271   -5.7092    0.0000 C   0  0  0  0  0  0  0  0  0  0  0  0
    1.6839   -7.2010    0.0000 O   0  0  0  0  0  0  0  0  0  0  0  0
    0.1568   -5.0991    0.0000 C   0  0  0  0  0  0  0  0  0  0  0  0
   -1.0567   -5.9808    0.0000 O   0  0  0  0  0  0  0  0  0  0  0  0
    0.0000   -3.6073    0.0000 N   0  0  0  0  0  0  0  0  0  0  0  0
  1  2  1  0
  2  3  2  0
  2  4  1  0
  4  5  1  0
  5  6  1  0
  6  7  2  0
  7  8  1  0
  8  9  1  0
  9 10  2  0
  9 11  1  0
 11 12  1  0
 12 13  2  0
 12 14  1  0
 14 15  1  0
 15 16  1  0
 16 17  1  0
 17 18  2  0
 17 19  1  0
  4 20  1  0
 20 21  2  0
 20 22  1  0
 22 23  1  0
 23 24  2  0
 23 25  1  0
 25 26  1  0
 26 27  1  0
 27 28  2  0
 27 29  1  0
 29 30  1  0
 30 31  1  0
 31 32  2  0
 32 33  1  0
 33 34  2  0
 34 35  1  0
 35 36  2  0
 29 37  1  0
 37 38  1  0
 38 39  2  0
 38 40  1  0
 40 41  1  0
 41 42  2  0
 42 43  1  0
 43 44  2  0
 44 45  1  0
 44 46  1  0
 46 47  2  0
 46 48  1  0
 14  6  1  0
 36 31  1  0
 48 37  1  0
 48 41  1  0
M  END
>  <Title>  (858) 
idABFBgen6

$$$$

     RDKit          2D

 19 21  0  0  0  0  0  0  0  0999 V2000
    3.7500   -1.2990    0.0000 C   0  0  0  0  0  0  0  0  0  0  0  0
    3.0000    0.0000    0.0000 O   0  0  0  0  0  0  0  0  0  0  0  0
    1.5000    0.0000    0.0000 C   0  0  0  0  0  0  0  0  0  0  0  0
    0.7500   -1.2990    0.0000 C   0  0  0  0  0  0  0  0  0  0  0  0
   -0.7500   -1.2990    0.0000 C   0  0  0  0  0  0  0  0  0  0  0  0
   -1.5000    0.0000    0.0000 C   0  0  0  0  0  0  0  0  0  0  0  0
   -3.0000    0.0000    0.0000 N   0  0  0  0  0  0  0  0  0  0  0  0
   -3.8817   -1.2135    0.0000 C   0  0  0  0  0  0  0  0  0  0  0  0
   -5.3083   -0.7500    0.0000 C   0  0  0  0  0  0  0  0  0  0  0  0
   -5.3083    0.7500    0.0000 N   0  0  0  0  0  0  0  0  0  0  0  0
   -6.5218    1.6317    0.0000 C   0  0  0  0  0  0  0  0  0  0  0  0
   -6.3650    3.1235    0.0000 C   0  0  0  0  0  0  0  0  0  0  0  0
   -7.5785    4.0051    0.0000 C   0  0  0  0  0  0  0  0  0  0  0  0
   -8.9488    3.3950    0.0000 C   0  0  0  0  0  0  0  0  0  0  0  0
   -9.1056    1.9033    0.0000 C   0  0  0  0  0  0  0  0  0  0  0  0
   -7.8921    1.0216    0.0000 C   0  0  0  0  0  0  0  0  0  0  0  0
   -3.8817    1.2135    0.0000 C   0  0  0  0  0  0  0  0  0  0  0  0
   -0.7500    1.2990    0.0000 C   0  0  0  0  0  0  0  0  0  0  0  0
    0.7500    1.2990    0.0000 C   0  0  0  0  0  0  0  0  0  0  0  0
  1  2  1  0
  2  3  1  0
  3  4  1  0
  4  5  2  0
  5  6  1  0
  6  7  1  0
  7  8  1  0
  8  9  1  0
  9 10  1  0
 10 11  1  0
 11 12  2  0
 12 13  1  0
 13 14  2  0
 14 15  1  0
 15 16  2  0
 10 17  1  0
  6 18  1  0
 18 19  1  0
 19  3  1  0
 17  7  1  0
 16 11  1  0
M  END
>  <Title>  (859) 
idABFCgen6

$$$$

     RDKit          2D

 11 11  0  0  0  0  0  0  0  0999 V2000
    5.7760   -1.5000    0.0000 C   0  0  0  0  0  0  0  0  0  0  0  0
    5.7760   -0.0000    0.0000 C   0  0  0  0  0  0  0  0  0  0  0  0
    5.7760    1.5000    0.0000 C   0  0  0  0  0  0  0  0  0  0  0  0
    7.2760    0.0000    0.0000 C   0  0  0  0  0  0  0  0  0  0  0  0
    4.2760   -0.0000    0.0000 C   0  0  0  0  0  0  0  0  0  0  0  0
    2.7760    0.0000    0.0000 C   0  0  0  0  0  0  0  0  0  0  0  0
    1.2760    0.0000    0.0000 C   0  0  0  0  0  0  0  0  0  0  0  0
    0.3943    1.2135    0.0000 C   0  0  0  0  0  0  0  0  0  0  0  0
   -1.0323    0.7500    0.0000 C   0  0  0  0  0  0  0  0  0  0  0  0
   -1.0323   -0.7500    0.0000 C   0  0  0  0  0  0  0  0  0  0  0  0
    0.3943   -1.2135    0.0000 C   0  0  0  0  0  0  0  0  0  0  0  0
  1  2  1  0
  2  3  1  0
  2  4  1  0
  2  5  1  0
  5  6  3  0
  6  7  1  0
  7  8  2  0
  8  9  1  0
  9 10  2  0
 10 11  1  0
 11  7  1  0
M  END
>  <Title>  (860) 
idABFDgen6

$$$$

     RDKit          2D

 37 40  0  0  0  0  0  0  0  0999 V2000
    8.9145   -3.4031    0.0000 C   0  0  0  0  0  0  0  0  0  0  0  0
    7.4656   -3.7913    0.0000 C   0  0  0  0  0  0  0  0  0  0  0  0
    6.4049   -2.7307    0.0000 O   0  0  0  0  0  0  0  0  0  0  0  0
    7.0773   -5.2402    0.0000 C   0  0  0  0  0  0  0  0  0  0  0  0
    8.1380   -6.3009    0.0000 C   0  0  0  0  0  0  0  0  0  0  0  0
    9.5869   -5.9127    0.0000 C   0  0  0  0  0  0  0  0  0  0  0  0
   10.6476   -6.9733    0.0000 C   0  0  0  0  0  0  0  0  0  0  0  0
   12.0964   -6.5851    0.0000 C   0  0  0  0  0  0  0  0  0  0  0  0
   12.4847   -5.1362    0.0000 C   0  0  0  0  0  0  0  0  0  0  0  0
   11.4240   -4.0755    0.0000 C   0  0  0  0  0  0  0  0  0  0  0  0
    9.9751   -4.4638    0.0000 C   0  0  0  0  0  0  0  0  0  0  0  0
    5.6285   -5.6285    0.0000 N   0  0  0  0  0  0  0  0  0  0  0  0
    4.5678   -4.5678    0.0000 C   0  0  0  0  0  0  0  0  0  0  0  0
    4.9560   -3.1189    0.0000 O   0  0  0  0  0  0  0  0  0  0  0  0
    3.1189   -4.9560    0.0000 C   0  0  0  0  0  0  0  0  0  0  0  0
    2.7307   -6.4049    0.0000 C   0  0  0  0  0  0  0  0  0  0  0  0
    3.7913   -7.4656    0.0000 C   0  0  0  0  0  0  0  0  0  0  0  0
    3.4031   -8.9145    0.0000 C   0  0  0  0  0  0  0  0  0  0  0  0
    4.4638   -9.9751    0.0000 C   0  0  0  0  0  0  0  0  0  0  0  0
    5.9127   -9.5869    0.0000 C   0  0  0  0  0  0  0  0  0  0  0  0
    6.3009   -8.1380    0.0000 C   0  0  0  0  0  0  0  0  0  0  0  0
    5.2402   -7.0773    0.0000 C   0  0  0  0  0  0  0  0  0  0  0  0
    2.0583   -3.8954    0.0000 C   0  0  0  0  0  0  0  0  0  0  0  0
    0.6094   -4.2836    0.0000 O   0  0  0  0  0  0  0  0  0  0  0  0
    2.4465   -2.4465    0.0000 N   0  0  0  0  0  0  0  0  0  0  0  0
    1.3858   -1.3858    0.0000 C   0  0  0  0  0  0  0  0  0  0  0  0
    1.9598    0.0000    0.0000 N   0  0  0  0  0  0  0  0  0  0  0  0
    1.3858    1.3858    0.0000 N   0  0  0  0  0  0  0  0  0  0  0  0
    0.0000    1.9598    0.0000 N   0  0  0  0  0  0  0  0  0  0  0  0
   -1.3858    1.3858    0.0000 N   0  0  0  0  0  0  0  0  0  0  0  0
   -1.9598    0.0000    0.0000 C   0  0  0  0  0  0  0  0  0  0  0  0
   -3.4552   -0.1177    0.0000 C   0  0  0  0  0  0  0  0  0  0  0  0
   -3.8054   -1.5762    0.0000 C   0  0  0  0  0  0  0  0  0  0  0  0
   -2.5264   -2.3600    0.0000 C   0  0  0  0  0  0  0  0  0  0  0  0
   -2.4087   -3.8554    0.0000 O   0  0  0  0  0  0  0  0  0  0  0  0
   -1.3858   -1.3858    0.0000 N   0  0  0  0  0  0  0  0  0  0  0  0
   -0.0000   -1.9598    0.0000 C   0  0  0  0  0  0  0  0  0  0  0  0
  1  2  1  0
  2  3  2  0
  2  4  1  0
  4  5  1  0
  5  6  1  0
  6  7  2  0
  7  8  1  0
  8  9  2  0
  9 10  1  0
 10 11  2  0
  4 12  1  0
 12 13  1  0
 13 14  2  0
 13 15  1  0
 15 16  1  0
 16 17  1  0
 17 18  2  0
 18 19  1  0
 19 20  2  0
 20 21  1  0
 21 22  2  0
 15 23  1  0
 23 24  2  0
 23 25  1  0
 25 26  1  0
 26 27  2  0
 27 28  1  0
 28 29  2  0
 29 30  1  0
 30 31  2  0
 31 32  1  0
 32 33  1  0
 33 34  1  0
 34 35  2  0
 34 36  1  0
 36 37  1  0
 11  6  1  0
 22 17  1  0
 37 26  1  0
 36 31  1  0
M  END
>  <Title>  (861) 
idABFEgen6

$$$$

     RDKit          2D

 35 39  0  0  0  0  0  0  0  0999 V2000
    6.3723   -8.9567    0.0000 C   0  0  0  0  0  0  0  0  0  0  0  0
    5.0078   -8.3335    0.0000 C   0  0  0  0  0  0  0  0  0  0  0  0
    4.8653   -6.8403    0.0000 O   0  0  0  0  0  0  0  0  0  0  0  0
    3.7860   -9.2036    0.0000 O   0  0  0  0  0  0  0  0  0  0  0  0
    2.4215   -8.5805    0.0000 C   0  0  0  0  0  0  0  0  0  0  0  0
    2.6350   -7.0958    0.0000 C   0  0  0  0  0  0  0  0  0  0  0  0
    2.0119   -5.7313    0.0000 C   0  0  0  0  0  0  0  0  0  0  0  0
    0.7500   -4.9204    0.0000 C   0  0  0  0  0  0  0  0  0  0  0  0
    1.8107   -3.8597    0.0000 C   0  0  0  0  0  0  0  0  0  0  0  0
    3.1965   -4.4337    0.0000 O   0  0  0  0  0  0  0  0  0  0  0  0
    1.8107   -2.3597    0.0000 O   0  0  0  0  0  0  0  0  0  0  0  0
    0.7500   -1.2990    0.0000 C   0  0  0  0  0  0  0  0  0  0  0  0
    1.5000    0.0000    0.0000 C   0  0  0  0  0  0  0  0  0  0  0  0
    0.7500    1.2990    0.0000 C   0  0  0  0  0  0  0  0  0  0  0  0
   -0.7500    1.2990    0.0000 C   0  0  0  0  0  0  0  0  0  0  0  0
   -1.5000    0.0000    0.0000 C   0  0  0  0  0  0  0  0  0  0  0  0
   -0.7500   -1.2990    0.0000 C   0  0  0  0  0  0  0  0  0  0  0  0
   -1.8107   -2.3597    0.0000 C   0  0  0  0  0  0  0  0  0  0  0  0
   -1.8107   -3.8597    0.0000 C   0  0  0  0  0  0  0  0  0  0  0  0
   -0.7500   -4.9204    0.0000 C   0  0  0  0  0  0  0  0  0  0  0  0
   -2.0119   -5.7313    0.0000 C   0  0  0  0  0  0  0  0  0  0  0  0
   -2.8820   -4.5095    0.0000 C   0  0  0  0  0  0  0  0  0  0  0  0
   -4.3752   -4.6520    0.0000 C   0  0  0  0  0  0  0  0  0  0  0  0
   -4.9983   -6.0165    0.0000 C   0  0  0  0  0  0  0  0  0  0  0  0
   -4.1282   -7.2384    0.0000 C   0  0  0  0  0  0  0  0  0  0  0  0
   -2.6350   -7.0958    0.0000 C   0  0  0  0  0  0  0  0  0  0  0  0
   -2.4215   -8.5805    0.0000 C   0  0  0  0  0  0  0  0  0  0  0  0
   -3.7860   -9.2036    0.0000 O   0  0  0  0  0  0  0  0  0  0  0  0
   -1.4392   -9.7141    0.0000 O   0  0  0  0  0  0  0  0  0  0  0  0
   -0.0000  -10.1367    0.0000 C   0  0  0  0  0  0  0  0  0  0  0  0
   -0.3536  -11.5944    0.0000 C   0  0  0  0  0  0  0  0  0  0  0  0
    0.7320  -12.6296    0.0000 C   0  0  0  0  0  0  0  0  0  0  0  0
    2.1712  -12.2070    0.0000 C   0  0  0  0  0  0  0  0  0  0  0  0
    2.5248  -10.7492    0.0000 C   0  0  0  0  0  0  0  0  0  0  0  0
    1.4392   -9.7141    0.0000 C   0  0  0  0  0  0  0  0  0  0  0  0
  1  2  1  0
  2  3  2  0
  2  4  1  0
  4  5  1  0
  5  6  2  0
  6  7  1  0
  7  8  2  0
  8  9  1  0
  9 10  2  0
  9 11  1  0
 11 12  1  0
 12 13  2  0
 13 14  1  0
 14 15  2  0
 15 16  1  0
 16 17  2  0
 17 18  1  0
 18 19  1  0
 19 20  2  0
 20 21  1  0
 21 22  2  0
 22 23  1  0
 23 24  2  0
 24 25  1  0
 25 26  2  0
 26 27  1  0
 27 28  2  0
 27 29  1  0
 29 30  1  0
 30 31  2  0
 31 32  1  0
 32 33  2  0
 33 34  1  0
 34 35  2  0
 35  5  1  0
 20  8  1  0
 26 21  1  0
 35 30  1  0
 17 12  1  0
M  END
>  <Title>  (862) 
idABFFgen6

$$$$

     RDKit          2D

 10 10  0  0  0  0  0  0  0  0999 V2000
    3.0000   -1.5000    0.0000 C   0  0  0  0  0  0  0  0  0  0  0  0
    3.0000    0.0000    0.0000 C   0  0  0  0  0  0  0  0  0  0  0  0
    3.0000    1.5000    0.0000 C   0  0  0  0  0  0  0  0  0  0  0  0
    4.5000    0.0000    0.0000 C   0  0  0  0  0  0  0  0  0  0  0  0
    1.5000    0.0000    0.0000 C   0  0  0  0  0  0  0  0  0  0  0  0
    0.7500   -1.2990    0.0000 C   0  0  0  0  0  0  0  0  0  0  0  0
   -0.7500   -1.2990    0.0000 C   0  0  0  0  0  0  0  0  0  0  0  0
   -1.5000    0.0000    0.0000 C   0  0  0  0  0  0  0  0  0  0  0  0
   -0.7500    1.2990    0.0000 C   0  0  0  0  0  0  0  0  0  0  0  0
    0.7500    1.2990    0.0000 C   0  0  0  0  0  0  0  0  0  0  0  0
  1  2  1  0
  2  3  1  0
  2  4  1  0
  2  5  1  0
  5  6  2  0
  6  7  1  0
  7  8  2  0
  8  9  1  0
  9 10  2  0
 10  5  1  0
M  END
>  <Title>  (863) 
idABFGgen6

$$$$

     RDKit          2D

 33 36  0  0  0  0  0  0  0  0999 V2000
   -1.2686   -6.6303    0.0000 C   0  0  0  0  0  0  0  0  0  0  0  0
   -2.7358   -6.3184    0.0000 C   0  0  0  0  0  0  0  0  0  0  0  0
   -3.7395   -7.4331    0.0000 O   0  0  0  0  0  0  0  0  0  0  0  0
   -3.1993   -4.8918    0.0000 C   0  0  0  0  0  0  0  0  0  0  0  0
   -2.1956   -3.7771    0.0000 O   0  0  0  0  0  0  0  0  0  0  0  0
   -4.6665   -4.5800    0.0000 C   0  0  0  0  0  0  0  0  0  0  0  0
   -5.6702   -5.6947    0.0000 C   0  0  0  0  0  0  0  0  0  0  0  0
   -7.1375   -5.3828    0.0000 C   0  0  0  0  0  0  0  0  0  0  0  0
   -8.1412   -6.4975    0.0000 C   0  0  0  0  0  0  0  0  0  0  0  0
   -9.6084   -6.1857    0.0000 C   0  0  0  0  0  0  0  0  0  0  0  0
  -10.0719   -4.7591    0.0000 C   0  0  0  0  0  0  0  0  0  0  0  0
   -9.0682   -3.6444    0.0000 C   0  0  0  0  0  0  0  0  0  0  0  0
   -7.6010   -3.9562    0.0000 C   0  0  0  0  0  0  0  0  0  0  0  0
   -5.1301   -3.1534    0.0000 N   0  0  0  0  0  0  0  0  0  0  0  0
   -4.1264   -2.0387    0.0000 C   0  0  0  0  0  0  0  0  0  0  0  0
   -2.6591   -2.3505    0.0000 O   0  0  0  0  0  0  0  0  0  0  0  0
   -4.5899   -0.6121    0.0000 C   0  0  0  0  0  0  0  0  0  0  0  0
   -6.0165   -0.1485    0.0000 C   0  0  0  0  0  0  0  0  0  0  0  0
   -6.0165    1.3515    0.0000 C   0  0  0  0  0  0  0  0  0  0  0  0
   -4.5899    1.8150    0.0000 C   0  0  0  0  0  0  0  0  0  0  0  0
   -4.1264    3.2416    0.0000 O   0  0  0  0  0  0  0  0  0  0  0  0
   -3.7082    0.6015    0.0000 N   0  0  0  0  0  0  0  0  0  0  0  0
   -2.2082    0.6015    0.0000 C   0  0  0  0  0  0  0  0  0  0  0  0
   -1.5574    1.9529    0.0000 C   0  0  0  0  0  0  0  0  0  0  0  0
   -0.0950    2.2867    0.0000 C   0  0  0  0  0  0  0  0  0  0  0  0
    1.0777    1.3515    0.0000 C   0  0  0  0  0  0  0  0  0  0  0  0
    1.7286    0.0000    0.0000 C   0  0  0  0  0  0  0  0  0  0  0  0
    1.0777   -1.3515    0.0000 C   0  0  0  0  0  0  0  0  0  0  0  0
   -0.3846   -1.6852    0.0000 C   0  0  0  0  0  0  0  0  0  0  0  0
   -1.5574   -0.7500    0.0000 C   0  0  0  0  0  0  0  0  0  0  0  0
   -0.9267    0.4463    0.0000 C   0  0  0  0  0  0  0  0  0  0  0  0
   -2.9088    1.4008    0.0000 O   0  0  0  0  0  0  0  0  0  0  0  0
   -0.2289    1.0028    0.0000 O   0  0  0  0  0  0  0  0  0  0  0  0
  1  2  1  0
  2  3  2  0
  2  4  1  0
  4  5  2  0
  4  6  1  0
  6  7  1  0
  7  8  1  0
  8  9  2  0
  9 10  1  0
 10 11  2  0
 11 12  1  0
 12 13  2  0
  6 14  1  0
 14 15  1  0
 15 16  2  0
 15 17  1  0
 17 18  1  0
 18 19  1  0
 19 20  1  0
 20 21  2  0
 20 22  1  0
 22 23  1  0
 23 24  2  0
 24 25  1  0
 25 26  2  0
 26 27  1  0
 27 28  2  0
 28 29  1  0
 29 30  2  0
 30 31  1  0
 31 32  2  0
 31 33  1  0
 13  8  1  0
 22 17  1  0
 30 23  1  0
 33 26  1  0
M  END
>  <Title>  (864) 
idABFHgen6

$$$$

     RDKit          2D

 31 35  0  0  0  0  0  0  0  0999 V2000
   -3.0000   -2.5981    0.0000 C   0  0  0  0  0  0  0  0  0  0  0  0
   -1.5000   -2.5981    0.0000 C   0  0  0  0  0  0  0  0  0  0  0  0
   -0.7500   -3.8971    0.0000 C   0  0  0  0  0  0  0  0  0  0  0  0
    0.7500   -3.8971    0.0000 C   0  0  0  0  0  0  0  0  0  0  0  0
    1.5000   -2.5981    0.0000 C   0  0  0  0  0  0  0  0  0  0  0  0
    3.0000   -2.5981    0.0000 C   0  0  0  0  0  0  0  0  0  0  0  0
    3.8817   -1.3846    0.0000 C   0  0  0  0  0  0  0  0  0  0  0  0
    5.3083   -1.8481    0.0000 C   0  0  0  0  0  0  0  0  0  0  0  0
    5.3083   -3.3481    0.0000 C   0  0  0  0  0  0  0  0  0  0  0  0
    6.5218   -4.2298    0.0000 C   0  0  0  0  0  0  0  0  0  0  0  0
    6.3650   -5.7215    0.0000 C   0  0  0  0  0  0  0  0  0  0  0  0
    7.5785   -6.6032    0.0000 C   0  0  0  0  0  0  0  0  0  0  0  0
    8.9488   -5.9931    0.0000 C   0  0  0  0  0  0  0  0  0  0  0  0
   10.1624   -6.8748    0.0000 C   0  0  0  0  0  0  0  0  0  0  0  0
   11.5327   -6.2647    0.0000 O   0  0  0  0  0  0  0  0  0  0  0  0
   10.0056   -8.3666    0.0000 N   0  0  0  0  0  0  0  0  0  0  0  0
   11.2191   -9.2482    0.0000 C   0  0  0  0  0  0  0  0  0  0  0  0
   11.0623  -10.7400    0.0000 N   0  0  0  0  0  0  0  0  0  0  0  0
   12.2758  -11.6217    0.0000 N   0  0  0  0  0  0  0  0  0  0  0  0
   13.6461  -11.0116    0.0000 N   0  0  0  0  0  0  0  0  0  0  0  0
   13.8029   -9.5198    0.0000 N   0  0  0  0  0  0  0  0  0  0  0  0
   12.5894   -8.6381    0.0000 N   0  0  0  0  0  0  0  0  0  0  0  0
    9.1056   -4.5013    0.0000 C   0  0  0  0  0  0  0  0  0  0  0  0
    7.8921   -3.6196    0.0000 C   0  0  0  0  0  0  0  0  0  0  0  0
    3.8817   -3.8116    0.0000 C   0  0  0  0  0  0  0  0  0  0  0  0
    0.7500   -1.2990    0.0000 C   0  0  0  0  0  0  0  0  0  0  0  0
    1.5000    0.0000    0.0000 C   0  0  0  0  0  0  0  0  0  0  0  0
    0.7500    1.2990    0.0000 C   0  0  0  0  0  0  0  0  0  0  0  0
   -0.7500    1.2990    0.0000 C   0  0  0  0  0  0  0  0  0  0  0  0
   -1.5000    0.0000    0.0000 C   0  0  0  0  0  0  0  0  0  0  0  0
   -0.7500   -1.2990    0.0000 C   0  0  0  0  0  0  0  0  0  0  0  0
  1  2  1  0
  2  3  1  0
  3  4  1  0
  4  5  1  0
  5  6  1  0
  6  7  1  0
  7  8  1  0
  8  9  1  0
  9 10  1  0
 10 11  2  0
 11 12  1  0
 12 13  2  0
 13 14  1  0
 14 15  2  0
 14 16  1  0
 16 17  1  0
 17 18  2  0
 18 19  1  0
 19 20  2  0
 20 21  1  0
 21 22  2  0
 13 23  1  0
 23 24  1  0
  9 25  1  0
  5 26  1  0
 26 27  2  0
 27 28  1  0
 28 29  2  0
 29 30  1  0
 30 31  2  0
 31  2  1  0
 25  6  1  0
 31 26  1  0
 24 10  1  0
 22 17  1  0
M  END
>  <Title>  (865) 
idABFIgen6

$$$$

     RDKit          2D

 54 59  0  0  0  0  0  0  0  0999 V2000
    9.2344   -4.4021    0.0000 C   0  0  0  0  0  0  0  0  0  0  0  0
    7.8792   -5.0452    0.0000 C   0  0  0  0  0  0  0  0  0  0  0  0
    6.6447   -4.1931    0.0000 O   0  0  0  0  0  0  0  0  0  0  0  0
    7.7585   -6.5403    0.0000 C   0  0  0  0  0  0  0  0  0  0  0  0
    8.9930   -7.3924    0.0000 C   0  0  0  0  0  0  0  0  0  0  0  0
    6.4033   -7.1833    0.0000 C   0  0  0  0  0  0  0  0  0  0  0  0
    5.1688   -6.3312    0.0000 C   0  0  0  0  0  0  0  0  0  0  0  0
    3.8137   -6.9743    0.0000 C   0  0  0  0  0  0  0  0  0  0  0  0
    2.5792   -6.1222    0.0000 C   0  0  0  0  0  0  0  0  0  0  0  0
    3.1111   -4.7197    0.0000 C   0  0  0  0  0  0  0  0  0  0  0  0
    2.9303   -3.2306    0.0000 C   0  0  0  0  0  0  0  0  0  0  0  0
    2.0782   -1.9961    0.0000 C   0  0  0  0  0  0  0  0  0  0  0  0
    3.0729   -0.8734    0.0000 C   0  0  0  0  0  0  0  0  0  0  0  0
    0.7500   -1.2990    0.0000 C   0  0  0  0  0  0  0  0  0  0  0  0
    1.5000    0.0000    0.0000 C   0  0  0  0  0  0  0  0  0  0  0  0
    0.7500    1.2990    0.0000 C   0  0  0  0  0  0  0  0  0  0  0  0
   -0.7500    1.2990    0.0000 C   0  0  0  0  0  0  0  0  0  0  0  0
   -1.5000    0.0000    0.0000 C   0  0  0  0  0  0  0  0  0  0  0  0
   -0.7500   -1.2990    0.0000 C   0  0  0  0  0  0  0  0  0  0  0  0
   -2.0782   -1.9961    0.0000 C   0  0  0  0  0  0  0  0  0  0  0  0
   -2.5121   -0.5602    0.0000 C   0  0  0  0  0  0  0  0  0  0  0  0
   -3.9052   -0.0042    0.0000 C   0  0  0  0  0  0  0  0  0  0  0  0
   -5.2085   -0.7467    0.0000 C   0  0  0  0  0  0  0  0  0  0  0  0
   -6.4430    0.1054    0.0000 O   0  0  0  0  0  0  0  0  0  0  0  0
   -6.3223    1.6005    0.0000 C   0  0  0  0  0  0  0  0  0  0  0  0
   -7.5568    2.4526    0.0000 C   0  0  0  0  0  0  0  0  0  0  0  0
   -7.4361    3.9477    0.0000 C   0  0  0  0  0  0  0  0  0  0  0  0
   -8.6706    4.7998    0.0000 C   0  0  0  0  0  0  0  0  0  0  0  0
  -10.0257    4.1568    0.0000 C   0  0  0  0  0  0  0  0  0  0  0  0
  -10.1464    2.6617    0.0000 C   0  0  0  0  0  0  0  0  0  0  0  0
   -8.9120    1.8096    0.0000 C   0  0  0  0  0  0  0  0  0  0  0  0
   -5.4406   -2.2287    0.0000 C   0  0  0  0  0  0  0  0  0  0  0  0
   -6.8765   -2.6625    0.0000 O   0  0  0  0  0  0  0  0  0  0  0  0
   -4.4267   -3.3341    0.0000 N   0  0  0  0  0  0  0  0  0  0  0  0
   -2.9303   -3.2306    0.0000 C   0  0  0  0  0  0  0  0  0  0  0  0
   -3.1111   -4.7197    0.0000 C   0  0  0  0  0  0  0  0  0  0  0  0
   -2.5792   -6.1222    0.0000 C   0  0  0  0  0  0  0  0  0  0  0  0
   -1.4564   -7.1169    0.0000 C   0  0  0  0  0  0  0  0  0  0  0  0
   -2.1535   -8.4451    0.0000 O   0  0  0  0  0  0  0  0  0  0  0  0
   -3.6523   -8.5055    0.0000 C   0  0  0  0  0  0  0  0  0  0  0  0
   -4.4540   -7.2377    0.0000 O   0  0  0  0  0  0  0  0  0  0  0  0
   -4.3494   -9.8336    0.0000 C   0  0  0  0  0  0  0  0  0  0  0  0
   -5.8481   -9.8940    0.0000 C   0  0  0  0  0  0  0  0  0  0  0  0
   -6.5452  -11.2222    0.0000 C   0  0  0  0  0  0  0  0  0  0  0  0
   -5.7435  -12.4900    0.0000 C   0  0  0  0  0  0  0  0  0  0  0  0
   -6.4406  -13.8182    0.0000 O   0  0  0  0  0  0  0  0  0  0  0  0
   -4.2448  -12.4296    0.0000 C   0  0  0  0  0  0  0  0  0  0  0  0
   -3.5477  -11.1014    0.0000 C   0  0  0  0  0  0  0  0  0  0  0  0
   -0.0000   -7.4758    0.0000 C   0  0  0  0  0  0  0  0  0  0  0  0
   -0.4173   -8.9166    0.0000 C   0  0  0  0  0  0  0  0  0  0  0  0
    0.6218   -9.9984    0.0000 C   0  0  0  0  0  0  0  0  0  0  0  0
    2.0782   -9.6395    0.0000 C   0  0  0  0  0  0  0  0  0  0  0  0
    2.4955   -8.1987    0.0000 C   0  0  0  0  0  0  0  0  0  0  0  0
    1.4564   -7.1169    0.0000 C   0  0  0  0  0  0  0  0  0  0  0  0
  1  2  1  0
  2  3  2  0
  2  4  1  0
  4  5  1  0
  4  6  2  3
  6  7  1  0
  7  8  2  3
  8  9  1  0
  9 10  2  0
 10 11  1  0
 11 12  2  0
 12 13  1  0
 12 14  1  0
 14 15  2  0
 15 16  1  0
 16 17  2  0
 17 18  1  0
 18 19  2  0
 19 20  1  0
 20 21  2  0
 21 22  1  0
 22 23  2  0
 23 24  1  0
 24 25  1  0
 25 26  1  0
 26 27  2  0
 27 28  1  0
 28 29  2  0
 29 30  1  0
 30 31  2  0
 23 32  1  0
 32 33  2  0
 32 34  1  0
 34 35  1  0
 35 36  2  0
 36 37  1  0
 37 38  2  0
 38 39  1  0
 39 40  1  0
 40 41  2  0
 40 42  1  0
 42 43  2  0
 43 44  1  0
 44 45  2  0
 45 46  1  0
 45 47  1  0
 47 48  2  0
 38 49  1  0
 49 50  2  0
 50 51  1  0
 51 52  2  0
 52 53  1  0
 53 54  2  0
 54  9  1  0
 19 14  1  0
 35 20  1  0
 48 42  1  0
 54 49  1  0
 31 26  1  0
M  END
>  <Title>  (866) 
idABFJgen6

$$$$

     RDKit          2D

  6  5  0  0  0  0  0  0  0  0999 V2000
    0.0000    0.0000    0.0000 C   0  0  0  0  0  0  0  0  0  0  0  0
    1.2990    0.7500    0.0000 C   0  0  0  0  0  0  0  0  0  0  0  0
    1.2990    2.2500    0.0000 O   0  0  0  0  0  0  0  0  0  0  0  0
    2.5981   -0.0000    0.0000 C   0  0  0  0  0  0  0  0  0  0  0  0
    3.8971    0.7500    0.0000 C   0  0  0  0  0  0  0  0  0  0  0  0
    2.5981   -1.5000    0.0000 F   0  0  0  0  0  0  0  0  0  0  0  0
  1  2  1  0
  2  3  2  0
  2  4  1  0
  4  5  1  0
  4  6  1  0
M  END
>  <Title>  (867) 
idABFKgen6

$$$$

     RDKit          2D

 21 23  0  0  0  0  0  0  0  0999 V2000
   -3.0000   -2.5981    0.0000 C   0  0  0  0  0  0  0  0  0  0  0  0
   -1.5000   -2.5981    0.0000 C   0  0  0  0  0  0  0  0  0  0  0  0
   -0.7500   -3.8971    0.0000 C   0  0  0  0  0  0  0  0  0  0  0  0
    0.7500   -3.8971    0.0000 C   0  0  0  0  0  0  0  0  0  0  0  0
    1.5000   -2.5981    0.0000 C   0  0  0  0  0  0  0  0  0  0  0  0
    3.0000   -2.5981    0.0000 C   0  0  0  0  0  0  0  0  0  0  0  0
    3.7500   -1.2990    0.0000 O   0  0  0  0  0  0  0  0  0  0  0  0
    3.7500   -3.8971    0.0000 N   0  0  0  0  0  0  0  0  0  0  0  0
    5.2500   -3.8971    0.0000 C   0  0  0  0  0  0  0  0  0  0  0  0
    6.0000   -5.1962    0.0000 N   0  0  0  0  0  0  0  0  0  0  0  0
    7.5000   -5.1962    0.0000 N   0  0  0  0  0  0  0  0  0  0  0  0
    8.2500   -3.8971    0.0000 N   0  0  0  0  0  0  0  0  0  0  0  0
    7.5000   -2.5981    0.0000 N   0  0  0  0  0  0  0  0  0  0  0  0
    6.0000   -2.5981    0.0000 N   0  0  0  0  0  0  0  0  0  0  0  0
    0.7500   -1.2990    0.0000 C   0  0  0  0  0  0  0  0  0  0  0  0
    1.5000    0.0000    0.0000 C   0  0  0  0  0  0  0  0  0  0  0  0
    0.7500    1.2990    0.0000 C   0  0  0  0  0  0  0  0  0  0  0  0
   -0.7500    1.2990    0.0000 C   0  0  0  0  0  0  0  0  0  0  0  0
   -1.5000    2.5981    0.0000 O   0  0  0  0  0  0  0  0  0  0  0  0
   -1.5000    0.0000    0.0000 C   0  0  0  0  0  0  0  0  0  0  0  0
   -0.7500   -1.2990    0.0000 C   0  0  0  0  0  0  0  0  0  0  0  0
  1  2  1  0
  2  3  1  0
  3  4  1  0
  4  5  1  0
  5  6  1  0
  6  7  2  0
  6  8  1  0
  8  9  1  0
  9 10  2  0
 10 11  1  0
 11 12  2  0
 12 13  1  0
 13 14  2  0
  5 15  1  0
 15 16  2  0
 16 17  1  0
 17 18  2  0
 18 19  1  0
 18 20  1  0
 20 21  2  0
 21  2  1  0
 14  9  1  0
 21 15  1  0
M  END
>  <Title>  (868) 
idABFLgen6

$$$$

     RDKit          2D

 26 27  0  0  0  0  0  0  0  0999 V2000
    5.1073    0.0000    0.0000 C   0  0  0  0  0  0  0  0  0  0  0  0
    3.6073    0.0000    0.0000 C   0  0  0  0  0  0  0  0  0  0  0  0
    3.2954    1.4672    0.0000 C   0  0  0  0  0  0  0  0  0  0  0  0
    2.4138    2.6807    0.0000 C   0  0  0  0  0  0  0  0  0  0  0  0
    1.1147    3.4307    0.0000 C   0  0  0  0  0  0  0  0  0  0  0  0
   -0.3771    3.5875    0.0000 C   0  0  0  0  0  0  0  0  0  0  0  0
   -1.8037    3.1240    0.0000 C   0  0  0  0  0  0  0  0  0  0  0  0
   -2.9184    2.1203    0.0000 C   0  0  0  0  0  0  0  0  0  0  0  0
   -3.5285    0.7500    0.0000 C   0  0  0  0  0  0  0  0  0  0  0  0
   -3.5285   -0.7500    0.0000 C   0  0  0  0  0  0  0  0  0  0  0  0
   -2.9184   -2.1203    0.0000 C   0  0  0  0  0  0  0  0  0  0  0  0
   -1.8037   -3.1240    0.0000 C   0  0  0  0  0  0  0  0  0  0  0  0
   -0.3771   -3.5875    0.0000 C   0  0  0  0  0  0  0  0  0  0  0  0
    1.1147   -3.4307    0.0000 C   0  0  0  0  0  0  0  0  0  0  0  0
    2.4138   -2.6807    0.0000 C   0  0  0  0  0  0  0  0  0  0  0  0
    3.2954   -1.4672    0.0000 N   0  0  0  0  0  0  0  0  0  0  0  0
    4.6658   -2.0773    0.0000 C   0  0  0  0  0  0  0  0  0  0  0  0
    5.8793   -1.1956    0.0000 O   0  0  0  0  0  0  0  0  0  0  0  0
    4.8225   -3.5691    0.0000 C   0  0  0  0  0  0  0  0  0  0  0  0
    6.1216   -4.3191    0.0000 C   0  0  0  0  0  0  0  0  0  0  0  0
    5.8097   -5.7863    0.0000 C   0  0  0  0  0  0  0  0  0  0  0  0
    4.3179   -5.9431    0.0000 C   0  0  0  0  0  0  0  0  0  0  0  0
    3.5679   -7.2422    0.0000 C   0  0  0  0  0  0  0  0  0  0  0  0
    4.3179   -8.5412    0.0000 O   0  0  0  0  0  0  0  0  0  0  0  0
    2.0679   -7.2422    0.0000 O   0  0  0  0  0  0  0  0  0  0  0  0
    3.7078   -4.5728    0.0000 C   0  0  0  0  0  0  0  0  0  0  0  0
  1  2  1  0
  2  3  1  0
  3  4  2  0
  4  5  1  0
  5  6  2  0
  6  7  1  0
  7  8  1  0
  8  9  1  0
  9 10  1  0
 10 11  1  0
 11 12  1  0
 12 13  1  0
 13 14  1  0
 14 15  1  0
 15 16  1  0
 16 17  1  0
 17 18  2  0
 17 19  1  0
 19 20  1  0
 20 21  1  0
 21 22  1  0
 22 23  1  0
 23 24  2  0
 23 25  1  0
 22 26  1  0
 16  2  1  0
 26 19  1  0
M  END
>  <Title>  (869) 
idABFMgen6

$$$$

     RDKit          2D

  6  5  0  0  0  0  0  0  0  0999 V2000
   -0.0000   -1.5000    0.0000 N   0  0  0  0  0  0  0  0  0  0  0  0
    0.0000    0.0000    0.0000 C   0  0  0  0  0  0  0  0  0  0  0  0
    0.0000    1.5000    0.0000 C   0  0  0  0  0  0  0  0  0  0  0  0
    0.0000    3.0000    0.0000 C   0  0  0  0  0  0  0  0  0  0  0  0
    0.0000    4.5000    0.0000 C   0  0  0  0  0  0  0  0  0  0  0  0
    0.0000    6.0000    0.0000 N   0  0  0  0  0  0  0  0  0  0  0  0
  1  2  3  0
  2  3  1  0
  3  4  3  0
  4  5  1  0
  5  6  3  0
M  END
>  <Title>  (870) 
idABFNgen6

$$$$

     RDKit          2D

  8  7  0  0  0  0  0  0  0  0999 V2000
    0.0000    0.0000    0.0000 C   0  0  0  0  0  0  0  0  0  0  0  0
    1.2990    0.7500    0.0000 C   0  0  0  0  0  0  0  0  0  0  0  0
    1.2990    2.2500    0.0000 O   0  0  0  0  0  0  0  0  0  0  0  0
    2.5981   -0.0000    0.0000 C   0  0  0  0  0  0  0  0  0  0  0  0
    3.8971    0.7500    0.0000 C   0  0  0  0  0  0  0  0  0  0  0  0
    2.5981   -1.5000    0.0000 C   0  0  0  0  0  0  0  0  0  0  0  0
    3.8971   -2.2500    0.0000 C   0  0  0  0  0  0  0  0  0  0  0  0
    5.1962   -3.0000    0.0000 N   0  0  0  0  0  0  0  0  0  0  0  0
  1  2  1  0
  2  3  2  0
  2  4  1  0
  4  5  1  0
  4  6  2  3
  6  7  1  0
  7  8  3  0
M  END
>  <Title>  (871) 
idABFOgen6

$$$$

     RDKit          2D

 42 47  0  0  0  0  0  0  0  0999 V2000
   -3.2212   -6.4035    0.0000 C   0  0  0  0  0  0  0  0  0  0  0  0
   -2.9023   -4.9377    0.0000 C   0  0  0  0  0  0  0  0  0  0  0  0
   -1.4062   -4.8307    0.0000 C   0  0  0  0  0  0  0  0  0  0  0  0
   -0.2053   -3.9318    0.0000 C   0  0  0  0  0  0  0  0  0  0  0  0
    0.3188   -2.5264    0.0000 C   0  0  0  0  0  0  0  0  0  0  0  0
   -0.0000   -1.0607    0.0000 C   0  0  0  0  0  0  0  0  0  0  0  0
    1.0607    0.0000    0.0000 C   0  0  0  0  0  0  0  0  0  0  0  0
    2.5607    0.0000    0.0000 O   0  0  0  0  0  0  0  0  0  0  0  0
    0.0000    1.0607    0.0000 N   0  0  0  0  0  0  0  0  0  0  0  0
   -1.0607    0.0000    0.0000 C   0  0  0  0  0  0  0  0  0  0  0  0
   -2.5264    0.3188    0.0000 C   0  0  0  0  0  0  0  0  0  0  0  0
   -3.9318   -0.2053    0.0000 C   0  0  0  0  0  0  0  0  0  0  0  0
   -4.8307   -1.4062    0.0000 C   0  0  0  0  0  0  0  0  0  0  0  0
   -4.9377   -2.9023    0.0000 C   0  0  0  0  0  0  0  0  0  0  0  0
   -4.2189   -4.2189    0.0000 C   0  0  0  0  0  0  0  0  0  0  0  0
   -5.2795   -5.2795    0.0000 C   0  0  0  0  0  0  0  0  0  0  0  0
   -6.7284   -4.8913    0.0000 C   0  0  0  0  0  0  0  0  0  0  0  0
   -7.7891   -5.9519    0.0000 S   0  0  0  0  0  4  0  0  0  0  0  0
   -7.4008   -7.4008    0.0000 C   0  0  0  0  0  0  0  0  0  0  0  0
   -8.4615   -8.4615    0.0000 C   0  0  0  0  0  0  0  0  0  0  0  0
   -8.0733   -9.9104    0.0000 O   0  0  0  0  0  0  0  0  0  0  0  0
   -9.9104   -8.0733    0.0000 N   0  0  0  0  0  0  0  0  0  0  0  0
  -10.9710   -9.1339    0.0000 C   0  0  0  0  0  0  0  0  0  0  0  0
  -10.7364  -10.6155    0.0000 N   0  0  0  0  0  0  0  0  0  0  0  0
  -12.0729  -11.2964    0.0000 N   0  0  0  0  0  0  0  0  0  0  0  0
  -13.1336  -10.2358    0.0000 N   0  0  0  0  0  0  0  0  0  0  0  0
  -12.4526   -8.8993    0.0000 N   0  0  0  0  0  0  0  0  0  0  0  0
  -13.1336   -7.5628    0.0000 N   0  0  0  0  0  0  0  0  0  0  0  0
  -14.6151   -7.3281    0.0000 C   0  0  0  0  0  0  0  0  0  0  0  0
  -14.8497   -5.8466    0.0000 C   0  0  0  0  0  0  0  0  0  0  0  0
  -13.5132   -5.1656    0.0000 C   0  0  0  0  0  0  0  0  0  0  0  0
  -13.2786   -3.6841    0.0000 C   0  0  0  0  0  0  0  0  0  0  0  0
  -11.8782   -3.1465    0.0000 C   0  0  0  0  0  0  0  0  0  0  0  0
  -11.6436   -1.6650    0.0000 C   0  0  0  0  0  0  0  0  0  0  0  0
  -12.8093   -0.7210    0.0000 C   0  0  0  0  0  0  0  0  0  0  0  0
  -14.2097   -1.2586    0.0000 C   0  0  0  0  0  0  0  0  0  0  0  0
  -14.4443   -2.7401    0.0000 C   0  0  0  0  0  0  0  0  0  0  0  0
  -12.4526   -6.2263    0.0000 C   0  0  0  0  0  0  0  0  0  0  0  0
  -10.9710   -5.9916    0.0000 O   0  0  0  0  0  0  0  0  0  0  0  0
   -5.9519   -7.7891    0.0000 C   0  0  0  0  0  0  0  0  0  0  0  0
   -5.5637   -9.2380    0.0000 C   0  0  0  0  0  0  0  0  0  0  0  0
   -4.8913   -6.7284    0.0000 N   0  0  0  0  0  0  0  0  0  0  0  0
  1  2  1  0
  2  3  2  0
  3  4  1  0
  4  5  1  0
  5  6  1  0
  6  7  1  0
  7  8  2  0
  7  9  1  0
  9 10  1  0
 10 11  2  0
 11 12  1  0
 12 13  2  0
 13 14  1  0
 14 15  2  0
 15 16  1  0
 16 17  2  0
 17 18  1  0
 18 19  2  0
 19 20  1  0
 20 21  2  0
 20 22  1  0
 22 23  1  0
 23 24  2  0
 24 25  1  0
 25 26  2  0
 26 27  1  0
 27 28  1  0
 28 29  1  0
 29 30  2  0
 30 31  1  0
 31 32  1  0
 32 33  2  0
 33 34  1  0
 34 35  2  0
 35 36  1  0
 36 37  2  0
 31 38  1  0
 38 39  2  0
 19 40  1  0
 40 41  1  0
 40 42  2  0
 15  2  1  0
 42 16  1  0
 10  6  1  0
 27 23  1  0
 38 28  1  0
 37 32  1  0
M  END
>  <Title>  (872) 
idABFPgen6

$$$$

     RDKit          2D

 46 52  0  0  0  0  0  0  0  0999 V2000
   -3.0000   -2.5981    0.0000 C   0  0  0  0  0  0  0  0  0  0  0  0
   -1.5000   -2.5981    0.0000 C   0  0  0  0  0  0  0  0  0  0  0  0
   -0.7500   -3.8971    0.0000 C   0  0  0  0  0  0  0  0  0  0  0  0
    0.7500   -3.8971    0.0000 C   0  0  0  0  0  0  0  0  0  0  0  0
    1.5000   -2.5981    0.0000 C   0  0  0  0  0  0  0  0  0  0  0  0
    3.0000   -2.5981    0.0000 C   0  0  0  0  0  0  0  0  0  0  0  0
    3.7500   -1.2990    0.0000 O   0  0  0  0  0  0  0  0  0  0  0  0
    3.7500   -3.8971    0.0000 N   0  0  0  0  0  0  0  0  0  0  0  0
    5.2500   -3.8971    0.0000 C   0  0  0  0  0  0  0  0  0  0  0  0
    6.1317   -2.6836    0.0000 N   0  0  0  0  0  0  0  0  0  0  0  0
    7.5583   -3.1471    0.0000 N   0  0  0  0  0  0  0  0  0  0  0  0
    7.5583   -4.6471    0.0000 N   0  0  0  0  0  0  0  0  0  0  0  0
    6.1317   -5.1106    0.0000 N   0  0  0  0  0  0  0  0  0  0  0  0
    5.6682   -6.5372    0.0000 C   0  0  0  0  0  0  0  0  0  0  0  0
    4.2009   -6.8491    0.0000 C   0  0  0  0  0  0  0  0  0  0  0  0
    3.7374   -8.2757    0.0000 C   0  0  0  0  0  0  0  0  0  0  0  0
    4.7411   -9.3904    0.0000 C   0  0  0  0  0  0  0  0  0  0  0  0
    4.2776  -10.8170    0.0000 O   0  0  0  0  0  0  0  0  0  0  0  0
    6.2083   -9.0785    0.0000 C   0  0  0  0  0  0  0  0  0  0  0  0
    6.6718   -7.6519    0.0000 C   0  0  0  0  0  0  0  0  0  0  0  0
    8.1391   -7.3401    0.0000 C   0  0  0  0  0  0  0  0  0  0  0  0
    8.7492   -5.9698    0.0000 C   0  0  0  0  0  0  0  0  0  0  0  0
   10.2410   -6.1265    0.0000 C   0  0  0  0  0  0  0  0  0  0  0  0
   10.5528   -7.5938    0.0000 C   0  0  0  0  0  0  0  0  0  0  0  0
   11.9231   -8.2039    0.0000 N   0  0  0  0  0  0  0  0  0  0  0  0
   12.0799   -9.6957    0.0000 C   0  0  0  0  0  0  0  0  0  0  0  0
   13.4503  -10.3058    0.0000 C   0  0  0  0  0  0  0  0  0  0  0  0
   14.6638   -9.4241    0.0000 N   0  0  0  0  0  0  0  0  0  0  0  0
   16.0341  -10.0342    0.0000 C   0  0  0  0  0  0  0  0  0  0  0  0
   16.1909  -11.5260    0.0000 C   0  0  0  0  0  0  0  0  0  0  0  0
   17.5612  -12.1361    0.0000 C   0  0  0  0  0  0  0  0  0  0  0  0
   18.7747  -11.2544    0.0000 C   0  0  0  0  0  0  0  0  0  0  0  0
   20.1451  -11.8645    0.0000 C   0  0  0  0  0  0  0  0  0  0  0  0
   21.5154  -12.4746    0.0000 N   0  0  0  0  0  0  0  0  0  0  0  0
   18.6179   -9.7626    0.0000 C   0  0  0  0  0  0  0  0  0  0  0  0
   17.2476   -9.1525    0.0000 C   0  0  0  0  0  0  0  0  0  0  0  0
   14.5070   -7.9323    0.0000 C   0  0  0  0  0  0  0  0  0  0  0  0
   13.1367   -7.3222    0.0000 C   0  0  0  0  0  0  0  0  0  0  0  0
    9.2538   -8.3438    0.0000 C   0  0  0  0  0  0  0  0  0  0  0  0
    9.0970   -9.8356    0.0000 O   0  0  0  0  0  0  0  0  0  0  0  0
    0.7500   -1.2990    0.0000 C   0  0  0  0  0  0  0  0  0  0  0  0
    1.5000    0.0000    0.0000 C   0  0  0  0  0  0  0  0  0  0  0  0
    0.7500    1.2990    0.0000 C   0  0  0  0  0  0  0  0  0  0  0  0
   -0.7500    1.2990    0.0000 C   0  0  0  0  0  0  0  0  0  0  0  0
   -1.5000    0.0000    0.0000 C   0  0  0  0  0  0  0  0  0  0  0  0
   -0.7500   -1.2990    0.0000 C   0  0  0  0  0  0  0  0  0  0  0  0
  1  2  1  0
  2  3  1  0
  3  4  1  0
  4  5  1  0
  5  6  1  0
  6  7  2  0
  6  8  1  0
  8  9  1  0
  9 10  2  0
 10 11  1  0
 11 12  2  0
 12 13  1  0
 13 14  1  0
 14 15  2  0
 15 16  1  0
 16 17  2  0
 17 18  1  0
 17 19  1  0
 19 20  2  0
 20 21  1  0
 21 22  2  0
 22 23  1  0
 23 24  2  0
 24 25  1  0
 25 26  1  0
 26 27  1  0
 27 28  1  0
 28 29  1  0
 29 30  2  0
 30 31  1  0
 31 32  2  0
 32 33  1  0
 33 34  3  0
 32 35  1  0
 35 36  2  0
 28 37  1  0
 37 38  1  0
 24 39  1  0
 39 40  2  0
  5 41  1  0
 41 42  2  0
 42 43  1  0
 43 44  2  0
 44 45  1  0
 45 46  2  0
 46  2  1  0
 13  9  1  0
 20 14  1  0
 39 21  1  0
 46 41  1  0
 38 25  1  0
 36 29  1  0
M  END
>  <Title>  (873) 
idABFQgen6

$$$$

     RDKit          2D

 33 37  0  0  0  0  0  0  0  0999 V2000
   -0.9849   -8.8820    0.0000 C   0  0  0  0  0  0  0  0  0  0  0  0
   -0.4109   -7.4962    0.0000 C   0  0  0  0  0  0  0  0  0  0  0  0
   -1.3240   -6.3062    0.0000 C   0  0  0  0  0  0  0  0  0  0  0  0
   -0.7500   -4.9204    0.0000 C   0  0  0  0  0  0  0  0  0  0  0  0
    0.7500   -4.9204    0.0000 C   0  0  0  0  0  0  0  0  0  0  0  0
    1.8107   -3.8597    0.0000 C   0  0  0  0  0  0  0  0  0  0  0  0
    1.8107   -2.3597    0.0000 C   0  0  0  0  0  0  0  0  0  0  0  0
    3.1965   -1.7857    0.0000 C   0  0  0  0  0  0  0  0  0  0  0  0
    3.3923   -0.2985    0.0000 O   0  0  0  0  0  0  0  0  0  0  0  0
    4.3865   -2.6988    0.0000 N   0  0  0  0  0  0  0  0  0  0  0  0
    5.7723   -2.1248    0.0000 C   0  0  0  0  0  0  0  0  0  0  0  0
    6.1225   -0.6662    0.0000 N   0  0  0  0  0  0  0  0  0  0  0  0
    7.6179   -0.5485    0.0000 N   0  0  0  0  0  0  0  0  0  0  0  0
    8.1919   -1.9344    0.0000 N   0  0  0  0  0  0  0  0  0  0  0  0
    7.0513   -2.9085    0.0000 N   0  0  0  0  0  0  0  0  0  0  0  0
    7.1690   -4.4039    0.0000 C   0  0  0  0  0  0  0  0  0  0  0  0
    5.9328   -5.2535    0.0000 C   0  0  0  0  0  0  0  0  0  0  0  0
    6.0505   -6.7489    0.0000 C   0  0  0  0  0  0  0  0  0  0  0  0
    7.4044   -7.3947    0.0000 C   0  0  0  0  0  0  0  0  0  0  0  0
    8.6405   -6.5451    0.0000 C   0  0  0  0  0  0  0  0  0  0  0  0
    8.5229   -5.0497    0.0000 C   0  0  0  0  0  0  0  0  0  0  0  0
    0.7500   -1.2990    0.0000 C   0  0  0  0  0  0  0  0  0  0  0  0
    1.5000    0.0000    0.0000 C   0  0  0  0  0  0  0  0  0  0  0  0
    0.7500    1.2990    0.0000 C   0  0  0  0  0  0  0  0  0  0  0  0
   -0.7500    1.2990    0.0000 C   0  0  0  0  0  0  0  0  0  0  0  0
   -1.5000    0.0000    0.0000 C   0  0  0  0  0  0  0  0  0  0  0  0
   -0.7500   -1.2990    0.0000 C   0  0  0  0  0  0  0  0  0  0  0  0
   -1.8107   -2.3597    0.0000 C   0  0  0  0  0  0  0  0  0  0  0  0
   -3.1097   -1.6097    0.0000 C   0  0  0  0  0  0  0  0  0  0  0  0
   -4.4087   -2.3597    0.0000 C   0  0  0  0  0  0  0  0  0  0  0  0
   -4.4087   -3.8597    0.0000 C   0  0  0  0  0  0  0  0  0  0  0  0
   -3.1097   -4.6097    0.0000 C   0  0  0  0  0  0  0  0  0  0  0  0
   -1.8107   -3.8597    0.0000 C   0  0  0  0  0  0  0  0  0  0  0  0
  1  2  1  0
  2  3  1  0
  3  4  1  0
  4  5  1  0
  5  6  1  0
  6  7  1  0
  7  8  1  0
  8  9  2  0
  8 10  1  0
 10 11  1  0
 11 12  2  0
 12 13  1  0
 13 14  2  0
 14 15  1  0
 15 16  1  0
 16 17  2  0
 17 18  1  0
 18 19  2  0
 19 20  1  0
 20 21  2  0
  7 22  1  0
 22 23  2  0
 23 24  1  0
 24 25  2  0
 25 26  1  0
 26 27  2  0
 27 28  1  0
 28 29  2  0
 29 30  1  0
 30 31  2  0
 31 32  1  0
 32 33  2  0
 33  4  1  0
 15 11  1  0
 21 16  1  0
 27 22  1  0
 33 28  1  0
M  END
>  <Title>  (874) 
idABFRgen6

$$$$

     RDKit          2D

 28 29  0  0  0  0  0  0  0  0999 V2000
  -10.9424   -8.0361    0.0000 C   0  0  0  0  0  0  0  0  0  0  0  0
  -10.3323   -9.4064    0.0000 C   0  0  0  0  0  0  0  0  0  0  0  0
   -9.7222  -10.7767    0.0000 C   0  0  0  0  0  0  0  0  0  0  0  0
  -11.7026  -10.0165    0.0000 C   0  0  0  0  0  0  0  0  0  0  0  0
   -8.9620   -8.7963    0.0000 C   0  0  0  0  0  0  0  0  0  0  0  0
   -7.5917   -8.1862    0.0000 C   0  0  0  0  0  0  0  0  0  0  0  0
   -6.2213   -7.5761    0.0000 C   0  0  0  0  0  0  0  0  0  0  0  0
   -5.0078   -8.4577    0.0000 C   0  0  0  0  0  0  0  0  0  0  0  0
   -5.1646   -9.9495    0.0000 O   0  0  0  0  0  0  0  0  0  0  0  0
   -3.6375   -7.8476    0.0000 O   0  0  0  0  0  0  0  0  0  0  0  0
   -2.4240   -8.7293    0.0000 C   0  0  0  0  0  0  0  0  0  0  0  0
   -2.5808  -10.2211    0.0000 O   0  0  0  0  0  0  0  0  0  0  0  0
   -1.0537   -8.1192    0.0000 C   0  0  0  0  0  0  0  0  0  0  0  0
    0.2454   -8.8692    0.0000 C   0  0  0  0  0  0  0  0  0  0  0  0
    1.3601   -7.8655    0.0000 C   0  0  0  0  0  0  0  0  0  0  0  0
    0.7500   -6.4952    0.0000 C   0  0  0  0  0  0  0  0  0  0  0  0
    1.5000   -5.1962    0.0000 C   0  0  0  0  0  0  0  0  0  0  0  0
    3.0000   -5.1962    0.0000 O   0  0  0  0  0  0  0  0  0  0  0  0
    0.7500   -3.8971    0.0000 O   0  0  0  0  0  0  0  0  0  0  0  0
    1.5000   -2.5981    0.0000 C   0  0  0  0  0  0  0  0  0  0  0  0
    3.0000   -2.5981    0.0000 O   0  0  0  0  0  0  0  0  0  0  0  0
    0.7500   -1.2990    0.0000 C   0  0  0  0  0  0  0  0  0  0  0  0
    1.5000    0.0000    0.0000 C   0  0  0  0  0  0  0  0  0  0  0  0
    0.7500    1.2990    0.0000 C   0  0  0  0  0  0  0  0  0  0  0  0
   -0.7500    1.2990    0.0000 C   0  0  0  0  0  0  0  0  0  0  0  0
   -1.5000    0.0000    0.0000 C   0  0  0  0  0  0  0  0  0  0  0  0
   -0.7500   -1.2990    0.0000 C   0  0  0  0  0  0  0  0  0  0  0  0
   -0.7418   -6.6520    0.0000 C   0  0  0  0  0  0  0  0  0  0  0  0
  1  2  1  0
  2  3  1  0
  2  4  1  0
  2  5  1  0
  5  6  3  0
  6  7  1  0
  7  8  1  0
  8  9  2  0
  8 10  1  0
 10 11  1  0
 11 12  2  0
 11 13  1  0
 13 14  1  0
 14 15  1  0
 15 16  1  0
 16 17  1  0
 17 18  2  0
 17 19  1  0
 19 20  1  0
 20 21  2  0
 20 22  1  0
 22 23  2  0
 23 24  1  0
 24 25  2  0
 25 26  1  0
 26 27  2  0
 16 28  1  0
 28 13  1  0
 27 22  1  0
M  END
>  <Title>  (875) 
idABFSgen6

$$$$

     RDKit          2D

 39 42  0  0  0  0  0  0  0  0999 V2000
   -5.8713   -7.2804    0.0000 C   0  0  0  0  0  0  0  0  0  0  0  0
   -4.4172   -6.9121    0.0000 C   0  0  0  0  0  0  0  0  0  0  0  0
   -3.8147   -8.2858    0.0000 C   0  0  0  0  0  0  0  0  0  0  0  0
   -2.7988   -9.3894    0.0000 C   0  0  0  0  0  0  0  0  0  0  0  0
   -1.4795  -10.1033    0.0000 C   0  0  0  0  0  0  0  0  0  0  0  0
   -0.0000  -10.3502    0.0000 C   0  0  0  0  0  0  0  0  0  0  0  0
    1.4795  -10.1033    0.0000 C   0  0  0  0  0  0  0  0  0  0  0  0
    2.7988   -9.3894    0.0000 C   0  0  0  0  0  0  0  0  0  0  0  0
    3.8147   -8.2858    0.0000 C   0  0  0  0  0  0  0  0  0  0  0  0
    4.4172   -6.9121    0.0000 C   0  0  0  0  0  0  0  0  0  0  0  0
    5.8713   -7.2804    0.0000 C   0  0  0  0  0  0  0  0  0  0  0  0
    6.9173   -6.2052    0.0000 O   0  0  0  0  0  0  0  0  0  0  0  0
    6.2795   -8.7238    0.0000 N   0  0  0  0  0  0  0  0  0  0  0  0
    7.7336   -9.0920    0.0000 C   0  0  0  0  0  0  0  0  0  0  0  0
    8.1417  -10.5354    0.0000 N   0  0  0  0  0  0  0  0  0  0  0  0
    9.5958  -10.9036    0.0000 N   0  0  0  0  0  0  0  0  0  0  0  0
   10.6418   -9.8284    0.0000 N   0  0  0  0  0  0  0  0  0  0  0  0
   10.2336   -8.3850    0.0000 N   0  0  0  0  0  0  0  0  0  0  0  0
    8.7795   -8.0168    0.0000 N   0  0  0  0  0  0  0  0  0  0  0  0
    4.5411   -5.4173    0.0000 C   0  0  0  0  0  0  0  0  0  0  0  0
    4.1729   -3.9632    0.0000 C   0  0  0  0  0  0  0  0  0  0  0  0
    3.3524   -2.7074    0.0000 C   0  0  0  0  0  0  0  0  0  0  0  0
    2.1687   -1.7861    0.0000 C   0  0  0  0  0  0  0  0  0  0  0  0
    0.7500   -1.2990    0.0000 C   0  0  0  0  0  0  0  0  0  0  0  0
    1.5000    0.0000    0.0000 C   0  0  0  0  0  0  0  0  0  0  0  0
    0.7500    1.2990    0.0000 C   0  0  0  0  0  0  0  0  0  0  0  0
   -0.7500    1.2990    0.0000 C   0  0  0  0  0  0  0  0  0  0  0  0
   -1.5000    0.0000    0.0000 C   0  0  0  0  0  0  0  0  0  0  0  0
   -0.7500   -1.2990    0.0000 C   0  0  0  0  0  0  0  0  0  0  0  0
   -2.1687   -1.7861    0.0000 C   0  0  0  0  0  0  0  0  0  0  0  0
   -2.8826   -0.4669    0.0000 O   0  0  0  0  0  0  0  0  0  0  0  0
   -3.3524   -2.7074    0.0000 O   0  0  0  0  0  0  0  0  0  0  0  0
   -4.1729   -3.9632    0.0000 C   0  0  0  0  0  0  0  0  0  0  0  0
   -5.2480   -2.9172    0.0000 C   0  0  0  0  0  0  0  0  0  0  0  0
   -6.6914   -3.3254    0.0000 C   0  0  0  0  0  0  0  0  0  0  0  0
   -7.0597   -4.7795    0.0000 C   0  0  0  0  0  0  0  0  0  0  0  0
   -8.5031   -5.1876    0.0000 O   0  0  0  0  0  0  0  0  0  0  0  0
   -5.9845   -5.8254    0.0000 C   0  0  0  0  0  0  0  0  0  0  0  0
   -4.5411   -5.4173    0.0000 C   0  0  0  0  0  0  0  0  0  0  0  0
  1  2  1  0
  2  3  1  0
  3  4  2  0
  4  5  1  0
  5  6  2  0
  6  7  1  0
  7  8  2  0
  8  9  1  0
  9 10  2  0
 10 11  1  0
 11 12  2  0
 11 13  1  0
 13 14  1  0
 14 15  2  0
 15 16  1  0
 16 17  2  0
 17 18  1  0
 18 19  2  0
 10 20  1  0
 20 21  1  0
 21 22  1  0
 22 23  1  0
 23 24  1  0
 24 25  2  0
 25 26  1  0
 26 27  2  0
 27 28  1  0
 28 29  2  0
 29 30  1  0
 30 31  2  0
 30 32  1  0
 32 33  1  0
 33 34  2  0
 34 35  1  0
 35 36  2  0
 36 37  1  0
 36 38  1  0
 38 39  2  0
 39  2  1  0
 19 14  1  0
 29 24  1  0
 39 33  1  0
M  END
>  <Title>  (876) 
idABFTgen6

$$$$

     RDKit          2D

 23 25  0  0  0  0  0  0  0  0999 V2000
   -4.1679   -3.2376    0.0000 C   0  0  0  0  0  0  0  0  0  0  0  0
   -3.1476   -2.1380    0.0000 O   0  0  0  0  0  0  0  0  0  0  0  0
   -1.6852   -2.4718    0.0000 C   0  0  0  0  0  0  0  0  0  0  0  0
   -1.3515   -3.9342    0.0000 C   0  0  0  0  0  0  0  0  0  0  0  0
   -0.0000   -4.5850    0.0000 C   0  0  0  0  0  0  0  0  0  0  0  0
    1.3515   -3.9342    0.0000 C   0  0  0  0  0  0  0  0  0  0  0  0
    1.6852   -2.4718    0.0000 C   0  0  0  0  0  0  0  0  0  0  0  0
    3.1476   -2.1380    0.0000 C   0  0  0  0  0  0  0  0  0  0  0  0
    3.5898   -0.7046    0.0000 O   0  0  0  0  0  0  0  0  0  0  0  0
    4.1679   -3.2376    0.0000 N   0  0  0  0  0  0  0  0  0  0  0  0
    5.6303   -2.9038    0.0000 C   0  0  0  0  0  0  0  0  0  0  0  0
    6.6505   -4.0034    0.0000 N   0  0  0  0  0  0  0  0  0  0  0  0
    8.1129   -3.6696    0.0000 N   0  0  0  0  0  0  0  0  0  0  0  0
    8.5551   -2.2362    0.0000 N   0  0  0  0  0  0  0  0  0  0  0  0
    7.5348   -1.1367    0.0000 N   0  0  0  0  0  0  0  0  0  0  0  0
    6.0724   -1.4704    0.0000 N   0  0  0  0  0  0  0  0  0  0  0  0
    0.7500   -1.2990    0.0000 C   0  0  0  0  0  0  0  0  0  0  0  0
    1.5000    0.0000    0.0000 C   0  0  0  0  0  0  0  0  0  0  0  0
    0.7500    1.2990    0.0000 C   0  0  0  0  0  0  0  0  0  0  0  0
   -0.7500    1.2990    0.0000 C   0  0  0  0  0  0  0  0  0  0  0  0
   -1.5000    2.5981    0.0000 Cl  0  0  0  0  0  0  0  0  0  0  0  0
   -1.5000    0.0000    0.0000 C   0  0  0  0  0  0  0  0  0  0  0  0
   -0.7500   -1.2990    0.0000 C   0  0  0  0  0  0  0  0  0  0  0  0
  1  2  1  0
  2  3  1  0
  3  4  2  0
  4  5  1  0
  5  6  1  0
  6  7  1  0
  7  8  1  0
  8  9  2  0
  8 10  1  0
 10 11  1  0
 11 12  2  0
 12 13  1  0
 13 14  2  0
 14 15  1  0
 15 16  2  0
  7 17  1  0
 17 18  2  0
 18 19  1  0
 19 20  2  0
 20 21  1  0
 20 22  1  0
 22 23  2  0
 23  3  1  0
 16 11  1  0
 23 17  1  0
M  END
>  <Title>  (877) 
idABFUgen6

$$$$

     RDKit          2D

 15 15  0  0  0  0  0  0  0  0999 V2000
    5.7760   -2.5981    0.0000 C   0  0  0  0  0  0  0  0  0  0  0  0
    5.0260   -1.2990    0.0000 C   0  0  0  0  0  0  0  0  0  0  0  0
    5.7760    0.0000    0.0000 O   0  0  0  0  0  0  0  0  0  0  0  0
    3.5260   -1.2990    0.0000 O   0  0  0  0  0  0  0  0  0  0  0  0
    2.7760    0.0000    0.0000 C   0  0  0  0  0  0  0  0  0  0  0  0
    3.5260    1.2990    0.0000 O   0  0  0  0  0  0  0  0  0  0  0  0
    1.2760    0.0000    0.0000 C   0  0  0  0  0  0  0  0  0  0  0  0
    0.3943    1.2135    0.0000 C   0  0  0  0  0  0  0  0  0  0  0  0
   -1.0323    0.7500    0.0000 C   0  0  0  0  0  0  0  0  0  0  0  0
   -1.0323   -0.7500    0.0000 C   0  0  0  0  0  0  0  0  0  0  0  0
   -2.2458   -1.6317    0.0000 C   0  0  0  0  0  0  0  0  0  0  0  0
   -2.0890   -3.1235    0.0000 O   0  0  0  0  0  0  0  0  0  0  0  0
   -3.6161   -1.0216    0.0000 O   0  0  0  0  0  0  0  0  0  0  0  0
    0.3943   -1.2135    0.0000 C   0  0  0  0  0  0  0  0  0  0  0  0
    0.8578   -2.6401    0.0000 O   0  0  0  0  0  0  0  0  0  0  0  0
  1  2  1  0
  2  3  2  0
  2  4  1  0
  4  5  1  0
  5  6  2  0
  5  7  1  0
  7  8  1  0
  8  9  1  0
  9 10  1  0
 10 11  1  0
 11 12  2  0
 11 13  1  0
 10 14  1  0
 14 15  2  0
 14  7  1  0
M  END
>  <Title>  (878) 
idABFVgen6

$$$$

     RDKit          2D

 28 31  0  0  0  0  0  0  0  0999 V2000
   -3.7500   -3.8971    0.0000 C   0  0  0  0  0  0  0  0  0  0  0  0
   -3.0000   -2.5981    0.0000 O   0  0  0  0  0  0  0  0  0  0  0  0
   -1.5000   -2.5981    0.0000 C   0  0  0  0  0  0  0  0  0  0  0  0
   -0.7500   -3.8971    0.0000 C   0  0  0  0  0  0  0  0  0  0  0  0
    0.7500   -3.8971    0.0000 C   0  0  0  0  0  0  0  0  0  0  0  0
    1.5000   -2.5981    0.0000 C   0  0  0  0  0  0  0  0  0  0  0  0
    3.0000   -2.5981    0.0000 C   0  0  0  0  0  0  0  0  0  0  0  0
    3.7500   -1.2990    0.0000 O   0  0  0  0  0  0  0  0  0  0  0  0
    3.7500   -3.8971    0.0000 N   0  0  0  0  0  0  0  0  0  0  0  0
    5.2500   -3.8971    0.0000 C   0  0  0  0  0  0  0  0  0  0  0  0
    6.1317   -2.6836    0.0000 N   0  0  0  0  0  0  0  0  0  0  0  0
    7.5583   -3.1471    0.0000 N   0  0  0  0  0  0  0  0  0  0  0  0
    7.5583   -4.6471    0.0000 N   0  0  0  0  0  0  0  0  0  0  0  0
    6.1317   -5.1106    0.0000 N   0  0  0  0  0  0  0  0  0  0  0  0
    5.6682   -6.5372    0.0000 C   0  0  0  0  0  0  0  0  0  0  0  0
    4.2009   -6.8491    0.0000 C   0  0  0  0  0  0  0  0  0  0  0  0
    3.7374   -8.2757    0.0000 C   0  0  0  0  0  0  0  0  0  0  0  0
    4.7411   -9.3904    0.0000 C   0  0  0  0  0  0  0  0  0  0  0  0
    6.2083   -9.0785    0.0000 C   0  0  0  0  0  0  0  0  0  0  0  0
    6.6718   -7.6519    0.0000 C   0  0  0  0  0  0  0  0  0  0  0  0
    0.7500   -1.2990    0.0000 C   0  0  0  0  0  0  0  0  0  0  0  0
    1.5000    0.0000    0.0000 C   0  0  0  0  0  0  0  0  0  0  0  0
    0.7500    1.2990    0.0000 C   0  0  0  0  0  0  0  0  0  0  0  0
   -0.7500    1.2990    0.0000 C   0  0  0  0  0  0  0  0  0  0  0  0
   -1.5000    2.5981    0.0000 C   0  0  0  0  0  0  0  0  0  0  0  0
   -2.2500    3.8971    0.0000 N   0  0  0  0  0  0  0  0  0  0  0  0
   -1.5000    0.0000    0.0000 C   0  0  0  0  0  0  0  0  0  0  0  0
   -0.7500   -1.2990    0.0000 C   0  0  0  0  0  0  0  0  0  0  0  0
  1  2  1  0
  2  3  1  0
  3  4  1  0
  4  5  2  0
  5  6  1  0
  6  7  1  0
  7  8  2  0
  7  9  1  0
  9 10  1  0
 10 11  2  0
 11 12  1  0
 12 13  2  0
 13 14  1  0
 14 15  1  0
 15 16  2  0
 16 17  1  0
 17 18  2  0
 18 19  1  0
 19 20  2  0
  6 21  1  0
 21 22  2  0
 22 23  1  0
 23 24  2  0
 24 25  1  0
 25 26  3  0
 24 27  1  0
 27 28  2  0
 28  3  1  0
 14 10  1  0
 20 15  1  0
 28 21  1  0
M  END
>  <Title>  (879) 
idABFWgen6

$$$$

     RDKit          2D

 13 14  0  0  0  0  0  0  0  0999 V2000
   -2.4240   -6.1312    0.0000 C   0  0  0  0  0  0  0  0  0  0  0  0
   -1.0537   -5.5211    0.0000 C   0  0  0  0  0  0  0  0  0  0  0  0
    0.2454   -6.2711    0.0000 C   0  0  0  0  0  0  0  0  0  0  0  0
    1.3601   -5.2674    0.0000 C   0  0  0  0  0  0  0  0  0  0  0  0
    0.7500   -3.8971    0.0000 C   0  0  0  0  0  0  0  0  0  0  0  0
    1.5000   -2.5981    0.0000 O   0  0  0  0  0  0  0  0  0  0  0  0
    0.7500   -1.2990    0.0000 C   0  0  0  0  0  0  0  0  0  0  0  0
    1.5000    0.0000    0.0000 N   0  0  0  0  0  0  0  0  0  0  0  0
    0.7500    1.2990    0.0000 N   0  0  0  0  0  0  0  0  0  0  0  0
   -0.7500    1.2990    0.0000 N   0  0  0  0  0  0  0  0  0  0  0  0
   -1.5000    0.0000    0.0000 N   0  0  0  0  0  0  0  0  0  0  0  0
   -0.7500   -1.2990    0.0000 N   0  0  0  0  0  0  0  0  0  0  0  0
   -0.7418   -4.0539    0.0000 C   0  0  0  0  0  0  0  0  0  0  0  0
  1  2  1  0
  2  3  1  0
  3  4  1  0
  4  5  1  0
  5  6  1  0
  6  7  1  0
  7  8  2  0
  8  9  1  0
  9 10  2  0
 10 11  1  0
 11 12  2  0
  5 13  1  0
 13  2  1  0
 12  7  1  0
M  END
>  <Title>  (880) 
idABFXgen6

$$$$

     RDKit          2D

  8  8  0  0  0  0  0  0  0  0999 V2000
    3.5260    1.2990    0.0000 O   0  0  0  0  0  0  0  0  0  0  0  0
    2.7760    0.0000    0.0000 C   0  0  0  0  0  0  0  0  0  0  0  0
    3.5260   -1.2990    0.0000 O   0  0  0  0  0  0  0  0  0  0  0  0
    1.2760    0.0000    0.0000 C   0  0  0  0  0  0  0  0  0  0  0  0
    0.3943    1.2135    0.0000 C   0  0  0  0  0  0  0  0  0  0  0  0
   -1.0323    0.7500    0.0000 C   0  0  0  0  0  0  0  0  0  0  0  0
   -1.0323   -0.7500    0.0000 C   0  0  0  0  0  0  0  0  0  0  0  0
    0.3943   -1.2135    0.0000 C   0  0  0  0  0  0  0  0  0  0  0  0
  1  2  2  0
  2  3  1  0
  2  4  1  0
  4  5  2  0
  5  6  1  0
  6  7  2  0
  7  8  1  0
  8  4  1  0
M  END
>  <Title>  (881) 
idABFYgen6

$$$$

     RDKit          2D

  6  5  0  0  0  0  0  0  0  0999 V2000
    0.0000    0.0000    0.0000 C   0  0  0  0  0  0  0  0  0  0  0  0
    1.2990    0.7500    0.0000 C   0  0  0  0  0  0  0  0  0  0  0  0
    2.5981    1.5000    0.0000 C   0  0  0  0  0  0  0  0  0  0  0  0
    2.0490   -0.5490    0.0000 C   0  0  0  0  0  0  0  0  0  0  0  0
    0.5490    2.0490    0.0000 C   0  0  0  0  0  0  0  0  0  0  0  0
   -0.2010    3.3481    0.0000 N   0  0  0  0  0  0  0  0  0  0  0  0
  1  2  1  0
  2  3  1  0
  2  4  1  0
  2  5  1  0
  5  6  3  0
M  END
>  <Title>  (882) 
idABFZgen6

$$$$

     RDKit          2D

 18 18  0  0  0  0  0  0  0  0999 V2000
    3.7500   -6.4952    0.0000 C   0  0  0  0  0  0  0  0  0  0  0  0
    3.0000   -5.1962    0.0000 C   0  0  0  0  0  0  0  0  0  0  0  0
    1.5000   -5.1962    0.0000 O   0  0  0  0  0  0  0  0  0  0  0  0
    3.7500   -3.8971    0.0000 N   0  0  0  0  0  0  0  0  0  0  0  0
    3.0000   -2.5981    0.0000 C   0  0  0  0  0  0  0  0  0  0  0  0
    1.5000   -2.5981    0.0000 O   0  0  0  0  0  0  0  0  0  0  0  0
    3.7500   -1.2990    0.0000 C   0  0  0  0  0  0  0  0  0  0  0  0
    5.2500   -1.2990    0.0000 C   0  0  0  0  0  0  0  0  0  0  0  0
    6.0000   -2.5981    0.0000 C   0  0  0  0  0  0  0  0  0  0  0  0
    5.2500   -3.8971    0.0000 O   0  0  0  0  0  0  0  0  0  0  0  0
    7.5000   -2.5981    0.0000 O   0  0  0  0  0  0  0  0  0  0  0  0
    3.0000    0.0000    0.0000 C   0  0  0  0  0  0  0  0  0  0  0  0
    1.5000    0.0000    0.0000 C   0  0  0  0  0  0  0  0  0  0  0  0
    0.7500   -1.2990    0.0000 C   0  0  0  0  0  0  0  0  0  0  0  0
   -0.7500   -1.2990    0.0000 C   0  0  0  0  0  0  0  0  0  0  0  0
   -1.5000    0.0000    0.0000 C   0  0  0  0  0  0  0  0  0  0  0  0
   -0.7500    1.2990    0.0000 C   0  0  0  0  0  0  0  0  0  0  0  0
    0.7500    1.2990    0.0000 C   0  0  0  0  0  0  0  0  0  0  0  0
  1  2  1  0
  2  3  2  0
  2  4  1  0
  4  5  1  0
  5  6  2  0
  5  7  1  0
  7  8  1  0
  8  9  1  0
  9 10  2  0
  9 11  1  0
  7 12  1  0
 12 13  1  0
 13 14  2  0
 14 15  1  0
 15 16  2  0
 16 17  1  0
 17 18  2  0
 18 13  1  0
M  END
>  <Title>  (883) 
idABGAgen6

$$$$

     RDKit          2D

 63 67  0  0  0  0  0  0  0  0999 V2000
   -3.9657    0.4354    0.0000 O   0  0  0  0  0  0  0  0  0  0  0  0
   -2.5412   -0.0347    0.0000 C   0  0  0  0  0  0  0  0  0  0  0  0
   -2.2360   -1.5033    0.0000 C   0  0  0  0  0  0  0  0  0  0  0  0
   -3.6804   -1.9080    0.0000 C   0  0  0  0  0  0  0  0  0  0  0  0
   -5.0562   -2.5056    0.0000 C   0  0  0  0  0  0  0  0  0  0  0  0
   -6.3379   -3.2850    0.0000 C   0  0  0  0  0  0  0  0  0  0  0  0
   -7.5014   -4.2316    0.0000 C   0  0  0  0  0  0  0  0  0  0  0  0
   -8.5252   -5.3278    0.0000 C   0  0  0  0  0  0  0  0  0  0  0  0
   -9.3903   -6.5533    0.0000 C   0  0  0  0  0  0  0  0  0  0  0  0
  -10.0804   -7.8851    0.0000 C   0  0  0  0  0  0  0  0  0  0  0  0
  -10.5827   -9.2985    0.0000 C   0  0  0  0  0  0  0  0  0  0  0  0
  -10.8879  -10.7671    0.0000 C   0  0  0  0  0  0  0  0  0  0  0  0
  -10.9902  -12.2636    0.0000 C   0  0  0  0  0  0  0  0  0  0  0  0
  -10.8879  -13.7602    0.0000 C   0  0  0  0  0  0  0  0  0  0  0  0
  -10.5827  -15.2288    0.0000 C   0  0  0  0  0  0  0  0  0  0  0  0
  -10.0804  -16.6422    0.0000 C   0  0  0  0  0  0  0  0  0  0  0  0
   -9.3903  -17.9740    0.0000 C   0  0  0  0  0  0  0  0  0  0  0  0
   -8.5252  -19.1995    0.0000 C   0  0  0  0  0  0  0  0  0  0  0  0
   -7.5014  -20.2957    0.0000 C   0  0  0  0  0  0  0  0  0  0  0  0
   -6.3379  -21.2423    0.0000 C   0  0  0  0  0  0  0  0  0  0  0  0
   -5.0562  -22.0217    0.0000 C   0  0  0  0  0  0  0  0  0  0  0  0
   -3.6804  -22.6193    0.0000 C   0  0  0  0  0  0  0  0  0  0  0  0
   -2.2360  -23.0240    0.0000 C   0  0  0  0  0  0  0  0  0  0  0  0
   -0.7500  -23.2283    0.0000 C   0  0  0  0  0  0  0  0  0  0  0  0
    0.7500  -23.2283    0.0000 C   0  0  0  0  0  0  0  0  0  0  0  0
    2.2360  -23.0240    0.0000 C   0  0  0  0  0  0  0  0  0  0  0  0
    3.6804  -22.6193    0.0000 C   0  0  0  0  0  0  0  0  0  0  0  0
    5.0562  -22.0217    0.0000 C   0  0  0  0  0  0  0  0  0  0  0  0
    6.3379  -21.2423    0.0000 C   0  0  0  0  0  0  0  0  0  0  0  0
    7.5014  -20.2957    0.0000 C   0  0  0  0  0  0  0  0  0  0  0  0
    8.5252  -19.1995    0.0000 C   0  0  0  0  0  0  0  0  0  0  0  0
    9.3903  -17.9740    0.0000 C   0  0  0  0  0  0  0  0  0  0  0  0
   10.0804  -16.6422    0.0000 C   0  0  0  0  0  0  0  0  0  0  0  0
   10.5827  -15.2288    0.0000 C   0  0  0  0  0  0  0  0  0  0  0  0
   10.8879  -13.7602    0.0000 C   0  0  0  0  0  0  0  0  0  0  0  0
   10.9902  -12.2636    0.0000 C   0  0  0  0  0  0  0  0  0  0  0  0
   10.8879  -10.7671    0.0000 C   0  0  0  0  0  0  0  0  0  0  0  0
   10.5827   -9.2985    0.0000 C   0  0  0  0  0  0  0  0  0  0  0  0
   10.0804   -7.8851    0.0000 C   0  0  0  0  0  0  0  0  0  0  0  0
    9.3903   -6.5533    0.0000 C   0  0  0  0  0  0  0  0  0  0  0  0
    8.5252   -5.3278    0.0000 C   0  0  0  0  0  0  0  0  0  0  0  0
    7.5014   -4.2316    0.0000 C   0  0  0  0  0  0  0  0  0  0  0  0
    6.3379   -3.2850    0.0000 C   0  0  0  0  0  0  0  0  0  0  0  0
    7.4751   -2.3069    0.0000 C   0  0  0  0  0  0  0  0  0  0  0  0
    6.8964   -0.9230    0.0000 C   0  0  0  0  0  0  0  0  0  0  0  0
    5.4014   -1.0458    0.0000 N   0  0  0  0  0  0  0  0  0  0  0  0
    4.4233    0.0914    0.0000 C   0  0  0  0  0  0  0  0  0  0  0  0
    4.9192    1.5071    0.0000 N   0  0  0  0  0  0  0  0  0  0  0  0
    3.9412    2.6444    0.0000 N   0  0  0  0  0  0  0  0  0  0  0  0
    2.4672    2.3660    0.0000 N   0  0  0  0  0  0  0  0  0  0  0  0
    1.9713    0.9503    0.0000 N   0  0  0  0  0  0  0  0  0  0  0  0
    2.9494   -0.1870    0.0000 N   0  0  0  0  0  0  0  0  0  0  0  0
    5.0562   -2.5056    0.0000 C   0  0  0  0  0  0  0  0  0  0  0  0
    3.6804   -1.9080    0.0000 C   0  0  0  0  0  0  0  0  0  0  0  0
    3.2757   -3.3524    0.0000 C   0  0  0  0  0  0  0  0  0  0  0  0
    1.8313   -2.9477    0.0000 C   0  0  0  0  0  0  0  0  0  0  0  0
    2.2360   -1.5033    0.0000 C   0  0  0  0  0  0  0  0  0  0  0  0
    0.7500   -1.2990    0.0000 C   0  0  0  0  0  0  0  0  0  0  0  0
    1.5000    0.0000    0.0000 C   0  0  0  0  0  0  0  0  0  0  0  0
    0.7500    1.2990    0.0000 C   0  0  0  0  0  0  0  0  0  0  0  0
   -0.7500    1.2990    0.0000 C   0  0  0  0  0  0  0  0  0  0  0  0
   -1.5000    0.0000    0.0000 C   0  0  0  0  0  0  0  0  0  0  0  0
   -0.7500   -1.2990    0.0000 C   0  0  0  0  0  0  0  0  0  0  0  0
  1  2  1  0
  2  3  1  0
  3  4  1  0
  4  5  1  0
  5  6  1  0
  6  7  1  0
  7  8  1  0
  8  9  1  0
  9 10  1  0
 10 11  1  0
 11 12  1  0
 12 13  1  0
 13 14  1  0
 14 15  1  0
 15 16  1  0
 16 17  1  0
 17 18  1  0
 18 19  1  0
 19 20  1  0
 20 21  1  0
 21 22  1  0
 22 23  1  0
 23 24  1  0
 24 25  1  0
 25 26  1  0
 26 27  1  0
 27 28  1  0
 28 29  1  0
 29 30  1  0
 30 31  1  0
 31 32  1  0
 32 33  1  0
 33 34  1  0
 34 35  1  0
 35 36  1  0
 36 37  1  0
 37 38  1  0
 38 39  2  0
 39 40  1  0
 40 41  2  0
 41 42  1  0
 42 43  2  0
 43 44  1  0
 44 45  1  0
 45 46  1  0
 46 47  1  0
 47 48  2  0
 48 49  1  0
 49 50  2  0
 50 51  1  0
 51 52  2  0
 46 53  1  0
 53 54  1  0
 54 55  2  0
 55 56  1  0
 56 57  2  0
 57 58  1  0
 58 59  2  0
 59 60  1  0
 60 61  2  0
 61 62  1  0
 62 63  2  0
 63  3  1  0
 53 43  1  0
 57 54  1  0
 63 58  1  0
 52 47  1  0
M  END
>  <Title>  (884) 
idABGBgen6

$$$$

     RDKit          2D

 11 12  0  0  0  0  0  0  0  0999 V2000
    2.7760    0.0000    0.0000 C   0  0  0  0  0  0  0  0  0  0  0  0
    1.2760    0.0000    0.0000 C   0  0  0  0  0  0  0  0  0  0  0  0
    0.3943    1.2135    0.0000 C   0  0  0  0  0  0  0  0  0  0  0  0
   -1.0323    0.7500    0.0000 C   0  0  0  0  0  0  0  0  0  0  0  0
   -1.0323   -0.7500    0.0000 C   0  0  0  0  0  0  0  0  0  0  0  0
    0.3943   -1.2135    0.0000 N   0  0  0  0  0  0  0  0  0  0  0  0
    0.3943   -2.7135    0.0000 C   0  0  0  0  0  0  0  0  0  0  0  0
    1.6078   -3.5952    0.0000 O   0  0  0  0  0  0  0  0  0  0  0  0
   -1.0323   -3.1771    0.0000 N   0  0  0  0  0  0  0  0  0  0  0  0
   -1.9140   -1.9635    0.0000 C   0  0  0  0  0  0  0  0  0  0  0  0
   -3.4140   -1.9635    0.0000 O   0  0  0  0  0  0  0  0  0  0  0  0
  1  2  1  0
  2  3  2  0
  3  4  1  0
  4  5  2  0
  5  6  1  0
  6  7  1  0
  7  8  2  0
  7  9  1  0
  9 10  1  0
 10 11  2  0
  6  2  1  0
 10  5  1  0
M  END
>  <Title>  (885) 
idABGCgen6

$$$$

     RDKit          2D

 29 31  0  0  0  0  0  0  0  0999 V2000
    7.2716   -1.0525    0.0000 C   0  0  0  0  0  0  0  0  0  0  0  0
    5.9021   -0.4405    0.0000 O   0  0  0  0  0  0  0  0  0  0  0  0
    5.7474    1.0515    0.0000 C   0  0  0  0  0  0  0  0  0  0  0  0
    7.0666    1.7655    0.0000 C   0  0  0  0  0  0  0  0  0  0  0  0
    7.4946    3.2031    0.0000 C   0  0  0  0  0  0  0  0  0  0  0  0
    6.7807    4.5223    0.0000 C   0  0  0  0  0  0  0  0  0  0  0  0
    5.3431    4.9503    0.0000 C   0  0  0  0  0  0  0  0  0  0  0  0
   -0.3763    4.5411    0.0000 C   0  0  0  0  0  0  0  0  0  0  0  0
    1.1186    4.4172    0.0000 C   0  0  0  0  0  0  0  0  0  0  0  0
    2.4923    3.8147    0.0000 N   0  0  0  0  0  0  0  0  0  0  0  0
    3.5958    2.7988    0.0000 N   0  0  0  0  0  0  0  0  0  0  0  0
    4.0238    4.2364    0.0000 C   0  0  0  0  0  0  0  0  0  0  0  0
    2.8594    5.1820    0.0000 O   0  0  0  0  0  0  0  0  0  0  0  0
    4.3098    1.4795    0.0000 C   0  0  0  0  0  0  0  0  0  0  0  0
    4.5567    0.0000    0.0000 C   0  0  0  0  0  0  0  0  0  0  0  0
    4.3098   -1.4795    0.0000 C   0  0  0  0  0  0  0  0  0  0  0  0
    3.5958   -2.7988    0.0000 C   0  0  0  0  0  0  0  0  0  0  0  0
    2.4923   -3.8147    0.0000 C   0  0  0  0  0  0  0  0  0  0  0  0
    1.1186   -4.4172    0.0000 C   0  0  0  0  0  0  0  0  0  0  0  0
   -0.3763   -4.5411    0.0000 C   0  0  0  0  0  0  0  0  0  0  0  0
   -1.8304   -4.1729    0.0000 C   0  0  0  0  0  0  0  0  0  0  0  0
   -3.0861   -3.3524    0.0000 C   0  0  0  0  0  0  0  0  0  0  0  0
   -4.0075   -2.1687    0.0000 C   0  0  0  0  0  0  0  0  0  0  0  0
   -4.4945   -0.7500    0.0000 C   0  0  0  0  0  0  0  0  0  0  0  0
   -4.4945    0.7500    0.0000 C   0  0  0  0  0  0  0  0  0  0  0  0
   -4.0075    2.1687    0.0000 C   0  0  0  0  0  0  0  0  0  0  0  0
   -5.3267    2.8826    0.0000 C   0  0  0  0  0  0  0  0  0  0  0  0
   -3.0861    3.3524    0.0000 C   0  0  0  0  0  0  0  0  0  0  0  0
   -1.8304    4.1729    0.0000 O   0  0  0  0  0  0  0  0  0  0  0  0
  1  2  1  0
  2  3  1  0
  3  4  2  0
  4  5  1  0
  5  6  1  0
  6  7  1  0
  7  8  2  0
  8  9  1  0
  9 10  2  0
 10 11  1  0
 11 12  1  0
 12 13  2  0
 11 14  1  0
 14 15  1  0
 15 16  2  0
 16 17  1  0
 17 18  2  0
 18 19  1  0
 19 20  2  0
 20 21  1  0
 21 22  2  0
 22 23  1  0
 23 24  2  0
 24 25  1  0
 25 26  2  0
 26 27  1  0
 26 28  1  0
 28 29  1  0
 14  3  1  0
 12  7  1  0
 29  8  1  0
M  END
>  <Title>  (886) 
idABGDgen6

$$$$

     RDKit          2D

 26 29  0  0  0  0  0  0  0  0999 V2000
   -3.1965   -1.7857    0.0000 C   0  0  0  0  0  0  0  0  0  0  0  0
   -1.8107   -2.3597    0.0000 C   0  0  0  0  0  0  0  0  0  0  0  0
   -1.8107   -3.8597    0.0000 C   0  0  0  0  0  0  0  0  0  0  0  0
   -0.7500   -4.9204    0.0000 C   0  0  0  0  0  0  0  0  0  0  0  0
    0.7500   -4.9204    0.0000 C   0  0  0  0  0  0  0  0  0  0  0  0
    1.8107   -3.8597    0.0000 C   0  0  0  0  0  0  0  0  0  0  0  0
    3.1965   -4.4337    0.0000 C   0  0  0  0  0  0  0  0  0  0  0  0
    4.3865   -3.5206    0.0000 O   0  0  0  0  0  0  0  0  0  0  0  0
    3.3923   -5.9209    0.0000 N   0  0  0  0  0  0  0  0  0  0  0  0
    4.7781   -6.4949    0.0000 C   0  0  0  0  0  0  0  0  0  0  0  0
    6.0570   -5.7112    0.0000 N   0  0  0  0  0  0  0  0  0  0  0  0
    7.1977   -6.6853    0.0000 N   0  0  0  0  0  0  0  0  0  0  0  0
    6.6236   -8.0712    0.0000 N   0  0  0  0  0  0  0  0  0  0  0  0
    5.1283   -7.9535    0.0000 N   0  0  0  0  0  0  0  0  0  0  0  0
    4.1541   -9.0941    0.0000 C   0  0  0  0  0  0  0  0  0  0  0  0
    4.5043  -10.5526    0.0000 C   0  0  0  0  0  0  0  0  0  0  0  0
    3.2253  -11.3364    0.0000 C   0  0  0  0  0  0  0  0  0  0  0  0
    2.0847  -10.3622    0.0000 C   0  0  0  0  0  0  0  0  0  0  0  0
    2.6587   -8.9764    0.0000 C   0  0  0  0  0  0  0  0  0  0  0  0
    1.8107   -2.3597    0.0000 C   0  0  0  0  0  0  0  0  0  0  0  0
    0.7500   -1.2990    0.0000 C   0  0  0  0  0  0  0  0  0  0  0  0
    1.5000    0.0000    0.0000 C   0  0  0  0  0  0  0  0  0  0  0  0
    0.7500    1.2990    0.0000 C   0  0  0  0  0  0  0  0  0  0  0  0
   -0.7500    1.2990    0.0000 C   0  0  0  0  0  0  0  0  0  0  0  0
   -1.5000    0.0000    0.0000 C   0  0  0  0  0  0  0  0  0  0  0  0
   -0.7500   -1.2990    0.0000 C   0  0  0  0  0  0  0  0  0  0  0  0
  1  2  1  0
  2  3  1  0
  3  4  2  0
  4  5  1  0
  5  6  1  0
  6  7  1  0
  7  8  2  0
  7  9  1  0
  9 10  1  0
 10 11  2  0
 11 12  1  0
 12 13  2  0
 13 14  1  0
 14 15  1  0
 15 16  2  0
 16 17  1  0
 17 18  2  0
 18 19  2  0
  6 20  1  0
 20 21  1  0
 21 22  2  0
 22 23  1  0
 23 24  2  0
 24 25  1  0
 25 26  2  0
 26  2  1  0
 14 10  1  0
 19 15  1  0
 26 21  1  0
M  END
>  <Title>  (887) 
idABGEgen6

$$$$

     RDKit          2D

 38 42  0  0  0  0  0  0  0  0999 V2000
    3.6929    0.0000    0.0000 C   0  0  0  0  0  0  0  0  0  0  0  0
    2.1929    0.0000    0.0000 C   0  0  0  0  0  0  0  0  0  0  0  0
    1.6798    1.4095    0.0000 C   0  0  0  0  0  0  0  0  0  0  0  0
    0.3808    2.1595    0.0000 C   0  0  0  0  0  0  0  0  0  0  0  0
   -1.0964    1.8991    0.0000 C   0  0  0  0  0  0  0  0  0  0  0  0
   -1.8464    3.1981    0.0000 O   0  0  0  0  0  0  0  0  0  0  0  0
   -2.0606    0.7500    0.0000 O   0  0  0  0  0  0  0  0  0  0  0  0
   -2.0606   -0.7500    0.0000 C   0  0  0  0  0  0  0  0  0  0  0  0
   -3.4701   -1.2630    0.0000 O   0  0  0  0  0  0  0  0  0  0  0  0
   -1.0964   -1.8991    0.0000 C   0  0  0  0  0  0  0  0  0  0  0  0
   -1.8464   -3.1981    0.0000 C   0  0  0  0  0  0  0  0  0  0  0  0
   -1.0964   -4.4971    0.0000 O   0  0  0  0  0  0  0  0  0  0  0  0
   -3.3464   -3.1981    0.0000 N   0  0  0  0  0  0  0  0  0  0  0  0
   -4.0964   -4.4971    0.0000 C   0  0  0  0  0  0  0  0  0  0  0  0
   -3.4863   -5.8675    0.0000 N   0  0  0  0  0  0  0  0  0  0  0  0
   -4.6010   -6.8712    0.0000 N   0  0  0  0  0  0  0  0  0  0  0  0
   -5.9001   -6.1212    0.0000 N   0  0  0  0  0  0  0  0  0  0  0  0
   -5.5882   -4.6539    0.0000 N   0  0  0  0  0  0  0  0  0  0  0  0
   -6.5919   -3.5392    0.0000 C   0  0  0  0  0  0  0  0  0  0  0  0
   -6.1284   -2.1126    0.0000 C   0  0  0  0  0  0  0  0  0  0  0  0
   -7.1321   -0.9979    0.0000 C   0  0  0  0  0  0  0  0  0  0  0  0
   -8.5993   -1.3098    0.0000 C   0  0  0  0  0  0  0  0  0  0  0  0
   -9.0628   -2.7364    0.0000 C   0  0  0  0  0  0  0  0  0  0  0  0
   -8.0591   -3.8511    0.0000 C   0  0  0  0  0  0  0  0  0  0  0  0
   -8.5227   -5.2777    0.0000 C   0  0  0  0  0  0  0  0  0  0  0  0
   -7.5190   -6.3924    0.0000 C   0  0  0  0  0  0  0  0  0  0  0  0
   -7.9825   -7.8190    0.0000 C   0  0  0  0  0  0  0  0  0  0  0  0
   -9.4497   -8.1308    0.0000 C   0  0  0  0  0  0  0  0  0  0  0  0
  -10.4534   -7.0161    0.0000 C   0  0  0  0  0  0  0  0  0  0  0  0
   -9.9899   -5.5895    0.0000 C   0  0  0  0  0  0  0  0  0  0  0  0
  -10.9936   -4.4748    0.0000 C   0  0  0  0  0  0  0  0  0  0  0  0
  -12.4608   -4.7867    0.0000 C   0  0  0  0  0  0  0  0  0  0  0  0
  -13.4645   -3.6720    0.0000 C   0  0  0  0  0  0  0  0  0  0  0  0
  -13.0010   -2.2454    0.0000 C   0  0  0  0  0  0  0  0  0  0  0  0
  -11.5337   -1.9335    0.0000 C   0  0  0  0  0  0  0  0  0  0  0  0
  -10.5300   -3.0482    0.0000 C   0  0  0  0  0  0  0  0  0  0  0  0
    0.3808   -2.1595    0.0000 C   0  0  0  0  0  0  0  0  0  0  0  0
    1.6798   -1.4095    0.0000 C   0  0  0  0  0  0  0  0  0  0  0  0
  1  2  1  0
  2  3  1  0
  3  4  1  0
  4  5  1  0
  5  6  2  0
  5  7  1  0
  7  8  1  0
  8  9  2  0
  8 10  1  0
 10 11  1  0
 11 12  2  0
 11 13  1  0
 13 14  1  0
 14 15  2  0
 15 16  1  0
 16 17  2  0
 17 18  1  0
 18 19  1  0
 19 20  2  0
 20 21  1  0
 21 22  2  0
 22 23  1  0
 23 24  2  0
 24 25  1  0
 25 26  2  0
 26 27  1  0
 27 28  2  0
 28 29  1  0
 29 30  2  0
 30 31  1  0
 31 32  2  0
 32 33  1  0
 33 34  2  0
 34 35  1  0
 35 36  2  0
 10 37  1  0
 37 38  1  0
 38  2  1  0
 18 14  1  0
 24 19  1  0
 30 25  1  0
 36 31  1  0
M  END
>  <Title>  (888) 
idABGFgen6

$$$$

     RDKit          2D

 23 25  0  0  0  0  0  0  0  0999 V2000
    7.9336   -1.1492    0.0000 C   0  0  0  0  0  0  0  0  0  0  0  0
    6.4664   -0.8373    0.0000 C   0  0  0  0  0  0  0  0  0  0  0  0
    6.0029    0.5893    0.0000 O   0  0  0  0  0  0  0  0  0  0  0  0
    5.4627   -1.9520    0.0000 C   0  0  0  0  0  0  0  0  0  0  0  0
    3.9955   -1.6402    0.0000 C   0  0  0  0  0  0  0  0  0  0  0  0
    2.9918   -2.7549    0.0000 C   0  0  0  0  0  0  0  0  0  0  0  0
    3.3037   -4.2221    0.0000 N   0  0  0  0  0  0  0  0  0  0  0  0
    2.0046   -4.9721    0.0000 N   0  0  0  0  0  0  0  0  0  0  0  0
    0.8899   -3.9684    0.0000 N   0  0  0  0  0  0  0  0  0  0  0  0
    1.5000   -2.5981    0.0000 N   0  0  0  0  0  0  0  0  0  0  0  0
    0.7500   -1.2990    0.0000 C   0  0  0  0  0  0  0  0  0  0  0  0
    1.5000    0.0000    0.0000 C   0  0  0  0  0  0  0  0  0  0  0  0
    0.7500    1.2990    0.0000 C   0  0  0  0  0  0  0  0  0  0  0  0
   -0.7500    1.2990    0.0000 C   0  0  0  0  0  0  0  0  0  0  0  0
   -1.5000    0.0000    0.0000 C   0  0  0  0  0  0  0  0  0  0  0  0
   -0.7500   -1.2990    0.0000 C   0  0  0  0  0  0  0  0  0  0  0  0
    5.9262   -3.3786    0.0000 N   0  0  0  0  0  0  0  0  0  0  0  0
    4.9225   -4.4933    0.0000 C   0  0  0  0  0  0  0  0  0  0  0  0
    5.3861   -5.9199    0.0000 C   0  0  0  0  0  0  0  0  0  0  0  0
    6.8533   -6.2318    0.0000 C   0  0  0  0  0  0  0  0  0  0  0  0
    7.3168   -7.6584    0.0000 Cl  0  0  0  0  0  0  0  0  0  0  0  0
    7.8570   -5.1171    0.0000 C   0  0  0  0  0  0  0  0  0  0  0  0
    7.3934   -3.6905    0.0000 C   0  0  0  0  0  0  0  0  0  0  0  0
  1  2  1  0
  2  3  2  0
  2  4  1  0
  4  5  1  0
  5  6  1  0
  6  7  2  0
  7  8  1  0
  8  9  2  0
  9 10  1  0
 10 11  1  0
 11 12  2  0
 12 13  1  0
 13 14  2  0
 14 15  1  0
 15 16  2  0
  4 17  1  0
 17 18  1  0
 18 19  2  0
 19 20  1  0
 20 21  1  0
 20 22  1  0
 22 23  1  0
 10  6  1  0
 16 11  1  0
 23 17  1  0
M  END
>  <Title>  (889) 
idABGGgen6

$$$$

     RDKit          2D

 30 33  0  0  0  0  0  0  0  0999 V2000
    3.7500   -1.2990    0.0000 C   0  0  0  0  0  0  0  0  0  0  0  0
    3.0000    0.0000    0.0000 C   0  0  0  0  0  0  0  0  0  0  0  0
    1.5000    0.0000    0.0000 C   0  0  0  0  0  0  0  0  0  0  0  0
    0.7500   -1.2990    0.0000 C   0  0  0  0  0  0  0  0  0  0  0  0
   -0.7500   -1.2990    0.0000 C   0  0  0  0  0  0  0  0  0  0  0  0
   -1.5000    0.0000    0.0000 C   0  0  0  0  0  0  0  0  0  0  0  0
   -3.0000    0.0000    0.0000 C   0  0  0  0  0  0  0  0  0  0  0  0
   -3.7500   -1.2990    0.0000 O   0  0  0  0  0  0  0  0  0  0  0  0
   -3.7500    1.2990    0.0000 N   0  0  0  0  0  0  0  0  0  0  0  0
   -5.2500    1.2990    0.0000 C   0  0  0  0  0  0  0  0  0  0  0  0
   -6.1317    0.0855    0.0000 N   0  0  0  0  0  0  0  0  0  0  0  0
   -7.5583    0.5490    0.0000 N   0  0  0  0  0  0  0  0  0  0  0  0
   -7.5583    2.0490    0.0000 N   0  0  0  0  0  0  0  0  0  0  0  0
   -6.1317    2.5126    0.0000 N   0  0  0  0  0  0  0  0  0  0  0  0
   -5.6682    3.9391    0.0000 N   0  0  0  0  0  0  0  0  0  0  0  0
   -6.5498    5.1527    0.0000 C   0  0  0  0  0  0  0  0  0  0  0  0
   -5.6682    6.3662    0.0000 C   0  0  0  0  0  0  0  0  0  0  0  0
   -4.2416    5.9027    0.0000 N   0  0  0  0  0  0  0  0  0  0  0  0
   -3.0280    6.7844    0.0000 C   0  0  0  0  0  0  0  0  0  0  0  0
   -3.1848    8.2761    0.0000 O   0  0  0  0  0  0  0  0  0  0  0  0
   -1.6577    6.1742    0.0000 N   0  0  0  0  0  0  0  0  0  0  0  0
   -0.4442    7.0559    0.0000 C   0  0  0  0  0  0  0  0  0  0  0  0
    0.9261    6.4458    0.0000 C   0  0  0  0  0  0  0  0  0  0  0  0
    2.1396    7.3275    0.0000 C   0  0  0  0  0  0  0  0  0  0  0  0
    1.9829    8.8193    0.0000 C   0  0  0  0  0  0  0  0  0  0  0  0
    0.6125    9.4294    0.0000 C   0  0  0  0  0  0  0  0  0  0  0  0
   -0.6010    8.5477    0.0000 C   0  0  0  0  0  0  0  0  0  0  0  0
   -4.2416    4.4027    0.0000 C   0  0  0  0  0  0  0  0  0  0  0  0
   -0.7500    1.2990    0.0000 C   0  0  0  0  0  0  0  0  0  0  0  0
    0.7500    1.2990    0.0000 C   0  0  0  0  0  0  0  0  0  0  0  0
  1  2  1  0
  2  3  1  0
  3  4  1  0
  4  5  1  0
  5  6  1  0
  6  7  1  0
  7  8  2  0
  7  9  1  0
  9 10  1  0
 10 11  2  0
 11 12  1  0
 12 13  2  0
 13 14  1  0
 14 15  1  0
 15 16  1  0
 16 17  1  0
 17 18  1  0
 18 19  1  0
 19 20  2  0
 19 21  1  0
 21 22  1  0
 22 23  2  0
 23 24  1  0
 24 25  2  0
 25 26  1  0
 26 27  2  0
 18 28  1  0
  6 29  1  0
 29 30  1  0
 30  3  1  0
 14 10  1  0
 28 15  1  0
 27 22  1  0
M  END
>  <Title>  (890) 
idABGHgen6

$$$$

     RDKit          2D

 17 18  0  0  0  0  0  0  0  0999 V2000
    3.7500   -1.2990    0.0000 C   0  0  0  0  0  0  0  0  0  0  0  0
    3.0000    0.0000    0.0000 O   0  0  0  0  0  0  0  0  0  0  0  0
    1.5000    0.0000    0.0000 C   0  0  0  0  0  0  0  0  0  0  0  0
    0.7500   -1.2990    0.0000 C   0  0  0  0  0  0  0  0  0  0  0  0
   -0.7500   -1.2990    0.0000 C   0  0  0  0  0  0  0  0  0  0  0  0
   -1.5000    0.0000    0.0000 C   0  0  0  0  0  0  0  0  0  0  0  0
   -0.7500    1.2990    0.0000 C   0  0  0  0  0  0  0  0  0  0  0  0
    0.7500    1.2990    0.0000 C   0  0  0  0  0  0  0  0  0  0  0  0
    1.5000    2.5981    0.0000 C   0  0  0  0  0  0  0  0  0  0  0  0
    3.0000    2.5981    0.0000 C   0  0  0  0  0  0  0  0  0  0  0  0
    3.7500    3.8971    0.0000 C   0  0  0  0  0  0  0  0  0  0  0  0
    5.2500    3.8971    0.0000 C   0  0  0  0  0  0  0  0  0  0  0  0
    6.0000    5.1962    0.0000 C   0  0  0  0  0  0  0  0  0  0  0  0
    5.3899    6.5665    0.0000 C   0  0  0  0  0  0  0  0  0  0  0  0
    6.5046    7.5702    0.0000 C   0  0  0  0  0  0  0  0  0  0  0  0
    7.8037    6.8202    0.0000 C   0  0  0  0  0  0  0  0  0  0  0  0
    7.4918    5.3529    0.0000 C   0  0  0  0  0  0  0  0  0  0  0  0
  1  2  1  0
  2  3  1  0
  3  4  1  0
  4  5  2  0
  5  6  1  0
  6  7  1  0
  7  8  1  0
  8  9  1  0
  9 10  2  3
 10 11  1  0
 11 12  1  0
 12 13  1  0
 13 14  2  0
 14 15  1  0
 15 16  2  0
 16 17  1  0
  8  3  1  0
 17 13  1  0
M  END
>  <Title>  (891) 
idABGIgen6

$$$$

     RDKit          2D

 18 19  0  0  0  0  0  0  0  0999 V2000
    3.1339    0.0000    0.0000 C   0  0  0  0  0  0  0  0  0  0  0  0
    2.7750    1.4564    0.0000 C   0  0  0  0  0  0  0  0  0  0  0  0
    1.7803    2.5792    0.0000 C   0  0  0  0  0  0  0  0  0  0  0  0
    0.3778    3.1111    0.0000 C   0  0  0  0  0  0  0  0  0  0  0  0
   -1.1113    2.9303    0.0000 C   0  0  0  0  0  0  0  0  0  0  0  0
   -2.3458    2.0782    0.0000 C   0  0  0  0  0  0  0  0  0  0  0  0
   -3.0429    0.7500    0.0000 C   0  0  0  0  0  0  0  0  0  0  0  0
   -3.0429   -0.7500    0.0000 C   0  0  0  0  0  0  0  0  0  0  0  0
   -4.4993   -1.1090    0.0000 C   0  0  0  0  0  0  0  0  0  0  0  0
   -5.0649   -2.4982    0.0000 C   0  0  0  0  0  0  0  0  0  0  0  0
   -6.5610   -2.3896    0.0000 C   0  0  0  0  0  0  0  0  0  0  0  0
   -6.9200   -0.9332    0.0000 C   0  0  0  0  0  0  0  0  0  0  0  0
   -5.6458   -0.1417    0.0000 C   0  0  0  0  0  0  0  0  0  0  0  0
   -2.3458   -2.0782    0.0000 C   0  0  0  0  0  0  0  0  0  0  0  0
   -1.1113   -2.9303    0.0000 C   0  0  0  0  0  0  0  0  0  0  0  0
    0.3778   -3.1111    0.0000 C   0  0  0  0  0  0  0  0  0  0  0  0
    1.7803   -2.5792    0.0000 C   0  0  0  0  0  0  0  0  0  0  0  0
    2.7750   -1.4564    0.0000 C   0  0  0  0  0  0  0  0  0  0  0  0
  1  2  1  0
  2  3  1  0
  3  4  1  0
  4  5  1  0
  5  6  1  0
  6  7  1  0
  7  8  1  0
  8  9  1  0
  9 10  1  0
 10 11  1  0
 11 12  1  0
 12 13  1  0
  8 14  1  0
 14 15  1  0
 15 16  1  0
 16 17  1  0
 17 18  1  0
 18  1  1  0
 13  9  1  0
M  END
>  <Title>  (892) 
idABGJgen6

$$$$

     RDKit          2D

 14 14  0  0  0  0  0  0  0  0999 V2000
    3.6929    0.0000    0.0000 C   0  0  0  0  0  0  0  0  0  0  0  0
    2.1929    0.0000    0.0000 C   0  0  0  0  0  0  0  0  0  0  0  0
    1.6798    1.4095    0.0000 C   0  0  0  0  0  0  0  0  0  0  0  0
    0.3808    2.1595    0.0000 C   0  0  0  0  0  0  0  0  0  0  0  0
   -1.0964    1.8991    0.0000 C   0  0  0  0  0  0  0  0  0  0  0  0
   -2.0606    0.7500    0.0000 C   0  0  0  0  0  0  0  0  0  0  0  0
   -2.0606   -0.7500    0.0000 C   0  0  0  0  0  0  0  0  0  0  0  0
   -1.0964   -1.8991    0.0000 C   0  0  0  0  0  0  0  0  0  0  0  0
    0.3808   -2.1595    0.0000 C   0  0  0  0  0  0  0  0  0  0  0  0
    0.6413   -3.6368    0.0000 C   0  0  0  0  0  0  0  0  0  0  0  0
   -0.5078   -4.6009    0.0000 C   0  0  0  0  0  0  0  0  0  0  0  0
   -1.9173   -4.0879    0.0000 O   0  0  0  0  0  0  0  0  0  0  0  0
   -0.2473   -6.0781    0.0000 O   0  0  0  0  0  0  0  0  0  0  0  0
    1.6798   -1.4095    0.0000 C   0  0  0  0  0  0  0  0  0  0  0  0
  1  2  1  0
  2  3  1  0
  3  4  1  0
  4  5  1  0
  5  6  1  0
  6  7  1  0
  7  8  1  0
  8  9  1  0
  9 10  1  0
 10 11  1  0
 11 12  2  0
 11 13  1  0
  9 14  1  0
 14  2  1  0
M  END
>  <Title>  (893) 
idABGKgen6

$$$$

     RDKit          2D

 26 29  0  0  0  0  0  0  0  0999 V2000
   -3.0000   -2.5981    0.0000 C   0  0  0  0  0  0  0  0  0  0  0  0
   -1.5000   -2.5981    0.0000 C   0  0  0  0  0  0  0  0  0  0  0  0
   -0.7500   -3.8971    0.0000 C   0  0  0  0  0  0  0  0  0  0  0  0
    0.7500   -3.8971    0.0000 C   0  0  0  0  0  0  0  0  0  0  0  0
    1.5000   -2.5981    0.0000 C   0  0  0  0  0  0  0  0  0  0  0  0
    3.0000   -2.5981    0.0000 N   0  0  0  0  0  0  0  0  0  0  0  0
    3.8817   -1.3846    0.0000 C   0  0  0  0  0  0  0  0  0  0  0  0
    5.3083   -1.8481    0.0000 C   0  0  0  0  0  0  0  0  0  0  0  0
    5.3083   -3.3481    0.0000 C   0  0  0  0  0  0  0  0  0  0  0  0
    6.5218   -4.2298    0.0000 C   0  0  0  0  0  0  0  0  0  0  0  0
    7.8921   -3.6196    0.0000 O   0  0  0  0  0  0  0  0  0  0  0  0
    6.3650   -5.7215    0.0000 N   0  0  0  0  0  0  0  0  0  0  0  0
    7.5785   -6.6032    0.0000 C   0  0  0  0  0  0  0  0  0  0  0  0
    7.4217   -8.0950    0.0000 N   0  0  0  0  0  0  0  0  0  0  0  0
    8.6353   -8.9767    0.0000 N   0  0  0  0  0  0  0  0  0  0  0  0
   10.0056   -8.3666    0.0000 N   0  0  0  0  0  0  0  0  0  0  0  0
   10.1624   -6.8748    0.0000 N   0  0  0  0  0  0  0  0  0  0  0  0
    8.9488   -5.9931    0.0000 N   0  0  0  0  0  0  0  0  0  0  0  0
    3.8817   -3.8116    0.0000 C   0  0  0  0  0  0  0  0  0  0  0  0
    3.4182   -5.2382    0.0000 O   0  0  0  0  0  0  0  0  0  0  0  0
    0.7500   -1.2990    0.0000 C   0  0  0  0  0  0  0  0  0  0  0  0
    1.5000    0.0000    0.0000 C   0  0  0  0  0  0  0  0  0  0  0  0
    0.7500    1.2990    0.0000 C   0  0  0  0  0  0  0  0  0  0  0  0
   -0.7500    1.2990    0.0000 C   0  0  0  0  0  0  0  0  0  0  0  0
   -1.5000    0.0000    0.0000 C   0  0  0  0  0  0  0  0  0  0  0  0
   -0.7500   -1.2990    0.0000 C   0  0  0  0  0  0  0  0  0  0  0  0
  1  2  1  0
  2  3  1  0
  3  4  2  0
  4  5  1  0
  5  6  1  0
  6  7  1  0
  7  8  1  0
  8  9  1  0
  9 10  1  0
 10 11  2  0
 10 12  1  0
 12 13  1  0
 13 14  2  0
 14 15  1  0
 15 16  2  0
 16 17  1  0
 17 18  2  0
  9 19  1  0
 19 20  2  0
  5 21  1  0
 21 22  2  0
 22 23  1  0
 23 24  2  0
 24 25  1  0
 25 26  2  0
 26  2  1  0
 19  6  1  0
 26 21  1  0
 18 13  1  0
M  END
>  <Title>  (894) 
idABGLgen6

$$$$

     RDKit          2D

  9  9  0  0  0  0  0  0  0  0999 V2000
    5.0260   -1.2990    0.0000 C   0  0  0  0  0  0  0  0  0  0  0  0
    3.5260   -1.2990    0.0000 C   0  0  0  0  0  0  0  0  0  0  0  0
    2.7760   -2.5981    0.0000 O   0  0  0  0  0  0  0  0  0  0  0  0
    2.7760    0.0000    0.0000 O   0  0  0  0  0  0  0  0  0  0  0  0
    1.2760    0.0000    0.0000 C   0  0  0  0  0  0  0  0  0  0  0  0
    0.3943    1.2135    0.0000 C   0  0  0  0  0  0  0  0  0  0  0  0
   -1.0323    0.7500    0.0000 C   0  0  0  0  0  0  0  0  0  0  0  0
   -1.0323   -0.7500    0.0000 C   0  0  0  0  0  0  0  0  0  0  0  0
    0.3943   -1.2135    0.0000 C   0  0  0  0  0  0  0  0  0  0  0  0
  1  2  1  0
  2  3  2  0
  2  4  1  0
  4  5  1  0
  5  6  2  0
  6  7  1  0
  7  8  1  0
  8  9  2  0
  9  5  1  0
M  END
>  <Title>  (895) 
idABGMgen6

$$$$

     RDKit          2D

 18 19  0  0  0  0  0  0  0  0999 V2000
    3.4598   -0.0000    0.0000 C   0  0  0  0  0  0  0  0  0  0  0  0
    1.9598    0.0000    0.0000 C   0  0  0  0  0  0  0  0  0  0  0  0
    1.3858   -1.3858    0.0000 C   0  0  0  0  0  0  0  0  0  0  0  0
   -0.0000   -1.9598    0.0000 C   0  0  0  0  0  0  0  0  0  0  0  0
   -1.3858   -1.3858    0.0000 C   0  0  0  0  0  0  0  0  0  0  0  0
   -1.9598    0.0000    0.0000 C   0  0  0  0  0  0  0  0  0  0  0  0
   -1.3858    1.3858    0.0000 C   0  0  0  0  0  0  0  0  0  0  0  0
    0.0000    1.9598    0.0000 C   0  0  0  0  0  0  0  0  0  0  0  0
    0.0000    3.4598    0.0000 C   0  0  0  0  0  0  0  0  0  0  0  0
   -1.2990    4.2098    0.0000 O   0  0  0  0  0  0  0  0  0  0  0  0
    1.2990    4.2098    0.0000 N   0  0  0  0  0  0  0  0  0  0  0  0
    1.2990    5.7098    0.0000 C   0  0  0  0  0  0  0  0  0  0  0  0
    2.5981    6.4598    0.0000 N   0  0  0  0  0  0  0  0  0  0  0  0
    2.5981    7.9598    0.0000 N   0  0  0  0  0  0  0  0  0  0  0  0
    1.2990    8.7098    0.0000 N   0  0  0  0  0  0  0  0  0  0  0  0
   -0.0000    7.9598    0.0000 N   0  0  0  0  0  0  0  0  0  0  0  0
   -0.0000    6.4598    0.0000 N   0  0  0  0  0  0  0  0  0  0  0  0
    1.3858    1.3858    0.0000 C   0  0  0  0  0  0  0  0  0  0  0  0
  1  2  1  0
  2  3  1  0
  3  4  2  0
  4  5  1  0
  5  6  2  0
  6  7  1  0
  7  8  2  0
  8  9  1  0
  9 10  2  0
  9 11  1  0
 11 12  1  0
 12 13  2  0
 13 14  1  0
 14 15  2  0
 15 16  1  0
 16 17  2  0
  8 18  1  0
 18  2  1  0
 17 12  1  0
M  END
>  <Title>  (896) 
idABGNgen6

$$$$

     RDKit          2D

 35 38  0  0  0  0  0  0  0  0999 V2000
    9.3542   -4.0313    0.0000 C   0  0  0  0  0  0  0  0  0  0  0  0
    7.9579   -4.5793    0.0000 C   0  0  0  0  0  0  0  0  0  0  0  0
    8.2551   -6.0495    0.0000 C   0  0  0  0  0  0  0  0  0  0  0  0
    8.0315   -7.5328    0.0000 C   0  0  0  0  0  0  0  0  0  0  0  0
    7.3141   -8.8501    0.0000 C   0  0  0  0  0  0  0  0  0  0  0  0
    6.1895   -9.8426    0.0000 C   0  0  0  0  0  0  0  0  0  0  0  0
    4.7932  -10.3907    0.0000 C   0  0  0  0  0  0  0  0  0  0  0  0
    5.0904  -11.8609    0.0000 C   0  0  0  0  0  0  0  0  0  0  0  0
    5.3876  -13.3312    0.0000 N   0  0  0  0  0  0  0  0  0  0  0  0
    3.2936  -10.4281    0.0000 C   0  0  0  0  0  0  0  0  0  0  0  0
    1.8717   -9.9503    0.0000 C   0  0  0  0  0  0  0  0  0  0  0  0
    0.6990   -9.0151    0.0000 C   0  0  0  0  0  0  0  0  0  0  0  0
   -0.4257  -10.0076    0.0000 C   0  0  0  0  0  0  0  0  0  0  0  0
   -0.0832   -7.7352    0.0000 C   0  0  0  0  0  0  0  0  0  0  0  0
   -0.3804   -6.2649    0.0000 C   0  0  0  0  0  0  0  0  0  0  0  0
   -0.0000   -4.5850    0.0000 N   0  0  0  0  0  0  0  0  0  0  0  0
    1.3515   -3.9342    0.0000 C   0  0  0  0  0  0  0  0  0  0  0  0
    1.6852   -2.4718    0.0000 C   0  0  0  0  0  0  0  0  0  0  0  0
    0.7500   -1.2990    0.0000 C   0  0  0  0  0  0  0  0  0  0  0  0
    1.5000    0.0000    0.0000 C   0  0  0  0  0  0  0  0  0  0  0  0
    0.7500    1.2990    0.0000 C   0  0  0  0  0  0  0  0  0  0  0  0
   -0.7500    1.2990    0.0000 C   0  0  0  0  0  0  0  0  0  0  0  0
   -1.5000    0.0000    0.0000 C   0  0  0  0  0  0  0  0  0  0  0  0
   -0.7500   -1.2990    0.0000 C   0  0  0  0  0  0  0  0  0  0  0  0
   -1.6852   -2.4718    0.0000 O   0  0  0  0  0  0  0  0  0  0  0  0
   -1.3515   -3.9342    0.0000 C   0  0  0  0  0  0  0  0  0  0  0  0
   -2.5242   -4.8694    0.0000 O   0  0  0  0  0  0  0  0  0  0  0  0
    3.0815   -1.9238    0.0000 N   0  0  0  0  0  0  0  0  0  0  0  0
    2.5826   -0.5092    0.0000 N   0  0  0  0  0  0  0  0  0  0  0  0
    3.7738    0.4025    0.0000 N   0  0  0  0  0  0  0  0  0  0  0  0
    5.0089   -0.4487    0.0000 N   0  0  0  0  0  0  0  0  0  0  0  0
    4.5811   -1.8864    0.0000 C   0  0  0  0  0  0  0  0  0  0  0  0
    6.0030   -2.3641    0.0000 N   0  0  0  0  0  0  0  0  0  0  0  0
    7.1757   -3.2993    0.0000 C   0  0  0  0  0  0  0  0  0  0  0  0
    8.3004   -2.3068    0.0000 O   0  0  0  0  0  0  0  0  0  0  0  0
  1  2  1  0
  2  3  2  0
  3  4  1  0
  4  5  2  0
  5  6  1  0
  6  7  2  0
  7  8  1  0
  8  9  3  0
  7 10  1  0
 10 11  1  0
 11 12  1  0
 12 13  1  0
 12 14  1  0
 14 15  1  0
 15 16  1  0
 16 17  1  0
 17 18  1  0
 18 19  1  0
 19 20  2  0
 20 21  1  0
 21 22  2  0
 22 23  1  0
 23 24  2  0
 24 25  1  0
 25 26  1  0
 26 27  2  0
 18 28  1  0
 28 29  1  0
 29 30  2  0
 30 31  1  0
 31 32  2  0
 32 33  1  0
 33 34  1  0
 34 35  2  0
 34  2  1  0
 26 16  1  0
 32 28  1  0
 24 19  1  0
M  END
>  <Title>  (897) 
idABGOgen6

$$$$

     RDKit          2D

  4  3  0  0  0  0  0  0  0  0999 V2000
   -1.2990    0.7500    0.0000 O   0  0  0  0  0  0  0  0  0  0  0  0
    0.0000    0.0000    0.0000 C   0  0  0  0  0  0  0  0  0  0  0  0
    1.2990    0.7500    0.0000 O   0  0  0  0  0  0  0  0  0  0  0  0
   -0.0000   -1.5000    0.0000 F   0  0  0  0  0  0  0  0  0  0  0  0
  1  2  2  0
  2  3  1  0
  2  4  1  0
M  END
>  <Title>  (898) 
idABGPgen6

$$$$

     RDKit          2D

 12 12  0  0  0  0  0  0  0  0999 V2000
    7.5000   -2.5981    0.0000 C   0  0  0  0  0  0  0  0  0  0  0  0
    6.0000   -2.5981    0.0000 C   0  0  0  0  0  0  0  0  0  0  0  0
    5.2500   -1.2990    0.0000 C   0  0  0  0  0  0  0  0  0  0  0  0
    3.7500   -1.2990    0.0000 C   0  0  0  0  0  0  0  0  0  0  0  0
    3.0000   -2.5981    0.0000 O   0  0  0  0  0  0  0  0  0  0  0  0
    3.0000    0.0000    0.0000 O   0  0  0  0  0  0  0  0  0  0  0  0
    1.5000    0.0000    0.0000 C   0  0  0  0  0  0  0  0  0  0  0  0
    0.7500   -1.2990    0.0000 C   0  0  0  0  0  0  0  0  0  0  0  0
   -0.7500   -1.2990    0.0000 C   0  0  0  0  0  0  0  0  0  0  0  0
   -1.5000    0.0000    0.0000 C   0  0  0  0  0  0  0  0  0  0  0  0
   -0.7500    1.2990    0.0000 C   0  0  0  0  0  0  0  0  0  0  0  0
    0.7500    1.2990    0.0000 C   0  0  0  0  0  0  0  0  0  0  0  0
  1  2  1  0
  2  3  2  3
  3  4  1  0
  4  5  2  0
  4  6  1  0
  6  7  1  0
  7  8  2  0
  8  9  1  0
  9 10  2  0
 10 11  1  0
 11 12  2  0
 12  7  1  0
M  END
>  <Title>  (899) 
idABGQgen6

$$$$

     RDKit          2D

 23 25  0  0  0  0  0  0  0  0999 V2000
   -3.1965   -1.7857    0.0000 C   0  0  0  0  0  0  0  0  0  0  0  0
   -1.8107   -2.3597    0.0000 C   0  0  0  0  0  0  0  0  0  0  0  0
   -1.8107   -3.8597    0.0000 C   0  0  0  0  0  0  0  0  0  0  0  0
   -0.7500   -4.9204    0.0000 C   0  0  0  0  0  0  0  0  0  0  0  0
    0.7500   -4.9204    0.0000 C   0  0  0  0  0  0  0  0  0  0  0  0
    1.3240   -6.3062    0.0000 C   0  0  0  0  0  0  0  0  0  0  0  0
    2.8112   -6.5020    0.0000 O   0  0  0  0  0  0  0  0  0  0  0  0
    0.4109   -7.4962    0.0000 N   0  0  0  0  0  0  0  0  0  0  0  0
    0.9849   -8.8820    0.0000 C   0  0  0  0  0  0  0  0  0  0  0  0
    0.0718  -10.0721    0.0000 N   0  0  0  0  0  0  0  0  0  0  0  0
    0.6458  -11.4579    0.0000 N   0  0  0  0  0  0  0  0  0  0  0  0
    2.1330  -11.6537    0.0000 N   0  0  0  0  0  0  0  0  0  0  0  0
    3.0461  -10.4636    0.0000 N   0  0  0  0  0  0  0  0  0  0  0  0
    2.4721   -9.0778    0.0000 N   0  0  0  0  0  0  0  0  0  0  0  0
    1.8107   -3.8597    0.0000 C   0  0  0  0  0  0  0  0  0  0  0  0
    3.1965   -4.4337    0.0000 O   0  0  0  0  0  0  0  0  0  0  0  0
    1.8107   -2.3597    0.0000 N   0  0  0  0  0  0  0  0  0  0  0  0
    0.7500   -1.2990    0.0000 C   0  0  0  0  0  0  0  0  0  0  0  0
    1.5000    0.0000    0.0000 C   0  0  0  0  0  0  0  0  0  0  0  0
    0.7500    1.2990    0.0000 C   0  0  0  0  0  0  0  0  0  0  0  0
   -0.7500    1.2990    0.0000 C   0  0  0  0  0  0  0  0  0  0  0  0
   -1.5000    0.0000    0.0000 C   0  0  0  0  0  0  0  0  0  0  0  0
   -0.7500   -1.2990    0.0000 C   0  0  0  0  0  0  0  0  0  0  0  0
  1  2  1  0
  2  3  1  0
  3  4  1  0
  4  5  1  0
  5  6  1  0
  6  7  2  0
  6  8  1  0
  8  9  1  0
  9 10  2  0
 10 11  1  0
 11 12  2  0
 12 13  1  0
 13 14  2  0
  5 15  1  0
 15 16  2  0
 15 17  1  0
 17 18  1  0
 18 19  2  0
 19 20  1  0
 20 21  2  0
 21 22  1  0
 22 23  2  0
 23  2  1  0
 14  9  1  0
 23 18  1  0
M  END
>  <Title>  (900) 
idABGRgen6

$$$$

     RDKit          2D

 21 23  0  0  0  0  0  0  0  0999 V2000
    3.7500   -1.2990    0.0000 C   0  0  0  0  0  0  0  0  0  0  0  0
    3.0000    0.0000    0.0000 C   0  0  0  0  0  0  0  0  0  0  0  0
    3.7500    1.2990    0.0000 O   0  0  0  0  0  0  0  0  0  0  0  0
    1.5000    0.0000    0.0000 C   0  0  0  0  0  0  0  0  0  0  0  0
    0.7500   -1.2990    0.0000 C   0  0  0  0  0  0  0  0  0  0  0  0
   -0.7500   -1.2990    0.0000 C   0  0  0  0  0  0  0  0  0  0  0  0
   -1.5000    0.0000    0.0000 C   0  0  0  0  0  0  0  0  0  0  0  0
   -3.0000    0.0000    0.0000 N   0  0  0  0  0  0  0  0  0  0  0  0
   -3.7500    1.2990    0.0000 C   0  0  0  0  0  0  0  0  0  0  0  0
   -5.2500    1.2990    0.0000 C   0  0  0  0  0  0  0  0  0  0  0  0
   -6.0000    0.0000    0.0000 C   0  0  0  0  0  0  0  0  0  0  0  0
   -7.5000    0.0000    0.0000 C   0  0  0  0  0  0  0  0  0  0  0  0
   -8.2500    1.2990    0.0000 C   0  0  0  0  0  0  0  0  0  0  0  0
   -9.7500    1.2990    0.0000 C   0  0  0  0  0  0  0  0  0  0  0  0
  -10.5000    0.0000    0.0000 C   0  0  0  0  0  0  0  0  0  0  0  0
   -9.7500   -1.2990    0.0000 C   0  0  0  0  0  0  0  0  0  0  0  0
   -8.2500   -1.2990    0.0000 C   0  0  0  0  0  0  0  0  0  0  0  0
   -5.2500   -1.2990    0.0000 C   0  0  0  0  0  0  0  0  0  0  0  0
   -3.7500   -1.2990    0.0000 C   0  0  0  0  0  0  0  0  0  0  0  0
   -0.7500    1.2990    0.0000 C   0  0  0  0  0  0  0  0  0  0  0  0
    0.7500    1.2990    0.0000 C   0  0  0  0  0  0  0  0  0  0  0  0
  1  2  1  0
  2  3  2  0
  2  4  1  0
  4  5  1  0
  5  6  1  0
  6  7  1  0
  7  8  1  0
  8  9  1  0
  9 10  1  0
 10 11  1  0
 11 12  1  0
 12 13  2  0
 13 14  1  0
 14 15  2  0
 15 16  1  0
 16 17  2  0
 11 18  1  0
 18 19  1  0
  7 20  1  0
 20 21  1  0
 21  4  1  0
 19  8  1  0
 17 12  1  0
M  END
>  <Title>  (901) 
idABGSgen6

$$$$

     RDKit          2D

 27 31  0  0  0  0  0  0  0  0999 V2000
   -3.5898   -0.7046    0.0000 O   0  0  0  0  0  0  0  0  0  0  0  0
   -3.1476   -2.1380    0.0000 C   0  0  0  0  0  0  0  0  0  0  0  0
   -1.6852   -2.4718    0.0000 C   0  0  0  0  0  0  0  0  0  0  0  0
   -1.3515   -3.9342    0.0000 C   0  0  0  0  0  0  0  0  0  0  0  0
   -0.0000   -4.5850    0.0000 C   0  0  0  0  0  0  0  0  0  0  0  0
    1.3515   -3.9342    0.0000 C   0  0  0  0  0  0  0  0  0  0  0  0
    2.6391   -4.7035    0.0000 C   0  0  0  0  0  0  0  0  0  0  0  0
    3.7687   -3.7166    0.0000 C   0  0  0  0  0  0  0  0  0  0  0  0
    3.1792   -2.3373    0.0000 C   0  0  0  0  0  0  0  0  0  0  0  0
    1.6852   -2.4718    0.0000 C   0  0  0  0  0  0  0  0  0  0  0  0
    0.7500   -1.2990    0.0000 C   0  0  0  0  0  0  0  0  0  0  0  0
    1.5000    0.0000    0.0000 C   0  0  0  0  0  0  0  0  0  0  0  0
    0.7500    1.2990    0.0000 C   0  0  0  0  0  0  0  0  0  0  0  0
   -0.7500    1.2990    0.0000 C   0  0  0  0  0  0  0  0  0  0  0  0
   -1.5000    0.0000    0.0000 C   0  0  0  0  0  0  0  0  0  0  0  0
   -0.7500   -1.2990    0.0000 C   0  0  0  0  0  0  0  0  0  0  0  0
   -4.1679   -3.2376    0.0000 N   0  0  0  0  0  0  0  0  0  0  0  0
   -5.6303   -2.9038    0.0000 C   0  0  0  0  0  0  0  0  0  0  0  0
   -6.6505   -4.0034    0.0000 C   0  0  0  0  0  0  0  0  0  0  0  0
   -6.2084   -5.4367    0.0000 C   0  0  0  0  0  0  0  0  0  0  0  0
   -7.2287   -6.5363    0.0000 N   0  0  0  0  0  0  0  0  0  0  0  0
   -6.9388   -8.0080    0.0000 C   0  0  0  0  0  0  0  0  0  0  0  0
   -8.2489   -8.7385    0.0000 C   0  0  0  0  0  0  0  0  0  0  0  0
   -9.3485   -7.7183    0.0000 C   0  0  0  0  0  0  0  0  0  0  0  0
   -8.7179   -6.3572    0.0000 C   0  0  0  0  0  0  0  0  0  0  0  0
   -4.7460   -5.7705    0.0000 C   0  0  0  0  0  0  0  0  0  0  0  0
   -3.7258   -4.6709    0.0000 C   0  0  0  0  0  0  0  0  0  0  0  0
  1  2  2  0
  2  3  1  0
  3  4  2  0
  4  5  1  0
  5  6  2  0
  6  7  1  0
  7  8  2  0
  8  9  1  0
  9 10  2  0
 10 11  1  0
 11 12  2  0
 12 13  1  0
 13 14  2  0
 14 15  1  0
 15 16  2  0
  2 17  1  0
 17 18  1  0
 18 19  1  0
 19 20  1  0
 20 21  1  0
 21 22  1  0
 22 23  1  0
 23 24  1  0
 24 25  1  0
 20 26  1  0
 26 27  1  0
 16  3  1  0
 27 17  1  0
 10  6  1  0
 16 11  1  0
 25 21  1  0
M  END
>  <Title>  (902) 
idABGTgen6

$$$$

     RDKit          2D

  8  8  0  0  0  0  0  0  0  0999 V2000
    3.0000    0.0000    0.0000 C   0  0  0  0  0  0  0  0  0  0  0  0
    1.5000    0.0000    0.0000 C   0  0  0  0  0  0  0  0  0  0  0  0
    0.7500   -1.2990    0.0000 C   0  0  0  0  0  0  0  0  0  0  0  0
   -0.7500   -1.2990    0.0000 C   0  0  0  0  0  0  0  0  0  0  0  0
   -1.5000    0.0000    0.0000 C   0  0  0  0  0  0  0  0  0  0  0  0
   -0.7500    1.2990    0.0000 C   0  0  0  0  0  0  0  0  0  0  0  0
    0.7500    1.2990    0.0000 C   0  0  0  0  0  0  0  0  0  0  0  0
    1.5000    2.5981    0.0000 C   0  0  0  0  0  0  0  0  0  0  0  0
  1  2  1  0
  2  3  2  0
  3  4  1  0
  4  5  1  0
  5  6  1  0
  6  7  2  0
  7  8  1  0
  7  2  1  0
M  END
>  <Title>  (903) 
idABGUgen6

$$$$

     RDKit          2D

 59 63  0  0  0  0  0  0  0  0999 V2000
   -3.7500   -9.0933    0.0000 C   0  0  0  0  0  0  0  0  0  0  0  0
   -5.2500   -9.0933    0.0000 C   0  0  0  0  0  0  0  0  0  0  0  0
   -6.0000  -10.3923    0.0000 O   0  0  0  0  0  0  0  0  0  0  0  0
   -6.0000   -7.7942    0.0000 C   0  0  0  0  0  0  0  0  0  0  0  0
   -7.5000   -7.7942    0.0000 C   0  0  0  0  0  0  0  0  0  0  0  0
   -8.2500   -6.4952    0.0000 C   0  0  0  0  0  0  0  0  0  0  0  0
   -9.7500   -6.4952    0.0000 C   0  0  0  0  0  0  0  0  0  0  0  0
  -10.5000   -5.1962    0.0000 C   0  0  0  0  0  0  0  0  0  0  0  0
   -9.7500   -3.8971    0.0000 C   0  0  0  0  0  0  0  0  0  0  0  0
   -8.2500   -3.8971    0.0000 C   0  0  0  0  0  0  0  0  0  0  0  0
   -7.5000   -5.1962    0.0000 C   0  0  0  0  0  0  0  0  0  0  0  0
   -5.2500   -6.4952    0.0000 N   0  0  0  0  0  0  0  0  0  0  0  0
   -3.7500   -6.4952    0.0000 C   0  0  0  0  0  0  0  0  0  0  0  0
   -3.0000   -7.7942    0.0000 O   0  0  0  0  0  0  0  0  0  0  0  0
   -3.0000   -5.1962    0.0000 C   0  0  0  0  0  0  0  0  0  0  0  0
   -1.5000   -5.1962    0.0000 C   0  0  0  0  0  0  0  0  0  0  0  0
   -0.7500   -3.8971    0.0000 C   0  0  0  0  0  0  0  0  0  0  0  0
   -1.5000   -2.5981    0.0000 C   0  0  0  0  0  0  0  0  0  0  0  0
   -0.7500   -1.2990    0.0000 C   0  0  0  0  0  0  0  0  0  0  0  0
    0.7500   -1.2990    0.0000 C   0  0  0  0  0  0  0  0  0  0  0  0
    1.5000   -2.5981    0.0000 C   0  0  0  0  0  0  0  0  0  0  0  0
    0.7500   -3.8971    0.0000 C   0  0  0  0  0  0  0  0  0  0  0  0
   -3.7500   -3.8971    0.0000 N   0  0  0  0  0  0  0  0  0  0  0  0
   -5.2500   -3.8971    0.0000 C   0  0  0  0  0  0  0  0  0  0  0  0
   -6.0000   -5.1962    0.0000 O   0  0  0  0  0  0  0  0  0  0  0  0
   -6.0000   -2.5981    0.0000 C   0  0  0  0  0  0  0  0  0  0  0  0
   -7.5000   -2.5981    0.0000 C   0  0  0  0  0  0  0  0  0  0  0  0
   -8.2500   -1.2990    0.0000 C   0  0  0  0  0  0  0  0  0  0  0  0
   -7.5000    0.0000    0.0000 C   0  0  0  0  0  0  0  0  0  0  0  0
   -8.2500    1.2990    0.0000 C   0  0  0  0  0  0  0  0  0  0  0  0
   -9.7500    1.2990    0.0000 C   0  0  0  0  0  0  0  0  0  0  0  0
  -10.5000    0.0000    0.0000 C   0  0  0  0  0  0  0  0  0  0  0  0
   -9.7500   -1.2990    0.0000 C   0  0  0  0  0  0  0  0  0  0  0  0
   -5.2500   -1.2990    0.0000 N   0  0  0  0  0  0  0  0  0  0  0  0
   -3.7500   -1.2990    0.0000 C   0  0  0  0  0  0  0  0  0  0  0  0
   -3.0000   -2.5981    0.0000 O   0  0  0  0  0  0  0  0  0  0  0  0
   -3.0000    0.0000    0.0000 C   0  0  0  0  0  0  0  0  0  0  0  0
   -1.5000    0.0000    0.0000 C   0  0  0  0  0  0  0  0  0  0  0  0
   -0.7500    1.2990    0.0000 C   0  0  0  0  0  0  0  0  0  0  0  0
   -1.5000    2.5981    0.0000 C   0  0  0  0  0  0  0  0  0  0  0  0
   -0.7500    3.8971    0.0000 C   0  0  0  0  0  0  0  0  0  0  0  0
    0.7500    3.8971    0.0000 C   0  0  0  0  0  0  0  0  0  0  0  0
    1.5000    5.1962    0.0000 O   0  0  0  0  0  0  0  0  0  0  0  0
    1.5000    2.5981    0.0000 C   0  0  0  0  0  0  0  0  0  0  0  0
    0.7500    1.2990    0.0000 C   0  0  0  0  0  0  0  0  0  0  0  0
   -3.7500    1.2990    0.0000 N   0  0  0  0  0  0  0  0  0  0  0  0
   -5.2500    1.2990    0.0000 C   0  0  0  0  0  0  0  0  0  0  0  0
   -6.0000   -0.0000    0.0000 O   0  0  0  0  0  0  0  0  0  0  0  0
   -6.0000    2.5981    0.0000 C   0  0  0  0  0  0  0  0  0  0  0  0
   -7.5000    2.5981    0.0000 N   0  0  0  0  0  0  0  0  0  0  0  0
   -8.2500    3.8971    0.0000 C   0  0  0  0  0  0  0  0  0  0  0  0
   -7.5000    5.1962    0.0000 O   0  0  0  0  0  0  0  0  0  0  0  0
   -9.7500    3.8971    0.0000 C   0  0  0  0  0  0  0  0  0  0  0  0
  -10.5000    5.1962    0.0000 C   0  0  0  0  0  0  0  0  0  0  0  0
  -12.0000    5.1962    0.0000 C   0  0  0  0  0  0  0  0  0  0  0  0
  -12.7500    3.8971    0.0000 C   0  0  0  0  0  0  0  0  0  0  0  0
  -12.0000    2.5981    0.0000 C   0  0  0  0  0  0  0  0  0  0  0  0
  -12.7500    1.2990    0.0000 C   0  0  0  0  0  0  0  0  0  0  0  0
  -10.5000    2.5981    0.0000 C   0  0  0  0  0  0  0  0  0  0  0  0
  1  2  1  0
  2  3  2  0
  2  4  1  0
  4  5  1  0
  5  6  1  0
  6  7  2  0
  7  8  1  0
  8  9  2  0
  9 10  1  0
 10 11  2  0
  4 12  1  0
 12 13  1  0
 13 14  2  0
 13 15  1  0
 15 16  1  0
 16 17  1  0
 17 18  2  0
 18 19  1  0
 19 20  2  0
 20 21  1  0
 21 22  1  0
 15 23  1  0
 23 24  1  0
 24 25  2  0
 24 26  1  0
 26 27  1  0
 27 28  1  0
 28 29  2  0
 29 30  1  0
 30 31  2  0
 31 32  1  0
 32 33  2  0
 26 34  1  0
 34 35  1  0
 35 36  2  0
 35 37  1  0
 37 38  1  0
 38 39  1  0
 39 40  2  0
 40 41  1  0
 41 42  2  0
 42 43  1  0
 42 44  1  0
 44 45  2  0
 37 46  1  0
 46 47  1  0
 47 48  2  0
 47 49  1  0
 49 50  1  0
 50 51  1  0
 51 52  2  0
 51 53  1  0
 53 54  1  0
 54 55  1  0
 55 56  1  0
 56 57  1  0
 57 58  1  0
 57 59  1  0
 11  6  1  0
 22 17  1  0
 33 28  1  0
 45 39  1  0
 59 53  1  0
M  END
>  <Title>  (904) 
idABGVgen6

$$$$

     RDKit          2D

 40 43  0  0  0  0  0  0  0  0999 V2000
    6.2943    0.0000    0.0000 C   0  0  0  0  0  0  0  0  0  0  0  0
    4.7943    0.0000    0.0000 C   0  0  0  0  0  0  0  0  0  0  0  0
    4.5597   -1.4815    0.0000 C   0  0  0  0  0  0  0  0  0  0  0  0
    3.8787   -2.8180    0.0000 C   0  0  0  0  0  0  0  0  0  0  0  0
    2.8180   -3.8787    0.0000 C   0  0  0  0  0  0  0  0  0  0  0  0
    1.4815   -4.5597    0.0000 C   0  0  0  0  0  0  0  0  0  0  0  0
   -0.0000   -4.7943    0.0000 C   0  0  0  0  0  0  0  0  0  0  0  0
   -1.4815   -4.5597    0.0000 C   0  0  0  0  0  0  0  0  0  0  0  0
   -2.8180   -3.8787    0.0000 C   0  0  0  0  0  0  0  0  0  0  0  0
   -3.8787   -2.8180    0.0000 C   0  0  0  0  0  0  0  0  0  0  0  0
   -4.5597   -1.4815    0.0000 C   0  0  0  0  0  0  0  0  0  0  0  0
   -4.7943    0.0000    0.0000 C   0  0  0  0  0  0  0  0  0  0  0  0
   -4.5597    1.4815    0.0000 C   0  0  0  0  0  0  0  0  0  0  0  0
   -3.8787    2.8180    0.0000 N   0  0  0  0  0  0  0  0  0  0  0  0
   -2.8180    3.8787    0.0000 N   0  0  0  0  0  0  0  0  0  0  0  0
   -1.4815    4.5597    0.0000 N   0  0  0  0  0  0  0  0  0  0  0  0
    0.0000    4.7943    0.0000 N   0  0  0  0  0  0  0  0  0  0  0  0
    1.4815    4.5597    0.0000 N   0  0  0  0  0  0  0  0  0  0  0  0
    2.8180    3.8787    0.0000 N   0  0  0  0  0  0  0  0  0  0  0  0
    3.6997    5.0922    0.0000 N   0  0  0  0  0  0  0  0  0  0  0  0
    3.2362    6.5188    0.0000 C   0  0  0  0  0  0  0  0  0  0  0  0
    4.4497    7.4005    0.0000 C   0  0  0  0  0  0  0  0  0  0  0  0
    5.6632    6.5188    0.0000 C   0  0  0  0  0  0  0  0  0  0  0  0
    7.0898    6.9823    0.0000 N   0  0  0  0  0  0  0  0  0  0  0  0
    7.5534    8.4089    0.0000 C   0  0  0  0  0  0  0  0  0  0  0  0
    9.0534    8.4089    0.0000 C   0  0  0  0  0  0  0  0  0  0  0  0
    9.5169    6.9823    0.0000 C   0  0  0  0  0  0  0  0  0  0  0  0
   10.9435    6.5188    0.0000 C   0  0  0  0  0  0  0  0  0  0  0  0
   12.0582    7.5225    0.0000 O   0  0  0  0  0  0  0  0  0  0  0  0
   11.2553    5.0516    0.0000 N   0  0  0  0  0  0  0  0  0  0  0  0
   12.6819    4.5881    0.0000 C   0  0  0  0  0  0  0  0  0  0  0  0
   12.9938    3.1208    0.0000 C   0  0  0  0  0  0  0  0  0  0  0  0
   14.4204    2.6573    0.0000 C   0  0  0  0  0  0  0  0  0  0  0  0
   15.5351    3.6610    0.0000 C   0  0  0  0  0  0  0  0  0  0  0  0
   15.2232    5.1282    0.0000 C   0  0  0  0  0  0  0  0  0  0  0  0
   13.7966    5.5918    0.0000 C   0  0  0  0  0  0  0  0  0  0  0  0
    8.3034    6.1007    0.0000 C   0  0  0  0  0  0  0  0  0  0  0  0
    5.1997    5.0922    0.0000 C   0  0  0  0  0  0  0  0  0  0  0  0
    3.8787    2.8180    0.0000 O   0  0  0  0  0  0  0  0  0  0  0  0
    4.5597    1.4815    0.0000 C   0  0  0  0  0  0  0  0  0  0  0  0
  1  2  1  0
  2  3  1  0
  3  4  1  0
  4  5  1  0
  5  6  1  0
  6  7  1  0
  7  8  1  0
  8  9  1  0
  9 10  1  0
 10 11  1  0
 11 12  1  0
 12 13  1  0
 13 14  2  0
 14 15  1  0
 15 16  2  0
 16 17  1  0
 17 18  2  0
 18 19  1  0
 19 20  1  0
 20 21  1  0
 21 22  1  0
 22 23  1  0
 23 24  1  0
 24 25  1  0
 25 26  1  0
 26 27  1  0
 27 28  1  0
 28 29  2  0
 28 30  1  0
 30 31  1  0
 31 32  2  0
 32 33  1  0
 33 34  2  0
 34 35  1  0
 35 36  2  0
 27 37  1  0
 23 38  1  0
 19 39  1  0
 39 40  1  0
 40  2  1  0
 38 20  1  0
 37 24  1  0
 36 31  1  0
M  END
>  <Title>  (905) 
idABGWgen6

$$$$

     RDKit          2D

 15 16  0  0  0  0  0  0  0  0999 V2000
    5.5470   -5.5844    0.0000 C   0  0  0  0  0  0  0  0  0  0  0  0
    4.2479   -4.8344    0.0000 O   0  0  0  0  0  0  0  0  0  0  0  0
    2.9489   -5.5844    0.0000 C   0  0  0  0  0  0  0  0  0  0  0  0
    2.5607   -7.0333    0.0000 C   0  0  0  0  0  0  0  0  0  0  0  0
    3.3107   -8.3323    0.0000 C   0  0  0  0  0  0  0  0  0  0  0  0
    1.1118   -6.6450    0.0000 C   0  0  0  0  0  0  0  0  0  0  0  0
    1.5000   -5.1962    0.0000 C   0  0  0  0  0  0  0  0  0  0  0  0
    0.7500   -3.8971    0.0000 C   0  0  0  0  0  0  0  0  0  0  0  0
    1.5000   -2.5981    0.0000 C   0  0  0  0  0  0  0  0  0  0  0  0
    0.7500   -1.2990    0.0000 C   0  0  0  0  0  0  0  0  0  0  0  0
    1.5000    0.0000    0.0000 C   0  0  0  0  0  0  0  0  0  0  0  0
    0.7500    1.2990    0.0000 C   0  0  0  0  0  0  0  0  0  0  0  0
   -0.7500    1.2990    0.0000 N   0  0  0  0  0  0  0  0  0  0  0  0
   -1.5000    0.0000    0.0000 N   0  0  0  0  0  0  0  0  0  0  0  0
   -0.7500   -1.2990    0.0000 N   0  0  0  0  0  0  0  0  0  0  0  0
  1  2  1  0
  2  3  1  0
  3  4  2  0
  4  5  1  0
  4  6  1  0
  6  7  1  0
  7  8  1  0
  8  9  1  0
  9 10  1  0
 10 11  2  0
 11 12  1  0
 12 13  2  0
 13 14  1  0
 14 15  2  0
  7  3  1  0
 15 10  1  0
M  END
>  <Title>  (906) 
idABGXgen6

$$$$

     RDKit          2D

 44 49  0  0  0  0  0  0  0  0999 V2000
   -3.0367   -0.7771    0.0000 C   0  0  0  0  0  0  0  0  0  0  0  0
   -2.1015   -1.9499    0.0000 C   0  0  0  0  0  0  0  0  0  0  0  0
   -3.0367   -3.1226    0.0000 C   0  0  0  0  0  0  0  0  0  0  0  0
   -3.3705   -4.5850    0.0000 S   0  0  0  0  0  0  0  0  0  0  0  0
   -3.0367   -6.0474    0.0000 C   0  0  0  0  0  0  0  0  0  0  0  0
   -4.3881   -6.6982    0.0000 O   0  0  0  0  0  0  0  0  0  0  0  0
   -2.1015   -7.2201    0.0000 N   0  0  0  0  0  0  0  0  0  0  0  0
   -3.0367   -8.3929    0.0000 C   0  0  0  0  0  0  0  0  0  0  0  0
   -0.7500   -7.8710    0.0000 C   0  0  0  0  0  0  0  0  0  0  0  0
   -1.5000   -9.1700    0.0000 C   0  0  0  0  0  0  0  0  0  0  0  0
   -0.7500  -10.4690    0.0000 C   0  0  0  0  0  0  0  0  0  0  0  0
    0.7500  -10.4690    0.0000 C   0  0  0  0  0  0  0  0  0  0  0  0
    1.5000  -11.7681    0.0000 Cl  0  0  0  0  0  0  0  0  0  0  0  0
    1.5000   -9.1700    0.0000 C   0  0  0  0  0  0  0  0  0  0  0  0
    0.7500   -7.8710    0.0000 C   0  0  0  0  0  0  0  0  0  0  0  0
    2.1015   -7.2201    0.0000 C   0  0  0  0  0  0  0  0  0  0  0  0
    2.9278   -8.4720    0.0000 C   0  0  0  0  0  0  0  0  0  0  0  0
    4.3737   -8.0729    0.0000 C   0  0  0  0  0  0  0  0  0  0  0  0
    4.4410   -6.5745    0.0000 C   0  0  0  0  0  0  0  0  0  0  0  0
    5.6929   -5.7481    0.0000 C   0  0  0  0  0  0  0  0  0  0  0  0
    5.6032   -4.2508    0.0000 O   0  0  0  0  0  0  0  0  0  0  0  0
    7.0345   -6.4191    0.0000 N   0  0  0  0  0  0  0  0  0  0  0  0
    8.2863   -5.5927    0.0000 C   0  0  0  0  0  0  0  0  0  0  0  0
    9.6279   -6.2637    0.0000 N   0  0  0  0  0  0  0  0  0  0  0  0
   10.8798   -5.4374    0.0000 N   0  0  0  0  0  0  0  0  0  0  0  0
   10.7900   -3.9400    0.0000 N   0  0  0  0  0  0  0  0  0  0  0  0
    9.4485   -3.2691    0.0000 N   0  0  0  0  0  0  0  0  0  0  0  0
    8.1966   -4.0954    0.0000 N   0  0  0  0  0  0  0  0  0  0  0  0
    3.0367   -6.0474    0.0000 C   0  0  0  0  0  0  0  0  0  0  0  0
    3.3705   -4.5850    0.0000 C   0  0  0  0  0  0  0  0  0  0  0  0
    3.0367   -3.1226    0.0000 C   0  0  0  0  0  0  0  0  0  0  0  0
    2.1015   -1.9499    0.0000 C   0  0  0  0  0  0  0  0  0  0  0  0
    3.0367   -0.7771    0.0000 C   0  0  0  0  0  0  0  0  0  0  0  0
    4.5199   -1.0007    0.0000 C   0  0  0  0  0  0  0  0  0  0  0  0
    5.4552    0.1721    0.0000 C   0  0  0  0  0  0  0  0  0  0  0  0
    4.9072    1.5684    0.0000 C   0  0  0  0  0  0  0  0  0  0  0  0
    3.4239    1.7919    0.0000 C   0  0  0  0  0  0  0  0  0  0  0  0
    2.4887    0.6192    0.0000 C   0  0  0  0  0  0  0  0  0  0  0  0
    0.7500   -1.2990    0.0000 C   0  0  0  0  0  0  0  0  0  0  0  0
    1.5000    0.0000    0.0000 C   0  0  0  0  0  0  0  0  0  0  0  0
    0.7500    1.2990    0.0000 C   0  0  0  0  0  0  0  0  0  0  0  0
   -0.7500    1.2990    0.0000 C   0  0  0  0  0  0  0  0  0  0  0  0
   -1.5000    0.0000    0.0000 C   0  0  0  0  0  0  0  0  0  0  0  0
   -0.7500   -1.2990    0.0000 C   0  0  0  0  0  0  0  0  0  0  0  0
  1  2  1  0
  2  3  2  0
  3  4  1  0
  4  5  1  0
  5  6  2  0
  5  7  1  0
  7  8  1  0
  7  9  1  0
  9 10  2  0
 10 11  1  0
 11 12  2  0
 12 13  1  0
 12 14  1  0
 14 15  2  0
 15 16  1  0
 16 17  2  0
 17 18  1  0
 18 19  2  0
 19 20  1  0
 20 21  2  0
 20 22  1  0
 22 23  1  0
 23 24  2  0
 24 25  1  0
 25 26  2  0
 26 27  1  0
 27 28  2  0
 19 29  1  0
 29 30  2  0
 30 31  1  0
 31 32  2  0
 32 33  1  0
 33 34  2  0
 34 35  1  0
 35 36  2  0
 36 37  1  0
 37 38  2  0
 32 39  1  0
 39 40  2  0
 40 41  1  0
 41 42  2  0
 42 43  1  0
 43 44  2  0
 44  2  1  0
 15  9  1  0
 29 16  1  0
 38 33  1  0
 44 39  1  0
 28 23  1  0
M  END
>  <Title>  (907) 
idABGYgen6

$$$$

     RDKit          2D

 34 38  0  0  0  0  0  0  0  0999 V2000
   -3.1981   -1.5132    0.0000 C   0  0  0  0  0  0  0  0  0  0  0  0
   -1.8991   -2.2632    0.0000 C   0  0  0  0  0  0  0  0  0  0  0  0
   -2.1595   -3.7404    0.0000 C   0  0  0  0  0  0  0  0  0  0  0  0
   -1.4095   -5.0395    0.0000 C   0  0  0  0  0  0  0  0  0  0  0  0
   -0.0000   -5.5525    0.0000 C   0  0  0  0  0  0  0  0  0  0  0  0
   -0.0000   -7.0525    0.0000 N   0  0  0  0  0  0  0  0  0  0  0  0
    1.2135   -7.9342    0.0000 C   0  0  0  0  0  0  0  0  0  0  0  0
    0.7500   -9.3608    0.0000 C   0  0  0  0  0  0  0  0  0  0  0  0
   -0.7500   -9.3608    0.0000 C   0  0  0  0  0  0  0  0  0  0  0  0
   -1.6317  -10.5743    0.0000 N   0  0  0  0  0  0  0  0  0  0  0  0
   -1.1682  -12.0009    0.0000 C   0  0  0  0  0  0  0  0  0  0  0  0
   -2.3817  -12.8826    0.0000 C   0  0  0  0  0  0  0  0  0  0  0  0
   -3.5952  -12.0009    0.0000 C   0  0  0  0  0  0  0  0  0  0  0  0
   -3.1317  -10.5743    0.0000 C   0  0  0  0  0  0  0  0  0  0  0  0
   -1.2135   -7.9342    0.0000 C   0  0  0  0  0  0  0  0  0  0  0  0
    1.4095   -5.0395    0.0000 C   0  0  0  0  0  0  0  0  0  0  0  0
    2.1595   -3.7404    0.0000 C   0  0  0  0  0  0  0  0  0  0  0  0
    3.6368   -4.0009    0.0000 C   0  0  0  0  0  0  0  0  0  0  0  0
    5.1140   -4.2614    0.0000 N   0  0  0  0  0  0  0  0  0  0  0  0
    1.8991   -2.2632    0.0000 C   0  0  0  0  0  0  0  0  0  0  0  0
    3.1981   -1.5132    0.0000 N   0  0  0  0  0  0  0  0  0  0  0  0
    4.5684   -2.1233    0.0000 C   0  0  0  0  0  0  0  0  0  0  0  0
    5.5721   -1.0086    0.0000 C   0  0  0  0  0  0  0  0  0  0  0  0
    4.8221    0.2904    0.0000 C   0  0  0  0  0  0  0  0  0  0  0  0
    3.3549   -0.0214    0.0000 C   0  0  0  0  0  0  0  0  0  0  0  0
    2.2402    0.9823    0.0000 O   0  0  0  0  0  0  0  0  0  0  0  0
    0.7500   -1.2990    0.0000 C   0  0  0  0  0  0  0  0  0  0  0  0
    1.5000    0.0000    0.0000 C   0  0  0  0  0  0  0  0  0  0  0  0
    0.7500    1.2990    0.0000 C   0  0  0  0  0  0  0  0  0  0  0  0
   -0.7500    1.2990    0.0000 C   0  0  0  0  0  0  0  0  0  0  0  0
   -1.5000    2.5981    0.0000 C   0  0  0  0  0  0  0  0  0  0  0  0
   -2.2500    3.8971    0.0000 N   0  0  0  0  0  0  0  0  0  0  0  0
   -1.5000    0.0000    0.0000 C   0  0  0  0  0  0  0  0  0  0  0  0
   -0.7500   -1.2990    0.0000 C   0  0  0  0  0  0  0  0  0  0  0  0
  1  2  1  0
  2  3  2  0
  3  4  1  0
  4  5  2  0
  5  6  1  0
  6  7  1  0
  7  8  1  0
  8  9  1  0
  9 10  1  0
 10 11  1  0
 11 12  1  0
 12 13  1  0
 13 14  1  0
  9 15  1  0
  5 16  1  0
 16 17  1  0
 17 18  1  0
 18 19  3  0
 17 20  1  0
 20 21  1  0
 21 22  1  0
 22 23  1  0
 23 24  1  0
 24 25  1  0
 25 26  2  0
 20 27  1  0
 27 28  2  0
 28 29  1  0
 29 30  2  0
 30 31  1  0
 31 32  3  0
 30 33  1  0
 33 34  2  0
 34  2  1  0
 15  6  1  0
 25 21  1  0
 34 27  1  0
 14 10  1  0
M  END
>  <Title>  (908) 
idABGZgen6

$$$$

     RDKit          2D

 15 16  0  0  0  0  0  0  0  0999 V2000
    4.6740   -7.4303    0.0000 O   0  0  0  0  0  0  0  0  0  0  0  0
    3.3037   -6.8202    0.0000 C   0  0  0  0  0  0  0  0  0  0  0  0
    2.9918   -5.3529    0.0000 C   0  0  0  0  0  0  0  0  0  0  0  0
    1.5000   -5.1962    0.0000 C   0  0  0  0  0  0  0  0  0  0  0  0
    0.7500   -3.8971    0.0000 C   0  0  0  0  0  0  0  0  0  0  0  0
    1.5000   -2.5981    0.0000 C   0  0  0  0  0  0  0  0  0  0  0  0
    0.7500   -1.2990    0.0000 C   0  0  0  0  0  0  0  0  0  0  0  0
    1.5000    0.0000    0.0000 C   0  0  0  0  0  0  0  0  0  0  0  0
    0.7500    1.2990    0.0000 C   0  0  0  0  0  0  0  0  0  0  0  0
   -0.7500    1.2990    0.0000 C   0  0  0  0  0  0  0  0  0  0  0  0
   -1.5000    0.0000    0.0000 C   0  0  0  0  0  0  0  0  0  0  0  0
   -0.7500   -1.2990    0.0000 C   0  0  0  0  0  0  0  0  0  0  0  0
    0.8899   -6.5665    0.0000 C   0  0  0  0  0  0  0  0  0  0  0  0
   -0.5773   -6.8783    0.0000 O   0  0  0  0  0  0  0  0  0  0  0  0
    2.0046   -7.5702    0.0000 N   0  0  0  0  0  0  0  0  0  0  0  0
  1  2  2  0
  2  3  1  0
  3  4  1  0
  4  5  2  3
  5  6  1  0
  6  7  2  3
  7  8  1  0
  8  9  2  0
  9 10  1  0
 10 11  2  0
 11 12  1  0
  4 13  1  0
 13 14  2  0
 13 15  1  0
 15  2  1  0
 12  7  1  0
M  END
>  <Title>  (909) 
idABHAgen6

$$$$

     RDKit          2D

 29 31  0  0  0  0  0  0  0  0999 V2000
   -3.1097   -0.9884    0.0000 C   0  0  0  0  0  0  0  0  0  0  0  0
   -2.0490   -2.0490    0.0000 C   0  0  0  0  0  0  0  0  0  0  0  0
   -2.7990   -3.3481    0.0000 C   0  0  0  0  0  0  0  0  0  0  0  0
   -2.7990   -4.8481    0.0000 C   0  0  0  0  0  0  0  0  0  0  0  0
   -2.0490   -6.1471    0.0000 C   0  0  0  0  0  0  0  0  0  0  0  0
   -0.7500   -6.8971    0.0000 C   0  0  0  0  0  0  0  0  0  0  0  0
    0.7500   -6.8971    0.0000 C   0  0  0  0  0  0  0  0  0  0  0  0
    1.1382   -8.3460    0.0000 C   0  0  0  0  0  0  0  0  0  0  0  0
    2.5871   -8.7342    0.0000 O   0  0  0  0  0  0  0  0  0  0  0  0
    0.0776   -9.4067    0.0000 O   0  0  0  0  0  0  0  0  0  0  0  0
    2.0490   -6.1471    0.0000 C   0  0  0  0  0  0  0  0  0  0  0  0
    2.7990   -4.8481    0.0000 C   0  0  0  0  0  0  0  0  0  0  0  0
    2.7990   -3.3481    0.0000 C   0  0  0  0  0  0  0  0  0  0  0  0
    2.0490   -2.0490    0.0000 C   0  0  0  0  0  0  0  0  0  0  0  0
    3.1097   -0.9884    0.0000 C   0  0  0  0  0  0  0  0  0  0  0  0
    2.7215    0.4605    0.0000 O   0  0  0  0  0  0  0  0  0  0  0  0
    4.5586   -1.3766    0.0000 N   0  0  0  0  0  0  0  0  0  0  0  0
    5.6192   -0.3159    0.0000 C   0  0  0  0  0  0  0  0  0  0  0  0
    7.0681   -0.7042    0.0000 N   0  0  0  0  0  0  0  0  0  0  0  0
    8.1288    0.3565    0.0000 N   0  0  0  0  0  0  0  0  0  0  0  0
    7.7406    1.8054    0.0000 N   0  0  0  0  0  0  0  0  0  0  0  0
    6.2917    2.1936    0.0000 N   0  0  0  0  0  0  0  0  0  0  0  0
    5.2310    1.1329    0.0000 N   0  0  0  0  0  0  0  0  0  0  0  0
    0.7500   -1.2990    0.0000 C   0  0  0  0  0  0  0  0  0  0  0  0
    1.5000    0.0000    0.0000 C   0  0  0  0  0  0  0  0  0  0  0  0
    0.7500    1.2990    0.0000 C   0  0  0  0  0  0  0  0  0  0  0  0
   -0.7500    1.2990    0.0000 C   0  0  0  0  0  0  0  0  0  0  0  0
   -1.5000    0.0000    0.0000 C   0  0  0  0  0  0  0  0  0  0  0  0
   -0.7500   -1.2990    0.0000 C   0  0  0  0  0  0  0  0  0  0  0  0
  1  2  1  0
  2  3  1  0
  3  4  2  0
  4  5  1  0
  5  6  1  0
  6  7  1  0
  7  8  1  0
  8  9  2  0
  8 10  1  0
  7 11  1  0
 11 12  2  0
 12 13  1  0
 13 14  1  0
 14 15  1  0
 15 16  2  0
 15 17  1  0
 17 18  1  0
 18 19  2  0
 19 20  1  0
 20 21  2  0
 21 22  1  0
 22 23  2  0
 14 24  1  0
 24 25  2  0
 25 26  1  0
 26 27  2  0
 27 28  1  0
 28 29  2  0
 29  2  1  0
 23 18  1  0
 29 24  1  0
M  END
>  <Title>  (910) 
idABHBgen6

$$$$

     RDKit          2D

 26 29  0  0  0  0  0  0  0  0999 V2000
   -2.6401   -3.1891    0.0000 C   0  0  0  0  0  0  0  0  0  0  0  0
   -1.2135   -2.7256    0.0000 C   0  0  0  0  0  0  0  0  0  0  0  0
   -0.0000   -3.6073    0.0000 C   0  0  0  0  0  0  0  0  0  0  0  0
    1.2135   -2.7256    0.0000 C   0  0  0  0  0  0  0  0  0  0  0  0
    2.6401   -3.1891    0.0000 O   0  0  0  0  0  0  0  0  0  0  0  0
    2.9520   -4.6564    0.0000 C   0  0  0  0  0  0  0  0  0  0  0  0
    4.3223   -5.2665    0.0000 C   0  0  0  0  0  0  0  0  0  0  0  0
    4.1655   -6.7583    0.0000 C   0  0  0  0  0  0  0  0  0  0  0  0
    2.6983   -7.0701    0.0000 C   0  0  0  0  0  0  0  0  0  0  0  0
    2.0882   -8.4404    0.0000 C   0  0  0  0  0  0  0  0  0  0  0  0
    2.9699   -9.6540    0.0000 O   0  0  0  0  0  0  0  0  0  0  0  0
    0.5964   -8.5972    0.0000 N   0  0  0  0  0  0  0  0  0  0  0  0
   -0.0137   -9.9676    0.0000 C   0  0  0  0  0  0  0  0  0  0  0  0
   -1.5055  -10.1243    0.0000 N   0  0  0  0  0  0  0  0  0  0  0  0
   -2.1156  -11.4947    0.0000 N   0  0  0  0  0  0  0  0  0  0  0  0
   -1.2339  -12.7082    0.0000 N   0  0  0  0  0  0  0  0  0  0  0  0
    0.2579  -12.5514    0.0000 N   0  0  0  0  0  0  0  0  0  0  0  0
    0.8680  -11.1811    0.0000 N   0  0  0  0  0  0  0  0  0  0  0  0
    1.9483   -5.7711    0.0000 C   0  0  0  0  0  0  0  0  0  0  0  0
    0.4565   -5.6143    0.0000 O   0  0  0  0  0  0  0  0  0  0  0  0
    0.7500   -1.2990    0.0000 C   0  0  0  0  0  0  0  0  0  0  0  0
    1.5000    0.0000    0.0000 C   0  0  0  0  0  0  0  0  0  0  0  0
    0.7500    1.2990    0.0000 C   0  0  0  0  0  0  0  0  0  0  0  0
   -0.7500    1.2990    0.0000 C   0  0  0  0  0  0  0  0  0  0  0  0
   -1.5000    0.0000    0.0000 C   0  0  0  0  0  0  0  0  0  0  0  0
   -0.7500   -1.2990    0.0000 C   0  0  0  0  0  0  0  0  0  0  0  0
  1  2  1  0
  2  3  1  0
  3  4  2  0
  4  5  1  0
  5  6  1  0
  6  7  2  0
  7  8  1  0
  8  9  2  0
  9 10  1  0
 10 11  2  0
 10 12  1  0
 12 13  1  0
 13 14  2  0
 14 15  1  0
 15 16  2  0
 16 17  1  0
 17 18  2  0
  9 19  1  0
 19 20  2  0
  4 21  1  0
 21 22  2  0
 22 23  1  0
 23 24  2  0
 24 25  1  0
 25 26  2  0
 26  2  1  0
 19  6  1  0
 26 21  1  0
 18 13  1  0
M  END
>  <Title>  (911) 
idABHCgen6

$$$$

     RDKit          2D

 13 13  0  0  0  0  0  0  0  0999 V2000
    5.0260    1.2990    0.0000 C   0  0  0  0  0  0  0  0  0  0  0  0
    3.5260    1.2990    0.0000 C   0  0  0  0  0  0  0  0  0  0  0  0
    2.7760    2.5981    0.0000 O   0  0  0  0  0  0  0  0  0  0  0  0
    2.7760    0.0000    0.0000 N   0  0  0  0  0  0  0  0  0  0  0  0
    1.2760    0.0000    0.0000 C   0  0  0  0  0  0  0  0  0  0  0  0
    0.3943    1.2135    0.0000 C   0  0  0  0  0  0  0  0  0  0  0  0
   -1.0323    0.7500    0.0000 C   0  0  0  0  0  0  0  0  0  0  0  0
   -1.0323   -0.7500    0.0000 C   0  0  0  0  0  0  0  0  0  0  0  0
   -2.2458   -1.6317    0.0000 C   0  0  0  0  0  0  0  0  0  0  0  0
   -2.0890   -3.1235    0.0000 O   0  0  0  0  0  0  0  0  0  0  0  0
   -3.6161   -1.0216    0.0000 O   0  0  0  0  0  0  0  0  0  0  0  0
    0.3943   -1.2135    0.0000 C   0  0  0  0  0  0  0  0  0  0  0  0
    0.8578   -2.6401    0.0000 C   0  0  0  0  0  0  0  0  0  0  0  0
  1  2  1  0
  2  3  2  0
  2  4  1  0
  4  5  1  0
  5  6  2  0
  6  7  1  0
  7  8  2  0
  8  9  1  0
  9 10  2  0
  9 11  1  0
  8 12  1  0
 12 13  1  0
 12  5  1  0
M  END
>  <Title>  (912) 
idABHDgen6

$$$$

     RDKit          2D

 62 71  0  0  0  0  0  0  0  0999 V2000
    5.1820  -11.5735    0.0000 C   0  0  0  0  0  0  0  0  0  0  0  0
    5.9320  -10.2745    0.0000 C   0  0  0  0  0  0  0  0  0  0  0  0
    6.3622   -8.8375    0.0000 C   0  0  0  0  0  0  0  0  0  0  0  0
    6.4494   -7.3401    0.0000 C   0  0  0  0  0  0  0  0  0  0  0  0
    6.1889   -5.8629    0.0000 C   0  0  0  0  0  0  0  0  0  0  0  0
    5.5948   -4.4855    0.0000 C   0  0  0  0  0  0  0  0  0  0  0  0
    7.0847   -4.3114    0.0000 C   0  0  0  0  0  0  0  0  0  0  0  0
    7.6788   -2.9341    0.0000 C   0  0  0  0  0  0  0  0  0  0  0  0
    6.7831   -1.7309    0.0000 C   0  0  0  0  0  0  0  0  0  0  0  0
    5.2932   -1.9050    0.0000 C   0  0  0  0  0  0  0  0  0  0  0  0
    4.3975   -0.7018    0.0000 C   0  0  0  0  0  0  0  0  0  0  0  0
    2.9076   -0.8760    0.0000 N   0  0  0  0  0  0  0  0  0  0  0  0
    2.0119    0.3272    0.0000 N   0  0  0  0  0  0  0  0  0  0  0  0
    2.6060    1.7045    0.0000 N   0  0  0  0  0  0  0  0  0  0  0  0
    4.0958    1.8787    0.0000 N   0  0  0  0  0  0  0  0  0  0  0  0
    4.9916    0.6755    0.0000 N   0  0  0  0  0  0  0  0  0  0  0  0
    4.6991   -3.2823    0.0000 C   0  0  0  0  0  0  0  0  0  0  0  0
    3.5500   -2.3182    0.0000 C   0  0  0  0  0  0  0  0  0  0  0  0
    3.4628   -0.8207    0.0000 C   0  0  0  0  0  0  0  0  0  0  0  0
    2.2096   -1.6450    0.0000 C   0  0  0  0  0  0  0  0  0  0  0  0
    0.7500   -1.2990    0.0000 C   0  0  0  0  0  0  0  0  0  0  0  0
    1.5000    0.0000    0.0000 C   0  0  0  0  0  0  0  0  0  0  0  0
    0.7500    1.2990    0.0000 C   0  0  0  0  0  0  0  0  0  0  0  0
   -0.7500    1.2990    0.0000 C   0  0  0  0  0  0  0  0  0  0  0  0
   -1.5000    0.0000    0.0000 C   0  0  0  0  0  0  0  0  0  0  0  0
   -0.7500   -1.2990    0.0000 C   0  0  0  0  0  0  0  0  0  0  0  0
   -2.2096   -1.6450    0.0000 C   0  0  0  0  0  0  0  0  0  0  0  0
   -2.1224   -0.1475    0.0000 C   0  0  0  0  0  0  0  0  0  0  0  0
   -3.3756    0.6768    0.0000 C   0  0  0  0  0  0  0  0  0  0  0  0
   -4.7160    0.0036    0.0000 C   0  0  0  0  0  0  0  0  0  0  0  0
   -4.8032   -1.4939    0.0000 C   0  0  0  0  0  0  0  0  0  0  0  0
   -3.5500   -2.3182    0.0000 C   0  0  0  0  0  0  0  0  0  0  0  0
   -4.6991   -3.2823    0.0000 C   0  0  0  0  0  0  0  0  0  0  0  0
   -5.2932   -1.9050    0.0000 C   0  0  0  0  0  0  0  0  0  0  0  0
   -6.7831   -1.7309    0.0000 C   0  0  0  0  0  0  0  0  0  0  0  0
   -7.6788   -2.9341    0.0000 C   0  0  0  0  0  0  0  0  0  0  0  0
   -7.0847   -4.3114    0.0000 C   0  0  0  0  0  0  0  0  0  0  0  0
   -5.5948   -4.4855    0.0000 C   0  0  0  0  0  0  0  0  0  0  0  0
   -6.1889   -5.8629    0.0000 C   0  0  0  0  0  0  0  0  0  0  0  0
   -7.3380   -4.8987    0.0000 C   0  0  0  0  0  0  0  0  0  0  0  0
   -8.7475   -5.4117    0.0000 C   0  0  0  0  0  0  0  0  0  0  0  0
   -9.0080   -6.8889    0.0000 C   0  0  0  0  0  0  0  0  0  0  0  0
   -7.8590   -7.8531    0.0000 C   0  0  0  0  0  0  0  0  0  0  0  0
   -6.4494   -7.3401    0.0000 C   0  0  0  0  0  0  0  0  0  0  0  0
   -6.3622   -8.8375    0.0000 C   0  0  0  0  0  0  0  0  0  0  0  0
   -7.8218   -8.4916    0.0000 C   0  0  0  0  0  0  0  0  0  0  0  0
   -8.8511   -9.5827    0.0000 C   0  0  0  0  0  0  0  0  0  0  0  0
   -8.4209  -11.0196    0.0000 C   0  0  0  0  0  0  0  0  0  0  0  0
   -6.9614  -11.3656    0.0000 C   0  0  0  0  0  0  0  0  0  0  0  0
   -5.9320  -10.2745    0.0000 C   0  0  0  0  0  0  0  0  0  0  0  0
   -5.1820  -11.5735    0.0000 C   0  0  0  0  0  0  0  0  0  0  0  0
   -6.6416  -11.9195    0.0000 C   0  0  0  0  0  0  0  0  0  0  0  0
   -7.0718  -13.3565    0.0000 C   0  0  0  0  0  0  0  0  0  0  0  0
   -6.0424  -14.4475    0.0000 C   0  0  0  0  0  0  0  0  0  0  0  0
   -4.5828  -14.1016    0.0000 C   0  0  0  0  0  0  0  0  0  0  0  0
   -4.1526  -12.6646    0.0000 C   0  0  0  0  0  0  0  0  0  0  0  0
   -2.8994  -13.4889    0.0000 C   0  0  0  0  0  0  0  0  0  0  0  0
   -1.4899  -14.0019    0.0000 C   0  0  0  0  0  0  0  0  0  0  0  0
   -0.0000  -14.1760    0.0000 C   0  0  0  0  0  0  0  0  0  0  0  0
    1.4899  -14.0019    0.0000 C   0  0  0  0  0  0  0  0  0  0  0  0
    2.8994  -13.4889    0.0000 C   0  0  0  0  0  0  0  0  0  0  0  0
    4.1526  -12.6646    0.0000 C   0  0  0  0  0  0  0  0  0  0  0  0
  1  2  2  0
  2  3  1  0
  3  4  2  0
  4  5  1  0
  5  6  2  0
  6  7  1  0
  7  8  1  0
  8  9  1  0
  9 10  1  0
 10 11  1  0
 11 12  2  0
 12 13  1  0
 13 14  2  0
 14 15  1  0
 15 16  2  0
 10 17  1  0
 17 18  1  0
 18 19  1  0
 19 20  1  0
 20 21  1  0
 21 22  2  0
 22 23  1  0
 23 24  2  0
 24 25  1  0
 25 26  2  0
 26 27  1  0
 27 28  2  0
 28 29  1  0
 29 30  2  0
 30 31  1  0
 31 32  2  0
 32 33  1  0
 33 34  2  0
 34 35  1  0
 35 36  2  0
 36 37  1  0
 37 38  2  0
 38 39  1  0
 39 40  2  0
 40 41  1  0
 41 42  2  0
 42 43  1  0
 43 44  2  0
 44 45  1  0
 45 46  2  0
 46 47  1  0
 47 48  2  0
 48 49  1  0
 49 50  2  0
 50 51  1  0
 51 52  2  0
 52 53  1  0
 53 54  2  0
 54 55  1  0
 55 56  2  0
 56 57  1  0
 57 58  1  0
 58 59  1  0
 59 60  2  0
 60 61  1  0
 61 62  2  0
 62  1  1  0
 17  6  1  0
 20 18  1  0
 26 21  1  0
 32 27  1  0
 38 33  1  0
 44 39  1  0
 50 45  1  0
 56 51  1  0
 16 11  1  0
M  END
>  <Title>  (913) 
idABHEgen6

$$$$

     RDKit          2D

 15 15  0  0  0  0  0  0  0  0999 V2000
    6.0000   -2.5981    0.0000 C   0  0  0  0  0  0  0  0  0  0  0  0
    5.2500   -1.2990    0.0000 C   0  0  0  0  0  0  0  0  0  0  0  0
    6.0000    0.0000    0.0000 O   0  0  0  0  0  0  0  0  0  0  0  0
    3.7500   -1.2990    0.0000 C   0  0  0  0  0  0  0  0  0  0  0  0
    3.0000    0.0000    0.0000 C   0  0  0  0  0  0  0  0  0  0  0  0
    1.5000    0.0000    0.0000 C   0  0  0  0  0  0  0  0  0  0  0  0
    0.7500   -1.2990    0.0000 C   0  0  0  0  0  0  0  0  0  0  0  0
   -0.7500   -1.2990    0.0000 C   0  0  0  0  0  0  0  0  0  0  0  0
   -1.5000    0.0000    0.0000 C   0  0  0  0  0  0  0  0  0  0  0  0
   -0.7500    1.2990    0.0000 C   0  0  0  0  0  0  0  0  0  0  0  0
   -1.5000    2.5981    0.0000 O   0  0  0  0  0  0  0  0  0  0  0  0
    0.7500    1.2990    0.0000 C   0  0  0  0  0  0  0  0  0  0  0  0
    3.0000   -2.5981    0.0000 N   0  0  0  0  0  0  0  0  0  0  0  0
    3.7500   -3.8971    0.0000 C   0  0  0  0  0  0  0  0  0  0  0  0
    4.5000   -5.1962    0.0000 N   0  0  0  0  0  0  0  0  0  0  0  0
  1  2  1  0
  2  3  2  0
  2  4  1  0
  4  5  1  0
  5  6  1  0
  6  7  2  0
  7  8  1  0
  8  9  2  0
  9 10  1  0
 10 11  1  0
 10 12  1  0
  4 13  1  0
 13 14  1  0
 14 15  3  0
 12  6  1  0
M  END
>  <Title>  (914) 
idABHFgen6

$$$$

     RDKit          2D

 22 24  0  0  0  0  0  0  0  0999 V2000
   -3.0000   -2.5981    0.0000 C   0  0  0  0  0  0  0  0  0  0  0  0
   -1.5000   -2.5981    0.0000 C   0  0  0  0  0  0  0  0  0  0  0  0
   -0.7500   -3.8971    0.0000 C   0  0  0  0  0  0  0  0  0  0  0  0
    0.7500   -3.8971    0.0000 C   0  0  0  0  0  0  0  0  0  0  0  0
    1.5000   -2.5981    0.0000 C   0  0  0  0  0  0  0  0  0  0  0  0
    3.0000   -2.5981    0.0000 C   0  0  0  0  0  0  0  0  0  0  0  0
    3.7500   -1.2990    0.0000 O   0  0  0  0  0  0  0  0  0  0  0  0
    3.7500   -3.8971    0.0000 N   0  0  0  0  0  0  0  0  0  0  0  0
    5.2500   -3.8971    0.0000 C   0  0  0  0  0  0  0  0  0  0  0  0
    6.0000   -5.1962    0.0000 N   0  0  0  0  0  0  0  0  0  0  0  0
    7.5000   -5.1962    0.0000 N   0  0  0  0  0  0  0  0  0  0  0  0
    8.2500   -3.8971    0.0000 N   0  0  0  0  0  0  0  0  0  0  0  0
    7.5000   -2.5981    0.0000 N   0  0  0  0  0  0  0  0  0  0  0  0
    6.0000   -2.5981    0.0000 N   0  0  0  0  0  0  0  0  0  0  0  0
    0.7500   -1.2990    0.0000 C   0  0  0  0  0  0  0  0  0  0  0  0
    1.5000    0.0000    0.0000 C   0  0  0  0  0  0  0  0  0  0  0  0
    0.7500    1.2990    0.0000 C   0  0  0  0  0  0  0  0  0  0  0  0
   -0.7500    1.2990    0.0000 C   0  0  0  0  0  0  0  0  0  0  0  0
   -1.5000    2.5981    0.0000 C   0  0  0  0  0  0  0  0  0  0  0  0
   -2.2500    3.8971    0.0000 N   0  0  0  0  0  0  0  0  0  0  0  0
   -1.5000    0.0000    0.0000 C   0  0  0  0  0  0  0  0  0  0  0  0
   -0.7500   -1.2990    0.0000 C   0  0  0  0  0  0  0  0  0  0  0  0
  1  2  1  0
  2  3  2  0
  3  4  1  0
  4  5  2  0
  5  6  1  0
  6  7  2  0
  6  8  1  0
  8  9  1  0
  9 10  2  0
 10 11  1  0
 11 12  2  0
 12 13  1  0
 13 14  2  0
  5 15  1  0
 15 16  2  0
 16 17  1  0
 17 18  2  0
 18 19  1  0
 19 20  3  0
 18 21  1  0
 21 22  2  0
 22  2  1  0
 14  9  1  0
 22 15  1  0
M  END
>  <Title>  (915) 
idABHGgen6

$$$$

     RDKit          2D

 16 16  0  0  0  0  0  0  0  0999 V2000
    3.8444    0.0000    0.0000 C   0  0  0  0  0  0  0  0  0  0  0  0
    3.5517   -1.4712    0.0000 C   0  0  0  0  0  0  0  0  0  0  0  0
    2.7184   -2.7184    0.0000 C   0  0  0  0  0  0  0  0  0  0  0  0
    1.4712   -3.5517    0.0000 C   0  0  0  0  0  0  0  0  0  0  0  0
   -0.0000   -3.8444    0.0000 C   0  0  0  0  0  0  0  0  0  0  0  0
   -1.4712   -3.5517    0.0000 C   0  0  0  0  0  0  0  0  0  0  0  0
   -2.7184   -2.7184    0.0000 C   0  0  0  0  0  0  0  0  0  0  0  0
   -3.5517   -1.4712    0.0000 C   0  0  0  0  0  0  0  0  0  0  0  0
   -3.8444    0.0000    0.0000 N   0  0  0  0  0  0  0  0  0  0  0  0
   -3.5517    1.4712    0.0000 C   0  0  0  0  0  0  0  0  0  0  0  0
   -2.7184    2.7184    0.0000 C   0  0  0  0  0  0  0  0  0  0  0  0
   -1.4712    3.5517    0.0000 C   0  0  0  0  0  0  0  0  0  0  0  0
    0.0000    3.8444    0.0000 C   0  0  0  0  0  0  0  0  0  0  0  0
    1.4712    3.5517    0.0000 C   0  0  0  0  0  0  0  0  0  0  0  0
    2.7184    2.7184    0.0000 C   0  0  0  0  0  0  0  0  0  0  0  0
    3.5517    1.4712    0.0000 C   0  0  0  0  0  0  0  0  0  0  0  0
  1  2  1  0
  2  3  1  0
  3  4  1  0
  4  5  1  0
  5  6  1  0
  6  7  1  0
  7  8  1  0
  8  9  1  0
  9 10  1  0
 10 11  1  0
 11 12  1  0
 12 13  1  0
 13 14  1  0
 14 15  1  0
 15 16  1  0
 16  1  1  0
M  END
>  <Title>  (916) 
idABHHgen6

$$$$

     RDKit          2D

 26 28  0  0  0  0  0  0  0  0999 V2000
    3.0000    0.0000    0.0000 C   0  0  0  0  0  0  0  0  0  0  0  0
    1.5000    0.0000    0.0000 C   0  0  0  0  0  0  0  0  0  0  0  0
    0.7500   -1.2990    0.0000 C   0  0  0  0  0  0  0  0  0  0  0  0
   -0.7500   -1.2990    0.0000 C   0  0  0  0  0  0  0  0  0  0  0  0
   -1.5000   -2.5981    0.0000 O   0  0  0  0  0  0  0  0  0  0  0  0
   -3.0000   -2.5981    0.0000 C   0  0  0  0  0  0  0  0  0  0  0  0
   -3.7500   -3.8971    0.0000 C   0  0  0  0  0  0  0  0  0  0  0  0
   -3.1399   -5.2674    0.0000 C   0  0  0  0  0  0  0  0  0  0  0  0
   -4.2546   -6.2711    0.0000 C   0  0  0  0  0  0  0  0  0  0  0  0
   -5.5537   -5.5211    0.0000 C   0  0  0  0  0  0  0  0  0  0  0  0
   -6.9240   -6.1312    0.0000 O   0  0  0  0  0  0  0  0  0  0  0  0
   -8.1375   -5.2496    0.0000 C   0  0  0  0  0  0  0  0  0  0  0  0
   -7.9807   -3.7578    0.0000 O   0  0  0  0  0  0  0  0  0  0  0  0
   -9.5078   -5.8597    0.0000 N   0  0  0  0  0  0  0  0  0  0  0  0
  -10.7213   -4.9780    0.0000 C   0  0  0  0  0  0  0  0  0  0  0  0
  -10.5645   -3.4862    0.0000 N   0  0  0  0  0  0  0  0  0  0  0  0
  -11.7781   -2.6045    0.0000 N   0  0  0  0  0  0  0  0  0  0  0  0
  -13.1484   -3.2146    0.0000 N   0  0  0  0  0  0  0  0  0  0  0  0
  -13.3052   -4.7064    0.0000 N   0  0  0  0  0  0  0  0  0  0  0  0
  -12.0917   -5.5881    0.0000 N   0  0  0  0  0  0  0  0  0  0  0  0
   -5.2418   -4.0539    0.0000 C   0  0  0  0  0  0  0  0  0  0  0  0
   -6.2455   -2.9392    0.0000 O   0  0  0  0  0  0  0  0  0  0  0  0
   -1.5000    0.0000    0.0000 C   0  0  0  0  0  0  0  0  0  0  0  0
   -0.7500    1.2990    0.0000 C   0  0  0  0  0  0  0  0  0  0  0  0
    0.7500    1.2990    0.0000 C   0  0  0  0  0  0  0  0  0  0  0  0
    1.5000    2.5981    0.0000 C   0  0  0  0  0  0  0  0  0  0  0  0
  1  2  1  0
  2  3  2  0
  3  4  1  0
  4  5  1  0
  5  6  1  0
  6  7  1  0
  7  8  2  0
  8  9  1  0
  9 10  2  0
 10 11  1  0
 11 12  1  0
 12 13  2  0
 12 14  1  0
 14 15  1  0
 15 16  2  0
 16 17  1  0
 17 18  2  0
 18 19  1  0
 19 20  2  0
 10 21  1  0
 21 22  2  0
  4 23  1  0
 23 24  1  0
 24 25  1  0
 25 26  1  0
 25  2  1  0
 21  7  1  0
 20 15  1  0
M  END
>  <Title>  (917) 
idABHIgen6

$$$$

     RDKit          2D

 16 18  0  0  0  0  0  0  0  0999 V2000
   -4.1679   -3.2376    0.0000 C   0  0  0  0  0  0  0  0  0  0  0  0
   -3.1476   -2.1380    0.0000 O   0  0  0  0  0  0  0  0  0  0  0  0
   -1.6852   -2.4718    0.0000 C   0  0  0  0  0  0  0  0  0  0  0  0
   -1.3515   -3.9342    0.0000 C   0  0  0  0  0  0  0  0  0  0  0  0
   -0.0000   -4.5850    0.0000 C   0  0  0  0  0  0  0  0  0  0  0  0
    1.3515   -3.9342    0.0000 C   0  0  0  0  0  0  0  0  0  0  0  0
    2.8138   -4.2680    0.0000 N   0  0  0  0  0  0  0  0  0  0  0  0
    3.1476   -2.8056    0.0000 C   0  0  0  0  0  0  0  0  0  0  0  0
    4.4177   -2.0075    0.0000 O   0  0  0  0  0  0  0  0  0  0  0  0
    1.6852   -2.4718    0.0000 C   0  0  0  0  0  0  0  0  0  0  0  0
    0.7500   -1.2990    0.0000 C   0  0  0  0  0  0  0  0  0  0  0  0
    1.5000    0.0000    0.0000 C   0  0  0  0  0  0  0  0  0  0  0  0
    0.7500    1.2990    0.0000 C   0  0  0  0  0  0  0  0  0  0  0  0
   -0.7500    1.2990    0.0000 C   0  0  0  0  0  0  0  0  0  0  0  0
   -1.5000    0.0000    0.0000 C   0  0  0  0  0  0  0  0  0  0  0  0
   -0.7500   -1.2990    0.0000 C   0  0  0  0  0  0  0  0  0  0  0  0
  1  2  1  0
  2  3  1  0
  3  4  2  0
  4  5  1  0
  5  6  2  0
  6  7  1  0
  7  8  1  0
  8  9  2  0
  8 10  1  0
 10 11  1  0
 11 12  2  0
 12 13  1  0
 13 14  2  0
 14 15  1  0
 15 16  2  0
 16  3  1  0
 10  6  1  0
 16 11  1  0
M  END
>  <Title>  (918) 
idABHJgen6

$$$$

     RDKit          2D

  7  7  0  0  0  0  0  0  0  0999 V2000
    2.7760    0.0000    0.0000 C   0  0  0  0  0  0  0  0  0  0  0  0
    1.2760    0.0000    0.0000 C   0  0  0  0  0  0  0  0  0  0  0  0
    0.3943    1.2135    0.0000 C   0  0  0  0  0  0  0  0  0  0  0  0
   -1.0323    0.7500    0.0000 C   0  0  0  0  0  0  0  0  0  0  0  0
   -1.0323   -0.7500    0.0000 C   0  0  0  0  0  0  0  0  0  0  0  0
   -2.2458   -1.6317    0.0000 O   0  0  0  0  0  0  0  0  0  0  0  0
    0.3943   -1.2135    0.0000 C   0  0  0  0  0  0  0  0  0  0  0  0
  1  2  1  0
  2  3  2  0
  3  4  1  0
  4  5  2  0
  5  6  1  0
  5  7  1  0
  7  2  1  0
M  END
>  <Title>  (919) 
idABHKgen6

$$$$

     RDKit          2D

 26 27  0  0  0  0  0  0  0  0999 V2000
    3.7500   -6.4952    0.0000 C   0  0  0  0  0  0  0  0  0  0  0  0
    3.0000   -5.1962    0.0000 C   0  0  0  0  0  0  0  0  0  0  0  0
    3.7500   -3.8971    0.0000 O   0  0  0  0  0  0  0  0  0  0  0  0
    1.5000   -5.1962    0.0000 C   0  0  0  0  0  0  0  0  0  0  0  0
    0.7500   -6.4952    0.0000 O   0  0  0  0  0  0  0  0  0  0  0  0
    0.7500   -3.8971    0.0000 C   0  0  0  0  0  0  0  0  0  0  0  0
    1.5000   -2.5981    0.0000 C   0  0  0  0  0  0  0  0  0  0  0  0
    0.7500   -1.2990    0.0000 C   0  0  0  0  0  0  0  0  0  0  0  0
    1.5000    0.0000    0.0000 C   0  0  0  0  0  0  0  0  0  0  0  0
    0.7500    1.2990    0.0000 C   0  0  0  0  0  0  0  0  0  0  0  0
   -0.7500    1.2990    0.0000 C   0  0  0  0  0  0  0  0  0  0  0  0
   -1.5000    0.0000    0.0000 C   0  0  0  0  0  0  0  0  0  0  0  0
   -0.7500   -1.2990    0.0000 C   0  0  0  0  0  0  0  0  0  0  0  0
   -0.7500   -3.8971    0.0000 N   0  0  0  0  0  0  0  0  0  0  0  0
   -1.5000   -5.1962    0.0000 C   0  0  0  0  0  0  0  0  0  0  0  0
   -0.7500   -6.4952    0.0000 O   0  0  0  0  0  0  0  0  0  0  0  0
   -3.0000   -5.1962    0.0000 C   0  0  0  0  0  0  0  0  0  0  0  0
   -3.7500   -6.4952    0.0000 N   0  0  0  0  0  0  0  0  0  0  0  0
   -3.1399   -7.8655    0.0000 C   0  0  0  0  0  0  0  0  0  0  0  0
   -4.2546   -8.8692    0.0000 C   0  0  0  0  0  0  0  0  0  0  0  0
   -5.5537   -8.1192    0.0000 C   0  0  0  0  0  0  0  0  0  0  0  0
   -6.9240   -8.7293    0.0000 C   0  0  0  0  0  0  0  0  0  0  0  0
   -7.0808  -10.2211    0.0000 O   0  0  0  0  0  0  0  0  0  0  0  0
   -8.1375   -7.8476    0.0000 O   0  0  0  0  0  0  0  0  0  0  0  0
   -5.2418   -6.6520    0.0000 C   0  0  0  0  0  0  0  0  0  0  0  0
   -6.2455   -5.5373    0.0000 O   0  0  0  0  0  0  0  0  0  0  0  0
  1  2  1  0
  2  3  2  0
  2  4  1  0
  4  5  2  0
  4  6  1  0
  6  7  1  0
  7  8  1  0
  8  9  2  0
  9 10  1  0
 10 11  2  0
 11 12  1  0
 12 13  2  0
  6 14  1  0
 14 15  1  0
 15 16  2  0
 15 17  1  0
 17 18  1  0
 18 19  1  0
 19 20  1  0
 20 21  1  0
 21 22  1  0
 22 23  2  0
 22 24  1  0
 21 25  1  0
 25 26  2  0
 13  8  1  0
 25 18  1  0
M  END
>  <Title>  (920) 
idABHLgen6

$$$$

     RDKit          2D

 25 28  0  0  0  0  0  0  0  0999 V2000
   -2.7168    4.4344    0.0000 C   0  0  0  0  0  0  0  0  0  0  0  0
   -3.0287    2.9672    0.0000 C   0  0  0  0  0  0  0  0  0  0  0  0
   -4.4553    2.5037    0.0000 C   0  0  0  0  0  0  0  0  0  0  0  0
   -4.7671    1.0365    0.0000 O   0  0  0  0  0  0  0  0  0  0  0  0
   -5.5700    3.5074    0.0000 N   0  0  0  0  0  0  0  0  0  0  0  0
   -6.9966    3.0439    0.0000 C   0  0  0  0  0  0  0  0  0  0  0  0
   -8.1113    4.0476    0.0000 C   0  0  0  0  0  0  0  0  0  0  0  0
   -9.5379    3.5840    0.0000 C   0  0  0  0  0  0  0  0  0  0  0  0
   -9.8497    2.1168    0.0000 C   0  0  0  0  0  0  0  0  0  0  0  0
   -8.7350    1.1131    0.0000 C   0  0  0  0  0  0  0  0  0  0  0  0
   -7.3084    1.5766    0.0000 C   0  0  0  0  0  0  0  0  0  0  0  0
   -1.9140    1.9635    0.0000 C   0  0  0  0  0  0  0  0  0  0  0  0
   -3.0287    0.9598    0.0000 C   0  0  0  0  0  0  0  0  0  0  0  0
   -1.0323    3.1771    0.0000 C   0  0  0  0  0  0  0  0  0  0  0  0
    0.3943    2.7135    0.0000 N   0  0  0  0  0  0  0  0  0  0  0  0
    1.6078    3.5952    0.0000 C   0  0  0  0  0  0  0  0  0  0  0  0
    1.6078    5.0952    0.0000 N   0  0  0  0  0  0  0  0  0  0  0  0
    3.0344    5.5587    0.0000 N   0  0  0  0  0  0  0  0  0  0  0  0
    3.9161    4.3452    0.0000 N   0  0  0  0  0  0  0  0  0  0  0  0
    3.0344    3.1317    0.0000 N   0  0  0  0  0  0  0  0  0  0  0  0
    0.3943    1.2135    0.0000 C   0  0  0  0  0  0  0  0  0  0  0  0
    1.2760    0.0000    0.0000 C   0  0  0  0  0  0  0  0  0  0  0  0
    0.3943   -1.2135    0.0000 C   0  0  0  0  0  0  0  0  0  0  0  0
   -1.0323   -0.7500    0.0000 C   0  0  0  0  0  0  0  0  0  0  0  0
   -1.0323    0.7500    0.0000 C   0  0  0  0  0  0  0  0  0  0  0  0
  1  2  1  0
  2  3  1  0
  3  4  2  0
  3  5  1  0
  5  6  1  0
  6  7  2  0
  7  8  1  0
  8  9  2  0
  9 10  1  0
 10 11  2  0
  2 12  1  0
 12 13  1  0
 12 14  1  0
 14 15  1  0
 15 16  1  0
 16 17  2  0
 17 18  1  0
 18 19  2  0
 19 20  1  0
 15 21  1  0
 21 22  1  0
 22 23  1  0
 23 24  1  0
 24 25  2  0
 11  6  1  0
 25 12  1  0
 20 16  1  0
 25 21  1  0
M  END
>  <Title>  (921) 
idABHMgen6

$$$$

     RDKit          2D

 15 16  0  0  0  0  0  0  0  0999 V2000
    2.5607   -9.6313    0.0000 C   0  0  0  0  0  0  0  0  0  0  0  0
    3.3107   -8.3323    0.0000 O   0  0  0  0  0  0  0  0  0  0  0  0
    2.5607   -7.0333    0.0000 C   0  0  0  0  0  0  0  0  0  0  0  0
    1.1118   -6.6450    0.0000 C   0  0  0  0  0  0  0  0  0  0  0  0
    1.5000   -5.1962    0.0000 C   0  0  0  0  0  0  0  0  0  0  0  0
    0.7500   -3.8971    0.0000 C   0  0  0  0  0  0  0  0  0  0  0  0
   -0.7500   -3.8971    0.0000 O   0  0  0  0  0  0  0  0  0  0  0  0
    1.5000   -2.5981    0.0000 O   0  0  0  0  0  0  0  0  0  0  0  0
    0.7500   -1.2990    0.0000 C   0  0  0  0  0  0  0  0  0  0  0  0
    1.5000    0.0000    0.0000 N   0  0  0  0  0  0  0  0  0  0  0  0
    0.7500    1.2990    0.0000 N   0  0  0  0  0  0  0  0  0  0  0  0
   -0.7500    1.2990    0.0000 N   0  0  0  0  0  0  0  0  0  0  0  0
   -1.5000    0.0000    0.0000 N   0  0  0  0  0  0  0  0  0  0  0  0
   -0.7500   -1.2990    0.0000 N   0  0  0  0  0  0  0  0  0  0  0  0
    2.9489   -5.5844    0.0000 C   0  0  0  0  0  0  0  0  0  0  0  0
  1  2  1  0
  2  3  1  0
  3  4  2  0
  4  5  1  0
  5  6  1  0
  6  7  2  0
  6  8  1  0
  8  9  1  0
  9 10  2  0
 10 11  1  0
 11 12  2  0
 12 13  1  0
 13 14  2  0
  5 15  1  0
 15  3  1  0
 14  9  1  0
M  END
>  <Title>  (922) 
idABHNgen6

$$$$

     RDKit          2D

 20 22  0  0  0  0  0  0  0  0999 V2000
   -2.6401   -3.1891    0.0000 C   0  0  0  0  0  0  0  0  0  0  0  0
   -1.2135   -2.7256    0.0000 C   0  0  0  0  0  0  0  0  0  0  0  0
   -0.0000   -3.6073    0.0000 C   0  0  0  0  0  0  0  0  0  0  0  0
    1.2135   -2.7256    0.0000 C   0  0  0  0  0  0  0  0  0  0  0  0
    2.6401   -3.1891    0.0000 C   0  0  0  0  0  0  0  0  0  0  0  0
    3.7548   -2.1855    0.0000 O   0  0  0  0  0  0  0  0  0  0  0  0
    2.9520   -4.6564    0.0000 N   0  0  0  0  0  0  0  0  0  0  0  0
    4.3786   -5.1199    0.0000 C   0  0  0  0  0  0  0  0  0  0  0  0
    4.6904   -6.5871    0.0000 N   0  0  0  0  0  0  0  0  0  0  0  0
    6.1170   -7.0506    0.0000 N   0  0  0  0  0  0  0  0  0  0  0  0
    7.2317   -6.0469    0.0000 N   0  0  0  0  0  0  0  0  0  0  0  0
    6.9199   -4.5797    0.0000 N   0  0  0  0  0  0  0  0  0  0  0  0
    5.4933   -4.1162    0.0000 N   0  0  0  0  0  0  0  0  0  0  0  0
    0.7500   -1.2990    0.0000 C   0  0  0  0  0  0  0  0  0  0  0  0
    1.5000    0.0000    0.0000 C   0  0  0  0  0  0  0  0  0  0  0  0
    0.7500    1.2990    0.0000 C   0  0  0  0  0  0  0  0  0  0  0  0
   -0.7500    1.2990    0.0000 C   0  0  0  0  0  0  0  0  0  0  0  0
   -1.5000    2.5981    0.0000 O   0  0  0  0  0  0  0  0  0  0  0  0
   -1.5000    0.0000    0.0000 C   0  0  0  0  0  0  0  0  0  0  0  0
   -0.7500   -1.2990    0.0000 C   0  0  0  0  0  0  0  0  0  0  0  0
  1  2  1  0
  2  3  1  0
  3  4  1  0
  4  5  1  0
  5  6  2  0
  5  7  1  0
  7  8  1  0
  8  9  2  0
  9 10  1  0
 10 11  2  0
 11 12  1  0
 12 13  2  0
  4 14  1  0
 14 15  2  0
 15 16  1  0
 16 17  2  0
 17 18  1  0
 17 19  1  0
 19 20  2  0
 20  2  1  0
 13  8  1  0
 20 14  1  0
M  END
>  <Title>  (923) 
idABHOgen6

$$$$

     RDKit          2D

 37 41  0  0  0  0  0  0  0  0999 V2000
   -6.4744   11.6956    0.0000 C   0  0  0  0  0  0  0  0  0  0  0  0
   -5.4058   10.6429    0.0000 C   0  0  0  0  0  0  0  0  0  0  0  0
   -3.9599   11.0419    0.0000 C   0  0  0  0  0  0  0  0  0  0  0  0
   -2.8913    9.9892    0.0000 C   0  0  0  0  0  0  0  0  0  0  0  0
   -3.2687    8.5375    0.0000 C   0  0  0  0  0  0  0  0  0  0  0  0
   -2.2001    7.4848    0.0000 C   0  0  0  0  0  0  0  0  0  0  0  0
   -0.7542    7.8839    0.0000 C   0  0  0  0  0  0  0  0  0  0  0  0
   -0.3768    9.3356    0.0000 O   0  0  0  0  0  0  0  0  0  0  0  0
    0.3144    6.8312    0.0000 N   0  0  0  0  0  0  0  0  0  0  0  0
    1.7603    7.2302    0.0000 C   0  0  0  0  0  0  0  0  0  0  0  0
    2.2874    8.6346    0.0000 N   0  0  0  0  0  0  0  0  0  0  0  0
    3.7859    8.5673    0.0000 N   0  0  0  0  0  0  0  0  0  0  0  0
    4.1849    7.1213    0.0000 N   0  0  0  0  0  0  0  0  0  0  0  0
    2.9331    6.2950    0.0000 N   0  0  0  0  0  0  0  0  0  0  0  0
    2.8658    4.7965    0.0000 C   0  0  0  0  0  0  0  0  0  0  0  0
    4.0385    3.8613    0.0000 C   0  0  0  0  0  0  0  0  0  0  0  0
    3.5115    2.4569    0.0000 C   0  0  0  0  0  0  0  0  0  0  0  0
    2.0130    2.5242    0.0000 C   0  0  0  0  0  0  0  0  0  0  0  0
    1.0777    1.3515    0.0000 N   0  0  0  0  0  0  0  0  0  0  0  0
    1.7286    0.0000    0.0000 C   0  0  0  0  0  0  0  0  0  0  0  0
    1.0777   -1.3515    0.0000 C   0  0  0  0  0  0  0  0  0  0  0  0
   -0.3846   -1.6852    0.0000 C   0  0  0  0  0  0  0  0  0  0  0  0
   -0.7184   -3.1476    0.0000 C   0  0  0  0  0  0  0  0  0  0  0  0
   -1.5574   -0.7500    0.0000 N   0  0  0  0  0  0  0  0  0  0  0  0
   -2.9088   -1.4008    0.0000 C   0  0  0  0  0  0  0  0  0  0  0  0
   -3.0209   -2.8966    0.0000 O   0  0  0  0  0  0  0  0  0  0  0  0
   -4.1482   -0.5558    0.0000 N   0  0  0  0  0  0  0  0  0  0  0  0
   -5.5603   -1.0618    0.0000 C   0  0  0  0  0  0  0  0  0  0  0  0
   -6.4779    0.1248    0.0000 C   0  0  0  0  0  0  0  0  0  0  0  0
   -5.6329    1.3641    0.0000 C   0  0  0  0  0  0  0  0  0  0  0  0
   -4.1931    0.9435    0.0000 C   0  0  0  0  0  0  0  0  0  0  0  0
   -3.0065    1.8611    0.0000 O   0  0  0  0  0  0  0  0  0  0  0  0
   -1.5574    0.7500    0.0000 C   0  0  0  0  0  0  0  0  0  0  0  0
   -0.3846    1.6852    0.0000 C   0  0  0  0  0  0  0  0  0  0  0  0
    1.6139    3.9701    0.0000 C   0  0  0  0  0  0  0  0  0  0  0  0
   -4.7146    8.1384    0.0000 C   0  0  0  0  0  0  0  0  0  0  0  0
   -5.7832    9.1911    0.0000 C   0  0  0  0  0  0  0  0  0  0  0  0
  1  2  1  0
  2  3  1  0
  3  4  2  0
  4  5  1  0
  5  6  1  0
  6  7  1  0
  7  8  2  0
  7  9  1  0
  9 10  1  0
 10 11  2  0
 11 12  1  0
 12 13  2  0
 13 14  1  0
 14 15  1  0
 15 16  2  0
 16 17  1  0
 17 18  2  0
 18 19  1  0
 19 20  1  0
 20 21  1  0
 21 22  1  0
 22 23  1  0
 22 24  1  0
 24 25  1  0
 25 26  2  0
 25 27  1  0
 27 28  1  0
 28 29  1  0
 29 30  1  0
 30 31  1  0
 31 32  2  0
 24 33  1  0
 33 34  1  0
 18 35  1  0
  5 36  1  0
 36 37  1  0
 37  2  1  0
 14 10  1  0
 35 15  1  0
 34 19  1  0
 31 27  1  0
M  END
>  <Title>  (924) 
idABHPgen6

$$$$

     RDKit          2D

 22 24  0  0  0  0  0  0  0  0999 V2000
   -1.9092  -13.8094    0.0000 C   0  0  0  0  0  0  0  0  0  0  0  0
   -1.1592  -12.5104    0.0000 C   0  0  0  0  0  0  0  0  0  0  0  0
    0.3326  -12.3536    0.0000 C   0  0  0  0  0  0  0  0  0  0  0  0
    0.6445  -10.8864    0.0000 C   0  0  0  0  0  0  0  0  0  0  0  0
   -0.6546  -10.1364    0.0000 C   0  0  0  0  0  0  0  0  0  0  0  0
   -0.8113   -8.6446    0.0000 C   0  0  0  0  0  0  0  0  0  0  0  0
    0.4022   -7.7629    0.0000 C   0  0  0  0  0  0  0  0  0  0  0  0
    1.7725   -8.3730    0.0000 O   0  0  0  0  0  0  0  0  0  0  0  0
    0.2454   -6.2711    0.0000 N   0  0  0  0  0  0  0  0  0  0  0  0
   -1.0537   -5.5211    0.0000 C   0  0  0  0  0  0  0  0  0  0  0  0
   -0.7418   -4.0539    0.0000 C   0  0  0  0  0  0  0  0  0  0  0  0
    0.7500   -3.8971    0.0000 N   0  0  0  0  0  0  0  0  0  0  0  0
    1.5000   -2.5981    0.0000 C   0  0  0  0  0  0  0  0  0  0  0  0
    3.0000   -2.5981    0.0000 O   0  0  0  0  0  0  0  0  0  0  0  0
    0.7500   -1.2990    0.0000 C   0  0  0  0  0  0  0  0  0  0  0  0
    1.5000    0.0000    0.0000 C   0  0  0  0  0  0  0  0  0  0  0  0
    0.7500    1.2990    0.0000 C   0  0  0  0  0  0  0  0  0  0  0  0
   -0.7500    1.2990    0.0000 C   0  0  0  0  0  0  0  0  0  0  0  0
   -1.5000    0.0000    0.0000 C   0  0  0  0  0  0  0  0  0  0  0  0
   -0.7500   -1.2990    0.0000 C   0  0  0  0  0  0  0  0  0  0  0  0
    1.3601   -5.2674    0.0000 C   0  0  0  0  0  0  0  0  0  0  0  0
   -1.7693  -11.1401    0.0000 C   0  0  0  0  0  0  0  0  0  0  0  0
  1  2  1  0
  2  3  1  0
  3  4  1  0
  4  5  1  0
  5  6  1  0
  6  7  1  0
  7  8  2  0
  7  9  1  0
  9 10  1  0
 10 11  1  0
 11 12  1  0
 12 13  1  0
 13 14  2  0
 13 15  1  0
 15 16  2  0
 16 17  1  0
 17 18  2  0
 18 19  1  0
 19 20  2  0
 12 21  1  0
  5 22  1  0
 22  2  1  0
 21  9  1  0
 20 15  1  0
M  END
>  <Title>  (925) 
idABHQgen6

$$$$

     RDKit          2D

 50 53  0  0  0  0  0  0  0  0999 V2000
    6.7592   -1.9427    0.0000 C   0  0  0  0  0  0  0  0  0  0  0  0
    6.0484   -3.2636    0.0000 C   0  0  0  0  0  0  0  0  0  0  0  0
    7.2878   -4.1086    0.0000 C   0  0  0  0  0  0  0  0  0  0  0  0
    8.3244   -5.1928    0.0000 C   0  0  0  0  0  0  0  0  0  0  0  0
    9.1129   -6.4688    0.0000 C   0  0  0  0  0  0  0  0  0  0  0  0
    9.6189   -7.8809    0.0000 C   0  0  0  0  0  0  0  0  0  0  0  0
    9.8202   -9.3673    0.0000 C   0  0  0  0  0  0  0  0  0  0  0  0
    9.7081  -10.8631    0.0000 C   0  0  0  0  0  0  0  0  0  0  0  0
    9.2875  -12.3029    0.0000 C   0  0  0  0  0  0  0  0  0  0  0  0
    8.5767  -13.6238    0.0000 C   0  0  0  0  0  0  0  0  0  0  0  0
    7.6068  -14.7680    0.0000 C   0  0  0  0  0  0  0  0  0  0  0  0
    6.4202  -15.6856    0.0000 C   0  0  0  0  0  0  0  0  0  0  0  0
    5.0687  -16.3365    0.0000 C   0  0  0  0  0  0  0  0  0  0  0  0
    3.6115  -16.6921    0.0000 C   0  0  0  0  0  0  0  0  0  0  0  0
    2.1122  -16.7369    0.0000 C   0  0  0  0  0  0  0  0  0  0  0  0
    0.6363  -16.4691    0.0000 C   0  0  0  0  0  0  0  0  0  0  0  0
   -0.7517  -15.9003    0.0000 C   0  0  0  0  0  0  0  0  0  0  0  0
   -1.9910  -15.0553    0.0000 C   0  0  0  0  0  0  0  0  0  0  0  0
   -3.0276  -13.9711    0.0000 C   0  0  0  0  0  0  0  0  0  0  0  0
   -3.8162  -12.6951    0.0000 C   0  0  0  0  0  0  0  0  0  0  0  0
   -4.3221  -11.2830    0.0000 C   0  0  0  0  0  0  0  0  0  0  0  0
   -4.5235   -9.7966    0.0000 C   0  0  0  0  0  0  0  0  0  0  0  0
   -4.4114   -8.3008    0.0000 C   0  0  0  0  0  0  0  0  0  0  0  0
   -3.9908   -6.8610    0.0000 C   0  0  0  0  0  0  0  0  0  0  0  0
   -3.2800   -5.5401    0.0000 C   0  0  0  0  0  0  0  0  0  0  0  0
   -4.5193   -4.6951    0.0000 C   0  0  0  0  0  0  0  0  0  0  0  0
   -4.4072   -3.1993    0.0000 O   0  0  0  0  0  0  0  0  0  0  0  0
   -5.8708   -5.3459    0.0000 N   0  0  0  0  0  0  0  0  0  0  0  0
   -7.1101   -4.5009    0.0000 C   0  0  0  0  0  0  0  0  0  0  0  0
   -6.9980   -3.0051    0.0000 C   0  0  0  0  0  0  0  0  0  0  0  0
   -8.2374   -2.1601    0.0000 C   0  0  0  0  0  0  0  0  0  0  0  0
   -9.5888   -2.8110    0.0000 C   0  0  0  0  0  0  0  0  0  0  0  0
   -9.7009   -4.3068    0.0000 C   0  0  0  0  0  0  0  0  0  0  0  0
   -8.4616   -5.1518    0.0000 C   0  0  0  0  0  0  0  0  0  0  0  0
   -1.3515   -3.9342    0.0000 C   0  0  0  0  0  0  0  0  0  0  0  0
   -0.0000   -4.5850    0.0000 C   0  0  0  0  0  0  0  0  0  0  0  0
    1.3515   -3.9342    0.0000 C   0  0  0  0  0  0  0  0  0  0  0  0
    1.6852   -2.4718    0.0000 C   0  0  0  0  0  0  0  0  0  0  0  0
    3.1846   -2.4269    0.0000 C   0  0  0  0  0  0  0  0  0  0  0  0
    3.2967   -0.9311    0.0000 C   0  0  0  0  0  0  0  0  0  0  0  0
    4.6481   -0.2803    0.0000 C   0  0  0  0  0  0  0  0  0  0  0  0
    5.9996    0.3705    0.0000 N   0  0  0  0  0  0  0  0  0  0  0  0
    4.6605   -2.6947    0.0000 N   0  0  0  0  0  0  0  0  0  0  0  0
    0.7500   -1.2990    0.0000 C   0  0  0  0  0  0  0  0  0  0  0  0
    1.5000    0.0000    0.0000 C   0  0  0  0  0  0  0  0  0  0  0  0
    0.7500    1.2990    0.0000 C   0  0  0  0  0  0  0  0  0  0  0  0
   -0.7500    1.2990    0.0000 C   0  0  0  0  0  0  0  0  0  0  0  0
   -1.5000    0.0000    0.0000 C   0  0  0  0  0  0  0  0  0  0  0  0
   -0.7500   -1.2990    0.0000 C   0  0  0  0  0  0  0  0  0  0  0  0
   -1.6852   -2.4718    0.0000 C   0  0  0  0  0  0  0  0  0  0  0  0
  1  2  1  0
  2  3  1  0
  3  4  2  0
  4  5  1  0
  5  6  1  0
  6  7  2  0
  7  8  1  0
  8  9  2  0
  9 10  1  0
 10 11  2  0
 11 12  1  0
 12 13  2  0
 13 14  1  0
 14 15  2  0
 15 16  1  0
 16 17  2  0
 17 18  1  0
 18 19  2  0
 19 20  1  0
 20 21  2  0
 21 22  1  0
 22 23  2  0
 23 24  1  0
 24 25  2  0
 25 26  1  0
 26 27  2  0
 26 28  1  0
 28 29  1  0
 29 30  2  0
 30 31  1  0
 31 32  2  0
 32 33  1  0
 33 34  2  0
 25 35  1  0
 35 36  1  0
 36 37  1  0
 37 38  1  0
 38 39  1  0
 39 40  2  3
 40 41  1  0
 41 42  3  0
 39 43  1  0
 38 44  1  0
 44 45  2  0
 45 46  1  0
 46 47  2  0
 47 48  1  0
 48 49  2  0
 49 50  1  0
 43  2  1  0
 49 44  1  0
 34 29  1  0
 50 35  1  0
M  END
>  <Title>  (926) 
idABHRgen6

$$$$

     RDKit          2D

 15 16  0  0  0  0  0  0  0  0999 V2000
   -1.8373   -5.6601    0.0000 O   0  0  0  0  0  0  0  0  0  0  0  0
   -2.9520   -4.6564    0.0000 C   0  0  0  0  0  0  0  0  0  0  0  0
   -4.3786   -5.1199    0.0000 O   0  0  0  0  0  0  0  0  0  0  0  0
   -2.6401   -3.1891    0.0000 C   0  0  0  0  0  0  0  0  0  0  0  0
   -3.7548   -2.1855    0.0000 O   0  0  0  0  0  0  0  0  0  0  0  0
   -1.2135   -2.7256    0.0000 N   0  0  0  0  0  0  0  0  0  0  0  0
   -0.0000   -3.6073    0.0000 C   0  0  0  0  0  0  0  0  0  0  0  0
    1.2135   -2.7256    0.0000 C   0  0  0  0  0  0  0  0  0  0  0  0
    0.7500   -1.2990    0.0000 C   0  0  0  0  0  0  0  0  0  0  0  0
    1.5000    0.0000    0.0000 C   0  0  0  0  0  0  0  0  0  0  0  0
    0.7500    1.2990    0.0000 C   0  0  0  0  0  0  0  0  0  0  0  0
   -0.7500    1.2990    0.0000 C   0  0  0  0  0  0  0  0  0  0  0  0
   -1.5000    2.5981    0.0000 F   0  0  0  0  0  0  0  0  0  0  0  0
   -1.5000    0.0000    0.0000 C   0  0  0  0  0  0  0  0  0  0  0  0
   -0.7500   -1.2990    0.0000 C   0  0  0  0  0  0  0  0  0  0  0  0
  1  2  2  0
  2  3  1  0
  2  4  1  0
  4  5  2  0
  4  6  1  0
  6  7  1  0
  7  8  1  0
  8  9  1  0
  9 10  2  0
 10 11  1  0
 11 12  2  0
 12 13  1  0
 12 14  1  0
 14 15  2  0
 15  6  1  0
 15  9  1  0
M  END
>  <Title>  (927) 
idABHSgen6

$$$$

     RDKit          2D

  5  4  0  0  0  0  0  0  0  0999 V2000
    0.0000    0.0000    0.0000 C   0  0  0  0  0  0  0  0  0  0  0  0
    1.2990    0.7500    0.0000 C   0  0  0  0  0  0  0  0  0  0  0  0
    2.5981    1.5000    0.0000 C   0  0  0  0  0  0  0  0  0  0  0  0
    3.8971    2.2500    0.0000 C   0  0  0  0  0  0  0  0  0  0  0  0
    5.1962    1.5000    0.0000 C   0  0  0  0  0  0  0  0  0  0  0  0
  1  2  1  0
  2  3  3  0
  3  4  1  0
  4  5  1  0
M  END
>  <Title>  (928) 
idABHTgen6

$$$$

     RDKit          2D

 31 35  0  0  0  0  0  0  0  0999 V2000
   -8.6036   -8.7469    0.0000 O   0  0  0  0  0  0  0  0  0  0  0  0
   -7.1118   -8.5902    0.0000 C   0  0  0  0  0  0  0  0  0  0  0  0
   -6.2301   -9.8037    0.0000 N   0  0  0  0  0  0  0  0  0  0  0  0
   -6.8402  -11.1740    0.0000 C   0  0  0  0  0  0  0  0  0  0  0  0
   -5.9586  -12.3875    0.0000 C   0  0  0  0  0  0  0  0  0  0  0  0
   -6.5687  -13.7578    0.0000 C   0  0  0  0  0  0  0  0  0  0  0  0
   -5.6870  -14.9714    0.0000 C   0  0  0  0  0  0  0  0  0  0  0  0
   -4.1952  -14.8146    0.0000 C   0  0  0  0  0  0  0  0  0  0  0  0
   -3.5851  -13.4443    0.0000 C   0  0  0  0  0  0  0  0  0  0  0  0
   -4.4668  -12.2307    0.0000 C   0  0  0  0  0  0  0  0  0  0  0  0
   -6.5017   -7.2198    0.0000 N   0  0  0  0  0  0  0  0  0  0  0  0
   -7.3834   -6.0063    0.0000 C   0  0  0  0  0  0  0  0  0  0  0  0
   -8.8834   -6.0063    0.0000 N   0  0  0  0  0  0  0  0  0  0  0  0
   -9.3469   -4.5797    0.0000 N   0  0  0  0  0  0  0  0  0  0  0  0
   -8.1334   -3.6980    0.0000 N   0  0  0  0  0  0  0  0  0  0  0  0
   -6.9199   -4.5797    0.0000 N   0  0  0  0  0  0  0  0  0  0  0  0
   -5.4933   -4.1162    0.0000 N   0  0  0  0  0  0  0  0  0  0  0  0
   -4.3786   -5.1199    0.0000 C   0  0  0  0  0  0  0  0  0  0  0  0
   -2.9520   -4.6564    0.0000 C   0  0  0  0  0  0  0  0  0  0  0  0
   -2.6401   -3.1891    0.0000 C   0  0  0  0  0  0  0  0  0  0  0  0
   -1.2135   -2.7256    0.0000 N   0  0  0  0  0  0  0  0  0  0  0  0
   -0.0000   -3.6073    0.0000 C   0  0  0  0  0  0  0  0  0  0  0  0
    1.2135   -2.7256    0.0000 C   0  0  0  0  0  0  0  0  0  0  0  0
    0.7500   -1.2990    0.0000 C   0  0  0  0  0  0  0  0  0  0  0  0
    1.5000    0.0000    0.0000 C   0  0  0  0  0  0  0  0  0  0  0  0
    0.7500    1.2990    0.0000 C   0  0  0  0  0  0  0  0  0  0  0  0
   -0.7500    1.2990    0.0000 C   0  0  0  0  0  0  0  0  0  0  0  0
   -1.5000    0.0000    0.0000 C   0  0  0  0  0  0  0  0  0  0  0  0
   -0.7500   -1.2990    0.0000 C   0  0  0  0  0  0  0  0  0  0  0  0
   -3.7548   -2.1855    0.0000 C   0  0  0  0  0  0  0  0  0  0  0  0
   -5.1814   -2.6490    0.0000 C   0  0  0  0  0  0  0  0  0  0  0  0
  1  2  2  0
  2  3  1  0
  3  4  1  0
  4  5  1  0
  5  6  2  0
  6  7  1  0
  7  8  2  0
  8  9  1  0
  9 10  2  0
  2 11  1  0
 11 12  1  0
 12 13  2  0
 13 14  1  0
 14 15  2  0
 15 16  1  0
 16 17  1  0
 17 18  1  0
 18 19  1  0
 19 20  1  0
 20 21  1  0
 21 22  1  0
 22 23  1  0
 23 24  1  0
 24 25  2  0
 25 26  1  0
 26 27  2  0
 27 28  1  0
 28 29  2  0
 20 30  1  0
 30 31  1  0
 10  5  1  0
 16 12  1  0
 31 17  1  0
 29 21  1  0
 29 24  1  0
M  END
>  <Title>  (929) 
idABHUgen6

$$$$

     RDKit          2D

 34 36  0  0  0  0  0  0  0  0999 V2000
   -5.1750   -1.5170    0.0000 O   0  0  0  0  0  0  0  0  0  0  0  0
   -4.3300   -0.2776    0.0000 C   0  0  0  0  0  0  0  0  0  0  0  0
   -2.8342   -0.3897    0.0000 N   0  0  0  0  0  0  0  0  0  0  0  0
   -2.1834   -1.7412    0.0000 C   0  0  0  0  0  0  0  0  0  0  0  0
   -3.4227   -2.5862    0.0000 C   0  0  0  0  0  0  0  0  0  0  0  0
   -4.3580   -3.7589    0.0000 C   0  0  0  0  0  0  0  0  0  0  0  0
   -4.9060   -5.1552    0.0000 C   0  0  0  0  0  0  0  0  0  0  0  0
   -5.0181   -6.6510    0.0000 C   0  0  0  0  0  0  0  0  0  0  0  0
   -4.6843   -8.1134    0.0000 C   0  0  0  0  0  0  0  0  0  0  0  0
   -3.9343   -9.4124    0.0000 C   0  0  0  0  0  0  0  0  0  0  0  0
   -2.8347  -10.4327    0.0000 C   0  0  0  0  0  0  0  0  0  0  0  0
   -1.4832  -11.0835    0.0000 C   0  0  0  0  0  0  0  0  0  0  0  0
   -0.0000  -11.3071    0.0000 C   0  0  0  0  0  0  0  0  0  0  0  0
    1.4832  -11.0835    0.0000 C   0  0  0  0  0  0  0  0  0  0  0  0
    2.8347  -10.4327    0.0000 C   0  0  0  0  0  0  0  0  0  0  0  0
    3.9343   -9.4124    0.0000 C   0  0  0  0  0  0  0  0  0  0  0  0
    4.6843   -8.1134    0.0000 C   0  0  0  0  0  0  0  0  0  0  0  0
    5.0181   -6.6510    0.0000 C   0  0  0  0  0  0  0  0  0  0  0  0
    4.9060   -5.1552    0.0000 C   0  0  0  0  0  0  0  0  0  0  0  0
    4.3580   -3.7589    0.0000 C   0  0  0  0  0  0  0  0  0  0  0  0
    3.4227   -2.5862    0.0000 C   0  0  0  0  0  0  0  0  0  0  0  0
    2.1834   -1.7412    0.0000 C   0  0  0  0  0  0  0  0  0  0  0  0
    0.7500   -1.2990    0.0000 C   0  0  0  0  0  0  0  0  0  0  0  0
    1.5000    0.0000    0.0000 C   0  0  0  0  0  0  0  0  0  0  0  0
    0.7500    1.2990    0.0000 C   0  0  0  0  0  0  0  0  0  0  0  0
   -0.7500    1.2990    0.0000 C   0  0  0  0  0  0  0  0  0  0  0  0
   -1.5000    0.0000    0.0000 C   0  0  0  0  0  0  0  0  0  0  0  0
   -0.7500   -1.2990    0.0000 C   0  0  0  0  0  0  0  0  0  0  0  0
   -4.9808    1.0738    0.0000 C   0  0  0  0  0  0  0  0  0  0  0  0
   -4.1358    2.3132    0.0000 C   0  0  0  0  0  0  0  0  0  0  0  0
   -4.7867    3.6646    0.0000 C   0  0  0  0  0  0  0  0  0  0  0  0
   -6.2825    3.7767    0.0000 C   0  0  0  0  0  0  0  0  0  0  0  0
   -7.1274    2.5374    0.0000 C   0  0  0  0  0  0  0  0  0  0  0  0
   -6.4766    1.1859    0.0000 C   0  0  0  0  0  0  0  0  0  0  0  0
  1  2  2  0
  2  3  1  0
  3  4  1  0
  4  5  1  0
  5  6  1  0
  6  7  1  0
  7  8  1  0
  8  9  1  0
  9 10  1  0
 10 11  1  0
 11 12  1  0
 12 13  1  0
 13 14  1  0
 14 15  1  0
 15 16  1  0
 16 17  1  0
 17 18  1  0
 18 19  1  0
 19 20  1  0
 20 21  1  0
 21 22  1  0
 22 23  1  0
 23 24  2  0
 24 25  1  0
 25 26  2  0
 26 27  1  0
 27 28  2  0
  2 29  1  0
 29 30  2  0
 30 31  1  0
 31 32  2  0
 32 33  1  0
 33 34  2  0
 28  4  1  0
 34 29  1  0
 28 23  1  0
M  END
>  <Title>  (930) 
idABHVgen6

$$$$

     RDKit          2D

 35 39  0  0  0  0  0  0  0  0999 V2000
   -0.0000   -7.0525    0.0000 C   0  0  0  0  0  0  0  0  0  0  0  0
   -0.0000   -5.5525    0.0000 C   0  0  0  0  0  0  0  0  0  0  0  0
    1.4095   -5.0395    0.0000 C   0  0  0  0  0  0  0  0  0  0  0  0
    2.1595   -3.7404    0.0000 C   0  0  0  0  0  0  0  0  0  0  0  0
    1.8991   -2.2632    0.0000 C   0  0  0  0  0  0  0  0  0  0  0  0
    3.1981   -1.5132    0.0000 C   0  0  0  0  0  0  0  0  0  0  0  0
    3.1981   -0.0132    0.0000 O   0  0  0  0  0  0  0  0  0  0  0  0
    4.4971   -2.2632    0.0000 N   0  0  0  0  0  0  0  0  0  0  0  0
    5.7962   -1.5132    0.0000 C   0  0  0  0  0  0  0  0  0  0  0  0
    7.0952   -2.2632    0.0000 N   0  0  0  0  0  0  0  0  0  0  0  0
    8.3943   -1.5132    0.0000 N   0  0  0  0  0  0  0  0  0  0  0  0
    8.3943   -0.0132    0.0000 N   0  0  0  0  0  0  0  0  0  0  0  0
    7.0952    0.7368    0.0000 N   0  0  0  0  0  0  0  0  0  0  0  0
    5.7962   -0.0132    0.0000 N   0  0  0  0  0  0  0  0  0  0  0  0
    0.7500   -1.2990    0.0000 C   0  0  0  0  0  0  0  0  0  0  0  0
    1.5000    0.0000    0.0000 C   0  0  0  0  0  0  0  0  0  0  0  0
    0.7500    1.2990    0.0000 C   0  0  0  0  0  0  0  0  0  0  0  0
   -0.7500    1.2990    0.0000 C   0  0  0  0  0  0  0  0  0  0  0  0
   -1.5000    0.0000    0.0000 C   0  0  0  0  0  0  0  0  0  0  0  0
   -0.7500   -1.2990    0.0000 C   0  0  0  0  0  0  0  0  0  0  0  0
   -1.8991   -2.2632    0.0000 C   0  0  0  0  0  0  0  0  0  0  0  0
   -3.3379   -2.7413    0.0000 C   0  0  0  0  0  0  0  0  0  0  0  0
   -3.8509   -4.1509    0.0000 C   0  0  0  0  0  0  0  0  0  0  0  0
   -2.8868   -5.2999    0.0000 C   0  0  0  0  0  0  0  0  0  0  0  0
   -3.3998   -6.7095    0.0000 C   0  0  0  0  0  0  0  0  0  0  0  0
   -4.8770   -6.9700    0.0000 C   0  0  0  0  0  0  0  0  0  0  0  0
   -5.3900   -8.3795    0.0000 C   0  0  0  0  0  0  0  0  0  0  0  0
   -4.4258   -9.5286    0.0000 C   0  0  0  0  0  0  0  0  0  0  0  0
   -4.9389  -10.9381    0.0000 N   0  0  0  0  0  0  0  0  0  0  0  0
   -6.4161  -11.1986    0.0000 C   0  0  0  0  0  0  0  0  0  0  0  0
   -3.9747  -12.0872    0.0000 C   0  0  0  0  0  0  0  0  0  0  0  0
   -2.9486   -9.2681    0.0000 C   0  0  0  0  0  0  0  0  0  0  0  0
   -2.4356   -7.8585    0.0000 C   0  0  0  0  0  0  0  0  0  0  0  0
   -1.4095   -5.0395    0.0000 C   0  0  0  0  0  0  0  0  0  0  0  0
   -2.1595   -3.7404    0.0000 C   0  0  0  0  0  0  0  0  0  0  0  0
  1  2  1  0
  2  3  1  0
  3  4  1  0
  4  5  1  0
  5  6  1  0
  6  7  2  0
  6  8  1  0
  8  9  1  0
  9 10  2  0
 10 11  1  0
 11 12  2  0
 12 13  1  0
 13 14  2  0
  5 15  1  0
 15 16  2  0
 16 17  1  0
 17 18  2  0
 18 19  1  0
 19 20  2  0
 20 21  1  0
 21 22  2  0
 22 23  1  0
 23 24  2  0
 24 25  1  0
 25 26  2  0
 26 27  1  0
 27 28  2  0
 28 29  1  0
 29 30  1  0
 29 31  1  0
 28 32  1  0
 32 33  2  0
 24 34  1  0
 34 35  1  0
 34  2  1  0
 14  9  1  0
 20 15  1  0
 35 21  1  0
 33 25  1  0
M  END
>  <Title>  (931) 
idABHWgen6

$$$$

     RDKit          2D

  8  9  0  0  0  0  0  0  0  0999 V2000
    2.7760    0.0000    0.0000 C   0  0  0  0  0  0  0  0  0  0  0  0
    1.2760    0.0000    0.0000 C   0  0  0  0  0  0  0  0  0  0  0  0
    0.3943    1.2135    0.0000 C   0  0  0  0  0  0  0  0  0  0  0  0
   -1.0323    0.7500    0.0000 C   0  0  0  0  0  0  0  0  0  0  0  0
   -1.0323   -0.7500    0.0000 C   0  0  0  0  0  0  0  0  0  0  0  0
    0.3943   -1.2135    0.0000 N   0  0  0  0  0  0  0  0  0  0  0  0
    0.3943    0.2865    0.0000 C   0  0  0  0  0  0  0  0  0  0  0  0
    1.6078    1.1682    0.0000 O   0  0  0  0  0  0  0  0  0  0  0  0
  1  2  1  0
  2  3  1  0
  3  4  1  0
  4  5  1  0
  5  6  1  0
  6  7  1  0
  7  8  2  0
  6  2  1  0
  7  4  1  0
M  END
>  <Title>  (932) 
idABHXgen6

$$$$

     RDKit          2D

 20 22  0  0  0  0  0  0  0  0999 V2000
   -3.1965   -1.7857    0.0000 C   0  0  0  0  0  0  0  0  0  0  0  0
   -1.8107   -2.3597    0.0000 C   0  0  0  0  0  0  0  0  0  0  0  0
   -1.8107   -3.8597    0.0000 C   0  0  0  0  0  0  0  0  0  0  0  0
   -0.7500   -4.9204    0.0000 C   0  0  0  0  0  0  0  0  0  0  0  0
    0.7500   -4.9204    0.0000 C   0  0  0  0  0  0  0  0  0  0  0  0
    1.3240   -6.3062    0.0000 C   0  0  0  0  0  0  0  0  0  0  0  0
    0.4109   -7.4962    0.0000 C   0  0  0  0  0  0  0  0  0  0  0  0
    0.9849   -8.8820    0.0000 C   0  0  0  0  0  0  0  0  0  0  0  0
    2.4721   -9.0778    0.0000 C   0  0  0  0  0  0  0  0  0  0  0  0
    3.3852   -7.8878    0.0000 C   0  0  0  0  0  0  0  0  0  0  0  0
    2.8112   -6.5020    0.0000 C   0  0  0  0  0  0  0  0  0  0  0  0
    1.8107   -3.8597    0.0000 O   0  0  0  0  0  0  0  0  0  0  0  0
    1.8107   -2.3597    0.0000 C   0  0  0  0  0  0  0  0  0  0  0  0
    3.1965   -1.7857    0.0000 O   0  0  0  0  0  0  0  0  0  0  0  0
    0.7500   -1.2990    0.0000 C   0  0  0  0  0  0  0  0  0  0  0  0
    1.5000    0.0000    0.0000 C   0  0  0  0  0  0  0  0  0  0  0  0
    0.7500    1.2990    0.0000 C   0  0  0  0  0  0  0  0  0  0  0  0
   -0.7500    1.2990    0.0000 C   0  0  0  0  0  0  0  0  0  0  0  0
   -1.5000    0.0000    0.0000 C   0  0  0  0  0  0  0  0  0  0  0  0
   -0.7500   -1.2990    0.0000 C   0  0  0  0  0  0  0  0  0  0  0  0
  1  2  1  0
  2  3  1  0
  3  4  1  0
  4  5  1  0
  5  6  1  0
  6  7  2  0
  7  8  1  0
  8  9  2  0
  9 10  1  0
 10 11  2  0
  5 12  1  0
 12 13  1  0
 13 14  2  0
 13 15  1  0
 15 16  2  0
 16 17  1  0
 17 18  2  0
 18 19  1  0
 19 20  2  0
 20  2  1  0
 11  6  1  0
 20 15  1  0
M  END
>  <Title>  (933) 
idABHYgen6

$$$$

     RDKit          2D

 29 31  0  0  0  0  0  0  0  0999 V2000
    1.5000   -7.7942    0.0000 C   0  0  0  0  0  0  0  0  0  0  0  0
    0.7500   -6.4952    0.0000 C   0  0  0  0  0  0  0  0  0  0  0  0
    1.5000   -5.1962    0.0000 C   0  0  0  0  0  0  0  0  0  0  0  0
    3.0000   -5.1962    0.0000 O   0  0  0  0  0  0  0  0  0  0  0  0
    0.7500   -3.8971    0.0000 N   0  0  0  0  0  0  0  0  0  0  0  0
    1.5000   -2.5981    0.0000 C   0  0  0  0  0  0  0  0  0  0  0  0
    0.7500   -1.2990    0.0000 C   0  0  0  0  0  0  0  0  0  0  0  0
    1.5000    0.0000    0.0000 C   0  0  0  0  0  0  0  0  0  0  0  0
    0.7500    1.2990    0.0000 C   0  0  0  0  0  0  0  0  0  0  0  0
   -0.7500    1.2990    0.0000 C   0  0  0  0  0  0  0  0  0  0  0  0
   -1.5000    0.0000    0.0000 C   0  0  0  0  0  0  0  0  0  0  0  0
   -0.7500   -1.2990    0.0000 C   0  0  0  0  0  0  0  0  0  0  0  0
   -0.7500   -3.8971    0.0000 C   0  0  0  0  0  0  0  0  0  0  0  0
   -1.5000   -2.5981    0.0000 O   0  0  0  0  0  0  0  0  0  0  0  0
   -1.5000   -5.1962    0.0000 C   0  0  0  0  0  0  0  0  0  0  0  0
   -3.0000   -5.1962    0.0000 C   0  0  0  0  0  0  0  0  0  0  0  0
   -3.7500   -6.4952    0.0000 C   0  0  0  0  0  0  0  0  0  0  0  0
   -3.0000   -7.7942    0.0000 C   0  0  0  0  0  0  0  0  0  0  0  0
   -3.7500   -9.0933    0.0000 C   0  0  0  0  0  0  0  0  0  0  0  0
   -3.0000  -10.3923    0.0000 O   0  0  0  0  0  0  0  0  0  0  0  0
   -5.2500   -9.0933    0.0000 O   0  0  0  0  0  0  0  0  0  0  0  0
   -6.0000  -10.3923    0.0000 C   0  0  0  0  0  0  0  0  0  0  0  0
   -7.5000  -10.3923    0.0000 C   0  0  0  0  0  0  0  0  0  0  0  0
   -8.2500  -11.6913    0.0000 C   0  0  0  0  0  0  0  0  0  0  0  0
   -7.5000  -12.9904    0.0000 C   0  0  0  0  0  0  0  0  0  0  0  0
   -6.0000  -12.9904    0.0000 C   0  0  0  0  0  0  0  0  0  0  0  0
   -5.2500  -11.6913    0.0000 C   0  0  0  0  0  0  0  0  0  0  0  0
   -1.5000   -7.7942    0.0000 C   0  0  0  0  0  0  0  0  0  0  0  0
   -0.7500   -6.4952    0.0000 C   0  0  0  0  0  0  0  0  0  0  0  0
  1  2  1  0
  2  3  1  0
  3  4  2  0
  3  5  1  0
  5  6  1  0
  6  7  1  0
  7  8  2  0
  8  9  1  0
  9 10  2  0
 10 11  1  0
 11 12  2  0
  5 13  1  0
 13 14  2  0
 13 15  1  0
 15 16  1  0
 16 17  1  0
 17 18  1  0
 18 19  1  0
 19 20  2  0
 19 21  1  0
 21 22  1  0
 22 23  2  0
 23 24  1  0
 24 25  2  0
 25 26  1  0
 26 27  2  0
 18 28  1  0
 28 29  1  0
 12  7  1  0
 29 15  1  0
 27 22  1  0
M  END
>  <Title>  (934) 
idABHZgen6

$$$$

     RDKit          2D

 38 41  0  0  0  0  0  0  0  0999 V2000
   -3.1097   -0.9884    0.0000 C   0  0  0  0  0  0  0  0  0  0  0  0
   -2.0490   -2.0490    0.0000 C   0  0  0  0  0  0  0  0  0  0  0  0
   -2.7990   -3.3481    0.0000 C   0  0  0  0  0  0  0  0  0  0  0  0
   -2.7990   -4.8481    0.0000 C   0  0  0  0  0  0  0  0  0  0  0  0
   -2.0490   -6.1471    0.0000 C   0  0  0  0  0  0  0  0  0  0  0  0
   -0.7500   -6.8971    0.0000 C   0  0  0  0  0  0  0  0  0  0  0  0
    0.7500   -6.8971    0.0000 C   0  0  0  0  0  0  0  0  0  0  0  0
    1.8219   -8.1182    0.0000 C   0  0  0  0  0  0  0  0  0  0  0  0
    3.2708   -8.5064    0.0000 C   0  0  0  0  0  0  0  0  0  0  0  0
    4.7447   -8.2275    0.0000 C   0  0  0  0  0  0  0  0  0  0  0  0
    5.9516   -7.3368    0.0000 C   0  0  0  0  0  0  0  0  0  0  0  0
    6.6525   -6.0106    0.0000 C   0  0  0  0  0  0  0  0  0  0  0  0
    6.7086   -4.5117    0.0000 C   0  0  0  0  0  0  0  0  0  0  0  0
    6.1087   -3.1368    0.0000 C   0  0  0  0  0  0  0  0  0  0  0  0
    4.9718   -2.1584    0.0000 C   0  0  0  0  0  0  0  0  0  0  0  0
    3.5229   -1.7702    0.0000 C   0  0  0  0  0  0  0  0  0  0  0  0
    2.0490   -2.0490    0.0000 C   0  0  0  0  0  0  0  0  0  0  0  0
    2.7990   -3.3481    0.0000 C   0  0  0  0  0  0  0  0  0  0  0  0
    4.2479   -2.9598    0.0000 O   0  0  0  0  0  0  0  0  0  0  0  0
    2.7990   -4.8481    0.0000 N   0  0  0  0  0  0  0  0  0  0  0  0
    2.0490   -6.1471    0.0000 C   0  0  0  0  0  0  0  0  0  0  0  0
    3.1097   -7.2078    0.0000 N   0  0  0  0  0  0  0  0  0  0  0  0
    2.7215   -8.6567    0.0000 N   0  0  0  0  0  0  0  0  0  0  0  0
    3.7821   -9.7173    0.0000 N   0  0  0  0  0  0  0  0  0  0  0  0
    3.3939  -11.1662    0.0000 N   0  0  0  0  0  0  0  0  0  0  0  0
    2.0949  -11.9162    0.0000 C   0  0  0  0  0  0  0  0  0  0  0  0
    0.6460  -11.5280    0.0000 O   0  0  0  0  0  0  0  0  0  0  0  0
    2.8449  -13.2153    0.0000 O   0  0  0  0  0  0  0  0  0  0  0  0
    4.1439  -12.4653    0.0000 C   0  0  0  0  0  0  0  0  0  0  0  0
    5.5928  -12.8535    0.0000 O   0  0  0  0  0  0  0  0  0  0  0  0
    0.7500   -1.2990    0.0000 C   0  0  0  0  0  0  0  0  0  0  0  0
    1.5000    0.0000    0.0000 C   0  0  0  0  0  0  0  0  0  0  0  0
    0.7500    1.2990    0.0000 C   0  0  0  0  0  0  0  0  0  0  0  0
   -0.7500    1.2990    0.0000 C   0  0  0  0  0  0  0  0  0  0  0  0
   -1.5000    2.5981    0.0000 C   0  0  0  0  0  0  0  0  0  0  0  0
   -2.2500    3.8971    0.0000 N   0  0  0  0  0  0  0  0  0  0  0  0
   -1.5000    0.0000    0.0000 C   0  0  0  0  0  0  0  0  0  0  0  0
   -0.7500   -1.2990    0.0000 C   0  0  0  0  0  0  0  0  0  0  0  0
  1  2  1  0
  2  3  1  0
  3  4  1  0
  4  5  1  0
  5  6  1  0
  6  7  1  0
  7  8  1  0
  8  9  2  0
  9 10  1  0
 10 11  2  0
 11 12  1  0
 12 13  2  0
 13 14  1  0
 14 15  2  0
 15 16  1  0
 16 17  2  0
 17 18  1  0
 18 19  2  0
 18 20  1  0
 20 21  1  0
 21 22  2  3
 22 23  1  0
 23 24  2  3
 24 25  1  0
 25 26  1  0
 26 27  2  0
 26 28  1  0
 28 29  1  0
 29 30  2  0
 17 31  1  0
 31 32  2  0
 32 33  1  0
 33 34  2  0
 34 35  1  0
 35 36  3  0
 34 37  1  0
 37 38  2  0
 38  2  1  0
 21  7  1  0
 29 25  1  0
 38 31  1  0
M  END
>  <Title>  (935) 
idABIAgen6

$$$$

     RDKit          2D

 14 14  0  0  0  0  0  0  0  0999 V2000
    5.0260    1.2990    0.0000 C   0  0  0  0  0  0  0  0  0  0  0  0
    3.5260    1.2990    0.0000 C   0  0  0  0  0  0  0  0  0  0  0  0
    2.7760    2.5981    0.0000 O   0  0  0  0  0  0  0  0  0  0  0  0
    2.7760    0.0000    0.0000 C   0  0  0  0  0  0  0  0  0  0  0  0
    3.5260   -1.2990    0.0000 O   0  0  0  0  0  0  0  0  0  0  0  0
    1.2760    0.0000    0.0000 N   0  0  0  0  0  0  0  0  0  0  0  0
    0.3943    1.2135    0.0000 C   0  0  0  0  0  0  0  0  0  0  0  0
   -1.0323    0.7500    0.0000 C   0  0  0  0  0  0  0  0  0  0  0  0
   -1.0323   -0.7500    0.0000 C   0  0  0  0  0  0  0  0  0  0  0  0
   -2.2458   -1.6317    0.0000 C   0  0  0  0  0  0  0  0  0  0  0  0
   -2.0890   -3.1235    0.0000 O   0  0  0  0  0  0  0  0  0  0  0  0
   -3.6161   -1.0216    0.0000 O   0  0  0  0  0  0  0  0  0  0  0  0
    0.3943   -1.2135    0.0000 C   0  0  0  0  0  0  0  0  0  0  0  0
    0.8578   -2.6401    0.0000 O   0  0  0  0  0  0  0  0  0  0  0  0
  1  2  1  0
  2  3  2  0
  2  4  1  0
  4  5  2  0
  4  6  1  0
  6  7  1  0
  7  8  1  0
  8  9  1  0
  9 10  1  0
 10 11  2  0
 10 12  1  0
  9 13  1  0
 13 14  2  0
 13  6  1  0
M  END
>  <Title>  (936) 
idABIBgen6

$$$$

     RDKit          2D

  7  8  0  0  0  0  0  0  0  0999 V2000
   -3.6213   -1.0607    0.0000 O   0  0  0  0  0  0  0  0  0  0  0  0
   -2.1213   -1.0607    0.0000 C   0  0  0  0  0  0  0  0  0  0  0  0
   -1.0607   -2.1213    0.0000 N   0  0  0  0  0  0  0  0  0  0  0  0
   -0.0000   -1.0607    0.0000 C   0  0  0  0  0  0  0  0  0  0  0  0
    1.0607    0.0000    0.0000 C   0  0  0  0  0  0  0  0  0  0  0  0
    0.0000    1.0607    0.0000 C   0  0  0  0  0  0  0  0  0  0  0  0
   -1.0607    0.0000    0.0000 C   0  0  0  0  0  0  0  0  0  0  0  0
  1  2  2  0
  2  3  1  0
  3  4  1  0
  4  5  1  0
  5  6  1  0
  6  7  1  0
  7  2  1  0
  7  4  1  0
M  END
>  <Title>  (937) 
idABICgen6

$$$$

     RDKit          2D

 30 33  0  0  0  0  0  0  0  0999 V2000
   -1.3240   -6.3062    0.0000 C   0  0  0  0  0  0  0  0  0  0  0  0
   -0.7500   -4.9204    0.0000 C   0  0  0  0  0  0  0  0  0  0  0  0
    0.7500   -4.9204    0.0000 C   0  0  0  0  0  0  0  0  0  0  0  0
    1.8107   -3.8597    0.0000 C   0  0  0  0  0  0  0  0  0  0  0  0
    1.8107   -2.3597    0.0000 C   0  0  0  0  0  0  0  0  0  0  0  0
    3.1965   -1.7857    0.0000 C   0  0  0  0  0  0  0  0  0  0  0  0
    3.3923   -0.2985    0.0000 O   0  0  0  0  0  0  0  0  0  0  0  0
    4.3865   -2.6988    0.0000 N   0  0  0  0  0  0  0  0  0  0  0  0
    5.7723   -2.1248    0.0000 C   0  0  0  0  0  0  0  0  0  0  0  0
    6.9624   -3.0379    0.0000 N   0  0  0  0  0  0  0  0  0  0  0  0
    8.3482   -2.4639    0.0000 N   0  0  0  0  0  0  0  0  0  0  0  0
    8.5440   -0.9767    0.0000 N   0  0  0  0  0  0  0  0  0  0  0  0
    7.3539   -0.0636    0.0000 N   0  0  0  0  0  0  0  0  0  0  0  0
    5.9681   -0.6376    0.0000 N   0  0  0  0  0  0  0  0  0  0  0  0
    0.7500   -1.2990    0.0000 C   0  0  0  0  0  0  0  0  0  0  0  0
    1.5000    0.0000    0.0000 C   0  0  0  0  0  0  0  0  0  0  0  0
    0.7500    1.2990    0.0000 C   0  0  0  0  0  0  0  0  0  0  0  0
   -0.7500    1.2990    0.0000 C   0  0  0  0  0  0  0  0  0  0  0  0
   -1.5000    2.5981    0.0000 C   0  0  0  0  0  0  0  0  0  0  0  0
   -2.2500    3.8971    0.0000 N   0  0  0  0  0  0  0  0  0  0  0  0
   -1.5000    0.0000    0.0000 C   0  0  0  0  0  0  0  0  0  0  0  0
   -0.7500   -1.2990    0.0000 C   0  0  0  0  0  0  0  0  0  0  0  0
   -1.8107   -2.3597    0.0000 C   0  0  0  0  0  0  0  0  0  0  0  0
   -3.1097   -1.6097    0.0000 C   0  0  0  0  0  0  0  0  0  0  0  0
   -4.4087   -2.3597    0.0000 C   0  0  0  0  0  0  0  0  0  0  0  0
   -4.4087   -3.8597    0.0000 C   0  0  0  0  0  0  0  0  0  0  0  0
   -5.7078   -4.6097    0.0000 C   0  0  0  0  0  0  0  0  0  0  0  0
   -7.0068   -5.3597    0.0000 N   0  0  0  0  0  0  0  0  0  0  0  0
   -3.1097   -4.6097    0.0000 C   0  0  0  0  0  0  0  0  0  0  0  0
   -1.8107   -3.8597    0.0000 C   0  0  0  0  0  0  0  0  0  0  0  0
  1  2  1  0
  2  3  1  0
  3  4  2  0
  4  5  1  0
  5  6  1  0
  6  7  2  0
  6  8  1  0
  8  9  1  0
  9 10  2  0
 10 11  1  0
 11 12  2  0
 12 13  1  0
 13 14  2  0
  5 15  1  0
 15 16  2  0
 16 17  1  0
 17 18  2  0
 18 19  1  0
 19 20  3  0
 18 21  1  0
 21 22  2  0
 22 23  1  0
 23 24  2  0
 24 25  1  0
 25 26  2  0
 26 27  1  0
 27 28  3  0
 26 29  1  0
 29 30  2  0
 30  2  1  0
 14  9  1  0
 22 15  1  0
 30 23  1  0
M  END
>  <Title>  (938) 
idABIDgen6

$$$$

     RDKit          2D

 27 30  0  0  0  0  0  0  0  0999 V2000
   -3.1965   -1.7857    0.0000 C   0  0  0  0  0  0  0  0  0  0  0  0
   -1.8107   -2.3597    0.0000 C   0  0  0  0  0  0  0  0  0  0  0  0
   -1.8107   -3.8597    0.0000 C   0  0  0  0  0  0  0  0  0  0  0  0
   -0.7500   -4.9204    0.0000 C   0  0  0  0  0  0  0  0  0  0  0  0
    0.7500   -4.9204    0.0000 C   0  0  0  0  0  0  0  0  0  0  0  0
    1.3240   -6.3062    0.0000 C   0  0  0  0  0  0  0  0  0  0  0  0
    2.8112   -6.5020    0.0000 O   0  0  0  0  0  0  0  0  0  0  0  0
    0.4109   -7.4962    0.0000 N   0  0  0  0  0  0  0  0  0  0  0  0
    0.9849   -8.8820    0.0000 C   0  0  0  0  0  0  0  0  0  0  0  0
    0.0718  -10.0721    0.0000 N   0  0  0  0  0  0  0  0  0  0  0  0
    0.6458  -11.4579    0.0000 N   0  0  0  0  0  0  0  0  0  0  0  0
    2.1330  -11.6537    0.0000 N   0  0  0  0  0  0  0  0  0  0  0  0
    3.0461  -10.4636    0.0000 N   0  0  0  0  0  0  0  0  0  0  0  0
    2.4721   -9.0778    0.0000 N   0  0  0  0  0  0  0  0  0  0  0  0
    1.8107   -3.8597    0.0000 C   0  0  0  0  0  0  0  0  0  0  0  0
    3.1097   -4.6097    0.0000 C   0  0  0  0  0  0  0  0  0  0  0  0
    4.4087   -3.8597    0.0000 C   0  0  0  0  0  0  0  0  0  0  0  0
    4.4087   -2.3597    0.0000 C   0  0  0  0  0  0  0  0  0  0  0  0
    5.7078   -1.6097    0.0000 O   0  0  0  0  0  0  0  0  0  0  0  0
    3.1097   -1.6097    0.0000 N   0  0  0  0  0  0  0  0  0  0  0  0
    1.8107   -2.3597    0.0000 C   0  0  0  0  0  0  0  0  0  0  0  0
    0.7500   -1.2990    0.0000 C   0  0  0  0  0  0  0  0  0  0  0  0
    1.5000    0.0000    0.0000 C   0  0  0  0  0  0  0  0  0  0  0  0
    0.7500    1.2990    0.0000 C   0  0  0  0  0  0  0  0  0  0  0  0
   -0.7500    1.2990    0.0000 C   0  0  0  0  0  0  0  0  0  0  0  0
   -1.5000    0.0000    0.0000 C   0  0  0  0  0  0  0  0  0  0  0  0
   -0.7500   -1.2990    0.0000 C   0  0  0  0  0  0  0  0  0  0  0  0
  1  2  1  0
  2  3  1  0
  3  4  2  0
  4  5  1  0
  5  6  1  0
  6  7  2  0
  6  8  1  0
  8  9  1  0
  9 10  2  0
 10 11  1  0
 11 12  2  0
 12 13  1  0
 13 14  2  0
  5 15  1  0
 15 16  2  0
 16 17  1  0
 17 18  2  0
 18 19  1  0
 18 20  1  0
 20 21  2  0
 21 22  1  0
 22 23  2  0
 23 24  1  0
 24 25  2  0
 25 26  1  0
 26 27  2  0
 27  2  1  0
 14  9  1  0
 21 15  1  0
 27 22  1  0
M  END
>  <Title>  (939) 
idABIEgen6

$$$$

     RDKit          2D

 23 26  0  0  0  0  0  0  0  0999 V2000
   -3.1476   -2.1380    0.0000 C   0  0  0  0  0  0  0  0  0  0  0  0
   -1.6852   -2.4718    0.0000 C   0  0  0  0  0  0  0  0  0  0  0  0
   -1.3515   -3.9342    0.0000 C   0  0  0  0  0  0  0  0  0  0  0  0
   -0.0000   -4.5850    0.0000 C   0  0  0  0  0  0  0  0  0  0  0  0
    1.3515   -3.9342    0.0000 C   0  0  0  0  0  0  0  0  0  0  0  0
    1.6852   -2.4718    0.0000 C   0  0  0  0  0  0  0  0  0  0  0  0
    3.1476   -2.1380    0.0000 C   0  0  0  0  0  0  0  0  0  0  0  0
    3.5898   -0.7046    0.0000 C   0  0  0  0  0  0  0  0  0  0  0  0
    5.0522   -0.3709    0.0000 N   0  0  0  0  0  0  0  0  0  0  0  0
    6.0724   -1.4704    0.0000 C   0  0  0  0  0  0  0  0  0  0  0  0
    7.5348   -1.1367    0.0000 O   0  0  0  0  0  0  0  0  0  0  0  0
    5.6303   -2.9038    0.0000 C   0  0  0  0  0  0  0  0  0  0  0  0
    6.6505   -4.0034    0.0000 C   0  0  0  0  0  0  0  0  0  0  0  0
    6.2084   -5.4367    0.0000 C   0  0  0  0  0  0  0  0  0  0  0  0
    4.7460   -5.7705    0.0000 C   0  0  0  0  0  0  0  0  0  0  0  0
    3.7258   -4.6709    0.0000 C   0  0  0  0  0  0  0  0  0  0  0  0
    4.1679   -3.2376    0.0000 C   0  0  0  0  0  0  0  0  0  0  0  0
    0.7500   -1.2990    0.0000 C   0  0  0  0  0  0  0  0  0  0  0  0
    1.5000    0.0000    0.0000 C   0  0  0  0  0  0  0  0  0  0  0  0
    0.7500    1.2990    0.0000 C   0  0  0  0  0  0  0  0  0  0  0  0
   -0.7500    1.2990    0.0000 C   0  0  0  0  0  0  0  0  0  0  0  0
   -1.5000    0.0000    0.0000 C   0  0  0  0  0  0  0  0  0  0  0  0
   -0.7500   -1.2990    0.0000 C   0  0  0  0  0  0  0  0  0  0  0  0
  1  2  1  0
  2  3  1  0
  3  4  1  0
  4  5  1  0
  5  6  2  0
  6  7  1  0
  7  8  1  0
  8  9  1  0
  9 10  1  0
 10 11  2  0
 10 12  1  0
 12 13  2  0
 13 14  1  0
 14 15  2  0
 15 16  1  0
 16 17  2  0
  6 18  1  0
 18 19  2  0
 19 20  1  0
 20 21  2  0
 21 22  1  0
 22 23  2  0
 23  2  1  0
 17  7  1  0
 23 18  1  0
 17 12  1  0
M  END
>  <Title>  (940) 
idABIFgen6

$$$$

     RDKit          2D

 11 11  0  0  0  0  0  0  0  0999 V2000
    5.2500   -1.2990    0.0000 C   0  0  0  0  0  0  0  0  0  0  0  0
    3.7500   -1.2990    0.0000 C   0  0  0  0  0  0  0  0  0  0  0  0
    3.0000   -2.5981    0.0000 O   0  0  0  0  0  0  0  0  0  0  0  0
    3.0000    0.0000    0.0000 N   0  0  0  0  0  0  0  0  0  0  0  0
    1.5000    0.0000    0.0000 C   0  0  0  0  0  0  0  0  0  0  0  0
    0.7500   -1.2990    0.0000 C   0  0  0  0  0  0  0  0  0  0  0  0
   -0.7500   -1.2990    0.0000 C   0  0  0  0  0  0  0  0  0  0  0  0
   -1.5000    0.0000    0.0000 C   0  0  0  0  0  0  0  0  0  0  0  0
   -3.0000    0.0000    0.0000 O   0  0  0  0  0  0  0  0  0  0  0  0
   -0.7500    1.2990    0.0000 C   0  0  0  0  0  0  0  0  0  0  0  0
    0.7500    1.2990    0.0000 C   0  0  0  0  0  0  0  0  0  0  0  0
  1  2  1  0
  2  3  2  0
  2  4  1  0
  4  5  1  0
  5  6  2  0
  6  7  1  0
  7  8  2  0
  8  9  1  0
  8 10  1  0
 10 11  2  0
 11  5  1  0
M  END
>  <Title>  (941) 
idABIGgen6

$$$$

     RDKit          2D

 13 14  0  0  0  0  0  0  0  0999 V2000
   -0.7500   -3.8971    0.0000 O   0  0  0  0  0  0  0  0  0  0  0  0
    0.7500   -3.8971    0.0000 C   0  0  0  0  0  0  0  0  0  0  0  0
    1.5000   -2.5981    0.0000 N   0  0  0  0  0  0  0  0  0  0  0  0
    0.7500   -1.2990    0.0000 C   0  0  0  0  0  0  0  0  0  0  0  0
    1.5000    0.0000    0.0000 C   0  0  0  0  0  0  0  0  0  0  0  0
    0.7500    1.2990    0.0000 C   0  0  0  0  0  0  0  0  0  0  0  0
   -0.7500    1.2990    0.0000 C   0  0  0  0  0  0  0  0  0  0  0  0
   -1.5000    2.5981    0.0000 O   0  0  0  0  0  0  0  0  0  0  0  0
   -1.5000    0.0000    0.0000 C   0  0  0  0  0  0  0  0  0  0  0  0
   -0.7500   -1.2990    0.0000 C   0  0  0  0  0  0  0  0  0  0  0  0
    1.5000   -5.1962    0.0000 C   0  0  0  0  0  0  0  0  0  0  0  0
    2.7990   -5.9462    0.0000 C   0  0  0  0  0  0  0  0  0  0  0  0
    1.5000   -6.6962    0.0000 C   0  0  0  0  0  0  0  0  0  0  0  0
  1  2  2  0
  2  3  1  0
  3  4  1  0
  4  5  2  0
  5  6  1  0
  6  7  2  0
  7  8  1  0
  7  9  1  0
  9 10  2  0
  2 11  1  0
 11 12  1  0
 12 13  1  0
 10  4  1  0
 13 11  1  0
M  END
>  <Title>  (942) 
idABIHgen6

$$$$

     RDKit          2D

  5  4  0  0  0  0  0  0  0  0999 V2000
    1.5000    0.0000    0.0000 F   0  0  0  0  0  0  0  0  0  0  0  0
    0.0000    0.0000    0.0000 C   0  0  0  0  0  0  0  0  0  0  0  0
   -1.5000    0.0000    0.0000 F   0  0  0  0  0  0  0  0  0  0  0  0
    0.0000    1.5000    0.0000 F   0  0  0  0  0  0  0  0  0  0  0  0
   -0.0000   -1.5000    0.0000 F   0  0  0  0  0  0  0  0  0  0  0  0
  1  2  1  0
  2  3  1  0
  2  4  1  0
  2  5  1  0
M  END
>  <Title>  (943) 
idABIIgen6

$$$$

     RDKit          2D

 20 22  0  0  0  0  0  0  0  0999 V2000
    3.0000    0.0000    0.0000 C   0  0  0  0  0  0  0  0  0  0  0  0
    1.5000    0.0000    0.0000 C   0  0  0  0  0  0  0  0  0  0  0  0
    0.7500   -1.2990    0.0000 C   0  0  0  0  0  0  0  0  0  0  0  0
   -0.7500   -1.2990    0.0000 C   0  0  0  0  0  0  0  0  0  0  0  0
   -1.5000    0.0000    0.0000 C   0  0  0  0  0  0  0  0  0  0  0  0
   -3.0000    0.0000    0.0000 C   0  0  0  0  0  0  0  0  0  0  0  0
   -4.0607    1.0607    0.0000 C   0  0  0  0  0  0  0  0  0  0  0  0
   -5.1213    0.0000    0.0000 C   0  0  0  0  0  0  0  0  0  0  0  0
   -6.6213    0.0000    0.0000 C   0  0  0  0  0  0  0  0  0  0  0  0
   -7.3713   -1.2990    0.0000 O   0  0  0  0  0  0  0  0  0  0  0  0
   -7.3713    1.2990    0.0000 N   0  0  0  0  0  0  0  0  0  0  0  0
   -8.8713    1.2990    0.0000 C   0  0  0  0  0  0  0  0  0  0  0  0
   -9.6213    2.5981    0.0000 N   0  0  0  0  0  0  0  0  0  0  0  0
  -11.1213    2.5981    0.0000 N   0  0  0  0  0  0  0  0  0  0  0  0
  -11.8713    1.2990    0.0000 N   0  0  0  0  0  0  0  0  0  0  0  0
  -11.1213    0.0000    0.0000 N   0  0  0  0  0  0  0  0  0  0  0  0
   -9.6213    0.0000    0.0000 N   0  0  0  0  0  0  0  0  0  0  0  0
   -4.0607   -1.0607    0.0000 C   0  0  0  0  0  0  0  0  0  0  0  0
   -0.7500    1.2990    0.0000 C   0  0  0  0  0  0  0  0  0  0  0  0
    0.7500    1.2990    0.0000 C   0  0  0  0  0  0  0  0  0  0  0  0
  1  2  1  0
  2  3  2  0
  3  4  1  0
  4  5  2  0
  5  6  1  0
  6  7  1  0
  7  8  1  0
  8  9  1  0
  9 10  2  0
  9 11  1  0
 11 12  1  0
 12 13  2  0
 13 14  1  0
 14 15  2  0
 15 16  1  0
 16 17  2  0
  8 18  1  0
  5 19  1  0
 19 20  1  0
 20  2  1  0
 18  6  1  0
 17 12  1  0
M  END
>  <Title>  (944) 
idABIJgen6

$$$$

     RDKit          2D

 11 11  0  0  0  0  0  0  0  0999 V2000
    3.9271    0.0000    0.0000 C   0  0  0  0  0  0  0  0  0  0  0  0
    2.4271    0.0000    0.0000 C   0  0  0  0  0  0  0  0  0  0  0  0
    1.9635   -1.4266    0.0000 C   0  0  0  0  0  0  0  0  0  0  0  0
    0.7500   -2.3083    0.0000 C   0  0  0  0  0  0  0  0  0  0  0  0
   -0.7500   -2.3083    0.0000 C   0  0  0  0  0  0  0  0  0  0  0  0
   -1.9635   -1.4266    0.0000 C   0  0  0  0  0  0  0  0  0  0  0  0
   -2.4271    0.0000    0.0000 C   0  0  0  0  0  0  0  0  0  0  0  0
   -1.9635    1.4266    0.0000 C   0  0  0  0  0  0  0  0  0  0  0  0
   -0.7500    2.3083    0.0000 C   0  0  0  0  0  0  0  0  0  0  0  0
    0.7500    2.3083    0.0000 C   0  0  0  0  0  0  0  0  0  0  0  0
    1.9635    1.4266    0.0000 C   0  0  0  0  0  0  0  0  0  0  0  0
  1  2  1  0
  2  3  1  0
  3  4  1  0
  4  5  1  0
  5  6  1  0
  6  7  1  0
  7  8  1  0
  8  9  1  0
  9 10  1  0
 10 11  1  0
 11  2  1  0
M  END
>  <Title>  (945) 
idABIKgen6

$$$$

     RDKit          2D

 34 37  0  0  0  0  0  0  0  0999 V2000
   -3.1476   -2.1380    0.0000 C   0  0  0  0  0  0  0  0  0  0  0  0
   -1.6852   -2.4718    0.0000 C   0  0  0  0  0  0  0  0  0  0  0  0
   -1.3515   -3.9342    0.0000 C   0  0  0  0  0  0  0  0  0  0  0  0
   -0.0000   -4.5850    0.0000 C   0  0  0  0  0  0  0  0  0  0  0  0
    1.3515   -3.9342    0.0000 C   0  0  0  0  0  0  0  0  0  0  0  0
    2.5242   -4.8694    0.0000 C   0  0  0  0  0  0  0  0  0  0  0  0
    3.9205   -4.3214    0.0000 O   0  0  0  0  0  0  0  0  0  0  0  0
    2.3006   -6.3527    0.0000 N   0  0  0  0  0  0  0  0  0  0  0  0
    3.4734   -7.2879    0.0000 C   0  0  0  0  0  0  0  0  0  0  0  0
    4.8248   -6.6371    0.0000 N   0  0  0  0  0  0  0  0  0  0  0  0
    6.1763   -7.2879    0.0000 N   0  0  0  0  0  0  0  0  0  0  0  0
    6.5101   -8.7503    0.0000 N   0  0  0  0  0  0  0  0  0  0  0  0
    5.5748   -9.9230    0.0000 N   0  0  0  0  0  0  0  0  0  0  0  0
    6.2257  -11.2745    0.0000 N   0  0  0  0  0  0  0  0  0  0  0  0
    5.3807  -12.5138    0.0000 C   0  0  0  0  0  0  0  0  0  0  0  0
    6.0315  -13.8653    0.0000 C   0  0  0  0  0  0  0  0  0  0  0  0
    7.5273  -13.9774    0.0000 C   0  0  0  0  0  0  0  0  0  0  0  0
    8.1781  -15.3288    0.0000 C   0  0  0  0  0  0  0  0  0  0  0  0
    9.6739  -15.4409    0.0000 O   0  0  0  0  0  0  0  0  0  0  0  0
    7.3332  -16.5682    0.0000 N   0  0  0  0  0  0  0  0  0  0  0  0
    7.9840  -17.9197    0.0000 C   0  0  0  0  0  0  0  0  0  0  0  0
    5.8374  -16.4561    0.0000 C   0  0  0  0  0  0  0  0  0  0  0  0
    8.3723  -12.7380    0.0000 C   0  0  0  0  0  0  0  0  0  0  0  0
    9.8681  -12.8501    0.0000 O   0  0  0  0  0  0  0  0  0  0  0  0
    7.7215  -11.3866    0.0000 C   0  0  0  0  0  0  0  0  0  0  0  0
    4.0748   -9.9230    0.0000 C   0  0  0  0  0  0  0  0  0  0  0  0
    3.1396   -8.7503    0.0000 C   0  0  0  0  0  0  0  0  0  0  0  0
    1.6852   -2.4718    0.0000 C   0  0  0  0  0  0  0  0  0  0  0  0
    0.7500   -1.2990    0.0000 C   0  0  0  0  0  0  0  0  0  0  0  0
    1.5000    0.0000    0.0000 C   0  0  0  0  0  0  0  0  0  0  0  0
    0.7500    1.2990    0.0000 C   0  0  0  0  0  0  0  0  0  0  0  0
   -0.7500    1.2990    0.0000 C   0  0  0  0  0  0  0  0  0  0  0  0
   -1.5000    0.0000    0.0000 C   0  0  0  0  0  0  0  0  0  0  0  0
   -0.7500   -1.2990    0.0000 C   0  0  0  0  0  0  0  0  0  0  0  0
  1  2  1  0
  2  3  1  0
  3  4  1  0
  4  5  1  0
  5  6  1  0
  6  7  2  0
  6  8  1  0
  8  9  1  0
  9 10  2  0
 10 11  1  0
 11 12  2  0
 12 13  1  0
 13 14  1  0
 14 15  1  0
 15 16  1  0
 16 17  1  0
 17 18  1  0
 18 19  2  0
 18 20  1  0
 20 21  1  0
 20 22  1  0
 17 23  1  0
 23 24  1  0
 23 25  1  0
 13 26  1  0
 26 27  2  0
  5 28  1  0
 28 29  1  0
 29 30  2  0
 30 31  1  0
 31 32  2  0
 32 33  1  0
 33 34  2  0
 34  2  1  0
 27  9  1  0
 34 29  1  0
 25 14  1  0
M  END
>  <Title>  (946) 
idABILgen6

$$$$

     RDKit          2D

 53 60  0  0  0  0  0  0  0  0999 V2000
   -4.4218    9.0350    0.0000 C   0  0  0  0  0  0  0  0  0  0  0  0
   -3.9583    7.6085    0.0000 C   0  0  0  0  0  0  0  0  0  0  0  0
   -2.5317    7.1449    0.0000 C   0  0  0  0  0  0  0  0  0  0  0  0
   -2.5317    5.6449    0.0000 C   0  0  0  0  0  0  0  0  0  0  0  0
   -3.9583    5.1814    0.0000 C   0  0  0  0  0  0  0  0  0  0  0  0
   -4.4218    3.7548    0.0000 C   0  0  0  0  0  0  0  0  0  0  0  0
   -5.8891    3.4430    0.0000 O   0  0  0  0  0  0  0  0  0  0  0  0
   -3.4182    2.6401    0.0000 N   0  0  0  0  0  0  0  0  0  0  0  0
   -3.8817    1.2135    0.0000 C   0  0  0  0  0  0  0  0  0  0  0  0
   -5.3083    0.7500    0.0000 N   0  0  0  0  0  0  0  0  0  0  0  0
   -5.3083   -0.7500    0.0000 N   0  0  0  0  0  0  0  0  0  0  0  0
   -3.8817   -1.2135    0.0000 N   0  0  0  0  0  0  0  0  0  0  0  0
   -3.0000    0.0000    0.0000 N   0  0  0  0  0  0  0  0  0  0  0  0
   -1.5000    0.0000    0.0000 C   0  0  0  0  0  0  0  0  0  0  0  0
   -0.7500    1.2990    0.0000 C   0  0  0  0  0  0  0  0  0  0  0  0
    0.7500    1.2990    0.0000 C   0  0  0  0  0  0  0  0  0  0  0  0
    1.5000   -0.0000    0.0000 C   0  0  0  0  0  0  0  0  0  0  0  0
    0.7500   -1.2990    0.0000 C   0  0  0  0  0  0  0  0  0  0  0  0
   -0.7500   -1.2990    0.0000 C   0  0  0  0  0  0  0  0  0  0  0  0
   -1.5000   -2.5981    0.0000 C   0  0  0  0  0  0  0  0  0  0  0  0
   -3.0000   -2.5981    0.0000 C   0  0  0  0  0  0  0  0  0  0  0  0
   -3.7500   -3.8971    0.0000 C   0  0  0  0  0  0  0  0  0  0  0  0
   -3.0000   -5.1962    0.0000 C   0  0  0  0  0  0  0  0  0  0  0  0
   -3.7500   -6.4952    0.0000 C   0  0  0  0  0  0  0  0  0  0  0  0
   -4.5000   -7.7942    0.0000 N   0  0  0  0  0  0  0  0  0  0  0  0
   -1.5000   -5.1962    0.0000 C   0  0  0  0  0  0  0  0  0  0  0  0
   -0.7500   -3.8971    0.0000 C   0  0  0  0  0  0  0  0  0  0  0  0
    0.7500   -3.8971    0.0000 C   0  0  0  0  0  0  0  0  0  0  0  0
    1.5000   -2.5981    0.0000 C   0  0  0  0  0  0  0  0  0  0  0  0
    3.0000   -2.5981    0.0000 C   0  0  0  0  0  0  0  0  0  0  0  0
    3.7500   -3.8971    0.0000 C   0  0  0  0  0  0  0  0  0  0  0  0
    3.0000   -5.1962    0.0000 C   0  0  0  0  0  0  0  0  0  0  0  0
    1.5000   -5.1962    0.0000 C   0  0  0  0  0  0  0  0  0  0  0  0
    0.7500   -6.4952    0.0000 C   0  0  0  0  0  0  0  0  0  0  0  0
   -0.7500   -6.4952    0.0000 C   0  0  0  0  0  0  0  0  0  0  0  0
   -1.5000   -7.7942    0.0000 C   0  0  0  0  0  0  0  0  0  0  0  0
   -0.7500   -9.0933    0.0000 C   0  0  0  0  0  0  0  0  0  0  0  0
    0.7500   -9.0933    0.0000 C   0  0  0  0  0  0  0  0  0  0  0  0
    1.5000   -7.7942    0.0000 C   0  0  0  0  0  0  0  0  0  0  0  0
    3.0000   -7.7942    0.0000 C   0  0  0  0  0  0  0  0  0  0  0  0
    3.8817   -6.5807    0.0000 C   0  0  0  0  0  0  0  0  0  0  0  0
    5.3083   -7.0442    0.0000 C   0  0  0  0  0  0  0  0  0  0  0  0
    5.3083   -8.5442    0.0000 C   0  0  0  0  0  0  0  0  0  0  0  0
    6.5218   -9.4259    0.0000 O   0  0  0  0  0  0  0  0  0  0  0  0
    6.3650  -10.9177    0.0000 C   0  0  0  0  0  0  0  0  0  0  0  0
    4.9947  -11.5278    0.0000 C   0  0  0  0  0  0  0  0  0  0  0  0
    4.8379  -13.0196    0.0000 C   0  0  0  0  0  0  0  0  0  0  0  0
    6.0514  -13.9013    0.0000 C   0  0  0  0  0  0  0  0  0  0  0  0
    7.4217  -13.2912    0.0000 C   0  0  0  0  0  0  0  0  0  0  0  0
    7.5785  -11.7994    0.0000 C   0  0  0  0  0  0  0  0  0  0  0  0
    3.8817   -9.0078    0.0000 C   0  0  0  0  0  0  0  0  0  0  0  0
    3.4182  -10.4343    0.0000 O   0  0  0  0  0  0  0  0  0  0  0  0
   -4.8400    6.3949    0.0000 N   0  0  0  0  0  0  0  0  0  0  0  0
  1  2  1  0
  2  3  2  0
  3  4  1  0
  4  5  2  0
  5  6  1  0
  6  7  2  0
  6  8  1  0
  8  9  1  0
  9 10  2  0
 10 11  1  0
 11 12  2  0
 12 13  1  0
 13 14  1  0
 14 15  2  0
 15 16  1  0
 16 17  2  0
 17 18  1  0
 18 19  2  0
 19 20  1  0
 20 21  2  0
 21 22  1  0
 22 23  2  0
 23 24  1  0
 24 25  3  0
 23 26  1  0
 26 27  2  0
 27 28  1  0
 28 29  2  0
 29 30  1  0
 30 31  2  0
 31 32  1  0
 32 33  2  0
 33 34  1  0
 34 35  2  0
 35 36  1  0
 36 37  2  0
 37 38  1  0
 38 39  2  0
 39 40  1  0
 40 41  2  0
 41 42  1  0
 42 43  2  0
 43 44  1  0
 44 45  1  0
 45 46  2  0
 46 47  1  0
 47 48  2  0
 48 49  1  0
 49 50  2  0
 43 51  1  0
 51 52  2  0
  5 53  1  0
 53  2  1  0
 13  9  1  0
 19 14  1  0
 27 20  1  0
 33 28  1  0
 39 34  1  0
 51 40  1  0
 50 45  1  0
M  END
>  <Title>  (947) 
idABIMgen6

$$$$

     RDKit          2D

 31 31  0  0  0  0  0  0  0  0999 V2000
   14.7760   -0.0000    0.0000 C   0  0  0  0  0  0  0  0  0  0  0  0
   14.0260   -1.2990    0.0000 C   0  0  0  0  0  0  0  0  0  0  0  0
   12.5260   -1.2990    0.0000 O   0  0  0  0  0  0  0  0  0  0  0  0
   14.7760   -2.5981    0.0000 C   0  0  0  0  0  0  0  0  0  0  0  0
   16.2760   -2.5981    0.0000 C   0  0  0  0  0  0  0  0  0  0  0  0
   17.0260   -1.2990    0.0000 C   0  0  0  0  0  0  0  0  0  0  0  0
   17.7760   -0.0000    0.0000 N   0  0  0  0  0  0  0  0  0  0  0  0
   14.0260   -3.8971    0.0000 N   0  0  0  0  0  0  0  0  0  0  0  0
   12.5260   -3.8971    0.0000 C   0  0  0  0  0  0  0  0  0  0  0  0
   11.7760   -2.5981    0.0000 O   0  0  0  0  0  0  0  0  0  0  0  0
   11.7760   -5.1962    0.0000 C   0  0  0  0  0  0  0  0  0  0  0  0
   12.5260   -6.4952    0.0000 C   0  0  0  0  0  0  0  0  0  0  0  0
   10.2760   -5.1962    0.0000 C   0  0  0  0  0  0  0  0  0  0  0  0
    9.5260   -3.8971    0.0000 C   0  0  0  0  0  0  0  0  0  0  0  0
    8.0260   -3.8971    0.0000 C   0  0  0  0  0  0  0  0  0  0  0  0
    7.2760   -2.5981    0.0000 C   0  0  0  0  0  0  0  0  0  0  0  0
    8.0260   -1.2990    0.0000 O   0  0  0  0  0  0  0  0  0  0  0  0
    5.7760   -2.5981    0.0000 C   0  0  0  0  0  0  0  0  0  0  0  0
    5.0260   -1.2990    0.0000 C   0  0  0  0  0  0  0  0  0  0  0  0
    5.7760    0.0000    0.0000 O   0  0  0  0  0  0  0  0  0  0  0  0
    3.5260   -1.2990    0.0000 O   0  0  0  0  0  0  0  0  0  0  0  0
    2.7760    0.0000    0.0000 C   0  0  0  0  0  0  0  0  0  0  0  0
    3.5260    1.2990    0.0000 O   0  0  0  0  0  0  0  0  0  0  0  0
    1.2760    0.0000    0.0000 N   0  0  0  0  0  0  0  0  0  0  0  0
    0.3943    1.2135    0.0000 C   0  0  0  0  0  0  0  0  0  0  0  0
   -1.0323    0.7500    0.0000 C   0  0  0  0  0  0  0  0  0  0  0  0
   -1.0323   -0.7500    0.0000 C   0  0  0  0  0  0  0  0  0  0  0  0
   -2.2458   -1.6317    0.0000 C   0  0  0  0  0  0  0  0  0  0  0  0
   -2.0890   -3.1235    0.0000 O   0  0  0  0  0  0  0  0  0  0  0  0
   -3.6161   -1.0216    0.0000 O   0  0  0  0  0  0  0  0  0  0  0  0
    0.3943   -1.2135    0.0000 C   0  0  0  0  0  0  0  0  0  0  0  0
  1  2  1  0
  2  3  2  0
  2  4  1  0
  4  5  1  0
  5  6  1  0
  6  7  3  0
  4  8  1  0
  8  9  1  0
  9 10  2  0
  9 11  1  0
 11 12  1  0
 11 13  2  3
 13 14  1  0
 14 15  2  3
 15 16  1  0
 16 17  1  0
 16 18  1  0
 18 19  1  0
 19 20  2  0
 19 21  1  0
 21 22  1  0
 22 23  2  0
 22 24  1  0
 24 25  1  0
 25 26  1  0
 26 27  1  0
 27 28  1  0
 28 29  2  0
 28 30  1  0
 27 31  1  0
 31 24  1  0
M  END
>  <Title>  (948) 
idABINgen6

$$$$

     RDKit          2D

 44 45  0  0  0  0  0  0  0  0999 V2000
    9.6285    0.0000    0.0000 C   0  0  0  0  0  0  0  0  0  0  0  0
    8.1285    0.0000    0.0000 C   0  0  0  0  0  0  0  0  0  0  0  0
    7.9901   -1.4936    0.0000 C   0  0  0  0  0  0  0  0  0  0  0  0
    7.5796   -2.9363    0.0000 C   0  0  0  0  0  0  0  0  0  0  0  0
    6.9110   -4.2791    0.0000 C   0  0  0  0  0  0  0  0  0  0  0  0
    6.0070   -5.4761    0.0000 C   0  0  0  0  0  0  0  0  0  0  0  0
    4.8985   -6.4867    0.0000 C   0  0  0  0  0  0  0  0  0  0  0  0
    3.6232   -7.2763    0.0000 C   0  0  0  0  0  0  0  0  0  0  0  0
    2.2245   -7.8182    0.0000 C   0  0  0  0  0  0  0  0  0  0  0  0
    0.7500   -8.0938    0.0000 C   0  0  0  0  0  0  0  0  0  0  0  0
   -0.7500   -8.0938    0.0000 C   0  0  0  0  0  0  0  0  0  0  0  0
   -2.2245   -7.8182    0.0000 C   0  0  0  0  0  0  0  0  0  0  0  0
   -3.6232   -7.2763    0.0000 C   0  0  0  0  0  0  0  0  0  0  0  0
   -4.8985   -6.4867    0.0000 C   0  0  0  0  0  0  0  0  0  0  0  0
   -6.0070   -5.4761    0.0000 C   0  0  0  0  0  0  0  0  0  0  0  0
   -6.9110   -4.2791    0.0000 C   0  0  0  0  0  0  0  0  0  0  0  0
   -7.5796   -2.9363    0.0000 C   0  0  0  0  0  0  0  0  0  0  0  0
   -7.9901   -1.4936    0.0000 C   0  0  0  0  0  0  0  0  0  0  0  0
   -8.1285    0.0000    0.0000 C   0  0  0  0  0  0  0  0  0  0  0  0
   -7.9901    1.4936    0.0000 C   0  0  0  0  0  0  0  0  0  0  0  0
   -7.5796    2.9363    0.0000 C   0  0  0  0  0  0  0  0  0  0  0  0
   -6.9110    4.2791    0.0000 C   0  0  0  0  0  0  0  0  0  0  0  0
   -6.0070    5.4761    0.0000 C   0  0  0  0  0  0  0  0  0  0  0  0
   -4.8985    6.4867    0.0000 C   0  0  0  0  0  0  0  0  0  0  0  0
   -3.6232    7.2763    0.0000 C   0  0  0  0  0  0  0  0  0  0  0  0
   -2.2245    7.8182    0.0000 C   0  0  0  0  0  0  0  0  0  0  0  0
   -0.7500    8.0938    0.0000 C   0  0  0  0  0  0  0  0  0  0  0  0
    0.7500    8.0938    0.0000 C   0  0  0  0  0  0  0  0  0  0  0  0
    2.2245    7.8182    0.0000 C   0  0  0  0  0  0  0  0  0  0  0  0
    3.6232    7.2763    0.0000 C   0  0  0  0  0  0  0  0  0  0  0  0
    4.8985    6.4867    0.0000 C   0  0  0  0  0  0  0  0  0  0  0  0
    6.0070    5.4761    0.0000 N   0  0  0  0  0  0  0  0  0  0  0  0
    7.1155    6.4867    0.0000 C   0  0  0  0  0  0  0  0  0  0  0  0
    6.9110    4.2791    0.0000 C   0  0  0  0  0  0  0  0  0  0  0  0
    8.1863    5.0687    0.0000 O   0  0  0  0  0  0  0  0  0  0  0  0
    7.5796    2.9363    0.0000 C   0  0  0  0  0  0  0  0  0  0  0  0
    8.9783    3.4782    0.0000 C   0  0  0  0  0  0  0  0  0  0  0  0
    9.2084    4.9605    0.0000 C   0  0  0  0  0  0  0  0  0  0  0  0
   10.6071    5.5023    0.0000 C   0  0  0  0  0  0  0  0  0  0  0  0
   10.8372    6.9846    0.0000 C   0  0  0  0  0  0  0  0  0  0  0  0
    9.6685    7.9249    0.0000 C   0  0  0  0  0  0  0  0  0  0  0  0
    8.2698    7.3831    0.0000 C   0  0  0  0  0  0  0  0  0  0  0  0
    8.0397    5.9008    0.0000 C   0  0  0  0  0  0  0  0  0  0  0  0
    7.9901    1.4936    0.0000 C   0  0  0  0  0  0  0  0  0  0  0  0
  1  2  1  0
  2  3  1  0
  3  4  1  0
  4  5  1  0
  5  6  1  0
  6  7  1  0
  7  8  1  0
  8  9  1  0
  9 10  1  0
 10 11  1  0
 11 12  1  0
 12 13  1  0
 13 14  1  0
 14 15  1  0
 15 16  1  0
 16 17  1  0
 17 18  1  0
 18 19  1  0
 19 20  1  0
 20 21  1  0
 21 22  1  0
 22 23  1  0
 23 24  2  0
 24 25  1  0
 25 26  2  0
 26 27  1  0
 27 28  2  0
 28 29  1  0
 29 30  1  0
 30 31  1  0
 31 32  1  0
 32 33  1  0
 32 34  1  0
 34 35  2  0
 34 36  1  0
 36 37  1  0
 37 38  1  0
 38 39  2  0
 39 40  1  0
 40 41  2  0
 41 42  1  0
 42 43  2  0
 36 44  1  0
 44  2  1  0
 43 38  1  0
M  END
>  <Title>  (949) 
idABIOgen6

$$$$

     RDKit          2D

  9  9  0  0  0  0  0  0  0  0999 V2000
    3.9786   -1.2990    0.0000 C   0  0  0  0  0  0  0  0  0  0  0  0
    3.2286   -0.0000    0.0000 O   0  0  0  0  0  0  0  0  0  0  0  0
    1.7286    0.0000    0.0000 C   0  0  0  0  0  0  0  0  0  0  0  0
    1.0777    1.3515    0.0000 C   0  0  0  0  0  0  0  0  0  0  0  0
   -0.3846    1.6852    0.0000 C   0  0  0  0  0  0  0  0  0  0  0  0
   -1.5574    0.7500    0.0000 C   0  0  0  0  0  0  0  0  0  0  0  0
   -1.5574   -0.7500    0.0000 C   0  0  0  0  0  0  0  0  0  0  0  0
   -0.3846   -1.6852    0.0000 C   0  0  0  0  0  0  0  0  0  0  0  0
    1.0777   -1.3515    0.0000 C   0  0  0  0  0  0  0  0  0  0  0  0
  1  2  1  0
  2  3  1  0
  3  4  1  0
  4  5  2  0
  5  6  1  0
  6  7  1  0
  7  8  1  0
  8  9  1  0
  9  3  1  0
M  END
>  <Title>  (950) 
idABIPgen6

$$$$

     RDKit          2D

 21 23  0  0  0  0  0  0  0  0999 V2000
   -3.1476   -2.1380    0.0000 C   0  0  0  0  0  0  0  0  0  0  0  0
   -1.6852   -2.4718    0.0000 C   0  0  0  0  0  0  0  0  0  0  0  0
   -1.3515   -3.9342    0.0000 C   0  0  0  0  0  0  0  0  0  0  0  0
   -0.0000   -4.5850    0.0000 C   0  0  0  0  0  0  0  0  0  0  0  0
    1.3515   -3.9342    0.0000 C   0  0  0  0  0  0  0  0  0  0  0  0
    1.6852   -2.4718    0.0000 C   0  0  0  0  0  0  0  0  0  0  0  0
    3.1476   -2.1380    0.0000 C   0  0  0  0  0  0  0  0  0  0  0  0
    3.5898   -0.7046    0.0000 O   0  0  0  0  0  0  0  0  0  0  0  0
    4.1679   -3.2376    0.0000 N   0  0  0  0  0  0  0  0  0  0  0  0
    5.6303   -2.9038    0.0000 C   0  0  0  0  0  0  0  0  0  0  0  0
    6.6505   -4.0034    0.0000 N   0  0  0  0  0  0  0  0  0  0  0  0
    8.1129   -3.6696    0.0000 N   0  0  0  0  0  0  0  0  0  0  0  0
    8.5551   -2.2362    0.0000 N   0  0  0  0  0  0  0  0  0  0  0  0
    7.5348   -1.1367    0.0000 N   0  0  0  0  0  0  0  0  0  0  0  0
    6.0724   -1.4704    0.0000 N   0  0  0  0  0  0  0  0  0  0  0  0
    0.7500   -1.2990    0.0000 C   0  0  0  0  0  0  0  0  0  0  0  0
    1.5000    0.0000    0.0000 C   0  0  0  0  0  0  0  0  0  0  0  0
    0.7500    1.2990    0.0000 C   0  0  0  0  0  0  0  0  0  0  0  0
   -0.7500    1.2990    0.0000 C   0  0  0  0  0  0  0  0  0  0  0  0
   -1.5000    0.0000    0.0000 C   0  0  0  0  0  0  0  0  0  0  0  0
   -0.7500   -1.2990    0.0000 C   0  0  0  0  0  0  0  0  0  0  0  0
  1  2  1  0
  2  3  1  0
  3  4  1  0
  4  5  1  0
  5  6  2  0
  6  7  1  0
  7  8  2  0
  7  9  1  0
  9 10  1  0
 10 11  2  0
 11 12  1  0
 12 13  2  0
 13 14  1  0
 14 15  2  0
  6 16  1  0
 16 17  2  0
 17 18  1  0
 18 19  2  0
 19 20  1  0
 20 21  2  0
 21  2  1  0
 15 10  1  0
 21 16  1  0
M  END
>  <Title>  (951) 
idABIQgen6

$$$$

     RDKit          2D

 31 34  0  0  0  0  0  0  0  0999 V2000
    0.7500   -6.4952    0.0000 C   0  0  0  0  0  0  0  0  0  0  0  0
    1.5000   -5.1962    0.0000 C   0  0  0  0  0  0  0  0  0  0  0  0
    3.0000   -5.1962    0.0000 O   0  0  0  0  0  0  0  0  0  0  0  0
    0.7500   -3.8971    0.0000 C   0  0  0  0  0  0  0  0  0  0  0  0
    1.5000   -2.5981    0.0000 C   0  0  0  0  0  0  0  0  0  0  0  0
    0.7500   -1.2990    0.0000 C   0  0  0  0  0  0  0  0  0  0  0  0
    1.5000    0.0000    0.0000 C   0  0  0  0  0  0  0  0  0  0  0  0
    0.7500    1.2990    0.0000 C   0  0  0  0  0  0  0  0  0  0  0  0
   -0.7500    1.2990    0.0000 C   0  0  0  0  0  0  0  0  0  0  0  0
   -1.5000    2.5981    0.0000 O   0  0  0  0  0  0  0  0  0  0  0  0
   -1.5000    0.0000    0.0000 C   0  0  0  0  0  0  0  0  0  0  0  0
   -0.7500   -1.2990    0.0000 C   0  0  0  0  0  0  0  0  0  0  0  0
   -0.7500   -3.8971    0.0000 C   0  0  0  0  0  0  0  0  0  0  0  0
   -1.5000   -2.5981    0.0000 O   0  0  0  0  0  0  0  0  0  0  0  0
   -1.5000   -5.1962    0.0000 N   0  0  0  0  0  0  0  0  0  0  0  0
   -3.0000   -5.1962    0.0000 C   0  0  0  0  0  0  0  0  0  0  0  0
   -3.7500   -6.4952    0.0000 C   0  0  0  0  0  0  0  0  0  0  0  0
   -3.0000   -7.7942    0.0000 C   0  0  0  0  0  0  0  0  0  0  0  0
   -3.7500   -9.0933    0.0000 N   0  0  0  0  0  0  0  0  0  0  0  0
   -3.1399  -10.4636    0.0000 C   0  0  0  0  0  0  0  0  0  0  0  0
   -4.2546  -11.4673    0.0000 C   0  0  0  0  0  0  0  0  0  0  0  0
   -5.5537  -10.7173    0.0000 C   0  0  0  0  0  0  0  0  0  0  0  0
   -6.9240  -11.3274    0.0000 C   0  0  0  0  0  0  0  0  0  0  0  0
   -8.1375  -10.4457    0.0000 C   0  0  0  0  0  0  0  0  0  0  0  0
   -9.5078  -11.0558    0.0000 C   0  0  0  0  0  0  0  0  0  0  0  0
   -9.6646  -12.5476    0.0000 C   0  0  0  0  0  0  0  0  0  0  0  0
   -8.4511  -13.4293    0.0000 C   0  0  0  0  0  0  0  0  0  0  0  0
   -7.0808  -12.8192    0.0000 C   0  0  0  0  0  0  0  0  0  0  0  0
   -5.2418   -9.2501    0.0000 C   0  0  0  0  0  0  0  0  0  0  0  0
   -1.5000   -7.7942    0.0000 C   0  0  0  0  0  0  0  0  0  0  0  0
   -0.7500   -6.4952    0.0000 C   0  0  0  0  0  0  0  0  0  0  0  0
  1  2  1  0
  2  3  2  0
  2  4  1  0
  4  5  1  0
  5  6  1  0
  6  7  2  0
  7  8  1  0
  8  9  2  0
  9 10  1  0
  9 11  1  0
 11 12  2  0
  4 13  1  0
 13 14  2  0
 13 15  1  0
 15 16  1  0
 16 17  1  0
 17 18  1  0
 18 19  1  0
 19 20  1  0
 20 21  1  0
 21 22  1  0
 22 23  1  0
 23 24  2  0
 24 25  1  0
 25 26  2  0
 26 27  1  0
 27 28  2  0
 22 29  1  0
 18 30  1  0
 30 31  1  0
 12  6  1  0
 31 15  1  0
 29 19  1  0
 28 23  1  0
M  END
>  <Title>  (952) 
idABIRgen6

$$$$

     RDKit          2D

 22 24  0  0  0  0  0  0  0  0999 V2000
    3.7500   -1.2990    0.0000 C   0  0  0  0  0  0  0  0  0  0  0  0
    3.0000    0.0000    0.0000 O   0  0  0  0  0  0  0  0  0  0  0  0
    1.5000    0.0000    0.0000 C   0  0  0  0  0  0  0  0  0  0  0  0
    0.7500   -1.2990    0.0000 C   0  0  0  0  0  0  0  0  0  0  0  0
   -0.7500   -1.2990    0.0000 C   0  0  0  0  0  0  0  0  0  0  0  0
   -1.5000    0.0000    0.0000 C   0  0  0  0  0  0  0  0  0  0  0  0
   -3.0000    0.0000    0.0000 N   0  0  0  0  0  0  0  0  0  0  0  0
   -3.8817   -1.2135    0.0000 C   0  0  0  0  0  0  0  0  0  0  0  0
   -5.3083   -0.7500    0.0000 C   0  0  0  0  0  0  0  0  0  0  0  0
   -5.3083    0.7500    0.0000 C   0  0  0  0  0  0  0  0  0  0  0  0
   -6.5218    1.6317    0.0000 C   0  0  0  0  0  0  0  0  0  0  0  0
   -7.8921    1.0216    0.0000 O   0  0  0  0  0  0  0  0  0  0  0  0
   -6.3650    3.1235    0.0000 N   0  0  0  0  0  0  0  0  0  0  0  0
   -7.5785    4.0051    0.0000 C   0  0  0  0  0  0  0  0  0  0  0  0
   -7.4217    5.4969    0.0000 C   0  0  0  0  0  0  0  0  0  0  0  0
   -8.6353    6.3786    0.0000 C   0  0  0  0  0  0  0  0  0  0  0  0
  -10.0056    5.7685    0.0000 C   0  0  0  0  0  0  0  0  0  0  0  0
  -10.1624    4.2767    0.0000 C   0  0  0  0  0  0  0  0  0  0  0  0
   -8.9488    3.3950    0.0000 C   0  0  0  0  0  0  0  0  0  0  0  0
   -3.8817    1.2135    0.0000 C   0  0  0  0  0  0  0  0  0  0  0  0
   -0.7500    1.2990    0.0000 C   0  0  0  0  0  0  0  0  0  0  0  0
    0.7500    1.2990    0.0000 C   0  0  0  0  0  0  0  0  0  0  0  0
  1  2  1  0
  2  3  1  0
  3  4  2  0
  4  5  1  0
  5  6  2  0
  6  7  1  0
  7  8  1  0
  8  9  1  0
  9 10  1  0
 10 11  1  0
 11 12  2  0
 11 13  1  0
 13 14  1  0
 14 15  2  0
 15 16  1  0
 16 17  2  0
 17 18  1  0
 18 19  2  0
 10 20  1  0
  6 21  1  0
 21 22  1  0
 22  3  1  0
 20  7  1  0
 19 14  1  0
M  END
>  <Title>  (953) 
idABISgen6

$$$$

     RDKit          2D

 26 29  0  0  0  0  0  0  0  0999 V2000
   -0.7500   -3.8971    0.0000 O   0  0  0  0  0  0  0  0  0  0  0  0
    0.7500   -3.8971    0.0000 C   0  0  0  0  0  0  0  0  0  0  0  0
    1.5000   -2.5981    0.0000 C   0  0  0  0  0  0  0  0  0  0  0  0
    0.7500   -1.2990    0.0000 C   0  0  0  0  0  0  0  0  0  0  0  0
    1.5000    0.0000    0.0000 C   0  0  0  0  0  0  0  0  0  0  0  0
    0.7500    1.2990    0.0000 C   0  0  0  0  0  0  0  0  0  0  0  0
   -0.7500    1.2990    0.0000 C   0  0  0  0  0  0  0  0  0  0  0  0
   -1.5000    0.0000    0.0000 C   0  0  0  0  0  0  0  0  0  0  0  0
   -0.7500   -1.2990    0.0000 C   0  0  0  0  0  0  0  0  0  0  0  0
    1.5000   -5.1962    0.0000 N   0  0  0  0  0  0  0  0  0  0  0  0
    0.7500   -6.4952    0.0000 C   0  0  0  0  0  0  0  0  0  0  0  0
    1.5000   -7.7942    0.0000 C   0  0  0  0  0  0  0  0  0  0  0  0
    3.0000   -7.7942    0.0000 C   0  0  0  0  0  0  0  0  0  0  0  0
    3.7500   -9.0933    0.0000 N   0  0  0  0  0  0  0  0  0  0  0  0
    5.2418   -9.2501    0.0000 C   0  0  0  0  0  0  0  0  0  0  0  0
    5.5537  -10.7173    0.0000 C   0  0  0  0  0  0  0  0  0  0  0  0
    4.2546  -11.4673    0.0000 N   0  0  0  0  0  0  0  0  0  0  0  0
    4.0978  -12.9591    0.0000 C   0  0  0  0  0  0  0  0  0  0  0  0
    2.7275  -13.5692    0.0000 C   0  0  0  0  0  0  0  0  0  0  0  0
    2.5707  -15.0610    0.0000 C   0  0  0  0  0  0  0  0  0  0  0  0
    3.7842  -15.9426    0.0000 C   0  0  0  0  0  0  0  0  0  0  0  0
    5.1546  -15.3325    0.0000 C   0  0  0  0  0  0  0  0  0  0  0  0
    5.3113  -13.8407    0.0000 C   0  0  0  0  0  0  0  0  0  0  0  0
    3.1399  -10.4636    0.0000 C   0  0  0  0  0  0  0  0  0  0  0  0
    3.7500   -6.4952    0.0000 C   0  0  0  0  0  0  0  0  0  0  0  0
    3.0000   -5.1962    0.0000 C   0  0  0  0  0  0  0  0  0  0  0  0
  1  2  2  0
  2  3  1  0
  3  4  1  0
  4  5  2  0
  5  6  1  0
  6  7  2  0
  7  8  1  0
  8  9  2  0
  2 10  1  0
 10 11  1  0
 11 12  1  0
 12 13  1  0
 13 14  1  0
 14 15  1  0
 15 16  1  0
 16 17  1  0
 17 18  1  0
 18 19  2  0
 19 20  1  0
 20 21  2  0
 21 22  1  0
 22 23  2  0
 17 24  1  0
 13 25  1  0
 25 26  1  0
  9  4  1  0
 26 10  1  0
 24 14  1  0
 23 18  1  0
M  END
>  <Title>  (954) 
idABITgen6

$$$$

     RDKit          2D

 15 15  0  0  0  0  0  0  0  0999 V2000
    3.0000   -5.1962    0.0000 C   0  0  0  0  0  0  0  0  0  0  0  0
    3.7500   -3.8971    0.0000 C   0  0  0  0  0  0  0  0  0  0  0  0
    5.2500   -3.8971    0.0000 O   0  0  0  0  0  0  0  0  0  0  0  0
    3.0000   -2.5981    0.0000 N   0  0  0  0  0  0  0  0  0  0  0  0
    3.7500   -1.2990    0.0000 C   0  0  0  0  0  0  0  0  0  0  0  0
    3.0000    0.0000    0.0000 C   0  0  0  0  0  0  0  0  0  0  0  0
    1.5000    0.0000    0.0000 C   0  0  0  0  0  0  0  0  0  0  0  0
    0.7500   -1.2990    0.0000 C   0  0  0  0  0  0  0  0  0  0  0  0
   -0.7500   -1.2990    0.0000 C   0  0  0  0  0  0  0  0  0  0  0  0
   -1.5000    0.0000    0.0000 C   0  0  0  0  0  0  0  0  0  0  0  0
   -0.7500    1.2990    0.0000 C   0  0  0  0  0  0  0  0  0  0  0  0
    0.7500    1.2990    0.0000 C   0  0  0  0  0  0  0  0  0  0  0  0
    5.2500   -1.2990    0.0000 C   0  0  0  0  0  0  0  0  0  0  0  0
    6.0000    0.0000    0.0000 O   0  0  0  0  0  0  0  0  0  0  0  0
    6.0000   -2.5981    0.0000 O   0  0  0  0  0  0  0  0  0  0  0  0
  1  2  1  0
  2  3  2  0
  2  4  1  0
  4  5  1  0
  5  6  1  0
  6  7  1  0
  7  8  2  0
  8  9  1  0
  9 10  2  0
 10 11  1  0
 11 12  2  0
  5 13  1  0
 13 14  2  0
 13 15  1  0
 12  7  1  0
M  END
>  <Title>  (955) 
idABIUgen6

$$$$

     RDKit          2D

 39 43  0  0  0  0  0  0  0  0999 V2000
   -5.6760    1.6795    0.0000 C   0  0  0  0  0  0  0  0  0  0  0  0
   -4.1770    1.7343    0.0000 C   0  0  0  0  0  0  0  0  0  0  0  0
   -3.8072    3.1880    0.0000 C   0  0  0  0  0  0  0  0  0  0  0  0
   -2.7102    4.2110    0.0000 C   0  0  0  0  0  0  0  0  0  0  0  0
   -1.2343    4.4785    0.0000 C   0  0  0  0  0  0  0  0  0  0  0  0
    0.1520    3.9056    0.0000 C   0  0  0  0  0  0  0  0  0  0  0  0
    0.9214    2.6179    0.0000 C   0  0  0  0  0  0  0  0  0  0  0  0
    0.3943    1.2135    0.0000 C   0  0  0  0  0  0  0  0  0  0  0  0
    1.2760    0.0000    0.0000 C   0  0  0  0  0  0  0  0  0  0  0  0
    0.3943   -1.2135    0.0000 C   0  0  0  0  0  0  0  0  0  0  0  0
   -1.0323   -0.7500    0.0000 C   0  0  0  0  0  0  0  0  0  0  0  0
   -2.5335   -0.6289    0.0000 C   0  0  0  0  0  0  0  0  0  0  0  0
   -3.7022    0.3114    0.0000 C   0  0  0  0  0  0  0  0  0  0  0  0
   -1.0323    0.7500    0.0000 C   0  0  0  0  0  0  0  0  0  0  0  0
   -2.2841    1.5763    0.0000 N   0  0  0  0  0  0  0  0  0  0  0  0
   -2.4186    3.0703    0.0000 N   0  0  0  0  0  0  0  0  0  0  0  0
   -3.8230    3.5974    0.0000 N   0  0  0  0  0  0  0  0  0  0  0  0
   -4.0687    5.0771    0.0000 N   0  0  0  0  0  0  0  0  0  0  0  0
   -5.4730    5.6042    0.0000 C   0  0  0  0  0  0  0  0  0  0  0  0
   -6.6317    4.6515    0.0000 O   0  0  0  0  0  0  0  0  0  0  0  0
   -5.7188    7.0839    0.0000 N   0  0  0  0  0  0  0  0  0  0  0  0
   -7.1231    7.6110    0.0000 C   0  0  0  0  0  0  0  0  0  0  0  0
   -7.3688    9.0907    0.0000 C   0  0  0  0  0  0  0  0  0  0  0  0
   -8.7732    9.6178    0.0000 C   0  0  0  0  0  0  0  0  0  0  0  0
   -9.9318    8.6651    0.0000 C   0  0  0  0  0  0  0  0  0  0  0  0
  -11.3362    9.1922    0.0000 O   0  0  0  0  0  0  0  0  0  0  0  0
  -11.5819   10.6719    0.0000 C   0  0  0  0  0  0  0  0  0  0  0  0
  -12.9863   11.1990    0.0000 C   0  0  0  0  0  0  0  0  0  0  0  0
  -13.2320   12.6787    0.0000 C   0  0  0  0  0  0  0  0  0  0  0  0
  -14.6363   13.2057    0.0000 C   0  0  0  0  0  0  0  0  0  0  0  0
  -15.7950   12.2531    0.0000 C   0  0  0  0  0  0  0  0  0  0  0  0
  -15.5492   10.7733    0.0000 C   0  0  0  0  0  0  0  0  0  0  0  0
  -14.1449   10.2463    0.0000 C   0  0  0  0  0  0  0  0  0  0  0  0
   -9.6861    7.1854    0.0000 C   0  0  0  0  0  0  0  0  0  0  0  0
   -8.2817    6.6583    0.0000 C   0  0  0  0  0  0  0  0  0  0  0  0
   -2.9101    6.0298    0.0000 N   0  0  0  0  0  0  0  0  0  0  0  0
   -3.1558    7.5095    0.0000 C   0  0  0  0  0  0  0  0  0  0  0  0
   -1.5057    5.5027    0.0000 C   0  0  0  0  0  0  0  0  0  0  0  0
   -1.3344    4.1069    0.0000 C   0  0  0  0  0  0  0  0  0  0  0  0
  1  2  1  0
  2  3  2  0
  3  4  1  0
  4  5  1  0
  5  6  1  0
  6  7  1  0
  7  8  1  0
  8  9  2  0
  9 10  1  0
 10 11  2  0
 11 12  1  0
 12 13  1  0
 11 14  1  0
 14 15  2  0
 15 16  1  0
 16 17  1  0
 17 18  1  0
 18 19  1  0
 19 20  2  0
 19 21  1  0
 21 22  1  0
 22 23  2  0
 23 24  1  0
 24 25  2  0
 25 26  1  0
 26 27  1  0
 27 28  1  0
 28 29  2  0
 29 30  1  0
 30 31  2  0
 31 32  1  0
 32 33  2  0
 25 34  1  0
 34 35  1  0
 18 36  1  0
 36 37  1  0
 36 38  1  0
 16 39  1  0
 13  2  1  0
 35 22  1  0
 39  6  1  0
 14  8  1  0
 33 28  1  0
M  END
>  <Title>  (956) 
idABIVgen6

$$$$

     RDKit          2D

 34 37  0  0  0  0  0  0  0  0999 V2000
   -4.2479   -5.2363    0.0000 C   0  0  0  0  0  0  0  0  0  0  0  0
   -2.7990   -4.8481    0.0000 C   0  0  0  0  0  0  0  0  0  0  0  0
   -2.0490   -6.1471    0.0000 C   0  0  0  0  0  0  0  0  0  0  0  0
   -0.7500   -6.8971    0.0000 C   0  0  0  0  0  0  0  0  0  0  0  0
    0.7500   -6.8971    0.0000 C   0  0  0  0  0  0  0  0  0  0  0  0
    2.0490   -6.1471    0.0000 C   0  0  0  0  0  0  0  0  0  0  0  0
    3.1097   -7.2078    0.0000 C   0  0  0  0  0  0  0  0  0  0  0  0
    2.7215   -8.6567    0.0000 C   0  0  0  0  0  0  0  0  0  0  0  0
    2.3332  -10.1056    0.0000 N   0  0  0  0  0  0  0  0  0  0  0  0
    2.7990   -4.8481    0.0000 C   0  0  0  0  0  0  0  0  0  0  0  0
    4.2479   -5.2363    0.0000 C   0  0  0  0  0  0  0  0  0  0  0  0
    5.3086   -4.1756    0.0000 O   0  0  0  0  0  0  0  0  0  0  0  0
    4.6362   -6.6852    0.0000 N   0  0  0  0  0  0  0  0  0  0  0  0
    6.0850   -7.0734    0.0000 C   0  0  0  0  0  0  0  0  0  0  0  0
    6.4733   -8.5223    0.0000 N   0  0  0  0  0  0  0  0  0  0  0  0
    7.9222   -8.9105    0.0000 N   0  0  0  0  0  0  0  0  0  0  0  0
    8.9828   -7.8499    0.0000 N   0  0  0  0  0  0  0  0  0  0  0  0
    8.5946   -6.4010    0.0000 N   0  0  0  0  0  0  0  0  0  0  0  0
    7.1457   -6.0128    0.0000 N   0  0  0  0  0  0  0  0  0  0  0  0
    2.7990   -3.3481    0.0000 C   0  0  0  0  0  0  0  0  0  0  0  0
    4.2479   -2.9598    0.0000 O   0  0  0  0  0  0  0  0  0  0  0  0
    2.0490   -2.0490    0.0000 N   0  0  0  0  0  0  0  0  0  0  0  0
    0.7500   -1.2990    0.0000 C   0  0  0  0  0  0  0  0  0  0  0  0
    1.5000    0.0000    0.0000 C   0  0  0  0  0  0  0  0  0  0  0  0
    0.7500    1.2990    0.0000 C   0  0  0  0  0  0  0  0  0  0  0  0
   -0.7500    1.2990    0.0000 C   0  0  0  0  0  0  0  0  0  0  0  0
   -1.5000    0.0000    0.0000 C   0  0  0  0  0  0  0  0  0  0  0  0
   -0.7500   -1.2990    0.0000 C   0  0  0  0  0  0  0  0  0  0  0  0
   -2.0490   -2.0490    0.0000 C   0  0  0  0  0  0  0  0  0  0  0  0
   -2.7990   -0.7500    0.0000 C   0  0  0  0  0  0  0  0  0  0  0  0
   -4.2990   -0.7500    0.0000 C   0  0  0  0  0  0  0  0  0  0  0  0
   -5.0490   -2.0490    0.0000 C   0  0  0  0  0  0  0  0  0  0  0  0
   -4.2990   -3.3481    0.0000 C   0  0  0  0  0  0  0  0  0  0  0  0
   -2.7990   -3.3481    0.0000 C   0  0  0  0  0  0  0  0  0  0  0  0
  1  2  1  0
  2  3  1  0
  3  4  2  0
  4  5  1  0
  5  6  2  0
  6  7  1  0
  7  8  1  0
  8  9  3  0
  6 10  1  0
 10 11  1  0
 11 12  2  0
 11 13  1  0
 13 14  1  0
 14 15  2  0
 15 16  1  0
 16 17  2  0
 17 18  1  0
 18 19  2  0
 10 20  1  0
 20 21  2  0
 20 22  1  0
 22 23  1  0
 23 24  2  0
 24 25  1  0
 25 26  2  0
 26 27  1  0
 27 28  2  0
 28 29  1  0
 29 30  2  0
 30 31  1  0
 31 32  2  0
 32 33  1  0
 33 34  2  0
 34  2  1  0
 19 14  1  0
 28 23  1  0
 34 29  1  0
M  END
>  <Title>  (957) 
idABIWgen6

$$$$

     RDKit          2D

 26 28  0  0  0  0  0  0  0  0999 V2000
    4.8705    0.0000    0.0000 C   0  0  0  0  0  0  0  0  0  0  0  0
    3.3705    0.0000    0.0000 C   0  0  0  0  0  0  0  0  0  0  0  0
    3.0367   -1.4624    0.0000 C   0  0  0  0  0  0  0  0  0  0  0  0
    2.1015   -2.6351    0.0000 C   0  0  0  0  0  0  0  0  0  0  0  0
    0.7500   -3.2860    0.0000 C   0  0  0  0  0  0  0  0  0  0  0  0
   -0.7500   -3.2860    0.0000 C   0  0  0  0  0  0  0  0  0  0  0  0
   -2.1015   -2.6351    0.0000 C   0  0  0  0  0  0  0  0  0  0  0  0
   -3.0367   -1.4624    0.0000 C   0  0  0  0  0  0  0  0  0  0  0  0
   -3.3705    0.0000    0.0000 C   0  0  0  0  0  0  0  0  0  0  0  0
   -3.0367    1.4624    0.0000 C   0  0  0  0  0  0  0  0  0  0  0  0
   -2.1015    2.6351    0.0000 N   0  0  0  0  0  0  0  0  0  0  0  0
   -0.7500    3.2860    0.0000 C   0  0  0  0  0  0  0  0  0  0  0  0
    0.7500    3.2860    0.0000 C   0  0  0  0  0  0  0  0  0  0  0  0
    2.1015    2.6351    0.0000 C   0  0  0  0  0  0  0  0  0  0  0  0
    2.6495    4.0314    0.0000 C   0  0  0  0  0  0  0  0  0  0  0  0
    4.1327    4.2550    0.0000 C   0  0  0  0  0  0  0  0  0  0  0  0
    4.6807    5.6513    0.0000 C   0  0  0  0  0  0  0  0  0  0  0  0
    3.7455    6.8241    0.0000 O   0  0  0  0  0  0  0  0  0  0  0  0
    6.1640    5.8749    0.0000 N   0  0  0  0  0  0  0  0  0  0  0  0
    6.8549    7.2063    0.0000 C   0  0  0  0  0  0  0  0  0  0  0  0
    8.3347    6.9605    0.0000 C   0  0  0  0  0  0  0  0  0  0  0  0
    8.5582    5.4773    0.0000 C   0  0  0  0  0  0  0  0  0  0  0  0
    7.2167    4.8063    0.0000 C   0  0  0  0  0  0  0  0  0  0  0  0
    5.0679    3.0823    0.0000 C   0  0  0  0  0  0  0  0  0  0  0  0
    4.5199    1.6860    0.0000 C   0  0  0  0  0  0  0  0  0  0  0  0
    3.0367    1.4624    0.0000 C   0  0  0  0  0  0  0  0  0  0  0  0
  1  2  1  0
  2  3  1  0
  3  4  2  0
  4  5  1  0
  5  6  2  0
  6  7  1  0
  7  8  2  0
  8  9  1  0
  9 10  2  0
 10 11  1  0
 11 12  2  0
 12 13  1  0
 13 14  2  0
 14 15  1  0
 15 16  1  0
 16 17  1  0
 17 18  2  0
 17 19  1  0
 19 20  1  0
 20 21  2  0
 21 22  1  0
 22 23  2  0
 16 24  2  0
 24 25  1  0
 25 26  2  0
 26  2  1  0
 26 14  1  0
 23 19  1  0
M  END
>  <Title>  (958) 
idABIXgen6

$$$$

     RDKit          2D

 42 43  0  0  0  0  0  0  0  0999 V2000
    7.0496  -27.6016    0.0000 C   0  0  0  0  0  0  0  0  0  0  0  0
    8.4199  -26.9915    0.0000 C   0  0  0  0  0  0  0  0  0  0  0  0
    9.6334  -27.8732    0.0000 O   0  0  0  0  0  0  0  0  0  0  0  0
    8.5767  -25.4997    0.0000 C   0  0  0  0  0  0  0  0  0  0  0  0
    9.9470  -24.8896    0.0000 N   0  0  0  0  0  0  0  0  0  0  0  0
   10.1038  -23.3978    0.0000 C   0  0  0  0  0  0  0  0  0  0  0  0
    8.8903  -22.5162    0.0000 O   0  0  0  0  0  0  0  0  0  0  0  0
   11.4741  -22.7877    0.0000 C   0  0  0  0  0  0  0  0  0  0  0  0
   11.6309  -21.2959    0.0000 C   0  0  0  0  0  0  0  0  0  0  0  0
   10.4174  -20.4143    0.0000 C   0  0  0  0  0  0  0  0  0  0  0  0
   10.5742  -18.9225    0.0000 C   0  0  0  0  0  0  0  0  0  0  0  0
    9.3607  -18.0408    0.0000 C   0  0  0  0  0  0  0  0  0  0  0  0
    9.5174  -16.5490    0.0000 C   0  0  0  0  0  0  0  0  0  0  0  0
    8.3039  -15.6673    0.0000 C   0  0  0  0  0  0  0  0  0  0  0  0
    8.4607  -14.1756    0.0000 C   0  0  0  0  0  0  0  0  0  0  0  0
    7.2472  -13.2939    0.0000 C   0  0  0  0  0  0  0  0  0  0  0  0
    7.4040  -11.8021    0.0000 C   0  0  0  0  0  0  0  0  0  0  0  0
    6.1905  -10.9204    0.0000 C   0  0  0  0  0  0  0  0  0  0  0  0
    6.3472   -9.4286    0.0000 C   0  0  0  0  0  0  0  0  0  0  0  0
    5.1337   -8.5470    0.0000 C   0  0  0  0  0  0  0  0  0  0  0  0
    5.2905   -7.0552    0.0000 C   0  0  0  0  0  0  0  0  0  0  0  0
    4.0770   -6.1735    0.0000 C   0  0  0  0  0  0  0  0  0  0  0  0
    4.2338   -4.6817    0.0000 C   0  0  0  0  0  0  0  0  0  0  0  0
    3.0203   -3.8000    0.0000 C   0  0  0  0  0  0  0  0  0  0  0  0
    3.1771   -2.3083    0.0000 C   0  0  0  0  0  0  0  0  0  0  0  0
    1.9635   -1.4266    0.0000 C   0  0  0  0  0  0  0  0  0  0  0  0
    2.4271    0.0000    0.0000 C   0  0  0  0  0  0  0  0  0  0  0  0
    1.9635    1.4266    0.0000 C   0  0  0  0  0  0  0  0  0  0  0  0
    0.7500    2.3083    0.0000 C   0  0  0  0  0  0  0  0  0  0  0  0
   -0.7500    2.3083    0.0000 C   0  0  0  0  0  0  0  0  0  0  0  0
   -1.9635    1.4266    0.0000 C   0  0  0  0  0  0  0  0  0  0  0  0
   -2.4271    0.0000    0.0000 C   0  0  0  0  0  0  0  0  0  0  0  0
   -1.9635   -1.4266    0.0000 C   0  0  0  0  0  0  0  0  0  0  0  0
   -0.7500   -2.3083    0.0000 C   0  0  0  0  0  0  0  0  0  0  0  0
    0.7500   -2.3083    0.0000 C   0  0  0  0  0  0  0  0  0  0  0  0
   12.6876  -23.6694    0.0000 C   0  0  0  0  0  0  0  0  0  0  0  0
   12.5309  -25.1612    0.0000 C   0  0  0  0  0  0  0  0  0  0  0  0
   11.1605  -25.7713    0.0000 C   0  0  0  0  0  0  0  0  0  0  0  0
   11.0037  -27.2631    0.0000 C   0  0  0  0  0  0  0  0  0  0  0  0
   12.2173  -28.1448    0.0000 C   0  0  0  0  0  0  0  0  0  0  0  0
   13.5876  -27.5347    0.0000 C   0  0  0  0  0  0  0  0  0  0  0  0
   13.7444  -26.0429    0.0000 C   0  0  0  0  0  0  0  0  0  0  0  0
  1  2  1  0
  2  3  2  0
  2  4  1  0
  4  5  1  0
  5  6  1  0
  6  7  2  0
  6  8  1  0
  8  9  1  0
  9 10  1  0
 10 11  1  0
 11 12  2  3
 12 13  1  0
 13 14  2  3
 14 15  1  0
 15 16  2  3
 16 17  1  0
 17 18  2  3
 18 19  1  0
 19 20  2  3
 20 21  1  0
 21 22  2  3
 22 23  1  0
 23 24  2  3
 24 25  1  0
 25 26  2  3
 26 27  1  0
 27 28  2  0
 28 29  1  0
 29 30  2  0
 30 31  1  0
 31 32  2  0
 32 33  1  0
 33 34  2  0
 34 35  1  0
  8 36  1  0
 36 37  1  0
 37 38  2  0
 38 39  1  0
 39 40  2  0
 40 41  1  0
 41 42  2  0
 35 26  1  0
 42 37  1  0
M  END
>  <Title>  (959) 
idABIYgen6

$$$$

     RDKit          2D

 65 69  0  0  0  0  0  0  0  0999 V2000
   -1.6623    8.3330    0.0000 C   0  0  0  0  0  0  0  0  0  0  0  0
   -0.1791    8.1094    0.0000 C   0  0  0  0  0  0  0  0  0  0  0  0
    0.3689    6.7131    0.0000 O   0  0  0  0  0  0  0  0  0  0  0  0
    0.7562    9.2822    0.0000 O   0  0  0  0  0  0  0  0  0  0  0  0
    2.2394    9.0586    0.0000 C   0  0  0  0  0  0  0  0  0  0  0  0
    2.7874    7.6623    0.0000 O   0  0  0  0  0  0  0  0  0  0  0  0
    3.1747   10.2314    0.0000 C   0  0  0  0  0  0  0  0  0  0  0  0
    2.6266   11.6277    0.0000 C   0  0  0  0  0  0  0  0  0  0  0  0
    1.1434   11.8512    0.0000 C   0  0  0  0  0  0  0  0  0  0  0  0
    0.5954   13.2476    0.0000 C   0  0  0  0  0  0  0  0  0  0  0  0
   -0.8879   13.4711    0.0000 C   0  0  0  0  0  0  0  0  0  0  0  0
   -1.8231   12.2984    0.0000 C   0  0  0  0  0  0  0  0  0  0  0  0
   -3.3063   12.5219    0.0000 O   0  0  0  0  0  0  0  0  0  0  0  0
   -1.2751   10.9021    0.0000 C   0  0  0  0  0  0  0  0  0  0  0  0
    0.2082   10.6785    0.0000 C   0  0  0  0  0  0  0  0  0  0  0  0
    4.6579   10.0078    0.0000 N   0  0  0  0  0  0  0  0  0  0  0  0
    5.2059    8.6115    0.0000 C   0  0  0  0  0  0  0  0  0  0  0  0
    4.2707    7.4388    0.0000 O   0  0  0  0  0  0  0  0  0  0  0  0
    6.6892    8.3879    0.0000 C   0  0  0  0  0  0  0  0  0  0  0  0
    7.6244    9.5607    0.0000 C   0  0  0  0  0  0  0  0  0  0  0  0
    7.0764   10.9570    0.0000 C   0  0  0  0  0  0  0  0  0  0  0  0
    8.0116   12.1297    0.0000 C   0  0  0  0  0  0  0  0  0  0  0  0
    7.4636   13.5261    0.0000 C   0  0  0  0  0  0  0  0  0  0  0  0
    5.9804   13.7496    0.0000 C   0  0  0  0  0  0  0  0  0  0  0  0
    5.0451   12.5769    0.0000 C   0  0  0  0  0  0  0  0  0  0  0  0
    5.5931   11.1806    0.0000 C   0  0  0  0  0  0  0  0  0  0  0  0
    7.2372    6.9916    0.0000 N   0  0  0  0  0  0  0  0  0  0  0  0
    6.3019    5.8189    0.0000 C   0  0  0  0  0  0  0  0  0  0  0  0
    4.8187    6.0424    0.0000 O   0  0  0  0  0  0  0  0  0  0  0  0
    6.8499    4.4226    0.0000 C   0  0  0  0  0  0  0  0  0  0  0  0
    8.3332    4.1990    0.0000 C   0  0  0  0  0  0  0  0  0  0  0  0
    9.2684    5.3718    0.0000 C   0  0  0  0  0  0  0  0  0  0  0  0
   10.7517    5.1482    0.0000 C   0  0  0  0  0  0  0  0  0  0  0  0
   11.6869    6.3209    0.0000 C   0  0  0  0  0  0  0  0  0  0  0  0
   11.1389    7.7172    0.0000 C   0  0  0  0  0  0  0  0  0  0  0  0
    9.6556    7.9408    0.0000 C   0  0  0  0  0  0  0  0  0  0  0  0
    8.7204    6.7681    0.0000 C   0  0  0  0  0  0  0  0  0  0  0  0
    5.9147    3.2498    0.0000 N   0  0  0  0  0  0  0  0  0  0  0  0
    4.4315    3.4734    0.0000 C   0  0  0  0  0  0  0  0  0  0  0  0
    3.8835    4.8697    0.0000 O   0  0  0  0  0  0  0  0  0  0  0  0
    3.4962    2.3006    0.0000 C   0  0  0  0  0  0  0  0  0  0  0  0
    2.0130    2.5242    0.0000 C   0  0  0  0  0  0  0  0  0  0  0  0
    1.0777    1.3515    0.0000 C   0  0  0  0  0  0  0  0  0  0  0  0
    1.7286    0.0000    0.0000 C   0  0  0  0  0  0  0  0  0  0  0  0
    1.0777   -1.3515    0.0000 C   0  0  0  0  0  0  0  0  0  0  0  0
   -0.3846   -1.6852    0.0000 C   0  0  0  0  0  0  0  0  0  0  0  0
   -0.7184   -3.1476    0.0000 O   0  0  0  0  0  0  0  0  0  0  0  0
   -2.1518   -3.5898    0.0000 C   0  0  0  0  0  0  0  0  0  0  0  0
   -3.2514   -2.5695    0.0000 C   0  0  0  0  0  0  0  0  0  0  0  0
   -4.6847   -3.0116    0.0000 C   0  0  0  0  0  0  0  0  0  0  0  0
   -5.0185   -4.4740    0.0000 C   0  0  0  0  0  0  0  0  0  0  0  0
   -3.9189   -5.4943    0.0000 C   0  0  0  0  0  0  0  0  0  0  0  0
   -2.4856   -5.0522    0.0000 C   0  0  0  0  0  0  0  0  0  0  0  0
   -1.5574   -0.7500    0.0000 C   0  0  0  0  0  0  0  0  0  0  0  0
   -1.5574    0.7500    0.0000 C   0  0  0  0  0  0  0  0  0  0  0  0
   -0.3846    1.6852    0.0000 C   0  0  0  0  0  0  0  0  0  0  0  0
    4.0442    0.9043    0.0000 N   0  0  0  0  0  0  0  0  0  0  0  0
    5.5275    0.6808    0.0000 C   0  0  0  0  0  0  0  0  0  0  0  0
    6.4627    1.8535    0.0000 O   0  0  0  0  0  0  0  0  0  0  0  0
    6.0755   -0.7155    0.0000 C   0  0  0  0  0  0  0  0  0  0  0  0
    7.5587   -0.9391    0.0000 C   0  0  0  0  0  0  0  0  0  0  0  0
    8.1068   -2.3354    0.0000 O   0  0  0  0  0  0  0  0  0  0  0  0
    5.1403   -1.8883    0.0000 C   0  0  0  0  0  0  0  0  0  0  0  0
    3.6570   -1.6647    0.0000 O   0  0  0  0  0  0  0  0  0  0  0  0
    5.6883   -3.2846    0.0000 O   0  0  0  0  0  0  0  0  0  0  0  0
  1  2  1  0
  2  3  2  0
  2  4  1  0
  4  5  1  0
  5  6  2  0
  5  7  1  0
  7  8  1  0
  8  9  1  0
  9 10  2  0
 10 11  1  0
 11 12  2  0
 12 13  1  0
 12 14  1  0
 14 15  2  0
  7 16  1  0
 16 17  1  0
 17 18  2  0
 17 19  1  0
 19 20  1  0
 20 21  1  0
 21 22  2  0
 22 23  1  0
 23 24  2  0
 24 25  1  0
 25 26  2  0
 19 27  1  0
 27 28  1  0
 28 29  2  0
 28 30  1  0
 30 31  1  0
 31 32  1  0
 32 33  2  0
 33 34  1  0
 34 35  2  0
 35 36  1  0
 36 37  2  0
 30 38  1  0
 38 39  1  0
 39 40  2  0
 39 41  1  0
 41 42  1  0
 42 43  1  0
 43 44  2  0
 44 45  1  0
 45 46  2  0
 46 47  1  0
 47 48  1  0
 48 49  2  0
 49 50  1  0
 50 51  2  0
 51 52  1  0
 52 53  2  0
 46 54  1  0
 54 55  2  0
 55 56  1  0
 41 57  1  0
 57 58  1  0
 58 59  2  0
 58 60  1  0
 60 61  1  0
 61 62  2  0
 60 63  1  0
 63 64  2  0
 63 65  1  0
 15  9  1  0
 26 21  1  0
 37 32  1  0
 56 43  1  0
 53 48  1  0
M  END
>  <Title>  (960) 
idABIZgen6

$$$$

     RDKit          2D

 20 22  0  0  0  0  0  0  0  0999 V2000
   -7.7206   -1.2185    0.0000 O   0  0  0  0  0  0  0  0  0  0  0  0
   -6.2390   -0.9839    0.0000 C   0  0  0  0  0  0  0  0  0  0  0  0
   -5.7015    0.4165    0.0000 O   0  0  0  0  0  0  0  0  0  0  0  0
   -5.2950   -2.1496    0.0000 C   0  0  0  0  0  0  0  0  0  0  0  0
   -5.6833   -3.5985    0.0000 C   0  0  0  0  0  0  0  0  0  0  0  0
   -4.4253   -4.4155    0.0000 C   0  0  0  0  0  0  0  0  0  0  0  0
   -3.2595   -3.4715    0.0000 N   0  0  0  0  0  0  0  0  0  0  0  0
   -1.8107   -3.8597    0.0000 C   0  0  0  0  0  0  0  0  0  0  0  0
   -1.4224   -5.3086    0.0000 O   0  0  0  0  0  0  0  0  0  0  0  0
   -0.7500   -2.7990    0.0000 N   0  0  0  0  0  0  0  0  0  0  0  0
    0.7500   -2.7990    0.0000 C   0  0  0  0  0  0  0  0  0  0  0  0
    0.7500   -1.2990    0.0000 C   0  0  0  0  0  0  0  0  0  0  0  0
    1.5000    0.0000    0.0000 C   0  0  0  0  0  0  0  0  0  0  0  0
    0.7500    1.2990    0.0000 C   0  0  0  0  0  0  0  0  0  0  0  0
   -0.7500    1.2990    0.0000 C   0  0  0  0  0  0  0  0  0  0  0  0
   -1.5000    2.5981    0.0000 O   0  0  0  0  0  0  0  0  0  0  0  0
   -1.5000    0.0000    0.0000 C   0  0  0  0  0  0  0  0  0  0  0  0
   -0.7500   -1.2990    0.0000 C   0  0  0  0  0  0  0  0  0  0  0  0
   -3.7971   -2.0711    0.0000 C   0  0  0  0  0  0  0  0  0  0  0  0
   -2.9801   -0.8131    0.0000 O   0  0  0  0  0  0  0  0  0  0  0  0
  1  2  2  0
  2  3  1  0
  2  4  1  0
  4  5  1  0
  5  6  1  0
  6  7  1  0
  7  8  1  0
  8  9  2  0
  8 10  1  0
 10 11  1  0
 11 12  1  0
 12 13  2  0
 13 14  1  0
 14 15  2  0
 15 16  1  0
 15 17  1  0
 17 18  2  0
  7 19  1  0
 19 20  2  0
 19  4  1  0
 18 10  1  0
 18 12  1  0
M  END
>  <Title>  (961) 
idABJAgen6

$$$$

     RDKit          2D

 13 13  0  0  0  0  0  0  0  0999 V2000
    8.2500   -3.8971    0.0000 C   0  0  0  0  0  0  0  0  0  0  0  0
    7.5000   -2.5981    0.0000 C   0  0  0  0  0  0  0  0  0  0  0  0
    6.0000   -2.5981    0.0000 C   0  0  0  0  0  0  0  0  0  0  0  0
    5.2500   -1.2990    0.0000 C   0  0  0  0  0  0  0  0  0  0  0  0
    3.7500   -1.2990    0.0000 C   0  0  0  0  0  0  0  0  0  0  0  0
    3.0000   -2.5981    0.0000 O   0  0  0  0  0  0  0  0  0  0  0  0
    3.0000    0.0000    0.0000 N   0  0  0  0  0  0  0  0  0  0  0  0
    1.5000    0.0000    0.0000 C   0  0  0  0  0  0  0  0  0  0  0  0
    0.7500   -1.2990    0.0000 N   0  0  0  0  0  0  0  0  0  0  0  0
   -0.7500   -1.2990    0.0000 N   0  0  0  0  0  0  0  0  0  0  0  0
   -1.5000    0.0000    0.0000 N   0  0  0  0  0  0  0  0  0  0  0  0
   -0.7500    1.2990    0.0000 N   0  0  0  0  0  0  0  0  0  0  0  0
    0.7500    1.2990    0.0000 N   0  0  0  0  0  0  0  0  0  0  0  0
  1  2  1  0
  2  3  1  0
  3  4  1  0
  4  5  1  0
  5  6  2  0
  5  7  1  0
  7  8  1  0
  8  9  2  0
  9 10  1  0
 10 11  2  0
 11 12  1  0
 12 13  2  0
 13  8  1  0
M  END
>  <Title>  (962) 
idABJBgen6

$$$$

     RDKit          2D

 22 24  0  0  0  0  0  0  0  0999 V2000
   10.0355    0.6881    0.0000 C   0  0  0  0  0  0  0  0  0  0  0  0
    8.5683    0.3762    0.0000 C   0  0  0  0  0  0  0  0  0  0  0  0
    7.4536    1.3799    0.0000 C   0  0  0  0  0  0  0  0  0  0  0  0
    6.1545    0.6299    0.0000 C   0  0  0  0  0  0  0  0  0  0  0  0
    6.4664   -0.8373    0.0000 C   0  0  0  0  0  0  0  0  0  0  0  0
    5.4627   -1.9520    0.0000 C   0  0  0  0  0  0  0  0  0  0  0  0
    5.9262   -3.3786    0.0000 O   0  0  0  0  0  0  0  0  0  0  0  0
    3.9955   -1.6402    0.0000 N   0  0  0  0  0  0  0  0  0  0  0  0
    2.9918   -2.7549    0.0000 C   0  0  0  0  0  0  0  0  0  0  0  0
    3.3037   -4.2221    0.0000 N   0  0  0  0  0  0  0  0  0  0  0  0
    2.0046   -4.9721    0.0000 N   0  0  0  0  0  0  0  0  0  0  0  0
    0.8899   -3.9684    0.0000 N   0  0  0  0  0  0  0  0  0  0  0  0
    1.5000   -2.5981    0.0000 N   0  0  0  0  0  0  0  0  0  0  0  0
    0.7500   -1.2990    0.0000 C   0  0  0  0  0  0  0  0  0  0  0  0
    1.5000    0.0000    0.0000 C   0  0  0  0  0  0  0  0  0  0  0  0
    0.7500    1.2990    0.0000 C   0  0  0  0  0  0  0  0  0  0  0  0
   -0.7500    1.2990    0.0000 C   0  0  0  0  0  0  0  0  0  0  0  0
   -1.5000    2.5981    0.0000 C   0  0  0  0  0  0  0  0  0  0  0  0
   -2.2500    3.8971    0.0000 N   0  0  0  0  0  0  0  0  0  0  0  0
   -1.5000    0.0000    0.0000 C   0  0  0  0  0  0  0  0  0  0  0  0
   -0.7500   -1.2990    0.0000 C   0  0  0  0  0  0  0  0  0  0  0  0
    7.9582   -0.9941    0.0000 C   0  0  0  0  0  0  0  0  0  0  0  0
  1  2  1  0
  2  3  1  0
  3  4  2  0
  4  5  1  0
  5  6  1  0
  6  7  2  0
  6  8  1  0
  8  9  1  0
  9 10  2  0
 10 11  1  0
 11 12  2  0
 12 13  1  0
 13 14  1  0
 14 15  2  0
 15 16  1  0
 16 17  2  0
 17 18  1  0
 18 19  3  0
 17 20  1  0
 20 21  2  0
  5 22  1  0
 22  2  1  0
 13  9  1  0
 21 14  1  0
M  END
>  <Title>  (963) 
idABJCgen6

$$$$

     RDKit          2D

 23 23  0  0  0  0  0  0  0  0999 V2000
    6.7700    0.0000    0.0000 C   0  0  0  0  0  0  0  0  0  0  0  0
    5.2700    0.0000    0.0000 C   0  0  0  0  0  0  0  0  0  0  0  0
    5.0565   -1.4847    0.0000 C   0  0  0  0  0  0  0  0  0  0  0  0
    4.4334   -2.8492    0.0000 C   0  0  0  0  0  0  0  0  0  0  0  0
    3.4511   -3.9828    0.0000 C   0  0  0  0  0  0  0  0  0  0  0  0
    2.1892   -4.7938    0.0000 C   0  0  0  0  0  0  0  0  0  0  0  0
    0.7500   -5.2164    0.0000 C   0  0  0  0  0  0  0  0  0  0  0  0
   -0.7500   -5.2164    0.0000 C   0  0  0  0  0  0  0  0  0  0  0  0
   -2.1892   -4.7938    0.0000 C   0  0  0  0  0  0  0  0  0  0  0  0
   -3.4511   -3.9828    0.0000 C   0  0  0  0  0  0  0  0  0  0  0  0
   -4.4334   -2.8492    0.0000 C   0  0  0  0  0  0  0  0  0  0  0  0
   -5.0565   -1.4847    0.0000 C   0  0  0  0  0  0  0  0  0  0  0  0
   -5.2700    0.0000    0.0000 C   0  0  0  0  0  0  0  0  0  0  0  0
   -5.0565    1.4847    0.0000 C   0  0  0  0  0  0  0  0  0  0  0  0
   -4.4334    2.8492    0.0000 C   0  0  0  0  0  0  0  0  0  0  0  0
   -3.4511    3.9828    0.0000 C   0  0  0  0  0  0  0  0  0  0  0  0
   -2.1892    4.7938    0.0000 C   0  0  0  0  0  0  0  0  0  0  0  0
   -0.7500    5.2164    0.0000 C   0  0  0  0  0  0  0  0  0  0  0  0
    0.7500    5.2164    0.0000 C   0  0  0  0  0  0  0  0  0  0  0  0
    2.1892    4.7938    0.0000 C   0  0  0  0  0  0  0  0  0  0  0  0
    3.4511    3.9828    0.0000 N   0  0  0  0  0  0  0  0  0  0  0  0
    4.4334    2.8492    0.0000 N   0  0  0  0  0  0  0  0  0  0  0  0
    5.0565    1.4847    0.0000 N   0  0  0  0  0  0  0  0  0  0  0  0
  1  2  1  0
  2  3  1  0
  3  4  2  0
  4  5  1  0
  5  6  1  0
  6  7  1  0
  7  8  1  0
  8  9  1  0
  9 10  1  0
 10 11  1  0
 11 12  1  0
 12 13  1  0
 13 14  1  0
 14 15  1  0
 15 16  1  0
 16 17  1  0
 17 18  1  0
 18 19  1  0
 19 20  1  0
 20 21  2  0
 21 22  1  0
 22 23  2  0
 23  2  1  0
M  END
>  <Title>  (964) 
idABJDgen6

$$$$

     RDKit          2D

 22 23  0  0  0  0  0  0  0  0999 V2000
    1.7781    9.2822    0.0000 C   0  0  0  0  0  0  0  0  0  0  0  0
    1.3968    7.8315    0.0000 C   0  0  0  0  0  0  0  0  0  0  0  0
    2.4625    6.7759    0.0000 O   0  0  0  0  0  0  0  0  0  0  0  0
   -0.0502    7.4364    0.0000 N   0  0  0  0  0  0  0  0  0  0  0  0
   -0.4316    5.9857    0.0000 C   0  0  0  0  0  0  0  0  0  0  0  0
    0.8530    5.2111    0.0000 N   0  0  0  0  0  0  0  0  0  0  0  0
    1.5148    3.8650    0.0000 N   0  0  0  0  0  0  0  0  0  0  0  0
    1.3438    2.3747    0.0000 N   0  0  0  0  0  0  0  0  0  0  0  0
    0.3943    1.2135    0.0000 N   0  0  0  0  0  0  0  0  0  0  0  0
    1.2760    0.0000    0.0000 C   0  0  0  0  0  0  0  0  0  0  0  0
    2.7760    0.0000    0.0000 O   0  0  0  0  0  0  0  0  0  0  0  0
    0.3943   -1.2135    0.0000 O   0  0  0  0  0  0  0  0  0  0  0  0
   -1.0323   -0.7500    0.0000 C   0  0  0  0  0  0  0  0  0  0  0  0
   -2.2458   -1.6317    0.0000 O   0  0  0  0  0  0  0  0  0  0  0  0
   -1.0323    0.7500    0.0000 C   0  0  0  0  0  0  0  0  0  0  0  0
   -2.4830    1.1313    0.0000 C   0  0  0  0  0  0  0  0  0  0  0  0
   -3.4973    2.2364    0.0000 C   0  0  0  0  0  0  0  0  0  0  0  0
   -3.7531    3.7145    0.0000 C   0  0  0  0  0  0  0  0  0  0  0  0
   -5.2433    3.8855    0.0000 O   0  0  0  0  0  0  0  0  0  0  0  0
   -3.1691    5.0962    0.0000 O   0  0  0  0  0  0  0  0  0  0  0  0
   -1.9309    5.9428    0.0000 C   0  0  0  0  0  0  0  0  0  0  0  0
   -2.3945    7.3694    0.0000 O   0  0  0  0  0  0  0  0  0  0  0  0
  1  2  1  0
  2  3  2  0
  2  4  1  0
  4  5  1  0
  5  6  2  0
  6  7  1  0
  7  8  2  0
  8  9  1  0
  9 10  1  0
 10 11  2  0
 10 12  1  0
 12 13  1  0
 13 14  2  0
 13 15  1  0
 15 16  1  0
 16 17  1  0
 17 18  1  0
 18 19  2  0
 18 20  1  0
 20 21  1  0
 21 22  2  0
 21  5  1  0
 15  9  1  0
M  END
>  <Title>  (965) 
idABJEgen6

$$$$

     RDKit          2D

 32 32  0  0  0  0  0  0  0  0999 V2000
    3.0000   -7.7942    0.0000 C   0  0  0  0  0  0  0  0  0  0  0  0
    3.7500   -6.4952    0.0000 C   0  0  0  0  0  0  0  0  0  0  0  0
    3.0000   -5.1962    0.0000 C   0  0  0  0  0  0  0  0  0  0  0  0
    1.5000   -5.1962    0.0000 C   0  0  0  0  0  0  0  0  0  0  0  0
    0.7500   -6.4952    0.0000 C   0  0  0  0  0  0  0  0  0  0  0  0
    0.7500   -3.8971    0.0000 O   0  0  0  0  0  0  0  0  0  0  0  0
    3.7500   -3.8971    0.0000 C   0  0  0  0  0  0  0  0  0  0  0  0
    5.2500   -3.8971    0.0000 O   0  0  0  0  0  0  0  0  0  0  0  0
    3.0000   -2.5981    0.0000 C   0  0  0  0  0  0  0  0  0  0  0  0
    3.7500   -1.2990    0.0000 N   0  0  0  0  0  0  0  0  0  0  0  0
    5.2500   -1.2990    0.0000 C   0  0  0  0  0  0  0  0  0  0  0  0
    3.0000    0.0000    0.0000 C   0  0  0  0  0  0  0  0  0  0  0  0
    3.7500    1.2990    0.0000 O   0  0  0  0  0  0  0  0  0  0  0  0
    1.5000    0.0000    0.0000 C   0  0  0  0  0  0  0  0  0  0  0  0
    0.7500   -1.2990    0.0000 C   0  0  0  0  0  0  0  0  0  0  0  0
   -0.7500   -1.2990    0.0000 C   0  0  0  0  0  0  0  0  0  0  0  0
   -1.5000    0.0000    0.0000 C   0  0  0  0  0  0  0  0  0  0  0  0
   -0.7500    1.2990    0.0000 C   0  0  0  0  0  0  0  0  0  0  0  0
    0.7500    1.2990    0.0000 C   0  0  0  0  0  0  0  0  0  0  0  0
    1.5000    2.5981    0.0000 C   0  0  0  0  0  0  0  0  0  0  0  0
    0.7500    3.8971    0.0000 C   0  0  0  0  0  0  0  0  0  0  0  0
   -0.7500    3.8971    0.0000 O   0  0  0  0  0  0  0  0  0  0  0  0
    1.5000    5.1962    0.0000 O   0  0  0  0  0  0  0  0  0  0  0  0
    0.7500    6.4952    0.0000 C   0  0  0  0  0  0  0  0  0  0  0  0
   -0.7500    6.4952    0.0000 O   0  0  0  0  0  0  0  0  0  0  0  0
    1.5000    7.7942    0.0000 C   0  0  0  0  0  0  0  0  0  0  0  0
    0.7500    9.0933    0.0000 C   0  0  0  0  0  0  0  0  0  0  0  0
   -0.7500    9.0933    0.0000 O   0  0  0  0  0  0  0  0  0  0  0  0
    1.5000   10.3923    0.0000 O   0  0  0  0  0  0  0  0  0  0  0  0
    3.0000    7.7942    0.0000 C   0  0  0  0  0  0  0  0  0  0  0  0
    3.7500    6.4952    0.0000 O   0  0  0  0  0  0  0  0  0  0  0  0
    3.7500    9.0933    0.0000 O   0  0  0  0  0  0  0  0  0  0  0  0
  1  2  1  0
  2  3  2  3
  3  4  1  0
  4  5  1  0
  4  6  2  0
  3  7  1  0
  7  8  2  0
  7  9  1  0
  9 10  1  0
 10 11  1  0
 10 12  1  0
 12 13  2  0
 12 14  1  0
 14 15  2  0
 15 16  1  0
 16 17  2  0
 17 18  1  0
 18 19  2  0
 19 20  1  0
 20 21  1  0
 21 22  2  0
 21 23  1  0
 23 24  1  0
 24 25  2  0
 24 26  1  0
 26 27  1  0
 27 28  2  0
 27 29  1  0
 26 30  1  0
 30 31  2  0
 30 32  1  0
 19 14  1  0
M  END
>  <Title>  (966) 
idABJFgen6

$$$$

     RDKit          2D

 13 14  0  0  0  0  0  0  0  0999 V2000
    1.6910   -7.9557    0.0000 N   0  0  0  0  0  0  0  0  0  0  0  0
    1.8478   -6.4639    0.0000 C   0  0  0  0  0  0  0  0  0  0  0  0
    2.0046   -4.9721    0.0000 C   0  0  0  0  0  0  0  0  0  0  0  0
    3.3037   -4.2221    0.0000 C   0  0  0  0  0  0  0  0  0  0  0  0
    2.9918   -2.7549    0.0000 C   0  0  0  0  0  0  0  0  0  0  0  0
    1.5000   -2.5981    0.0000 C   0  0  0  0  0  0  0  0  0  0  0  0
    0.7500   -1.2990    0.0000 C   0  0  0  0  0  0  0  0  0  0  0  0
    1.5000    0.0000    0.0000 C   0  0  0  0  0  0  0  0  0  0  0  0
    0.7500    1.2990    0.0000 C   0  0  0  0  0  0  0  0  0  0  0  0
   -0.7500    1.2990    0.0000 C   0  0  0  0  0  0  0  0  0  0  0  0
   -1.5000    0.0000    0.0000 C   0  0  0  0  0  0  0  0  0  0  0  0
   -0.7500   -1.2990    0.0000 C   0  0  0  0  0  0  0  0  0  0  0  0
    0.8899   -3.9684    0.0000 C   0  0  0  0  0  0  0  0  0  0  0  0
  1  2  3  0
  2  3  1  0
  3  4  2  0
  4  5  1  0
  5  6  2  0
  6  7  1  0
  7  8  2  0
  8  9  1  0
  9 10  2  0
 10 11  1  0
 11 12  2  0
  6 13  1  0
 13  3  1  0
 12  7  1  0
M  END
>  <Title>  (967) 
idABJGgen6

$$$$

     RDKit          2D

  8  8  0  0  0  0  0  0  0  0999 V2000
    3.7500   -1.2990    0.0000 C   0  0  0  0  0  0  0  0  0  0  0  0
    3.0000    0.0000    0.0000 O   0  0  0  0  0  0  0  0  0  0  0  0
    1.5000    0.0000    0.0000 C   0  0  0  0  0  0  0  0  0  0  0  0
    0.7500   -1.2990    0.0000 C   0  0  0  0  0  0  0  0  0  0  0  0
   -0.7500   -1.2990    0.0000 C   0  0  0  0  0  0  0  0  0  0  0  0
   -1.5000    0.0000    0.0000 C   0  0  0  0  0  0  0  0  0  0  0  0
   -0.7500    1.2990    0.0000 C   0  0  0  0  0  0  0  0  0  0  0  0
    0.7500    1.2990    0.0000 C   0  0  0  0  0  0  0  0  0  0  0  0
  1  2  1  0
  2  3  1  0
  3  4  2  0
  4  5  1  0
  5  6  2  0
  6  7  1  0
  7  8  1  0
  8  3  1  0
M  END
>  <Title>  (968) 
idABJHgen6

$$$$

     RDKit          2D

 21 23  0  0  0  0  0  0  0  0999 V2000
   -4.3786   -5.1199    0.0000 C   0  0  0  0  0  0  0  0  0  0  0  0
   -2.9520   -4.6564    0.0000 C   0  0  0  0  0  0  0  0  0  0  0  0
   -2.6401   -3.1891    0.0000 C   0  0  0  0  0  0  0  0  0  0  0  0
   -1.2135   -2.7256    0.0000 C   0  0  0  0  0  0  0  0  0  0  0  0
   -0.0000   -3.6073    0.0000 C   0  0  0  0  0  0  0  0  0  0  0  0
    1.2135   -2.7256    0.0000 C   0  0  0  0  0  0  0  0  0  0  0  0
    2.6401   -3.1891    0.0000 C   0  0  0  0  0  0  0  0  0  0  0  0
    3.7548   -2.1855    0.0000 O   0  0  0  0  0  0  0  0  0  0  0  0
    2.9520   -4.6564    0.0000 N   0  0  0  0  0  0  0  0  0  0  0  0
    4.3786   -5.1199    0.0000 C   0  0  0  0  0  0  0  0  0  0  0  0
    4.6904   -6.5871    0.0000 N   0  0  0  0  0  0  0  0  0  0  0  0
    6.1170   -7.0506    0.0000 N   0  0  0  0  0  0  0  0  0  0  0  0
    7.2317   -6.0469    0.0000 N   0  0  0  0  0  0  0  0  0  0  0  0
    6.9199   -4.5797    0.0000 N   0  0  0  0  0  0  0  0  0  0  0  0
    5.4933   -4.1162    0.0000 N   0  0  0  0  0  0  0  0  0  0  0  0
    0.7500   -1.2990    0.0000 C   0  0  0  0  0  0  0  0  0  0  0  0
    1.5000    0.0000    0.0000 C   0  0  0  0  0  0  0  0  0  0  0  0
    0.7500    1.2990    0.0000 C   0  0  0  0  0  0  0  0  0  0  0  0
   -0.7500    1.2990    0.0000 C   0  0  0  0  0  0  0  0  0  0  0  0
   -1.5000    0.0000    0.0000 C   0  0  0  0  0  0  0  0  0  0  0  0
   -0.7500   -1.2990    0.0000 C   0  0  0  0  0  0  0  0  0  0  0  0
  1  2  1  0
  2  3  1  0
  3  4  1  0
  4  5  2  0
  5  6  1  0
  6  7  1  0
  7  8  2  0
  7  9  1  0
  9 10  1  0
 10 11  2  0
 11 12  1  0
 12 13  2  0
 13 14  1  0
 14 15  2  0
  6 16  1  0
 16 17  2  0
 17 18  1  0
 18 19  2  0
 19 20  1  0
 20 21  2  0
 21  4  1  0
 15 10  1  0
 21 16  1  0
M  END
>  <Title>  (969) 
idABJIgen6

$$$$

     RDKit          2D

 26 27  0  0  0  0  0  0  0  0999 V2000
    0.7500   -9.0933    0.0000 C   0  0  0  0  0  0  0  0  0  0  0  0
    1.5000   -7.7942    0.0000 C   0  0  0  0  0  0  0  0  0  0  0  0
    3.0000   -7.7942    0.0000 O   0  0  0  0  0  0  0  0  0  0  0  0
    0.7500   -6.4952    0.0000 O   0  0  0  0  0  0  0  0  0  0  0  0
    1.5000   -5.1962    0.0000 C   0  0  0  0  0  0  0  0  0  0  0  0
    3.0000   -5.1962    0.0000 O   0  0  0  0  0  0  0  0  0  0  0  0
    0.7500   -3.8971    0.0000 C   0  0  0  0  0  0  0  0  0  0  0  0
    1.5000   -2.5981    0.0000 C   0  0  0  0  0  0  0  0  0  0  0  0
    0.7500   -1.2990    0.0000 C   0  0  0  0  0  0  0  0  0  0  0  0
    1.5000    0.0000    0.0000 C   0  0  0  0  0  0  0  0  0  0  0  0
    0.7500    1.2990    0.0000 C   0  0  0  0  0  0  0  0  0  0  0  0
   -0.7500    1.2990    0.0000 C   0  0  0  0  0  0  0  0  0  0  0  0
   -1.5000    0.0000    0.0000 C   0  0  0  0  0  0  0  0  0  0  0  0
   -0.7500   -1.2990    0.0000 C   0  0  0  0  0  0  0  0  0  0  0  0
   -0.7500   -3.8971    0.0000 N   0  0  0  0  0  0  0  0  0  0  0  0
   -1.5000   -5.1962    0.0000 C   0  0  0  0  0  0  0  0  0  0  0  0
   -0.7500   -6.4952    0.0000 O   0  0  0  0  0  0  0  0  0  0  0  0
   -3.0000   -5.1962    0.0000 C   0  0  0  0  0  0  0  0  0  0  0  0
   -3.8817   -6.4097    0.0000 C   0  0  0  0  0  0  0  0  0  0  0  0
   -5.3083   -5.9462    0.0000 C   0  0  0  0  0  0  0  0  0  0  0  0
   -5.3083   -4.4462    0.0000 C   0  0  0  0  0  0  0  0  0  0  0  0
   -6.5218   -3.5645    0.0000 C   0  0  0  0  0  0  0  0  0  0  0  0
   -7.8921   -4.1746    0.0000 O   0  0  0  0  0  0  0  0  0  0  0  0
   -6.3650   -2.0727    0.0000 O   0  0  0  0  0  0  0  0  0  0  0  0
   -3.8817   -3.9826    0.0000 C   0  0  0  0  0  0  0  0  0  0  0  0
   -3.4182   -2.5560    0.0000 O   0  0  0  0  0  0  0  0  0  0  0  0
  1  2  1  0
  2  3  2  0
  2  4  1  0
  4  5  1  0
  5  6  2  0
  5  7  1  0
  7  8  1  0
  8  9  1  0
  9 10  2  0
 10 11  1  0
 11 12  2  0
 12 13  1  0
 13 14  2  0
  7 15  1  0
 15 16  1  0
 16 17  2  0
 16 18  1  0
 18 19  1  0
 19 20  1  0
 20 21  1  0
 21 22  1  0
 22 23  2  0
 22 24  1  0
 21 25  1  0
 25 26  2  0
 14  9  1  0
 25 18  1  0
M  END
>  <Title>  (970) 
idABJJgen6

$$$$

     RDKit          2D

 39 44  0  0  0  0  0  0  0  0999 V2000
   -3.1771   -1.2990    0.0000 C   0  0  0  0  0  0  0  0  0  0  0  0
   -1.9635   -2.1807    0.0000 C   0  0  0  0  0  0  0  0  0  0  0  0
   -2.4271   -3.6073    0.0000 C   0  0  0  0  0  0  0  0  0  0  0  0
   -1.9635   -5.0339    0.0000 C   0  0  0  0  0  0  0  0  0  0  0  0
   -0.7500   -5.9156    0.0000 C   0  0  0  0  0  0  0  0  0  0  0  0
   -1.2135   -7.3421    0.0000 C   0  0  0  0  0  0  0  0  0  0  0  0
   -0.2098   -8.4569    0.0000 O   0  0  0  0  0  0  0  0  0  0  0  0
   -2.6807   -7.6540    0.0000 N   0  0  0  0  0  0  0  0  0  0  0  0
   -3.1443   -9.0806    0.0000 C   0  0  0  0  0  0  0  0  0  0  0  0
   -4.6115   -9.3925    0.0000 N   0  0  0  0  0  0  0  0  0  0  0  0
   -5.0750  -10.8191    0.0000 N   0  0  0  0  0  0  0  0  0  0  0  0
   -4.0713  -11.9338    0.0000 N   0  0  0  0  0  0  0  0  0  0  0  0
   -2.6041  -11.6219    0.0000 N   0  0  0  0  0  0  0  0  0  0  0  0
   -2.1406  -10.1953    0.0000 N   0  0  0  0  0  0  0  0  0  0  0  0
    0.7500   -5.9156    0.0000 C   0  0  0  0  0  0  0  0  0  0  0  0
    0.9068   -7.4073    0.0000 C   0  0  0  0  0  0  0  0  0  0  0  0
    2.2771   -8.0175    0.0000 C   0  0  0  0  0  0  0  0  0  0  0  0
    3.4906   -7.1358    0.0000 C   0  0  0  0  0  0  0  0  0  0  0  0
    4.8610   -7.7459    0.0000 O   0  0  0  0  0  0  0  0  0  0  0  0
    5.0177   -9.2377    0.0000 C   0  0  0  0  0  0  0  0  0  0  0  0
    6.3881   -9.8478    0.0000 C   0  0  0  0  0  0  0  0  0  0  0  0
    6.5449  -11.3395    0.0000 C   0  0  0  0  0  0  0  0  0  0  0  0
    7.9152  -11.9497    0.0000 C   0  0  0  0  0  0  0  0  0  0  0  0
    9.1287  -11.0680    0.0000 C   0  0  0  0  0  0  0  0  0  0  0  0
    8.9719   -9.5762    0.0000 C   0  0  0  0  0  0  0  0  0  0  0  0
    7.6016   -8.9661    0.0000 C   0  0  0  0  0  0  0  0  0  0  0  0
    3.3338   -5.6440    0.0000 C   0  0  0  0  0  0  0  0  0  0  0  0
    1.9635   -5.0339    0.0000 C   0  0  0  0  0  0  0  0  0  0  0  0
    2.4271   -3.6073    0.0000 C   0  0  0  0  0  0  0  0  0  0  0  0
    3.9271   -3.6073    0.0000 C   0  0  0  0  0  0  0  0  0  0  0  0
    4.3906   -2.1807    0.0000 C   0  0  0  0  0  0  0  0  0  0  0  0
    3.1771   -1.2990    0.0000 C   0  0  0  0  0  0  0  0  0  0  0  0
    1.9635   -2.1807    0.0000 C   0  0  0  0  0  0  0  0  0  0  0  0
    0.7500   -1.2990    0.0000 C   0  0  0  0  0  0  0  0  0  0  0  0
    1.5000    0.0000    0.0000 C   0  0  0  0  0  0  0  0  0  0  0  0
    0.7500    1.2990    0.0000 C   0  0  0  0  0  0  0  0  0  0  0  0
   -0.7500    1.2990    0.0000 C   0  0  0  0  0  0  0  0  0  0  0  0
   -1.5000    0.0000    0.0000 C   0  0  0  0  0  0  0  0  0  0  0  0
   -0.7500   -1.2990    0.0000 C   0  0  0  0  0  0  0  0  0  0  0  0
  1  2  1  0
  2  3  1  0
  3  4  1  0
  4  5  1  0
  5  6  1  0
  6  7  2  0
  6  8  1  0
  8  9  1  0
  9 10  2  0
 10 11  1  0
 11 12  2  0
 12 13  1  0
 13 14  2  0
  5 15  1  0
 15 16  2  0
 16 17  1  0
 17 18  2  0
 18 19  1  0
 19 20  1  0
 20 21  1  0
 21 22  2  0
 22 23  1  0
 23 24  2  0
 24 25  1  0
 25 26  2  0
 18 27  1  0
 27 28  1  0
 28 29  2  0
 29 30  1  0
 30 31  2  0
 31 32  1  0
 32 33  2  0
 33 34  1  0
 34 35  2  0
 35 36  1  0
 36 37  2  0
 37 38  1  0
 38 39  2  0
 39  2  1  0
 14  9  1  0
 28 15  1  0
 33 29  1  0
 39 34  1  0
 26 21  1  0
M  END
>  <Title>  (971) 
idABJKgen6

$$$$

     RDKit          2D

 14 15  0  0  0  0  0  0  0  0999 V2000
    3.6929    0.0000    0.0000 C   0  0  0  0  0  0  0  0  0  0  0  0
    2.1929    0.0000    0.0000 C   0  0  0  0  0  0  0  0  0  0  0  0
    1.6798    1.4095    0.0000 C   0  0  0  0  0  0  0  0  0  0  0  0
    0.3808    2.1595    0.0000 C   0  0  0  0  0  0  0  0  0  0  0  0
   -1.0964    1.8991    0.0000 C   0  0  0  0  0  0  0  0  0  0  0  0
   -2.0606    0.7500    0.0000 C   0  0  0  0  0  0  0  0  0  0  0  0
   -2.0606   -0.7500    0.0000 N   0  0  0  0  0  0  0  0  0  0  0  0
   -3.4514   -1.3119    0.0000 C   0  0  0  0  0  0  0  0  0  0  0  0
   -4.7235   -0.5170    0.0000 O   0  0  0  0  0  0  0  0  0  0  0  0
   -3.3467   -2.8083    0.0000 C   0  0  0  0  0  0  0  0  0  0  0  0
   -1.8913   -3.1711    0.0000 C   0  0  0  0  0  0  0  0  0  0  0  0
   -1.0964   -1.8991    0.0000 C   0  0  0  0  0  0  0  0  0  0  0  0
    0.3808   -2.1595    0.0000 C   0  0  0  0  0  0  0  0  0  0  0  0
    1.6798   -1.4095    0.0000 C   0  0  0  0  0  0  0  0  0  0  0  0
  1  2  1  0
  2  3  1  0
  3  4  1  0
  4  5  1  0
  5  6  1  0
  6  7  1  0
  7  8  1  0
  8  9  2  0
  8 10  1  0
 10 11  1  0
 11 12  1  0
 12 13  1  0
 13 14  1  0
 14  2  1  0
 12  7  1  0
M  END
>  <Title>  (972) 
idABJLgen6

$$$$

     RDKit          2D

 20 22  0  0  0  0  0  0  0  0999 V2000
    5.9262   -3.3786    0.0000 O   0  0  0  0  0  0  0  0  0  0  0  0
    5.4627   -1.9520    0.0000 C   0  0  0  0  0  0  0  0  0  0  0  0
    3.9955   -1.6402    0.0000 N   0  0  0  0  0  0  0  0  0  0  0  0
    2.9918   -2.7549    0.0000 C   0  0  0  0  0  0  0  0  0  0  0  0
    3.3037   -4.2221    0.0000 N   0  0  0  0  0  0  0  0  0  0  0  0
    2.0046   -4.9721    0.0000 N   0  0  0  0  0  0  0  0  0  0  0  0
    0.8899   -3.9684    0.0000 N   0  0  0  0  0  0  0  0  0  0  0  0
    1.5000   -2.5981    0.0000 N   0  0  0  0  0  0  0  0  0  0  0  0
    0.7500   -1.2990    0.0000 C   0  0  0  0  0  0  0  0  0  0  0  0
    1.5000    0.0000    0.0000 C   0  0  0  0  0  0  0  0  0  0  0  0
    0.7500    1.2990    0.0000 C   0  0  0  0  0  0  0  0  0  0  0  0
   -0.7500    1.2990    0.0000 C   0  0  0  0  0  0  0  0  0  0  0  0
   -1.5000    0.0000    0.0000 C   0  0  0  0  0  0  0  0  0  0  0  0
   -0.7500   -1.2990    0.0000 C   0  0  0  0  0  0  0  0  0  0  0  0
    6.4664   -0.8373    0.0000 C   0  0  0  0  0  0  0  0  0  0  0  0
    6.1545    0.6299    0.0000 C   0  0  0  0  0  0  0  0  0  0  0  0
    7.4536    1.3799    0.0000 C   0  0  0  0  0  0  0  0  0  0  0  0
    8.5683    0.3762    0.0000 C   0  0  0  0  0  0  0  0  0  0  0  0
   10.0355    0.6881    0.0000 O   0  0  0  0  0  0  0  0  0  0  0  0
    7.9582   -0.9941    0.0000 C   0  0  0  0  0  0  0  0  0  0  0  0
  1  2  2  0
  2  3  1  0
  3  4  1  0
  4  5  2  0
  5  6  1  0
  6  7  2  0
  7  8  1  0
  8  9  1  0
  9 10  2  0
 10 11  1  0
 11 12  2  0
 12 13  1  0
 13 14  2  0
  2 15  1  0
 15 16  1  0
 16 17  1  0
 17 18  1  0
 18 19  1  0
 18 20  1  0
  8  4  1  0
 14  9  1  0
 20 15  1  0
M  END
>  <Title>  (973) 
idABJMgen6

$$$$

     RDKit          2D

 30 33  0  0  0  0  0  0  0  0999 V2000
   -4.5474   -1.9091    0.0000 C   0  0  0  0  0  0  0  0  0  0  0  0
   -3.1771   -1.2990    0.0000 O   0  0  0  0  0  0  0  0  0  0  0  0
   -1.9635   -2.1807    0.0000 C   0  0  0  0  0  0  0  0  0  0  0  0
   -2.4271   -3.6073    0.0000 C   0  0  0  0  0  0  0  0  0  0  0  0
   -1.9635   -5.0339    0.0000 C   0  0  0  0  0  0  0  0  0  0  0  0
   -0.7500   -5.9156    0.0000 C   0  0  0  0  0  0  0  0  0  0  0  0
    0.7500   -5.9156    0.0000 C   0  0  0  0  0  0  0  0  0  0  0  0
    1.9635   -5.0339    0.0000 C   0  0  0  0  0  0  0  0  0  0  0  0
    2.4271   -3.6073    0.0000 C   0  0  0  0  0  0  0  0  0  0  0  0
    1.9635   -2.1807    0.0000 C   0  0  0  0  0  0  0  0  0  0  0  0
    3.1771   -1.2990    0.0000 C   0  0  0  0  0  0  0  0  0  0  0  0
    3.0203    0.1927    0.0000 O   0  0  0  0  0  0  0  0  0  0  0  0
    4.5474   -1.9091    0.0000 O   0  0  0  0  0  0  0  0  0  0  0  0
    5.7609   -1.0275    0.0000 C   0  0  0  0  0  0  0  0  0  0  0  0
    5.7609    0.4725    0.0000 N   0  0  0  0  0  0  0  0  0  0  0  0
    7.1875    0.9361    0.0000 N   0  0  0  0  0  0  0  0  0  0  0  0
    8.0692   -0.2775    0.0000 N   0  0  0  0  0  0  0  0  0  0  0  0
    7.1875   -1.4910    0.0000 N   0  0  0  0  0  0  0  0  0  0  0  0
    7.6510   -2.9176    0.0000 C   0  0  0  0  0  0  0  0  0  0  0  0
    6.6473   -4.0323    0.0000 C   0  0  0  0  0  0  0  0  0  0  0  0
    7.1108   -5.4589    0.0000 C   0  0  0  0  0  0  0  0  0  0  0  0
    8.5781   -5.7707    0.0000 C   0  0  0  0  0  0  0  0  0  0  0  0
    9.5818   -4.6560    0.0000 C   0  0  0  0  0  0  0  0  0  0  0  0
    9.1182   -3.2294    0.0000 C   0  0  0  0  0  0  0  0  0  0  0  0
    0.7500   -1.2990    0.0000 C   0  0  0  0  0  0  0  0  0  0  0  0
    1.5000    0.0000    0.0000 C   0  0  0  0  0  0  0  0  0  0  0  0
    0.7500    1.2990    0.0000 C   0  0  0  0  0  0  0  0  0  0  0  0
   -0.7500    1.2990    0.0000 C   0  0  0  0  0  0  0  0  0  0  0  0
   -1.5000    0.0000    0.0000 C   0  0  0  0  0  0  0  0  0  0  0  0
   -0.7500   -1.2990    0.0000 C   0  0  0  0  0  0  0  0  0  0  0  0
  1  2  1  0
  2  3  1  0
  3  4  2  0
  4  5  1  0
  5  6  2  0
  6  7  1  0
  7  8  2  0
  8  9  1  0
  9 10  2  0
 10 11  1  0
 11 12  2  0
 11 13  1  0
 13 14  1  0
 14 15  2  0
 15 16  1  0
 16 17  2  0
 17 18  1  0
 18 19  1  0
 19 20  2  0
 20 21  1  0
 21 22  2  0
 22 23  1  0
 23 24  2  0
 10 25  1  0
 25 26  2  0
 26 27  1  0
 27 28  2  0
 28 29  1  0
 29 30  2  0
 30  3  1  0
 18 14  1  0
 24 19  1  0
 30 25  1  0
M  END
>  <Title>  (974) 
idABJNgen6

$$$$

     RDKit          2D

 29 32  0  0  0  0  0  0  0  0999 V2000
    3.3923   -5.9209    0.0000 C   0  0  0  0  0  0  0  0  0  0  0  0
    3.1965   -4.4337    0.0000 O   0  0  0  0  0  0  0  0  0  0  0  0
    1.8107   -3.8597    0.0000 C   0  0  0  0  0  0  0  0  0  0  0  0
    0.7500   -4.9204    0.0000 C   0  0  0  0  0  0  0  0  0  0  0  0
   -0.7500   -4.9204    0.0000 C   0  0  0  0  0  0  0  0  0  0  0  0
   -1.8107   -3.8597    0.0000 C   0  0  0  0  0  0  0  0  0  0  0  0
   -3.1965   -4.4337    0.0000 C   0  0  0  0  0  0  0  0  0  0  0  0
   -3.3923   -5.9209    0.0000 O   0  0  0  0  0  0  0  0  0  0  0  0
   -4.3865   -3.5206    0.0000 N   0  0  0  0  0  0  0  0  0  0  0  0
   -5.7723   -4.0946    0.0000 C   0  0  0  0  0  0  0  0  0  0  0  0
   -6.9624   -3.1815    0.0000 N   0  0  0  0  0  0  0  0  0  0  0  0
   -8.3482   -3.7555    0.0000 N   0  0  0  0  0  0  0  0  0  0  0  0
   -8.5440   -5.2427    0.0000 N   0  0  0  0  0  0  0  0  0  0  0  0
   -7.3539   -6.1558    0.0000 N   0  0  0  0  0  0  0  0  0  0  0  0
   -5.9681   -5.5818    0.0000 N   0  0  0  0  0  0  0  0  0  0  0  0
   -1.8107   -2.3597    0.0000 C   0  0  0  0  0  0  0  0  0  0  0  0
   -1.8107   -0.8597    0.0000 C   0  0  0  0  0  0  0  0  0  0  0  0
   -0.7500    0.2010    0.0000 C   0  0  0  0  0  0  0  0  0  0  0  0
    0.7500    0.2010    0.0000 C   0  0  0  0  0  0  0  0  0  0  0  0
    0.8678    0.9894    0.0000 C   0  0  0  0  0  0  0  0  0  0  0  0
    1.8107   -0.8597    0.0000 C   0  0  0  0  0  0  0  0  0  0  0  0
    3.1965   -0.2857    0.0000 O   0  0  0  0  0  0  0  0  0  0  0  0
    1.8107   -2.3597    0.0000 N   0  0  0  0  0  0  0  0  0  0  0  0
    0.7500   -1.2990    0.0000 C   0  0  0  0  0  0  0  0  0  0  0  0
    1.5000    0.0000    0.0000 C   0  0  0  0  0  0  0  0  0  0  0  0
    0.7500    1.2990    0.0000 C   0  0  0  0  0  0  0  0  0  0  0  0
   -0.7500    1.2990    0.0000 C   0  0  0  0  0  0  0  0  0  0  0  0
   -1.5000    0.0000    0.0000 C   0  0  0  0  0  0  0  0  0  0  0  0
   -0.7500   -1.2990    0.0000 C   0  0  0  0  0  0  0  0  0  0  0  0
  1  2  1  0
  2  3  1  0
  3  4  2  0
  4  5  1  0
  5  6  2  0
  6  7  1  0
  7  8  2  0
  7  9  1  0
  9 10  1  0
 10 11  2  0
 11 12  1  0
 12 13  2  0
 13 14  1  0
 14 15  2  0
  6 16  1  0
 16 17  2  0
 17 18  1  0
 18 19  2  0
 19 20  1  0
 19 21  1  0
 21 22  2  0
 21 23  1  0
 23 24  1  0
 24 25  2  0
 25 26  1  0
 26 27  2  0
 27 28  1  0
 28 29  2  0
 23  3  1  0
 29 24  1  0
 15 10  1  0
 29 16  1  0
M  END
>  <Title>  (975) 
idABJOgen6

$$$$

     RDKit          2D

 20 22  0  0  0  0  0  0  0  0999 V2000
    3.0000    0.0000    0.0000 C   0  0  0  0  0  0  0  0  0  0  0  0
    1.5000    0.0000    0.0000 C   0  0  0  0  0  0  0  0  0  0  0  0
    0.7500   -1.2990    0.0000 C   0  0  0  0  0  0  0  0  0  0  0  0
   -0.7500   -1.2990    0.0000 C   0  0  0  0  0  0  0  0  0  0  0  0
   -1.5000    0.0000    0.0000 C   0  0  0  0  0  0  0  0  0  0  0  0
   -3.0000    0.0000    0.0000 C   0  0  0  0  0  0  0  0  0  0  0  0
   -3.7500   -1.2990    0.0000 O   0  0  0  0  0  0  0  0  0  0  0  0
   -3.7500    1.2990    0.0000 N   0  0  0  0  0  0  0  0  0  0  0  0
   -5.2418    1.4558    0.0000 C   0  0  0  0  0  0  0  0  0  0  0  0
   -5.5537    2.9231    0.0000 C   0  0  0  0  0  0  0  0  0  0  0  0
   -4.2546    3.6731    0.0000 C   0  0  0  0  0  0  0  0  0  0  0  0
   -4.0978    5.1648    0.0000 C   0  0  0  0  0  0  0  0  0  0  0  0
   -2.7275    5.7749    0.0000 C   0  0  0  0  0  0  0  0  0  0  0  0
   -2.5707    7.2667    0.0000 C   0  0  0  0  0  0  0  0  0  0  0  0
   -3.7842    8.1484    0.0000 C   0  0  0  0  0  0  0  0  0  0  0  0
   -5.1546    7.5383    0.0000 C   0  0  0  0  0  0  0  0  0  0  0  0
   -5.3113    6.0465    0.0000 C   0  0  0  0  0  0  0  0  0  0  0  0
   -3.1399    2.6694    0.0000 C   0  0  0  0  0  0  0  0  0  0  0  0
   -0.7500    1.2990    0.0000 C   0  0  0  0  0  0  0  0  0  0  0  0
    0.7500    1.2990    0.0000 C   0  0  0  0  0  0  0  0  0  0  0  0
  1  2  1  0
  2  3  1  0
  3  4  1  0
  4  5  1  0
  5  6  1  0
  6  7  2  0
  6  8  1  0
  8  9  1  0
  9 10  1  0
 10 11  1  0
 11 12  1  0
 12 13  2  0
 13 14  1  0
 14 15  2  0
 15 16  1  0
 16 17  2  0
 11 18  1  0
  5 19  1  0
 19 20  1  0
 20  2  1  0
 18  8  1  0
 17 12  1  0
M  END
>  <Title>  (976) 
idABJPgen6

$$$$

     RDKit          2D

 24 26  0  0  0  0  0  0  0  0999 V2000
   -2.3737   -6.1885    0.0000 C   0  0  0  0  0  0  0  0  0  0  0  0
   -1.4095   -5.0395    0.0000 C   0  0  0  0  0  0  0  0  0  0  0  0
   -0.0000   -5.5525    0.0000 C   0  0  0  0  0  0  0  0  0  0  0  0
    1.4095   -5.0395    0.0000 C   0  0  0  0  0  0  0  0  0  0  0  0
    2.1595   -3.7404    0.0000 C   0  0  0  0  0  0  0  0  0  0  0  0
    3.6368   -4.0009    0.0000 O   0  0  0  0  0  0  0  0  0  0  0  0
    1.8991   -2.2632    0.0000 N   0  0  0  0  0  0  0  0  0  0  0  0
    0.7500   -1.2990    0.0000 N   0  0  0  0  0  0  0  0  0  0  0  0
    1.5000    0.0000    0.0000 C   0  0  0  0  0  0  0  0  0  0  0  0
    0.7500    1.2990    0.0000 C   0  0  0  0  0  0  0  0  0  0  0  0
   -0.7500    1.2990    0.0000 C   0  0  0  0  0  0  0  0  0  0  0  0
   -1.5000    2.5981    0.0000 N   0  0  0  0  0  0  0  0  0  0  0  0
   -0.7500    3.8971    0.0000 C   0  0  0  0  0  0  0  0  0  0  0  0
   -3.0000    2.5981    0.0000 C   0  0  0  0  0  0  0  0  0  0  0  0
   -1.5000    0.0000    0.0000 C   0  0  0  0  0  0  0  0  0  0  0  0
   -0.7500   -1.2990    0.0000 C   0  0  0  0  0  0  0  0  0  0  0  0
   -1.8991   -2.2632    0.0000 C   0  0  0  0  0  0  0  0  0  0  0  0
   -3.1981   -1.5132    0.0000 C   0  0  0  0  0  0  0  0  0  0  0  0
   -3.1981   -0.0132    0.0000 C   0  0  0  0  0  0  0  0  0  0  0  0
   -4.4971    0.7368    0.0000 C   0  0  0  0  0  0  0  0  0  0  0  0
   -5.7962   -0.0132    0.0000 C   0  0  0  0  0  0  0  0  0  0  0  0
   -5.7962   -1.5132    0.0000 C   0  0  0  0  0  0  0  0  0  0  0  0
   -4.4971   -2.2632    0.0000 C   0  0  0  0  0  0  0  0  0  0  0  0
   -2.1595   -3.7404    0.0000 C   0  0  0  0  0  0  0  0  0  0  0  0
  1  2  1  0
  2  3  1  0
  3  4  1  0
  4  5  1  0
  5  6  2  0
  5  7  1  0
  7  8  1  0
  8  9  1  0
  9 10  1  0
 10 11  1  0
 11 12  1  0
 12 13  1  0
 12 14  1  0
 11 15  1  0
 15 16  2  0
 16 17  1  0
 17 18  1  0
 18 19  2  0
 19 20  1  0
 20 21  2  0
 21 22  1  0
 22 23  2  0
 17 24  1  0
 24  2  1  0
 16  8  1  0
 23 18  1  0
M  END
>  <Title>  (977) 
idABJQgen6

$$$$

     RDKit          2D

 19 19  0  0  0  0  0  0  0  0999 V2000
    6.0000   -2.5981    0.0000 C   0  0  0  0  0  0  0  0  0  0  0  0
    5.2500   -1.2990    0.0000 C   0  0  0  0  0  0  0  0  0  0  0  0
    6.0000    0.0000    0.0000 O   0  0  0  0  0  0  0  0  0  0  0  0
    3.7500   -1.2990    0.0000 C   0  0  0  0  0  0  0  0  0  0  0  0
    3.0000    0.0000    0.0000 C   0  0  0  0  0  0  0  0  0  0  0  0
    1.5000    0.0000    0.0000 C   0  0  0  0  0  0  0  0  0  0  0  0
    0.7500   -1.2990    0.0000 C   0  0  0  0  0  0  0  0  0  0  0  0
   -0.7500   -1.2990    0.0000 C   0  0  0  0  0  0  0  0  0  0  0  0
   -1.5000    0.0000    0.0000 C   0  0  0  0  0  0  0  0  0  0  0  0
   -0.7500    1.2990    0.0000 C   0  0  0  0  0  0  0  0  0  0  0  0
    0.7500    1.2990    0.0000 C   0  0  0  0  0  0  0  0  0  0  0  0
    3.0000   -2.5981    0.0000 N   0  0  0  0  0  0  0  0  0  0  0  0
    3.7500   -3.8971    0.0000 C   0  0  0  0  0  0  0  0  0  0  0  0
    5.2500   -3.8971    0.0000 O   0  0  0  0  0  0  0  0  0  0  0  0
    3.0000   -5.1962    0.0000 C   0  0  0  0  0  0  0  0  0  0  0  0
    3.7500   -6.4952    0.0000 C   0  0  0  0  0  0  0  0  0  0  0  0
    3.0000   -7.7942    0.0000 C   0  0  0  0  0  0  0  0  0  0  0  0
    1.5000   -7.7942    0.0000 O   0  0  0  0  0  0  0  0  0  0  0  0
    3.7500   -9.0933    0.0000 O   0  0  0  0  0  0  0  0  0  0  0  0
  1  2  1  0
  2  3  2  0
  2  4  1  0
  4  5  1  0
  5  6  1  0
  6  7  2  0
  7  8  1  0
  8  9  2  0
  9 10  1  0
 10 11  2  0
  4 12  1  0
 12 13  1  0
 13 14  2  0
 13 15  1  0
 15 16  1  0
 16 17  1  0
 17 18  2  0
 17 19  1  0
 11  6  1  0
M  END
>  <Title>  (978) 
idABJRgen6

$$$$

     RDKit          2D

 33 37  0  0  0  0  0  0  0  0999 V2000
   -3.7500   -3.8971    0.0000 C   0  0  0  0  0  0  0  0  0  0  0  0
   -3.0000   -2.5981    0.0000 C   0  0  0  0  0  0  0  0  0  0  0  0
   -3.7500   -1.2990    0.0000 N   0  0  0  0  0  0  0  0  0  0  0  0
   -5.2500   -1.2990    0.0000 C   0  0  0  0  0  0  0  0  0  0  0  0
   -6.0000   -2.5981    0.0000 O   0  0  0  0  0  0  0  0  0  0  0  0
   -6.0000    0.0000    0.0000 C   0  0  0  0  0  0  0  0  0  0  0  0
   -5.2500    1.2990    0.0000 C   0  0  0  0  0  0  0  0  0  0  0  0
   -6.0000    2.5981    0.0000 C   0  0  0  0  0  0  0  0  0  0  0  0
   -7.5000    2.5981    0.0000 C   0  0  0  0  0  0  0  0  0  0  0  0
   -8.2500    1.2990    0.0000 C   0  0  0  0  0  0  0  0  0  0  0  0
   -7.5000    0.0000    0.0000 C   0  0  0  0  0  0  0  0  0  0  0  0
   -1.5000   -2.5981    0.0000 N   0  0  0  0  0  0  0  0  0  0  0  0
   -0.7500   -3.8971    0.0000 C   0  0  0  0  0  0  0  0  0  0  0  0
    0.7500   -3.8971    0.0000 C   0  0  0  0  0  0  0  0  0  0  0  0
    1.5000   -2.5981    0.0000 C   0  0  0  0  0  0  0  0  0  0  0  0
    3.0000   -2.5981    0.0000 N   0  0  0  0  0  0  0  0  0  0  0  0
    3.7500   -3.8971    0.0000 C   0  0  0  0  0  0  0  0  0  0  0  0
    5.2500   -3.8971    0.0000 C   0  0  0  0  0  0  0  0  0  0  0  0
    6.0000   -2.5981    0.0000 C   0  0  0  0  0  0  0  0  0  0  0  0
    7.5000   -2.5981    0.0000 N   0  0  0  0  0  0  0  0  0  0  0  0
    8.3817   -1.3846    0.0000 C   0  0  0  0  0  0  0  0  0  0  0  0
    9.8083   -1.8481    0.0000 C   0  0  0  0  0  0  0  0  0  0  0  0
    9.8083   -3.3481    0.0000 C   0  0  0  0  0  0  0  0  0  0  0  0
   11.0218   -4.2298    0.0000 O   0  0  0  0  0  0  0  0  0  0  0  0
    8.3817   -3.8116    0.0000 N   0  0  0  0  0  0  0  0  0  0  0  0
    5.2500   -1.2990    0.0000 C   0  0  0  0  0  0  0  0  0  0  0  0
    3.7500   -1.2990    0.0000 C   0  0  0  0  0  0  0  0  0  0  0  0
    0.7500   -1.2990    0.0000 C   0  0  0  0  0  0  0  0  0  0  0  0
    1.5000    0.0000    0.0000 C   0  0  0  0  0  0  0  0  0  0  0  0
    0.7500    1.2990    0.0000 C   0  0  0  0  0  0  0  0  0  0  0  0
   -0.7500    1.2990    0.0000 C   0  0  0  0  0  0  0  0  0  0  0  0
   -1.5000    0.0000    0.0000 C   0  0  0  0  0  0  0  0  0  0  0  0
   -0.7500   -1.2990    0.0000 C   0  0  0  0  0  0  0  0  0  0  0  0
  1  2  1  0
  2  3  1  0
  3  4  1  0
  4  5  2  0
  4  6  1  0
  6  7  2  0
  7  8  1  0
  8  9  2  0
  9 10  1  0
 10 11  2  0
  2 12  1  0
 12 13  1  0
 13 14  1  0
 14 15  1  0
 15 16  1  0
 16 17  1  0
 17 18  1  0
 18 19  1  0
 19 20  1  0
 20 21  1  0
 21 22  1  0
 22 23  1  0
 23 24  2  0
 23 25  1  0
 19 26  1  0
 26 27  1  0
 15 28  1  0
 28 29  2  0
 29 30  1  0
 30 31  2  0
 31 32  1  0
 32 33  2  0
 11  6  1  0
 33 12  1  0
 27 16  1  0
 33 28  1  0
 25 20  1  0
M  END
>  <Title>  (979) 
idABJSgen6

$$$$

     RDKit          2D

 27 30  0  0  0  0  0  0  0  0999 V2000
   -2.6401   -3.1891    0.0000 C   0  0  0  0  0  0  0  0  0  0  0  0
   -1.2135   -2.7256    0.0000 C   0  0  0  0  0  0  0  0  0  0  0  0
   -0.0000   -3.6073    0.0000 C   0  0  0  0  0  0  0  0  0  0  0  0
    1.2135   -2.7256    0.0000 C   0  0  0  0  0  0  0  0  0  0  0  0
    2.6401   -3.1891    0.0000 C   0  0  0  0  0  0  0  0  0  0  0  0
    2.9520   -4.6564    0.0000 C   0  0  0  0  0  0  0  0  0  0  0  0
    1.8373   -5.6601    0.0000 O   0  0  0  0  0  0  0  0  0  0  0  0
    4.3786   -5.1199    0.0000 N   0  0  0  0  0  0  0  0  0  0  0  0
    4.6904   -6.5871    0.0000 C   0  0  0  0  0  0  0  0  0  0  0  0
    3.6867   -7.7018    0.0000 N   0  0  0  0  0  0  0  0  0  0  0  0
    4.4367   -9.0009    0.0000 N   0  0  0  0  0  0  0  0  0  0  0  0
    5.9040   -8.6890    0.0000 N   0  0  0  0  0  0  0  0  0  0  0  0
    6.0607   -7.1972    0.0000 N   0  0  0  0  0  0  0  0  0  0  0  0
    7.3598   -6.4472    0.0000 C   0  0  0  0  0  0  0  0  0  0  0  0
    7.3598   -4.9472    0.0000 C   0  0  0  0  0  0  0  0  0  0  0  0
    8.6588   -4.1972    0.0000 C   0  0  0  0  0  0  0  0  0  0  0  0
    9.9579   -4.9472    0.0000 C   0  0  0  0  0  0  0  0  0  0  0  0
    9.9579   -6.4472    0.0000 C   0  0  0  0  0  0  0  0  0  0  0  0
    8.6588   -7.1972    0.0000 C   0  0  0  0  0  0  0  0  0  0  0  0
    8.6588   -8.6972    0.0000 O   0  0  0  0  0  0  0  0  0  0  0  0
    0.7500   -1.2990    0.0000 C   0  0  0  0  0  0  0  0  0  0  0  0
    1.5000    0.0000    0.0000 C   0  0  0  0  0  0  0  0  0  0  0  0
    0.7500    1.2990    0.0000 C   0  0  0  0  0  0  0  0  0  0  0  0
   -0.7500    1.2990    0.0000 C   0  0  0  0  0  0  0  0  0  0  0  0
   -1.5000    2.5981    0.0000 Cl  0  0  0  0  0  0  0  0  0  0  0  0
   -1.5000    0.0000    0.0000 C   0  0  0  0  0  0  0  0  0  0  0  0
   -0.7500   -1.2990    0.0000 C   0  0  0  0  0  0  0  0  0  0  0  0
  1  2  1  0
  2  3  1  0
  3  4  1  0
  4  5  1  0
  5  6  1  0
  6  7  2  0
  6  8  1  0
  8  9  1  0
  9 10  2  0
 10 11  1  0
 11 12  2  0
 12 13  1  0
 13 14  1  0
 14 15  2  0
 15 16  1  0
 16 17  1  0
 17 18  1  0
 18 19  1  0
 19 20  2  0
  4 21  1  0
 21 22  2  0
 22 23  1  0
 23 24  2  0
 24 25  1  0
 24 26  1  0
 26 27  2  0
 27  2  1  0
 13  9  1  0
 19 14  1  0
 27 21  1  0
M  END
>  <Title>  (980) 
idABJTgen6

$$$$

     RDKit          2D

 27 30  0  0  0  0  0  0  0  0999 V2000
   -2.3737   -6.1885    0.0000 C   0  0  0  0  0  0  0  0  0  0  0  0
   -1.4095   -5.0395    0.0000 C   0  0  0  0  0  0  0  0  0  0  0  0
   -0.0000   -5.5525    0.0000 C   0  0  0  0  0  0  0  0  0  0  0  0
    1.4095   -5.0395    0.0000 C   0  0  0  0  0  0  0  0  0  0  0  0
    2.1595   -3.7404    0.0000 C   0  0  0  0  0  0  0  0  0  0  0  0
    1.8991   -2.2632    0.0000 C   0  0  0  0  0  0  0  0  0  0  0  0
    3.1981   -1.5132    0.0000 C   0  0  0  0  0  0  0  0  0  0  0  0
    3.1981   -0.0132    0.0000 O   0  0  0  0  0  0  0  0  0  0  0  0
    4.4971   -2.2632    0.0000 N   0  0  0  0  0  0  0  0  0  0  0  0
    5.7962   -1.5132    0.0000 C   0  0  0  0  0  0  0  0  0  0  0  0
    7.0952   -2.2632    0.0000 N   0  0  0  0  0  0  0  0  0  0  0  0
    8.3943   -1.5132    0.0000 N   0  0  0  0  0  0  0  0  0  0  0  0
    8.3943   -0.0132    0.0000 N   0  0  0  0  0  0  0  0  0  0  0  0
    7.0952    0.7368    0.0000 N   0  0  0  0  0  0  0  0  0  0  0  0
    5.7962   -0.0132    0.0000 N   0  0  0  0  0  0  0  0  0  0  0  0
    0.7500   -1.2990    0.0000 C   0  0  0  0  0  0  0  0  0  0  0  0
    1.5000    0.0000    0.0000 C   0  0  0  0  0  0  0  0  0  0  0  0
    0.7500    1.2990    0.0000 C   0  0  0  0  0  0  0  0  0  0  0  0
   -0.7500    1.2990    0.0000 C   0  0  0  0  0  0  0  0  0  0  0  0
   -1.5000    0.0000    0.0000 C   0  0  0  0  0  0  0  0  0  0  0  0
   -0.7500   -1.2990    0.0000 C   0  0  0  0  0  0  0  0  0  0  0  0
   -1.8991   -2.2632    0.0000 C   0  0  0  0  0  0  0  0  0  0  0  0
   -3.0481   -1.2990    0.0000 C   0  0  0  0  0  0  0  0  0  0  0  0
   -4.4577   -1.8121    0.0000 C   0  0  0  0  0  0  0  0  0  0  0  0
   -4.7181   -3.2893    0.0000 C   0  0  0  0  0  0  0  0  0  0  0  0
   -3.5691   -4.2535    0.0000 C   0  0  0  0  0  0  0  0  0  0  0  0
   -2.1595   -3.7404    0.0000 C   0  0  0  0  0  0  0  0  0  0  0  0
  1  2  1  0
  2  3  1  0
  3  4  2  0
  4  5  1  0
  5  6  1  0
  6  7  1  0
  7  8  2  0
  7  9  1  0
  9 10  1  0
 10 11  2  0
 11 12  1  0
 12 13  2  0
 13 14  1  0
 14 15  2  0
  6 16  1  0
 16 17  2  0
 17 18  1  0
 18 19  2  0
 19 20  1  0
 20 21  2  0
 21 22  1  0
 22 23  2  0
 23 24  1  0
 24 25  2  0
 25 26  1  0
 26 27  2  0
 27  2  1  0
 15 10  1  0
 21 16  1  0
 27 22  1  0
M  END
>  <Title>  (981) 
idABJUgen6

$$$$

     RDKit          2D

  7  6  0  0  0  0  0  0  0  0999 V2000
    0.0000    0.0000    0.0000 C   0  0  0  0  0  0  0  0  0  0  0  0
    1.2990    0.7500    0.0000 C   0  0  0  0  0  0  0  0  0  0  0  0
    2.5981   -0.0000    0.0000 C   0  0  0  0  0  0  0  0  0  0  0  0
    3.8971    0.7500    0.0000 C   0  0  0  0  0  0  0  0  0  0  0  0
    5.1962   -0.0000    0.0000 C   0  0  0  0  0  0  0  0  0  0  0  0
    6.4952    0.7500    0.0000 C   0  0  0  0  0  0  0  0  0  0  0  0
    7.7942    1.5000    0.0000 N   0  0  0  0  0  0  0  0  0  0  0  0
  1  2  1  0
  2  3  1  0
  3  4  1  0
  4  5  2  3
  5  6  1  0
  6  7  3  0
M  END
>  <Title>  (982) 
idABJVgen6

$$$$

     RDKit          2D

 11 11  0  0  0  0  0  0  0  0999 V2000
    4.4429   -1.2990    0.0000 C   0  0  0  0  0  0  0  0  0  0  0  0
    3.6929    0.0000    0.0000 O   0  0  0  0  0  0  0  0  0  0  0  0
    2.1929    0.0000    0.0000 C   0  0  0  0  0  0  0  0  0  0  0  0
    1.6798    1.4095    0.0000 C   0  0  0  0  0  0  0  0  0  0  0  0
    0.3808    2.1595    0.0000 C   0  0  0  0  0  0  0  0  0  0  0  0
   -1.0964    1.8991    0.0000 C   0  0  0  0  0  0  0  0  0  0  0  0
   -2.0606    0.7500    0.0000 C   0  0  0  0  0  0  0  0  0  0  0  0
   -2.0606   -0.7500    0.0000 C   0  0  0  0  0  0  0  0  0  0  0  0
   -1.0964   -1.8991    0.0000 C   0  0  0  0  0  0  0  0  0  0  0  0
    0.3808   -2.1595    0.0000 C   0  0  0  0  0  0  0  0  0  0  0  0
    1.6798   -1.4095    0.0000 C   0  0  0  0  0  0  0  0  0  0  0  0
  1  2  1  0
  2  3  1  0
  3  4  1  0
  4  5  2  0
  5  6  1  0
  6  7  1  0
  7  8  1  0
  8  9  1  0
  9 10  1  0
 10 11  1  0
 11  3  1  0
M  END
>  <Title>  (983) 
idABJWgen6

$$$$

     RDKit          2D

 18 18  0  0  0  0  0  0  0  0999 V2000
    5.5816    0.0000    0.0000 O   0  0  0  0  0  0  0  0  0  0  0  0
    4.0816    0.0000    0.0000 C   0  0  0  0  0  0  0  0  0  0  0  0
    3.8060    1.4745    0.0000 C   0  0  0  0  0  0  0  0  0  0  0  0
    3.0164    2.7498    0.0000 C   0  0  0  0  0  0  0  0  0  0  0  0
    1.8193    3.6537    0.0000 C   0  0  0  0  0  0  0  0  0  0  0  0
    0.3766    4.0642    0.0000 C   0  0  0  0  0  0  0  0  0  0  0  0
   -1.1170    3.9258    0.0000 C   0  0  0  0  0  0  0  0  0  0  0  0
   -2.4597    3.2572    0.0000 C   0  0  0  0  0  0  0  0  0  0  0  0
   -3.4703    2.1487    0.0000 C   0  0  0  0  0  0  0  0  0  0  0  0
   -4.0121    0.7500    0.0000 C   0  0  0  0  0  0  0  0  0  0  0  0
   -4.0121   -0.7500    0.0000 N   0  0  0  0  0  0  0  0  0  0  0  0
   -3.4703   -2.1487    0.0000 C   0  0  0  0  0  0  0  0  0  0  0  0
   -2.4597   -3.2572    0.0000 C   0  0  0  0  0  0  0  0  0  0  0  0
   -1.1170   -3.9258    0.0000 C   0  0  0  0  0  0  0  0  0  0  0  0
    0.3766   -4.0642    0.0000 C   0  0  0  0  0  0  0  0  0  0  0  0
    1.8193   -3.6537    0.0000 C   0  0  0  0  0  0  0  0  0  0  0  0
    3.0164   -2.7498    0.0000 C   0  0  0  0  0  0  0  0  0  0  0  0
    3.8060   -1.4745    0.0000 C   0  0  0  0  0  0  0  0  0  0  0  0
  1  2  1  0
  2  3  1  0
  3  4  1  0
  4  5  1  0
  5  6  1  0
  6  7  1  0
  7  8  1  0
  8  9  1  0
  9 10  1  0
 10 11  1  0
 11 12  1  0
 12 13  1  0
 13 14  1  0
 14 15  1  0
 15 16  1  0
 16 17  1  0
 17 18  1  0
 18  2  1  0
M  END
>  <Title>  (984) 
idABJXgen6

$$$$

     RDKit          2D

 41 47  0  0  0  0  0  0  0  0999 V2000
   -5.8514  -11.9675    0.0000 C   0  0  0  0  0  0  0  0  0  0  0  0
   -5.6946  -10.4757    0.0000 C   0  0  0  0  0  0  0  0  0  0  0  0
   -4.3242   -9.8656    0.0000 C   0  0  0  0  0  0  0  0  0  0  0  0
   -3.1107  -10.7473    0.0000 C   0  0  0  0  0  0  0  0  0  0  0  0
   -1.7404  -10.1371    0.0000 C   0  0  0  0  0  0  0  0  0  0  0  0
   -1.4285   -8.6699    0.0000 C   0  0  0  0  0  0  0  0  0  0  0  0
    0.0633   -8.5131    0.0000 C   0  0  0  0  0  0  0  0  0  0  0  0
    0.6734   -9.8835    0.0000 C   0  0  0  0  0  0  0  0  0  0  0  0
    2.1406  -10.1953    0.0000 C   0  0  0  0  0  0  0  0  0  0  0  0
    2.6041  -11.6219    0.0000 C   0  0  0  0  0  0  0  0  0  0  0  0
    4.0713  -11.9338    0.0000 C   0  0  0  0  0  0  0  0  0  0  0  0
    5.0750  -10.8191    0.0000 C   0  0  0  0  0  0  0  0  0  0  0  0
    4.6115   -9.3925    0.0000 C   0  0  0  0  0  0  0  0  0  0  0  0
    3.1443   -9.0806    0.0000 C   0  0  0  0  0  0  0  0  0  0  0  0
    2.6807   -7.6540    0.0000 C   0  0  0  0  0  0  0  0  0  0  0  0
    1.2135   -7.3421    0.0000 C   0  0  0  0  0  0  0  0  0  0  0  0
    0.7500   -5.9156    0.0000 C   0  0  0  0  0  0  0  0  0  0  0  0
    1.9635   -5.0339    0.0000 C   0  0  0  0  0  0  0  0  0  0  0  0
    2.4271   -3.6073    0.0000 C   0  0  0  0  0  0  0  0  0  0  0  0
    1.9635   -2.1807    0.0000 C   0  0  0  0  0  0  0  0  0  0  0  0
    0.7500   -1.2990    0.0000 C   0  0  0  0  0  0  0  0  0  0  0  0
    1.5000    0.0000    0.0000 C   0  0  0  0  0  0  0  0  0  0  0  0
    0.7500    1.2990    0.0000 C   0  0  0  0  0  0  0  0  0  0  0  0
   -0.7500    1.2990    0.0000 C   0  0  0  0  0  0  0  0  0  0  0  0
   -1.5000    0.0000    0.0000 C   0  0  0  0  0  0  0  0  0  0  0  0
   -0.7500   -1.2990    0.0000 C   0  0  0  0  0  0  0  0  0  0  0  0
   -1.9635   -2.1807    0.0000 C   0  0  0  0  0  0  0  0  0  0  0  0
   -2.9672   -1.0660    0.0000 C   0  0  0  0  0  0  0  0  0  0  0  0
   -4.4344   -1.3779    0.0000 C   0  0  0  0  0  0  0  0  0  0  0  0
   -4.8980   -2.8045    0.0000 C   0  0  0  0  0  0  0  0  0  0  0  0
   -3.8943   -3.9192    0.0000 C   0  0  0  0  0  0  0  0  0  0  0  0
   -2.4271   -3.6073    0.0000 C   0  0  0  0  0  0  0  0  0  0  0  0
   -1.9635   -5.0339    0.0000 C   0  0  0  0  0  0  0  0  0  0  0  0
   -3.3338   -5.6440    0.0000 C   0  0  0  0  0  0  0  0  0  0  0  0
   -3.4906   -7.1358    0.0000 C   0  0  0  0  0  0  0  0  0  0  0  0
   -2.2771   -8.0175    0.0000 C   0  0  0  0  0  0  0  0  0  0  0  0
   -0.9068   -7.4073    0.0000 C   0  0  0  0  0  0  0  0  0  0  0  0
   -0.7500   -5.9156    0.0000 C   0  0  0  0  0  0  0  0  0  0  0  0
   -0.4414  -10.8871    0.0000 C   0  0  0  0  0  0  0  0  0  0  0  0
   -3.2675  -12.2390    0.0000 C   0  0  0  0  0  0  0  0  0  0  0  0
   -4.6378  -12.8491    0.0000 C   0  0  0  0  0  0  0  0  0  0  0  0
  1  2  2  0
  2  3  1  0
  3  4  2  0
  4  5  1  0
  5  6  1  0
  6  7  1  0
  7  8  1  0
  8  9  1  0
  9 10  2  0
 10 11  1  0
 11 12  2  0
 12 13  1  0
 13 14  2  0
 14 15  1  0
 15 16  1  0
 16 17  1  0
 17 18  1  0
 18 19  1  0
 19 20  1  0
 20 21  1  0
 21 22  2  0
 22 23  1  0
 23 24  2  0
 24 25  1  0
 25 26  2  0
 26 27  1  0
 27 28  2  0
 28 29  1  0
 29 30  2  0
 30 31  1  0
 31 32  2  0
 32 33  1  0
 33 34  2  0
 34 35  1  0
 35 36  2  0
 36 37  1  0
 37 38  2  0
  8 39  1  0
  4 40  1  0
 40 41  2  0
 41  1  1  0
 39  5  1  0
 14  9  1  0
 38 17  1  0
 26 21  1  0
 32 27  1  0
 38 33  1  0
M  END
>  <Title>  (985) 
idABJYgen6

$$$$

     RDKit          2D

 11 10  0  0  0  0  0  0  0  0999 V2000
    0.0000    0.0000    0.0000 C   0  0  0  0  0  0  0  0  0  0  0  0
    1.2990    0.7500    0.0000 C   0  0  0  0  0  0  0  0  0  0  0  0
    2.5981    1.5000    0.0000 C   0  0  0  0  0  0  0  0  0  0  0  0
    2.0490   -0.5490    0.0000 C   0  0  0  0  0  0  0  0  0  0  0  0
    0.5490    2.0490    0.0000 C   0  0  0  0  0  0  0  0  0  0  0  0
   -0.2010    3.3481    0.0000 C   0  0  0  0  0  0  0  0  0  0  0  0
   -0.9510    4.6471    0.0000 C   0  0  0  0  0  0  0  0  0  0  0  0
   -0.2010    5.9462    0.0000 C   0  0  0  0  0  0  0  0  0  0  0  0
    0.5490    7.2452    0.0000 C   0  0  0  0  0  0  0  0  0  0  0  0
    1.2990    8.5442    0.0000 C   0  0  0  0  0  0  0  0  0  0  0  0
    2.0490    9.8433    0.0000 N   0  0  0  0  0  0  0  0  0  0  0  0
  1  2  1  0
  2  3  1  0
  2  4  1  0
  2  5  1  0
  5  6  3  0
  6  7  1  0
  7  8  1  0
  8  9  3  0
  9 10  1  0
 10 11  3  0
M  END
>  <Title>  (986) 
idABJZgen6

$$$$

     RDKit          2D

 11 11  0  0  0  0  0  0  0  0999 V2000
    7.0607   -2.5981    0.0000 C   0  0  0  0  0  0  0  0  0  0  0  0
    5.5607   -2.5981    0.0000 C   0  0  0  0  0  0  0  0  0  0  0  0
    4.8107   -1.2990    0.0000 C   0  0  0  0  0  0  0  0  0  0  0  0
    3.3107   -1.2990    0.0000 C   0  0  0  0  0  0  0  0  0  0  0  0
    2.5607   -2.5981    0.0000 O   0  0  0  0  0  0  0  0  0  0  0  0
    2.5607    0.0000    0.0000 N   0  0  0  0  0  0  0  0  0  0  0  0
    1.0607    0.0000    0.0000 C   0  0  0  0  0  0  0  0  0  0  0  0
   -0.0000   -1.0607    0.0000 C   0  0  0  0  0  0  0  0  0  0  0  0
   -1.0607    0.0000    0.0000 C   0  0  0  0  0  0  0  0  0  0  0  0
   -2.5607    0.0000    0.0000 C   0  0  0  0  0  0  0  0  0  0  0  0
    0.0000    1.0607    0.0000 C   0  0  0  0  0  0  0  0  0  0  0  0
  1  2  1  0
  2  3  2  3
  3  4  1  0
  4  5  2  0
  4  6  1  0
  6  7  1  0
  7  8  2  0
  8  9  1  0
  9 10  1  0
  9 11  1  0
 11  7  1  0
M  END
>  <Title>  (987) 
idABKAgen6

$$$$

     RDKit          2D

 29 32  0  0  0  0  0  0  0  0999 V2000
   -3.6368   -4.0009    0.0000 C   0  0  0  0  0  0  0  0  0  0  0  0
   -2.1595   -3.7404    0.0000 C   0  0  0  0  0  0  0  0  0  0  0  0
   -1.4095   -5.0395    0.0000 C   0  0  0  0  0  0  0  0  0  0  0  0
   -0.0000   -5.5525    0.0000 C   0  0  0  0  0  0  0  0  0  0  0  0
    1.4095   -5.0395    0.0000 C   0  0  0  0  0  0  0  0  0  0  0  0
    2.3737   -6.1885    0.0000 C   0  0  0  0  0  0  0  0  0  0  0  0
    3.8509   -5.9281    0.0000 O   0  0  0  0  0  0  0  0  0  0  0  0
    1.8607   -7.5981    0.0000 N   0  0  0  0  0  0  0  0  0  0  0  0
    2.8249   -8.7471    0.0000 C   0  0  0  0  0  0  0  0  0  0  0  0
    4.3212   -8.6425    0.0000 N   0  0  0  0  0  0  0  0  0  0  0  0
    4.8831  -10.0333    0.0000 N   0  0  0  0  0  0  0  0  0  0  0  0
    3.7341  -10.9975    0.0000 N   0  0  0  0  0  0  0  0  0  0  0  0
    2.4620  -10.2026    0.0000 N   0  0  0  0  0  0  0  0  0  0  0  0
    1.0712  -10.7645    0.0000 C   0  0  0  0  0  0  0  0  0  0  0  0
   -0.1108   -9.8410    0.0000 C   0  0  0  0  0  0  0  0  0  0  0  0
   -1.5016  -10.4029    0.0000 C   0  0  0  0  0  0  0  0  0  0  0  0
   -1.7103  -11.8883    0.0000 C   0  0  0  0  0  0  0  0  0  0  0  0
   -0.5283  -12.8118    0.0000 C   0  0  0  0  0  0  0  0  0  0  0  0
    0.8625  -12.2499    0.0000 C   0  0  0  0  0  0  0  0  0  0  0  0
    2.1595   -3.7404    0.0000 C   0  0  0  0  0  0  0  0  0  0  0  0
    3.6368   -4.0009    0.0000 O   0  0  0  0  0  0  0  0  0  0  0  0
    1.8991   -2.2632    0.0000 O   0  0  0  0  0  0  0  0  0  0  0  0
    0.7500   -1.2990    0.0000 C   0  0  0  0  0  0  0  0  0  0  0  0
    1.5000    0.0000    0.0000 C   0  0  0  0  0  0  0  0  0  0  0  0
    0.7500    1.2990    0.0000 C   0  0  0  0  0  0  0  0  0  0  0  0
   -0.7500    1.2990    0.0000 C   0  0  0  0  0  0  0  0  0  0  0  0
   -1.5000    0.0000    0.0000 C   0  0  0  0  0  0  0  0  0  0  0  0
   -0.7500   -1.2990    0.0000 C   0  0  0  0  0  0  0  0  0  0  0  0
   -1.8991   -2.2632    0.0000 C   0  0  0  0  0  0  0  0  0  0  0  0
  1  2  1  0
  2  3  1  0
  3  4  2  0
  4  5  1  0
  5  6  1  0
  6  7  2  0
  6  8  1  0
  8  9  1  0
  9 10  2  0
 10 11  1  0
 11 12  2  0
 12 13  1  0
 13 14  1  0
 14 15  2  0
 15 16  1  0
 16 17  2  0
 17 18  1  0
 18 19  2  0
  5 20  1  0
 20 21  2  0
 20 22  1  0
 22 23  1  0
 23 24  2  0
 24 25  1  0
 25 26  2  0
 26 27  1  0
 27 28  2  0
 28 29  1  0
 29  2  1  0
 13  9  1  0
 19 14  1  0
 28 23  1  0
M  END
>  <Title>  (988) 
idABKBgen6

$$$$

     RDKit          2D

 26 27  0  0  0  0  0  0  0  0999 V2000
    1.7010  -11.1423    0.0000 C   0  0  0  0  0  0  0  0  0  0  0  0
    3.0000  -10.3923    0.0000 C   0  0  0  0  0  0  0  0  0  0  0  0
    4.2990   -9.6423    0.0000 C   0  0  0  0  0  0  0  0  0  0  0  0
    3.7500  -11.6913    0.0000 C   0  0  0  0  0  0  0  0  0  0  0  0
    2.2500   -9.0933    0.0000 C   0  0  0  0  0  0  0  0  0  0  0  0
    1.5000   -7.7942    0.0000 C   0  0  0  0  0  0  0  0  0  0  0  0
    0.7500   -6.4952    0.0000 N   0  0  0  0  0  0  0  0  0  0  0  0
    1.5000   -5.1962    0.0000 C   0  0  0  0  0  0  0  0  0  0  0  0
    3.0000   -5.1962    0.0000 O   0  0  0  0  0  0  0  0  0  0  0  0
    0.7500   -3.8971    0.0000 C   0  0  0  0  0  0  0  0  0  0  0  0
    1.5000   -2.5981    0.0000 C   0  0  0  0  0  0  0  0  0  0  0  0
    0.7500   -1.2990    0.0000 C   0  0  0  0  0  0  0  0  0  0  0  0
    1.5000    0.0000    0.0000 C   0  0  0  0  0  0  0  0  0  0  0  0
    0.7500    1.2990    0.0000 C   0  0  0  0  0  0  0  0  0  0  0  0
   -0.7500    1.2990    0.0000 C   0  0  0  0  0  0  0  0  0  0  0  0
   -1.5000    0.0000    0.0000 C   0  0  0  0  0  0  0  0  0  0  0  0
   -0.7500   -1.2990    0.0000 C   0  0  0  0  0  0  0  0  0  0  0  0
   -0.7500   -3.8971    0.0000 N   0  0  0  0  0  0  0  0  0  0  0  0
   -1.5000   -5.1962    0.0000 C   0  0  0  0  0  0  0  0  0  0  0  0
   -0.7500   -6.4952    0.0000 O   0  0  0  0  0  0  0  0  0  0  0  0
   -3.0000   -5.1962    0.0000 C   0  0  0  0  0  0  0  0  0  0  0  0
   -3.8817   -6.4097    0.0000 C   0  0  0  0  0  0  0  0  0  0  0  0
   -5.3083   -5.9462    0.0000 C   0  0  0  0  0  0  0  0  0  0  0  0
   -5.3083   -4.4462    0.0000 C   0  0  0  0  0  0  0  0  0  0  0  0
   -6.5218   -3.5645    0.0000 O   0  0  0  0  0  0  0  0  0  0  0  0
   -3.8817   -3.9826    0.0000 N   0  0  0  0  0  0  0  0  0  0  0  0
  1  2  1  0
  2  3  1  0
  2  4  1  0
  2  5  1  0
  5  6  3  0
  6  7  1  0
  7  8  1  0
  8  9  2  0
  8 10  1  0
 10 11  1  0
 11 12  1  0
 12 13  2  0
 13 14  1  0
 14 15  2  0
 15 16  1  0
 16 17  2  0
 10 18  1  0
 18 19  1  0
 19 20  2  0
 19 21  1  0
 21 22  1  0
 22 23  1  0
 23 24  1  0
 24 25  2  0
 24 26  1  0
 17 12  1  0
 26 21  1  0
M  END
>  <Title>  (989) 
idABKCgen6

$$$$

     RDKit          2D

 57 64  0  0  0  0  0  0  0  0999 V2000
    3.4986  -10.7460    0.0000 C   0  0  0  0  0  0  0  0  0  0  0  0
    2.0163  -10.5159    0.0000 O   0  0  0  0  0  0  0  0  0  0  0  0
    1.4745   -9.1172    0.0000 C   0  0  0  0  0  0  0  0  0  0  0  0
    2.7498   -8.3276    0.0000 C   0  0  0  0  0  0  0  0  0  0  0  0
    3.6537   -7.1305    0.0000 C   0  0  0  0  0  0  0  0  0  0  0  0
    4.0642   -5.6878    0.0000 C   0  0  0  0  0  0  0  0  0  0  0  0
    3.9258   -4.1942    0.0000 C   0  0  0  0  0  0  0  0  0  0  0  0
    5.3686   -3.7837    0.0000 C   0  0  0  0  0  0  0  0  0  0  0  0
    5.7344   -2.3290    0.0000 O   0  0  0  0  0  0  0  0  0  0  0  0
    6.4454   -4.8279    0.0000 N   0  0  0  0  0  0  0  0  0  0  0  0
    7.8882   -4.4174    0.0000 C   0  0  0  0  0  0  0  0  0  0  0  0
    8.9650   -5.4616    0.0000 N   0  0  0  0  0  0  0  0  0  0  0  0
   10.4078   -5.0511    0.0000 N   0  0  0  0  0  0  0  0  0  0  0  0
   10.7737   -3.5964    0.0000 N   0  0  0  0  0  0  0  0  0  0  0  0
    9.6968   -2.5522    0.0000 N   0  0  0  0  0  0  0  0  0  0  0  0
    8.2540   -2.9627    0.0000 N   0  0  0  0  0  0  0  0  0  0  0  0
    3.2572   -2.8514    0.0000 C   0  0  0  0  0  0  0  0  0  0  0  0
    4.6866   -2.3967    0.0000 C   0  0  0  0  0  0  0  0  0  0  0  0
    5.0075   -0.9314    0.0000 C   0  0  0  0  0  0  0  0  0  0  0  0
    3.8990    0.0791    0.0000 C   0  0  0  0  0  0  0  0  0  0  0  0
    4.2199    1.5444    0.0000 C   0  0  0  0  0  0  0  0  0  0  0  0
    4.5408    3.0096    0.0000 N   0  0  0  0  0  0  0  0  0  0  0  0
    2.4696   -0.3756    0.0000 C   0  0  0  0  0  0  0  0  0  0  0  0
    2.1487   -1.8409    0.0000 C   0  0  0  0  0  0  0  0  0  0  0  0
    0.7500   -1.2990    0.0000 C   0  0  0  0  0  0  0  0  0  0  0  0
    1.5000    0.0000    0.0000 C   0  0  0  0  0  0  0  0  0  0  0  0
    0.7500    1.2990    0.0000 C   0  0  0  0  0  0  0  0  0  0  0  0
   -0.7500    1.2990    0.0000 C   0  0  0  0  0  0  0  0  0  0  0  0
   -1.5000    0.0000    0.0000 C   0  0  0  0  0  0  0  0  0  0  0  0
   -0.7500   -1.2990    0.0000 C   0  0  0  0  0  0  0  0  0  0  0  0
   -2.1487   -1.8409    0.0000 C   0  0  0  0  0  0  0  0  0  0  0  0
   -2.4696   -0.3756    0.0000 C   0  0  0  0  0  0  0  0  0  0  0  0
   -3.8990    0.0791    0.0000 C   0  0  0  0  0  0  0  0  0  0  0  0
   -5.0075   -0.9314    0.0000 C   0  0  0  0  0  0  0  0  0  0  0  0
   -4.6866   -2.3967    0.0000 C   0  0  0  0  0  0  0  0  0  0  0  0
   -3.2572   -2.8514    0.0000 C   0  0  0  0  0  0  0  0  0  0  0  0
   -3.9258   -4.1942    0.0000 C   0  0  0  0  0  0  0  0  0  0  0  0
   -5.1501   -3.3275    0.0000 C   0  0  0  0  0  0  0  0  0  0  0  0
   -6.5128   -3.9545    0.0000 C   0  0  0  0  0  0  0  0  0  0  0  0
   -6.6512   -5.4481    0.0000 C   0  0  0  0  0  0  0  0  0  0  0  0
   -8.0139   -6.0750    0.0000 C   0  0  0  0  0  0  0  0  0  0  0  0
   -9.3766   -6.7020    0.0000 N   0  0  0  0  0  0  0  0  0  0  0  0
   -5.4269   -6.3147    0.0000 C   0  0  0  0  0  0  0  0  0  0  0  0
   -4.0642   -5.6878    0.0000 C   0  0  0  0  0  0  0  0  0  0  0  0
   -3.6537   -7.1305    0.0000 C   0  0  0  0  0  0  0  0  0  0  0  0
   -5.1424   -7.3149    0.0000 C   0  0  0  0  0  0  0  0  0  0  0  0
   -5.7270   -8.6962    0.0000 C   0  0  0  0  0  0  0  0  0  0  0  0
   -4.8231   -9.8932    0.0000 C   0  0  0  0  0  0  0  0  0  0  0  0
   -5.4078  -11.2746    0.0000 C   0  0  0  0  0  0  0  0  0  0  0  0
   -3.3345   -9.7089    0.0000 C   0  0  0  0  0  0  0  0  0  0  0  0
   -2.7498   -8.3276    0.0000 C   0  0  0  0  0  0  0  0  0  0  0  0
   -1.4745   -9.1172    0.0000 C   0  0  0  0  0  0  0  0  0  0  0  0
   -2.4504  -10.2563    0.0000 C   0  0  0  0  0  0  0  0  0  0  0  0
   -1.9519  -11.6710    0.0000 C   0  0  0  0  0  0  0  0  0  0  0  0
   -0.4774  -11.9467    0.0000 C   0  0  0  0  0  0  0  0  0  0  0  0
    0.4985  -10.8076    0.0000 C   0  0  0  0  0  0  0  0  0  0  0  0
   -0.0000   -9.3928    0.0000 C   0  0  0  0  0  0  0  0  0  0  0  0
  1  2  1  0
  2  3  1  0
  3  4  1  0
  4  5  2  0
  5  6  1  0
  6  7  1  0
  7  8  1  0
  8  9  2  0
  8 10  1  0
 10 11  1  0
 11 12  2  0
 12 13  1  0
 13 14  2  0
 14 15  1  0
 15 16  2  0
  7 17  1  0
 17 18  2  0
 18 19  1  0
 19 20  2  0
 20 21  1  0
 21 22  3  0
 20 23  1  0
 23 24  2  0
 24 25  1  0
 25 26  2  0
 26 27  1  0
 27 28  2  0
 28 29  1  0
 29 30  2  0
 30 31  1  0
 31 32  2  0
 32 33  1  0
 33 34  2  0
 34 35  1  0
 35 36  2  0
 36 37  1  0
 37 38  2  0
 38 39  1  0
 39 40  2  0
 40 41  1  0
 41 42  3  0
 40 43  1  0
 43 44  2  0
 44 45  1  0
 45 46  1  0
 46 47  1  0
 47 48  1  0
 48 49  1  0
 48 50  1  0
 50 51  1  0
 51 52  1  0
 52 53  2  0
 53 54  1  0
 54 55  2  0
 55 56  1  0
 56 57  2  0
 57  3  1  0
 16 11  1  0
 24 17  1  0
 30 25  1  0
 36 31  1  0
 44 37  1  0
 51 45  1  0
 57 52  1  0
M  END
>  <Title>  (990) 
idABKDgen6

$$$$

     RDKit          2D

 23 23  0  0  0  0  0  0  0  0999 V2000
    6.7700    0.0000    0.0000 C   0  0  0  0  0  0  0  0  0  0  0  0
    5.2700    0.0000    0.0000 C   0  0  0  0  0  0  0  0  0  0  0  0
    5.0565   -1.4847    0.0000 C   0  0  0  0  0  0  0  0  0  0  0  0
    4.4334   -2.8492    0.0000 C   0  0  0  0  0  0  0  0  0  0  0  0
    3.4511   -3.9828    0.0000 C   0  0  0  0  0  0  0  0  0  0  0  0
    2.1892   -4.7938    0.0000 C   0  0  0  0  0  0  0  0  0  0  0  0
    0.7500   -5.2164    0.0000 C   0  0  0  0  0  0  0  0  0  0  0  0
   -0.7500   -5.2164    0.0000 C   0  0  0  0  0  0  0  0  0  0  0  0
   -2.1892   -4.7938    0.0000 C   0  0  0  0  0  0  0  0  0  0  0  0
   -3.4511   -3.9828    0.0000 C   0  0  0  0  0  0  0  0  0  0  0  0
   -4.4334   -2.8492    0.0000 C   0  0  0  0  0  0  0  0  0  0  0  0
   -5.0565   -1.4847    0.0000 C   0  0  0  0  0  0  0  0  0  0  0  0
   -5.2700    0.0000    0.0000 C   0  0  0  0  0  0  0  0  0  0  0  0
   -5.0565    1.4847    0.0000 C   0  0  0  0  0  0  0  0  0  0  0  0
   -4.4334    2.8492    0.0000 C   0  0  0  0  0  0  0  0  0  0  0  0
   -3.4511    3.9828    0.0000 C   0  0  0  0  0  0  0  0  0  0  0  0
   -2.1892    4.7938    0.0000 C   0  0  0  0  0  0  0  0  0  0  0  0
   -0.7500    5.2164    0.0000 C   0  0  0  0  0  0  0  0  0  0  0  0
    0.7500    5.2164    0.0000 N   0  0  0  0  0  0  0  0  0  0  0  0
    2.1892    4.7938    0.0000 N   0  0  0  0  0  0  0  0  0  0  0  0
    3.4511    3.9828    0.0000 N   0  0  0  0  0  0  0  0  0  0  0  0
    4.4334    2.8492    0.0000 N   0  0  0  0  0  0  0  0  0  0  0  0
    5.0565    1.4847    0.0000 N   0  0  0  0  0  0  0  0  0  0  0  0
  1  2  1  0
  2  3  1  0
  3  4  1  0
  4  5  1  0
  5  6  1  0
  6  7  1  0
  7  8  1  0
  8  9  1  0
  9 10  1  0
 10 11  1  0
 11 12  1  0
 12 13  1  0
 13 14  1  0
 14 15  1  0
 15 16  1  0
 16 17  1  0
 17 18  1  0
 18 19  2  0
 19 20  1  0
 20 21  2  0
 21 22  1  0
 22 23  2  0
 23  2  1  0
M  END
>  <Title>  (991) 
idABKEgen6

$$$$

     RDKit          2D

 11 11  0  0  0  0  0  0  0  0999 V2000
    3.4598   -0.0000    0.0000 C   0  0  0  0  0  0  0  0  0  0  0  0
    1.9598    0.0000    0.0000 C   0  0  0  0  0  0  0  0  0  0  0  0
    1.3858   -1.3858    0.0000 C   0  0  0  0  0  0  0  0  0  0  0  0
   -0.0000   -1.9598    0.0000 C   0  0  0  0  0  0  0  0  0  0  0  0
   -1.3858   -1.3858    0.0000 C   0  0  0  0  0  0  0  0  0  0  0  0
   -1.9598    0.0000    0.0000 C   0  0  0  0  0  0  0  0  0  0  0  0
   -1.3858    1.3858    0.0000 C   0  0  0  0  0  0  0  0  0  0  0  0
    0.0000    1.9598    0.0000 C   0  0  0  0  0  0  0  0  0  0  0  0
    0.0000    3.4598    0.0000 C   0  0  0  0  0  0  0  0  0  0  0  0
    0.0000    4.9598    0.0000 N   0  0  0  0  0  0  0  0  0  0  0  0
    1.3858    1.3858    0.0000 C   0  0  0  0  0  0  0  0  0  0  0  0
  1  2  1  0
  2  3  1  0
  3  4  2  0
  4  5  1  0
  5  6  2  0
  6  7  1  0
  7  8  2  0
  8  9  1  0
  9 10  3  0
  8 11  1  0
 11  2  1  0
M  END
>  <Title>  (992) 
idABKFgen6

$$$$

     RDKit          2D

 37 42  0  0  0  0  0  0  0  0999 V2000
   -0.0000   -8.0154    0.0000 C   0  0  0  0  0  0  0  0  0  0  0  0
   -0.0000   -6.5154    0.0000 C   0  0  0  0  0  0  0  0  0  0  0  0
    1.4392   -6.0928    0.0000 C   0  0  0  0  0  0  0  0  0  0  0  0
    2.4215   -4.9592    0.0000 C   0  0  0  0  0  0  0  0  0  0  0  0
    2.6350   -3.4744    0.0000 C   0  0  0  0  0  0  0  0  0  0  0  0
    2.0119   -2.1100    0.0000 C   0  0  0  0  0  0  0  0  0  0  0  0
    3.1455   -1.1277    0.0000 C   0  0  0  0  0  0  0  0  0  0  0  0
    2.8616    0.3452    0.0000 O   0  0  0  0  0  0  0  0  0  0  0  0
    4.5630   -1.6183    0.0000 N   0  0  0  0  0  0  0  0  0  0  0  0
    5.6966   -0.6360    0.0000 C   0  0  0  0  0  0  0  0  0  0  0  0
    5.5683    0.8585    0.0000 N   0  0  0  0  0  0  0  0  0  0  0  0
    6.9500    1.4424    0.0000 N   0  0  0  0  0  0  0  0  0  0  0  0
    7.9322    0.3088    0.0000 N   0  0  0  0  0  0  0  0  0  0  0  0
    7.1576   -0.9758    0.0000 N   0  0  0  0  0  0  0  0  0  0  0  0
    7.7416   -2.3574    0.0000 N   0  0  0  0  0  0  0  0  0  0  0  0
    7.1774   -3.7473    0.0000 C   0  0  0  0  0  0  0  0  0  0  0  0
    8.5673   -4.3114    0.0000 C   0  0  0  0  0  0  0  0  0  0  0  0
    9.1314   -2.9216    0.0000 C   0  0  0  0  0  0  0  0  0  0  0  0
   10.5131   -2.3377    0.0000 O   0  0  0  0  0  0  0  0  0  0  0  0
    0.7500   -1.2990    0.0000 C   0  0  0  0  0  0  0  0  0  0  0  0
    1.5000    0.0000    0.0000 C   0  0  0  0  0  0  0  0  0  0  0  0
    0.7500    1.2990    0.0000 C   0  0  0  0  0  0  0  0  0  0  0  0
   -0.7500    1.2990    0.0000 C   0  0  0  0  0  0  0  0  0  0  0  0
   -1.5000    0.0000    0.0000 C   0  0  0  0  0  0  0  0  0  0  0  0
   -0.7500   -1.2990    0.0000 C   0  0  0  0  0  0  0  0  0  0  0  0
   -2.0119   -2.1100    0.0000 C   0  0  0  0  0  0  0  0  0  0  0  0
   -2.8820   -0.8881    0.0000 C   0  0  0  0  0  0  0  0  0  0  0  0
   -4.3752   -1.0307    0.0000 C   0  0  0  0  0  0  0  0  0  0  0  0
   -4.9983   -2.3952    0.0000 C   0  0  0  0  0  0  0  0  0  0  0  0
   -4.1282   -3.6170    0.0000 C   0  0  0  0  0  0  0  0  0  0  0  0
   -2.6350   -3.4744    0.0000 C   0  0  0  0  0  0  0  0  0  0  0  0
   -2.4215   -4.9592    0.0000 C   0  0  0  0  0  0  0  0  0  0  0  0
   -3.8944   -5.2431    0.0000 C   0  0  0  0  0  0  0  0  0  0  0  0
   -4.3850   -6.6606    0.0000 C   0  0  0  0  0  0  0  0  0  0  0  0
   -3.4027   -7.7942    0.0000 C   0  0  0  0  0  0  0  0  0  0  0  0
   -1.9298   -7.5103    0.0000 C   0  0  0  0  0  0  0  0  0  0  0  0
   -1.4392   -6.0928    0.0000 C   0  0  0  0  0  0  0  0  0  0  0  0
  1  2  1  0
  2  3  1  0
  3  4  2  0
  4  5  1  0
  5  6  2  0
  6  7  1  0
  7  8  2  0
  7  9  1  0
  9 10  1  0
 10 11  2  0
 11 12  1  0
 12 13  2  0
 13 14  1  0
 14 15  1  0
 15 16  1  0
 16 17  1  0
 17 18  1  0
 18 19  2  0
  6 20  1  0
 20 21  2  0
 21 22  1  0
 22 23  2  0
 23 24  1  0
 24 25  2  0
 25 26  1  0
 26 27  2  0
 27 28  1  0
 28 29  2  0
 29 30  1  0
 30 31  2  0
 31 32  1  0
 32 33  2  0
 33 34  1  0
 34 35  2  0
 35 36  1  0
 36 37  2  0
 37  2  1  0
 14 10  1  0
 18 15  1  0
 25 20  1  0
 31 26  1  0
 37 32  1  0
M  END
>  <Title>  (993) 
idABKGgen6

$$$$

     RDKit          2D

 22 24  0  0  0  0  0  0  0  0999 V2000
    3.0000    0.0000    0.0000 C   0  0  0  0  0  0  0  0  0  0  0  0
    1.5000    0.0000    0.0000 C   0  0  0  0  0  0  0  0  0  0  0  0
    0.7500   -1.2990    0.0000 C   0  0  0  0  0  0  0  0  0  0  0  0
   -0.7500   -1.2990    0.0000 C   0  0  0  0  0  0  0  0  0  0  0  0
   -1.5000    0.0000    0.0000 C   0  0  0  0  0  0  0  0  0  0  0  0
   -3.0000    0.0000    0.0000 N   0  0  0  0  0  0  0  0  0  0  0  0
   -3.7500    1.2990    0.0000 C   0  0  0  0  0  0  0  0  0  0  0  0
   -3.0000    2.5981    0.0000 O   0  0  0  0  0  0  0  0  0  0  0  0
   -5.2500    1.2990    0.0000 C   0  0  0  0  0  0  0  0  0  0  0  0
   -6.1317    0.0855    0.0000 C   0  0  0  0  0  0  0  0  0  0  0  0
   -7.5583    0.5490    0.0000 C   0  0  0  0  0  0  0  0  0  0  0  0
   -7.5583    2.0490    0.0000 C   0  0  0  0  0  0  0  0  0  0  0  0
   -8.7718    2.9307    0.0000 N   0  0  0  0  0  0  0  0  0  0  0  0
   -8.6150    4.4225    0.0000 C   0  0  0  0  0  0  0  0  0  0  0  0
   -7.2447    5.0326    0.0000 O   0  0  0  0  0  0  0  0  0  0  0  0
   -9.8285    5.3042    0.0000 C   0  0  0  0  0  0  0  0  0  0  0  0
  -10.0632    6.7857    0.0000 C   0  0  0  0  0  0  0  0  0  0  0  0
  -11.5447    6.5511    0.0000 C   0  0  0  0  0  0  0  0  0  0  0  0
  -11.3101    5.0695    0.0000 C   0  0  0  0  0  0  0  0  0  0  0  0
   -6.1317    2.5126    0.0000 C   0  0  0  0  0  0  0  0  0  0  0  0
   -0.7500    1.2990    0.0000 O   0  0  0  0  0  0  0  0  0  0  0  0
    0.7500    1.2990    0.0000 C   0  0  0  0  0  0  0  0  0  0  0  0
  1  2  1  0
  2  3  1  0
  3  4  1  0
  4  5  1  0
  5  6  1  0
  6  7  1  0
  7  8  2  0
  7  9  1  0
  9 10  2  0
 10 11  1  0
 11 12  2  0
 12 13  1  0
 13 14  1  0
 14 15  2  0
 14 16  1  0
 16 17  1  0
 17 18  1  0
 18 19  1  0
 12 20  1  0
  5 21  1  0
 21 22  1  0
 22  2  1  0
 20  9  1  0
 19 16  1  0
M  END
>  <Title>  (994) 
idABKHgen6

$$$$

     RDKit          2D

  8  7  0  0  0  0  0  0  0  0999 V2000
    0.0000    0.0000    0.0000 C   0  0  0  0  0  0  0  0  0  0  0  0
   -0.0000   -1.5000    0.0000 C   0  0  0  0  0  0  0  0  0  0  0  0
   -0.0000   -3.0000    0.0000 C   0  0  0  0  0  0  0  0  0  0  0  0
   -0.0000   -4.5000    0.0000 C   0  0  0  0  0  0  0  0  0  0  0  0
   -0.0000   -6.0000    0.0000 C   0  0  0  0  0  0  0  0  0  0  0  0
   -0.0000   -7.5000    0.0000 C   0  0  0  0  0  0  0  0  0  0  0  0
   -0.0000   -9.0000    0.0000 C   0  0  0  0  0  0  0  0  0  0  0  0
   -0.0000  -10.5000    0.0000 N   0  0  0  0  0  0  0  0  0  0  0  0
  1  2  3  0
  2  3  1  0
  3  4  3  0
  4  5  1  0
  5  6  3  0
  6  7  1  0
  7  8  3  0
M  END
>  <Title>  (995) 
idABKIgen6

$$$$

     RDKit          2D

 22 23  0  0  0  0  0  0  0  0999 V2000
   -6.7915    3.9396    0.0000 C   0  0  0  0  0  0  0  0  0  0  0  0
   -5.3019    4.1159    0.0000 C   0  0  0  0  0  0  0  0  0  0  0  0
   -5.1842    5.6112    0.0000 C   0  0  0  0  0  0  0  0  0  0  0  0
   -4.5032    6.9478    0.0000 C   0  0  0  0  0  0  0  0  0  0  0  0
   -3.3626    7.9219    0.0000 C   0  0  0  0  0  0  0  0  0  0  0  0
   -1.9360    8.3855    0.0000 C   0  0  0  0  0  0  0  0  0  0  0  0
   -0.4406    8.2678    0.0000 C   0  0  0  0  0  0  0  0  0  0  0  0
    0.8959    7.5868    0.0000 C   0  0  0  0  0  0  0  0  0  0  0  0
    1.8701    6.4462    0.0000 C   0  0  0  0  0  0  0  0  0  0  0  0
    2.3336    5.0196    0.0000 C   0  0  0  0  0  0  0  0  0  0  0  0
    2.2159    3.5242    0.0000 N   0  0  0  0  0  0  0  0  0  0  0  0
    1.5349    2.1877    0.0000 C   0  0  0  0  0  0  0  0  0  0  0  0
    2.7129    1.2591    0.0000 O   0  0  0  0  0  0  0  0  0  0  0  0
    0.3943    1.2135    0.0000 C   0  0  0  0  0  0  0  0  0  0  0  0
    1.2760    0.0000    0.0000 C   0  0  0  0  0  0  0  0  0  0  0  0
    0.3943   -1.2135    0.0000 C   0  0  0  0  0  0  0  0  0  0  0  0
   -1.0323   -0.7500    0.0000 C   0  0  0  0  0  0  0  0  0  0  0  0
   -1.0323    0.7500    0.0000 N   0  0  0  0  0  0  0  0  0  0  0  0
   -2.5277    0.8677    0.0000 C   0  0  0  0  0  0  0  0  0  0  0  0
   -3.8642    1.5487    0.0000 C   0  0  0  0  0  0  0  0  0  0  0  0
   -4.7928    0.3707    0.0000 C   0  0  0  0  0  0  0  0  0  0  0  0
   -4.8383    2.6893    0.0000 C   0  0  0  0  0  0  0  0  0  0  0  0
  1  2  1  0
  2  3  1  0
  3  4  1  0
  4  5  1  0
  5  6  1  0
  6  7  1  0
  7  8  1  0
  8  9  1  0
  9 10  1  0
 10 11  1  0
 11 12  1  0
 12 13  2  0
 12 14  1  0
 14 15  1  0
 15 16  1  0
 16 17  1  0
 17 18  1  0
 18 19  1  0
 19 20  1  0
 20 21  1  0
 20 22  1  0
 22  2  1  0
 18 14  1  0
M  END
>  <Title>  (996) 
idABKJgen6

$$$$

     RDKit          2D

 22 23  0  0  0  0  0  0  0  0999 V2000
    7.5000   -2.5981    0.0000 C   0  0  0  0  0  0  0  0  0  0  0  0
    6.0000   -2.5981    0.0000 C   0  0  0  0  0  0  0  0  0  0  0  0
    5.2500   -3.8971    0.0000 O   0  0  0  0  0  0  0  0  0  0  0  0
    5.2500   -1.2990    0.0000 C   0  0  0  0  0  0  0  0  0  0  0  0
    3.7500   -1.2990    0.0000 N   0  0  0  0  0  0  0  0  0  0  0  0
    3.0000    0.0000    0.0000 C   0  0  0  0  0  0  0  0  0  0  0  0
    3.7500    1.2990    0.0000 O   0  0  0  0  0  0  0  0  0  0  0  0
    1.5000    0.0000    0.0000 C   0  0  0  0  0  0  0  0  0  0  0  0
    0.7500   -1.2990    0.0000 C   0  0  0  0  0  0  0  0  0  0  0  0
   -0.7500   -1.2990    0.0000 C   0  0  0  0  0  0  0  0  0  0  0  0
   -1.5000    0.0000    0.0000 C   0  0  0  0  0  0  0  0  0  0  0  0
   -3.0000    0.0000    0.0000 C   0  0  0  0  0  0  0  0  0  0  0  0
   -3.7500   -1.2990    0.0000 O   0  0  0  0  0  0  0  0  0  0  0  0
   -3.7500    1.2990    0.0000 O   0  0  0  0  0  0  0  0  0  0  0  0
   -5.2500    1.2990    0.0000 C   0  0  0  0  0  0  0  0  0  0  0  0
   -6.0000    2.5981    0.0000 C   0  0  0  0  0  0  0  0  0  0  0  0
   -7.5000    2.5981    0.0000 C   0  0  0  0  0  0  0  0  0  0  0  0
   -8.2500    1.2990    0.0000 C   0  0  0  0  0  0  0  0  0  0  0  0
   -7.5000    0.0000    0.0000 C   0  0  0  0  0  0  0  0  0  0  0  0
   -6.0000    0.0000    0.0000 C   0  0  0  0  0  0  0  0  0  0  0  0
   -0.7500    1.2990    0.0000 C   0  0  0  0  0  0  0  0  0  0  0  0
    0.7500    1.2990    0.0000 C   0  0  0  0  0  0  0  0  0  0  0  0
  1  2  1  0
  2  3  2  0
  2  4  1  0
  4  5  1  0
  5  6  1  0
  6  7  2  0
  6  8  1  0
  8  9  1  0
  9 10  1  0
 10 11  1  0
 11 12  1  0
 12 13  2  0
 12 14  1  0
 14 15  1  0
 15 16  2  0
 16 17  1  0
 17 18  2  0
 18 19  1  0
 19 20  2  0
 11 21  1  0
 21 22  1  0
 22  8  1  0
 20 15  1  0
M  END
>  <Title>  (997) 
idABKKgen6

$$$$

     RDKit          2D

  8  7  0  0  0  0  0  0  0  0999 V2000
    0.0000    0.0000    0.0000 C   0  0  0  0  0  0  0  0  0  0  0  0
    1.2990    0.7500    0.0000 C   0  0  0  0  0  0  0  0  0  0  0  0
    2.5981   -0.0000    0.0000 N   0  0  0  0  0  0  0  0  0  0  0  0
    3.8971    0.7500    0.0000 C   0  0  0  0  0  0  0  0  0  0  0  0
    2.5981   -1.5000    0.0000 C   0  0  0  0  0  0  0  0  0  0  0  0
    2.5981   -3.0000    0.0000 C   0  0  0  0  0  0  0  0  0  0  0  0
    2.5981   -4.5000    0.0000 C   0  0  0  0  0  0  0  0  0  0  0  0
    2.5981   -6.0000    0.0000 N   0  0  0  0  0  0  0  0  0  0  0  0
  1  2  1  0
  2  3  1  0
  3  4  1  0
  3  5  1  0
  5  6  3  0
  6  7  1  0
  7  8  3  0
M  END
>  <Title>  (998) 
idABKLgen6

$$$$

     RDKit          2D

 21 23  0  0  0  0  0  0  0  0999 V2000
   -3.7411  -13.3712    0.0000 C   0  0  0  0  0  0  0  0  0  0  0  0
   -2.5275  -12.4895    0.0000 C   0  0  0  0  0  0  0  0  0  0  0  0
   -2.2929  -11.0080    0.0000 C   0  0  0  0  0  0  0  0  0  0  0  0
   -0.8113  -11.2427    0.0000 C   0  0  0  0  0  0  0  0  0  0  0  0
    0.4022  -10.3610    0.0000 O   0  0  0  0  0  0  0  0  0  0  0  0
    0.2454   -8.8692    0.0000 C   0  0  0  0  0  0  0  0  0  0  0  0
   -1.0537   -8.1192    0.0000 C   0  0  0  0  0  0  0  0  0  0  0  0
   -0.7418   -6.6520    0.0000 C   0  0  0  0  0  0  0  0  0  0  0  0
    0.7500   -6.4952    0.0000 C   0  0  0  0  0  0  0  0  0  0  0  0
    1.5000   -5.1962    0.0000 O   0  0  0  0  0  0  0  0  0  0  0  0
    0.7500   -3.8971    0.0000 C   0  0  0  0  0  0  0  0  0  0  0  0
   -0.7500   -3.8971    0.0000 O   0  0  0  0  0  0  0  0  0  0  0  0
    1.5000   -2.5981    0.0000 N   0  0  0  0  0  0  0  0  0  0  0  0
    0.7500   -1.2990    0.0000 C   0  0  0  0  0  0  0  0  0  0  0  0
    1.5000    0.0000    0.0000 N   0  0  0  0  0  0  0  0  0  0  0  0
    0.7500    1.2990    0.0000 N   0  0  0  0  0  0  0  0  0  0  0  0
   -0.7500    1.2990    0.0000 N   0  0  0  0  0  0  0  0  0  0  0  0
   -1.5000    0.0000    0.0000 N   0  0  0  0  0  0  0  0  0  0  0  0
   -0.7500   -1.2990    0.0000 N   0  0  0  0  0  0  0  0  0  0  0  0
    1.3601   -7.8655    0.0000 C   0  0  0  0  0  0  0  0  0  0  0  0
   -1.0460  -12.7242    0.0000 C   0  0  0  0  0  0  0  0  0  0  0  0
  1  2  1  0
  2  3  1  0
  3  4  2  0
  4  5  1  0
  5  6  1  0
  6  7  2  0
  7  8  1  0
  8  9  2  0
  9 10  1  0
 10 11  1  0
 11 12  2  0
 11 13  1  0
 13 14  1  0
 14 15  2  0
 15 16  1  0
 16 17  2  0
 17 18  1  0
 18 19  2  0
  9 20  1  0
  4 21  1  0
 21  2  1  0
 20  6  1  0
 19 14  1  0
M  END
>  <Title>  (999) 
idABKMgen6

$$$$

     RDKit          2D

 15 16  0  0  0  0  0  0  0  0999 V2000
    1.8478   -9.0619    0.0000 C   0  0  0  0  0  0  0  0  0  0  0  0
    2.0046   -7.5702    0.0000 C   0  0  0  0  0  0  0  0  0  0  0  0
    3.3037   -6.8202    0.0000 C   0  0  0  0  0  0  0  0  0  0  0  0
    2.9918   -5.3529    0.0000 C   0  0  0  0  0  0  0  0  0  0  0  0
    1.5000   -5.1962    0.0000 C   0  0  0  0  0  0  0  0  0  0  0  0
    0.7500   -3.8971    0.0000 C   0  0  0  0  0  0  0  0  0  0  0  0
   -0.7500   -3.8971    0.0000 O   0  0  0  0  0  0  0  0  0  0  0  0
    1.5000   -2.5981    0.0000 N   0  0  0  0  0  0  0  0  0  0  0  0
    0.7500   -1.2990    0.0000 C   0  0  0  0  0  0  0  0  0  0  0  0
    1.5000    0.0000    0.0000 N   0  0  0  0  0  0  0  0  0  0  0  0
    0.7500    1.2990    0.0000 N   0  0  0  0  0  0  0  0  0  0  0  0
   -0.7500    1.2990    0.0000 N   0  0  0  0  0  0  0  0  0  0  0  0
   -1.5000    0.0000    0.0000 N   0  0  0  0  0  0  0  0  0  0  0  0
   -0.7500   -1.2990    0.0000 N   0  0  0  0  0  0  0  0  0  0  0  0
    0.8899   -6.5665    0.0000 C   0  0  0  0  0  0  0  0  0  0  0  0
  1  2  1  0
  2  3  1  0
  3  4  2  0
  4  5  1  0
  5  6  1  0
  6  7  2  0
  6  8  1  0
  8  9  1  0
  9 10  2  0
 10 11  1  0
 11 12  2  0
 12 13  1  0
 13 14  2  0
  5 15  1  0
 15  2  1  0
 14  9  1  0
M  END
>  <Title>  (1000) 
idABKNgen6

$$$$

     RDKit          2D

 45 49  0  0  0  0  0  0  0  0999 V2000
    4.6771   -1.2990    0.0000 C   0  0  0  0  0  0  0  0  0  0  0  0
    3.9271    0.0000    0.0000 O   0  0  0  0  0  0  0  0  0  0  0  0
    2.4271    0.0000    0.0000 C   0  0  0  0  0  0  0  0  0  0  0  0
    1.9635   -1.4266    0.0000 C   0  0  0  0  0  0  0  0  0  0  0  0
    0.7500   -2.3083    0.0000 C   0  0  0  0  0  0  0  0  0  0  0  0
   -0.7500   -2.3083    0.0000 C   0  0  0  0  0  0  0  0  0  0  0  0
   -1.9635   -1.4266    0.0000 C   0  0  0  0  0  0  0  0  0  0  0  0
   -2.4271    0.0000    0.0000 C   0  0  0  0  0  0  0  0  0  0  0  0
   -1.9635    1.4266    0.0000 C   0  0  0  0  0  0  0  0  0  0  0  0
   -0.7500    2.3083    0.0000 C   0  0  0  0  0  0  0  0  0  0  0  0
   -1.6607    3.5001    0.0000 C   0  0  0  0  0  0  0  0  0  0  0  0
   -3.0211    4.1322    0.0000 C   0  0  0  0  0  0  0  0  0  0  0  0
   -4.5193    4.0598    0.0000 C   0  0  0  0  0  0  0  0  0  0  0  0
   -5.8123    3.2993    0.0000 C   0  0  0  0  0  0  0  0  0  0  0  0
   -6.6037    2.0251    0.0000 N   0  0  0  0  0  0  0  0  0  0  0  0
   -8.0303    2.4886    0.0000 C   0  0  0  0  0  0  0  0  0  0  0  0
   -9.1450    1.4849    0.0000 C   0  0  0  0  0  0  0  0  0  0  0  0
  -10.5716    1.9485    0.0000 C   0  0  0  0  0  0  0  0  0  0  0  0
  -10.8835    3.4157    0.0000 C   0  0  0  0  0  0  0  0  0  0  0  0
  -12.3101    3.8792    0.0000 N   0  0  0  0  0  0  0  0  0  0  0  0
  -13.4248    2.8755    0.0000 C   0  0  0  0  0  0  0  0  0  0  0  0
  -12.6219    5.3464    0.0000 C   0  0  0  0  0  0  0  0  0  0  0  0
   -9.7688    4.4194    0.0000 C   0  0  0  0  0  0  0  0  0  0  0  0
   -8.3422    3.9559    0.0000 C   0  0  0  0  0  0  0  0  0  0  0  0
   -7.2275    4.9596    0.0000 C   0  0  0  0  0  0  0  0  0  0  0  0
   -7.5393    6.4268    0.0000 C   0  0  0  0  0  0  0  0  0  0  0  0
   -6.4246    7.4305    0.0000 C   0  0  0  0  0  0  0  0  0  0  0  0
   -4.9980    6.9670    0.0000 C   0  0  0  0  0  0  0  0  0  0  0  0
   -4.6862    5.4997    0.0000 C   0  0  0  0  0  0  0  0  0  0  0  0
   -5.8009    4.4960    0.0000 C   0  0  0  0  0  0  0  0  0  0  0  0
   -6.7124    0.5291    0.0000 C   0  0  0  0  0  0  0  0  0  0  0  0
   -8.1910    0.2765    0.0000 O   0  0  0  0  0  0  0  0  0  0  0  0
   -6.1133   -0.8461    0.0000 C   0  0  0  0  0  0  0  0  0  0  0  0
   -7.3052   -1.7569    0.0000 C   0  0  0  0  0  0  0  0  0  0  0  0
   -7.1124   -3.2444    0.0000 C   0  0  0  0  0  0  0  0  0  0  0  0
   -5.7277   -3.8212    0.0000 C   0  0  0  0  0  0  0  0  0  0  0  0
   -5.5349   -5.3088    0.0000 C   0  0  0  0  0  0  0  0  0  0  0  0
   -6.7268   -6.2195    0.0000 C   0  0  0  0  0  0  0  0  0  0  0  0
   -8.1115   -5.6427    0.0000 C   0  0  0  0  0  0  0  0  0  0  0  0
   -8.3043   -4.1552    0.0000 C   0  0  0  0  0  0  0  0  0  0  0  0
   -4.9438   -1.7854    0.0000 N   0  0  0  0  0  0  0  0  0  0  0  0
   -3.4718   -2.0736    0.0000 C   0  0  0  0  0  0  0  0  0  0  0  0
   -3.3993   -3.5718    0.0000 O   0  0  0  0  0  0  0  0  0  0  0  0
    0.7500    2.3083    0.0000 C   0  0  0  0  0  0  0  0  0  0  0  0
    1.9635    1.4266    0.0000 C   0  0  0  0  0  0  0  0  0  0  0  0
  1  2  1  0
  2  3  1  0
  3  4  1  0
  4  5  2  0
  5  6  1  0
  6  7  1  0
  7  8  1  0
  8  9  1  0
  9 10  1  0
 10 11  1  0
 11 12  1  0
 12 13  1  0
 13 14  1  0
 14 15  1  0
 15 16  1  0
 16 17  2  0
 17 18  1  0
 18 19  2  0
 19 20  1  0
 20 21  1  0
 20 22  1  0
 19 23  1  0
 23 24  2  0
 24 25  1  0
 25 26  2  0
 26 27  1  0
 27 28  2  0
 28 29  1  0
 29 30  2  0
 15 31  1  0
 31 32  2  0
 31 33  1  0
 33 34  1  0
 34 35  1  0
 35 36  2  0
 36 37  1  0
 37 38  2  0
 38 39  1  0
 39 40  2  0
 33 41  1  0
 41 42  1  0
 42 43  2  0
 10 44  1  0
 44 45  1  0
 45  3  1  0
 42  7  1  0
 24 16  1  0
 30 25  1  0
 40 35  1  0
M  END
>  <Title>  (1001) 
idABKOgen6

$$$$

     RDKit          2D

 27 29  0  0  0  0  0  0  0  0999 V2000
   -6.5490   -5.7452    0.0000 C   0  0  0  0  0  0  0  0  0  0  0  0
   -5.2500   -6.4952    0.0000 C   0  0  0  0  0  0  0  0  0  0  0  0
   -3.9510   -7.2452    0.0000 C   0  0  0  0  0  0  0  0  0  0  0  0
   -6.0000   -7.7942    0.0000 C   0  0  0  0  0  0  0  0  0  0  0  0
   -4.5000   -5.1962    0.0000 C   0  0  0  0  0  0  0  0  0  0  0  0
   -3.7500   -3.8971    0.0000 C   0  0  0  0  0  0  0  0  0  0  0  0
   -3.0000   -2.5981    0.0000 C   0  0  0  0  0  0  0  0  0  0  0  0
   -3.7500   -1.2990    0.0000 O   0  0  0  0  0  0  0  0  0  0  0  0
   -1.5000   -2.5981    0.0000 N   0  0  0  0  0  0  0  0  0  0  0  0
   -0.7500   -3.8971    0.0000 C   0  0  0  0  0  0  0  0  0  0  0  0
    0.7500   -3.8971    0.0000 C   0  0  0  0  0  0  0  0  0  0  0  0
    1.5000   -2.5981    0.0000 C   0  0  0  0  0  0  0  0  0  0  0  0
    3.0000   -2.5981    0.0000 C   0  0  0  0  0  0  0  0  0  0  0  0
    3.7500   -1.2990    0.0000 O   0  0  0  0  0  0  0  0  0  0  0  0
    3.7500   -3.8971    0.0000 N   0  0  0  0  0  0  0  0  0  0  0  0
    5.2500   -3.8971    0.0000 C   0  0  0  0  0  0  0  0  0  0  0  0
    6.0000   -5.1962    0.0000 N   0  0  0  0  0  0  0  0  0  0  0  0
    7.5000   -5.1962    0.0000 N   0  0  0  0  0  0  0  0  0  0  0  0
    8.2500   -3.8971    0.0000 N   0  0  0  0  0  0  0  0  0  0  0  0
    7.5000   -2.5981    0.0000 N   0  0  0  0  0  0  0  0  0  0  0  0
    6.0000   -2.5981    0.0000 N   0  0  0  0  0  0  0  0  0  0  0  0
    0.7500   -1.2990    0.0000 C   0  0  0  0  0  0  0  0  0  0  0  0
    1.5000    0.0000    0.0000 C   0  0  0  0  0  0  0  0  0  0  0  0
    0.7500    1.2990    0.0000 C   0  0  0  0  0  0  0  0  0  0  0  0
   -0.7500    1.2990    0.0000 C   0  0  0  0  0  0  0  0  0  0  0  0
   -1.5000    0.0000    0.0000 C   0  0  0  0  0  0  0  0  0  0  0  0
   -0.7500   -1.2990    0.0000 C   0  0  0  0  0  0  0  0  0  0  0  0
  1  2  1  0
  2  3  1  0
  2  4  1  0
  2  5  1  0
  5  6  3  0
  6  7  1  0
  7  8  2  0
  7  9  1  0
  9 10  1  0
 10 11  1  0
 11 12  1  0
 12 13  1  0
 13 14  2  0
 13 15  1  0
 15 16  1  0
 16 17  2  0
 17 18  1  0
 18 19  2  0
 19 20  1  0
 20 21  2  0
 12 22  1  0
 22 23  2  0
 23 24  1  0
 24 25  2  0
 25 26  1  0
 26 27  2  0
 27  9  1  0
 21 16  1  0
 27 22  1  0
M  END
>  <Title>  (1002) 
idABKPgen6

$$$$

     RDKit          2D

 18 19  0  0  0  0  0  0  0  0999 V2000
   -1.5000   -2.5981    0.0000 O   0  0  0  0  0  0  0  0  0  0  0  0
   -0.7500   -3.8971    0.0000 C   0  0  0  0  0  0  0  0  0  0  0  0
   -1.5000   -5.1962    0.0000 O   0  0  0  0  0  0  0  0  0  0  0  0
    0.7500   -3.8971    0.0000 C   0  0  0  0  0  0  0  0  0  0  0  0
    1.5000   -2.5981    0.0000 C   0  0  0  0  0  0  0  0  0  0  0  0
    3.0000   -2.5981    0.0000 O   0  0  0  0  0  0  0  0  0  0  0  0
    0.7500   -1.2990    0.0000 C   0  0  0  0  0  0  0  0  0  0  0  0
    1.5000    0.0000    0.0000 C   0  0  0  0  0  0  0  0  0  0  0  0
    0.7500    1.2990    0.0000 C   0  0  0  0  0  0  0  0  0  0  0  0
   -0.7500    1.2990    0.0000 C   0  0  0  0  0  0  0  0  0  0  0  0
   -1.5000    0.0000    0.0000 C   0  0  0  0  0  0  0  0  0  0  0  0
   -0.7500   -1.2990    0.0000 C   0  0  0  0  0  0  0  0  0  0  0  0
    1.5000   -5.1962    0.0000 C   0  0  0  0  0  0  0  0  0  0  0  0
    0.7500   -6.4952    0.0000 N   0  0  0  0  0  0  0  0  0  0  0  0
    1.5000   -7.7942    0.0000 N   0  0  0  0  0  0  0  0  0  0  0  0
    3.0000   -7.7942    0.0000 N   0  0  0  0  0  0  0  0  0  0  0  0
    3.7500   -6.4952    0.0000 N   0  0  0  0  0  0  0  0  0  0  0  0
    3.0000   -5.1962    0.0000 N   0  0  0  0  0  0  0  0  0  0  0  0
  1  2  2  0
  2  3  1  0
  2  4  1  0
  4  5  1  0
  5  6  2  0
  5  7  1  0
  7  8  2  0
  8  9  1  0
  9 10  2  0
 10 11  1  0
 11 12  2  0
  4 13  1  0
 13 14  2  0
 14 15  1  0
 15 16  2  0
 16 17  1  0
 17 18  2  0
 12  7  1  0
 18 13  1  0
M  END
>  <Title>  (1003) 
idABKQgen6

$$$$

     RDKit          2D

 27 29  0  0  0  0  0  0  0  0999 V2000
   -3.2127   -5.8491    0.0000 C   0  0  0  0  0  0  0  0  0  0  0  0
   -1.7455   -5.5373    0.0000 O   0  0  0  0  0  0  0  0  0  0  0  0
   -0.7418   -6.6520    0.0000 C   0  0  0  0  0  0  0  0  0  0  0  0
   -1.0537   -8.1192    0.0000 C   0  0  0  0  0  0  0  0  0  0  0  0
    0.2454   -8.8692    0.0000 C   0  0  0  0  0  0  0  0  0  0  0  0
    1.3601   -7.8655    0.0000 C   0  0  0  0  0  0  0  0  0  0  0  0
    2.8273   -8.1774    0.0000 O   0  0  0  0  0  0  0  0  0  0  0  0
    0.7500   -6.4952    0.0000 C   0  0  0  0  0  0  0  0  0  0  0  0
    1.5000   -5.1962    0.0000 C   0  0  0  0  0  0  0  0  0  0  0  0
    3.0000   -5.1962    0.0000 O   0  0  0  0  0  0  0  0  0  0  0  0
    0.7500   -3.8971    0.0000 C   0  0  0  0  0  0  0  0  0  0  0  0
    1.5000   -2.5981    0.0000 C   0  0  0  0  0  0  0  0  0  0  0  0
    3.0000   -2.5981    0.0000 C   0  0  0  0  0  0  0  0  0  0  0  0
    3.7500   -1.2990    0.0000 C   0  0  0  0  0  0  0  0  0  0  0  0
    5.2500   -1.2990    0.0000 C   0  0  0  0  0  0  0  0  0  0  0  0
    6.0000   -2.5981    0.0000 C   0  0  0  0  0  0  0  0  0  0  0  0
    5.2500   -3.8971    0.0000 C   0  0  0  0  0  0  0  0  0  0  0  0
    3.7500   -3.8971    0.0000 C   0  0  0  0  0  0  0  0  0  0  0  0
   -0.7500   -3.8971    0.0000 N   0  0  0  0  0  0  0  0  0  0  0  0
   -1.5000   -2.5981    0.0000 C   0  0  0  0  0  0  0  0  0  0  0  0
   -0.7500   -1.2990    0.0000 O   0  0  0  0  0  0  0  0  0  0  0  0
   -3.0000   -2.5981    0.0000 C   0  0  0  0  0  0  0  0  0  0  0  0
   -3.8817   -1.3846    0.0000 C   0  0  0  0  0  0  0  0  0  0  0  0
   -5.3083   -1.8481    0.0000 C   0  0  0  0  0  0  0  0  0  0  0  0
   -5.3083   -3.3481    0.0000 C   0  0  0  0  0  0  0  0  0  0  0  0
   -6.5218   -4.2298    0.0000 O   0  0  0  0  0  0  0  0  0  0  0  0
   -3.8817   -3.8116    0.0000 O   0  0  0  0  0  0  0  0  0  0  0  0
  1  2  1  0
  2  3  1  0
  3  4  2  0
  4  5  1  0
  5  6  2  0
  6  7  1  0
  6  8  1  0
  8  9  1  0
  9 10  2  0
  9 11  1  0
 11 12  1  0
 12 13  1  0
 13 14  2  0
 14 15  1  0
 15 16  2  0
 16 17  1  0
 17 18  2  0
 11 19  1  0
 19 20  1  0
 20 21  2  0
 20 22  1  0
 22 23  1  0
 23 24  1  0
 24 25  1  0
 25 26  2  0
 25 27  1  0
  8  3  1  0
 18 13  1  0
 27 22  1  0
M  END
>  <Title>  (1004) 
idABKRgen6

$$$$

     RDKit          2D

 21 22  0  0  0  0  0  0  0  0999 V2000
    2.7760    0.0000    0.0000 C   0  0  0  0  0  0  0  0  0  0  0  0
    1.2760    0.0000    0.0000 C   0  0  0  0  0  0  0  0  0  0  0  0
    0.3943    1.2135    0.0000 C   0  0  0  0  0  0  0  0  0  0  0  0
   -1.0323    0.7500    0.0000 C   0  0  0  0  0  0  0  0  0  0  0  0
   -2.2458    1.6317    0.0000 C   0  0  0  0  0  0  0  0  0  0  0  0
   -1.0323   -0.7500    0.0000 N   0  0  0  0  0  0  0  0  0  0  0  0
   -2.2458   -1.6317    0.0000 C   0  0  0  0  0  0  0  0  0  0  0  0
   -3.6161   -1.0216    0.0000 C   0  0  0  0  0  0  0  0  0  0  0  0
   -4.8297   -1.9033    0.0000 C   0  0  0  0  0  0  0  0  0  0  0  0
   -4.6729   -3.3950    0.0000 O   0  0  0  0  0  0  0  0  0  0  0  0
   -6.2000   -1.2931    0.0000 N   0  0  0  0  0  0  0  0  0  0  0  0
   -7.4990   -2.0431    0.0000 C   0  0  0  0  0  0  0  0  0  0  0  0
   -8.6137   -1.0394    0.0000 C   0  0  0  0  0  0  0  0  0  0  0  0
   -8.0036    0.3309    0.0000 C   0  0  0  0  0  0  0  0  0  0  0  0
   -8.7536    1.6299    0.0000 C   0  0  0  0  0  0  0  0  0  0  0  0
  -10.2536    1.6299    0.0000 O   0  0  0  0  0  0  0  0  0  0  0  0
   -8.0036    2.9289    0.0000 O   0  0  0  0  0  0  0  0  0  0  0  0
   -6.5118    0.1741    0.0000 C   0  0  0  0  0  0  0  0  0  0  0  0
   -5.5081    1.2888    0.0000 O   0  0  0  0  0  0  0  0  0  0  0  0
    0.3943   -1.2135    0.0000 C   0  0  0  0  0  0  0  0  0  0  0  0
    0.8578   -2.6401    0.0000 O   0  0  0  0  0  0  0  0  0  0  0  0
  1  2  1  0
  2  3  2  0
  3  4  1  0
  4  5  1  0
  4  6  1  0
  6  7  1  0
  7  8  1  0
  8  9  1  0
  9 10  2  0
  9 11  1  0
 11 12  1  0
 12 13  1  0
 13 14  1  0
 14 15  1  0
 15 16  2  0
 15 17  1  0
 14 18  1  0
 18 19  2  0
  6 20  1  0
 20 21  2  0
 20  2  1  0
 18 11  1  0
M  END
>  <Title>  (1005) 
idABKSgen6

$$$$

     RDKit          2D

  7  7  0  0  0  0  0  0  0  0999 V2000
    3.0000    0.0000    0.0000 C   0  0  0  0  0  0  0  0  0  0  0  0
    1.5000    0.0000    0.0000 C   0  0  0  0  0  0  0  0  0  0  0  0
    0.7500   -1.2990    0.0000 C   0  0  0  0  0  0  0  0  0  0  0  0
   -0.7500   -1.2990    0.0000 C   0  0  0  0  0  0  0  0  0  0  0  0
   -1.5000    0.0000    0.0000 C   0  0  0  0  0  0  0  0  0  0  0  0
   -0.7500    1.2990    0.0000 C   0  0  0  0  0  0  0  0  0  0  0  0
    0.7500    1.2990    0.0000 C   0  0  0  0  0  0  0  0  0  0  0  0
  1  2  1  0
  2  3  1  0
  3  4  2  0
  4  5  1  0
  5  6  1  0
  6  7  2  0
  7  2  1  0
M  END
>  <Title>  (1006) 
idABKTgen6

$$$$

     RDKit          2D

 29 33  0  0  0  0  0  0  0  0999 V2000
   -0.4109   -7.4962    0.0000 C   0  0  0  0  0  0  0  0  0  0  0  0
   -1.3240   -6.3062    0.0000 O   0  0  0  0  0  0  0  0  0  0  0  0
   -0.7500   -4.9204    0.0000 C   0  0  0  0  0  0  0  0  0  0  0  0
    0.7500   -4.9204    0.0000 C   0  0  0  0  0  0  0  0  0  0  0  0
    1.8107   -3.8597    0.0000 C   0  0  0  0  0  0  0  0  0  0  0  0
    1.8107   -2.3597    0.0000 C   0  0  0  0  0  0  0  0  0  0  0  0
    3.1965   -1.7857    0.0000 C   0  0  0  0  0  0  0  0  0  0  0  0
    3.5466   -0.3271    0.0000 N   0  0  0  0  0  0  0  0  0  0  0  0
    5.0420   -0.2094    0.0000 N   0  0  0  0  0  0  0  0  0  0  0  0
    5.6160   -1.5952    0.0000 N   0  0  0  0  0  0  0  0  0  0  0  0
    4.4754   -2.5694    0.0000 N   0  0  0  0  0  0  0  0  0  0  0  0
    4.5931   -4.0648    0.0000 N   0  0  0  0  0  0  0  0  0  0  0  0
    5.8721   -4.8485    0.0000 C   0  0  0  0  0  0  0  0  0  0  0  0
    5.5219   -6.3071    0.0000 C   0  0  0  0  0  0  0  0  0  0  0  0
    4.0265   -6.4248    0.0000 C   0  0  0  0  0  0  0  0  0  0  0  0
    3.4525   -5.0390    0.0000 C   0  0  0  0  0  0  0  0  0  0  0  0
    1.9940   -4.6888    0.0000 O   0  0  0  0  0  0  0  0  0  0  0  0
    0.7500   -1.2990    0.0000 C   0  0  0  0  0  0  0  0  0  0  0  0
    1.5000    0.0000    0.0000 C   0  0  0  0  0  0  0  0  0  0  0  0
    0.7500    1.2990    0.0000 C   0  0  0  0  0  0  0  0  0  0  0  0
   -0.7500    1.2990    0.0000 C   0  0  0  0  0  0  0  0  0  0  0  0
   -1.5000    0.0000    0.0000 C   0  0  0  0  0  0  0  0  0  0  0  0
   -0.7500   -1.2990    0.0000 C   0  0  0  0  0  0  0  0  0  0  0  0
   -1.8107   -2.3597    0.0000 C   0  0  0  0  0  0  0  0  0  0  0  0
   -3.1097   -1.6097    0.0000 C   0  0  0  0  0  0  0  0  0  0  0  0
   -4.4087   -2.3597    0.0000 C   0  0  0  0  0  0  0  0  0  0  0  0
   -4.4087   -3.8597    0.0000 C   0  0  0  0  0  0  0  0  0  0  0  0
   -3.1097   -4.6097    0.0000 C   0  0  0  0  0  0  0  0  0  0  0  0
   -1.8107   -3.8597    0.0000 C   0  0  0  0  0  0  0  0  0  0  0  0
  1  2  1  0
  2  3  1  0
  3  4  2  0
  4  5  1  0
  5  6  2  0
  6  7  1  0
  7  8  2  0
  8  9  1  0
  9 10  2  0
 10 11  1  0
 11 12  1  0
 12 13  1  0
 13 14  1  0
 14 15  1  0
 15 16  1  0
 16 17  2  0
  6 18  1  0
 18 19  2  0
 19 20  1  0
 20 21  2  0
 21 22  1  0
 22 23  2  0
 23 24  1  0
 24 25  2  0
 25 26  1  0
 26 27  2  0
 27 28  1  0
 28 29  2  0
 29  3  1  0
 11  7  1  0
 16 12  1  0
 23 18  1  0
 29 24  1  0
M  END
>  <Title>  (1007) 
idABKUgen6

$$$$

     RDKit          2D

 23 25  0  0  0  0  0  0  0  0999 V2000
   -0.0000   -6.0850    0.0000 C   0  0  0  0  0  0  0  0  0  0  0  0
   -0.0000   -4.5850    0.0000 C   0  0  0  0  0  0  0  0  0  0  0  0
    1.3515   -3.9342    0.0000 C   0  0  0  0  0  0  0  0  0  0  0  0
    1.6852   -2.4718    0.0000 C   0  0  0  0  0  0  0  0  0  0  0  0
    0.7500   -1.2990    0.0000 C   0  0  0  0  0  0  0  0  0  0  0  0
    1.5000    0.0000    0.0000 C   0  0  0  0  0  0  0  0  0  0  0  0
    0.7500    1.2990    0.0000 C   0  0  0  0  0  0  0  0  0  0  0  0
    1.5000    2.5981    0.0000 C   0  0  0  0  0  0  0  0  0  0  0  0
    0.7500    3.8971    0.0000 O   0  0  0  0  0  0  0  0  0  0  0  0
    3.0000    2.5981    0.0000 N   0  0  0  0  0  0  0  0  0  0  0  0
    3.7500    3.8971    0.0000 C   0  0  0  0  0  0  0  0  0  0  0  0
    5.2500    3.8971    0.0000 N   0  0  0  0  0  0  0  0  0  0  0  0
    6.0000    5.1962    0.0000 N   0  0  0  0  0  0  0  0  0  0  0  0
    5.2500    6.4952    0.0000 N   0  0  0  0  0  0  0  0  0  0  0  0
    3.7500    6.4952    0.0000 N   0  0  0  0  0  0  0  0  0  0  0  0
    3.0000    5.1962    0.0000 N   0  0  0  0  0  0  0  0  0  0  0  0
   -0.7500    1.2990    0.0000 C   0  0  0  0  0  0  0  0  0  0  0  0
   -1.5000    0.0000    0.0000 C   0  0  0  0  0  0  0  0  0  0  0  0
   -0.7500   -1.2990    0.0000 C   0  0  0  0  0  0  0  0  0  0  0  0
   -1.6852   -2.4718    0.0000 O   0  0  0  0  0  0  0  0  0  0  0  0
   -1.3515   -3.9342    0.0000 C   0  0  0  0  0  0  0  0  0  0  0  0
   -2.5242   -4.8694    0.0000 C   0  0  0  0  0  0  0  0  0  0  0  0
   -3.9205   -4.3214    0.0000 O   0  0  0  0  0  0  0  0  0  0  0  0
  1  2  1  0
  2  3  1  0
  3  4  2  0
  4  5  1  0
  5  6  2  0
  6  7  1  0
  7  8  1  0
  8  9  2  0
  8 10  1  0
 10 11  1  0
 11 12  2  0
 12 13  1  0
 13 14  2  0
 14 15  1  0
 15 16  2  0
  7 17  2  0
 17 18  1  0
 18 19  2  0
 19 20  1  0
 20 21  1  0
 21 22  1  0
 22 23  1  0
 21  2  1  0
 19  5  1  0
 16 11  1  0
M  END
>  <Title>  (1008) 
idABKVgen6

$$$$

     RDKit          2D

 34 38  0  0  0  0  0  0  0  0999 V2000
   -1.3240   -6.3062    0.0000 C   0  0  0  0  0  0  0  0  0  0  0  0
   -0.7500   -4.9204    0.0000 C   0  0  0  0  0  0  0  0  0  0  0  0
    0.7500   -4.9204    0.0000 C   0  0  0  0  0  0  0  0  0  0  0  0
    1.8107   -3.8597    0.0000 C   0  0  0  0  0  0  0  0  0  0  0  0
    1.8107   -2.3597    0.0000 C   0  0  0  0  0  0  0  0  0  0  0  0
    3.1965   -1.7857    0.0000 O   0  0  0  0  0  0  0  0  0  0  0  0
    4.3865   -2.6988    0.0000 C   0  0  0  0  0  0  0  0  0  0  0  0
    5.7723   -2.1248    0.0000 C   0  0  0  0  0  0  0  0  0  0  0  0
    6.1225   -0.6662    0.0000 C   0  0  0  0  0  0  0  0  0  0  0  0
    7.6179   -0.5485    0.0000 C   0  0  0  0  0  0  0  0  0  0  0  0
    8.1919   -1.9344    0.0000 C   0  0  0  0  0  0  0  0  0  0  0  0
    9.6505   -2.2845    0.0000 C   0  0  0  0  0  0  0  0  0  0  0  0
   10.6830   -1.1965    0.0000 O   0  0  0  0  0  0  0  0  0  0  0  0
   10.0765   -3.7228    0.0000 N   0  0  0  0  0  0  0  0  0  0  0  0
   11.5350   -4.0729    0.0000 C   0  0  0  0  0  0  0  0  0  0  0  0
   11.9611   -5.5112    0.0000 N   0  0  0  0  0  0  0  0  0  0  0  0
   13.4196   -5.8613    0.0000 N   0  0  0  0  0  0  0  0  0  0  0  0
   14.4521   -4.7733    0.0000 N   0  0  0  0  0  0  0  0  0  0  0  0
   14.0261   -3.3350    0.0000 N   0  0  0  0  0  0  0  0  0  0  0  0
   12.5676   -2.9849    0.0000 N   0  0  0  0  0  0  0  0  0  0  0  0
    7.0513   -2.9085    0.0000 C   0  0  0  0  0  0  0  0  0  0  0  0
    7.1690   -4.4039    0.0000 O   0  0  0  0  0  0  0  0  0  0  0  0
    0.7500   -1.2990    0.0000 C   0  0  0  0  0  0  0  0  0  0  0  0
    1.5000    0.0000    0.0000 C   0  0  0  0  0  0  0  0  0  0  0  0
    0.7500    1.2990    0.0000 C   0  0  0  0  0  0  0  0  0  0  0  0
   -0.7500    1.2990    0.0000 C   0  0  0  0  0  0  0  0  0  0  0  0
   -1.5000    0.0000    0.0000 C   0  0  0  0  0  0  0  0  0  0  0  0
   -0.7500   -1.2990    0.0000 C   0  0  0  0  0  0  0  0  0  0  0  0
   -1.8107   -2.3597    0.0000 C   0  0  0  0  0  0  0  0  0  0  0  0
   -3.1097   -1.6097    0.0000 C   0  0  0  0  0  0  0  0  0  0  0  0
   -4.4087   -2.3597    0.0000 C   0  0  0  0  0  0  0  0  0  0  0  0
   -4.4087   -3.8597    0.0000 C   0  0  0  0  0  0  0  0  0  0  0  0
   -3.1097   -4.6097    0.0000 C   0  0  0  0  0  0  0  0  0  0  0  0
   -1.8107   -3.8597    0.0000 C   0  0  0  0  0  0  0  0  0  0  0  0
  1  2  1  0
  2  3  1  0
  3  4  1  0
  4  5  1  0
  5  6  1  0
  6  7  1  0
  7  8  1  0
  8  9  1  0
  9 10  1  0
 10 11  1  0
 11 12  1  0
 12 13  2  0
 12 14  1  0
 14 15  1  0
 15 16  2  0
 16 17  1  0
 17 18  2  0
 18 19  1  0
 19 20  2  0
 11 21  1  0
 21 22  2  0
  5 23  1  0
 23 24  2  0
 24 25  1  0
 25 26  2  0
 26 27  1  0
 27 28  2  0
 28 29  1  0
 29 30  2  0
 30 31  1  0
 31 32  2  0
 32 33  1  0
 33 34  2  0
 34  2  1  0
 21  8  1  0
 28 23  1  0
 34 29  1  0
 20 15  1  0
M  END
>  <Title>  (1009) 
idABKWgen6

$$$$

     RDKit          2D

 25 25  0  0  0  0  0  0  0  0999 V2000
    5.9840    0.0000    0.0000 C   0  0  0  0  0  0  0  0  0  0  0  0
    5.7960    1.4882    0.0000 C   0  0  0  0  0  0  0  0  0  0  0  0
    5.2439    2.8828    0.0000 C   0  0  0  0  0  0  0  0  0  0  0  0
    4.3622    4.0964    0.0000 C   0  0  0  0  0  0  0  0  0  0  0  0
    3.2064    5.0525    0.0000 C   0  0  0  0  0  0  0  0  0  0  0  0
    1.8492    5.6912    0.0000 C   0  0  0  0  0  0  0  0  0  0  0  0
    0.3757    5.9722    0.0000 C   0  0  0  0  0  0  0  0  0  0  0  0
   -1.1213    5.8781    0.0000 C   0  0  0  0  0  0  0  0  0  0  0  0
   -2.5479    5.4145    0.0000 C   0  0  0  0  0  0  0  0  0  0  0  0
   -3.8144    4.6108    0.0000 C   0  0  0  0  0  0  0  0  0  0  0  0
   -4.8412    3.5173    0.0000 C   0  0  0  0  0  0  0  0  0  0  0  0
   -5.5638    2.2029    0.0000 C   0  0  0  0  0  0  0  0  0  0  0  0
   -5.9369    0.7500    0.0000 C   0  0  0  0  0  0  0  0  0  0  0  0
   -5.9369   -0.7500    0.0000 C   0  0  0  0  0  0  0  0  0  0  0  0
   -5.5638   -2.2029    0.0000 C   0  0  0  0  0  0  0  0  0  0  0  0
   -4.8412   -3.5173    0.0000 C   0  0  0  0  0  0  0  0  0  0  0  0
   -3.8144   -4.6108    0.0000 C   0  0  0  0  0  0  0  0  0  0  0  0
   -2.5479   -5.4145    0.0000 C   0  0  0  0  0  0  0  0  0  0  0  0
   -1.1213   -5.8781    0.0000 C   0  0  0  0  0  0  0  0  0  0  0  0
    0.3757   -5.9722    0.0000 C   0  0  0  0  0  0  0  0  0  0  0  0
    1.8492   -5.6912    0.0000 C   0  0  0  0  0  0  0  0  0  0  0  0
    3.2064   -5.0525    0.0000 C   0  0  0  0  0  0  0  0  0  0  0  0
    4.3622   -4.0964    0.0000 C   0  0  0  0  0  0  0  0  0  0  0  0
    5.2439   -2.8828    0.0000 C   0  0  0  0  0  0  0  0  0  0  0  0
    5.7960   -1.4882    0.0000 C   0  0  0  0  0  0  0  0  0  0  0  0
  1  2  1  0
  2  3  1  0
  3  4  1  0
  4  5  1  0
  5  6  1  0
  6  7  1  0
  7  8  1  0
  8  9  1  0
  9 10  1  0
 10 11  1  0
 11 12  1  0
 12 13  1  0
 13 14  1  0
 14 15  1  0
 15 16  1  0
 16 17  1  0
 17 18  1  0
 18 19  1  0
 19 20  1  0
 20 21  1  0
 21 22  1  0
 22 23  1  0
 23 24  1  0
 24 25  1  0
 25  1  1  0
M  END
>  <Title>  (1010) 
idABKXgen6

$$$$

     RDKit          2D

 31 31  0  0  0  0  0  0  0  0999 V2000
    7.4134    0.0000    0.0000 C   0  0  0  0  0  0  0  0  0  0  0  0
    7.2616    1.4923    0.0000 C   0  0  0  0  0  0  0  0  0  0  0  0
    6.8126    2.9235    0.0000 C   0  0  0  0  0  0  0  0  0  0  0  0
    6.0846    4.2350    0.0000 C   0  0  0  0  0  0  0  0  0  0  0  0
    5.1076    5.3732    0.0000 C   0  0  0  0  0  0  0  0  0  0  0  0
    3.9214    6.2913    0.0000 C   0  0  0  0  0  0  0  0  0  0  0  0
    2.5747    6.9519    0.0000 C   0  0  0  0  0  0  0  0  0  0  0  0
    1.1226    7.3279    0.0000 C   0  0  0  0  0  0  0  0  0  0  0  0
   -0.3755    7.4039    0.0000 C   0  0  0  0  0  0  0  0  0  0  0  0
   -1.8582    7.1767    0.0000 C   0  0  0  0  0  0  0  0  0  0  0  0
   -3.2648    6.6558    0.0000 C   0  0  0  0  0  0  0  0  0  0  0  0
   -4.5378    5.8623    0.0000 C   0  0  0  0  0  0  0  0  0  0  0  0
   -5.6250    4.8289    0.0000 C   0  0  0  0  0  0  0  0  0  0  0  0
   -6.4819    3.5977    0.0000 C   0  0  0  0  0  0  0  0  0  0  0  0
   -7.0734    2.2193    0.0000 C   0  0  0  0  0  0  0  0  0  0  0  0
   -7.3754    0.7500    0.0000 C   0  0  0  0  0  0  0  0  0  0  0  0
   -7.3754   -0.7500    0.0000 C   0  0  0  0  0  0  0  0  0  0  0  0
   -7.0734   -2.2193    0.0000 C   0  0  0  0  0  0  0  0  0  0  0  0
   -6.4819   -3.5977    0.0000 C   0  0  0  0  0  0  0  0  0  0  0  0
   -5.6250   -4.8289    0.0000 C   0  0  0  0  0  0  0  0  0  0  0  0
   -4.5378   -5.8623    0.0000 C   0  0  0  0  0  0  0  0  0  0  0  0
   -3.2648   -6.6558    0.0000 C   0  0  0  0  0  0  0  0  0  0  0  0
   -1.8582   -7.1767    0.0000 C   0  0  0  0  0  0  0  0  0  0  0  0
   -0.3755   -7.4039    0.0000 C   0  0  0  0  0  0  0  0  0  0  0  0
    1.1226   -7.3279    0.0000 C   0  0  0  0  0  0  0  0  0  0  0  0
    2.5747   -6.9519    0.0000 C   0  0  0  0  0  0  0  0  0  0  0  0
    3.9214   -6.2913    0.0000 C   0  0  0  0  0  0  0  0  0  0  0  0
    5.1076   -5.3732    0.0000 C   0  0  0  0  0  0  0  0  0  0  0  0
    6.0846   -4.2350    0.0000 C   0  0  0  0  0  0  0  0  0  0  0  0
    6.8126   -2.9235    0.0000 C   0  0  0  0  0  0  0  0  0  0  0  0
    7.2616   -1.4923    0.0000 C   0  0  0  0  0  0  0  0  0  0  0  0
  1  2  1  0
  2  3  1  0
  3  4  1  0
  4  5  1  0
  5  6  1  0
  6  7  1  0
  7  8  1  0
  8  9  1  0
  9 10  1  0
 10 11  1  0
 11 12  1  0
 12 13  1  0
 13 14  1  0
 14 15  1  0
 15 16  1  0
 16 17  1  0
 17 18  1  0
 18 19  1  0
 19 20  1  0
 20 21  1  0
 21 22  1  0
 22 23  1  0
 23 24  1  0
 24 25  1  0
 25 26  1  0
 26 27  1  0
 27 28  1  0
 28 29  1  0
 29 30  1  0
 30 31  1  0
 31  1  1  0
M  END
>  <Title>  (1011) 
idABKYgen6

$$$$

     RDKit          2D

  5  4  0  0  0  0  0  0  0  0999 V2000
    0.0000    0.0000    0.0000 C   0  0  0  0  0  0  0  0  0  0  0  0
    1.2990    0.7500    0.0000 C   0  0  0  0  0  0  0  0  0  0  0  0
    2.5981   -0.0000    0.0000 C   0  0  0  0  0  0  0  0  0  0  0  0
    1.2990    2.2500    0.0000 C   0  0  0  0  0  0  0  0  0  0  0  0
    1.2990    3.7500    0.0000 N   0  0  0  0  0  0  0  0  0  0  0  0
  1  2  1  0
  2  3  1  0
  2  4  1  0
  4  5  3  0
M  END
>  <Title>  (1012) 
idABKZgen6

$$$$

     RDKit          2D

 24 25  0  0  0  0  0  0  0  0999 V2000
    4.3978    0.0000    0.0000 C   0  0  0  0  0  0  0  0  0  0  0  0
    2.8978    0.0000    0.0000 C   0  0  0  0  0  0  0  0  0  0  0  0
    2.5095   -1.4489    0.0000 C   0  0  0  0  0  0  0  0  0  0  0  0
    1.4489   -2.5095    0.0000 C   0  0  0  0  0  0  0  0  0  0  0  0
   -0.0000   -2.8978    0.0000 C   0  0  0  0  0  0  0  0  0  0  0  0
   -1.4489   -2.5095    0.0000 C   0  0  0  0  0  0  0  0  0  0  0  0
   -2.5095   -1.4489    0.0000 C   0  0  0  0  0  0  0  0  0  0  0  0
   -2.8978    0.0000    0.0000 C   0  0  0  0  0  0  0  0  0  0  0  0
   -2.5095    1.4489    0.0000 C   0  0  0  0  0  0  0  0  0  0  0  0
   -1.4489    2.5095    0.0000 C   0  0  0  0  0  0  0  0  0  0  0  0
    0.0000    2.8978    0.0000 C   0  0  0  0  0  0  0  0  0  0  0  0
    0.0000    4.3978    0.0000 C   0  0  0  0  0  0  0  0  0  0  0  0
   -1.2990    5.1478    0.0000 O   0  0  0  0  0  0  0  0  0  0  0  0
    1.2990    5.1478    0.0000 O   0  0  0  0  0  0  0  0  0  0  0  0
    1.2990    6.6478    0.0000 C   0  0  0  0  0  0  0  0  0  0  0  0
    0.0855    7.5295    0.0000 C   0  0  0  0  0  0  0  0  0  0  0  0
    0.5490    8.9560    0.0000 C   0  0  0  0  0  0  0  0  0  0  0  0
    2.0490    8.9560    0.0000 N   0  0  0  0  0  0  0  0  0  0  0  0
    2.9307   10.1696    0.0000 N   0  0  0  0  0  0  0  0  0  0  0  0
    4.4225   10.0128    0.0000 C   0  0  0  0  0  0  0  0  0  0  0  0
    2.3206   11.5399    0.0000 C   0  0  0  0  0  0  0  0  0  0  0  0
    2.5126    7.5295    0.0000 C   0  0  0  0  0  0  0  0  0  0  0  0
    1.4489    2.5095    0.0000 C   0  0  0  0  0  0  0  0  0  0  0  0
    2.5095    1.4489    0.0000 C   0  0  0  0  0  0  0  0  0  0  0  0
  1  2  1  0
  2  3  1  0
  3  4  1  0
  4  5  1  0
  5  6  1  0
  6  7  1  0
  7  8  1  0
  8  9  1  0
  9 10  1  0
 10 11  1  0
 11 12  1  0
 12 13  2  0
 12 14  1  0
 14 15  1  0
 15 16  1  0
 16 17  2  0
 17 18  1  0
 18 19  1  0
 19 20  1  0
 19 21  1  0
 18 22  1  0
 11 23  1  0
 23 24  1  0
 24  2  1  0
 22 15  2  0
M  END
>  <Title>  (1013) 
idABLAgen6

$$$$

     RDKit          2D

 23 24  0  0  0  0  0  0  0  0999 V2000
    6.0000   -2.5981    0.0000 C   0  0  0  0  0  0  0  0  0  0  0  0
    5.2500   -1.2990    0.0000 C   0  0  0  0  0  0  0  0  0  0  0  0
    6.0000    0.0000    0.0000 O   0  0  0  0  0  0  0  0  0  0  0  0
    3.7500   -1.2990    0.0000 C   0  0  0  0  0  0  0  0  0  0  0  0
    3.0000    0.0000    0.0000 C   0  0  0  0  0  0  0  0  0  0  0  0
    1.5000    0.0000    0.0000 C   0  0  0  0  0  0  0  0  0  0  0  0
    0.7500   -1.2990    0.0000 C   0  0  0  0  0  0  0  0  0  0  0  0
   -0.7500   -1.2990    0.0000 C   0  0  0  0  0  0  0  0  0  0  0  0
   -1.5000    0.0000    0.0000 C   0  0  0  0  0  0  0  0  0  0  0  0
   -3.0000    0.0000    0.0000 O   0  0  0  0  0  0  0  0  0  0  0  0
   -3.7500    1.2990    0.0000 C   0  0  0  0  0  0  0  0  0  0  0  0
   -5.2500    1.2990    0.0000 C   0  0  0  0  0  0  0  0  0  0  0  0
   -6.0000    2.5981    0.0000 C   0  0  0  0  0  0  0  0  0  0  0  0
   -7.5000    2.5981    0.0000 C   0  0  0  0  0  0  0  0  0  0  0  0
   -8.2500    1.2990    0.0000 C   0  0  0  0  0  0  0  0  0  0  0  0
   -9.7500    1.2990    0.0000 O   0  0  0  0  0  0  0  0  0  0  0  0
   -7.5000    0.0000    0.0000 C   0  0  0  0  0  0  0  0  0  0  0  0
   -6.0000    0.0000    0.0000 C   0  0  0  0  0  0  0  0  0  0  0  0
   -0.7500    1.2990    0.0000 C   0  0  0  0  0  0  0  0  0  0  0  0
    0.7500    1.2990    0.0000 C   0  0  0  0  0  0  0  0  0  0  0  0
    3.0000   -2.5981    0.0000 C   0  0  0  0  0  0  0  0  0  0  0  0
    1.5000   -2.5981    0.0000 O   0  0  0  0  0  0  0  0  0  0  0  0
    3.7500   -3.8971    0.0000 O   0  0  0  0  0  0  0  0  0  0  0  0
  1  2  1  0
  2  3  2  0
  2  4  1  0
  4  5  1  0
  5  6  1  0
  6  7  2  0
  7  8  1  0
  8  9  2  0
  9 10  1  0
 10 11  1  0
 11 12  1  0
 12 13  2  0
 13 14  1  0
 14 15  2  0
 15 16  1  0
 15 17  1  0
 17 18  2  0
  9 19  1  0
 19 20  2  0
  4 21  1  0
 21 22  2  0
 21 23  1  0
 20  6  1  0
 18 12  1  0
M  END
>  <Title>  (1014) 
idABLBgen6

$$$$

     RDKit          2D

 36 39  0  0  0  0  0  0  0  0999 V2000
    2.0190   10.9389    0.0000 C   0  0  0  0  0  0  0  0  0  0  0  0
    2.0750    9.4400    0.0000 N   0  0  0  0  0  0  0  0  0  0  0  0
    3.4012    8.7391    0.0000 C   0  0  0  0  0  0  0  0  0  0  0  0
    0.8050    8.6419    0.0000 C   0  0  0  0  0  0  0  0  0  0  0  0
   -0.5212    9.3428    0.0000 O   0  0  0  0  0  0  0  0  0  0  0  0
    0.8610    7.1430    0.0000 C   0  0  0  0  0  0  0  0  0  0  0  0
    2.3234    6.8092    0.0000 C   0  0  0  0  0  0  0  0  0  0  0  0
    3.4230    5.7889    0.0000 C   0  0  0  0  0  0  0  0  0  0  0  0
    3.8651    4.3556    0.0000 C   0  0  0  0  0  0  0  0  0  0  0  0
    3.5314    2.8932    0.0000 C   0  0  0  0  0  0  0  0  0  0  0  0
    2.5111    1.7936    0.0000 C   0  0  0  0  0  0  0  0  0  0  0  0
    1.0777    1.3515    0.0000 C   0  0  0  0  0  0  0  0  0  0  0  0
    1.7286    0.0000    0.0000 O   0  0  0  0  0  0  0  0  0  0  0  0
    1.0777   -1.3515    0.0000 C   0  0  0  0  0  0  0  0  0  0  0  0
    2.0130   -2.5242    0.0000 O   0  0  0  0  0  0  0  0  0  0  0  0
   -0.3846   -1.6852    0.0000 C   0  0  0  0  0  0  0  0  0  0  0  0
   -0.7184   -3.1476    0.0000 C   0  0  0  0  0  0  0  0  0  0  0  0
   -2.1518   -3.5898    0.0000 C   0  0  0  0  0  0  0  0  0  0  0  0
   -2.4856   -5.0522    0.0000 C   0  0  0  0  0  0  0  0  0  0  0  0
   -1.3860   -6.0724    0.0000 C   0  0  0  0  0  0  0  0  0  0  0  0
    0.0474   -5.6303    0.0000 C   0  0  0  0  0  0  0  0  0  0  0  0
    0.3812   -4.1679    0.0000 C   0  0  0  0  0  0  0  0  0  0  0  0
   -1.5574   -0.7500    0.0000 C   0  0  0  0  0  0  0  0  0  0  0  0
   -1.5574    0.7500    0.0000 C   0  0  0  0  0  0  0  0  0  0  0  0
   -0.3846    1.6852    0.0000 N   0  0  0  0  0  0  0  0  0  0  0  0
   -1.4842    2.7055    0.0000 C   0  0  0  0  0  0  0  0  0  0  0  0
   -2.7543    1.9074    0.0000 O   0  0  0  0  0  0  0  0  0  0  0  0
   -1.9264    4.1389    0.0000 C   0  0  0  0  0  0  0  0  0  0  0  0
   -3.4253    4.0828    0.0000 C   0  0  0  0  0  0  0  0  0  0  0  0
   -4.2234    5.3529    0.0000 C   0  0  0  0  0  0  0  0  0  0  0  0
   -5.7223    5.2968    0.0000 C   0  0  0  0  0  0  0  0  0  0  0  0
   -6.4232    3.9706    0.0000 C   0  0  0  0  0  0  0  0  0  0  0  0
   -5.6252    2.7005    0.0000 C   0  0  0  0  0  0  0  0  0  0  0  0
   -4.1262    2.7566    0.0000 C   0  0  0  0  0  0  0  0  0  0  0  0
   -1.5926    5.6012    0.0000 C   0  0  0  0  0  0  0  0  0  0  0  0
   -0.5723    6.7008    0.0000 C   0  0  0  0  0  0  0  0  0  0  0  0
  1  2  1  0
  2  3  1  0
  2  4  1  0
  4  5  2  0
  4  6  1  0
  6  7  1  0
  7  8  2  0
  8  9  1  0
  9 10  2  0
 10 11  1  0
 11 12  2  0
 12 13  1  0
 13 14  1  0
 14 15  2  0
 14 16  1  0
 16 17  1  0
 17 18  2  0
 18 19  1  0
 19 20  2  0
 20 21  1  0
 21 22  2  0
 16 23  1  0
 23 24  1  0
 24 25  1  0
 25 26  1  0
 26 27  2  0
 26 28  1  0
 28 29  1  0
 29 30  2  0
 30 31  1  0
 31 32  2  0
 32 33  1  0
 33 34  2  0
 28 35  2  0
 35 36  1  0
 36  6  1  0
 25 12  1  0
 34 29  1  0
 22 17  1  0
M  END
>  <Title>  (1015) 
idABLCgen6

$$$$

     RDKit          2D

 23 25  0  0  0  0  0  0  0  0999 V2000
   -3.1981   -1.5132    0.0000 C   0  0  0  0  0  0  0  0  0  0  0  0
   -1.8991   -2.2632    0.0000 C   0  0  0  0  0  0  0  0  0  0  0  0
   -2.1595   -3.7404    0.0000 C   0  0  0  0  0  0  0  0  0  0  0  0
   -1.4095   -5.0395    0.0000 C   0  0  0  0  0  0  0  0  0  0  0  0
   -0.0000   -5.5525    0.0000 C   0  0  0  0  0  0  0  0  0  0  0  0
    1.4095   -5.0395    0.0000 C   0  0  0  0  0  0  0  0  0  0  0  0
    2.1595   -3.7404    0.0000 C   0  0  0  0  0  0  0  0  0  0  0  0
    1.8991   -2.2632    0.0000 C   0  0  0  0  0  0  0  0  0  0  0  0
    3.1981   -1.5132    0.0000 C   0  0  0  0  0  0  0  0  0  0  0  0
    3.1981   -0.0132    0.0000 O   0  0  0  0  0  0  0  0  0  0  0  0
    4.4971   -2.2632    0.0000 N   0  0  0  0  0  0  0  0  0  0  0  0
    5.7962   -1.5132    0.0000 C   0  0  0  0  0  0  0  0  0  0  0  0
    7.0952   -2.2632    0.0000 N   0  0  0  0  0  0  0  0  0  0  0  0
    8.3943   -1.5132    0.0000 N   0  0  0  0  0  0  0  0  0  0  0  0
    8.3943   -0.0132    0.0000 N   0  0  0  0  0  0  0  0  0  0  0  0
    7.0952    0.7368    0.0000 N   0  0  0  0  0  0  0  0  0  0  0  0
    5.7962   -0.0132    0.0000 N   0  0  0  0  0  0  0  0  0  0  0  0
    0.7500   -1.2990    0.0000 C   0  0  0  0  0  0  0  0  0  0  0  0
    1.5000    0.0000    0.0000 C   0  0  0  0  0  0  0  0  0  0  0  0
    0.7500    1.2990    0.0000 C   0  0  0  0  0  0  0  0  0  0  0  0
   -0.7500    1.2990    0.0000 C   0  0  0  0  0  0  0  0  0  0  0  0
   -1.5000    0.0000    0.0000 C   0  0  0  0  0  0  0  0  0  0  0  0
   -0.7500   -1.2990    0.0000 C   0  0  0  0  0  0  0  0  0  0  0  0
  1  2  1  0
  2  3  1  0
  3  4  2  0
  4  5  1  0
  5  6  1  0
  6  7  1  0
  7  8  2  0
  8  9  1  0
  9 10  2  0
  9 11  1  0
 11 12  1  0
 12 13  2  0
 13 14  1  0
 14 15  2  0
 15 16  1  0
 16 17  2  0
  8 18  1  0
 18 19  2  0
 19 20  1  0
 20 21  2  0
 21 22  1  0
 22 23  2  0
 23  2  1  0
 17 12  1  0
 23 18  1  0
M  END
>  <Title>  (1016) 
idABLDgen6

$$$$

     RDKit          2D

  8  7  0  0  0  0  0  0  0  0999 V2000
   -0.0000   -1.5000    0.0000 N   0  0  0  0  0  0  0  0  0  0  0  0
    0.0000    0.0000    0.0000 C   0  0  0  0  0  0  0  0  0  0  0  0
    0.0000    1.5000    0.0000 C   0  0  0  0  0  0  0  0  0  0  0  0
    0.0000    3.0000    0.0000 C   0  0  0  0  0  0  0  0  0  0  0  0
    0.0000    4.5000    0.0000 C   0  0  0  0  0  0  0  0  0  0  0  0
    0.0000    6.0000    0.0000 C   0  0  0  0  0  0  0  0  0  0  0  0
    0.0000    7.5000    0.0000 C   0  0  0  0  0  0  0  0  0  0  0  0
    0.0000    9.0000    0.0000 N   0  0  0  0  0  0  0  0  0  0  0  0
  1  2  3  0
  2  3  1  0
  3  4  3  0
  4  5  1  0
  5  6  3  0
  6  7  1  0
  7  8  3  0
M  END
>  <Title>  (1017) 
idABLEgen6

$$$$

     RDKit          2D

 13 13  0  0  0  0  0  0  0  0999 V2000
    5.0260   -3.8971    0.0000 C   0  0  0  0  0  0  0  0  0  0  0  0
    4.2760   -2.5981    0.0000 C   0  0  0  0  0  0  0  0  0  0  0  0
    3.5260   -1.2990    0.0000 C   0  0  0  0  0  0  0  0  0  0  0  0
    2.7760    0.0000    0.0000 C   0  0  0  0  0  0  0  0  0  0  0  0
    3.5260    1.2990    0.0000 O   0  0  0  0  0  0  0  0  0  0  0  0
    1.2760    0.0000    0.0000 C   0  0  0  0  0  0  0  0  0  0  0  0
    0.3943    1.2135    0.0000 C   0  0  0  0  0  0  0  0  0  0  0  0
   -1.0323    0.7500    0.0000 C   0  0  0  0  0  0  0  0  0  0  0  0
   -1.0323   -0.7500    0.0000 C   0  0  0  0  0  0  0  0  0  0  0  0
   -2.2458   -1.6317    0.0000 C   0  0  0  0  0  0  0  0  0  0  0  0
   -2.0890   -3.1235    0.0000 O   0  0  0  0  0  0  0  0  0  0  0  0
   -3.6161   -1.0216    0.0000 O   0  0  0  0  0  0  0  0  0  0  0  0
    0.3943   -1.2135    0.0000 C   0  0  0  0  0  0  0  0  0  0  0  0
  1  2  1  0
  2  3  3  0
  3  4  1  0
  4  5  2  0
  4  6  1  0
  6  7  1  0
  7  8  1  0
  8  9  1  0
  9 10  1  0
 10 11  2  0
 10 12  1  0
  9 13  1  0
 13  6  1  0
M  END
>  <Title>  (1018) 
idABLFgen6

$$$$

     RDKit          2D

 10 10  0  0  0  0  0  0  0  0999 V2000
    5.0260   -1.2990    0.0000 C   0  0  0  0  0  0  0  0  0  0  0  0
    3.5260   -1.2990    0.0000 C   0  0  0  0  0  0  0  0  0  0  0  0
    2.7760   -2.5981    0.0000 O   0  0  0  0  0  0  0  0  0  0  0  0
    2.7760    0.0000    0.0000 C   0  0  0  0  0  0  0  0  0  0  0  0
    3.5260    1.2990    0.0000 O   0  0  0  0  0  0  0  0  0  0  0  0
    1.2760    0.0000    0.0000 C   0  0  0  0  0  0  0  0  0  0  0  0
    0.3943    1.2135    0.0000 C   0  0  0  0  0  0  0  0  0  0  0  0
   -1.0323    0.7500    0.0000 C   0  0  0  0  0  0  0  0  0  0  0  0
   -1.0323   -0.7500    0.0000 C   0  0  0  0  0  0  0  0  0  0  0  0
    0.3943   -1.2135    0.0000 C   0  0  0  0  0  0  0  0  0  0  0  0
  1  2  1  0
  2  3  2  0
  2  4  1  0
  4  5  2  0
  4  6  1  0
  6  7  2  0
  7  8  1  0
  8  9  1  0
  9 10  2  0
 10  6  1  0
M  END
>  <Title>  (1019) 
idABLGgen6

$$$$

     RDKit          2D

 12 12  0  0  0  0  0  0  0  0999 V2000
    5.0490   -0.5490    0.0000 C   0  0  0  0  0  0  0  0  0  0  0  0
    3.7500   -1.2990    0.0000 C   0  0  0  0  0  0  0  0  0  0  0  0
    2.4510   -2.0490    0.0000 C   0  0  0  0  0  0  0  0  0  0  0  0
    4.5000   -2.5981    0.0000 C   0  0  0  0  0  0  0  0  0  0  0  0
    3.0000    0.0000    0.0000 C   0  0  0  0  0  0  0  0  0  0  0  0
    3.7500    1.2990    0.0000 O   0  0  0  0  0  0  0  0  0  0  0  0
    1.5000    0.0000    0.0000 C   0  0  0  0  0  0  0  0  0  0  0  0
    0.7500   -1.2990    0.0000 C   0  0  0  0  0  0  0  0  0  0  0  0
   -0.7500   -1.2990    0.0000 C   0  0  0  0  0  0  0  0  0  0  0  0
   -1.5000    0.0000    0.0000 C   0  0  0  0  0  0  0  0  0  0  0  0
   -0.7500    1.2990    0.0000 C   0  0  0  0  0  0  0  0  0  0  0  0
    0.7500    1.2990    0.0000 C   0  0  0  0  0  0  0  0  0  0  0  0
  1  2  1  0
  2  3  1  0
  2  4  1  0
  2  5  1  0
  5  6  2  0
  5  7  1  0
  7  8  2  0
  8  9  1  0
  9 10  2  0
 10 11  1  0
 11 12  2  0
 12  7  1  0
M  END
>  <Title>  (1020) 
idABLHgen6

$$$$

     RDKit          2D

 30 33  0  0  0  0  0  0  0  0999 V2000
    3.6929    0.0000    0.0000 C   0  0  0  0  0  0  0  0  0  0  0  0
    2.1929    0.0000    0.0000 C   0  0  0  0  0  0  0  0  0  0  0  0
    1.6798    1.4095    0.0000 C   0  0  0  0  0  0  0  0  0  0  0  0
    0.3808    2.1595    0.0000 C   0  0  0  0  0  0  0  0  0  0  0  0
   -1.0964    1.8991    0.0000 C   0  0  0  0  0  0  0  0  0  0  0  0
   -2.0606    0.7500    0.0000 C   0  0  0  0  0  0  0  0  0  0  0  0
   -3.4701    1.2630    0.0000 C   0  0  0  0  0  0  0  0  0  0  0  0
   -4.6192    0.2988    0.0000 O   0  0  0  0  0  0  0  0  0  0  0  0
   -3.7306    2.7402    0.0000 N   0  0  0  0  0  0  0  0  0  0  0  0
   -5.1402    3.2533    0.0000 C   0  0  0  0  0  0  0  0  0  0  0  0
   -5.4006    4.7305    0.0000 N   0  0  0  0  0  0  0  0  0  0  0  0
   -6.8102    5.2435    0.0000 N   0  0  0  0  0  0  0  0  0  0  0  0
   -7.9592    4.2793    0.0000 N   0  0  0  0  0  0  0  0  0  0  0  0
   -7.6988    2.8021    0.0000 N   0  0  0  0  0  0  0  0  0  0  0  0
   -6.2892    2.2891    0.0000 N   0  0  0  0  0  0  0  0  0  0  0  0
   -2.0606   -0.7500    0.0000 C   0  0  0  0  0  0  0  0  0  0  0  0
   -3.4701   -1.2630    0.0000 O   0  0  0  0  0  0  0  0  0  0  0  0
   -3.7306   -2.7402    0.0000 C   0  0  0  0  0  0  0  0  0  0  0  0
   -4.9593   -3.6006    0.0000 C   0  0  0  0  0  0  0  0  0  0  0  0
   -4.0990   -4.8293    0.0000 C   0  0  0  0  0  0  0  0  0  0  0  0
   -4.3595   -6.3065    0.0000 C   0  0  0  0  0  0  0  0  0  0  0  0
   -5.7690   -6.8196    0.0000 C   0  0  0  0  0  0  0  0  0  0  0  0
   -6.0295   -8.2968    0.0000 C   0  0  0  0  0  0  0  0  0  0  0  0
   -4.8804   -9.2610    0.0000 C   0  0  0  0  0  0  0  0  0  0  0  0
   -3.4709   -8.7479    0.0000 C   0  0  0  0  0  0  0  0  0  0  0  0
   -3.2104   -7.2707    0.0000 C   0  0  0  0  0  0  0  0  0  0  0  0
   -2.8703   -3.9690    0.0000 C   0  0  0  0  0  0  0  0  0  0  0  0
   -1.0964   -1.8991    0.0000 C   0  0  0  0  0  0  0  0  0  0  0  0
    0.3808   -2.1595    0.0000 C   0  0  0  0  0  0  0  0  0  0  0  0
    1.6798   -1.4095    0.0000 C   0  0  0  0  0  0  0  0  0  0  0  0
  1  2  1  0
  2  3  1  0
  3  4  2  0
  4  5  1  0
  5  6  1  0
  6  7  1  0
  7  8  2  0
  7  9  1  0
  9 10  1  0
 10 11  2  0
 11 12  1  0
 12 13  2  0
 13 14  1  0
 14 15  2  0
  6 16  1  0
 16 17  1  0
 17 18  1  0
 18 19  2  0
 19 20  1  0
 20 21  1  0
 21 22  2  0
 22 23  1  0
 23 24  2  0
 24 25  1  0
 25 26  2  0
 20 27  1  0
 16 28  1  0
 28 29  1  0
 29 30  1  0
 30  2  1  0
 15 10  1  0
 27 18  1  0
 26 21  1  0
M  END
>  <Title>  (1021) 
idABLIgen6

$$$$

     RDKit          2D

 64 71  0  0  0  0  0  0  0  0999 V2000
   -0.9635  -13.2165    0.0000 C   0  0  0  0  0  0  0  0  0  0  0  0
   -0.7500  -11.7318    0.0000 C   0  0  0  0  0  0  0  0  0  0  0  0
    0.7500  -11.7318    0.0000 C   0  0  0  0  0  0  0  0  0  0  0  0
    2.1892  -11.3092    0.0000 C   0  0  0  0  0  0  0  0  0  0  0  0
    3.4511  -10.4982    0.0000 C   0  0  0  0  0  0  0  0  0  0  0  0
    3.3228  -11.9927    0.0000 C   0  0  0  0  0  0  0  0  0  0  0  0
    4.0974  -13.2772    0.0000 C   0  0  0  0  0  0  0  0  0  0  0  0
    5.4790  -13.8611    0.0000 C   0  0  0  0  0  0  0  0  0  0  0  0
    6.9401  -13.5214    0.0000 C   0  0  0  0  0  0  0  0  0  0  0  0
    7.9223  -12.3878    0.0000 C   0  0  0  0  0  0  0  0  0  0  0  0
    8.0507  -10.8933    0.0000 C   0  0  0  0  0  0  0  0  0  0  0  0
    7.2761   -9.6087    0.0000 C   0  0  0  0  0  0  0  0  0  0  0  0
    8.2584   -8.4751    0.0000 O   0  0  0  0  0  0  0  0  0  0  0  0
    5.8944   -9.0248    0.0000 N   0  0  0  0  0  0  0  0  0  0  0  0
    4.4334   -9.3646    0.0000 C   0  0  0  0  0  0  0  0  0  0  0  0
    5.0565   -8.0001    0.0000 N   0  0  0  0  0  0  0  0  0  0  0  0
    5.2700   -6.5154    0.0000 N   0  0  0  0  0  0  0  0  0  0  0  0
    5.0565   -5.0307    0.0000 N   0  0  0  0  0  0  0  0  0  0  0  0
    4.4334   -3.6662    0.0000 N   0  0  0  0  0  0  0  0  0  0  0  0
    3.4511   -2.5326    0.0000 C   0  0  0  0  0  0  0  0  0  0  0  0
    4.6123   -1.5831    0.0000 C   0  0  0  0  0  0  0  0  0  0  0  0
    4.0681   -0.1853    0.0000 C   0  0  0  0  0  0  0  0  0  0  0  0
    2.5706   -0.2709    0.0000 C   0  0  0  0  0  0  0  0  0  0  0  0
    2.1892   -1.7216    0.0000 C   0  0  0  0  0  0  0  0  0  0  0  0
    0.7500   -1.2990    0.0000 C   0  0  0  0  0  0  0  0  0  0  0  0
    1.5000    0.0000    0.0000 C   0  0  0  0  0  0  0  0  0  0  0  0
    0.7500    1.2990    0.0000 C   0  0  0  0  0  0  0  0  0  0  0  0
   -0.7500    1.2990    0.0000 C   0  0  0  0  0  0  0  0  0  0  0  0
   -1.5000    0.0000    0.0000 C   0  0  0  0  0  0  0  0  0  0  0  0
   -0.7500   -1.2990    0.0000 C   0  0  0  0  0  0  0  0  0  0  0  0
   -2.1892   -1.7216    0.0000 N   0  0  0  0  0  0  0  0  0  0  0  0
   -2.8124   -0.3572    0.0000 C   0  0  0  0  0  0  0  0  0  0  0  0
   -1.9423    0.8647    0.0000 O   0  0  0  0  0  0  0  0  0  0  0  0
   -4.3056   -0.2146    0.0000 C   0  0  0  0  0  0  0  0  0  0  0  0
   -5.1757   -1.4365    0.0000 C   0  0  0  0  0  0  0  0  0  0  0  0
   -6.6689   -1.2939    0.0000 C   0  0  0  0  0  0  0  0  0  0  0  0
   -7.2920    0.0706    0.0000 C   0  0  0  0  0  0  0  0  0  0  0  0
   -6.4219    1.2924    0.0000 C   0  0  0  0  0  0  0  0  0  0  0  0
   -4.9287    1.1498    0.0000 C   0  0  0  0  0  0  0  0  0  0  0  0
   -4.0586    2.3717    0.0000 C   0  0  0  0  0  0  0  0  0  0  0  0
   -4.6817    3.7362    0.0000 C   0  0  0  0  0  0  0  0  0  0  0  0
   -3.8116    4.9580    0.0000 C   0  0  0  0  0  0  0  0  0  0  0  0
   -2.3184    4.8154    0.0000 C   0  0  0  0  0  0  0  0  0  0  0  0
   -1.6953    3.4510    0.0000 C   0  0  0  0  0  0  0  0  0  0  0  0
   -2.5654    2.2291    0.0000 C   0  0  0  0  0  0  0  0  0  0  0  0
   -3.4511   -2.5326    0.0000 C   0  0  0  0  0  0  0  0  0  0  0  0
   -4.4453   -1.8342    0.0000 O   0  0  0  0  0  0  0  0  0  0  0  0
   -4.4334   -3.6662    0.0000 O   0  0  0  0  0  0  0  0  0  0  0  0
   -5.0565   -5.0307    0.0000 C   0  0  0  0  0  0  0  0  0  0  0  0
   -5.2700   -6.5154    0.0000 C   0  0  0  0  0  0  0  0  0  0  0  0
   -5.0565   -8.0001    0.0000 C   0  0  0  0  0  0  0  0  0  0  0  0
   -4.4334   -9.3646    0.0000 C   0  0  0  0  0  0  0  0  0  0  0  0
   -5.8585   -9.8326    0.0000 C   0  0  0  0  0  0  0  0  0  0  0  0
   -5.9061  -11.3319    0.0000 O   0  0  0  0  0  0  0  0  0  0  0  0
   -7.2511   -9.2751    0.0000 O   0  0  0  0  0  0  0  0  0  0  0  0
   -7.9595   -7.9530    0.0000 C   0  0  0  0  0  0  0  0  0  0  0  0
   -7.6523   -6.4848    0.0000 C   0  0  0  0  0  0  0  0  0  0  0  0
   -6.4732   -5.5575    0.0000 C   0  0  0  0  0  0  0  0  0  0  0  0
   -3.4511  -10.4982    0.0000 C   0  0  0  0  0  0  0  0  0  0  0  0
   -4.7844  -11.1855    0.0000 C   0  0  0  0  0  0  0  0  0  0  0  0
   -4.8557  -12.6838    0.0000 C   0  0  0  0  0  0  0  0  0  0  0  0
   -3.5939  -13.4948    0.0000 C   0  0  0  0  0  0  0  0  0  0  0  0
   -2.2606  -12.8075    0.0000 C   0  0  0  0  0  0  0  0  0  0  0  0
   -2.1892  -11.3092    0.0000 C   0  0  0  0  0  0  0  0  0  0  0  0
  1  2  1  0
  2  3  1  0
  3  4  1  0
  4  5  1  0
  5  6  1  0
  6  7  1  0
  7  8  1  0
  8  9  1  0
  9 10  1  0
 10 11  1  0
 11 12  1  0
 12 13  2  0
 12 14  1  0
 14 15  1  0
 15 16  2  0
 16 17  1  0
 17 18  2  0
 18 19  1  0
 19 20  2  0
 20 21  1  0
 21 22  2  0
 22 23  1  0
 23 24  2  0
 24 25  1  0
 25 26  2  0
 26 27  1  0
 27 28  2  0
 28 29  1  0
 29 30  2  0
 30 31  1  0
 31 32  1  0
 32 33  2  0
 32 34  1  0
 34 35  2  0
 35 36  1  0
 36 37  2  0
 37 38  1  0
 38 39  2  0
 39 40  1  0
 40 41  2  0
 41 42  1  0
 42 43  2  0
 43 44  1  0
 44 45  2  0
 31 46  1  0
 46 47  2  0
 46 48  1  0
 48 49  1  0
 49 50  2  0
 50 51  1  0
 51 52  2  0
 52 53  1  0
 53 54  2  0
 53 55  1  0
 55 56  1  0
 56 57  1  0
 57 58  2  0
 52 59  1  0
 59 60  2  0
 60 61  1  0
 61 62  2  0
 62 63  1  0
 63 64  2  0
 64  2  1  0
 15  5  1  0
 24 20  1  0
 30 25  1  0
 39 34  1  0
 45 40  1  0
 58 49  1  0
 64 59  1  0
M  END
>  <Title>  (1022) 
idABLJgen6

$$$$

     RDKit          2D

 27 30  0  0  0  0  0  0  0  0999 V2000
    3.0000    0.0000    0.0000 C   0  0  0  0  0  0  0  0  0  0  0  0
    1.5000    0.0000    0.0000 C   0  0  0  0  0  0  0  0  0  0  0  0
    0.7500   -1.2990    0.0000 C   0  0  0  0  0  0  0  0  0  0  0  0
   -0.7500   -1.2990    0.0000 C   0  0  0  0  0  0  0  0  0  0  0  0
   -1.5000    0.0000    0.0000 C   0  0  0  0  0  0  0  0  0  0  0  0
   -3.0000    0.0000    0.0000 C   0  0  0  0  0  0  0  0  0  0  0  0
   -3.7500   -1.2990    0.0000 O   0  0  0  0  0  0  0  0  0  0  0  0
   -3.7500    1.2990    0.0000 N   0  0  0  0  0  0  0  0  0  0  0  0
   -5.2500    1.2990    0.0000 C   0  0  0  0  0  0  0  0  0  0  0  0
   -6.1317    0.0855    0.0000 N   0  0  0  0  0  0  0  0  0  0  0  0
   -7.5583    0.5490    0.0000 N   0  0  0  0  0  0  0  0  0  0  0  0
   -7.5583    2.0490    0.0000 N   0  0  0  0  0  0  0  0  0  0  0  0
   -6.1317    2.5126    0.0000 N   0  0  0  0  0  0  0  0  0  0  0  0
   -5.6682    3.9391    0.0000 C   0  0  0  0  0  0  0  0  0  0  0  0
   -4.2009    4.2510    0.0000 C   0  0  0  0  0  0  0  0  0  0  0  0
   -3.7374    5.6776    0.0000 C   0  0  0  0  0  0  0  0  0  0  0  0
   -4.7411    6.7923    0.0000 C   0  0  0  0  0  0  0  0  0  0  0  0
   -6.2083    6.4805    0.0000 C   0  0  0  0  0  0  0  0  0  0  0  0
   -6.6718    5.0539    0.0000 C   0  0  0  0  0  0  0  0  0  0  0  0
   -8.1391    4.7420    0.0000 C   0  0  0  0  0  0  0  0  0  0  0  0
   -9.1428    5.8567    0.0000 C   0  0  0  0  0  0  0  0  0  0  0  0
  -10.6100    5.5448    0.0000 C   0  0  0  0  0  0  0  0  0  0  0  0
  -11.0735    4.1183    0.0000 C   0  0  0  0  0  0  0  0  0  0  0  0
  -10.0698    3.0035    0.0000 C   0  0  0  0  0  0  0  0  0  0  0  0
   -8.6026    3.3154    0.0000 C   0  0  0  0  0  0  0  0  0  0  0  0
   -0.7500    1.2990    0.0000 C   0  0  0  0  0  0  0  0  0  0  0  0
    0.7500    1.2990    0.0000 C   0  0  0  0  0  0  0  0  0  0  0  0
  1  2  1  0
  2  3  1  0
  3  4  1  0
  4  5  1  0
  5  6  1  0
  6  7  2  0
  6  8  1  0
  8  9  1  0
  9 10  2  0
 10 11  1  0
 11 12  2  0
 12 13  1  0
 13 14  1  0
 14 15  2  0
 15 16  1  0
 16 17  2  0
 17 18  1  0
 18 19  2  0
 19 20  1  0
 20 21  2  0
 21 22  1  0
 22 23  2  0
 23 24  1  0
 24 25  2  0
  5 26  1  0
 26 27  1  0
 27  2  1  0
 13  9  1  0
 19 14  1  0
 25 20  1  0
M  END
>  <Title>  (1023) 
idABLKgen6

$$$$

     RDKit          2D

 32 35  0  0  0  0  0  0  0  0999 V2000
   -4.0444   -0.6050    0.0000 C   0  0  0  0  0  0  0  0  0  0  0  0
   -2.6110   -1.0472    0.0000 C   0  0  0  0  0  0  0  0  0  0  0  0
   -2.3875   -2.5304    0.0000 C   0  0  0  0  0  0  0  0  0  0  0  0
   -1.0884   -3.2804    0.0000 C   0  0  0  0  0  0  0  0  0  0  0  0
    0.3079   -2.7324    0.0000 C   0  0  0  0  0  0  0  0  0  0  0  0
    1.4074   -3.7527    0.0000 O   0  0  0  0  0  0  0  0  0  0  0  0
    1.0737   -5.2150    0.0000 C   0  0  0  0  0  0  0  0  0  0  0  0
    2.0606   -6.3447    0.0000 C   0  0  0  0  0  0  0  0  0  0  0  0
    1.2912   -7.6323    0.0000 C   0  0  0  0  0  0  0  0  0  0  0  0
   -0.1712   -7.2985    0.0000 C   0  0  0  0  0  0  0  0  0  0  0  0
   -1.3008   -8.2855    0.0000 N   0  0  0  0  0  0  0  0  0  0  0  0
   -2.7203   -7.8006    0.0000 C   0  0  0  0  0  0  0  0  0  0  0  0
   -3.0102   -6.3289    0.0000 O   0  0  0  0  0  0  0  0  0  0  0  0
   -3.8499   -8.7875    0.0000 N   0  0  0  0  0  0  0  0  0  0  0  0
   -5.2694   -8.3027    0.0000 C   0  0  0  0  0  0  0  0  0  0  0  0
   -5.5592   -6.8310    0.0000 C   0  0  0  0  0  0  0  0  0  0  0  0
   -6.9787   -6.3462    0.0000 C   0  0  0  0  0  0  0  0  0  0  0  0
   -8.1083   -7.3331    0.0000 C   0  0  0  0  0  0  0  0  0  0  0  0
   -9.5278   -6.8483    0.0000 C   0  0  0  0  0  0  0  0  0  0  0  0
  -10.9473   -6.3635    0.0000 N   0  0  0  0  0  0  0  0  0  0  0  0
   -7.8185   -8.8048    0.0000 C   0  0  0  0  0  0  0  0  0  0  0  0
   -6.3990   -9.2896    0.0000 C   0  0  0  0  0  0  0  0  0  0  0  0
   -0.3056   -5.8046    0.0000 C   0  0  0  0  0  0  0  0  0  0  0  0
   -1.5933   -5.0352    0.0000 O   0  0  0  0  0  0  0  0  0  0  0  0
    0.7500   -1.2990    0.0000 C   0  0  0  0  0  0  0  0  0  0  0  0
    1.5000    0.0000    0.0000 C   0  0  0  0  0  0  0  0  0  0  0  0
    0.7500    1.2990    0.0000 C   0  0  0  0  0  0  0  0  0  0  0  0
   -0.7500    1.2990    0.0000 C   0  0  0  0  0  0  0  0  0  0  0  0
   -1.5000    2.5981    0.0000 C   0  0  0  0  0  0  0  0  0  0  0  0
   -2.2500    3.8971    0.0000 N   0  0  0  0  0  0  0  0  0  0  0  0
   -1.5000    0.0000    0.0000 C   0  0  0  0  0  0  0  0  0  0  0  0
   -0.7500   -1.2990    0.0000 C   0  0  0  0  0  0  0  0  0  0  0  0
  1  2  1  0
  2  3  1  0
  3  4  2  0
  4  5  1  0
  5  6  1  0
  6  7  1  0
  7  8  2  0
  8  9  1  0
  9 10  2  0
 10 11  1  0
 11 12  1  0
 12 13  2  0
 12 14  1  0
 14 15  1  0
 15 16  2  0
 16 17  1  0
 17 18  2  0
 18 19  1  0
 19 20  3  0
 18 21  1  0
 21 22  2  0
 10 23  1  0
 23 24  2  0
  5 25  1  0
 25 26  2  0
 26 27  1  0
 27 28  2  0
 28 29  1  0
 29 30  3  0
 28 31  1  0
 31 32  1  0
 31  2  1  0
 23  7  1  0
 32 25  1  0
 22 15  1  0
M  END
>  <Title>  (1024) 
idABLLgen6

$$$$

     RDKit          2D

 14 14  0  0  0  0  0  0  0  0999 V2000
    5.7760   -2.5981    0.0000 C   0  0  0  0  0  0  0  0  0  0  0  0
    5.0260   -1.2990    0.0000 C   0  0  0  0  0  0  0  0  0  0  0  0
    5.7760    0.0000    0.0000 O   0  0  0  0  0  0  0  0  0  0  0  0
    3.5260   -1.2990    0.0000 O   0  0  0  0  0  0  0  0  0  0  0  0
    2.7760    0.0000    0.0000 C   0  0  0  0  0  0  0  0  0  0  0  0
    3.5260    1.2990    0.0000 O   0  0  0  0  0  0  0  0  0  0  0  0
    1.2760    0.0000    0.0000 C   0  0  0  0  0  0  0  0  0  0  0  0
    0.3943    1.2135    0.0000 C   0  0  0  0  0  0  0  0  0  0  0  0
   -1.0323    0.7500    0.0000 C   0  0  0  0  0  0  0  0  0  0  0  0
   -1.0323   -0.7500    0.0000 C   0  0  0  0  0  0  0  0  0  0  0  0
   -2.2458   -1.6317    0.0000 C   0  0  0  0  0  0  0  0  0  0  0  0
   -2.0890   -3.1235    0.0000 O   0  0  0  0  0  0  0  0  0  0  0  0
   -3.6161   -1.0216    0.0000 O   0  0  0  0  0  0  0  0  0  0  0  0
    0.3943   -1.2135    0.0000 C   0  0  0  0  0  0  0  0  0  0  0  0
  1  2  1  0
  2  3  2  0
  2  4  1  0
  4  5  1  0
  5  6  2  0
  5  7  1  0
  7  8  1  0
  8  9  1  0
  9 10  1  0
 10 11  1  0
 11 12  2  0
 11 13  1  0
 10 14  1  0
 14  7  1  0
M  END
>  <Title>  (1025) 
idABLMgen6

$$$$

     RDKit          2D

 43 47  0  0  0  0  0  0  0  0999 V2000
    1.5000    0.0000    0.0000 C   0  0  0  0  0  0  0  0  0  0  0  0
    0.7500   -1.2990    0.0000 C   0  0  0  0  0  0  0  0  0  0  0  0
   -0.7500   -1.2990    0.0000 C   0  0  0  0  0  0  0  0  0  0  0  0
   -1.5000    0.0000    0.0000 C   0  0  0  0  0  0  0  0  0  0  0  0
   -0.7500    1.2990    0.0000 C   0  0  0  0  0  0  0  0  0  0  0  0
    0.7500    1.2990    0.0000 C   0  0  0  0  0  0  0  0  0  0  0  0
   -0.3198    2.7360    0.0000 C   0  0  0  0  0  0  0  0  0  0  0  0
   -0.2326    4.2335    0.0000 C   0  0  0  0  0  0  0  0  0  0  0  0
   -0.4931    5.7107    0.0000 C   0  0  0  0  0  0  0  0  0  0  0  0
   -1.0872    7.0880    0.0000 C   0  0  0  0  0  0  0  0  0  0  0  0
   -1.9829    8.2912    0.0000 C   0  0  0  0  0  0  0  0  0  0  0  0
   -3.1320    9.2554    0.0000 C   0  0  0  0  0  0  0  0  0  0  0  0
   -4.4724    9.9286    0.0000 C   0  0  0  0  0  0  0  0  0  0  0  0
   -5.9320   10.2745    0.0000 C   0  0  0  0  0  0  0  0  0  0  0  0
   -7.4320   10.2745    0.0000 N   0  0  0  0  0  0  0  0  0  0  0  0
   -8.8916    9.9286    0.0000 C   0  0  0  0  0  0  0  0  0  0  0  0
  -10.2320    9.2554    0.0000 C   0  0  0  0  0  0  0  0  0  0  0  0
  -11.3811    8.2912    0.0000 C   0  0  0  0  0  0  0  0  0  0  0  0
  -12.2768    7.0880    0.0000 C   0  0  0  0  0  0  0  0  0  0  0  0
  -12.8709    5.7107    0.0000 C   0  0  0  0  0  0  0  0  0  0  0  0
  -13.1314    4.2335    0.0000 C   0  0  0  0  0  0  0  0  0  0  0  0
  -13.0442    2.7360    0.0000 C   0  0  0  0  0  0  0  0  0  0  0  0
  -12.6140    1.2990    0.0000 C   0  0  0  0  0  0  0  0  0  0  0  0
  -11.8640    0.0000    0.0000 C   0  0  0  0  0  0  0  0  0  0  0  0
  -10.8346   -1.0911    0.0000 C   0  0  0  0  0  0  0  0  0  0  0  0
   -9.5814   -1.9153    0.0000 C   0  0  0  0  0  0  0  0  0  0  0  0
  -10.7305   -2.8795    0.0000 C   0  0  0  0  0  0  0  0  0  0  0  0
  -10.4700   -4.3567    0.0000 C   0  0  0  0  0  0  0  0  0  0  0  0
   -9.0604   -4.8697    0.0000 C   0  0  0  0  0  0  0  0  0  0  0  0
   -7.9114   -3.9056    0.0000 C   0  0  0  0  0  0  0  0  0  0  0  0
   -8.1718   -2.4284    0.0000 C   0  0  0  0  0  0  0  0  0  0  0  0
   -6.6820   -2.6025    0.0000 C   0  0  0  0  0  0  0  0  0  0  0  0
   -6.5808   -3.8986    0.0000 C   0  0  0  0  0  0  0  0  0  0  0  0
   -6.1031   -4.5403    0.0000 C   0  0  0  0  0  0  0  0  0  0  0  0
   -5.3085   -4.4474    0.0000 C   0  0  0  0  0  0  0  0  0  0  0  0
   -4.9917   -3.7128    0.0000 C   0  0  0  0  0  0  0  0  0  0  0  0
   -5.1921   -2.4284    0.0000 C   0  0  0  0  0  0  0  0  0  0  0  0
   -3.7826   -1.9153    0.0000 C   0  0  0  0  0  0  0  0  0  0  0  0
   -5.1230   -1.2421    0.0000 C   0  0  0  0  0  0  0  0  0  0  0  0
   -5.2103    0.2553    0.0000 C   0  0  0  0  0  0  0  0  0  0  0  0
   -3.9570    1.0796    0.0000 C   0  0  0  0  0  0  0  0  0  0  0  0
   -2.6166    0.4064    0.0000 C   0  0  0  0  0  0  0  0  0  0  0  0
   -2.5294   -1.0911    0.0000 C   0  0  0  0  0  0  0  0  0  0  0  0
  1  2  2  0
  2  3  1  0
  3  4  2  0
  4  5  1  0
  5  6  2  0
  5  7  1  0
  7  8  2  0
  8  9  1  0
  9 10  1  0
 10 11  1  0
 11 12  1  0
 12 13  1  0
 13 14  1  0
 14 15  1  0
 15 16  1  0
 16 17  1  0
 17 18  1  0
 18 19  1  0
 19 20  1  0
 20 21  1  0
 21 22  1  0
 22 23  1  0
 23 24  1  0
 24 25  1  0
 25 26  1  0
 26 27  2  0
 27 28  1  0
 28 29  2  0
 29 30  1  0
 30 31  2  0
 31 32  1  0
 32 33  2  0
 33 34  1  0
 34 35  2  0
 35 36  1  0
 36 37  2  0
 37 38  1  0
 38 39  2  0
 39 40  1  0
 40 41  2  0
 41 42  1  0
 42 43  2  0
  6  1  1  0
 31 26  1  0
 37 32  1  0
 43 38  1  0
 43  4  1  0
M  END
>  <Title>  (1026) 
idABLNgen6

$$$$

     RDKit          2D

 62 68  0  0  0  0  0  0  0  0999 V2000
    3.9271    0.0000    0.0000 C   0  0  0  0  0  0  0  0  0  0  0  0
    2.4271    0.0000    0.0000 C   0  0  0  0  0  0  0  0  0  0  0  0
    1.9635   -1.4266    0.0000 C   0  0  0  0  0  0  0  0  0  0  0  0
    0.7500   -2.3083    0.0000 C   0  0  0  0  0  0  0  0  0  0  0  0
   -0.7500   -2.3083    0.0000 C   0  0  0  0  0  0  0  0  0  0  0  0
   -1.9635   -1.4266    0.0000 C   0  0  0  0  0  0  0  0  0  0  0  0
   -2.4271    0.0000    0.0000 C   0  0  0  0  0  0  0  0  0  0  0  0
   -1.9635    1.4266    0.0000 C   0  0  0  0  0  0  0  0  0  0  0  0
   -0.7500    2.3083    0.0000 C   0  0  0  0  0  0  0  0  0  0  0  0
    0.7500    2.3083    0.0000 C   0  0  0  0  0  0  0  0  0  0  0  0
    1.9635    1.4266    0.0000 C   0  0  0  0  0  0  0  0  0  0  0  0
    2.2240    2.9038    0.0000 C   0  0  0  0  0  0  0  0  0  0  0  0
    1.4740    4.2028    0.0000 N   0  0  0  0  0  0  0  0  0  0  0  0
    2.4382    5.3519    0.0000 C   0  0  0  0  0  0  0  0  0  0  0  0
    3.9154    5.0914    0.0000 C   0  0  0  0  0  0  0  0  0  0  0  0
    4.8796    6.2405    0.0000 C   0  0  0  0  0  0  0  0  0  0  0  0
    6.3568    5.9800    0.0000 C   0  0  0  0  0  0  0  0  0  0  0  0
    7.3210    7.1291    0.0000 C   0  0  0  0  0  0  0  0  0  0  0  0
    6.8079    8.5386    0.0000 C   0  0  0  0  0  0  0  0  0  0  0  0
    5.3307    8.7991    0.0000 C   0  0  0  0  0  0  0  0  0  0  0  0
    4.3665    7.6500    0.0000 C   0  0  0  0  0  0  0  0  0  0  0  0
    1.9251    6.7614    0.0000 C   0  0  0  0  0  0  0  0  0  0  0  0
    0.4479    7.0219    0.0000 O   0  0  0  0  0  0  0  0  0  0  0  0
    2.8893    7.9105    0.0000 N   0  0  0  0  0  0  0  0  0  0  0  0
    2.3763    9.3200    0.0000 C   0  0  0  0  0  0  0  0  0  0  0  0
    0.8991    9.5805    0.0000 O   0  0  0  0  0  0  0  0  0  0  0  0
    3.3405   10.4691    0.0000 C   0  0  0  0  0  0  0  0  0  0  0  0
    2.8275   11.8787    0.0000 C   0  0  0  0  0  0  0  0  0  0  0  0
    3.7916   13.0277    0.0000 C   0  0  0  0  0  0  0  0  0  0  0  0
    1.3502   12.1391    0.0000 C   0  0  0  0  0  0  0  0  0  0  0  0
    0.8372   13.5487    0.0000 C   0  0  0  0  0  0  0  0  0  0  0  0
    1.8014   14.6977    0.0000 O   0  0  0  0  0  0  0  0  0  0  0  0
   -0.6400   13.8091    0.0000 N   0  0  0  0  0  0  0  0  0  0  0  0
   -1.5156   12.5912    0.0000 C   0  0  0  0  0  0  0  0  0  0  0  0
   -3.0138   12.5165    0.0000 C   0  0  0  0  0  0  0  0  0  0  0  0
   -4.0063   13.6411    0.0000 C   0  0  0  0  0  0  0  0  0  0  0  0
   -3.7458   15.1183    0.0000 C   0  0  0  0  0  0  0  0  0  0  0  0
   -4.9637   15.9940    0.0000 N   0  0  0  0  0  0  0  0  0  0  0  0
   -6.3880   15.5233    0.0000 C   0  0  0  0  0  0  0  0  0  0  0  0
   -7.2757   16.7324    0.0000 C   0  0  0  0  0  0  0  0  0  0  0  0
   -6.4001   17.9503    0.0000 C   0  0  0  0  0  0  0  0  0  0  0  0
   -6.8707   19.3746    0.0000 C   0  0  0  0  0  0  0  0  0  0  0  0
   -8.3395   19.6791    0.0000 O   0  0  0  0  0  0  0  0  0  0  0  0
   -5.8726   20.4943    0.0000 O   0  0  0  0  0  0  0  0  0  0  0  0
   -4.9712   17.4939    0.0000 C   0  0  0  0  0  0  0  0  0  0  0  0
   -2.4285   15.8357    0.0000 C   0  0  0  0  0  0  0  0  0  0  0  0
   -1.0463   15.2531    0.0000 C   0  0  0  0  0  0  0  0  0  0  0  0
    0.0645    4.7159    0.0000 C   0  0  0  0  0  0  0  0  0  0  0  0
   -1.3451    4.2028    0.0000 C   0  0  0  0  0  0  0  0  0  0  0  0
   -2.0951    2.9038    0.0000 C   0  0  0  0  0  0  0  0  0  0  0  0
   -3.5723    3.1643    0.0000 N   0  0  0  0  0  0  0  0  0  0  0  0
   -4.0853    4.5738    0.0000 C   0  0  0  0  0  0  0  0  0  0  0  0
   -5.5625    4.8343    0.0000 C   0  0  0  0  0  0  0  0  0  0  0  0
   -6.5267    3.6852    0.0000 C   0  0  0  0  0  0  0  0  0  0  0  0
   -8.0039    3.9457    0.0000 N   0  0  0  0  0  0  0  0  0  0  0  0
   -9.0829    2.9037    0.0000 C   0  0  0  0  0  0  0  0  0  0  0  0
  -10.4074    3.6079    0.0000 C   0  0  0  0  0  0  0  0  0  0  0  0
  -10.1469    5.0851    0.0000 C   0  0  0  0  0  0  0  0  0  0  0  0
   -8.6615    5.2939    0.0000 C   0  0  0  0  0  0  0  0  0  0  0  0
   -6.0137    2.2757    0.0000 O   0  0  0  0  0  0  0  0  0  0  0  0
   -4.5365    2.0152    0.0000 C   0  0  0  0  0  0  0  0  0  0  0  0
   -4.0234    0.6057    0.0000 O   0  0  0  0  0  0  0  0  0  0  0  0
  1  2  1  0
  2  3  2  0
  3  4  1  0
  4  5  2  0
  5  6  1  0
  6  7  2  0
  7  8  1  0
  8  9  2  0
  9 10  1  0
 10 11  2  0
 11 12  1  0
 12 13  1  0
 13 14  1  0
 14 15  1  0
 15 16  1  0
 16 17  2  0
 17 18  1  0
 18 19  2  0
 19 20  1  0
 20 21  2  0
 14 22  1  0
 22 23  2  0
 22 24  1  0
 24 25  1  0
 25 26  2  0
 25 27  1  0
 27 28  1  0
 28 29  1  0
 28 30  1  0
 30 31  1  0
 31 32  2  0
 31 33  1  0
 33 34  1  0
 34 35  1  0
 35 36  1  0
 36 37  1  0
 37 38  1  0
 38 39  1  0
 39 40  1  0
 40 41  1  0
 41 42  1  0
 42 43  2  0
 42 44  1  0
 41 45  1  0
 37 46  1  0
 46 47  1  0
 13 48  1  0
 48 49  1  0
 49 50  1  0
 50 51  1  0
 51 52  1  0
 52 53  1  0
 53 54  1  0
 54 55  1  0
 55 56  1  0
 56 57  2  0
 57 58  1  0
 58 59  2  0
 54 60  1  0
 60 61  1  0
 61 62  2  0
 11  2  1  0
 21 16  1  0
 47 33  1  0
 61 51  1  0
 50  8  1  0
 59 55  1  0
 45 38  1  0
M  END
>  <Title>  (1027) 
idABLOgen6

$$$$

     RDKit          2D

 20 21  0  0  0  0  0  0  0  0999 V2000
    8.2500   -3.8971    0.0000 C   0  0  0  0  0  0  0  0  0  0  0  0
    7.5000   -2.5981    0.0000 C   0  0  0  0  0  0  0  0  0  0  0  0
    8.2500   -1.2990    0.0000 O   0  0  0  0  0  0  0  0  0  0  0  0
    6.0000   -2.5981    0.0000 C   0  0  0  0  0  0  0  0  0  0  0  0
    5.2500   -1.2990    0.0000 C   0  0  0  0  0  0  0  0  0  0  0  0
    3.7500   -1.2990    0.0000 C   0  0  0  0  0  0  0  0  0  0  0  0
    3.0000    0.0000    0.0000 C   0  0  0  0  0  0  0  0  0  0  0  0
    3.7500    1.2990    0.0000 O   0  0  0  0  0  0  0  0  0  0  0  0
    1.5000    0.0000    0.0000 N   0  0  0  0  0  0  0  0  0  0  0  0
    0.7500   -1.2990    0.0000 C   0  0  0  0  0  0  0  0  0  0  0  0
   -0.7500   -1.2990    0.0000 C   0  0  0  0  0  0  0  0  0  0  0  0
   -1.5000    0.0000    0.0000 C   0  0  0  0  0  0  0  0  0  0  0  0
   -3.0000    0.0000    0.0000 C   0  0  0  0  0  0  0  0  0  0  0  0
   -3.7500    1.2990    0.0000 N   0  0  0  0  0  0  0  0  0  0  0  0
   -5.2500    1.2990    0.0000 N   0  0  0  0  0  0  0  0  0  0  0  0
   -6.0000    0.0000    0.0000 N   0  0  0  0  0  0  0  0  0  0  0  0
   -5.2500   -1.2990    0.0000 N   0  0  0  0  0  0  0  0  0  0  0  0
   -3.7500   -1.2990    0.0000 N   0  0  0  0  0  0  0  0  0  0  0  0
   -0.7500    1.2990    0.0000 C   0  0  0  0  0  0  0  0  0  0  0  0
    0.7500    1.2990    0.0000 C   0  0  0  0  0  0  0  0  0  0  0  0
  1  2  1  0
  2  3  2  0
  2  4  1  0
  4  5  1  0
  5  6  1  0
  6  7  1  0
  7  8  2  0
  7  9  1  0
  9 10  1  0
 10 11  1  0
 11 12  1  0
 12 13  1  0
 13 14  2  0
 14 15  1  0
 15 16  2  0
 16 17  1  0
 17 18  2  0
 12 19  1  0
 19 20  1  0
 20  9  1  0
 18 13  1  0
M  END
>  <Title>  (1028) 
idABLPgen6

$$$$

     RDKit          2D

  6  5  0  0  0  0  0  0  0  0999 V2000
    0.0000    0.0000    0.0000 C   0  0  0  0  0  0  0  0  0  0  0  0
   -0.0000   -1.5000    0.0000 C   0  0  0  0  0  0  0  0  0  0  0  0
   -0.0000   -3.0000    0.0000 C   0  0  0  0  0  0  0  0  0  0  0  0
   -0.0000   -4.5000    0.0000 C   0  0  0  0  0  0  0  0  0  0  0  0
   -0.0000   -6.0000    0.0000 C   0  0  0  0  0  0  0  0  0  0  0  0
    1.2990   -6.7500    0.0000 C   0  0  0  0  0  0  0  0  0  0  0  0
  1  2  3  0
  2  3  1  0
  3  4  3  0
  4  5  1  0
  5  6  2  0
M  END
>  <Title>  (1029) 
idABLQgen6

$$$$

     RDKit          2D

  8  7  0  0  0  0  0  0  0  0999 V2000
    0.0000    0.0000    0.0000 C   0  0  0  0  0  0  0  0  0  0  0  0
    1.2990    0.7500    0.0000 C   0  0  0  0  0  0  0  0  0  0  0  0
    1.2990    2.2500    0.0000 O   0  0  0  0  0  0  0  0  0  0  0  0
    2.5981   -0.0000    0.0000 C   0  0  0  0  0  0  0  0  0  0  0  0
    3.8971    0.7500    0.0000 C   0  0  0  0  0  0  0  0  0  0  0  0
    5.1962   -0.0000    0.0000 C   0  0  0  0  0  0  0  0  0  0  0  0
    6.4952    0.7500    0.0000 C   0  0  0  0  0  0  0  0  0  0  0  0
    5.1962   -1.5000    0.0000 C   0  0  0  0  0  0  0  0  0  0  0  0
  1  2  1  0
  2  3  2  0
  2  4  1  0
  4  5  1  0
  5  6  2  3
  6  7  1  0
  6  8  1  0
M  END
>  <Title>  (1030) 
idABLRgen6

$$$$

     RDKit          2D

  7  7  0  0  0  0  0  0  0  0999 V2000
    2.5607    0.0000    0.0000 C   0  0  0  0  0  0  0  0  0  0  0  0
    1.0607    0.0000    0.0000 C   0  0  0  0  0  0  0  0  0  0  0  0
   -0.0000   -1.0607    0.0000 C   0  0  0  0  0  0  0  0  0  0  0  0
   -0.0000   -2.5607    0.0000 C   0  0  0  0  0  0  0  0  0  0  0  0
   -1.0607    0.0000    0.0000 C   0  0  0  0  0  0  0  0  0  0  0  0
   -2.5607    0.0000    0.0000 O   0  0  0  0  0  0  0  0  0  0  0  0
    0.0000    1.0607    0.0000 N   0  0  0  0  0  0  0  0  0  0  0  0
  1  2  1  0
  2  3  2  0
  3  4  1  0
  3  5  1  0
  5  6  2  0
  5  7  1  0
  7  2  1  0
M  END
>  <Title>  (1031) 
idABLSgen6

$$$$

     RDKit          2D

 14 15  0  0  0  0  0  0  0  0999 V2000
    3.5260    1.2990    0.0000 C   0  0  0  0  0  0  0  0  0  0  0  0
    2.7760    0.0000    0.0000 O   0  0  0  0  0  0  0  0  0  0  0  0
    1.2760    0.0000    0.0000 C   0  0  0  0  0  0  0  0  0  0  0  0
    0.3943    1.2135    0.0000 C   0  0  0  0  0  0  0  0  0  0  0  0
   -1.0323    0.7500    0.0000 C   0  0  0  0  0  0  0  0  0  0  0  0
   -2.2458    1.6317    0.0000 C   0  0  0  0  0  0  0  0  0  0  0  0
   -3.4593    2.5134    0.0000 N   0  0  0  0  0  0  0  0  0  0  0  0
   -1.0323   -0.7500    0.0000 C   0  0  0  0  0  0  0  0  0  0  0  0
    0.3943   -1.2135    0.0000 C   0  0  0  0  0  0  0  0  0  0  0  0
    0.8578   -2.6401    0.0000 C   0  0  0  0  0  0  0  0  0  0  0  0
    2.2844   -3.1036    0.0000 C   0  0  0  0  0  0  0  0  0  0  0  0
    2.2844   -4.6036    0.0000 C   0  0  0  0  0  0  0  0  0  0  0  0
    0.8578   -5.0672    0.0000 C   0  0  0  0  0  0  0  0  0  0  0  0
   -0.0239   -3.8536    0.0000 C   0  0  0  0  0  0  0  0  0  0  0  0
  1  2  1  0
  2  3  1  0
  3  4  2  0
  4  5  1  0
  5  6  1  0
  6  7  3  0
  5  8  1  0
  8  9  2  0
  9 10  1  0
 10 11  2  0
 11 12  1  0
 12 13  2  0
 13 14  1  0
  9  3  1  0
 14 10  1  0
M  END
>  <Title>  (1032) 
idABLTgen6

$$$$

     RDKit          2D

 13 13  0  0  0  0  0  0  0  0999 V2000
    5.0260    1.2990    0.0000 C   0  0  0  0  0  0  0  0  0  0  0  0
    3.5260    1.2990    0.0000 C   0  0  0  0  0  0  0  0  0  0  0  0
    2.7760    2.5981    0.0000 O   0  0  0  0  0  0  0  0  0  0  0  0
    2.7760    0.0000    0.0000 C   0  0  0  0  0  0  0  0  0  0  0  0
    1.2760    0.0000    0.0000 N   0  0  0  0  0  0  0  0  0  0  0  0
    0.3943    1.2135    0.0000 C   0  0  0  0  0  0  0  0  0  0  0  0
   -1.0323    0.7500    0.0000 C   0  0  0  0  0  0  0  0  0  0  0  0
   -1.0323   -0.7500    0.0000 C   0  0  0  0  0  0  0  0  0  0  0  0
   -2.2458   -1.6317    0.0000 C   0  0  0  0  0  0  0  0  0  0  0  0
   -2.0890   -3.1235    0.0000 O   0  0  0  0  0  0  0  0  0  0  0  0
   -3.6161   -1.0216    0.0000 O   0  0  0  0  0  0  0  0  0  0  0  0
    0.3943   -1.2135    0.0000 C   0  0  0  0  0  0  0  0  0  0  0  0
    0.8578   -2.6401    0.0000 O   0  0  0  0  0  0  0  0  0  0  0  0
  1  2  1  0
  2  3  2  0
  2  4  1  0
  4  5  1  0
  5  6  1  0
  6  7  1  0
  7  8  1  0
  8  9  1  0
  9 10  2  0
  9 11  1  0
  8 12  1  0
 12 13  2  0
 12  5  1  0
M  END
>  <Title>  (1033) 
idABLUgen6

$$$$

     RDKit          2D

 11 11  0  0  0  0  0  0  0  0999 V2000
    5.0260   -1.2990    0.0000 C   0  0  0  0  0  0  0  0  0  0  0  0
    3.5260   -1.2990    0.0000 C   0  0  0  0  0  0  0  0  0  0  0  0
    2.7760   -2.5981    0.0000 O   0  0  0  0  0  0  0  0  0  0  0  0
    2.7760    0.0000    0.0000 C   0  0  0  0  0  0  0  0  0  0  0  0
    3.5260    1.2990    0.0000 O   0  0  0  0  0  0  0  0  0  0  0  0
    1.2760    0.0000    0.0000 C   0  0  0  0  0  0  0  0  0  0  0  0
    0.3943    1.2135    0.0000 C   0  0  0  0  0  0  0  0  0  0  0  0
   -1.0323    0.7500    0.0000 C   0  0  0  0  0  0  0  0  0  0  0  0
   -1.0323   -0.7500    0.0000 C   0  0  0  0  0  0  0  0  0  0  0  0
   -2.2458   -1.6317    0.0000 O   0  0  0  0  0  0  0  0  0  0  0  0
    0.3943   -1.2135    0.0000 C   0  0  0  0  0  0  0  0  0  0  0  0
  1  2  1  0
  2  3  2  0
  2  4  1  0
  4  5  2  0
  4  6  1  0
  6  7  2  0
  7  8  1  0
  8  9  2  0
  9 10  1  0
  9 11  1  0
 11  6  1  0
M  END
>  <Title>  (1034) 
idABLVgen6

$$$$

     RDKit          2D

 21 23  0  0  0  0  0  0  0  0999 V2000
   -3.1476   -2.1380    0.0000 C   0  0  0  0  0  0  0  0  0  0  0  0
   -1.6852   -2.4718    0.0000 C   0  0  0  0  0  0  0  0  0  0  0  0
   -1.3515   -3.9342    0.0000 C   0  0  0  0  0  0  0  0  0  0  0  0
   -0.0000   -4.5850    0.0000 C   0  0  0  0  0  0  0  0  0  0  0  0
    1.3515   -3.9342    0.0000 C   0  0  0  0  0  0  0  0  0  0  0  0
    1.6852   -2.4718    0.0000 C   0  0  0  0  0  0  0  0  0  0  0  0
    3.1476   -2.1380    0.0000 C   0  0  0  0  0  0  0  0  0  0  0  0
    3.5898   -0.7046    0.0000 O   0  0  0  0  0  0  0  0  0  0  0  0
    4.1679   -3.2376    0.0000 N   0  0  0  0  0  0  0  0  0  0  0  0
    5.6303   -2.9038    0.0000 C   0  0  0  0  0  0  0  0  0  0  0  0
    6.6505   -4.0034    0.0000 N   0  0  0  0  0  0  0  0  0  0  0  0
    8.1129   -3.6696    0.0000 N   0  0  0  0  0  0  0  0  0  0  0  0
    8.5551   -2.2362    0.0000 N   0  0  0  0  0  0  0  0  0  0  0  0
    7.5348   -1.1367    0.0000 N   0  0  0  0  0  0  0  0  0  0  0  0
    6.0724   -1.4704    0.0000 N   0  0  0  0  0  0  0  0  0  0  0  0
    0.7500   -1.2990    0.0000 C   0  0  0  0  0  0  0  0  0  0  0  0
    1.5000    0.0000    0.0000 C   0  0  0  0  0  0  0  0  0  0  0  0
    0.7500    1.2990    0.0000 C   0  0  0  0  0  0  0  0  0  0  0  0
   -0.7500    1.2990    0.0000 C   0  0  0  0  0  0  0  0  0  0  0  0
   -1.5000    0.0000    0.0000 C   0  0  0  0  0  0  0  0  0  0  0  0
   -0.7500   -1.2990    0.0000 C   0  0  0  0  0  0  0  0  0  0  0  0
  1  2  1  0
  2  3  1  0
  3  4  2  0
  4  5  1  0
  5  6  1  0
  6  7  1  0
  7  8  2  0
  7  9  1  0
  9 10  1  0
 10 11  2  0
 11 12  1  0
 12 13  2  0
 13 14  1  0
 14 15  2  0
  6 16  1  0
 16 17  2  0
 17 18  1  0
 18 19  2  0
 19 20  1  0
 20 21  2  0
 21  2  1  0
 15 10  1  0
 21 16  1  0
M  END
>  <Title>  (1035) 
idABLWgen6

$$$$

     RDKit          2D

 24 26  0  0  0  0  0  0  0  0999 V2000
   -5.6303   -2.9038    0.0000 C   0  0  0  0  0  0  0  0  0  0  0  0
   -4.1679   -3.2376    0.0000 C   0  0  0  0  0  0  0  0  0  0  0  0
   -3.7258   -4.6709    0.0000 O   0  0  0  0  0  0  0  0  0  0  0  0
   -3.1476   -2.1380    0.0000 C   0  0  0  0  0  0  0  0  0  0  0  0
   -3.5898   -0.7046    0.0000 O   0  0  0  0  0  0  0  0  0  0  0  0
   -1.6852   -2.4718    0.0000 C   0  0  0  0  0  0  0  0  0  0  0  0
   -1.3515   -3.9342    0.0000 C   0  0  0  0  0  0  0  0  0  0  0  0
   -0.0000   -4.5850    0.0000 C   0  0  0  0  0  0  0  0  0  0  0  0
    1.3515   -3.9342    0.0000 C   0  0  0  0  0  0  0  0  0  0  0  0
    1.6852   -2.4718    0.0000 C   0  0  0  0  0  0  0  0  0  0  0  0
    3.1476   -2.1380    0.0000 C   0  0  0  0  0  0  0  0  0  0  0  0
    4.1679   -3.2376    0.0000 C   0  0  0  0  0  0  0  0  0  0  0  0
    5.6303   -2.9038    0.0000 C   0  0  0  0  0  0  0  0  0  0  0  0
    6.0724   -1.4704    0.0000 C   0  0  0  0  0  0  0  0  0  0  0  0
    5.0522   -0.3709    0.0000 C   0  0  0  0  0  0  0  0  0  0  0  0
    3.5898   -0.7046    0.0000 C   0  0  0  0  0  0  0  0  0  0  0  0
    0.7500   -1.2990    0.0000 C   0  0  0  0  0  0  0  0  0  0  0  0
    1.5000    0.0000    0.0000 C   0  0  0  0  0  0  0  0  0  0  0  0
    0.7500    1.2990    0.0000 C   0  0  0  0  0  0  0  0  0  0  0  0
   -0.7500    1.2990    0.0000 C   0  0  0  0  0  0  0  0  0  0  0  0
   -1.5000    2.5981    0.0000 C   0  0  0  0  0  0  0  0  0  0  0  0
   -2.2500    3.8971    0.0000 N   0  0  0  0  0  0  0  0  0  0  0  0
   -1.5000    0.0000    0.0000 C   0  0  0  0  0  0  0  0  0  0  0  0
   -0.7500   -1.2990    0.0000 C   0  0  0  0  0  0  0  0  0  0  0  0
  1  2  1  0
  2  3  2  0
  2  4  1  0
  4  5  2  0
  4  6  1  0
  6  7  2  0
  7  8  1  0
  8  9  1  0
  9 10  2  0
 10 11  1  0
 11 12  2  0
 12 13  1  0
 13 14  2  0
 14 15  1  0
 15 16  2  0
 10 17  1  0
 17 18  2  0
 18 19  1  0
 19 20  2  0
 20 21  1  0
 21 22  3  0
 20 23  1  0
 23 24  2  0
 24  6  1  0
 16 11  1  0
 24 17  1  0
M  END
>  <Title>  (1036) 
idABLXgen6

$$$$

     RDKit          2D

 24 26  0  0  0  0  0  0  0  0999 V2000
   -3.1965   -1.7857    0.0000 C   0  0  0  0  0  0  0  0  0  0  0  0
   -1.8107   -2.3597    0.0000 C   0  0  0  0  0  0  0  0  0  0  0  0
   -1.8107   -3.8597    0.0000 C   0  0  0  0  0  0  0  0  0  0  0  0
   -0.7500   -4.9204    0.0000 C   0  0  0  0  0  0  0  0  0  0  0  0
    0.7500   -4.9204    0.0000 C   0  0  0  0  0  0  0  0  0  0  0  0
    1.3240   -6.3062    0.0000 O   0  0  0  0  0  0  0  0  0  0  0  0
    1.8107   -3.8597    0.0000 N   0  0  0  0  0  0  0  0  0  0  0  0
    3.1965   -4.4337    0.0000 C   0  0  0  0  0  0  0  0  0  0  0  0
    1.8107   -2.3597    0.0000 C   0  0  0  0  0  0  0  0  0  0  0  0
    3.1965   -1.7857    0.0000 C   0  0  0  0  0  0  0  0  0  0  0  0
    3.3923   -0.2985    0.0000 O   0  0  0  0  0  0  0  0  0  0  0  0
    4.3865   -2.6988    0.0000 N   0  0  0  0  0  0  0  0  0  0  0  0
    5.7723   -2.1248    0.0000 C   0  0  0  0  0  0  0  0  0  0  0  0
    6.9624   -3.0379    0.0000 N   0  0  0  0  0  0  0  0  0  0  0  0
    8.3482   -2.4639    0.0000 N   0  0  0  0  0  0  0  0  0  0  0  0
    8.5440   -0.9767    0.0000 N   0  0  0  0  0  0  0  0  0  0  0  0
    7.3539   -0.0636    0.0000 N   0  0  0  0  0  0  0  0  0  0  0  0
    5.9681   -0.6376    0.0000 N   0  0  0  0  0  0  0  0  0  0  0  0
    0.7500   -1.2990    0.0000 C   0  0  0  0  0  0  0  0  0  0  0  0
    1.5000    0.0000    0.0000 C   0  0  0  0  0  0  0  0  0  0  0  0
    0.7500    1.2990    0.0000 C   0  0  0  0  0  0  0  0  0  0  0  0
   -0.7500    1.2990    0.0000 C   0  0  0  0  0  0  0  0  0  0  0  0
   -1.5000    0.0000    0.0000 C   0  0  0  0  0  0  0  0  0  0  0  0
   -0.7500   -1.2990    0.0000 C   0  0  0  0  0  0  0  0  0  0  0  0
  1  2  1  0
  2  3  1  0
  3  4  2  0
  4  5  1  0
  5  6  2  0
  5  7  1  0
  7  8  1  0
  7  9  1  0
  9 10  1  0
 10 11  2  0
 10 12  1  0
 12 13  1  0
 13 14  2  0
 14 15  1  0
 15 16  2  0
 16 17  1  0
 17 18  2  0
  9 19  1  0
 19 20  2  0
 20 21  1  0
 21 22  2  0
 22 23  1  0
 23 24  2  0
 24  2  1  0
 18 13  1  0
 24 19  1  0
M  END
>  <Title>  (1037) 
idABLYgen6

$$$$

     RDKit          2D

  9  9  0  0  0  0  0  0  0  0999 V2000
    3.4598   -0.0000    0.0000 C   0  0  0  0  0  0  0  0  0  0  0  0
    1.9598    0.0000    0.0000 C   0  0  0  0  0  0  0  0  0  0  0  0
    1.3858   -1.3858    0.0000 C   0  0  0  0  0  0  0  0  0  0  0  0
   -0.0000   -1.9598    0.0000 C   0  0  0  0  0  0  0  0  0  0  0  0
   -1.3858   -1.3858    0.0000 C   0  0  0  0  0  0  0  0  0  0  0  0
   -1.9598    0.0000    0.0000 C   0  0  0  0  0  0  0  0  0  0  0  0
   -1.3858    1.3858    0.0000 C   0  0  0  0  0  0  0  0  0  0  0  0
    0.0000    1.9598    0.0000 C   0  0  0  0  0  0  0  0  0  0  0  0
    1.3858    1.3858    0.0000 C   0  0  0  0  0  0  0  0  0  0  0  0
  1  2  1  0
  2  3  2  0
  3  4  1  0
  4  5  1  0
  5  6  1  0
  6  7  1  0
  7  8  1  0
  8  9  1  0
  9  2  1  0
M  END
>  <Title>  (1038) 
idABLZgen6

$$$$

     RDKit          2D

 15 16  0  0  0  0  0  0  0  0999 V2000
   -0.5773   -6.8783    0.0000 O   0  0  0  0  0  0  0  0  0  0  0  0
    0.8899   -6.5665    0.0000 C   0  0  0  0  0  0  0  0  0  0  0  0
    2.0046   -7.5702    0.0000 C   0  0  0  0  0  0  0  0  0  0  0  0
    3.3037   -6.8202    0.0000 C   0  0  0  0  0  0  0  0  0  0  0  0
    2.9918   -5.3529    0.0000 C   0  0  0  0  0  0  0  0  0  0  0  0
    1.5000   -5.1962    0.0000 N   0  0  0  0  0  0  0  0  0  0  0  0
    0.7500   -3.8971    0.0000 C   0  0  0  0  0  0  0  0  0  0  0  0
   -0.7500   -3.8971    0.0000 O   0  0  0  0  0  0  0  0  0  0  0  0
    1.5000   -2.5981    0.0000 N   0  0  0  0  0  0  0  0  0  0  0  0
    0.7500   -1.2990    0.0000 C   0  0  0  0  0  0  0  0  0  0  0  0
    1.5000    0.0000    0.0000 N   0  0  0  0  0  0  0  0  0  0  0  0
    0.7500    1.2990    0.0000 N   0  0  0  0  0  0  0  0  0  0  0  0
   -0.7500    1.2990    0.0000 N   0  0  0  0  0  0  0  0  0  0  0  0
   -1.5000    0.0000    0.0000 N   0  0  0  0  0  0  0  0  0  0  0  0
   -0.7500   -1.2990    0.0000 N   0  0  0  0  0  0  0  0  0  0  0  0
  1  2  2  0
  2  3  1  0
  3  4  1  0
  4  5  1  0
  5  6  1  0
  6  7  1  0
  7  8  2  0
  7  9  1  0
  9 10  1  0
 10 11  2  0
 11 12  1  0
 12 13  2  0
 13 14  1  0
 14 15  2  0
  6  2  1  0
 15 10  1  0
M  END
>  <Title>  (1039) 
idABMAgen6

$$$$

     RDKit          2D

 48 52  0  0  0  0  0  0  0  0999 V2000
   -2.8342   -0.3897    0.0000 C   0  0  0  0  0  0  0  0  0  0  0  0
   -2.1834   -1.7412    0.0000 C   0  0  0  0  0  0  0  0  0  0  0  0
   -3.4227   -2.5862    0.0000 C   0  0  0  0  0  0  0  0  0  0  0  0
   -4.3580   -3.7589    0.0000 C   0  0  0  0  0  0  0  0  0  0  0  0
   -4.9060   -5.1552    0.0000 C   0  0  0  0  0  0  0  0  0  0  0  0
   -5.0181   -6.6510    0.0000 C   0  0  0  0  0  0  0  0  0  0  0  0
   -4.6843   -8.1134    0.0000 C   0  0  0  0  0  0  0  0  0  0  0  0
   -3.9343   -9.4124    0.0000 C   0  0  0  0  0  0  0  0  0  0  0  0
   -2.8347  -10.4327    0.0000 C   0  0  0  0  0  0  0  0  0  0  0  0
   -1.4832  -11.0835    0.0000 C   0  0  0  0  0  0  0  0  0  0  0  0
   -0.0000  -11.3071    0.0000 C   0  0  0  0  0  0  0  0  0  0  0  0
    1.4832  -11.0835    0.0000 C   0  0  0  0  0  0  0  0  0  0  0  0
    2.8347  -10.4327    0.0000 C   0  0  0  0  0  0  0  0  0  0  0  0
    3.9343   -9.4124    0.0000 C   0  0  0  0  0  0  0  0  0  0  0  0
    4.6843   -8.1134    0.0000 C   0  0  0  0  0  0  0  0  0  0  0  0
    5.0181   -6.6510    0.0000 C   0  0  0  0  0  0  0  0  0  0  0  0
    6.5139   -6.5389    0.0000 N   0  0  0  0  0  0  0  0  0  0  0  0
    6.4018   -5.0431    0.0000 C   0  0  0  0  0  0  0  0  0  0  0  0
    7.3802   -3.9062    0.0000 O   0  0  0  0  0  0  0  0  0  0  0  0
    4.9060   -5.1552    0.0000 C   0  0  0  0  0  0  0  0  0  0  0  0
    4.3580   -3.7589    0.0000 C   0  0  0  0  0  0  0  0  0  0  0  0
    3.4227   -2.5862    0.0000 C   0  0  0  0  0  0  0  0  0  0  0  0
    2.1834   -1.7412    0.0000 C   0  0  0  0  0  0  0  0  0  0  0  0
    2.8342   -0.3897    0.0000 O   0  0  0  0  0  0  0  0  0  0  0  0
    4.3300   -0.2776    0.0000 C   0  0  0  0  0  0  0  0  0  0  0  0
    4.9808    1.0738    0.0000 C   0  0  0  0  0  0  0  0  0  0  0  0
    4.1358    2.3132    0.0000 O   0  0  0  0  0  0  0  0  0  0  0  0
    6.4766    1.1859    0.0000 C   0  0  0  0  0  0  0  0  0  0  0  0
    7.3216   -0.0534    0.0000 O   0  0  0  0  0  0  0  0  0  0  0  0
    7.1274    2.5374    0.0000 C   0  0  0  0  0  0  0  0  0  0  0  0
    6.2825    3.7767    0.0000 C   0  0  0  0  0  0  0  0  0  0  0  0
    6.9333    5.1282    0.0000 C   0  0  0  0  0  0  0  0  0  0  0  0
    8.4291    5.2403    0.0000 C   0  0  0  0  0  0  0  0  0  0  0  0
    9.0799    6.5917    0.0000 Cl  0  0  0  0  0  0  0  0  0  0  0  0
    9.2741    4.0009    0.0000 C   0  0  0  0  0  0  0  0  0  0  0  0
    8.6233    2.6495    0.0000 C   0  0  0  0  0  0  0  0  0  0  0  0
    9.4682    1.4101    0.0000 C   0  0  0  0  0  0  0  0  0  0  0  0
   10.9640    1.5222    0.0000 N   0  0  0  0  0  0  0  0  0  0  0  0
   11.8090    0.2829    0.0000 N   0  0  0  0  0  0  0  0  0  0  0  0
   11.1582   -1.0686    0.0000 N   0  0  0  0  0  0  0  0  0  0  0  0
    9.6624   -1.1807    0.0000 N   0  0  0  0  0  0  0  0  0  0  0  0
    8.8174    0.0587    0.0000 N   0  0  0  0  0  0  0  0  0  0  0  0
    0.7500   -1.2990    0.0000 C   0  0  0  0  0  0  0  0  0  0  0  0
    1.5000    0.0000    0.0000 C   0  0  0  0  0  0  0  0  0  0  0  0
    0.7500    1.2990    0.0000 C   0  0  0  0  0  0  0  0  0  0  0  0
   -0.7500    1.2990    0.0000 C   0  0  0  0  0  0  0  0  0  0  0  0
   -1.5000    0.0000    0.0000 C   0  0  0  0  0  0  0  0  0  0  0  0
   -0.7500   -1.2990    0.0000 C   0  0  0  0  0  0  0  0  0  0  0  0
  1  2  1  0
  2  3  1  0
  3  4  2  0
  4  5  1  0
  5  6  2  0
  6  7  1  0
  7  8  1  0
  8  9  1  0
  9 10  1  0
 10 11  1  0
 11 12  1  0
 12 13  1  0
 13 14  1  0
 14 15  1  0
 15 16  1  0
 16 17  1  0
 17 18  1  0
 18 19  2  0
 18 20  1  0
 20 21  2  0
 21 22  1  0
 22 23  2  0
 23 24  1  0
 24 25  1  0
 25 26  1  0
 26 27  2  0
 26 28  1  0
 28 29  2  0
 28 30  1  0
 30 31  2  0
 31 32  1  0
 32 33  2  0
 33 34  1  0
 33 35  1  0
 35 36  2  0
 36 37  1  0
 37 38  2  0
 38 39  1  0
 39 40  2  0
 40 41  1  0
 41 42  2  0
 23 43  1  0
 43 44  2  0
 44 45  1  0
 45 46  2  0
 46 47  1  0
 47 48  2  0
 48  2  1  0
 20 16  1  0
 36 30  1  0
 42 37  1  0
 48 43  1  0
M  END
>  <Title>  (1040) 
idABMBgen6

$$$$

     RDKit          2D

 31 34  0  0  0  0  0  0  0  0999 V2000
   -3.0000   -2.5981    0.0000 C   0  0  0  0  0  0  0  0  0  0  0  0
   -1.5000   -2.5981    0.0000 C   0  0  0  0  0  0  0  0  0  0  0  0
   -0.7500   -3.8971    0.0000 C   0  0  0  0  0  0  0  0  0  0  0  0
    0.7500   -3.8971    0.0000 C   0  0  0  0  0  0  0  0  0  0  0  0
    1.5000   -2.5981    0.0000 C   0  0  0  0  0  0  0  0  0  0  0  0
    3.0000   -2.5981    0.0000 C   0  0  0  0  0  0  0  0  0  0  0  0
    3.7500   -1.2990    0.0000 O   0  0  0  0  0  0  0  0  0  0  0  0
    3.7500   -3.8971    0.0000 N   0  0  0  0  0  0  0  0  0  0  0  0
    5.2500   -3.8971    0.0000 C   0  0  0  0  0  0  0  0  0  0  0  0
    6.0000   -5.1962    0.0000 N   0  0  0  0  0  0  0  0  0  0  0  0
    7.5000   -5.1962    0.0000 N   0  0  0  0  0  0  0  0  0  0  0  0
    8.2500   -3.8971    0.0000 N   0  0  0  0  0  0  0  0  0  0  0  0
    7.5000   -2.5981    0.0000 N   0  0  0  0  0  0  0  0  0  0  0  0
    8.2500   -1.2990    0.0000 C   0  0  0  0  0  0  0  0  0  0  0  0
    7.5000    0.0000    0.0000 O   0  0  0  0  0  0  0  0  0  0  0  0
    9.7500   -1.2990    0.0000 N   0  0  0  0  0  0  0  0  0  0  0  0
   10.5000    0.0000    0.0000 C   0  0  0  0  0  0  0  0  0  0  0  0
   12.0000    0.0000    0.0000 C   0  0  0  0  0  0  0  0  0  0  0  0
   12.7500    1.2990    0.0000 C   0  0  0  0  0  0  0  0  0  0  0  0
   12.0000    2.5981    0.0000 C   0  0  0  0  0  0  0  0  0  0  0  0
   10.5000    2.5981    0.0000 C   0  0  0  0  0  0  0  0  0  0  0  0
    9.7500    1.2990    0.0000 C   0  0  0  0  0  0  0  0  0  0  0  0
    6.0000   -2.5981    0.0000 C   0  0  0  0  0  0  0  0  0  0  0  0
    0.7500   -1.2990    0.0000 C   0  0  0  0  0  0  0  0  0  0  0  0
    1.5000    0.0000    0.0000 C   0  0  0  0  0  0  0  0  0  0  0  0
    0.7500    1.2990    0.0000 C   0  0  0  0  0  0  0  0  0  0  0  0
   -0.7500    1.2990    0.0000 C   0  0  0  0  0  0  0  0  0  0  0  0
   -1.5000    2.5981    0.0000 C   0  0  0  0  0  0  0  0  0  0  0  0
   -2.2500    3.8971    0.0000 N   0  0  0  0  0  0  0  0  0  0  0  0
   -1.5000    0.0000    0.0000 C   0  0  0  0  0  0  0  0  0  0  0  0
   -0.7500   -1.2990    0.0000 C   0  0  0  0  0  0  0  0  0  0  0  0
  1  2  1  0
  2  3  1  0
  3  4  1  0
  4  5  1  0
  5  6  1  0
  6  7  2  0
  6  8  1  0
  8  9  1  0
  9 10  2  0
 10 11  1  0
 11 12  2  0
 12 13  1  0
 13 14  1  0
 14 15  2  0
 14 16  1  0
 16 17  1  0
 17 18  2  0
 18 19  1  0
 19 20  2  0
 20 21  1  0
 21 22  2  0
 13 23  1  0
  5 24  1  0
 24 25  2  0
 25 26  1  0
 26 27  2  0
 27 28  1  0
 28 29  3  0
 27 30  1  0
 30 31  2  0
 31  2  1  0
 23  9  1  0
 31 24  1  0
 22 17  1  0
M  END
>  <Title>  (1041) 
idABMCgen6

$$$$

     RDKit          2D

 25 27  0  0  0  0  0  0  0  0999 V2000
    6.0000   -2.5981    0.0000 C   0  0  0  0  0  0  0  0  0  0  0  0
    5.2500   -1.2990    0.0000 C   0  0  0  0  0  0  0  0  0  0  0  0
    6.0000    0.0000    0.0000 O   0  0  0  0  0  0  0  0  0  0  0  0
    3.7500   -1.2990    0.0000 O   0  0  0  0  0  0  0  0  0  0  0  0
    3.0000    0.0000    0.0000 C   0  0  0  0  0  0  0  0  0  0  0  0
    1.5000    0.0000    0.0000 C   0  0  0  0  0  0  0  0  0  0  0  0
    0.7500   -1.2990    0.0000 C   0  0  0  0  0  0  0  0  0  0  0  0
   -0.7500   -1.2990    0.0000 C   0  0  0  0  0  0  0  0  0  0  0  0
   -1.5000    0.0000    0.0000 C   0  0  0  0  0  0  0  0  0  0  0  0
   -3.0000    0.0000    0.0000 N   0  0  0  0  0  0  0  0  0  0  0  0
   -3.8817   -1.2135    0.0000 C   0  0  0  0  0  0  0  0  0  0  0  0
   -5.3083   -0.7500    0.0000 C   0  0  0  0  0  0  0  0  0  0  0  0
   -5.3083    0.7500    0.0000 C   0  0  0  0  0  0  0  0  0  0  0  0
   -6.5218    1.6317    0.0000 C   0  0  0  0  0  0  0  0  0  0  0  0
   -7.8921    1.0216    0.0000 O   0  0  0  0  0  0  0  0  0  0  0  0
   -6.3650    3.1235    0.0000 N   0  0  0  0  0  0  0  0  0  0  0  0
   -7.5785    4.0051    0.0000 C   0  0  0  0  0  0  0  0  0  0  0  0
   -7.4217    5.4969    0.0000 N   0  0  0  0  0  0  0  0  0  0  0  0
   -8.6353    6.3786    0.0000 N   0  0  0  0  0  0  0  0  0  0  0  0
  -10.0056    5.7685    0.0000 N   0  0  0  0  0  0  0  0  0  0  0  0
  -10.1624    4.2767    0.0000 N   0  0  0  0  0  0  0  0  0  0  0  0
   -8.9488    3.3950    0.0000 N   0  0  0  0  0  0  0  0  0  0  0  0
   -3.8817    1.2135    0.0000 C   0  0  0  0  0  0  0  0  0  0  0  0
   -0.7500    1.2990    0.0000 C   0  0  0  0  0  0  0  0  0  0  0  0
    0.7500    1.2990    0.0000 C   0  0  0  0  0  0  0  0  0  0  0  0
  1  2  1  0
  2  3  2  0
  2  4  1  0
  4  5  1  0
  5  6  1  0
  6  7  2  0
  7  8  1  0
  8  9  2  0
  9 10  1  0
 10 11  1  0
 11 12  1  0
 12 13  1  0
 13 14  1  0
 14 15  2  0
 14 16  1  0
 16 17  1  0
 17 18  2  0
 18 19  1  0
 19 20  2  0
 20 21  1  0
 21 22  2  0
 13 23  1  0
  9 24  1  0
 24 25  1  0
 25  6  1  0
 23 10  1  0
 22 17  1  0
M  END
>  <Title>  (1042) 
idABMDgen6

$$$$

     RDKit          2D

 51 56  0  0  0  0  0  0  0  0999 V2000
   -3.7603   -9.4361    0.0000 C   0  0  0  0  0  0  0  0  0  0  0  0
   -2.7498   -8.3276    0.0000 C   0  0  0  0  0  0  0  0  0  0  0  0
   -1.4745   -9.1172    0.0000 C   0  0  0  0  0  0  0  0  0  0  0  0
   -0.0000   -9.3928    0.0000 C   0  0  0  0  0  0  0  0  0  0  0  0
    1.4745   -9.1172    0.0000 C   0  0  0  0  0  0  0  0  0  0  0  0
    2.7498   -8.3276    0.0000 C   0  0  0  0  0  0  0  0  0  0  0  0
    3.6537   -7.1305    0.0000 C   0  0  0  0  0  0  0  0  0  0  0  0
    4.0642   -5.6878    0.0000 C   0  0  0  0  0  0  0  0  0  0  0  0
    3.9258   -4.1942    0.0000 C   0  0  0  0  0  0  0  0  0  0  0  0
    3.2572   -2.8514    0.0000 C   0  0  0  0  0  0  0  0  0  0  0  0
    2.1487   -1.8409    0.0000 C   0  0  0  0  0  0  0  0  0  0  0  0
    0.7500   -1.2990    0.0000 C   0  0  0  0  0  0  0  0  0  0  0  0
    1.5000    0.0000    0.0000 C   0  0  0  0  0  0  0  0  0  0  0  0
    0.7500    1.2990    0.0000 C   0  0  0  0  0  0  0  0  0  0  0  0
   -0.7500    1.2990    0.0000 C   0  0  0  0  0  0  0  0  0  0  0  0
   -1.5000    2.5981    0.0000 O   0  0  0  0  0  0  0  0  0  0  0  0
   -1.5000    0.0000    0.0000 O   0  0  0  0  0  0  0  0  0  0  0  0
   -0.7500   -1.2990    0.0000 C   0  0  0  0  0  0  0  0  0  0  0  0
   -2.1487   -1.8409    0.0000 C   0  0  0  0  0  0  0  0  0  0  0  0
   -3.2572   -2.8514    0.0000 C   0  0  0  0  0  0  0  0  0  0  0  0
   -3.9258   -4.1942    0.0000 C   0  0  0  0  0  0  0  0  0  0  0  0
   -5.3686   -3.7837    0.0000 C   0  0  0  0  0  0  0  0  0  0  0  0
   -6.4454   -4.8279    0.0000 O   0  0  0  0  0  0  0  0  0  0  0  0
   -5.7344   -2.3290    0.0000 O   0  0  0  0  0  0  0  0  0  0  0  0
   -7.1772   -1.9185    0.0000 C   0  0  0  0  0  0  0  0  0  0  0  0
   -8.3573   -2.8444    0.0000 C   0  0  0  0  0  0  0  0  0  0  0  0
   -9.6026   -2.0082    0.0000 C   0  0  0  0  0  0  0  0  0  0  0  0
   -9.1921   -0.5654    0.0000 C   0  0  0  0  0  0  0  0  0  0  0  0
  -10.1180    0.6147    0.0000 N   0  0  0  0  0  0  0  0  0  0  0  0
   -9.5589    2.0066    0.0000 C   0  0  0  0  0  0  0  0  0  0  0  0
   -8.0740    2.2184    0.0000 O   0  0  0  0  0  0  0  0  0  0  0  0
  -10.4849    3.1867    0.0000 C   0  0  0  0  0  0  0  0  0  0  0  0
  -10.3051    4.6759    0.0000 C   0  0  0  0  0  0  0  0  0  0  0  0
  -11.7943    4.8557    0.0000 C   0  0  0  0  0  0  0  0  0  0  0  0
  -11.9740    3.3665    0.0000 C   0  0  0  0  0  0  0  0  0  0  0  0
   -7.6931   -0.5100    0.0000 C   0  0  0  0  0  0  0  0  0  0  0  0
   -6.8569    0.7353    0.0000 O   0  0  0  0  0  0  0  0  0  0  0  0
   -4.0642   -5.6878    0.0000 C   0  0  0  0  0  0  0  0  0  0  0  0
   -5.5189   -5.3219    0.0000 C   0  0  0  0  0  0  0  0  0  0  0  0
   -6.5631   -6.3988    0.0000 C   0  0  0  0  0  0  0  0  0  0  0  0
   -6.1526   -7.8415    0.0000 C   0  0  0  0  0  0  0  0  0  0  0  0
   -7.1968   -8.9184    0.0000 O   0  0  0  0  0  0  0  0  0  0  0  0
   -8.6515   -8.5525    0.0000 C   0  0  0  0  0  0  0  0  0  0  0  0
   -9.6957   -9.6294    0.0000 C   0  0  0  0  0  0  0  0  0  0  0  0
  -11.1504   -9.2635    0.0000 C   0  0  0  0  0  0  0  0  0  0  0  0
  -12.1946  -10.3404    0.0000 C   0  0  0  0  0  0  0  0  0  0  0  0
  -11.7841  -11.7831    0.0000 C   0  0  0  0  0  0  0  0  0  0  0  0
  -10.3294  -12.1490    0.0000 C   0  0  0  0  0  0  0  0  0  0  0  0
   -9.2852  -11.0721    0.0000 C   0  0  0  0  0  0  0  0  0  0  0  0
   -4.6979   -8.2074    0.0000 C   0  0  0  0  0  0  0  0  0  0  0  0
   -3.6537   -7.1305    0.0000 C   0  0  0  0  0  0  0  0  0  0  0  0
  1  2  1  0
  2  3  1  0
  3  4  1  0
  4  5  1  0
  5  6  1  0
  6  7  1  0
  7  8  1  0
  8  9  1  0
  9 10  1  0
 10 11  1  0
 11 12  1  0
 12 13  1  0
 13 14  1  0
 14 15  1  0
 15 16  2  0
 15 17  1  0
 17 18  1  0
 18 19  2  0
 19 20  1  0
 20 21  2  0
 21 22  1  0
 22 23  2  0
 22 24  1  0
 24 25  1  0
 25 26  2  0
 26 27  1  0
 27 28  2  0
 28 29  1  0
 29 30  1  0
 30 31  2  0
 30 32  1  0
 32 33  1  0
 33 34  1  0
 34 35  1  0
 28 36  1  0
 36 37  2  0
 21 38  1  0
 38 39  2  0
 39 40  1  0
 40 41  2  0
 41 42  1  0
 42 43  1  0
 43 44  1  0
 44 45  2  0
 45 46  1  0
 46 47  2  0
 47 48  1  0
 48 49  2  0
 41 50  1  0
 50 51  2  0
 51  2  1  0
 18 12  1  0
 36 25  1  0
 51 38  1  0
 35 32  1  0
 49 44  1  0
M  END
>  <Title>  (1043) 
idABMEgen6

$$$$

     RDKit          2D

 50 55  0  0  0  0  0  0  0  0999 V2000
  -16.5000   -2.5981    0.0000 C   0  0  0  0  0  0  0  0  0  0  0  0
  -15.7500   -3.8971    0.0000 C   0  0  0  0  0  0  0  0  0  0  0  0
  -15.0000   -5.1962    0.0000 C   0  0  0  0  0  0  0  0  0  0  0  0
  -14.2500   -6.4952    0.0000 C   0  0  0  0  0  0  0  0  0  0  0  0
  -15.0000   -7.7942    0.0000 C   0  0  0  0  0  0  0  0  0  0  0  0
  -16.5000   -7.7942    0.0000 C   0  0  0  0  0  0  0  0  0  0  0  0
  -12.7500   -6.4952    0.0000 C   0  0  0  0  0  0  0  0  0  0  0  0
  -12.0000   -5.1962    0.0000 C   0  0  0  0  0  0  0  0  0  0  0  0
  -12.7500   -3.8971    0.0000 C   0  0  0  0  0  0  0  0  0  0  0  0
  -12.0000   -2.5981    0.0000 C   0  0  0  0  0  0  0  0  0  0  0  0
  -10.5000   -2.5981    0.0000 C   0  0  0  0  0  0  0  0  0  0  0  0
   -9.7500   -1.2990    0.0000 C   0  0  0  0  0  0  0  0  0  0  0  0
  -10.5000    0.0000    0.0000 O   0  0  0  0  0  0  0  0  0  0  0  0
   -8.2500   -1.2990    0.0000 N   0  0  0  0  0  0  0  0  0  0  0  0
   -7.5000    0.0000    0.0000 C   0  0  0  0  0  0  0  0  0  0  0  0
   -8.2500    1.2990    0.0000 C   0  0  0  0  0  0  0  0  0  0  0  0
   -7.5000    2.5981    0.0000 C   0  0  0  0  0  0  0  0  0  0  0  0
   -6.0000    2.5981    0.0000 C   0  0  0  0  0  0  0  0  0  0  0  0
   -5.2500    3.8971    0.0000 C   0  0  0  0  0  0  0  0  0  0  0  0
   -4.5000    5.1962    0.0000 N   0  0  0  0  0  0  0  0  0  0  0  0
   -5.2500    1.2990    0.0000 C   0  0  0  0  0  0  0  0  0  0  0  0
   -6.0000    0.0000    0.0000 C   0  0  0  0  0  0  0  0  0  0  0  0
   -5.2500   -1.2990    0.0000 C   0  0  0  0  0  0  0  0  0  0  0  0
   -6.0000   -2.5981    0.0000 C   0  0  0  0  0  0  0  0  0  0  0  0
   -5.2500   -3.8971    0.0000 C   0  0  0  0  0  0  0  0  0  0  0  0
   -3.7500   -3.8971    0.0000 C   0  0  0  0  0  0  0  0  0  0  0  0
   -3.0000   -5.1962    0.0000 C   0  0  0  0  0  0  0  0  0  0  0  0
   -2.2500   -6.4952    0.0000 N   0  0  0  0  0  0  0  0  0  0  0  0
   -3.0000   -2.5981    0.0000 C   0  0  0  0  0  0  0  0  0  0  0  0
   -3.7500   -1.2990    0.0000 C   0  0  0  0  0  0  0  0  0  0  0  0
   -3.0000   -0.0000    0.0000 C   0  0  0  0  0  0  0  0  0  0  0  0
   -3.7500    1.2990    0.0000 C   0  0  0  0  0  0  0  0  0  0  0  0
   -3.0000    2.5981    0.0000 C   0  0  0  0  0  0  0  0  0  0  0  0
   -1.5000    2.5981    0.0000 C   0  0  0  0  0  0  0  0  0  0  0  0
   -0.7500    1.2990    0.0000 C   0  0  0  0  0  0  0  0  0  0  0  0
   -1.5000   -0.0000    0.0000 C   0  0  0  0  0  0  0  0  0  0  0  0
   -0.7500   -1.2990    0.0000 C   0  0  0  0  0  0  0  0  0  0  0  0
   -1.3601   -2.6694    0.0000 C   0  0  0  0  0  0  0  0  0  0  0  0
   -0.2454   -3.6731    0.0000 C   0  0  0  0  0  0  0  0  0  0  0  0
    1.0537   -2.9231    0.0000 C   0  0  0  0  0  0  0  0  0  0  0  0
    2.4240   -3.5332    0.0000 C   0  0  0  0  0  0  0  0  0  0  0  0
    3.6375   -2.6515    0.0000 C   0  0  0  0  0  0  0  0  0  0  0  0
    5.0078   -3.2616    0.0000 C   0  0  0  0  0  0  0  0  0  0  0  0
    5.1646   -4.7534    0.0000 C   0  0  0  0  0  0  0  0  0  0  0  0
    3.9511   -5.6350    0.0000 C   0  0  0  0  0  0  0  0  0  0  0  0
    2.5808   -5.0249    0.0000 C   0  0  0  0  0  0  0  0  0  0  0  0
    0.7418   -1.4558    0.0000 C   0  0  0  0  0  0  0  0  0  0  0  0
    1.7455   -0.3411    0.0000 O   0  0  0  0  0  0  0  0  0  0  0  0
   -9.7500   -3.8971    0.0000 C   0  0  0  0  0  0  0  0  0  0  0  0
  -10.5000   -5.1962    0.0000 C   0  0  0  0  0  0  0  0  0  0  0  0
  1  2  1  0
  2  3  3  0
  3  4  1  0
  4  5  2  3
  5  6  1  0
  4  7  1  0
  7  8  1  0
  8  9  1  0
  9 10  2  0
 10 11  1  0
 11 12  1  0
 12 13  2  0
 12 14  1  0
 14 15  1  0
 15 16  2  0
 16 17  1  0
 17 18  2  0
 18 19  1  0
 19 20  3  0
 18 21  1  0
 21 22  2  0
 22 23  1  0
 23 24  2  0
 24 25  1  0
 25 26  2  0
 26 27  1  0
 27 28  3  0
 26 29  1  0
 29 30  2  0
 30 31  1  0
 31 32  2  0
 32 33  1  0
 33 34  2  0
 34 35  1  0
 35 36  2  0
 36 37  1  0
 37 38  2  0
 38 39  1  0
 39 40  2  0
 40 41  1  0
 41 42  2  0
 42 43  1  0
 43 44  2  0
 44 45  1  0
 45 46  2  0
 40 47  1  0
 47 48  2  0
 11 49  1  0
 49 50  1  0
 50  8  1  0
 22 15  1  0
 30 23  1  0
 36 31  1  0
 47 37  1  0
 46 41  1  0
M  END
>  <Title>  (1044) 
idABMFgen6

$$$$

     RDKit          2D

  9  9  0  0  0  0  0  0  0  0999 V2000
    2.7760    0.0000    0.0000 C   0  0  0  0  0  0  0  0  0  0  0  0
    1.2760    0.0000    0.0000 C   0  0  0  0  0  0  0  0  0  0  0  0
    0.3943    1.2135    0.0000 C   0  0  0  0  0  0  0  0  0  0  0  0
   -1.0323    0.7500    0.0000 C   0  0  0  0  0  0  0  0  0  0  0  0
   -1.0323   -0.7500    0.0000 C   0  0  0  0  0  0  0  0  0  0  0  0
   -2.2458   -1.6317    0.0000 C   0  0  0  0  0  0  0  0  0  0  0  0
   -2.0890   -3.1235    0.0000 O   0  0  0  0  0  0  0  0  0  0  0  0
   -3.6161   -1.0216    0.0000 O   0  0  0  0  0  0  0  0  0  0  0  0
    0.3943   -1.2135    0.0000 C   0  0  0  0  0  0  0  0  0  0  0  0
  1  2  1  0
  2  3  2  0
  3  4  1  0
  4  5  2  0
  5  6  1  0
  6  7  2  0
  6  8  1  0
  5  9  1  0
  9  2  1  0
M  END
>  <Title>  (1045) 
idABMGgen6

$$$$

     RDKit          2D

 18 19  0  0  0  0  0  0  0  0999 V2000
    3.7500   -1.2990    0.0000 C   0  0  0  0  0  0  0  0  0  0  0  0
    3.0000    0.0000    0.0000 N   0  0  0  0  0  0  0  0  0  0  0  0
    1.5000    0.0000    0.0000 C   0  0  0  0  0  0  0  0  0  0  0  0
    0.7500   -1.2990    0.0000 C   0  0  0  0  0  0  0  0  0  0  0  0
   -0.7500   -1.2990    0.0000 C   0  0  0  0  0  0  0  0  0  0  0  0
   -1.5000    0.0000    0.0000 C   0  0  0  0  0  0  0  0  0  0  0  0
   -3.0000    0.0000    0.0000 C   0  0  0  0  0  0  0  0  0  0  0  0
   -3.7500   -1.2990    0.0000 O   0  0  0  0  0  0  0  0  0  0  0  0
   -3.7500    1.2990    0.0000 O   0  0  0  0  0  0  0  0  0  0  0  0
   -5.2500    1.2990    0.0000 C   0  0  0  0  0  0  0  0  0  0  0  0
   -6.0000    2.5981    0.0000 C   0  0  0  0  0  0  0  0  0  0  0  0
   -7.5000    2.5981    0.0000 C   0  0  0  0  0  0  0  0  0  0  0  0
   -8.2500    1.2990    0.0000 C   0  0  0  0  0  0  0  0  0  0  0  0
   -9.7500    1.2990    0.0000 O   0  0  0  0  0  0  0  0  0  0  0  0
   -7.5000    0.0000    0.0000 C   0  0  0  0  0  0  0  0  0  0  0  0
   -6.0000    0.0000    0.0000 C   0  0  0  0  0  0  0  0  0  0  0  0
   -0.7500    1.2990    0.0000 C   0  0  0  0  0  0  0  0  0  0  0  0
    0.7500    1.2990    0.0000 C   0  0  0  0  0  0  0  0  0  0  0  0
  1  2  1  0
  2  3  1  0
  3  4  2  0
  4  5  1  0
  5  6  2  0
  6  7  1  0
  7  8  2  0
  7  9  1  0
  9 10  1  0
 10 11  2  0
 11 12  1  0
 12 13  2  0
 13 14  1  0
 13 15  1  0
 15 16  2  0
  6 17  1  0
 17 18  1  0
 18  3  1  0
 16 10  1  0
M  END
>  <Title>  (1046) 
idABMHgen6

$$$$

     RDKit          2D

 23 25  0  0  0  0  0  0  0  0999 V2000
   11.0259   -8.1749    0.0000 C   0  0  0  0  0  0  0  0  0  0  0  0
    9.5586   -8.4868    0.0000 C   0  0  0  0  0  0  0  0  0  0  0  0
    9.0951   -9.9134    0.0000 O   0  0  0  0  0  0  0  0  0  0  0  0
    8.5549   -7.3721    0.0000 N   0  0  0  0  0  0  0  0  0  0  0  0
    7.0877   -7.6840    0.0000 C   0  0  0  0  0  0  0  0  0  0  0  0
    5.9730   -6.6803    0.0000 C   0  0  0  0  0  0  0  0  0  0  0  0
    4.6740   -7.4303    0.0000 C   0  0  0  0  0  0  0  0  0  0  0  0
    3.3037   -6.8202    0.0000 N   0  0  0  0  0  0  0  0  0  0  0  0
    2.0046   -7.5702    0.0000 C   0  0  0  0  0  0  0  0  0  0  0  0
    0.8899   -6.5665    0.0000 C   0  0  0  0  0  0  0  0  0  0  0  0
    1.5000   -5.1962    0.0000 C   0  0  0  0  0  0  0  0  0  0  0  0
    0.7500   -3.8971    0.0000 C   0  0  0  0  0  0  0  0  0  0  0  0
   -0.7500   -3.8971    0.0000 O   0  0  0  0  0  0  0  0  0  0  0  0
    1.5000   -2.5981    0.0000 N   0  0  0  0  0  0  0  0  0  0  0  0
    0.7500   -1.2990    0.0000 C   0  0  0  0  0  0  0  0  0  0  0  0
    1.5000    0.0000    0.0000 N   0  0  0  0  0  0  0  0  0  0  0  0
    0.7500    1.2990    0.0000 N   0  0  0  0  0  0  0  0  0  0  0  0
   -0.7500    1.2990    0.0000 N   0  0  0  0  0  0  0  0  0  0  0  0
   -1.5000    0.0000    0.0000 N   0  0  0  0  0  0  0  0  0  0  0  0
   -0.7500   -1.2990    0.0000 N   0  0  0  0  0  0  0  0  0  0  0  0
    2.9918   -5.3529    0.0000 C   0  0  0  0  0  0  0  0  0  0  0  0
    4.9858   -8.8975    0.0000 C   0  0  0  0  0  0  0  0  0  0  0  0
    6.4776   -9.0543    0.0000 C   0  0  0  0  0  0  0  0  0  0  0  0
  1  2  1  0
  2  3  2  0
  2  4  1  0
  4  5  1  0
  5  6  2  0
  6  7  1  0
  7  8  1  0
  8  9  1  0
  9 10  1  0
 10 11  1  0
 11 12  1  0
 12 13  2  0
 12 14  1  0
 14 15  1  0
 15 16  2  0
 16 17  1  0
 17 18  2  0
 18 19  1  0
 19 20  2  0
 11 21  1  0
  7 22  1  0
 22 23  1  0
 23  5  1  0
 21  8  1  0
 20 15  1  0
M  END
>  <Title>  (1047) 
idABMIgen6

$$$$

     RDKit          2D

 11 11  0  0  0  0  0  0  0  0999 V2000
    6.0000   -2.5981    0.0000 C   0  0  0  0  0  0  0  0  0  0  0  0
    5.2500   -1.2990    0.0000 C   0  0  0  0  0  0  0  0  0  0  0  0
    3.7500   -1.2990    0.0000 C   0  0  0  0  0  0  0  0  0  0  0  0
    3.0000    0.0000    0.0000 C   0  0  0  0  0  0  0  0  0  0  0  0
    3.7500    1.2990    0.0000 O   0  0  0  0  0  0  0  0  0  0  0  0
    1.5000    0.0000    0.0000 C   0  0  0  0  0  0  0  0  0  0  0  0
    0.7500   -1.2990    0.0000 C   0  0  0  0  0  0  0  0  0  0  0  0
   -0.7500   -1.2990    0.0000 C   0  0  0  0  0  0  0  0  0  0  0  0
   -1.5000    0.0000    0.0000 C   0  0  0  0  0  0  0  0  0  0  0  0
   -0.7500    1.2990    0.0000 C   0  0  0  0  0  0  0  0  0  0  0  0
    0.7500    1.2990    0.0000 C   0  0  0  0  0  0  0  0  0  0  0  0
  1  2  2  0
  2  3  1  0
  3  4  2  3
  4  5  1  0
  4  6  1  0
  6  7  2  0
  7  8  1  0
  8  9  2  0
  9 10  1  0
 10 11  2  0
 11  6  1  0
M  END
>  <Title>  (1048) 
idABMJgen6

$$$$

     RDKit          2D

 24 24  0  0  0  0  0  0  0  0999 V2000
    5.7460    0.0000    0.0000 C   0  0  0  0  0  0  0  0  0  0  0  0
    5.5502   -1.4872    0.0000 C   0  0  0  0  0  0  0  0  0  0  0  0
    4.9762   -2.8730    0.0000 C   0  0  0  0  0  0  0  0  0  0  0  0
    4.0630   -4.0630    0.0000 C   0  0  0  0  0  0  0  0  0  0  0  0
    2.8730   -4.9762    0.0000 C   0  0  0  0  0  0  0  0  0  0  0  0
    1.4872   -5.5502    0.0000 C   0  0  0  0  0  0  0  0  0  0  0  0
   -0.0000   -5.7460    0.0000 C   0  0  0  0  0  0  0  0  0  0  0  0
   -1.4872   -5.5502    0.0000 C   0  0  0  0  0  0  0  0  0  0  0  0
   -2.8730   -4.9762    0.0000 C   0  0  0  0  0  0  0  0  0  0  0  0
   -4.0630   -4.0630    0.0000 C   0  0  0  0  0  0  0  0  0  0  0  0
   -4.9762   -2.8730    0.0000 C   0  0  0  0  0  0  0  0  0  0  0  0
   -5.5502   -1.4872    0.0000 C   0  0  0  0  0  0  0  0  0  0  0  0
   -5.7460    0.0000    0.0000 C   0  0  0  0  0  0  0  0  0  0  0  0
   -5.5502    1.4872    0.0000 C   0  0  0  0  0  0  0  0  0  0  0  0
   -4.9762    2.8730    0.0000 C   0  0  0  0  0  0  0  0  0  0  0  0
   -4.0630    4.0630    0.0000 C   0  0  0  0  0  0  0  0  0  0  0  0
   -2.8730    4.9762    0.0000 C   0  0  0  0  0  0  0  0  0  0  0  0
   -1.4872    5.5502    0.0000 C   0  0  0  0  0  0  0  0  0  0  0  0
    0.0000    5.7460    0.0000 C   0  0  0  0  0  0  0  0  0  0  0  0
    1.4872    5.5502    0.0000 C   0  0  0  0  0  0  0  0  0  0  0  0
    2.8730    4.9762    0.0000 C   0  0  0  0  0  0  0  0  0  0  0  0
    4.0630    4.0630    0.0000 C   0  0  0  0  0  0  0  0  0  0  0  0
    4.9762    2.8730    0.0000 C   0  0  0  0  0  0  0  0  0  0  0  0
    5.5502    1.4872    0.0000 C   0  0  0  0  0  0  0  0  0  0  0  0
  1  2  1  0
  2  3  1  0
  3  4  1  0
  4  5  1  0
  5  6  1  0
  6  7  1  0
  7  8  1  0
  8  9  1  0
  9 10  1  0
 10 11  1  0
 11 12  1  0
 12 13  1  0
 13 14  1  0
 14 15  1  0
 15 16  1  0
 16 17  1  0
 17 18  1  0
 18 19  1  0
 19 20  1  0
 20 21  1  0
 21 22  1  0
 22 23  1  0
 23 24  1  0
 24  1  1  0
M  END
>  <Title>  (1049) 
idABMKgen6

$$$$

     RDKit          2D

 14 14  0  0  0  0  0  0  0  0999 V2000
    5.7760    2.5981    0.0000 C   0  0  0  0  0  0  0  0  0  0  0  0
    5.0260    1.2990    0.0000 C   0  0  0  0  0  0  0  0  0  0  0  0
    3.5260    1.2990    0.0000 C   0  0  0  0  0  0  0  0  0  0  0  0
    2.7760    0.0000    0.0000 C   0  0  0  0  0  0  0  0  0  0  0  0
    3.5260   -1.2990    0.0000 O   0  0  0  0  0  0  0  0  0  0  0  0
    1.2760    0.0000    0.0000 N   0  0  0  0  0  0  0  0  0  0  0  0
    0.3943    1.2135    0.0000 C   0  0  0  0  0  0  0  0  0  0  0  0
   -1.0323    0.7500    0.0000 C   0  0  0  0  0  0  0  0  0  0  0  0
   -1.0323   -0.7500    0.0000 C   0  0  0  0  0  0  0  0  0  0  0  0
   -2.2458   -1.6317    0.0000 C   0  0  0  0  0  0  0  0  0  0  0  0
   -2.0890   -3.1235    0.0000 O   0  0  0  0  0  0  0  0  0  0  0  0
   -3.6161   -1.0216    0.0000 O   0  0  0  0  0  0  0  0  0  0  0  0
    0.3943   -1.2135    0.0000 C   0  0  0  0  0  0  0  0  0  0  0  0
    0.8578   -2.6401    0.0000 O   0  0  0  0  0  0  0  0  0  0  0  0
  1  2  1  0
  2  3  2  3
  3  4  1  0
  4  5  2  0
  4  6  1  0
  6  7  1  0
  7  8  1  0
  8  9  1  0
  9 10  1  0
 10 11  2  0
 10 12  1  0
  9 13  1  0
 13 14  2  0
 13  6  1  0
M  END
>  <Title>  (1050) 
idABMLgen6

$$$$

     RDKit          2D

 18 19  0  0  0  0  0  0  0  0999 V2000
    3.2286   -0.0000    0.0000 C   0  0  0  0  0  0  0  0  0  0  0  0
    1.7286    0.0000    0.0000 C   0  0  0  0  0  0  0  0  0  0  0  0
    1.0777    1.3515    0.0000 C   0  0  0  0  0  0  0  0  0  0  0  0
   -0.3846    1.6852    0.0000 C   0  0  0  0  0  0  0  0  0  0  0  0
   -1.5574    0.7500    0.0000 C   0  0  0  0  0  0  0  0  0  0  0  0
   -1.5574   -0.7500    0.0000 C   0  0  0  0  0  0  0  0  0  0  0  0
   -0.3846   -1.6852    0.0000 C   0  0  0  0  0  0  0  0  0  0  0  0
   -0.7184   -3.1476    0.0000 C   0  0  0  0  0  0  0  0  0  0  0  0
    0.3812   -4.1679    0.0000 O   0  0  0  0  0  0  0  0  0  0  0  0
   -2.1518   -3.5898    0.0000 N   0  0  0  0  0  0  0  0  0  0  0  0
   -2.4856   -5.0522    0.0000 C   0  0  0  0  0  0  0  0  0  0  0  0
   -3.9189   -5.4943    0.0000 N   0  0  0  0  0  0  0  0  0  0  0  0
   -4.2527   -6.9567    0.0000 N   0  0  0  0  0  0  0  0  0  0  0  0
   -3.1531   -7.9769    0.0000 N   0  0  0  0  0  0  0  0  0  0  0  0
   -1.7198   -7.5348    0.0000 N   0  0  0  0  0  0  0  0  0  0  0  0
   -1.3860   -6.0724    0.0000 N   0  0  0  0  0  0  0  0  0  0  0  0
    1.0777   -1.3515    0.0000 C   0  0  0  0  0  0  0  0  0  0  0  0
    2.0130   -2.5242    0.0000 O   0  0  0  0  0  0  0  0  0  0  0  0
  1  2  1  0
  2  3  1  0
  3  4  2  0
  4  5  1  0
  5  6  1  0
  6  7  1  0
  7  8  1  0
  8  9  2  0
  8 10  1  0
 10 11  1  0
 11 12  2  0
 12 13  1  0
 13 14  2  0
 14 15  1  0
 15 16  2  0
  7 17  1  0
 17 18  2  0
 17  2  1  0
 16 11  1  0
M  END
>  <Title>  (1051) 
idABMMgen6

$$$$

     RDKit          2D

 13 14  0  0  0  0  0  0  0  0999 V2000
    5.7760   -2.5981    0.0000 C   0  0  0  0  0  0  0  0  0  0  0  0
    5.0260   -1.2990    0.0000 C   0  0  0  0  0  0  0  0  0  0  0  0
    3.5260   -1.2990    0.0000 C   0  0  0  0  0  0  0  0  0  0  0  0
    2.7760    0.0000    0.0000 C   0  0  0  0  0  0  0  0  0  0  0  0
    3.5260    1.2990    0.0000 O   0  0  0  0  0  0  0  0  0  0  0  0
    1.2760    0.0000    0.0000 N   0  0  0  0  0  0  0  0  0  0  0  0
    0.3943    1.2135    0.0000 C   0  0  0  0  0  0  0  0  0  0  0  0
   -1.0323    0.7500    0.0000 C   0  0  0  0  0  0  0  0  0  0  0  0
   -1.0323   -0.7500    0.0000 N   0  0  0  0  0  0  0  0  0  0  0  0
   -2.2458   -1.6317    0.0000 C   0  0  0  0  0  0  0  0  0  0  0  0
   -2.8559   -3.0020    0.0000 C   0  0  0  0  0  0  0  0  0  0  0  0
   -3.7376   -1.7885    0.0000 C   0  0  0  0  0  0  0  0  0  0  0  0
    0.3943   -1.2135    0.0000 C   0  0  0  0  0  0  0  0  0  0  0  0
  1  2  1  0
  2  3  2  3
  3  4  1  0
  4  5  2  0
  4  6  1  0
  6  7  1  0
  7  8  1  0
  8  9  1  0
  9 10  1  0
 10 11  1  0
 11 12  1  0
  9 13  1  0
 13  6  1  0
 12 10  1  0
M  END
>  <Title>  (1052) 
idABMNgen6

$$$$

     RDKit          2D

 29 31  0  0  0  0  0  0  0  0999 V2000
    4.3978    0.0000    0.0000 C   0  0  0  0  0  0  0  0  0  0  0  0
    2.8978    0.0000    0.0000 C   0  0  0  0  0  0  0  0  0  0  0  0
    2.5095   -1.4489    0.0000 C   0  0  0  0  0  0  0  0  0  0  0  0
    1.4489   -2.5095    0.0000 C   0  0  0  0  0  0  0  0  0  0  0  0
   -0.0000   -2.8978    0.0000 C   0  0  0  0  0  0  0  0  0  0  0  0
   -1.4489   -2.5095    0.0000 C   0  0  0  0  0  0  0  0  0  0  0  0
   -2.5095   -1.4489    0.0000 C   0  0  0  0  0  0  0  0  0  0  0  0
   -2.8978    0.0000    0.0000 C   0  0  0  0  0  0  0  0  0  0  0  0
   -2.5095    1.4489    0.0000 C   0  0  0  0  0  0  0  0  0  0  0  0
   -1.4489    2.5095    0.0000 C   0  0  0  0  0  0  0  0  0  0  0  0
    0.0000    2.8978    0.0000 C   0  0  0  0  0  0  0  0  0  0  0  0
    1.4489    2.5095    0.0000 C   0  0  0  0  0  0  0  0  0  0  0  0
    2.1989    3.8086    0.0000 N   0  0  0  0  0  0  0  0  0  0  0  0
    3.6989    3.8086    0.0000 C   0  0  0  0  0  0  0  0  0  0  0  0
    4.4489    2.5095    0.0000 O   0  0  0  0  0  0  0  0  0  0  0  0
    4.4489    5.1076    0.0000 C   0  0  0  0  0  0  0  0  0  0  0  0
    3.8388    6.4779    0.0000 C   0  0  0  0  0  0  0  0  0  0  0  0
    4.9535    7.4816    0.0000 C   0  0  0  0  0  0  0  0  0  0  0  0
    6.2525    6.7316    0.0000 N   0  0  0  0  0  0  0  0  0  0  0  0
    7.6229    7.3417    0.0000 C   0  0  0  0  0  0  0  0  0  0  0  0
    7.7797    8.8335    0.0000 O   0  0  0  0  0  0  0  0  0  0  0  0
    8.8364    6.4601    0.0000 C   0  0  0  0  0  0  0  0  0  0  0  0
    8.6796    4.9683    0.0000 C   0  0  0  0  0  0  0  0  0  0  0  0
    9.8931    4.0866    0.0000 C   0  0  0  0  0  0  0  0  0  0  0  0
   11.2634    4.6967    0.0000 C   0  0  0  0  0  0  0  0  0  0  0  0
   11.4202    6.1885    0.0000 C   0  0  0  0  0  0  0  0  0  0  0  0
   10.2067    7.0702    0.0000 C   0  0  0  0  0  0  0  0  0  0  0  0
    5.9407    5.2644    0.0000 C   0  0  0  0  0  0  0  0  0  0  0  0
    2.5095    1.4489    0.0000 C   0  0  0  0  0  0  0  0  0  0  0  0
  1  2  1  0
  2  3  1  0
  3  4  1  0
  4  5  1  0
  5  6  1  0
  6  7  1  0
  7  8  1  0
  8  9  1  0
  9 10  2  0
 10 11  1  0
 11 12  1  0
 12 13  1  0
 13 14  1  0
 14 15  2  0
 14 16  1  0
 16 17  1  0
 17 18  1  0
 18 19  1  0
 19 20  1  0
 20 21  2  0
 20 22  1  0
 22 23  2  0
 23 24  1  0
 24 25  2  0
 25 26  1  0
 26 27  2  0
 19 28  1  0
 12 29  1  0
 29  2  1  0
 28 16  1  0
 27 22  1  0
M  END
>  <Title>  (1053) 
idABMOgen6

$$$$

     RDKit          2D

  8  8  0  0  0  0  0  0  0  0999 V2000
    3.7500   -1.2990    0.0000 C   0  0  0  0  0  0  0  0  0  0  0  0
    3.0000    0.0000    0.0000 O   0  0  0  0  0  0  0  0  0  0  0  0
    1.5000    0.0000    0.0000 C   0  0  0  0  0  0  0  0  0  0  0  0
    0.7500   -1.2990    0.0000 C   0  0  0  0  0  0  0  0  0  0  0  0
   -0.7500   -1.2990    0.0000 C   0  0  0  0  0  0  0  0  0  0  0  0
   -1.5000    0.0000    0.0000 C   0  0  0  0  0  0  0  0  0  0  0  0
   -0.7500    1.2990    0.0000 C   0  0  0  0  0  0  0  0  0  0  0  0
    0.7500    1.2990    0.0000 C   0  0  0  0  0  0  0  0  0  0  0  0
  1  2  1  0
  2  3  1  0
  3  4  1  0
  4  5  1  0
  5  6  1  0
  6  7  1  0
  7  8  1  0
  8  3  1  0
M  END
>  <Title>  (1054) 
idABMPgen6

$$$$

     RDKit          2D

 46 50  0  0  0  0  0  0  0  0999 V2000
    6.4598   -2.5981    0.0000 C   0  0  0  0  0  0  0  0  0  0  0  0
    5.7098   -1.2990    0.0000 C   0  0  0  0  0  0  0  0  0  0  0  0
    6.4598    0.0000    0.0000 O   0  0  0  0  0  0  0  0  0  0  0  0
    4.2098   -1.2990    0.0000 C   0  0  0  0  0  0  0  0  0  0  0  0
    3.4598   -0.0000    0.0000 C   0  0  0  0  0  0  0  0  0  0  0  0
    1.9598    0.0000    0.0000 C   0  0  0  0  0  0  0  0  0  0  0  0
    1.3858   -1.3858    0.0000 C   0  0  0  0  0  0  0  0  0  0  0  0
   -0.0000   -1.9598    0.0000 C   0  0  0  0  0  0  0  0  0  0  0  0
   -1.3858   -1.3858    0.0000 C   0  0  0  0  0  0  0  0  0  0  0  0
   -2.4465   -2.4465    0.0000 C   0  0  0  0  0  0  0  0  0  0  0  0
   -2.0583   -3.8954    0.0000 O   0  0  0  0  0  0  0  0  0  0  0  0
   -3.8954   -2.0583    0.0000 O   0  0  0  0  0  0  0  0  0  0  0  0
   -4.9560   -3.1189    0.0000 C   0  0  0  0  0  0  0  0  0  0  0  0
   -6.4049   -2.7307    0.0000 C   0  0  0  0  0  0  0  0  0  0  0  0
   -7.4656   -3.7913    0.0000 C   0  0  0  0  0  0  0  0  0  0  0  0
   -7.0773   -5.2402    0.0000 C   0  0  0  0  0  0  0  0  0  0  0  0
   -5.6285   -5.6285    0.0000 C   0  0  0  0  0  0  0  0  0  0  0  0
   -4.5678   -4.5678    0.0000 C   0  0  0  0  0  0  0  0  0  0  0  0
   -1.9598    0.0000    0.0000 C   0  0  0  0  0  0  0  0  0  0  0  0
   -1.3858    1.3858    0.0000 C   0  0  0  0  0  0  0  0  0  0  0  0
   -2.4465    2.4465    0.0000 C   0  0  0  0  0  0  0  0  0  0  0  0
   -2.0583    3.8954    0.0000 C   0  0  0  0  0  0  0  0  0  0  0  0
   -3.1189    4.9560    0.0000 C   0  0  0  0  0  0  0  0  0  0  0  0
   -4.5678    4.5678    0.0000 C   0  0  0  0  0  0  0  0  0  0  0  0
   -5.6285    5.6285    0.0000 C   0  0  0  0  0  0  0  0  0  0  0  0
   -5.2402    7.0773    0.0000 C   0  0  0  0  0  0  0  0  0  0  0  0
   -6.3009    8.1380    0.0000 C   0  0  0  0  0  0  0  0  0  0  0  0
   -7.7498    7.7498    0.0000 C   0  0  0  0  0  0  0  0  0  0  0  0
   -8.8104    8.8104    0.0000 N   0  0  0  0  0  0  0  0  0  0  0  0
   -8.4222   10.2593    0.0000 C   0  0  0  0  0  0  0  0  0  0  0  0
   -6.9733   10.6476    0.0000 O   0  0  0  0  0  0  0  0  0  0  0  0
   -9.4829   11.3200    0.0000 C   0  0  0  0  0  0  0  0  0  0  0  0
   -9.0946   12.7689    0.0000 C   0  0  0  0  0  0  0  0  0  0  0  0
  -10.1553   13.8295    0.0000 C   0  0  0  0  0  0  0  0  0  0  0  0
  -11.6042   13.4413    0.0000 C   0  0  0  0  0  0  0  0  0  0  0  0
  -11.9924   11.9924    0.0000 C   0  0  0  0  0  0  0  0  0  0  0  0
  -10.9318   10.9318    0.0000 C   0  0  0  0  0  0  0  0  0  0  0  0
   -8.1380    6.3009    0.0000 C   0  0  0  0  0  0  0  0  0  0  0  0
   -7.0773    5.2402    0.0000 C   0  0  0  0  0  0  0  0  0  0  0  0
   -4.9560    3.1189    0.0000 C   0  0  0  0  0  0  0  0  0  0  0  0
   -3.8954    2.0583    0.0000 C   0  0  0  0  0  0  0  0  0  0  0  0
    0.0000    1.9598    0.0000 C   0  0  0  0  0  0  0  0  0  0  0  0
    1.3858    1.3858    0.0000 C   0  0  0  0  0  0  0  0  0  0  0  0
    3.4598   -2.5981    0.0000 C   0  0  0  0  0  0  0  0  0  0  0  0
    1.9598   -2.5981    0.0000 O   0  0  0  0  0  0  0  0  0  0  0  0
    4.2098   -3.8971    0.0000 O   0  0  0  0  0  0  0  0  0  0  0  0
  1  2  1  0
  2  3  2  0
  2  4  1  0
  4  5  1  0
  5  6  1  0
  6  7  1  0
  7  8  1  0
  8  9  1  0
  9 10  1  0
 10 11  2  0
 10 12  1  0
 12 13  1  0
 13 14  2  0
 14 15  1  0
 15 16  2  0
 16 17  1  0
 17 18  2  0
  9 19  1  0
 19 20  1  0
 20 21  1  0
 21 22  1  0
 22 23  1  0
 23 24  1  0
 24 25  1  0
 25 26  2  0
 26 27  1  0
 27 28  2  0
 28 29  1  0
 29 30  1  0
 30 31  2  0
 30 32  1  0
 32 33  2  0
 33 34  1  0
 34 35  2  0
 35 36  1  0
 36 37  2  0
 28 38  1  0
 38 39  2  0
 24 40  1  0
 40 41  1  0
 20 42  1  0
 42 43  1  0
  4 44  1  0
 44 45  2  0
 44 46  1  0
 43  6  1  0
 18 13  1  0
 41 21  1  0
 39 25  1  0
 37 32  1  0
M  END
>  <Title>  (1055) 
idABMQgen6

$$$$

     RDKit          2D

 26 28  0  0  0  0  0  0  0  0999 V2000
    5.2500   -1.2990    0.0000 C   0  0  0  0  0  0  0  0  0  0  0  0
    3.7500   -1.2990    0.0000 C   0  0  0  0  0  0  0  0  0  0  0  0
    3.0000   -2.5981    0.0000 O   0  0  0  0  0  0  0  0  0  0  0  0
    3.0000    0.0000    0.0000 O   0  0  0  0  0  0  0  0  0  0  0  0
    1.5000    0.0000    0.0000 C   0  0  0  0  0  0  0  0  0  0  0  0
    0.7500   -1.2990    0.0000 C   0  0  0  0  0  0  0  0  0  0  0  0
   -0.7500   -1.2990    0.0000 C   0  0  0  0  0  0  0  0  0  0  0  0
   -1.5000    0.0000    0.0000 C   0  0  0  0  0  0  0  0  0  0  0  0
   -3.0000    0.0000    0.0000 O   0  0  0  0  0  0  0  0  0  0  0  0
   -3.7500    1.2990    0.0000 C   0  0  0  0  0  0  0  0  0  0  0  0
   -5.2500    1.2990    0.0000 C   0  0  0  0  0  0  0  0  0  0  0  0
   -6.1317    0.0855    0.0000 C   0  0  0  0  0  0  0  0  0  0  0  0
   -7.5583    0.5490    0.0000 C   0  0  0  0  0  0  0  0  0  0  0  0
   -7.5583    2.0490    0.0000 C   0  0  0  0  0  0  0  0  0  0  0  0
   -8.7718    2.9307    0.0000 C   0  0  0  0  0  0  0  0  0  0  0  0
  -10.1421    2.3206    0.0000 O   0  0  0  0  0  0  0  0  0  0  0  0
   -8.6150    4.4225    0.0000 N   0  0  0  0  0  0  0  0  0  0  0  0
   -9.8285    5.3042    0.0000 C   0  0  0  0  0  0  0  0  0  0  0  0
   -9.6717    6.7960    0.0000 N   0  0  0  0  0  0  0  0  0  0  0  0
  -10.8853    7.6776    0.0000 N   0  0  0  0  0  0  0  0  0  0  0  0
  -12.2556    7.0675    0.0000 N   0  0  0  0  0  0  0  0  0  0  0  0
  -12.4124    5.5757    0.0000 N   0  0  0  0  0  0  0  0  0  0  0  0
  -11.1988    4.6941    0.0000 N   0  0  0  0  0  0  0  0  0  0  0  0
   -6.1317    2.5126    0.0000 C   0  0  0  0  0  0  0  0  0  0  0  0
   -0.7500    1.2990    0.0000 C   0  0  0  0  0  0  0  0  0  0  0  0
    0.7500    1.2990    0.0000 C   0  0  0  0  0  0  0  0  0  0  0  0
  1  2  1  0
  2  3  2  0
  2  4  1  0
  4  5  1  0
  5  6  2  0
  6  7  1  0
  7  8  2  0
  8  9  1  0
  9 10  1  0
 10 11  1  0
 11 12  1  0
 12 13  1  0
 13 14  1  0
 14 15  1  0
 15 16  2  0
 15 17  1  0
 17 18  1  0
 18 19  2  0
 19 20  1  0
 20 21  2  0
 21 22  1  0
 22 23  2  0
 14 24  1  0
  8 25  1  0
 25 26  1  0
 26  5  1  0
 24 11  1  0
 23 18  1  0
M  END
>  <Title>  (1056) 
idABMRgen6

$$$$

     RDKit          2D

 25 28  0  0  0  0  0  0  0  0999 V2000
    5.8875   -3.9505    0.0000 O   0  0  0  0  0  0  0  0  0  0  0  0
    4.6740   -4.8322    0.0000 C   0  0  0  0  0  0  0  0  0  0  0  0
    4.8308   -6.3240    0.0000 N   0  0  0  0  0  0  0  0  0  0  0  0
    6.2011   -6.9341    0.0000 C   0  0  0  0  0  0  0  0  0  0  0  0
    7.5001   -6.1841    0.0000 N   0  0  0  0  0  0  0  0  0  0  0  0
    8.6148   -7.1878    0.0000 N   0  0  0  0  0  0  0  0  0  0  0  0
    8.0047   -8.5581    0.0000 N   0  0  0  0  0  0  0  0  0  0  0  0
    6.5129   -8.4013    0.0000 N   0  0  0  0  0  0  0  0  0  0  0  0
    5.5093   -9.5160    0.0000 N   0  0  0  0  0  0  0  0  0  0  0  0
    5.8211  -10.9832    0.0000 C   0  0  0  0  0  0  0  0  0  0  0  0
    4.5221  -11.7332    0.0000 C   0  0  0  0  0  0  0  0  0  0  0  0
    3.4074  -10.7295    0.0000 C   0  0  0  0  0  0  0  0  0  0  0  0
    4.0175   -9.3592    0.0000 C   0  0  0  0  0  0  0  0  0  0  0  0
    3.2675   -8.0602    0.0000 O   0  0  0  0  0  0  0  0  0  0  0  0
    3.3037   -4.2221    0.0000 N   0  0  0  0  0  0  0  0  0  0  0  0
    2.0046   -4.9721    0.0000 C   0  0  0  0  0  0  0  0  0  0  0  0
    0.8899   -3.9684    0.0000 C   0  0  0  0  0  0  0  0  0  0  0  0
    1.5000   -2.5981    0.0000 C   0  0  0  0  0  0  0  0  0  0  0  0
    0.7500   -1.2990    0.0000 C   0  0  0  0  0  0  0  0  0  0  0  0
    1.5000    0.0000    0.0000 C   0  0  0  0  0  0  0  0  0  0  0  0
    0.7500    1.2990    0.0000 C   0  0  0  0  0  0  0  0  0  0  0  0
   -0.7500    1.2990    0.0000 C   0  0  0  0  0  0  0  0  0  0  0  0
   -1.5000    0.0000    0.0000 C   0  0  0  0  0  0  0  0  0  0  0  0
   -0.7500   -1.2990    0.0000 C   0  0  0  0  0  0  0  0  0  0  0  0
    2.9918   -2.7549    0.0000 C   0  0  0  0  0  0  0  0  0  0  0  0
  1  2  2  0
  2  3  1  0
  3  4  1  0
  4  5  2  0
  5  6  1  0
  6  7  2  0
  7  8  1  0
  8  9  1  0
  9 10  1  0
 10 11  1  0
 11 12  1  0
 12 13  1  0
 13 14  2  0
  2 15  1  0
 15 16  1  0
 16 17  1  0
 17 18  1  0
 18 19  1  0
 19 20  2  0
 20 21  1  0
 21 22  2  0
 22 23  1  0
 23 24  2  0
 18 25  1  0
  8  4  1  0
 13  9  1  0
 25 15  1  0
 24 19  1  0
M  END
>  <Title>  (1057) 
idABMSgen6

$$$$

     RDKit          2D

 14 15  0  0  0  0  0  0  0  0999 V2000
    3.7500   -1.2990    0.0000 C   0  0  0  0  0  0  0  0  0  0  0  0
    3.0000    0.0000    0.0000 O   0  0  0  0  0  0  0  0  0  0  0  0
    1.5000    0.0000    0.0000 C   0  0  0  0  0  0  0  0  0  0  0  0
    0.7500   -1.2990    0.0000 C   0  0  0  0  0  0  0  0  0  0  0  0
   -0.7500   -1.2990    0.0000 C   0  0  0  0  0  0  0  0  0  0  0  0
   -1.5000    0.0000    0.0000 C   0  0  0  0  0  0  0  0  0  0  0  0
   -0.7500    1.2990    0.0000 C   0  0  0  0  0  0  0  0  0  0  0  0
   -1.5000    2.5981    0.0000 C   0  0  0  0  0  0  0  0  0  0  0  0
   -0.7500    3.8971    0.0000 C   0  0  0  0  0  0  0  0  0  0  0  0
   -1.5000    5.1962    0.0000 C   0  0  0  0  0  0  0  0  0  0  0  0
   -3.0000    5.1962    0.0000 C   0  0  0  0  0  0  0  0  0  0  0  0
   -3.7500    3.8971    0.0000 C   0  0  0  0  0  0  0  0  0  0  0  0
   -3.0000    2.5981    0.0000 C   0  0  0  0  0  0  0  0  0  0  0  0
    0.7500    1.2990    0.0000 C   0  0  0  0  0  0  0  0  0  0  0  0
  1  2  1  0
  2  3  1  0
  3  4  2  0
  4  5  1  0
  5  6  2  0
  6  7  1  0
  7  8  1  0
  8  9  2  0
  9 10  1  0
 10 11  2  0
 11 12  1  0
 12 13  2  0
  7 14  1  0
 14  3  1  0
 13  8  1  0
M  END
>  <Title>  (1058) 
idABMTgen6

$$$$

     RDKit          2D

 52 56  0  0  0  0  0  0  0  0999 V2000
    3.4598   -0.0000    0.0000 C   0  0  0  0  0  0  0  0  0  0  0  0
    1.9598    0.0000    0.0000 C   0  0  0  0  0  0  0  0  0  0  0  0
    1.3858   -1.3858    0.0000 C   0  0  0  0  0  0  0  0  0  0  0  0
   -0.0000   -1.9598    0.0000 C   0  0  0  0  0  0  0  0  0  0  0  0
   -0.0000   -3.4598    0.0000 C   0  0  0  0  0  0  0  0  0  0  0  0
   -1.2990   -4.2098    0.0000 C   0  0  0  0  0  0  0  0  0  0  0  0
   -2.5981   -4.9598    0.0000 N   0  0  0  0  0  0  0  0  0  0  0  0
   -1.3858   -1.3858    0.0000 C   0  0  0  0  0  0  0  0  0  0  0  0
   -1.9598    0.0000    0.0000 C   0  0  0  0  0  0  0  0  0  0  0  0
   -1.3858    1.3858    0.0000 C   0  0  0  0  0  0  0  0  0  0  0  0
   -2.4465    2.4465    0.0000 C   0  0  0  0  0  0  0  0  0  0  0  0
   -3.8954    2.0583    0.0000 C   0  0  0  0  0  0  0  0  0  0  0  0
   -4.9560    3.1189    0.0000 N   0  0  0  0  0  0  0  0  0  0  0  0
   -6.4049    2.7307    0.0000 C   0  0  0  0  0  0  0  0  0  0  0  0
   -4.5678    4.5678    0.0000 C   0  0  0  0  0  0  0  0  0  0  0  0
   -3.1189    4.9560    0.0000 O   0  0  0  0  0  0  0  0  0  0  0  0
   -5.6285    5.6285    0.0000 C   0  0  0  0  0  0  0  0  0  0  0  0
   -5.0544    7.0143    0.0000 C   0  0  0  0  0  0  0  0  0  0  0  0
   -5.6285    8.4001    0.0000 C   0  0  0  0  0  0  0  0  0  0  0  0
   -4.5678    9.4608    0.0000 O   0  0  0  0  0  0  0  0  0  0  0  0
   -3.1189    9.0725    0.0000 C   0  0  0  0  0  0  0  0  0  0  0  0
   -2.7307    7.6236    0.0000 O   0  0  0  0  0  0  0  0  0  0  0  0
   -2.0583   10.1332    0.0000 C   0  0  0  0  0  0  0  0  0  0  0  0
   -2.2929   11.6147    0.0000 C   0  0  0  0  0  0  0  0  0  0  0  0
   -0.9564   12.2957    0.0000 C   0  0  0  0  0  0  0  0  0  0  0  0
    0.1043   11.2350    0.0000 C   0  0  0  0  0  0  0  0  0  0  0  0
    1.5858   11.4697    0.0000 C   0  0  0  0  0  0  0  0  0  0  0  0
    2.1234   12.8701    0.0000 O   0  0  0  0  0  0  0  0  0  0  0  0
    2.5298   10.3040    0.0000 N   0  0  0  0  0  0  0  0  0  0  0  0
    4.0113   10.5386    0.0000 C   0  0  0  0  0  0  0  0  0  0  0  0
    4.9553    9.3729    0.0000 C   0  0  0  0  0  0  0  0  0  0  0  0
    6.4368    9.6076    0.0000 C   0  0  0  0  0  0  0  0  0  0  0  0
    6.9744   11.0079    0.0000 C   0  0  0  0  0  0  0  0  0  0  0  0
    6.0304   12.1737    0.0000 C   0  0  0  0  0  0  0  0  0  0  0  0
    6.5679   13.5740    0.0000 O   0  0  0  0  0  0  0  0  0  0  0  0
    4.5489   11.9390    0.0000 C   0  0  0  0  0  0  0  0  0  0  0  0
   -0.5767    9.8985    0.0000 C   0  0  0  0  0  0  0  0  0  0  0  0
   -7.0143    8.9741    0.0000 C   0  0  0  0  0  0  0  0  0  0  0  0
   -8.4001    8.4001    0.0000 C   0  0  0  0  0  0  0  0  0  0  0  0
   -8.9741    7.0143    0.0000 N   0  0  0  0  0  0  0  0  0  0  0  0
  -10.4741    7.0143    0.0000 C   0  0  0  0  0  0  0  0  0  0  0  0
  -11.2241    8.3133    0.0000 C   0  0  0  0  0  0  0  0  0  0  0  0
  -10.4741    9.6124    0.0000 C   0  0  0  0  0  0  0  0  0  0  0  0
  -11.2241   10.9114    0.0000 C   0  0  0  0  0  0  0  0  0  0  0  0
  -12.7241   10.9114    0.0000 C   0  0  0  0  0  0  0  0  0  0  0  0
  -13.4741    9.6124    0.0000 C   0  0  0  0  0  0  0  0  0  0  0  0
  -12.7241    8.3133    0.0000 C   0  0  0  0  0  0  0  0  0  0  0  0
   -8.4001    5.6285    0.0000 C   0  0  0  0  0  0  0  0  0  0  0  0
   -7.0143    5.0544    0.0000 C   0  0  0  0  0  0  0  0  0  0  0  0
    0.0000    1.9598    0.0000 C   0  0  0  0  0  0  0  0  0  0  0  0
    0.0000    3.4598    0.0000 C   0  0  0  0  0  0  0  0  0  0  0  0
    1.3858    1.3858    0.0000 C   0  0  0  0  0  0  0  0  0  0  0  0
  1  2  1  0
  2  3  1  0
  3  4  1  0
  4  5  1  0
  5  6  1  0
  6  7  3  0
  4  8  2  0
  8  9  1  0
  9 10  2  0
 10 11  1  0
 11 12  1  0
 12 13  1  0
 13 14  1  0
 13 15  1  0
 15 16  2  0
 15 17  1  0
 17 18  1  0
 18 19  2  0
 19 20  1  0
 20 21  1  0
 21 22  2  0
 21 23  1  0
 23 24  2  0
 24 25  1  0
 25 26  2  0
 26 27  1  0
 27 28  2  0
 27 29  1  0
 29 30  1  0
 30 31  2  0
 31 32  1  0
 32 33  2  0
 33 34  1  0
 34 35  1  0
 34 36  2  0
 26 37  1  0
 19 38  1  0
 38 39  1  0
 39 40  1  0
 40 41  1  0
 41 42  1  0
 42 43  2  0
 43 44  1  0
 44 45  2  0
 45 46  1  0
 46 47  2  0
 40 48  1  0
 48 49  1  0
 10 50  1  0
 50 51  1  0
 50 52  1  0
 52  2  1  0
 49 17  1  0
 37 23  1  0
 47 42  1  0
 36 30  1  0
M  END
>  <Title>  (1059) 
idABMUgen6

$$$$

     RDKit          2D

 36 38  0  0  0  0  0  0  0  0999 V2000
   12.9019   -8.9489    0.0000 C   0  0  0  0  0  0  0  0  0  0  0  0
   11.6028   -8.1989    0.0000 C   0  0  0  0  0  0  0  0  0  0  0  0
   11.6028   -6.6989    0.0000 C   0  0  0  0  0  0  0  0  0  0  0  0
   10.3038   -5.9489    0.0000 C   0  0  0  0  0  0  0  0  0  0  0  0
   10.3038   -4.4489    0.0000 C   0  0  0  0  0  0  0  0  0  0  0  0
   11.6028   -3.6989    0.0000 C   0  0  0  0  0  0  0  0  0  0  0  0
    9.0047   -3.6989    0.0000 C   0  0  0  0  0  0  0  0  0  0  0  0
    9.0047   -2.1989    0.0000 O   0  0  0  0  0  0  0  0  0  0  0  0
    7.7057   -4.4489    0.0000 N   0  0  0  0  0  0  0  0  0  0  0  0
    6.4067   -3.6989    0.0000 C   0  0  0  0  0  0  0  0  0  0  0  0
    6.4067   -2.1989    0.0000 O   0  0  0  0  0  0  0  0  0  0  0  0
    5.1076   -4.4489    0.0000 C   0  0  0  0  0  0  0  0  0  0  0  0
    5.1076   -5.9489    0.0000 C   0  0  0  0  0  0  0  0  0  0  0  0
    6.4067   -6.6989    0.0000 C   0  0  0  0  0  0  0  0  0  0  0  0
    7.7770   -6.0888    0.0000 C   0  0  0  0  0  0  0  0  0  0  0  0
    8.7807   -7.2035    0.0000 C   0  0  0  0  0  0  0  0  0  0  0  0
    8.0307   -8.5025    0.0000 C   0  0  0  0  0  0  0  0  0  0  0  0
    8.1875   -9.9943    0.0000 C   0  0  0  0  0  0  0  0  0  0  0  0
    6.8172  -10.6044    0.0000 C   0  0  0  0  0  0  0  0  0  0  0  0
    5.8135   -9.4897    0.0000 C   0  0  0  0  0  0  0  0  0  0  0  0
    6.5635   -8.1907    0.0000 C   0  0  0  0  0  0  0  0  0  0  0  0
    3.8086   -3.6989    0.0000 N   0  0  0  0  0  0  0  0  0  0  0  0
    3.8086   -2.1989    0.0000 C   0  0  0  0  0  0  0  0  0  0  0  0
    5.1076   -1.4489    0.0000 O   0  0  0  0  0  0  0  0  0  0  0  0
    2.5095   -1.4489    0.0000 C   0  0  0  0  0  0  0  0  0  0  0  0
    2.8978    0.0000    0.0000 C   0  0  0  0  0  0  0  0  0  0  0  0
    2.5095    1.4489    0.0000 C   0  0  0  0  0  0  0  0  0  0  0  0
    1.4489    2.5095    0.0000 C   0  0  0  0  0  0  0  0  0  0  0  0
    0.0000    2.8978    0.0000 C   0  0  0  0  0  0  0  0  0  0  0  0
   -1.4489    2.5095    0.0000 C   0  0  0  0  0  0  0  0  0  0  0  0
   -2.5095    1.4489    0.0000 C   0  0  0  0  0  0  0  0  0  0  0  0
   -2.8978    0.0000    0.0000 C   0  0  0  0  0  0  0  0  0  0  0  0
   -2.5095   -1.4489    0.0000 C   0  0  0  0  0  0  0  0  0  0  0  0
   -1.4489   -2.5095    0.0000 C   0  0  0  0  0  0  0  0  0  0  0  0
   -0.0000   -2.8978    0.0000 C   0  0  0  0  0  0  0  0  0  0  0  0
    1.4489   -2.5095    0.0000 C   0  0  0  0  0  0  0  0  0  0  0  0
  1  2  1  0
  2  3  1  0
  3  4  1  0
  4  5  1  0
  5  6  1  0
  5  7  1  0
  7  8  2  0
  7  9  1  0
  9 10  1  0
 10 11  2  0
 10 12  1  0
 12 13  1  0
 13 14  1  0
 14 15  2  0
 15 16  1  0
 16 17  2  0
 17 18  1  0
 18 19  2  0
 19 20  1  0
 20 21  2  0
 12 22  1  0
 22 23  1  0
 23 24  2  0
 23 25  1  0
 25 26  1  0
 26 27  2  0
 27 28  1  0
 28 29  2  0
 29 30  1  0
 30 31  2  0
 31 32  1  0
 32 33  2  0
 33 34  1  0
 34 35  2  0
 35 36  1  0
 21 14  1  0
 36 25  1  0
 21 17  1  0
M  END
>  <Title>  (1060) 
idABMVgen6

$$$$

     RDKit          2D

  6  5  0  0  0  0  0  0  0  0999 V2000
    0.0000    0.0000    0.0000 C   0  0  0  0  0  0  0  0  0  0  0  0
    1.2990    0.7500    0.0000 C   0  0  0  0  0  0  0  0  0  0  0  0
    1.2990    2.2500    0.0000 O   0  0  0  0  0  0  0  0  0  0  0  0
    2.5981   -0.0000    0.0000 C   0  0  0  0  0  0  0  0  0  0  0  0
    3.8971    0.7500    0.0000 C   0  0  0  0  0  0  0  0  0  0  0  0
    2.5981   -1.5000    0.0000 N   0  0  0  0  0  0  0  0  0  0  0  0
  1  2  1  0
  2  3  2  0
  2  4  1  0
  4  5  1  0
  4  6  1  0
M  END
>  <Title>  (1061) 
idABMWgen6

$$$$

     RDKit          2D

 49 52  0  0  0  0  0  0  0  0999 V2000
   -4.3867   -1.1206    0.0000 C   0  0  0  0  0  0  0  0  0  0  0  0
   -3.5346   -2.3551    0.0000 C   0  0  0  0  0  0  0  0  0  0  0  0
   -4.6574   -3.3498    0.0000 C   0  0  0  0  0  0  0  0  0  0  0  0
   -5.5095   -4.5843    0.0000 C   0  0  0  0  0  0  0  0  0  0  0  0
   -6.0414   -5.9868    0.0000 C   0  0  0  0  0  0  0  0  0  0  0  0
   -6.2222   -7.4758    0.0000 C   0  0  0  0  0  0  0  0  0  0  0  0
   -6.0414   -8.9649    0.0000 C   0  0  0  0  0  0  0  0  0  0  0  0
   -5.5095  -10.3674    0.0000 C   0  0  0  0  0  0  0  0  0  0  0  0
   -4.6574  -11.6019    0.0000 C   0  0  0  0  0  0  0  0  0  0  0  0
   -3.5346  -12.5966    0.0000 C   0  0  0  0  0  0  0  0  0  0  0  0
   -2.2064  -13.2937    0.0000 C   0  0  0  0  0  0  0  0  0  0  0  0
   -0.7500  -13.6526    0.0000 C   0  0  0  0  0  0  0  0  0  0  0  0
    0.7500  -13.6526    0.0000 C   0  0  0  0  0  0  0  0  0  0  0  0
    2.2064  -13.2937    0.0000 C   0  0  0  0  0  0  0  0  0  0  0  0
    3.5346  -12.5966    0.0000 C   0  0  0  0  0  0  0  0  0  0  0  0
    4.6574  -11.6019    0.0000 C   0  0  0  0  0  0  0  0  0  0  0  0
    5.5095  -10.3674    0.0000 C   0  0  0  0  0  0  0  0  0  0  0  0
    6.0414   -8.9649    0.0000 C   0  0  0  0  0  0  0  0  0  0  0  0
    6.2222   -7.4758    0.0000 C   0  0  0  0  0  0  0  0  0  0  0  0
    6.0414   -5.9868    0.0000 C   0  0  0  0  0  0  0  0  0  0  0  0
    5.5095   -4.5843    0.0000 C   0  0  0  0  0  0  0  0  0  0  0  0
    4.6574   -3.3498    0.0000 C   0  0  0  0  0  0  0  0  0  0  0  0
    6.1185   -3.8590    0.0000 C   0  0  0  0  0  0  0  0  0  0  0  0
    7.3619   -4.1156    0.0000 C   0  0  0  0  0  0  0  0  0  0  0  0
    8.4546   -4.7620    0.0000 C   0  0  0  0  0  0  0  0  0  0  0  0
    9.2782   -5.7282    0.0000 C   0  0  0  0  0  0  0  0  0  0  0  0
    9.7435   -6.9094    0.0000 C   0  0  0  0  0  0  0  0  0  0  0  0
    9.8000   -8.1777    0.0000 C   0  0  0  0  0  0  0  0  0  0  0  0
    9.4416   -9.3956    0.0000 C   0  0  0  0  0  0  0  0  0  0  0  0
    8.7071  -10.4312    0.0000 C   0  0  0  0  0  0  0  0  0  0  0  0
    7.6763  -11.1722    0.0000 C   0  0  0  0  0  0  0  0  0  0  0  0
    6.4606  -11.5383    0.0000 C   0  0  0  0  0  0  0  0  0  0  0  0
    6.7397  -13.7206    0.0000 C   0  0  0  0  0  0  0  0  0  0  0  0
    5.5463  -14.6293    0.0000 C   0  0  0  0  0  0  0  0  0  0  0  0
    5.7366  -16.1172    0.0000 C   0  0  0  0  0  0  0  0  0  0  0  0
    7.1202  -16.6963    0.0000 C   0  0  0  0  0  0  0  0  0  0  0  0
    8.3136  -15.7876    0.0000 C   0  0  0  0  0  0  0  0  0  0  0  0
    8.1234  -14.2997    0.0000 C   0  0  0  0  0  0  0  0  0  0  0  0
    5.0256  -12.8750    0.0000 C   0  0  0  0  0  0  0  0  0  0  0  0
    3.5346   -2.3551    0.0000 C   0  0  0  0  0  0  0  0  0  0  0  0
    4.3867   -1.1206    0.0000 O   0  0  0  0  0  0  0  0  0  0  0  0
    2.2064   -1.6580    0.0000 O   0  0  0  0  0  0  0  0  0  0  0  0
    0.7500   -1.2990    0.0000 C   0  0  0  0  0  0  0  0  0  0  0  0
    1.5000    0.0000    0.0000 C   0  0  0  0  0  0  0  0  0  0  0  0
    0.7500    1.2990    0.0000 C   0  0  0  0  0  0  0  0  0  0  0  0
   -0.7500    1.2990    0.0000 C   0  0  0  0  0  0  0  0  0  0  0  0
   -1.5000    0.0000    0.0000 C   0  0  0  0  0  0  0  0  0  0  0  0
   -0.7500   -1.2990    0.0000 C   0  0  0  0  0  0  0  0  0  0  0  0
   -2.2064   -1.6580    0.0000 C   0  0  0  0  0  0  0  0  0  0  0  0
  1  2  1  0
  2  3  1  0
  3  4  1  0
  4  5  1  0
  5  6  1  0
  6  7  1  0
  7  8  1  0
  8  9  1  0
  9 10  1  0
 10 11  1  0
 11 12  1  0
 12 13  2  0
 13 14  1  0
 14 15  1  0
 15 16  1  0
 16 17  1  0
 17 18  1  0
 18 19  1  0
 19 20  2  0
 20 21  1  0
 21 22  2  0
 22 23  1  0
 23 24  2  0
 24 25  1  0
 25 26  2  0
 26 27  1  0
 27 28  2  0
 28 29  1  0
 29 30  2  0
 30 31  1  0
 31 32  2  0
 32 33  1  0
 33 34  2  0
 34 35  1  0
 35 36  2  0
 36 37  1  0
 37 38  2  0
 32 39  1  0
 22 40  1  0
 40 41  2  0
 40 42  1  0
 42 43  1  0
 43 44  2  0
 44 45  1  0
 45 46  2  0
 46 47  1  0
 47 48  2  0
 48 49  1  0
 49  2  1  0
 39 15  1  0
 48 43  1  0
 38 33  1  0
M  END
>  <Title>  (1062) 
idABMXgen6

$$$$

     RDKit          2D

 35 38  0  0  0  0  0  0  0  0999 V2000
   10.1914    4.9247    0.0000 C   0  0  0  0  0  0  0  0  0  0  0  0
    9.1567    6.0107    0.0000 C   0  0  0  0  0  0  0  0  0  0  0  0
    9.5799    7.4498    0.0000 O   0  0  0  0  0  0  0  0  0  0  0  0
    7.6989    5.6576    0.0000 C   0  0  0  0  0  0  0  0  0  0  0  0
    6.6642    6.7436    0.0000 N   0  0  0  0  0  0  0  0  0  0  0  0
    5.2063    6.3906    0.0000 C   0  0  0  0  0  0  0  0  0  0  0  0
    5.2855    4.8927    0.0000 N   0  0  0  0  0  0  0  0  0  0  0  0
    4.8182    3.4673    0.0000 N   0  0  0  0  0  0  0  0  0  0  0  0
    3.8676    2.3070    0.0000 N   0  0  0  0  0  0  0  0  0  0  0  0
    2.5620    1.5685    0.0000 N   0  0  0  0  0  0  0  0  0  0  0  0
    1.0777    1.3515    0.0000 C   0  0  0  0  0  0  0  0  0  0  0  0
    1.7286    0.0000    0.0000 C   0  0  0  0  0  0  0  0  0  0  0  0
    1.0777   -1.3515    0.0000 C   0  0  0  0  0  0  0  0  0  0  0  0
   -0.3846   -1.6852    0.0000 C   0  0  0  0  0  0  0  0  0  0  0  0
   -1.5574   -0.7500    0.0000 C   0  0  0  0  0  0  0  0  0  0  0  0
   -1.5574    0.7500    0.0000 C   0  0  0  0  0  0  0  0  0  0  0  0
   -0.3846    1.6852    0.0000 C   0  0  0  0  0  0  0  0  0  0  0  0
   -1.6277    2.5248    0.0000 C   0  0  0  0  0  0  0  0  0  0  0  0
   -2.4836    3.7566    0.0000 C   0  0  0  0  0  0  0  0  0  0  0  0
   -2.8366    5.2145    0.0000 C   0  0  0  0  0  0  0  0  0  0  0  0
   -2.6392    6.7014    0.0000 C   0  0  0  0  0  0  0  0  0  0  0  0
   -1.9179    8.0167    0.0000 C   0  0  0  0  0  0  0  0  0  0  0  0
   -0.7703    8.9825    0.0000 C   0  0  0  0  0  0  0  0  0  0  0  0
    0.6488    9.4686    0.0000 C   0  0  0  0  0  0  0  0  0  0  0  0
    0.2421   10.9124    0.0000 C   0  0  0  0  0  0  0  0  0  0  0  0
    1.4896   11.7454    0.0000 N   0  0  0  0  0  0  0  0  0  0  0  0
    2.6672   10.8163    0.0000 N   0  0  0  0  0  0  0  0  0  0  0  0
    2.1476    9.4092    0.0000 C   0  0  0  0  0  0  0  0  0  0  0  0
    3.5237    8.8124    0.0000 C   0  0  0  0  0  0  0  0  0  0  0  0
    3.9024   10.2638    0.0000 C   0  0  0  0  0  0  0  0  0  0  0  0
    5.3487   10.6616    0.0000 C   0  0  0  0  0  0  0  0  0  0  0  0
    6.4163    9.6080    0.0000 C   0  0  0  0  0  0  0  0  0  0  0  0
    7.8626   10.0057    0.0000 O   0  0  0  0  0  0  0  0  0  0  0  0
    6.0377    8.1565    0.0000 C   0  0  0  0  0  0  0  0  0  0  0  0
    4.5914    7.7588    0.0000 C   0  0  0  0  0  0  0  0  0  0  0  0
  1  2  1  0
  2  3  2  0
  2  4  1  0
  4  5  1  0
  5  6  1  0
  6  7  2  0
  7  8  1  0
  8  9  2  0
  9 10  1  0
 10 11  2  0
 11 12  1  0
 12 13  2  0
 13 14  1  0
 14 15  2  0
 15 16  1  0
 16 17  2  0
 17 18  1  0
 18 19  1  0
 19 20  2  0
 20 21  1  0
 21 22  2  0
 22 23  1  0
 23 24  2  0
 24 25  1  0
 25 26  2  0
 26 27  1  0
 27 28  2  0
 28 29  1  0
 29 30  2  0
 30 31  1  0
 31 32  2  0
 32 33  1  0
 32 34  1  0
 34 35  2  0
 35  6  1  0
 17 11  1  0
 28 24  1  0
 35 29  1  0
M  END
>  <Title>  (1063) 
idABMYgen6

$$$$

     RDKit          2D

 30 31  0  0  0  0  0  0  0  0999 V2000
    7.9387   -3.8129    0.0000 C   0  0  0  0  0  0  0  0  0  0  0  0
    8.4706   -2.4104    0.0000 C   0  0  0  0  0  0  0  0  0  0  0  0
    7.5219   -1.2484    0.0000 C   0  0  0  0  0  0  0  0  0  0  0  0
    6.0414   -1.4891    0.0000 C   0  0  0  0  0  0  0  0  0  0  0  0
    6.2222    0.0000    0.0000 C   0  0  0  0  0  0  0  0  0  0  0  0
    6.0414    1.4891    0.0000 C   0  0  0  0  0  0  0  0  0  0  0  0
    5.5095    2.8916    0.0000 C   0  0  0  0  0  0  0  0  0  0  0  0
    4.6574    4.1261    0.0000 C   0  0  0  0  0  0  0  0  0  0  0  0
    3.5346    5.1207    0.0000 C   0  0  0  0  0  0  0  0  0  0  0  0
    2.2064    5.8178    0.0000 C   0  0  0  0  0  0  0  0  0  0  0  0
    0.7500    6.1768    0.0000 C   0  0  0  0  0  0  0  0  0  0  0  0
   -0.7500    6.1768    0.0000 C   0  0  0  0  0  0  0  0  0  0  0  0
   -2.2064    5.8178    0.0000 C   0  0  0  0  0  0  0  0  0  0  0  0
   -3.5346    5.1207    0.0000 C   0  0  0  0  0  0  0  0  0  0  0  0
   -4.6574    4.1261    0.0000 C   0  0  0  0  0  0  0  0  0  0  0  0
   -5.5095    2.8916    0.0000 C   0  0  0  0  0  0  0  0  0  0  0  0
   -6.0414    1.4891    0.0000 C   0  0  0  0  0  0  0  0  0  0  0  0
   -6.2222    0.0000    0.0000 C   0  0  0  0  0  0  0  0  0  0  0  0
   -6.0414   -1.4891    0.0000 C   0  0  0  0  0  0  0  0  0  0  0  0
   -5.5095   -2.8916    0.0000 C   0  0  0  0  0  0  0  0  0  0  0  0
   -4.6574   -4.1261    0.0000 C   0  0  0  0  0  0  0  0  0  0  0  0
   -3.5346   -5.1207    0.0000 C   0  0  0  0  0  0  0  0  0  0  0  0
   -2.2064   -5.8178    0.0000 C   0  0  0  0  0  0  0  0  0  0  0  0
   -0.7500   -6.1768    0.0000 C   0  0  0  0  0  0  0  0  0  0  0  0
    0.7500   -6.1768    0.0000 C   0  0  0  0  0  0  0  0  0  0  0  0
    2.2064   -5.8178    0.0000 C   0  0  0  0  0  0  0  0  0  0  0  0
    3.5346   -5.1207    0.0000 C   0  0  0  0  0  0  0  0  0  0  0  0
    4.6574   -4.1261    0.0000 C   0  0  0  0  0  0  0  0  0  0  0  0
    5.5095   -2.8916    0.0000 C   0  0  0  0  0  0  0  0  0  0  0  0
    6.4581   -4.0535    0.0000 C   0  0  0  0  0  0  0  0  0  0  0  0
  1  2  2  0
  2  3  1  0
  3  4  2  0
  4  5  1  0
  5  6  1  0
  6  7  1  0
  7  8  1  0
  8  9  1  0
  9 10  1  0
 10 11  1  0
 11 12  1  0
 12 13  1  0
 13 14  1  0
 14 15  1  0
 15 16  1  0
 16 17  1  0
 17 18  1  0
 18 19  1  0
 19 20  1  0
 20 21  1  0
 21 22  1  0
 22 23  1  0
 23 24  1  0
 24 25  1  0
 25 26  1  0
 26 27  1  0
 27 28  1  0
 28 29  1  0
 29 30  2  0
 30  1  1  0
 29  4  1  0
M  END
>  <Title>  (1064) 
idABMZgen6

$$$$

     RDKit          2D

 56 62  0  0  0  0  0  0  0  0999 V2000
   -7.3539   -0.0636    0.0000 C   0  0  0  0  0  0  0  0  0  0  0  0
   -5.9681   -0.6376    0.0000 C   0  0  0  0  0  0  0  0  0  0  0  0
   -4.7781    0.2755    0.0000 O   0  0  0  0  0  0  0  0  0  0  0  0
   -5.7723   -2.1248    0.0000 C   0  0  0  0  0  0  0  0  0  0  0  0
   -4.3865   -2.6988    0.0000 C   0  0  0  0  0  0  0  0  0  0  0  0
   -3.1965   -1.7857    0.0000 C   0  0  0  0  0  0  0  0  0  0  0  0
   -1.8107   -2.3597    0.0000 C   0  0  0  0  0  0  0  0  0  0  0  0
   -1.8107   -3.8597    0.0000 C   0  0  0  0  0  0  0  0  0  0  0  0
   -0.7500   -4.9204    0.0000 C   0  0  0  0  0  0  0  0  0  0  0  0
    0.7500   -4.9204    0.0000 C   0  0  0  0  0  0  0  0  0  0  0  0
    1.3240   -6.3062    0.0000 O   0  0  0  0  0  0  0  0  0  0  0  0
    0.4109   -7.4962    0.0000 C   0  0  0  0  0  0  0  0  0  0  0  0
   -1.0763   -7.3004    0.0000 O   0  0  0  0  0  0  0  0  0  0  0  0
    0.9849   -8.8820    0.0000 C   0  0  0  0  0  0  0  0  0  0  0  0
    0.0718  -10.0721    0.0000 C   0  0  0  0  0  0  0  0  0  0  0  0
    0.6458  -11.4579    0.0000 C   0  0  0  0  0  0  0  0  0  0  0  0
    2.1330  -11.6537    0.0000 C   0  0  0  0  0  0  0  0  0  0  0  0
    3.0461  -10.4636    0.0000 C   0  0  0  0  0  0  0  0  0  0  0  0
    2.4721   -9.0778    0.0000 C   0  0  0  0  0  0  0  0  0  0  0  0
    3.3852   -7.8878    0.0000 C   0  0  0  0  0  0  0  0  0  0  0  0
    4.8724   -8.0836    0.0000 C   0  0  0  0  0  0  0  0  0  0  0  0
    5.7855   -6.8935    0.0000 C   0  0  0  0  0  0  0  0  0  0  0  0
    5.2115   -5.5077    0.0000 C   0  0  0  0  0  0  0  0  0  0  0  0
    3.7243   -5.3119    0.0000 C   0  0  0  0  0  0  0  0  0  0  0  0
    2.8112   -6.5020    0.0000 C   0  0  0  0  0  0  0  0  0  0  0  0
    1.8107   -3.8597    0.0000 C   0  0  0  0  0  0  0  0  0  0  0  0
    3.1965   -4.4337    0.0000 O   0  0  0  0  0  0  0  0  0  0  0  0
    1.8107   -2.3597    0.0000 O   0  0  0  0  0  0  0  0  0  0  0  0
    0.7500   -1.2990    0.0000 C   0  0  0  0  0  0  0  0  0  0  0  0
    1.5000    0.0000    0.0000 C   0  0  0  0  0  0  0  0  0  0  0  0
    0.7500    1.2990    0.0000 C   0  0  0  0  0  0  0  0  0  0  0  0
   -0.7500    1.2990    0.0000 C   0  0  0  0  0  0  0  0  0  0  0  0
   -1.5000    0.0000    0.0000 C   0  0  0  0  0  0  0  0  0  0  0  0
   -0.7500   -1.2990    0.0000 C   0  0  0  0  0  0  0  0  0  0  0  0
   -4.1907   -4.1860    0.0000 N   0  0  0  0  0  0  0  0  0  0  0  0
   -5.3808   -5.0991    0.0000 C   0  0  0  0  0  0  0  0  0  0  0  0
   -6.7666   -4.5251    0.0000 O   0  0  0  0  0  0  0  0  0  0  0  0
   -5.1850   -6.5863    0.0000 C   0  0  0  0  0  0  0  0  0  0  0  0
   -3.7991   -7.1603    0.0000 C   0  0  0  0  0  0  0  0  0  0  0  0
   -3.6034   -8.6475    0.0000 C   0  0  0  0  0  0  0  0  0  0  0  0
   -2.2175   -9.2215    0.0000 C   0  0  0  0  0  0  0  0  0  0  0  0
   -2.0217  -10.7087    0.0000 C   0  0  0  0  0  0  0  0  0  0  0  0
   -3.2118  -11.6218    0.0000 C   0  0  0  0  0  0  0  0  0  0  0  0
   -4.5976  -11.0478    0.0000 C   0  0  0  0  0  0  0  0  0  0  0  0
   -4.7934   -9.5606    0.0000 C   0  0  0  0  0  0  0  0  0  0  0  0
   -6.3750   -7.4994    0.0000 N   0  0  0  0  0  0  0  0  0  0  0  0
   -6.3357   -8.9989    0.0000 C   0  0  0  0  0  0  0  0  0  0  0  0
   -7.7497   -9.4996    0.0000 C   0  0  0  0  0  0  0  0  0  0  0  0
   -8.6628   -8.3096    0.0000 C   0  0  0  0  0  0  0  0  0  0  0  0
  -10.1582   -8.1919    0.0000 C   0  0  0  0  0  0  0  0  0  0  0  0
  -10.8040   -6.8380    0.0000 C   0  0  0  0  0  0  0  0  0  0  0  0
   -9.9544   -5.6018    0.0000 C   0  0  0  0  0  0  0  0  0  0  0  0
  -10.6001   -4.2480    0.0000 C   0  0  0  0  0  0  0  0  0  0  0  0
  -11.2459   -2.8941    0.0000 N   0  0  0  0  0  0  0  0  0  0  0  0
   -8.4590   -5.7195    0.0000 C   0  0  0  0  0  0  0  0  0  0  0  0
   -7.8132   -7.0734    0.0000 C   0  0  0  0  0  0  0  0  0  0  0  0
  1  2  1  0
  2  3  2  0
  2  4  1  0
  4  5  1  0
  5  6  1  0
  6  7  1  0
  7  8  2  0
  8  9  1  0
  9 10  2  0
 10 11  1  0
 11 12  1  0
 12 13  2  0
 12 14  1  0
 14 15  2  0
 15 16  1  0
 16 17  2  0
 17 18  1  0
 18 19  2  0
 19 20  1  0
 20 21  2  0
 21 22  1  0
 22 23  2  0
 23 24  1  0
 24 25  2  0
 10 26  1  0
 26 27  2  0
 26 28  1  0
 28 29  1  0
 29 30  2  0
 30 31  1  0
 31 32  2  0
 32 33  1  0
 33 34  2  0
  5 35  1  0
 35 36  1  0
 36 37  2  0
 36 38  1  0
 38 39  1  0
 39 40  1  0
 40 41  2  0
 41 42  1  0
 42 43  2  0
 43 44  1  0
 44 45  2  0
 38 46  1  0
 46 47  1  0
 47 48  1  0
 48 49  1  0
 49 50  2  0
 50 51  1  0
 51 52  2  0
 52 53  1  0
 53 54  3  0
 52 55  1  0
 55 56  2  0
 34  7  1  0
 45 40  1  0
 56 46  1  0
 19 14  1  0
 25 20  1  0
 34 29  1  0
 56 49  1  0
M  END
>  <Title>  (1065) 
idABNAgen6

$$$$

     RDKit          2D

 12 12  0  0  0  0  0  0  0  0999 V2000
    6.7500   -3.8971    0.0000 N   0  0  0  0  0  0  0  0  0  0  0  0
    6.0000   -2.5981    0.0000 C   0  0  0  0  0  0  0  0  0  0  0  0
    5.2500   -1.2990    0.0000 N   0  0  0  0  0  0  0  0  0  0  0  0
    3.7500   -1.2990    0.0000 C   0  0  0  0  0  0  0  0  0  0  0  0
    3.0000   -2.5981    0.0000 O   0  0  0  0  0  0  0  0  0  0  0  0
    3.0000    0.0000    0.0000 N   0  0  0  0  0  0  0  0  0  0  0  0
    1.5000    0.0000    0.0000 C   0  0  0  0  0  0  0  0  0  0  0  0
    0.7500   -1.2990    0.0000 C   0  0  0  0  0  0  0  0  0  0  0  0
   -0.7500   -1.2990    0.0000 C   0  0  0  0  0  0  0  0  0  0  0  0
   -1.5000    0.0000    0.0000 C   0  0  0  0  0  0  0  0  0  0  0  0
   -0.7500    1.2990    0.0000 C   0  0  0  0  0  0  0  0  0  0  0  0
    0.7500    1.2990    0.0000 C   0  0  0  0  0  0  0  0  0  0  0  0
  1  2  3  0
  2  3  1  0
  3  4  1  0
  4  5  2  0
  4  6  1  0
  6  7  1  0
  7  8  2  0
  8  9  1  0
  9 10  2  0
 10 11  1  0
 11 12  2  0
 12  7  1  0
M  END
>  <Title>  (1066) 
idABNBgen6

$$$$

     RDKit          2D

 27 28  0  0  0  0  0  0  0  0999 V2000
    1.5000  -10.3923    0.0000 C   0  0  0  0  0  0  0  0  0  0  0  0
    0.7500   -9.0933    0.0000 C   0  0  0  0  0  0  0  0  0  0  0  0
   -0.7500   -9.0933    0.0000 O   0  0  0  0  0  0  0  0  0  0  0  0
    1.5000   -7.7942    0.0000 C   0  0  0  0  0  0  0  0  0  0  0  0
    0.7500   -6.4952    0.0000 N   0  0  0  0  0  0  0  0  0  0  0  0
    1.5000   -5.1962    0.0000 C   0  0  0  0  0  0  0  0  0  0  0  0
    3.0000   -5.1962    0.0000 O   0  0  0  0  0  0  0  0  0  0  0  0
    0.7500   -3.8971    0.0000 C   0  0  0  0  0  0  0  0  0  0  0  0
    1.5000   -2.5981    0.0000 C   0  0  0  0  0  0  0  0  0  0  0  0
    0.7500   -1.2990    0.0000 C   0  0  0  0  0  0  0  0  0  0  0  0
    1.5000    0.0000    0.0000 C   0  0  0  0  0  0  0  0  0  0  0  0
    0.7500    1.2990    0.0000 C   0  0  0  0  0  0  0  0  0  0  0  0
   -0.7500    1.2990    0.0000 C   0  0  0  0  0  0  0  0  0  0  0  0
   -1.5000    0.0000    0.0000 C   0  0  0  0  0  0  0  0  0  0  0  0
   -0.7500   -1.2990    0.0000 C   0  0  0  0  0  0  0  0  0  0  0  0
   -0.7500   -3.8971    0.0000 C   0  0  0  0  0  0  0  0  0  0  0  0
   -1.5000   -2.5981    0.0000 O   0  0  0  0  0  0  0  0  0  0  0  0
   -1.5000   -5.1962    0.0000 O   0  0  0  0  0  0  0  0  0  0  0  0
    3.0000   -7.7942    0.0000 C   0  0  0  0  0  0  0  0  0  0  0  0
    3.7500   -6.4952    0.0000 O   0  0  0  0  0  0  0  0  0  0  0  0
    3.7500   -9.0933    0.0000 N   0  0  0  0  0  0  0  0  0  0  0  0
    5.2500   -9.0933    0.0000 C   0  0  0  0  0  0  0  0  0  0  0  0
    6.0000  -10.3923    0.0000 C   0  0  0  0  0  0  0  0  0  0  0  0
    7.5000  -10.3923    0.0000 C   0  0  0  0  0  0  0  0  0  0  0  0
    8.2500   -9.0933    0.0000 C   0  0  0  0  0  0  0  0  0  0  0  0
    7.5000   -7.7942    0.0000 C   0  0  0  0  0  0  0  0  0  0  0  0
    6.0000   -7.7942    0.0000 C   0  0  0  0  0  0  0  0  0  0  0  0
  1  2  1  0
  2  3  2  0
  2  4  1  0
  4  5  1  0
  5  6  1  0
  6  7  2  0
  6  8  1  0
  8  9  1  0
  9 10  1  0
 10 11  2  0
 11 12  1  0
 12 13  2  0
 13 14  1  0
 14 15  2  0
  8 16  1  0
 16 17  2  0
 16 18  1  0
  4 19  1  0
 19 20  2  0
 19 21  1  0
 21 22  1  0
 22 23  2  0
 23 24  1  0
 24 25  2  0
 25 26  1  0
 26 27  2  0
 15 10  1  0
 27 22  1  0
M  END
>  <Title>  (1067) 
idABNCgen6

$$$$

     RDKit          2D

 29 33  0  0  0  0  0  0  0  0999 V2000
   -3.3923   -0.2985    0.0000 O   0  0  0  0  0  0  0  0  0  0  0  0
   -3.1965   -1.7857    0.0000 C   0  0  0  0  0  0  0  0  0  0  0  0
   -4.3865   -2.6988    0.0000 N   0  0  0  0  0  0  0  0  0  0  0  0
   -5.7723   -2.1248    0.0000 C   0  0  0  0  0  0  0  0  0  0  0  0
   -7.0513   -2.9085    0.0000 C   0  0  0  0  0  0  0  0  0  0  0  0
   -8.1919   -1.9344    0.0000 C   0  0  0  0  0  0  0  0  0  0  0  0
   -7.6179   -0.5485    0.0000 C   0  0  0  0  0  0  0  0  0  0  0  0
   -8.4016    0.7304    0.0000 O   0  0  0  0  0  0  0  0  0  0  0  0
   -7.6859    2.0486    0.0000 C   0  0  0  0  0  0  0  0  0  0  0  0
   -8.4696    3.3276    0.0000 C   0  0  0  0  0  0  0  0  0  0  0  0
   -7.7539    4.6458    0.0000 C   0  0  0  0  0  0  0  0  0  0  0  0
   -8.5376    5.9248    0.0000 C   0  0  0  0  0  0  0  0  0  0  0  0
  -10.0371    5.8855    0.0000 C   0  0  0  0  0  0  0  0  0  0  0  0
  -10.7529    4.5673    0.0000 C   0  0  0  0  0  0  0  0  0  0  0  0
   -9.9691    3.2883    0.0000 C   0  0  0  0  0  0  0  0  0  0  0  0
   -6.1225   -0.6662    0.0000 C   0  0  0  0  0  0  0  0  0  0  0  0
   -1.8107   -2.3597    0.0000 C   0  0  0  0  0  0  0  0  0  0  0  0
   -1.8107   -3.8597    0.0000 C   0  0  0  0  0  0  0  0  0  0  0  0
   -0.7500   -4.9204    0.0000 C   0  0  0  0  0  0  0  0  0  0  0  0
    0.7500   -4.9204    0.0000 C   0  0  0  0  0  0  0  0  0  0  0  0
    1.8107   -3.8597    0.0000 C   0  0  0  0  0  0  0  0  0  0  0  0
    1.8107   -2.3597    0.0000 C   0  0  0  0  0  0  0  0  0  0  0  0
    0.7500   -3.4204    0.0000 C   0  0  0  0  0  0  0  0  0  0  0  0
    0.7500   -1.2990    0.0000 C   0  0  0  0  0  0  0  0  0  0  0  0
    1.5000    0.0000    0.0000 C   0  0  0  0  0  0  0  0  0  0  0  0
    0.7500    1.2990    0.0000 C   0  0  0  0  0  0  0  0  0  0  0  0
   -0.7500    1.2990    0.0000 C   0  0  0  0  0  0  0  0  0  0  0  0
   -1.5000    0.0000    0.0000 C   0  0  0  0  0  0  0  0  0  0  0  0
   -0.7500   -1.2990    0.0000 C   0  0  0  0  0  0  0  0  0  0  0  0
  1  2  2  0
  2  3  1  0
  3  4  1  0
  4  5  2  0
  5  6  1  0
  6  7  2  0
  7  8  1  0
  8  9  1  0
  9 10  1  0
 10 11  2  0
 11 12  1  0
 12 13  2  0
 13 14  1  0
 14 15  2  0
  7 16  1  0
  2 17  1  0
 17 18  2  0
 18 19  1  0
 19 20  2  0
 20 21  1  0
 21 22  2  0
 22 23  1  0
 22 24  1  0
 24 25  2  0
 25 26  1  0
 26 27  2  0
 27 28  1  0
 28 29  2  0
 16  4  1  0
 29 17  1  0
 15 10  1  0
 23 20  1  0
 29 24  1  0
M  END
>  <Title>  (1068) 
idABNDgen6

$$$$

     RDKit          2D

 53 60  0  0  0  0  0  0  0  0999 V2000
   -4.7928    0.3707    0.0000 C   0  0  0  0  0  0  0  0  0  0  0  0
   -3.8642    1.5487    0.0000 C   0  0  0  0  0  0  0  0  0  0  0  0
   -4.8383    2.6893    0.0000 C   0  0  0  0  0  0  0  0  0  0  0  0
   -5.3019    4.1159    0.0000 C   0  0  0  0  0  0  0  0  0  0  0  0
   -5.1842    5.6112    0.0000 C   0  0  0  0  0  0  0  0  0  0  0  0
   -6.6657    5.8459    0.0000 C   0  0  0  0  0  0  0  0  0  0  0  0
   -6.9004    7.3274    0.0000 C   0  0  0  0  0  0  0  0  0  0  0  0
   -5.5639    8.0084    0.0000 C   0  0  0  0  0  0  0  0  0  0  0  0
   -5.3292    9.4899    0.0000 C   0  0  0  0  0  0  0  0  0  0  0  0
   -6.4949   10.4339    0.0000 C   0  0  0  0  0  0  0  0  0  0  0  0
   -7.8953    9.8964    0.0000 O   0  0  0  0  0  0  0  0  0  0  0  0
   -6.2603   11.9155    0.0000 N   0  0  0  0  0  0  0  0  0  0  0  0
   -7.4260   12.8594    0.0000 C   0  0  0  0  0  0  0  0  0  0  0  0
   -7.1913   14.3410    0.0000 N   0  0  0  0  0  0  0  0  0  0  0  0
   -8.3571   15.2850    0.0000 N   0  0  0  0  0  0  0  0  0  0  0  0
   -9.7574   14.7474    0.0000 N   0  0  0  0  0  0  0  0  0  0  0  0
   -9.9921   13.2659    0.0000 N   0  0  0  0  0  0  0  0  0  0  0  0
   -8.8264   12.3219    0.0000 N   0  0  0  0  0  0  0  0  0  0  0  0
   -4.5032    6.9478    0.0000 C   0  0  0  0  0  0  0  0  0  0  0  0
   -3.3626    7.9219    0.0000 C   0  0  0  0  0  0  0  0  0  0  0  0
   -4.2443    9.1355    0.0000 C   0  0  0  0  0  0  0  0  0  0  0  0
   -3.3626   10.3490    0.0000 C   0  0  0  0  0  0  0  0  0  0  0  0
   -1.9360    9.8855    0.0000 C   0  0  0  0  0  0  0  0  0  0  0  0
   -0.7225   10.7671    0.0000 C   0  0  0  0  0  0  0  0  0  0  0  0
   -0.8793   12.2589    0.0000 C   0  0  0  0  0  0  0  0  0  0  0  0
    0.3343   13.1406    0.0000 C   0  0  0  0  0  0  0  0  0  0  0  0
    1.7046   12.5305    0.0000 C   0  0  0  0  0  0  0  0  0  0  0  0
    2.9181   13.4122    0.0000 Cl  0  0  0  0  0  0  0  0  0  0  0  0
    1.8614   11.0387    0.0000 C   0  0  0  0  0  0  0  0  0  0  0  0
    0.6478   10.1570    0.0000 C   0  0  0  0  0  0  0  0  0  0  0  0
   -1.9360    8.3855    0.0000 C   0  0  0  0  0  0  0  0  0  0  0  0
   -0.4406    8.2678    0.0000 C   0  0  0  0  0  0  0  0  0  0  0  0
   -0.5191    9.7657    0.0000 C   0  0  0  0  0  0  0  0  0  0  0  0
    0.7389   10.5827    0.0000 C   0  0  0  0  0  0  0  0  0  0  0  0
    2.0754    9.9017    0.0000 C   0  0  0  0  0  0  0  0  0  0  0  0
    3.3334   10.7186    0.0000 C   0  0  0  0  0  0  0  0  0  0  0  0
    4.6699   10.0377    0.0000 C   0  0  0  0  0  0  0  0  0  0  0  0
    5.9279   10.8546    0.0000 C   0  0  0  0  0  0  0  0  0  0  0  0
    5.8494   12.3526    0.0000 C   0  0  0  0  0  0  0  0  0  0  0  0
    4.5129   13.0335    0.0000 C   0  0  0  0  0  0  0  0  0  0  0  0
    3.2549   12.2166    0.0000 C   0  0  0  0  0  0  0  0  0  0  0  0
    2.1539    8.4037    0.0000 C   0  0  0  0  0  0  0  0  0  0  0  0
    0.8959    7.5868    0.0000 C   0  0  0  0  0  0  0  0  0  0  0  0
    1.8701    6.4462    0.0000 C   0  0  0  0  0  0  0  0  0  0  0  0
    2.3336    5.0196    0.0000 C   0  0  0  0  0  0  0  0  0  0  0  0
    2.2159    3.5242    0.0000 C   0  0  0  0  0  0  0  0  0  0  0  0
    1.5349    2.1877    0.0000 C   0  0  0  0  0  0  0  0  0  0  0  0
    0.3943    1.2135    0.0000 C   0  0  0  0  0  0  0  0  0  0  0  0
    1.2760    0.0000    0.0000 C   0  0  0  0  0  0  0  0  0  0  0  0
    0.3943   -1.2135    0.0000 C   0  0  0  0  0  0  0  0  0  0  0  0
   -1.0323   -0.7500    0.0000 C   0  0  0  0  0  0  0  0  0  0  0  0
   -1.0323    0.7500    0.0000 C   0  0  0  0  0  0  0  0  0  0  0  0
   -2.5277    0.8677    0.0000 C   0  0  0  0  0  0  0  0  0  0  0  0
  1  2  1  0
  2  3  2  0
  3  4  1  0
  4  5  1  0
  5  6  2  0
  6  7  1  0
  7  8  2  0
  8  9  1  0
  9 10  1  0
 10 11  2  0
 10 12  1  0
 12 13  1  0
 13 14  2  0
 14 15  1  0
 15 16  2  0
 16 17  1  0
 17 18  2  0
  8 19  1  0
 19 20  1  0
 20 21  2  0
 21 22  1  0
 22 23  2  0
 23 24  1  0
 24 25  2  0
 25 26  1  0
 26 27  2  0
 27 28  1  0
 27 29  1  0
 29 30  2  0
 23 31  1  0
 31 32  1  0
 32 33  2  0
 33 34  1  0
 34 35  2  0
 35 36  1  0
 36 37  2  0
 37 38  1  0
 38 39  2  0
 39 40  1  0
 40 41  2  0
 35 42  1  0
 42 43  1  0
 43 44  2  0
 44 45  1  0
 45 46  2  0
 46 47  1  0
 47 48  2  0
 48 49  1  0
 49 50  2  0
 50 51  1  0
 51 52  2  0
 52 53  1  0
 53  2  1  0
 19  5  1  0
 31 20  1  0
 43 32  1  0
 52 48  1  0
 18 13  1  0
 30 24  1  0
 41 36  1  0
M  END
>  <Title>  (1069) 
idABNEgen6

$$$$

     RDKit          2D

 17 18  0  0  0  0  0  0  0  0999 V2000
   -4.6904   -6.5871    0.0000 C   0  0  0  0  0  0  0  0  0  0  0  0
   -4.3786   -5.1199    0.0000 C   0  0  0  0  0  0  0  0  0  0  0  0
   -5.4933   -4.1162    0.0000 O   0  0  0  0  0  0  0  0  0  0  0  0
   -2.9520   -4.6564    0.0000 C   0  0  0  0  0  0  0  0  0  0  0  0
   -2.6401   -3.1891    0.0000 C   0  0  0  0  0  0  0  0  0  0  0  0
   -1.2135   -2.7256    0.0000 C   0  0  0  0  0  0  0  0  0  0  0  0
   -0.0000   -3.6073    0.0000 C   0  0  0  0  0  0  0  0  0  0  0  0
    1.2135   -2.7256    0.0000 S   0  0  0  0  0  0  0  0  0  0  0  0
    0.7500   -1.2990    0.0000 C   0  0  0  0  0  0  0  0  0  0  0  0
    1.5000    0.0000    0.0000 C   0  0  0  0  0  0  0  0  0  0  0  0
    0.7500    1.2990    0.0000 C   0  0  0  0  0  0  0  0  0  0  0  0
   -0.7500    1.2990    0.0000 C   0  0  0  0  0  0  0  0  0  0  0  0
   -1.5000    0.0000    0.0000 C   0  0  0  0  0  0  0  0  0  0  0  0
   -0.7500   -1.2990    0.0000 C   0  0  0  0  0  0  0  0  0  0  0  0
   -1.8373   -5.6601    0.0000 C   0  0  0  0  0  0  0  0  0  0  0  0
   -0.4107   -5.1965    0.0000 O   0  0  0  0  0  0  0  0  0  0  0  0
   -2.1491   -7.1273    0.0000 O   0  0  0  0  0  0  0  0  0  0  0  0
  1  2  1  0
  2  3  2  0
  2  4  1  0
  4  5  2  3
  5  6  1  0
  6  7  2  0
  7  8  1  0
  8  9  1  0
  9 10  2  0
 10 11  1  0
 11 12  2  0
 12 13  1  0
 13 14  2  0
  4 15  1  0
 15 16  2  0
 15 17  1  0
 14  6  1  0
 14  9  1  0
M  END
>  <Title>  (1070) 
idABNFgen6

$$$$

     RDKit          2D

 23 25  0  0  0  0  0  0  0  0999 V2000
    3.0000    0.0000    0.0000 C   0  0  0  0  0  0  0  0  0  0  0  0
    1.5000    0.0000    0.0000 C   0  0  0  0  0  0  0  0  0  0  0  0
    0.7500   -1.2990    0.0000 C   0  0  0  0  0  0  0  0  0  0  0  0
   -0.7500   -1.2990    0.0000 C   0  0  0  0  0  0  0  0  0  0  0  0
   -1.5000    0.0000    0.0000 C   0  0  0  0  0  0  0  0  0  0  0  0
   -3.0000    0.0000    0.0000 C   0  0  0  0  0  0  0  0  0  0  0  0
   -3.7500   -1.2990    0.0000 O   0  0  0  0  0  0  0  0  0  0  0  0
   -3.7500    1.2990    0.0000 N   0  0  0  0  0  0  0  0  0  0  0  0
   -5.2500    1.2990    0.0000 C   0  0  0  0  0  0  0  0  0  0  0  0
   -6.1317    0.0855    0.0000 N   0  0  0  0  0  0  0  0  0  0  0  0
   -7.5583    0.5490    0.0000 N   0  0  0  0  0  0  0  0  0  0  0  0
   -7.5583    2.0490    0.0000 N   0  0  0  0  0  0  0  0  0  0  0  0
   -6.1317    2.5126    0.0000 N   0  0  0  0  0  0  0  0  0  0  0  0
   -5.6682    3.9391    0.0000 C   0  0  0  0  0  0  0  0  0  0  0  0
   -4.2009    4.2510    0.0000 C   0  0  0  0  0  0  0  0  0  0  0  0
   -3.7374    5.6776    0.0000 C   0  0  0  0  0  0  0  0  0  0  0  0
   -4.7411    6.7923    0.0000 C   0  0  0  0  0  0  0  0  0  0  0  0
   -4.2776    8.2189    0.0000 C   0  0  0  0  0  0  0  0  0  0  0  0
   -3.8141    9.6455    0.0000 N   0  0  0  0  0  0  0  0  0  0  0  0
   -6.2083    6.4805    0.0000 C   0  0  0  0  0  0  0  0  0  0  0  0
   -6.6718    5.0539    0.0000 C   0  0  0  0  0  0  0  0  0  0  0  0
   -0.7500    1.2990    0.0000 C   0  0  0  0  0  0  0  0  0  0  0  0
    0.7500    1.2990    0.0000 C   0  0  0  0  0  0  0  0  0  0  0  0
  1  2  1  0
  2  3  2  0
  3  4  1  0
  4  5  2  0
  5  6  1  0
  6  7  2  0
  6  8  1  0
  8  9  1  0
  9 10  2  0
 10 11  1  0
 11 12  2  0
 12 13  1  0
 13 14  1  0
 14 15  2  0
 15 16  1  0
 16 17  2  0
 17 18  1  0
 18 19  3  0
 17 20  1  0
 20 21  2  0
  5 22  1  0
 22 23  1  0
 23  2  1  0
 13  9  1  0
 21 14  1  0
M  END
>  <Title>  (1071) 
idABNGgen6

$$$$

     RDKit          2D

  9 10  0  0  0  0  0  0  0  0999 V2000
   -1.2990   -4.8481    0.0000 C   0  0  0  0  0  0  0  0  0  0  0  0
   -0.0000   -4.0981    0.0000 O   0  0  0  0  0  0  0  0  0  0  0  0
   -0.0000   -2.5981    0.0000 C   0  0  0  0  0  0  0  0  0  0  0  0
    0.7500   -1.2990    0.0000 C   0  0  0  0  0  0  0  0  0  0  0  0
    1.5000    0.0000    0.0000 C   0  0  0  0  0  0  0  0  0  0  0  0
    0.7500    1.2990    0.0000 C   0  0  0  0  0  0  0  0  0  0  0  0
   -0.7500    1.2990    0.0000 C   0  0  0  0  0  0  0  0  0  0  0  0
   -1.5000    0.0000    0.0000 C   0  0  0  0  0  0  0  0  0  0  0  0
   -0.7500   -1.2990    0.0000 C   0  0  0  0  0  0  0  0  0  0  0  0
  1  2  1  0
  2  3  1  0
  3  4  1  0
  4  5  2  0
  5  6  1  0
  6  7  2  0
  7  8  1  0
  8  9  2  0
  9  3  1  0
  9  4  1  0
M  END
>  <Title>  (1072) 
idABNHgen6

$$$$

     RDKit          2D

  8  8  0  0  0  0  0  0  0  0999 V2000
    4.5000    0.0000    0.0000 N   0  0  0  0  0  0  0  0  0  0  0  0
    3.0000    0.0000    0.0000 C   0  0  0  0  0  0  0  0  0  0  0  0
    1.5000    0.0000    0.0000 C   0  0  0  0  0  0  0  0  0  0  0  0
    0.7500   -1.2990    0.0000 C   0  0  0  0  0  0  0  0  0  0  0  0
   -0.7500   -1.2990    0.0000 C   0  0  0  0  0  0  0  0  0  0  0  0
   -1.5000    0.0000    0.0000 C   0  0  0  0  0  0  0  0  0  0  0  0
   -0.7500    1.2990    0.0000 C   0  0  0  0  0  0  0  0  0  0  0  0
    0.7500    1.2990    0.0000 C   0  0  0  0  0  0  0  0  0  0  0  0
  1  2  3  0
  2  3  1  0
  3  4  2  0
  4  5  1  0
  5  6  2  0
  6  7  1  0
  7  8  2  0
  8  3  1  0
M  END
>  <Title>  (1073) 
idABNIgen6

$$$$

     RDKit          2D

 30 33  0  0  0  0  0  0  0  0999 V2000
   -1.9679   -8.5600    0.0000 O   0  0  0  0  0  0  0  0  0  0  0  0
   -2.9716   -7.4453    0.0000 C   0  0  0  0  0  0  0  0  0  0  0  0
   -4.4388   -7.7572    0.0000 O   0  0  0  0  0  0  0  0  0  0  0  0
   -2.5081   -6.0187    0.0000 C   0  0  0  0  0  0  0  0  0  0  0  0
   -1.0409   -5.7068    0.0000 C   0  0  0  0  0  0  0  0  0  0  0  0
   -0.0372   -6.8216    0.0000 O   0  0  0  0  0  0  0  0  0  0  0  0
   -0.5773   -4.2803    0.0000 N   0  0  0  0  0  0  0  0  0  0  0  0
    0.8899   -3.9684    0.0000 C   0  0  0  0  0  0  0  0  0  0  0  0
    2.0046   -4.9721    0.0000 N   0  0  0  0  0  0  0  0  0  0  0  0
    3.3037   -4.2221    0.0000 N   0  0  0  0  0  0  0  0  0  0  0  0
    2.9918   -2.7549    0.0000 N   0  0  0  0  0  0  0  0  0  0  0  0
    1.5000   -2.5981    0.0000 N   0  0  0  0  0  0  0  0  0  0  0  0
    0.7500   -1.2990    0.0000 N   0  0  0  0  0  0  0  0  0  0  0  0
    1.5000    0.0000    0.0000 C   0  0  0  0  0  0  0  0  0  0  0  0
    0.7500    1.2990    0.0000 C   0  0  0  0  0  0  0  0  0  0  0  0
   -0.7500    1.2990    0.0000 C   0  0  0  0  0  0  0  0  0  0  0  0
   -1.5000    2.5981    0.0000 N   0  0  0  0  0  0  0  0  0  0  0  0
   -0.7500    3.8971    0.0000 C   0  0  0  0  0  0  0  0  0  0  0  0
   -1.5000    5.1962    0.0000 C   0  0  0  0  0  0  0  0  0  0  0  0
   -3.0000    5.1962    0.0000 C   0  0  0  0  0  0  0  0  0  0  0  0
   -3.7500    6.4952    0.0000 C   0  0  0  0  0  0  0  0  0  0  0  0
   -3.0000    7.7942    0.0000 C   0  0  0  0  0  0  0  0  0  0  0  0
   -3.7500    9.0933    0.0000 C   0  0  0  0  0  0  0  0  0  0  0  0
   -5.2500    9.0933    0.0000 C   0  0  0  0  0  0  0  0  0  0  0  0
   -6.0000    7.7942    0.0000 C   0  0  0  0  0  0  0  0  0  0  0  0
   -5.2500    6.4952    0.0000 C   0  0  0  0  0  0  0  0  0  0  0  0
   -3.7500    3.8971    0.0000 C   0  0  0  0  0  0  0  0  0  0  0  0
   -3.0000    2.5981    0.0000 C   0  0  0  0  0  0  0  0  0  0  0  0
   -1.5000    0.0000    0.0000 C   0  0  0  0  0  0  0  0  0  0  0  0
   -0.7500   -1.2990    0.0000 C   0  0  0  0  0  0  0  0  0  0  0  0
  1  2  2  0
  2  3  1  0
  2  4  1  0
  4  5  1  0
  5  6  2  0
  5  7  1  0
  7  8  1  0
  8  9  2  0
  9 10  1  0
 10 11  2  0
 11 12  1  0
 12 13  1  0
 13 14  1  0
 14 15  1  0
 15 16  1  0
 16 17  1  0
 17 18  1  0
 18 19  1  0
 19 20  1  0
 20 21  1  0
 21 22  2  0
 22 23  1  0
 23 24  2  0
 24 25  1  0
 25 26  2  0
 20 27  1  0
 27 28  1  0
 16 29  1  0
 29 30  1  0
 12  8  1  0
 30 13  1  0
 28 17  1  0
 26 21  1  0
M  END
>  <Title>  (1074) 
idABNJgen6

$$$$

     RDKit          2D

 40 44  0  0  0  0  0  0  0  0999 V2000
   -9.8511   -7.3138    0.0000 C   0  0  0  0  0  0  0  0  0  0  0  0
   -9.6164   -5.8323    0.0000 C   0  0  0  0  0  0  0  0  0  0  0  0
   -8.2161   -5.2947    0.0000 C   0  0  0  0  0  0  0  0  0  0  0  0
   -7.9814   -3.8132    0.0000 C   0  0  0  0  0  0  0  0  0  0  0  0
   -9.1471   -2.8692    0.0000 C   0  0  0  0  0  0  0  0  0  0  0  0
   -8.9125   -1.3877    0.0000 N   0  0  0  0  0  0  0  0  0  0  0  0
   -9.9731   -0.3270    0.0000 N   0  0  0  0  0  0  0  0  0  0  0  0
   -9.2922    1.0095    0.0000 N   0  0  0  0  0  0  0  0  0  0  0  0
   -7.8106    0.7749    0.0000 N   0  0  0  0  0  0  0  0  0  0  0  0
   -7.5760   -0.7067    0.0000 C   0  0  0  0  0  0  0  0  0  0  0  0
   -6.2395   -1.3877    0.0000 N   0  0  0  0  0  0  0  0  0  0  0  0
   -5.2955   -0.2219    0.0000 C   0  0  0  0  0  0  0  0  0  0  0  0
   -3.9590    0.4590    0.0000 C   0  0  0  0  0  0  0  0  0  0  0  0
   -4.3472    1.9079    0.0000 C   0  0  0  0  0  0  0  0  0  0  0  0
   -2.4610    0.5376    0.0000 C   0  0  0  0  0  0  0  0  0  0  0  0
   -1.0607   -0.0000    0.0000 C   0  0  0  0  0  0  0  0  0  0  0  0
    0.0000   -1.0607    0.0000 C   0  0  0  0  0  0  0  0  0  0  0  0
    0.5376   -2.4610    0.0000 C   0  0  0  0  0  0  0  0  0  0  0  0
    0.4590   -3.9590    0.0000 C   0  0  0  0  0  0  0  0  0  0  0  0
   -0.2219   -5.2955    0.0000 C   0  0  0  0  0  0  0  0  0  0  0  0
   -1.3877   -6.2395    0.0000 C   0  0  0  0  0  0  0  0  0  0  0  0
   -2.8365   -6.6277    0.0000 C   0  0  0  0  0  0  0  0  0  0  0  0
   -3.0712   -8.1092    0.0000 C   0  0  0  0  0  0  0  0  0  0  0  0
   -2.1895   -9.3228    0.0000 O   0  0  0  0  0  0  0  0  0  0  0  0
   -4.5527   -7.8746    0.0000 N   0  0  0  0  0  0  0  0  0  0  0  0
   -4.3181   -6.3930    0.0000 C   0  0  0  0  0  0  0  0  0  0  0  0
   -5.5761   -5.5761    0.0000 N   0  0  0  0  0  0  0  0  0  0  0  0
   -6.3930   -4.3181    0.0000 N   0  0  0  0  0  0  0  0  0  0  0  0
   -6.6277   -2.8365    0.0000 N   0  0  0  0  0  0  0  0  0  0  0  0
  -10.5475   -3.4067    0.0000 C   0  0  0  0  0  0  0  0  0  0  0  0
  -10.7822   -4.8883    0.0000 C   0  0  0  0  0  0  0  0  0  0  0  0
  -12.1825   -5.4258    0.0000 C   0  0  0  0  0  0  0  0  0  0  0  0
  -13.3482   -4.4818    0.0000 O   0  0  0  0  0  0  0  0  0  0  0  0
  -12.4172   -6.9074    0.0000 N   0  0  0  0  0  0  0  0  0  0  0  0
  -13.8176   -7.4449    0.0000 C   0  0  0  0  0  0  0  0  0  0  0  0
  -14.0522   -8.9264    0.0000 N   0  0  0  0  0  0  0  0  0  0  0  0
  -15.4526   -9.4640    0.0000 N   0  0  0  0  0  0  0  0  0  0  0  0
  -16.6183   -8.5200    0.0000 N   0  0  0  0  0  0  0  0  0  0  0  0
  -16.3836   -7.0385    0.0000 N   0  0  0  0  0  0  0  0  0  0  0  0
  -14.9833   -6.5009    0.0000 N   0  0  0  0  0  0  0  0  0  0  0  0
  1  2  1  0
  2  3  2  0
  3  4  1  0
  4  5  2  0
  5  6  1  0
  6  7  1  0
  7  8  2  0
  8  9  1  0
  9 10  2  0
 10 11  1  0
 11 12  1  0
 12 13  1  0
 13 14  1  0
 13 15  1  0
 15 16  1  0
 16 17  1  0
 17 18  1  0
 18 19  1  0
 19 20  1  0
 20 21  1  0
 21 22  1  0
 22 23  1  0
 23 24  2  0
 23 25  1  0
 25 26  1  0
 26 27  2  0
 27 28  1  0
 28 29  2  0
  5 30  1  0
 30 31  1  0
 31 32  1  0
 32 33  2  0
 32 34  1  0
 34 35  1  0
 35 36  2  0
 36 37  1  0
 37 38  2  0
 38 39  1  0
 39 40  2  0
 31  2  1  0
 40 35  1  0
 10  6  1  0
 29 11  1  0
 26 22  1  0
M  END
>  <Title>  (1075) 
idABNKgen6

$$$$

     RDKit          2D

 15 16  0  0  0  0  0  0  0  0999 V2000
   -1.0607   -9.6313    0.0000 C   0  0  0  0  0  0  0  0  0  0  0  0
   -0.3107   -8.3323    0.0000 C   0  0  0  0  0  0  0  0  0  0  0  0
   -0.6989   -6.8834    0.0000 C   0  0  0  0  0  0  0  0  0  0  0  0
    0.7500   -6.4952    0.0000 C   0  0  0  0  0  0  0  0  0  0  0  0
    1.5000   -5.1962    0.0000 C   0  0  0  0  0  0  0  0  0  0  0  0
    0.7500   -3.8971    0.0000 C   0  0  0  0  0  0  0  0  0  0  0  0
   -0.7500   -3.8971    0.0000 O   0  0  0  0  0  0  0  0  0  0  0  0
    1.5000   -2.5981    0.0000 N   0  0  0  0  0  0  0  0  0  0  0  0
    0.7500   -1.2990    0.0000 C   0  0  0  0  0  0  0  0  0  0  0  0
    1.5000    0.0000    0.0000 C   0  0  0  0  0  0  0  0  0  0  0  0
    0.7500    1.2990    0.0000 N   0  0  0  0  0  0  0  0  0  0  0  0
   -0.7500    1.2990    0.0000 N   0  0  0  0  0  0  0  0  0  0  0  0
   -1.5000    0.0000    0.0000 N   0  0  0  0  0  0  0  0  0  0  0  0
   -0.7500   -1.2990    0.0000 N   0  0  0  0  0  0  0  0  0  0  0  0
    1.1382   -7.9441    0.0000 C   0  0  0  0  0  0  0  0  0  0  0  0
  1  2  1  0
  2  3  1  0
  3  4  1  0
  4  5  1  0
  5  6  1  0
  6  7  2  0
  6  8  1  0
  8  9  1  0
  9 10  2  0
 10 11  1  0
 11 12  2  0
 12 13  1  0
 13 14  2  0
  4 15  1  0
 15  2  1  0
 14  9  1  0
M  END
>  <Title>  (1076) 
idABNLgen6

$$$$

     RDKit          2D

 25 28  0  0  0  0  0  0  0  0999 V2000
   -4.7561    0.6445    0.0000 C   0  0  0  0  0  0  0  0  0  0  0  0
   -3.2746    0.8791    0.0000 C   0  0  0  0  0  0  0  0  0  0  0  0
   -2.9244    2.3377    0.0000 C   0  0  0  0  0  0  0  0  0  0  0  0
   -1.6455    3.1214    0.0000 C   0  0  0  0  0  0  0  0  0  0  0  0
   -0.1869    2.7713    0.0000 C   0  0  0  0  0  0  0  0  0  0  0  0
    0.6948    3.9848    0.0000 C   0  0  0  0  0  0  0  0  0  0  0  0
    0.0847    5.3551    0.0000 O   0  0  0  0  0  0  0  0  0  0  0  0
    2.1866    3.8280    0.0000 N   0  0  0  0  0  0  0  0  0  0  0  0
    3.0682    5.0415    0.0000 C   0  0  0  0  0  0  0  0  0  0  0  0
    2.6047    6.4681    0.0000 N   0  0  0  0  0  0  0  0  0  0  0  0
    3.8182    7.3498    0.0000 N   0  0  0  0  0  0  0  0  0  0  0  0
    5.0318    6.4681    0.0000 N   0  0  0  0  0  0  0  0  0  0  0  0
    4.5682    5.0415    0.0000 N   0  0  0  0  0  0  0  0  0  0  0  0
    5.4499    3.8280    0.0000 C   0  0  0  0  0  0  0  0  0  0  0  0
    4.8398    2.4577    0.0000 C   0  0  0  0  0  0  0  0  0  0  0  0
    5.7215    1.2442    0.0000 C   0  0  0  0  0  0  0  0  0  0  0  0
    7.2133    1.4009    0.0000 C   0  0  0  0  0  0  0  0  0  0  0  0
    7.8234    2.7713    0.0000 C   0  0  0  0  0  0  0  0  0  0  0  0
    6.9417    3.9848    0.0000 C   0  0  0  0  0  0  0  0  0  0  0  0
    0.3943    1.2135    0.0000 C   0  0  0  0  0  0  0  0  0  0  0  0
    1.2760    0.0000    0.0000 C   0  0  0  0  0  0  0  0  0  0  0  0
    0.3943   -1.2135    0.0000 C   0  0  0  0  0  0  0  0  0  0  0  0
   -1.0323   -0.7500    0.0000 C   0  0  0  0  0  0  0  0  0  0  0  0
   -2.4908   -0.3998    0.0000 C   0  0  0  0  0  0  0  0  0  0  0  0
   -1.0323    0.7500    0.0000 O   0  0  0  0  0  0  0  0  0  0  0  0
  1  2  1  0
  2  3  1  0
  3  4  2  0
  4  5  1  0
  5  6  1  0
  6  7  2  0
  6  8  1  0
  8  9  1  0
  9 10  2  0
 10 11  1  0
 11 12  2  0
 12 13  1  0
 13 14  1  0
 14 15  2  0
 15 16  1  0
 16 17  2  0
 17 18  1  0
 18 19  2  0
  5 20  1  0
 20 21  1  0
 21 22  1  0
 22 23  1  0
 23 24  1  0
 23 25  1  0
 24  2  1  0
 13  9  1  0
 19 14  1  0
 25 20  1  0
M  END
>  <Title>  (1077) 
idABNMgen6

$$$$

     RDKit          2D

 18 18  0  0  0  0  0  0  0  0999 V2000
    5.3839   -1.2990    0.0000 C   0  0  0  0  0  0  0  0  0  0  0  0
    4.6339    0.0000    0.0000 O   0  0  0  0  0  0  0  0  0  0  0  0
    3.1339    0.0000    0.0000 C   0  0  0  0  0  0  0  0  0  0  0  0
    2.7750    1.4564    0.0000 C   0  0  0  0  0  0  0  0  0  0  0  0
    1.7803    2.5792    0.0000 C   0  0  0  0  0  0  0  0  0  0  0  0
    0.3778    3.1111    0.0000 C   0  0  0  0  0  0  0  0  0  0  0  0
   -1.1113    2.9303    0.0000 C   0  0  0  0  0  0  0  0  0  0  0  0
   -2.3458    2.0782    0.0000 C   0  0  0  0  0  0  0  0  0  0  0  0
   -3.0429    0.7500    0.0000 C   0  0  0  0  0  0  0  0  0  0  0  0
   -3.0429   -0.7500    0.0000 C   0  0  0  0  0  0  0  0  0  0  0  0
   -2.3458   -2.0782    0.0000 C   0  0  0  0  0  0  0  0  0  0  0  0
   -1.1113   -2.9303    0.0000 C   0  0  0  0  0  0  0  0  0  0  0  0
    0.3778   -3.1111    0.0000 C   0  0  0  0  0  0  0  0  0  0  0  0
    1.7803   -2.5792    0.0000 C   0  0  0  0  0  0  0  0  0  0  0  0
    2.6324   -3.8137    0.0000 C   0  0  0  0  0  0  0  0  0  0  0  0
    4.1275   -3.6930    0.0000 O   0  0  0  0  0  0  0  0  0  0  0  0
    1.9893   -5.1688    0.0000 O   0  0  0  0  0  0  0  0  0  0  0  0
    2.7750   -1.4564    0.0000 C   0  0  0  0  0  0  0  0  0  0  0  0
  1  2  1  0
  2  3  1  0
  3  4  1  0
  4  5  1  0
  5  6  1  0
  6  7  1  0
  7  8  1  0
  8  9  1  0
  9 10  1  0
 10 11  1  0
 11 12  1  0
 12 13  1  0
 13 14  1  0
 14 15  1  0
 15 16  2  0
 15 17  1  0
 14 18  1  0
 18  3  1  0
M  END
>  <Title>  (1078) 
idABNNgen6

$$$$

     RDKit          2D

 27 30  0  0  0  0  0  0  0  0999 V2000
   -5.3430    2.0784    0.0000 C   0  0  0  0  0  0  0  0  0  0  0  0
   -3.9011    1.6650    0.0000 C   0  0  0  0  0  0  0  0  0  0  0  0
   -3.0194    2.8785    0.0000 C   0  0  0  0  0  0  0  0  0  0  0  0
   -1.5640    3.2414    0.0000 C   0  0  0  0  0  0  0  0  0  0  0  0
   -0.2158    2.5838    0.0000 C   0  0  0  0  0  0  0  0  0  0  0  0
    0.8632    3.6258    0.0000 C   0  0  0  0  0  0  0  0  0  0  0  0
    0.5003    5.0813    0.0000 O   0  0  0  0  0  0  0  0  0  0  0  0
    2.3051    3.2124    0.0000 N   0  0  0  0  0  0  0  0  0  0  0  0
    3.3841    4.2544    0.0000 C   0  0  0  0  0  0  0  0  0  0  0  0
    4.8260    3.8409    0.0000 N   0  0  0  0  0  0  0  0  0  0  0  0
    5.9050    4.8829    0.0000 N   0  0  0  0  0  0  0  0  0  0  0  0
    5.5421    6.3383    0.0000 N   0  0  0  0  0  0  0  0  0  0  0  0
    4.1002    6.7518    0.0000 N   0  0  0  0  0  0  0  0  0  0  0  0
    3.0212    5.7098    0.0000 N   0  0  0  0  0  0  0  0  0  0  0  0
    0.3943    1.2135    0.0000 C   0  0  0  0  0  0  0  0  0  0  0  0
    1.2760    0.0000    0.0000 C   0  0  0  0  0  0  0  0  0  0  0  0
    0.3943   -1.2135    0.0000 C   0  0  0  0  0  0  0  0  0  0  0  0
   -1.0323   -0.7500    0.0000 C   0  0  0  0  0  0  0  0  0  0  0  0
   -2.7545   -0.9104    0.0000 C   0  0  0  0  0  0  0  0  0  0  0  0
   -3.7965    0.1686    0.0000 C   0  0  0  0  0  0  0  0  0  0  0  0
   -1.0323    0.7500    0.0000 C   0  0  0  0  0  0  0  0  0  0  0  0
   -1.3442    2.2172    0.0000 O   0  0  0  0  0  0  0  0  0  0  0  0
   -2.5241    0.5932    0.0000 C   0  0  0  0  0  0  0  0  0  0  0  0
   -3.5278    1.7079    0.0000 C   0  0  0  0  0  0  0  0  0  0  0  0
   -4.8981    1.0978    0.0000 C   0  0  0  0  0  0  0  0  0  0  0  0
   -4.7413   -0.3940    0.0000 C   0  0  0  0  0  0  0  0  0  0  0  0
   -3.2741   -0.7058    0.0000 C   0  0  0  0  0  0  0  0  0  0  0  0
  1  2  1  0
  2  3  1  0
  3  4  1  0
  4  5  1  0
  5  6  1  0
  6  7  2  0
  6  8  1  0
  8  9  1  0
  9 10  2  0
 10 11  1  0
 11 12  2  0
 12 13  1  0
 13 14  2  0
  5 15  1  0
 15 16  1  0
 16 17  1  0
 17 18  1  0
 18 19  1  0
 19 20  1  0
 18 21  1  0
 21 22  1  0
 21 23  1  0
 23 24  1  0
 24 25  1  0
 25 26  1  0
 26 27  1  0
 20  2  1  0
 27 23  1  0
 14  9  1  0
 21 15  1  0
M  END
>  <Title>  (1079) 
idABNOgen6

$$$$

     RDKit          2D

  4  3  0  0  0  0  0  0  0  0999 V2000
    0.0000    0.0000    0.0000 C   0  0  0  0  0  0  0  0  0  0  0  0
    1.2990    0.7500    0.0000 C   0  0  0  0  0  0  0  0  0  0  0  0
    2.5981   -0.0000    0.0000 C   0  0  0  0  0  0  0  0  0  0  0  0
    3.8971    0.7500    0.0000 C   0  0  0  0  0  0  0  0  0  0  0  0
  1  2  1  0
  2  3  1  0
  3  4  1  0
M  END
>  <Title>  (1080) 
idABNPgen6

$$$$

     RDKit          2D

 15 16  0  0  0  0  0  0  0  0999 V2000
    1.8478   -9.0619    0.0000 C   0  0  0  0  0  0  0  0  0  0  0  0
    2.0046   -7.5702    0.0000 C   0  0  0  0  0  0  0  0  0  0  0  0
    3.3037   -6.8202    0.0000 C   0  0  0  0  0  0  0  0  0  0  0  0
    2.9918   -5.3529    0.0000 C   0  0  0  0  0  0  0  0  0  0  0  0
    1.5000   -5.1962    0.0000 C   0  0  0  0  0  0  0  0  0  0  0  0
    0.7500   -3.8971    0.0000 C   0  0  0  0  0  0  0  0  0  0  0  0
   -0.7500   -3.8971    0.0000 O   0  0  0  0  0  0  0  0  0  0  0  0
    1.5000   -2.5981    0.0000 O   0  0  0  0  0  0  0  0  0  0  0  0
    0.7500   -1.2990    0.0000 C   0  0  0  0  0  0  0  0  0  0  0  0
    1.5000    0.0000    0.0000 N   0  0  0  0  0  0  0  0  0  0  0  0
    0.7500    1.2990    0.0000 N   0  0  0  0  0  0  0  0  0  0  0  0
   -0.7500    1.2990    0.0000 N   0  0  0  0  0  0  0  0  0  0  0  0
   -1.5000    0.0000    0.0000 N   0  0  0  0  0  0  0  0  0  0  0  0
   -0.7500   -1.2990    0.0000 N   0  0  0  0  0  0  0  0  0  0  0  0
    0.8899   -6.5665    0.0000 C   0  0  0  0  0  0  0  0  0  0  0  0
  1  2  1  0
  2  3  1  0
  3  4  1  0
  4  5  1  0
  5  6  1  0
  6  7  2  0
  6  8  1  0
  8  9  1  0
  9 10  2  0
 10 11  1  0
 11 12  2  0
 12 13  1  0
 13 14  2  0
  5 15  1  0
 15  2  1  0
 14  9  1  0
M  END
>  <Title>  (1081) 
idABNQgen6

$$$$

     RDKit          2D

 27 30  0  0  0  0  0  0  0  0999 V2000
   -3.1965   -1.7857    0.0000 C   0  0  0  0  0  0  0  0  0  0  0  0
   -1.8107   -2.3597    0.0000 C   0  0  0  0  0  0  0  0  0  0  0  0
   -1.8107   -3.8597    0.0000 C   0  0  0  0  0  0  0  0  0  0  0  0
   -0.7500   -4.9204    0.0000 C   0  0  0  0  0  0  0  0  0  0  0  0
    0.7500   -4.9204    0.0000 C   0  0  0  0  0  0  0  0  0  0  0  0
    1.3240   -6.3062    0.0000 C   0  0  0  0  0  0  0  0  0  0  0  0
    2.8112   -6.5020    0.0000 O   0  0  0  0  0  0  0  0  0  0  0  0
    0.4109   -7.4962    0.0000 N   0  0  0  0  0  0  0  0  0  0  0  0
    0.9849   -8.8820    0.0000 C   0  0  0  0  0  0  0  0  0  0  0  0
    0.0718  -10.0721    0.0000 N   0  0  0  0  0  0  0  0  0  0  0  0
    0.6458  -11.4579    0.0000 N   0  0  0  0  0  0  0  0  0  0  0  0
    2.1330  -11.6537    0.0000 N   0  0  0  0  0  0  0  0  0  0  0  0
    3.0461  -10.4636    0.0000 N   0  0  0  0  0  0  0  0  0  0  0  0
    2.4721   -9.0778    0.0000 N   0  0  0  0  0  0  0  0  0  0  0  0
    1.8107   -3.8597    0.0000 C   0  0  0  0  0  0  0  0  0  0  0  0
    3.1097   -4.6097    0.0000 C   0  0  0  0  0  0  0  0  0  0  0  0
    4.4087   -3.8597    0.0000 C   0  0  0  0  0  0  0  0  0  0  0  0
    4.4087   -2.3597    0.0000 C   0  0  0  0  0  0  0  0  0  0  0  0
    5.7078   -1.6097    0.0000 O   0  0  0  0  0  0  0  0  0  0  0  0
    3.1097   -1.6097    0.0000 C   0  0  0  0  0  0  0  0  0  0  0  0
    1.8107   -2.3597    0.0000 C   0  0  0  0  0  0  0  0  0  0  0  0
    0.7500   -1.2990    0.0000 C   0  0  0  0  0  0  0  0  0  0  0  0
    1.5000    0.0000    0.0000 C   0  0  0  0  0  0  0  0  0  0  0  0
    0.7500    1.2990    0.0000 C   0  0  0  0  0  0  0  0  0  0  0  0
   -0.7500    1.2990    0.0000 C   0  0  0  0  0  0  0  0  0  0  0  0
   -1.5000    0.0000    0.0000 C   0  0  0  0  0  0  0  0  0  0  0  0
   -0.7500   -1.2990    0.0000 C   0  0  0  0  0  0  0  0  0  0  0  0
  1  2  1  0
  2  3  1  0
  3  4  1  0
  4  5  1  0
  5  6  1  0
  6  7  2  0
  6  8  1  0
  8  9  1  0
  9 10  2  0
 10 11  1  0
 11 12  2  0
 12 13  1  0
 13 14  2  0
  5 15  1  0
 15 16  2  0
 16 17  1  0
 17 18  2  0
 18 19  1  0
 18 20  1  0
 20 21  2  0
 21 22  1  0
 22 23  2  0
 23 24  1  0
 24 25  2  0
 25 26  1  0
 26 27  2  0
 27  2  1  0
 14  9  1  0
 21 15  1  0
 27 22  1  0
M  END
>  <Title>  (1082) 
idABNRgen6

$$$$

     RDKit          2D

  5  4  0  0  0  0  0  0  0  0999 V2000
    0.0000    0.0000    0.0000 C   0  0  0  0  0  0  0  0  0  0  0  0
    1.2990    0.7500    0.0000 C   0  0  0  0  0  0  0  0  0  0  0  0
    2.5981   -0.0000    0.0000 C   0  0  0  0  0  0  0  0  0  0  0  0
    3.8971    0.7500    0.0000 C   0  0  0  0  0  0  0  0  0  0  0  0
    2.5981   -1.5000    0.0000 N   0  0  0  0  0  0  0  0  0  0  0  0
  1  2  1  0
  2  3  2  3
  3  4  1  0
  3  5  1  0
M  END
>  <Title>  (1083) 
idABNSgen6

$$$$

     RDKit          2D

 26 29  0  0  0  0  0  0  0  0999 V2000
   -0.0000   -6.0850    0.0000 C   0  0  0  0  0  0  0  0  0  0  0  0
   -0.0000   -4.5850    0.0000 C   0  0  0  0  0  0  0  0  0  0  0  0
    1.3515   -3.9342    0.0000 C   0  0  0  0  0  0  0  0  0  0  0  0
    1.6852   -2.4718    0.0000 C   0  0  0  0  0  0  0  0  0  0  0  0
    3.1476   -2.1380    0.0000 C   0  0  0  0  0  0  0  0  0  0  0  0
    0.7500   -1.2990    0.0000 C   0  0  0  0  0  0  0  0  0  0  0  0
    1.5000    0.0000    0.0000 C   0  0  0  0  0  0  0  0  0  0  0  0
    0.7500    1.2990    0.0000 C   0  0  0  0  0  0  0  0  0  0  0  0
   -0.7500    1.2990    0.0000 C   0  0  0  0  0  0  0  0  0  0  0  0
   -1.5000    0.0000    0.0000 C   0  0  0  0  0  0  0  0  0  0  0  0
   -0.7500   -1.2990    0.0000 C   0  0  0  0  0  0  0  0  0  0  0  0
   -1.6852   -2.4718    0.0000 N   0  0  0  0  0  0  0  0  0  0  0  0
   -3.1476   -2.1380    0.0000 C   0  0  0  0  0  0  0  0  0  0  0  0
   -3.5898   -0.7046    0.0000 O   0  0  0  0  0  0  0  0  0  0  0  0
   -4.1679   -3.2376    0.0000 C   0  0  0  0  0  0  0  0  0  0  0  0
   -5.6668   -3.2937    0.0000 C   0  0  0  0  0  0  0  0  0  0  0  0
   -5.6107   -4.7926    0.0000 C   0  0  0  0  0  0  0  0  0  0  0  0
   -6.6310   -5.8922    0.0000 C   0  0  0  0  0  0  0  0  0  0  0  0
   -8.0934   -5.5584    0.0000 C   0  0  0  0  0  0  0  0  0  0  0  0
   -9.1137   -6.6580    0.0000 C   0  0  0  0  0  0  0  0  0  0  0  0
   -8.6715   -8.0914    0.0000 C   0  0  0  0  0  0  0  0  0  0  0  0
   -7.2091   -8.4251    0.0000 C   0  0  0  0  0  0  0  0  0  0  0  0
   -6.1889   -7.3256    0.0000 C   0  0  0  0  0  0  0  0  0  0  0  0
   -4.1118   -4.7365    0.0000 C   0  0  0  0  0  0  0  0  0  0  0  0
   -3.0122   -5.7568    0.0000 O   0  0  0  0  0  0  0  0  0  0  0  0
   -1.3515   -3.9342    0.0000 C   0  0  0  0  0  0  0  0  0  0  0  0
  1  2  1  0
  2  3  1  0
  3  4  1  0
  4  5  1  0
  4  6  1  0
  6  7  2  0
  7  8  1  0
  8  9  2  0
  9 10  1  0
 10 11  2  0
 11 12  1  0
 12 13  1  0
 13 14  2  0
 13 15  1  0
 15 16  2  0
 16 17  1  0
 17 18  1  0
 18 19  2  0
 19 20  1  0
 20 21  2  0
 21 22  1  0
 22 23  2  0
 17 24  1  0
 24 25  2  0
 12 26  1  0
 26  2  1  0
 11  6  1  0
 24 15  1  0
 23 18  1  0
M  END
>  <Title>  (1084) 
idABNTgen6

$$$$

     RDKit          2D

 11 12  0  0  0  0  0  0  0  0999 V2000
    3.5260   -1.2990    0.0000 C   0  0  0  0  0  0  0  0  0  0  0  0
    2.7760    0.0000    0.0000 O   0  0  0  0  0  0  0  0  0  0  0  0
    1.2760    0.0000    0.0000 C   0  0  0  0  0  0  0  0  0  0  0  0
    0.3943    1.2135    0.0000 C   0  0  0  0  0  0  0  0  0  0  0  0
   -1.0323    0.7500    0.0000 C   0  0  0  0  0  0  0  0  0  0  0  0
   -1.0323   -0.7500    0.0000 C   0  0  0  0  0  0  0  0  0  0  0  0
   -1.9140   -1.9635    0.0000 C   0  0  0  0  0  0  0  0  0  0  0  0
   -1.0323   -3.1771    0.0000 C   0  0  0  0  0  0  0  0  0  0  0  0
   -1.4958   -4.6036    0.0000 O   0  0  0  0  0  0  0  0  0  0  0  0
    0.3943   -2.7135    0.0000 N   0  0  0  0  0  0  0  0  0  0  0  0
    0.3943   -1.2135    0.0000 C   0  0  0  0  0  0  0  0  0  0  0  0
  1  2  1  0
  2  3  1  0
  3  4  2  0
  4  5  1  0
  5  6  2  0
  6  7  1  0
  7  8  2  0
  8  9  1  0
  8 10  1  0
 10 11  2  0
 11  3  1  0
 11  6  1  0
M  END
>  <Title>  (1085) 
idABNUgen6

$$$$

     RDKit          2D

 27 30  0  0  0  0  0  0  0  0999 V2000
   -2.3093   -5.6662    0.0000 C   0  0  0  0  0  0  0  0  0  0  0  0
   -2.1785   -4.1719    0.0000 C   0  0  0  0  0  0  0  0  0  0  0  0
   -0.7296   -3.7837    0.0000 C   0  0  0  0  0  0  0  0  0  0  0  0
    0.1307   -2.5550    0.0000 C   0  0  0  0  0  0  0  0  0  0  0  0
   -0.0000   -1.0607    0.0000 C   0  0  0  0  0  0  0  0  0  0  0  0
    1.0607    0.0000    0.0000 C   0  0  0  0  0  0  0  0  0  0  0  0
    2.5607    0.0000    0.0000 O   0  0  0  0  0  0  0  0  0  0  0  0
    0.0000    1.0607    0.0000 N   0  0  0  0  0  0  0  0  0  0  0  0
   -1.0607    0.0000    0.0000 C   0  0  0  0  0  0  0  0  0  0  0  0
   -2.5550    0.1307    0.0000 N   0  0  0  0  0  0  0  0  0  0  0  0
   -3.7837   -0.7296    0.0000 N   0  0  0  0  0  0  0  0  0  0  0  0
   -5.0124    0.1307    0.0000 N   0  0  0  0  0  0  0  0  0  0  0  0
   -6.4307   -0.3576    0.0000 C   0  0  0  0  0  0  0  0  0  0  0  0
   -7.3334    0.8403    0.0000 C   0  0  0  0  0  0  0  0  0  0  0  0
   -6.4730    2.0691    0.0000 C   0  0  0  0  0  0  0  0  0  0  0  0
   -6.9614    3.4873    0.0000 C   0  0  0  0  0  0  0  0  0  0  0  0
   -8.4338    3.7736    0.0000 O   0  0  0  0  0  0  0  0  0  0  0  0
   -5.9773    4.6194    0.0000 N   0  0  0  0  0  0  0  0  0  0  0  0
   -6.4657    6.0377    0.0000 C   0  0  0  0  0  0  0  0  0  0  0  0
   -5.4816    7.1697    0.0000 C   0  0  0  0  0  0  0  0  0  0  0  0
   -5.9699    8.5880    0.0000 C   0  0  0  0  0  0  0  0  0  0  0  0
   -7.4424    8.8742    0.0000 C   0  0  0  0  0  0  0  0  0  0  0  0
   -8.4265    7.7422    0.0000 C   0  0  0  0  0  0  0  0  0  0  0  0
   -7.9381    6.3239    0.0000 C   0  0  0  0  0  0  0  0  0  0  0  0
   -5.0386    1.6305    0.0000 C   0  0  0  0  0  0  0  0  0  0  0  0
   -4.1719   -2.1785    0.0000 C   0  0  0  0  0  0  0  0  0  0  0  0
   -3.5380   -3.5380    0.0000 C   0  0  0  0  0  0  0  0  0  0  0  0
  1  2  1  0
  2  3  1  0
  3  4  1  0
  4  5  1  0
  5  6  1  0
  6  7  2  0
  6  8  1  0
  8  9  1  0
  9 10  2  0
 10 11  1  0
 11 12  1  0
 12 13  1  0
 13 14  1  0
 14 15  1  0
 15 16  1  0
 16 17  2  0
 16 18  1  0
 18 19  1  0
 19 20  2  0
 20 21  1  0
 21 22  2  0
 22 23  1  0
 23 24  2  0
 15 25  1  0
 11 26  1  0
 26 27  1  0
 27  2  1  0
  9  5  1  0
 25 12  1  0
 24 19  1  0
M  END
>  <Title>  (1086) 
idABNVgen6

$$$$

     RDKit          2D

 19 19  0  0  0  0  0  0  0  0999 V2000
    4.5567    0.0000    0.0000 C   0  0  0  0  0  0  0  0  0  0  0  0
    4.3098    1.4795    0.0000 C   0  0  0  0  0  0  0  0  0  0  0  0
    3.5958    2.7988    0.0000 C   0  0  0  0  0  0  0  0  0  0  0  0
    2.4923    3.8147    0.0000 C   0  0  0  0  0  0  0  0  0  0  0  0
    1.1186    4.4172    0.0000 C   0  0  0  0  0  0  0  0  0  0  0  0
   -0.3763    4.5411    0.0000 C   0  0  0  0  0  0  0  0  0  0  0  0
   -1.8304    4.1729    0.0000 C   0  0  0  0  0  0  0  0  0  0  0  0
   -3.0861    3.3524    0.0000 C   0  0  0  0  0  0  0  0  0  0  0  0
   -4.0075    2.1687    0.0000 C   0  0  0  0  0  0  0  0  0  0  0  0
   -4.4945    0.7500    0.0000 C   0  0  0  0  0  0  0  0  0  0  0  0
   -4.4945   -0.7500    0.0000 C   0  0  0  0  0  0  0  0  0  0  0  0
   -4.0075   -2.1687    0.0000 C   0  0  0  0  0  0  0  0  0  0  0  0
   -3.0861   -3.3524    0.0000 C   0  0  0  0  0  0  0  0  0  0  0  0
   -1.8304   -4.1729    0.0000 C   0  0  0  0  0  0  0  0  0  0  0  0
   -0.3763   -4.5411    0.0000 C   0  0  0  0  0  0  0  0  0  0  0  0
    1.1186   -4.4172    0.0000 C   0  0  0  0  0  0  0  0  0  0  0  0
    2.4923   -3.8147    0.0000 C   0  0  0  0  0  0  0  0  0  0  0  0
    3.5958   -2.7988    0.0000 C   0  0  0  0  0  0  0  0  0  0  0  0
    4.3098   -1.4795    0.0000 C   0  0  0  0  0  0  0  0  0  0  0  0
  1  2  1  0
  2  3  1  0
  3  4  1  0
  4  5  1  0
  5  6  1  0
  6  7  1  0
  7  8  1  0
  8  9  1  0
  9 10  1  0
 10 11  1  0
 11 12  1  0
 12 13  1  0
 13 14  1  0
 14 15  1  0
 15 16  1  0
 16 17  1  0
 17 18  1  0
 18 19  1  0
 19  1  1  0
M  END
>  <Title>  (1087) 
idABNWgen6

$$$$

     RDKit          2D

 19 19  0  0  0  0  0  0  0  0999 V2000
    5.8191    0.0000    0.0000 C   0  0  0  0  0  0  0  0  0  0  0  0
    4.3191    0.0000    0.0000 C   0  0  0  0  0  0  0  0  0  0  0  0
    4.0586   -1.4772    0.0000 C   0  0  0  0  0  0  0  0  0  0  0  0
    3.3086   -2.7762    0.0000 C   0  0  0  0  0  0  0  0  0  0  0  0
    2.1595   -3.7404    0.0000 C   0  0  0  0  0  0  0  0  0  0  0  0
    0.7500   -4.2535    0.0000 C   0  0  0  0  0  0  0  0  0  0  0  0
   -0.7500   -4.2535    0.0000 C   0  0  0  0  0  0  0  0  0  0  0  0
   -2.1595   -3.7404    0.0000 C   0  0  0  0  0  0  0  0  0  0  0  0
   -3.3086   -2.7762    0.0000 C   0  0  0  0  0  0  0  0  0  0  0  0
   -4.0586   -1.4772    0.0000 C   0  0  0  0  0  0  0  0  0  0  0  0
   -4.3191    0.0000    0.0000 C   0  0  0  0  0  0  0  0  0  0  0  0
   -4.0586    1.4772    0.0000 C   0  0  0  0  0  0  0  0  0  0  0  0
   -3.3086    2.7762    0.0000 C   0  0  0  0  0  0  0  0  0  0  0  0
   -2.1595    3.7404    0.0000 C   0  0  0  0  0  0  0  0  0  0  0  0
   -0.7500    4.2535    0.0000 C   0  0  0  0  0  0  0  0  0  0  0  0
    0.7500    4.2535    0.0000 C   0  0  0  0  0  0  0  0  0  0  0  0
    2.1595    3.7404    0.0000 C   0  0  0  0  0  0  0  0  0  0  0  0
    3.3086    2.7762    0.0000 C   0  0  0  0  0  0  0  0  0  0  0  0
    4.0586    1.4772    0.0000 C   0  0  0  0  0  0  0  0  0  0  0  0
  1  2  1  0
  2  3  1  0
  3  4  1  0
  4  5  2  0
  5  6  1  0
  6  7  2  0
  7  8  1  0
  8  9  2  0
  9 10  1  0
 10 11  2  0
 11 12  1  0
 12 13  2  0
 13 14  1  0
 14 15  1  0
 15 16  1  0
 16 17  1  0
 17 18  1  0
 18 19  1  0
 19  2  1  0
M  END
>  <Title>  (1088) 
idABNXgen6

$$$$

     RDKit          2D

 30 33  0  0  0  0  0  0  0  0999 V2000
   -1.3240   -6.3062    0.0000 C   0  0  0  0  0  0  0  0  0  0  0  0
   -0.7500   -4.9204    0.0000 C   0  0  0  0  0  0  0  0  0  0  0  0
    0.7500   -4.9204    0.0000 C   0  0  0  0  0  0  0  0  0  0  0  0
    1.8107   -3.8597    0.0000 C   0  0  0  0  0  0  0  0  0  0  0  0
    1.8107   -2.3597    0.0000 C   0  0  0  0  0  0  0  0  0  0  0  0
    3.1965   -1.7857    0.0000 N   0  0  0  0  0  0  0  0  0  0  0  0
    3.2806   -0.2880    0.0000 C   0  0  0  0  0  0  0  0  0  0  0  0
    4.5039    0.5800    0.0000 C   0  0  0  0  0  0  0  0  0  0  0  0
    5.9453    0.1647    0.0000 C   0  0  0  0  0  0  0  0  0  0  0  0
    6.9448    1.2832    0.0000 N   0  0  0  0  0  0  0  0  0  0  0  0
    8.4132    0.9768    0.0000 C   0  0  0  0  0  0  0  0  0  0  0  0
    6.4760    2.7080    0.0000 C   0  0  0  0  0  0  0  0  0  0  0  0
    6.5193   -1.2211    0.0000 C   0  0  0  0  0  0  0  0  0  0  0  0
    8.0170   -1.3052    0.0000 O   0  0  0  0  0  0  0  0  0  0  0  0
    5.7937   -2.5339    0.0000 N   0  0  0  0  0  0  0  0  0  0  0  0
    4.3149   -2.7852    0.0000 C   0  0  0  0  0  0  0  0  0  0  0  0
    3.8997   -4.2266    0.0000 O   0  0  0  0  0  0  0  0  0  0  0  0
    0.7500   -1.2990    0.0000 C   0  0  0  0  0  0  0  0  0  0  0  0
    1.5000    0.0000    0.0000 C   0  0  0  0  0  0  0  0  0  0  0  0
    0.7500    1.2990    0.0000 C   0  0  0  0  0  0  0  0  0  0  0  0
   -0.7500    1.2990    0.0000 C   0  0  0  0  0  0  0  0  0  0  0  0
   -1.5000    0.0000    0.0000 C   0  0  0  0  0  0  0  0  0  0  0  0
   -0.7500   -1.2990    0.0000 C   0  0  0  0  0  0  0  0  0  0  0  0
   -1.8107   -2.3597    0.0000 C   0  0  0  0  0  0  0  0  0  0  0  0
   -3.1097   -1.6097    0.0000 C   0  0  0  0  0  0  0  0  0  0  0  0
   -4.4087   -2.3597    0.0000 C   0  0  0  0  0  0  0  0  0  0  0  0
   -4.4087   -3.8597    0.0000 C   0  0  0  0  0  0  0  0  0  0  0  0
   -5.7078   -4.6097    0.0000 O   0  0  0  0  0  0  0  0  0  0  0  0
   -3.1097   -4.6097    0.0000 C   0  0  0  0  0  0  0  0  0  0  0  0
   -1.8107   -3.8597    0.0000 C   0  0  0  0  0  0  0  0  0  0  0  0
  1  2  1  0
  2  3  2  0
  3  4  1  0
  4  5  2  0
  5  6  1  0
  6  7  1  0
  7  8  1  0
  8  9  1  0
  9 10  1  0
 10 11  1  0
 10 12  1  0
  9 13  1  0
 13 14  2  0
 13 15  1  0
 15 16  1  0
 16 17  2  0
  5 18  1  0
 18 19  2  0
 19 20  1  0
 20 21  2  0
 21 22  1  0
 22 23  2  0
 23 24  1  0
 24 25  2  0
 25 26  1  0
 26 27  2  0
 27 28  1  0
 27 29  1  0
 29 30  2  0
 30  2  1  0
 16  6  1  0
 23 18  1  0
 30 24  1  0
M  END
>  <Title>  (1089) 
idABNYgen6

$$$$

     RDKit          2D

 32 35  0  0  0  0  0  0  0  0999 V2000
   -4.8268    0.5421    0.0000 C   0  0  0  0  0  0  0  0  0  0  0  0
   -3.8231    1.6568    0.0000 C   0  0  0  0  0  0  0  0  0  0  0  0
   -4.7048    2.8703    0.0000 C   0  0  0  0  0  0  0  0  0  0  0  0
   -5.0167    4.3375    0.0000 C   0  0  0  0  0  0  0  0  0  0  0  0
   -6.5167    4.3375    0.0000 O   0  0  0  0  0  0  0  0  0  0  0  0
   -7.2667    5.6366    0.0000 C   0  0  0  0  0  0  0  0  0  0  0  0
   -6.5167    6.9356    0.0000 O   0  0  0  0  0  0  0  0  0  0  0  0
   -8.7667    5.6366    0.0000 C   0  0  0  0  0  0  0  0  0  0  0  0
   -9.5167    6.9356    0.0000 C   0  0  0  0  0  0  0  0  0  0  0  0
  -11.0167    6.9356    0.0000 C   0  0  0  0  0  0  0  0  0  0  0  0
  -11.7667    5.6366    0.0000 C   0  0  0  0  0  0  0  0  0  0  0  0
  -11.0167    4.3375    0.0000 C   0  0  0  0  0  0  0  0  0  0  0  0
   -9.5167    4.3375    0.0000 C   0  0  0  0  0  0  0  0  0  0  0  0
   -4.7048    5.8048    0.0000 C   0  0  0  0  0  0  0  0  0  0  0  0
   -3.8231    7.0183    0.0000 C   0  0  0  0  0  0  0  0  0  0  0  0
   -2.5241    7.7683    0.0000 C   0  0  0  0  0  0  0  0  0  0  0  0
   -1.0323    7.9251    0.0000 C   0  0  0  0  0  0  0  0  0  0  0  0
   -0.5688    9.3517    0.0000 C   0  0  0  0  0  0  0  0  0  0  0  0
   -1.2497   10.6882    0.0000 O   0  0  0  0  0  0  0  0  0  0  0  0
    0.8578    8.8881    0.0000 O   0  0  0  0  0  0  0  0  0  0  0  0
    0.3943    7.4616    0.0000 C   0  0  0  0  0  0  0  0  0  0  0  0
    1.5090    6.4579    0.0000 C   0  0  0  0  0  0  0  0  0  0  0  0
    2.1191    5.0875    0.0000 C   0  0  0  0  0  0  0  0  0  0  0  0
    2.1191    3.5875    0.0000 C   0  0  0  0  0  0  0  0  0  0  0  0
    1.5090    2.2172    0.0000 C   0  0  0  0  0  0  0  0  0  0  0  0
    0.3943    1.2135    0.0000 C   0  0  0  0  0  0  0  0  0  0  0  0
    1.2760    0.0000    0.0000 C   0  0  0  0  0  0  0  0  0  0  0  0
    0.3943   -1.2135    0.0000 C   0  0  0  0  0  0  0  0  0  0  0  0
   -1.0323   -0.7500    0.0000 C   0  0  0  0  0  0  0  0  0  0  0  0
   -1.0323    0.7500    0.0000 C   0  0  0  0  0  0  0  0  0  0  0  0
   -2.5241    0.9068    0.0000 C   0  0  0  0  0  0  0  0  0  0  0  0
   -2.9876   -0.5198    0.0000 O   0  0  0  0  0  0  0  0  0  0  0  0
  1  2  1  0
  2  3  1  0
  3  4  2  0
  4  5  1  0
  5  6  1  0
  6  7  2  0
  6  8  1  0
  8  9  2  0
  9 10  1  0
 10 11  2  0
 11 12  1  0
 12 13  2  0
  4 14  1  0
 14 15  2  0
 15 16  1  0
 16 17  2  0
 17 18  1  0
 18 19  2  0
 18 20  1  0
 20 21  1  0
 21 22  2  0
 22 23  1  0
 23 24  2  0
 24 25  1  0
 25 26  2  0
 26 27  1  0
 27 28  2  0
 28 29  1  0
 29 30  2  0
 30 31  1  0
 31 32  2  0
 31  2  1  0
 13  8  1  0
 21 17  1  0
 30 26  1  0
M  END
>  <Title>  (1090) 
idABNZgen6

$$$$

     RDKit          2D

 17 19  0  0  0  0  0  0  0  0999 V2000
    3.7500   -1.2990    0.0000 C   0  0  0  0  0  0  0  0  0  0  0  0
    3.0000    0.0000    0.0000 O   0  0  0  0  0  0  0  0  0  0  0  0
    1.5000    0.0000    0.0000 C   0  0  0  0  0  0  0  0  0  0  0  0
    0.7500   -1.2990    0.0000 C   0  0  0  0  0  0  0  0  0  0  0  0
   -0.7500   -1.2990    0.0000 C   0  0  0  0  0  0  0  0  0  0  0  0
   -1.5000    0.0000    0.0000 C   0  0  0  0  0  0  0  0  0  0  0  0
   -3.0000    0.0000    0.0000 C   0  0  0  0  0  0  0  0  0  0  0  0
   -4.2990   -0.7500    0.0000 C   0  0  0  0  0  0  0  0  0  0  0  0
   -4.2990    0.7500    0.0000 C   0  0  0  0  0  0  0  0  0  0  0  0
   -0.7500    1.2990    0.0000 C   0  0  0  0  0  0  0  0  0  0  0  0
    0.7500    1.2990    0.0000 C   0  0  0  0  0  0  0  0  0  0  0  0
    1.5000    2.5981    0.0000 C   0  0  0  0  0  0  0  0  0  0  0  0
    3.0000    2.5981    0.0000 C   0  0  0  0  0  0  0  0  0  0  0  0
    3.8817    3.8116    0.0000 C   0  0  0  0  0  0  0  0  0  0  0  0
    5.3083    3.3481    0.0000 C   0  0  0  0  0  0  0  0  0  0  0  0
    5.3083    1.8481    0.0000 C   0  0  0  0  0  0  0  0  0  0  0  0
    3.8817    1.3846    0.0000 C   0  0  0  0  0  0  0  0  0  0  0  0
  1  2  1  0
  2  3  1  0
  3  4  2  0
  4  5  1  0
  5  6  2  0
  6  7  1  0
  7  8  1  0
  8  9  1  0
  6 10  1  0
 10 11  1  0
 11 12  1  0
 12 13  1  0
 13 14  2  0
 14 15  1  0
 15 16  2  0
 16 17  1  0
 11  3  1  0
 17 13  1  0
  9  7  1  0
M  END
>  <Title>  (1091) 
idABOAgen6

$$$$

     RDKit          2D

 12 13  0  0  0  0  0  0  0  0999 V2000
    3.0000    0.0000    0.0000 C   0  0  0  0  0  0  0  0  0  0  0  0
    1.5000    0.0000    0.0000 C   0  0  0  0  0  0  0  0  0  0  0  0
    0.7500   -1.2990    0.0000 C   0  0  0  0  0  0  0  0  0  0  0  0
   -0.7500   -1.2990    0.0000 C   0  0  0  0  0  0  0  0  0  0  0  0
   -1.5000    0.0000    0.0000 C   0  0  0  0  0  0  0  0  0  0  0  0
   -2.9672    0.3119    0.0000 C   0  0  0  0  0  0  0  0  0  0  0  0
   -4.0819   -0.6918    0.0000 O   0  0  0  0  0  0  0  0  0  0  0  0
   -3.1240    1.8037    0.0000 N   0  0  0  0  0  0  0  0  0  0  0  0
   -1.7537    2.4138    0.0000 C   0  0  0  0  0  0  0  0  0  0  0  0
   -1.4418    3.8810    0.0000 O   0  0  0  0  0  0  0  0  0  0  0  0
   -0.7500    1.2990    0.0000 N   0  0  0  0  0  0  0  0  0  0  0  0
    0.7500    1.2990    0.0000 C   0  0  0  0  0  0  0  0  0  0  0  0
  1  2  1  0
  2  3  2  0
  3  4  1  0
  4  5  2  0
  5  6  1  0
  6  7  2  0
  6  8  1  0
  8  9  1  0
  9 10  2  0
  9 11  1  0
 11 12  1  0
 12  2  1  0
 11  5  1  0
M  END
>  <Title>  (1092) 
idABOBgen6

$$$$

     RDKit          2D

 18 19  0  0  0  0  0  0  0  0999 V2000
    5.1406    1.9423    0.0000 C   0  0  0  0  0  0  0  0  0  0  0  0
    3.9271    1.0607    0.0000 C   0  0  0  0  0  0  0  0  0  0  0  0
    4.3906   -0.3659    0.0000 C   0  0  0  0  0  0  0  0  0  0  0  0
    3.9271   -1.7925    0.0000 C   0  0  0  0  0  0  0  0  0  0  0  0
    2.7135   -2.6742    0.0000 C   0  0  0  0  0  0  0  0  0  0  0  0
    1.2135   -2.6742    0.0000 C   0  0  0  0  0  0  0  0  0  0  0  0
   -0.0000   -1.0607    0.0000 C   0  0  0  0  0  0  0  0  0  0  0  0
    1.0607    0.0000    0.0000 C   0  0  0  0  0  0  0  0  0  0  0  0
    0.0000    1.0607    0.0000 C   0  0  0  0  0  0  0  0  0  0  0  0
    1.2135    1.9423    0.0000 C   0  0  0  0  0  0  0  0  0  0  0  0
    2.7135    1.9423    0.0000 C   0  0  0  0  0  0  0  0  0  0  0  0
    3.1771    3.3689    0.0000 O   0  0  0  0  0  0  0  0  0  0  0  0
   -1.0607    0.0000    0.0000 N   0  0  0  0  0  0  0  0  0  0  0  0
   -2.5607    0.0000    0.0000 C   0  0  0  0  0  0  0  0  0  0  0  0
   -3.3107   -1.2990    0.0000 O   0  0  0  0  0  0  0  0  0  0  0  0
   -3.3107    1.2990    0.0000 C   0  0  0  0  0  0  0  0  0  0  0  0
   -4.8107    1.2990    0.0000 C   0  0  0  0  0  0  0  0  0  0  0  0
   -2.5607    2.5981    0.0000 C   0  0  0  0  0  0  0  0  0  0  0  0
  1  2  1  0
  2  3  2  0
  3  4  1  0
  4  5  2  0
  5  6  1  0
  6  7  2  0
  7  8  1  0
  8  9  1  0
  9 10  1  0
 10 11  1  0
 11 12  2  0
  9 13  1  0
 13 14  1  0
 14 15  2  0
 14 16  1  0
 16 17  1  0
 16 18  1  0
 11  2  1  0
 13  7  1  0
M  END
>  <Title>  (1093) 
idABOCgen6

$$$$

     RDKit          2D

 29 32  0  0  0  0  0  0  0  0999 V2000
   -2.3737   -6.1885    0.0000 C   0  0  0  0  0  0  0  0  0  0  0  0
   -1.4095   -5.0395    0.0000 C   0  0  0  0  0  0  0  0  0  0  0  0
   -0.0000   -5.5525    0.0000 C   0  0  0  0  0  0  0  0  0  0  0  0
    1.4095   -5.0395    0.0000 C   0  0  0  0  0  0  0  0  0  0  0  0
    2.1595   -3.7404    0.0000 C   0  0  0  0  0  0  0  0  0  0  0  0
    1.8991   -2.2632    0.0000 C   0  0  0  0  0  0  0  0  0  0  0  0
    3.1981   -1.5132    0.0000 C   0  0  0  0  0  0  0  0  0  0  0  0
    3.1981   -0.0132    0.0000 O   0  0  0  0  0  0  0  0  0  0  0  0
    4.4971   -2.2632    0.0000 N   0  0  0  0  0  0  0  0  0  0  0  0
    5.7962   -1.5132    0.0000 C   0  0  0  0  0  0  0  0  0  0  0  0
    7.0952   -2.2632    0.0000 N   0  0  0  0  0  0  0  0  0  0  0  0
    8.3943   -1.5132    0.0000 N   0  0  0  0  0  0  0  0  0  0  0  0
    8.3943   -0.0132    0.0000 N   0  0  0  0  0  0  0  0  0  0  0  0
    7.0952    0.7368    0.0000 N   0  0  0  0  0  0  0  0  0  0  0  0
    5.7962   -0.0132    0.0000 N   0  0  0  0  0  0  0  0  0  0  0  0
    0.7500   -1.2990    0.0000 C   0  0  0  0  0  0  0  0  0  0  0  0
    1.5000    0.0000    0.0000 C   0  0  0  0  0  0  0  0  0  0  0  0
    0.7500    1.2990    0.0000 C   0  0  0  0  0  0  0  0  0  0  0  0
   -0.7500    1.2990    0.0000 C   0  0  0  0  0  0  0  0  0  0  0  0
   -1.5000    0.0000    0.0000 C   0  0  0  0  0  0  0  0  0  0  0  0
   -0.7500   -1.2990    0.0000 C   0  0  0  0  0  0  0  0  0  0  0  0
   -1.8991   -2.2632    0.0000 C   0  0  0  0  0  0  0  0  0  0  0  0
   -3.0481   -1.2990    0.0000 C   0  0  0  0  0  0  0  0  0  0  0  0
   -4.4577   -1.8121    0.0000 C   0  0  0  0  0  0  0  0  0  0  0  0
   -4.7181   -3.2893    0.0000 C   0  0  0  0  0  0  0  0  0  0  0  0
   -6.1277   -3.8023    0.0000 C   0  0  0  0  0  0  0  0  0  0  0  0
   -7.5372   -4.3153    0.0000 N   0  0  0  0  0  0  0  0  0  0  0  0
   -3.5691   -4.2535    0.0000 C   0  0  0  0  0  0  0  0  0  0  0  0
   -2.1595   -3.7404    0.0000 C   0  0  0  0  0  0  0  0  0  0  0  0
  1  2  1  0
  2  3  1  0
  3  4  1  0
  4  5  1  0
  5  6  1  0
  6  7  1  0
  7  8  2  0
  7  9  1  0
  9 10  1  0
 10 11  2  0
 11 12  1  0
 12 13  2  0
 13 14  1  0
 14 15  2  0
  6 16  1  0
 16 17  2  0
 17 18  1  0
 18 19  2  0
 19 20  1  0
 20 21  2  0
 21 22  1  0
 22 23  2  0
 23 24  1  0
 24 25  2  0
 25 26  1  0
 26 27  3  0
 25 28  1  0
 28 29  2  0
 29  2  1  0
 15 10  1  0
 21 16  1  0
 29 22  1  0
M  END
>  <Title>  (1094) 
idABODgen6

$$$$

     RDKit          2D

  6  5  0  0  0  0  0  0  0  0999 V2000
    0.0000    0.0000    0.0000 C   0  0  0  0  0  0  0  0  0  0  0  0
    1.2990    0.7500    0.0000 C   0  0  0  0  0  0  0  0  0  0  0  0
    1.2990    2.2500    0.0000 O   0  0  0  0  0  0  0  0  0  0  0  0
    2.5981   -0.0000    0.0000 C   0  0  0  0  0  0  0  0  0  0  0  0
    3.8971    0.7500    0.0000 C   0  0  0  0  0  0  0  0  0  0  0  0
    2.5981   -1.5000    0.0000 O   0  0  0  0  0  0  0  0  0  0  0  0
  1  2  1  0
  2  3  2  0
  2  4  1  0
  4  5  1  0
  4  6  1  0
M  END
>  <Title>  (1095) 
idABOEgen6

$$$$

     RDKit          2D

 37 40  0  0  0  0  0  0  0  0999 V2000
   -5.5465   -3.3606    0.0000 C   0  0  0  0  0  0  0  0  0  0  0  0
   -4.1729   -3.9632    0.0000 C   0  0  0  0  0  0  0  0  0  0  0  0
   -4.5411   -5.4173    0.0000 C   0  0  0  0  0  0  0  0  0  0  0  0
   -4.4172   -6.9121    0.0000 C   0  0  0  0  0  0  0  0  0  0  0  0
   -3.8147   -8.2858    0.0000 C   0  0  0  0  0  0  0  0  0  0  0  0
   -2.7988   -9.3894    0.0000 C   0  0  0  0  0  0  0  0  0  0  0  0
   -1.4795  -10.1033    0.0000 C   0  0  0  0  0  0  0  0  0  0  0  0
   -0.0000  -10.3502    0.0000 C   0  0  0  0  0  0  0  0  0  0  0  0
    1.4795  -10.1033    0.0000 C   0  0  0  0  0  0  0  0  0  0  0  0
    2.7988   -9.3894    0.0000 C   0  0  0  0  0  0  0  0  0  0  0  0
    3.8147   -8.2858    0.0000 C   0  0  0  0  0  0  0  0  0  0  0  0
    4.4172   -6.9121    0.0000 C   0  0  0  0  0  0  0  0  0  0  0  0
    4.5411   -5.4173    0.0000 C   0  0  0  0  0  0  0  0  0  0  0  0
    4.1729   -3.9632    0.0000 C   0  0  0  0  0  0  0  0  0  0  0  0
    3.3524   -2.7074    0.0000 C   0  0  0  0  0  0  0  0  0  0  0  0
    2.1687   -1.7861    0.0000 C   0  0  0  0  0  0  0  0  0  0  0  0
    2.8826   -0.4669    0.0000 C   0  0  0  0  0  0  0  0  0  0  0  0
    2.0971    0.8110    0.0000 O   0  0  0  0  0  0  0  0  0  0  0  0
    4.3821   -0.4255    0.0000 N   0  0  0  0  0  0  0  0  0  0  0  0
    5.0960    0.8937    0.0000 C   0  0  0  0  0  0  0  0  0  0  0  0
    6.5954    0.9350    0.0000 N   0  0  0  0  0  0  0  0  0  0  0  0
    7.3094    2.2542    0.0000 N   0  0  0  0  0  0  0  0  0  0  0  0
    6.5238    3.5321    0.0000 N   0  0  0  0  0  0  0  0  0  0  0  0
    5.0244    3.4908    0.0000 N   0  0  0  0  0  0  0  0  0  0  0  0
    4.3105    2.1715    0.0000 N   0  0  0  0  0  0  0  0  0  0  0  0
    0.7500   -1.2990    0.0000 C   0  0  0  0  0  0  0  0  0  0  0  0
    1.5000    0.0000    0.0000 C   0  0  0  0  0  0  0  0  0  0  0  0
    0.7500    1.2990    0.0000 C   0  0  0  0  0  0  0  0  0  0  0  0
   -0.7500    1.2990    0.0000 C   0  0  0  0  0  0  0  0  0  0  0  0
   -1.5000    0.0000    0.0000 C   0  0  0  0  0  0  0  0  0  0  0  0
   -0.7500   -1.2990    0.0000 C   0  0  0  0  0  0  0  0  0  0  0  0
   -2.1687   -1.7861    0.0000 C   0  0  0  0  0  0  0  0  0  0  0  0
   -2.3748   -0.3003    0.0000 C   0  0  0  0  0  0  0  0  0  0  0  0
   -3.7645    0.2642    0.0000 C   0  0  0  0  0  0  0  0  0  0  0  0
   -4.9482   -0.6572    0.0000 C   0  0  0  0  0  0  0  0  0  0  0  0
   -4.7422   -2.1429    0.0000 C   0  0  0  0  0  0  0  0  0  0  0  0
   -3.3524   -2.7074    0.0000 C   0  0  0  0  0  0  0  0  0  0  0  0
  1  2  1  0
  2  3  1  0
  3  4  2  0
  4  5  1  0
  5  6  2  0
  6  7  1  0
  7  8  2  0
  8  9  1  0
  9 10  2  0
 10 11  1  0
 11 12  3  0
 12 13  1  0
 13 14  2  0
 14 15  1  0
 15 16  2  0
 16 17  1  0
 17 18  2  0
 17 19  1  0
 19 20  1  0
 20 21  2  0
 21 22  1  0
 22 23  2  0
 23 24  1  0
 24 25  2  0
 16 26  1  0
 26 27  2  0
 27 28  1  0
 28 29  2  0
 29 30  1  0
 30 31  2  0
 31 32  1  0
 32 33  2  0
 33 34  1  0
 34 35  2  0
 35 36  1  0
 36 37  2  0
 37  2  1  0
 25 20  1  0
 31 26  1  0
 37 32  1  0
M  END
>  <Title>  (1096) 
idABOFgen6

$$$$

     RDKit          2D

 36 40  0  0  0  0  0  0  0  0999 V2000
    3.7500   -1.2990    0.0000 C   0  0  0  0  0  0  0  0  0  0  0  0
    3.0000    0.0000    0.0000 O   0  0  0  0  0  0  0  0  0  0  0  0
    1.5000    0.0000    0.0000 C   0  0  0  0  0  0  0  0  0  0  0  0
    0.7500   -1.2990    0.0000 C   0  0  0  0  0  0  0  0  0  0  0  0
   -0.7500   -1.2990    0.0000 C   0  0  0  0  0  0  0  0  0  0  0  0
   -1.5000    0.0000    0.0000 C   0  0  0  0  0  0  0  0  0  0  0  0
   -3.0000    0.0000    0.0000 C   0  0  0  0  0  0  0  0  0  0  0  0
   -3.8817   -1.2135    0.0000 C   0  0  0  0  0  0  0  0  0  0  0  0
   -5.3083   -0.7500    0.0000 C   0  0  0  0  0  0  0  0  0  0  0  0
   -5.3083    0.7500    0.0000 C   0  0  0  0  0  0  0  0  0  0  0  0
   -6.5218    1.6317    0.0000 C   0  0  0  0  0  0  0  0  0  0  0  0
   -7.8921    1.0216    0.0000 O   0  0  0  0  0  0  0  0  0  0  0  0
   -6.3650    3.1235    0.0000 N   0  0  0  0  0  0  0  0  0  0  0  0
   -7.5785    4.0051    0.0000 C   0  0  0  0  0  0  0  0  0  0  0  0
   -9.0051    3.5416    0.0000 N   0  0  0  0  0  0  0  0  0  0  0  0
   -9.8868    4.7551    0.0000 N   0  0  0  0  0  0  0  0  0  0  0  0
   -9.0051    5.9687    0.0000 N   0  0  0  0  0  0  0  0  0  0  0  0
   -7.5785    5.5051    0.0000 N   0  0  0  0  0  0  0  0  0  0  0  0
   -6.3650    6.3868    0.0000 N   0  0  0  0  0  0  0  0  0  0  0  0
   -4.9947    5.7767    0.0000 C   0  0  0  0  0  0  0  0  0  0  0  0
   -3.7812    6.6584    0.0000 C   0  0  0  0  0  0  0  0  0  0  0  0
   -3.9379    8.1502    0.0000 N   0  0  0  0  0  0  0  0  0  0  0  0
   -2.7244    9.0319    0.0000 C   0  0  0  0  0  0  0  0  0  0  0  0
   -2.8812   10.5236    0.0000 O   0  0  0  0  0  0  0  0  0  0  0  0
   -1.3541    8.4217    0.0000 N   0  0  0  0  0  0  0  0  0  0  0  0
   -0.1406    9.3034    0.0000 C   0  0  0  0  0  0  0  0  0  0  0  0
    1.2297    8.6933    0.0000 C   0  0  0  0  0  0  0  0  0  0  0  0
    2.4433    9.5750    0.0000 C   0  0  0  0  0  0  0  0  0  0  0  0
    2.2865   11.0668    0.0000 C   0  0  0  0  0  0  0  0  0  0  0  0
    0.9162   11.6769    0.0000 C   0  0  0  0  0  0  0  0  0  0  0  0
   -0.2974   10.7952    0.0000 C   0  0  0  0  0  0  0  0  0  0  0  0
   -5.3083    8.7603    0.0000 C   0  0  0  0  0  0  0  0  0  0  0  0
   -6.5218    7.8786    0.0000 C   0  0  0  0  0  0  0  0  0  0  0  0
   -3.8817    1.2135    0.0000 C   0  0  0  0  0  0  0  0  0  0  0  0
   -0.7500    1.2990    0.0000 C   0  0  0  0  0  0  0  0  0  0  0  0
    0.7500    1.2990    0.0000 C   0  0  0  0  0  0  0  0  0  0  0  0
  1  2  1  0
  2  3  1  0
  3  4  2  0
  4  5  1  0
  5  6  2  0
  6  7  1  0
  7  8  1  0
  8  9  1  0
  9 10  1  0
 10 11  1  0
 11 12  2  0
 11 13  1  0
 13 14  1  0
 14 15  2  0
 15 16  1  0
 16 17  2  0
 17 18  1  0
 18 19  1  0
 19 20  1  0
 20 21  1  0
 21 22  1  0
 22 23  1  0
 23 24  2  0
 23 25  1  0
 25 26  1  0
 26 27  2  0
 27 28  1  0
 28 29  2  0
 29 30  1  0
 30 31  2  0
 22 32  1  0
 32 33  1  0
 10 34  1  0
  6 35  1  0
 35 36  1  0
 36  3  1  0
 34  7  1  0
 18 14  1  0
 33 19  1  0
 31 26  1  0
M  END
>  <Title>  (1097) 
idABOGgen6

$$$$

     RDKit          2D

 31 34  0  0  0  0  0  0  0  0999 V2000
    3.9786   -1.2990    0.0000 C   0  0  0  0  0  0  0  0  0  0  0  0
    3.2286   -0.0000    0.0000 O   0  0  0  0  0  0  0  0  0  0  0  0
    1.7286    0.0000    0.0000 C   0  0  0  0  0  0  0  0  0  0  0  0
    1.0777    1.3515    0.0000 C   0  0  0  0  0  0  0  0  0  0  0  0
   -0.3846    1.6852    0.0000 C   0  0  0  0  0  0  0  0  0  0  0  0
   -1.5574    0.7500    0.0000 C   0  0  0  0  0  0  0  0  0  0  0  0
   -2.9088    1.4008    0.0000 O   0  0  0  0  0  0  0  0  0  0  0  0
   -3.0209    2.8966    0.0000 C   0  0  0  0  0  0  0  0  0  0  0  0
   -4.3724    3.5475    0.0000 C   0  0  0  0  0  0  0  0  0  0  0  0
   -4.4845    5.0433    0.0000 C   0  0  0  0  0  0  0  0  0  0  0  0
   -5.8359    5.6941    0.0000 C   0  0  0  0  0  0  0  0  0  0  0  0
   -7.0753    4.8491    0.0000 C   0  0  0  0  0  0  0  0  0  0  0  0
   -6.9632    3.3533    0.0000 C   0  0  0  0  0  0  0  0  0  0  0  0
   -5.6118    2.7025    0.0000 C   0  0  0  0  0  0  0  0  0  0  0  0
   -5.4997    1.2067    0.0000 C   0  0  0  0  0  0  0  0  0  0  0  0
   -4.1482    0.5558    0.0000 C   0  0  0  0  0  0  0  0  0  0  0  0
   -4.0361   -0.9400    0.0000 C   0  0  0  0  0  0  0  0  0  0  0  0
   -5.2755   -1.7849    0.0000 C   0  0  0  0  0  0  0  0  0  0  0  0
   -6.6269   -1.1341    0.0000 C   0  0  0  0  0  0  0  0  0  0  0  0
   -6.7390    0.3617    0.0000 C   0  0  0  0  0  0  0  0  0  0  0  0
   -8.0905    1.0125    0.0000 C   0  0  0  0  0  0  0  0  0  0  0  0
   -9.3298    0.1675    0.0000 C   0  0  0  0  0  0  0  0  0  0  0  0
  -10.6813    0.8184    0.0000 C   0  0  0  0  0  0  0  0  0  0  0  0
  -10.7934    2.3142    0.0000 C   0  0  0  0  0  0  0  0  0  0  0  0
   -9.5540    3.1591    0.0000 C   0  0  0  0  0  0  0  0  0  0  0  0
   -8.2026    2.5083    0.0000 C   0  0  0  0  0  0  0  0  0  0  0  0
   -1.5574   -0.7500    0.0000 C   0  0  0  0  0  0  0  0  0  0  0  0
   -2.9088   -1.4008    0.0000 O   0  0  0  0  0  0  0  0  0  0  0  0
   -0.3846   -1.6852    0.0000 N   0  0  0  0  0  0  0  0  0  0  0  0
    1.0777   -1.3515    0.0000 C   0  0  0  0  0  0  0  0  0  0  0  0
    2.0130   -2.5242    0.0000 O   0  0  0  0  0  0  0  0  0  0  0  0
  1  2  1  0
  2  3  1  0
  3  4  2  0
  4  5  1  0
  5  6  2  0
  6  7  1  0
  7  8  1  0
  8  9  1  0
  9 10  2  0
 10 11  1  0
 11 12  2  0
 12 13  1  0
 13 14  2  0
 14 15  1  0
 15 16  2  0
 16 17  1  0
 17 18  2  0
 18 19  1  0
 19 20  2  0
 20 21  1  0
 21 22  2  0
 22 23  1  0
 23 24  2  0
 24 25  1  0
 25 26  2  0
  6 27  1  0
 27 28  2  0
 27 29  1  0
 29 30  1  0
 30 31  2  0
 30  3  1  0
 14  9  1  0
 20 15  1  0
 26 21  1  0
M  END
>  <Title>  (1098) 
idABOHgen6

$$$$

     RDKit          2D

  8  7  0  0  0  0  0  0  0  0999 V2000
    0.0000    0.0000    0.0000 C   0  0  0  0  0  0  0  0  0  0  0  0
    1.2990    0.7500    0.0000 C   0  0  0  0  0  0  0  0  0  0  0  0
    2.5981   -0.0000    0.0000 C   0  0  0  0  0  0  0  0  0  0  0  0
    3.8971    0.7500    0.0000 C   0  0  0  0  0  0  0  0  0  0  0  0
    2.5981   -1.5000    0.0000 C   0  0  0  0  0  0  0  0  0  0  0  0
    2.5981   -3.0000    0.0000 C   0  0  0  0  0  0  0  0  0  0  0  0
    2.5981   -4.5000    0.0000 C   0  0  0  0  0  0  0  0  0  0  0  0
    2.5981   -6.0000    0.0000 N   0  0  0  0  0  0  0  0  0  0  0  0
  1  2  1  0
  2  3  1  0
  3  4  1  0
  3  5  1  0
  5  6  3  0
  6  7  1  0
  7  8  3  0
M  END
>  <Title>  (1099) 
idABOIgen6

$$$$

     RDKit          2D

 28 32  0  0  0  0  0  0  0  0999 V2000
    2.6836   -6.4756    0.0000 O   0  0  0  0  0  0  0  0  0  0  0  0
    2.6836   -4.9756    0.0000 C   0  0  0  0  0  0  0  0  0  0  0  0
    3.9826   -4.2256    0.0000 N   0  0  0  0  0  0  0  0  0  0  0  0
    5.2817   -4.9756    0.0000 C   0  0  0  0  0  0  0  0  0  0  0  0
    6.6520   -4.3655    0.0000 N   0  0  0  0  0  0  0  0  0  0  0  0
    7.6557   -5.4802    0.0000 N   0  0  0  0  0  0  0  0  0  0  0  0
    6.9057   -6.7793    0.0000 N   0  0  0  0  0  0  0  0  0  0  0  0
    5.4385   -6.4674    0.0000 N   0  0  0  0  0  0  0  0  0  0  0  0
    4.3237   -7.4711    0.0000 N   0  0  0  0  0  0  0  0  0  0  0  0
    4.6356   -8.9383    0.0000 C   0  0  0  0  0  0  0  0  0  0  0  0
    3.5209   -9.9420    0.0000 C   0  0  0  0  0  0  0  0  0  0  0  0
    3.8328  -11.4092    0.0000 C   0  0  0  0  0  0  0  0  0  0  0  0
    5.2593  -11.8728    0.0000 C   0  0  0  0  0  0  0  0  0  0  0  0
    6.3741  -10.8691    0.0000 C   0  0  0  0  0  0  0  0  0  0  0  0
    6.0622   -9.4018    0.0000 C   0  0  0  0  0  0  0  0  0  0  0  0
    1.3846   -4.2256    0.0000 N   0  0  0  0  0  0  0  0  0  0  0  0
    0.0855   -4.9756    0.0000 C   0  0  0  0  0  0  0  0  0  0  0  0
   -1.2135   -4.2256    0.0000 C   0  0  0  0  0  0  0  0  0  0  0  0
   -1.2135   -2.7256    0.0000 C   0  0  0  0  0  0  0  0  0  0  0  0
   -0.0000   -3.6073    0.0000 C   0  0  0  0  0  0  0  0  0  0  0  0
   -0.1929   -4.3808    0.0000 O   0  0  0  0  0  0  0  0  0  0  0  0
    1.2135   -2.7256    0.0000 N   0  0  0  0  0  0  0  0  0  0  0  0
    0.7500   -1.2990    0.0000 C   0  0  0  0  0  0  0  0  0  0  0  0
    1.5000    0.0000    0.0000 C   0  0  0  0  0  0  0  0  0  0  0  0
    0.7500    1.2990    0.0000 C   0  0  0  0  0  0  0  0  0  0  0  0
   -0.7500    1.2990    0.0000 C   0  0  0  0  0  0  0  0  0  0  0  0
   -1.5000    0.0000    0.0000 C   0  0  0  0  0  0  0  0  0  0  0  0
   -0.7500   -1.2990    0.0000 C   0  0  0  0  0  0  0  0  0  0  0  0
  1  2  2  0
  2  3  1  0
  3  4  1  0
  4  5  2  0
  5  6  1  0
  6  7  2  0
  7  8  1  0
  8  9  1  0
  9 10  1  0
 10 11  2  0
 11 12  1  0
 12 13  2  0
 13 14  1  0
 14 15  2  0
  2 16  1  0
 16 17  1  0
 17 18  1  0
 18 19  1  0
 19 20  1  0
 20 21  2  0
 20 22  1  0
 22 23  1  0
 23 24  2  0
 24 25  1  0
 25 26  2  0
 26 27  1  0
 27 28  2  0
  8  4  1  0
 15 10  1  0
 22 16  1  0
 28 23  1  0
 28 19  1  0
M  END
>  <Title>  (1100) 
idABOJgen6

$$$$

     RDKit          2D

 25 26  0  0  0  0  0  0  0  0999 V2000
    0.7500   -6.4952    0.0000 C   0  0  0  0  0  0  0  0  0  0  0  0
    1.5000   -5.1962    0.0000 C   0  0  0  0  0  0  0  0  0  0  0  0
    3.0000   -5.1962    0.0000 O   0  0  0  0  0  0  0  0  0  0  0  0
    0.7500   -3.8971    0.0000 C   0  0  0  0  0  0  0  0  0  0  0  0
    1.5000   -2.5981    0.0000 C   0  0  0  0  0  0  0  0  0  0  0  0
    0.7500   -1.2990    0.0000 C   0  0  0  0  0  0  0  0  0  0  0  0
    1.5000    0.0000    0.0000 C   0  0  0  0  0  0  0  0  0  0  0  0
    0.7500    1.2990    0.0000 C   0  0  0  0  0  0  0  0  0  0  0  0
   -0.7500    1.2990    0.0000 C   0  0  0  0  0  0  0  0  0  0  0  0
   -1.5000    0.0000    0.0000 C   0  0  0  0  0  0  0  0  0  0  0  0
   -0.7500   -1.2990    0.0000 C   0  0  0  0  0  0  0  0  0  0  0  0
   -0.7500   -3.8971    0.0000 N   0  0  0  0  0  0  0  0  0  0  0  0
   -1.5000   -5.1962    0.0000 C   0  0  0  0  0  0  0  0  0  0  0  0
   -0.7500   -6.4952    0.0000 O   0  0  0  0  0  0  0  0  0  0  0  0
   -3.0000   -5.1962    0.0000 C   0  0  0  0  0  0  0  0  0  0  0  0
   -3.7500   -6.4952    0.0000 C   0  0  0  0  0  0  0  0  0  0  0  0
   -5.2500   -6.4952    0.0000 C   0  0  0  0  0  0  0  0  0  0  0  0
   -6.0000   -5.1962    0.0000 C   0  0  0  0  0  0  0  0  0  0  0  0
   -7.5000   -5.1962    0.0000 C   0  0  0  0  0  0  0  0  0  0  0  0
   -8.2500   -6.4952    0.0000 C   0  0  0  0  0  0  0  0  0  0  0  0
   -7.5000   -7.7942    0.0000 C   0  0  0  0  0  0  0  0  0  0  0  0
   -6.0000   -7.7942    0.0000 C   0  0  0  0  0  0  0  0  0  0  0  0
   -3.7500   -3.8971    0.0000 C   0  0  0  0  0  0  0  0  0  0  0  0
   -3.0000   -2.5981    0.0000 O   0  0  0  0  0  0  0  0  0  0  0  0
   -5.2500   -3.8971    0.0000 O   0  0  0  0  0  0  0  0  0  0  0  0
  1  2  1  0
  2  3  2  0
  2  4  1  0
  4  5  1  0
  5  6  1  0
  6  7  2  0
  7  8  1  0
  8  9  2  0
  9 10  1  0
 10 11  2  0
  4 12  1  0
 12 13  1  0
 13 14  2  0
 13 15  1  0
 15 16  1  0
 16 17  1  0
 17 18  2  0
 18 19  1  0
 19 20  2  0
 20 21  1  0
 21 22  2  0
 15 23  1  0
 23 24  2  0
 23 25  1  0
 11  6  1  0
 22 17  1  0
M  END
>  <Title>  (1101) 
idABOKgen6

$$$$

     RDKit          2D

 16 16  0  0  0  0  0  0  0  0999 V2000
    6.0000   -2.5981    0.0000 C   0  0  0  0  0  0  0  0  0  0  0  0
    5.2500   -1.2990    0.0000 C   0  0  0  0  0  0  0  0  0  0  0  0
    6.0000    0.0000    0.0000 O   0  0  0  0  0  0  0  0  0  0  0  0
    3.7500   -1.2990    0.0000 O   0  0  0  0  0  0  0  0  0  0  0  0
    3.0000    0.0000    0.0000 C   0  0  0  0  0  0  0  0  0  0  0  0
    3.7500    1.2990    0.0000 O   0  0  0  0  0  0  0  0  0  0  0  0
    1.5000    0.0000    0.0000 C   0  0  0  0  0  0  0  0  0  0  0  0
    0.7500   -1.2990    0.0000 C   0  0  0  0  0  0  0  0  0  0  0  0
   -0.7500   -1.2990    0.0000 C   0  0  0  0  0  0  0  0  0  0  0  0
   -1.5000    0.0000    0.0000 C   0  0  0  0  0  0  0  0  0  0  0  0
   -3.0000    0.0000    0.0000 C   0  0  0  0  0  0  0  0  0  0  0  0
   -3.7500   -1.2990    0.0000 O   0  0  0  0  0  0  0  0  0  0  0  0
   -3.7500    1.2990    0.0000 O   0  0  0  0  0  0  0  0  0  0  0  0
   -0.7500    1.2990    0.0000 C   0  0  0  0  0  0  0  0  0  0  0  0
   -1.5000    2.5981    0.0000 O   0  0  0  0  0  0  0  0  0  0  0  0
    0.7500    1.2990    0.0000 N   0  0  0  0  0  0  0  0  0  0  0  0
  1  2  1  0
  2  3  2  0
  2  4  1  0
  4  5  1  0
  5  6  2  0
  5  7  1  0
  7  8  1  0
  8  9  1  0
  9 10  1  0
 10 11  1  0
 11 12  2  0
 11 13  1  0
 10 14  1  0
 14 15  2  0
 14 16  1  0
 16  7  1  0
M  END
>  <Title>  (1102) 
idABOLgen6

$$$$

     RDKit          2D

 33 36  0  0  0  0  0  0  0  0999 V2000
   -2.5981  -10.5850    0.0000 C   0  0  0  0  0  0  0  0  0  0  0  0
   -2.5981   -9.0850    0.0000 C   0  0  0  0  0  0  0  0  0  0  0  0
   -1.2990   -8.3350    0.0000 N   0  0  0  0  0  0  0  0  0  0  0  0
   -1.2990   -6.8350    0.0000 C   0  0  0  0  0  0  0  0  0  0  0  0
   -2.5981   -6.0850    0.0000 O   0  0  0  0  0  0  0  0  0  0  0  0
   -0.0000   -6.0850    0.0000 C   0  0  0  0  0  0  0  0  0  0  0  0
   -0.0000   -4.5850    0.0000 N   0  0  0  0  0  0  0  0  0  0  0  0
    1.3515   -3.9342    0.0000 C   0  0  0  0  0  0  0  0  0  0  0  0
    2.5242   -4.8694    0.0000 O   0  0  0  0  0  0  0  0  0  0  0  0
    1.6852   -2.4718    0.0000 O   0  0  0  0  0  0  0  0  0  0  0  0
    0.7500   -1.2990    0.0000 C   0  0  0  0  0  0  0  0  0  0  0  0
    1.5000    0.0000    0.0000 C   0  0  0  0  0  0  0  0  0  0  0  0
    0.7500    1.2990    0.0000 C   0  0  0  0  0  0  0  0  0  0  0  0
   -0.7500    1.2990    0.0000 C   0  0  0  0  0  0  0  0  0  0  0  0
   -1.5000    0.0000    0.0000 C   0  0  0  0  0  0  0  0  0  0  0  0
   -0.7500   -1.2990    0.0000 C   0  0  0  0  0  0  0  0  0  0  0  0
   -1.6852   -2.4718    0.0000 C   0  0  0  0  0  0  0  0  0  0  0  0
   -3.1186   -2.0297    0.0000 C   0  0  0  0  0  0  0  0  0  0  0  0
   -4.2182   -3.0499    0.0000 C   0  0  0  0  0  0  0  0  0  0  0  0
   -3.8844   -4.5123    0.0000 C   0  0  0  0  0  0  0  0  0  0  0  0
   -4.9840   -5.5326    0.0000 C   0  0  0  0  0  0  0  0  0  0  0  0
   -6.0835   -6.5528    0.0000 N   0  0  0  0  0  0  0  0  0  0  0  0
   -2.4510   -4.9544    0.0000 C   0  0  0  0  0  0  0  0  0  0  0  0
   -1.3515   -3.9342    0.0000 C   0  0  0  0  0  0  0  0  0  0  0  0
   -3.8971   -8.3350    0.0000 N   0  0  0  0  0  0  0  0  0  0  0  0
   -5.1962   -9.0850    0.0000 C   0  0  0  0  0  0  0  0  0  0  0  0
   -6.4952   -8.3350    0.0000 O   0  0  0  0  0  0  0  0  0  0  0  0
   -5.1962  -10.5850    0.0000 C   0  0  0  0  0  0  0  0  0  0  0  0
   -3.9826  -11.4667    0.0000 C   0  0  0  0  0  0  0  0  0  0  0  0
   -4.4462  -12.8933    0.0000 C   0  0  0  0  0  0  0  0  0  0  0  0
   -5.9462  -12.8933    0.0000 C   0  0  0  0  0  0  0  0  0  0  0  0
   -6.8278  -14.1068    0.0000 O   0  0  0  0  0  0  0  0  0  0  0  0
   -6.4097  -11.4667    0.0000 C   0  0  0  0  0  0  0  0  0  0  0  0
  1  2  1  0
  2  3  1  0
  3  4  1  0
  4  5  2  0
  4  6  1  0
  6  7  1  0
  7  8  1  0
  8  9  2  0
  8 10  1  0
 10 11  1  0
 11 12  2  0
 12 13  1  0
 13 14  2  0
 14 15  1  0
 15 16  2  0
 16 17  1  0
 17 18  2  0
 18 19  1  0
 19 20  2  0
 20 21  1  0
 21 22  3  0
 20 23  1  0
 23 24  2  0
  2 25  1  0
 25 26  1  0
 26 27  2  0
 26 28  1  0
 28 29  1  0
 29 30  1  0
 30 31  1  0
 31 32  1  0
 31 33  1  0
 24  7  1  0
 33 28  1  0
 16 11  1  0
 24 17  1  0
M  END
>  <Title>  (1103) 
idABOMgen6

$$$$

     RDKit          2D

 26 29  0  0  0  0  0  0  0  0999 V2000
   -3.1771   -1.2990    0.0000 C   0  0  0  0  0  0  0  0  0  0  0  0
   -1.9635   -2.1807    0.0000 C   0  0  0  0  0  0  0  0  0  0  0  0
   -2.4271   -3.6073    0.0000 C   0  0  0  0  0  0  0  0  0  0  0  0
   -1.9635   -5.0339    0.0000 C   0  0  0  0  0  0  0  0  0  0  0  0
   -0.7500   -5.9156    0.0000 C   0  0  0  0  0  0  0  0  0  0  0  0
    0.7500   -5.9156    0.0000 C   0  0  0  0  0  0  0  0  0  0  0  0
    1.9635   -5.0339    0.0000 C   0  0  0  0  0  0  0  0  0  0  0  0
    2.4271   -3.6073    0.0000 C   0  0  0  0  0  0  0  0  0  0  0  0
    1.9635   -2.1807    0.0000 C   0  0  0  0  0  0  0  0  0  0  0  0
    3.1771   -1.2990    0.0000 N   0  0  0  0  0  0  0  0  0  0  0  0
    3.1771    0.2010    0.0000 C   0  0  0  0  0  0  0  0  0  0  0  0
    1.9635    1.0826    0.0000 O   0  0  0  0  0  0  0  0  0  0  0  0
    4.6036    0.6645    0.0000 O   0  0  0  0  0  0  0  0  0  0  0  0
    5.4853   -0.5490    0.0000 C   0  0  0  0  0  0  0  0  0  0  0  0
    6.9771   -0.7058    0.0000 C   0  0  0  0  0  0  0  0  0  0  0  0
    7.5872   -2.0761    0.0000 C   0  0  0  0  0  0  0  0  0  0  0  0
    6.7055   -3.2897    0.0000 C   0  0  0  0  0  0  0  0  0  0  0  0
    5.2137   -3.1329    0.0000 C   0  0  0  0  0  0  0  0  0  0  0  0
    4.6036   -1.7626    0.0000 C   0  0  0  0  0  0  0  0  0  0  0  0
    0.7500   -1.2990    0.0000 C   0  0  0  0  0  0  0  0  0  0  0  0
    1.5000    0.0000    0.0000 C   0  0  0  0  0  0  0  0  0  0  0  0
    0.7500    1.2990    0.0000 C   0  0  0  0  0  0  0  0  0  0  0  0
   -0.7500    1.2990    0.0000 C   0  0  0  0  0  0  0  0  0  0  0  0
   -1.5000    2.5981    0.0000 O   0  0  0  0  0  0  0  0  0  0  0  0
   -1.5000    0.0000    0.0000 C   0  0  0  0  0  0  0  0  0  0  0  0
   -0.7500   -1.2990    0.0000 C   0  0  0  0  0  0  0  0  0  0  0  0
  1  2  1  0
  2  3  1  0
  3  4  1  0
  4  5  1  0
  5  6  1  0
  6  7  1  0
  7  8  1  0
  8  9  1  0
  9 10  1  0
 10 11  1  0
 11 12  2  0
 11 13  1  0
 13 14  1  0
 14 15  2  0
 15 16  1  0
 16 17  2  0
 17 18  1  0
 18 19  2  0
  9 20  1  0
 20 21  2  0
 21 22  1  0
 22 23  2  0
 23 24  1  0
 23 25  1  0
 25 26  2  0
 26  2  1  0
 19 10  1  0
 26 20  1  0
 19 14  1  0
M  END
>  <Title>  (1104) 
idABONgen6

$$$$

     RDKit          2D

  8  8  0  0  0  0  0  0  0  0999 V2000
    3.7500   -1.2990    0.0000 C   0  0  0  0  0  0  0  0  0  0  0  0
    3.0000    0.0000    0.0000 O   0  0  0  0  0  0  0  0  0  0  0  0
    1.5000    0.0000    0.0000 C   0  0  0  0  0  0  0  0  0  0  0  0
    0.7500   -1.2990    0.0000 C   0  0  0  0  0  0  0  0  0  0  0  0
   -0.7500   -1.2990    0.0000 C   0  0  0  0  0  0  0  0  0  0  0  0
   -1.5000    0.0000    0.0000 C   0  0  0  0  0  0  0  0  0  0  0  0
   -0.7500    1.2990    0.0000 C   0  0  0  0  0  0  0  0  0  0  0  0
    0.7500    1.2990    0.0000 N   0  0  0  0  0  0  0  0  0  0  0  0
  1  2  1  0
  2  3  1  0
  3  4  1  0
  4  5  2  0
  5  6  1  0
  6  7  1  0
  7  8  2  0
  8  3  1  0
M  END
>  <Title>  (1105) 
idABOOgen6

$$$$

     RDKit          2D

 19 19  0  0  0  0  0  0  0  0999 V2000
    9.7500    1.2990    0.0000 C   0  0  0  0  0  0  0  0  0  0  0  0
    8.2500    1.2990    0.0000 C   0  0  0  0  0  0  0  0  0  0  0  0
    7.5000    2.5981    0.0000 O   0  0  0  0  0  0  0  0  0  0  0  0
    7.5000   -0.0000    0.0000 O   0  0  0  0  0  0  0  0  0  0  0  0
    6.0000    0.0000    0.0000 C   0  0  0  0  0  0  0  0  0  0  0  0
    5.2500    1.2990    0.0000 O   0  0  0  0  0  0  0  0  0  0  0  0
    5.2500   -1.2990    0.0000 C   0  0  0  0  0  0  0  0  0  0  0  0
    6.0000   -2.5981    0.0000 C   0  0  0  0  0  0  0  0  0  0  0  0
    5.2500   -3.8971    0.0000 O   0  0  0  0  0  0  0  0  0  0  0  0
    7.5000   -2.5981    0.0000 O   0  0  0  0  0  0  0  0  0  0  0  0
    3.7500   -1.2990    0.0000 C   0  0  0  0  0  0  0  0  0  0  0  0
    3.0000   -2.5981    0.0000 O   0  0  0  0  0  0  0  0  0  0  0  0
    3.0000    0.0000    0.0000 N   0  0  0  0  0  0  0  0  0  0  0  0
    1.5000    0.0000    0.0000 C   0  0  0  0  0  0  0  0  0  0  0  0
    0.7500   -1.2990    0.0000 C   0  0  0  0  0  0  0  0  0  0  0  0
   -0.7500   -1.2990    0.0000 C   0  0  0  0  0  0  0  0  0  0  0  0
   -1.5000    0.0000    0.0000 C   0  0  0  0  0  0  0  0  0  0  0  0
   -0.7500    1.2990    0.0000 C   0  0  0  0  0  0  0  0  0  0  0  0
    0.7500    1.2990    0.0000 C   0  0  0  0  0  0  0  0  0  0  0  0
  1  2  1  0
  2  3  2  0
  2  4  1  0
  4  5  1  0
  5  6  2  0
  5  7  1  0
  7  8  1  0
  8  9  2  0
  8 10  1  0
  7 11  1  0
 11 12  2  0
 11 13  1  0
 13 14  1  0
 14 15  2  0
 15 16  1  0
 16 17  2  0
 17 18  1  0
 18 19  2  0
 19 14  1  0
M  END
>  <Title>  (1106) 
idABOPgen6

$$$$

     RDKit          2D

  5  4  0  0  0  0  0  0  0  0999 V2000
    0.0000    0.0000    0.0000 C   0  0  0  0  0  0  0  0  0  0  0  0
    1.2990    0.7500    0.0000 C   0  0  0  0  0  0  0  0  0  0  0  0
    2.5981    1.5000    0.0000 C   0  0  0  0  0  0  0  0  0  0  0  0
    2.0490   -0.5490    0.0000 F   0  0  0  0  0  0  0  0  0  0  0  0
    0.5490    2.0490    0.0000 F   0  0  0  0  0  0  0  0  0  0  0  0
  1  2  1  0
  2  3  1  0
  2  4  1  0
  2  5  1  0
M  END
>  <Title>  (1107) 
idABOQgen6

$$$$

     RDKit          2D

 42 47  0  0  0  0  0  0  0  0999 V2000
   -1.2135   -7.3421    0.0000 C   0  0  0  0  0  0  0  0  0  0  0  0
   -0.7500   -5.9156    0.0000 C   0  0  0  0  0  0  0  0  0  0  0  0
    0.7500   -5.9156    0.0000 C   0  0  0  0  0  0  0  0  0  0  0  0
    1.9635   -5.0339    0.0000 C   0  0  0  0  0  0  0  0  0  0  0  0
    3.1771   -5.9156    0.0000 C   0  0  0  0  0  0  0  0  0  0  0  0
    3.0203   -7.4073    0.0000 C   0  0  0  0  0  0  0  0  0  0  0  0
    4.2338   -8.2890    0.0000 N   0  0  0  0  0  0  0  0  0  0  0  0
    1.6499   -8.0175    0.0000 N   0  0  0  0  0  0  0  0  0  0  0  0
    1.4931   -9.5092    0.0000 C   0  0  0  0  0  0  0  0  0  0  0  0
    0.1228  -10.1193    0.0000 N   0  0  0  0  0  0  0  0  0  0  0  0
   -0.0340  -11.6111    0.0000 N   0  0  0  0  0  0  0  0  0  0  0  0
    1.1796  -12.4928    0.0000 N   0  0  0  0  0  0  0  0  0  0  0  0
    2.5499  -11.8827    0.0000 N   0  0  0  0  0  0  0  0  0  0  0  0
    2.7067  -10.3909    0.0000 N   0  0  0  0  0  0  0  0  0  0  0  0
    2.4271   -3.6073    0.0000 C   0  0  0  0  0  0  0  0  0  0  0  0
    3.8943   -3.9192    0.0000 C   0  0  0  0  0  0  0  0  0  0  0  0
    4.8980   -2.8045    0.0000 C   0  0  0  0  0  0  0  0  0  0  0  0
    4.4344   -1.3779    0.0000 C   0  0  0  0  0  0  0  0  0  0  0  0
    5.4381   -0.2631    0.0000 C   0  0  0  0  0  0  0  0  0  0  0  0
    4.9746    1.1634    0.0000 O   0  0  0  0  0  0  0  0  0  0  0  0
    6.9054   -0.5750    0.0000 N   0  0  0  0  0  0  0  0  0  0  0  0
    7.9091    0.5397    0.0000 C   0  0  0  0  0  0  0  0  0  0  0  0
    9.3763    0.2278    0.0000 N   0  0  0  0  0  0  0  0  0  0  0  0
   10.3800    1.3426    0.0000 N   0  0  0  0  0  0  0  0  0  0  0  0
    9.9164    2.7691    0.0000 N   0  0  0  0  0  0  0  0  0  0  0  0
    8.4492    3.0810    0.0000 N   0  0  0  0  0  0  0  0  0  0  0  0
    7.4455    1.9663    0.0000 N   0  0  0  0  0  0  0  0  0  0  0  0
    2.9672   -1.0660    0.0000 C   0  0  0  0  0  0  0  0  0  0  0  0
    1.9635   -2.1807    0.0000 C   0  0  0  0  0  0  0  0  0  0  0  0
    0.7500   -1.2990    0.0000 C   0  0  0  0  0  0  0  0  0  0  0  0
    1.5000    0.0000    0.0000 C   0  0  0  0  0  0  0  0  0  0  0  0
    0.7500    1.2990    0.0000 C   0  0  0  0  0  0  0  0  0  0  0  0
   -0.7500    1.2990    0.0000 C   0  0  0  0  0  0  0  0  0  0  0  0
   -1.5000    0.0000    0.0000 C   0  0  0  0  0  0  0  0  0  0  0  0
   -0.7500   -1.2990    0.0000 C   0  0  0  0  0  0  0  0  0  0  0  0
   -1.9635   -2.1807    0.0000 O   0  0  0  0  0  0  0  0  0  0  0  0
   -2.4271   -3.6073    0.0000 C   0  0  0  0  0  0  0  0  0  0  0  0
   -3.8943   -3.2954    0.0000 C   0  0  0  0  0  0  0  0  0  0  0  0
   -4.8980   -4.4102    0.0000 C   0  0  0  0  0  0  0  0  0  0  0  0
   -4.4344   -5.8367    0.0000 C   0  0  0  0  0  0  0  0  0  0  0  0
   -2.9672   -6.1486    0.0000 C   0  0  0  0  0  0  0  0  0  0  0  0
   -1.9635   -5.0339    0.0000 C   0  0  0  0  0  0  0  0  0  0  0  0
  1  2  1  0
  2  3  1  0
  3  4  1  0
  4  5  1  0
  5  6  1  0
  6  7  2  0
  6  8  1  0
  8  9  1  0
  9 10  2  0
 10 11  1  0
 11 12  2  0
 12 13  1  0
 13 14  2  0
  4 15  1  0
 15 16  2  0
 16 17  1  0
 17 18  2  0
 18 19  1  0
 19 20  2  0
 19 21  1  0
 21 22  1  0
 22 23  2  0
 23 24  1  0
 24 25  2  0
 25 26  1  0
 26 27  2  0
 18 28  1  0
 28 29  2  0
 29 30  1  0
 30 31  2  0
 31 32  1  0
 32 33  2  0
 33 34  1  0
 34 35  2  0
 35 36  1  0
 36 37  1  0
 37 38  2  0
 38 39  1  0
 39 40  2  0
 40 41  1  0
 41 42  2  0
 42  2  1  0
 14  9  1  0
 29 15  1  0
 35 30  1  0
 42 37  1  0
 27 22  1  0
M  END
>  <Title>  (1108) 
idABORgen6

$$$$

     RDKit          2D

 20 21  0  0  0  0  0  0  0  0999 V2000
    5.2500   -1.2990    0.0000 C   0  0  0  0  0  0  0  0  0  0  0  0
    3.7500   -1.2990    0.0000 C   0  0  0  0  0  0  0  0  0  0  0  0
    3.0000   -2.5981    0.0000 O   0  0  0  0  0  0  0  0  0  0  0  0
    3.0000    0.0000    0.0000 C   0  0  0  0  0  0  0  0  0  0  0  0
    3.7500    1.2990    0.0000 O   0  0  0  0  0  0  0  0  0  0  0  0
    1.5000    0.0000    0.0000 N   0  0  0  0  0  0  0  0  0  0  0  0
    0.7500   -1.2990    0.0000 C   0  0  0  0  0  0  0  0  0  0  0  0
   -0.7500   -1.2990    0.0000 C   0  0  0  0  0  0  0  0  0  0  0  0
   -1.5000    0.0000    0.0000 C   0  0  0  0  0  0  0  0  0  0  0  0
   -3.0000    0.0000    0.0000 C   0  0  0  0  0  0  0  0  0  0  0  0
   -3.7500   -1.2990    0.0000 O   0  0  0  0  0  0  0  0  0  0  0  0
   -3.7500    1.2990    0.0000 O   0  0  0  0  0  0  0  0  0  0  0  0
   -5.2500    1.2990    0.0000 C   0  0  0  0  0  0  0  0  0  0  0  0
   -6.0000    2.5981    0.0000 N   0  0  0  0  0  0  0  0  0  0  0  0
   -7.5000    2.5981    0.0000 N   0  0  0  0  0  0  0  0  0  0  0  0
   -8.2500    1.2990    0.0000 N   0  0  0  0  0  0  0  0  0  0  0  0
   -7.5000    0.0000    0.0000 N   0  0  0  0  0  0  0  0  0  0  0  0
   -6.0000    0.0000    0.0000 N   0  0  0  0  0  0  0  0  0  0  0  0
   -0.7500    1.2990    0.0000 C   0  0  0  0  0  0  0  0  0  0  0  0
    0.7500    1.2990    0.0000 C   0  0  0  0  0  0  0  0  0  0  0  0
  1  2  1  0
  2  3  2  0
  2  4  1  0
  4  5  2  0
  4  6  1  0
  6  7  1  0
  7  8  1  0
  8  9  1  0
  9 10  1  0
 10 11  2  0
 10 12  1  0
 12 13  1  0
 13 14  2  0
 14 15  1  0
 15 16  2  0
 16 17  1  0
 17 18  2  0
  9 19  1  0
 19 20  1  0
 20  6  1  0
 18 13  1  0
M  END
>  <Title>  (1109) 
idABOSgen6

$$$$

     RDKit          2D

 14 15  0  0  0  0  0  0  0  0999 V2000
   -0.0000   -7.0981    0.0000 O   0  0  0  0  0  0  0  0  0  0  0  0
    1.2990   -6.3481    0.0000 C   0  0  0  0  0  0  0  0  0  0  0  0
    2.5981   -7.0981    0.0000 O   0  0  0  0  0  0  0  0  0  0  0  0
    1.2990   -4.8481    0.0000 O   0  0  0  0  0  0  0  0  0  0  0  0
   -0.0000   -4.0981    0.0000 C   0  0  0  0  0  0  0  0  0  0  0  0
   -1.2990   -4.8481    0.0000 O   0  0  0  0  0  0  0  0  0  0  0  0
   -0.0000   -2.5981    0.0000 C   0  0  0  0  0  0  0  0  0  0  0  0
    0.7500   -1.2990    0.0000 C   0  0  0  0  0  0  0  0  0  0  0  0
    1.5000    0.0000    0.0000 C   0  0  0  0  0  0  0  0  0  0  0  0
    0.7500    1.2990    0.0000 C   0  0  0  0  0  0  0  0  0  0  0  0
   -0.7500    1.2990    0.0000 C   0  0  0  0  0  0  0  0  0  0  0  0
   -1.5000    2.5981    0.0000 O   0  0  0  0  0  0  0  0  0  0  0  0
   -1.5000    0.0000    0.0000 C   0  0  0  0  0  0  0  0  0  0  0  0
   -0.7500   -1.2990    0.0000 C   0  0  0  0  0  0  0  0  0  0  0  0
  1  2  2  0
  2  3  1  0
  2  4  1  0
  4  5  1  0
  5  6  2  0
  5  7  1  0
  7  8  1  0
  8  9  2  0
  9 10  1  0
 10 11  2  0
 11 12  1  0
 11 13  1  0
 13 14  2  0
 14  7  1  0
 14  8  1  0
M  END
>  <Title>  (1110) 
idABOTgen6

$$$$

     RDKit          2D

 21 23  0  0  0  0  0  0  0  0999 V2000
    2.0761   -9.9970    0.0000 C   0  0  0  0  0  0  0  0  0  0  0  0
    3.5761   -9.9970    0.0000 O   0  0  0  0  0  0  0  0  0  0  0  0
    4.3261   -8.6980    0.0000 C   0  0  0  0  0  0  0  0  0  0  0  0
    5.8179   -8.5412    0.0000 C   0  0  0  0  0  0  0  0  0  0  0  0
    6.1298   -7.0740    0.0000 C   0  0  0  0  0  0  0  0  0  0  0  0
    4.8308   -6.3240    0.0000 C   0  0  0  0  0  0  0  0  0  0  0  0
    4.6740   -4.8322    0.0000 C   0  0  0  0  0  0  0  0  0  0  0  0
    5.8875   -3.9505    0.0000 O   0  0  0  0  0  0  0  0  0  0  0  0
    3.3037   -4.2221    0.0000 N   0  0  0  0  0  0  0  0  0  0  0  0
    2.0046   -4.9721    0.0000 C   0  0  0  0  0  0  0  0  0  0  0  0
    0.8899   -3.9684    0.0000 C   0  0  0  0  0  0  0  0  0  0  0  0
    1.5000   -2.5981    0.0000 C   0  0  0  0  0  0  0  0  0  0  0  0
    0.7500   -1.2990    0.0000 C   0  0  0  0  0  0  0  0  0  0  0  0
    1.5000    0.0000    0.0000 C   0  0  0  0  0  0  0  0  0  0  0  0
    0.7500    1.2990    0.0000 C   0  0  0  0  0  0  0  0  0  0  0  0
   -0.7500    1.2990    0.0000 C   0  0  0  0  0  0  0  0  0  0  0  0
   -1.5000    2.5981    0.0000 O   0  0  0  0  0  0  0  0  0  0  0  0
   -1.5000    0.0000    0.0000 C   0  0  0  0  0  0  0  0  0  0  0  0
   -0.7500   -1.2990    0.0000 C   0  0  0  0  0  0  0  0  0  0  0  0
    2.9918   -2.7549    0.0000 C   0  0  0  0  0  0  0  0  0  0  0  0
    3.7160   -7.3277    0.0000 C   0  0  0  0  0  0  0  0  0  0  0  0
  1  2  1  0
  2  3  1  0
  3  4  1  0
  4  5  2  0
  5  6  1  0
  6  7  1  0
  7  8  2  0
  7  9  1  0
  9 10  1  0
 10 11  1  0
 11 12  1  0
 12 13  1  0
 13 14  2  0
 14 15  1  0
 15 16  2  0
 16 17  1  0
 16 18  1  0
 18 19  2  0
 12 20  1  0
  6 21  1  0
 21  3  1  0
 20  9  1  0
 19 13  1  0
M  END
>  <Title>  (1111) 
idABOUgen6

$$$$

     RDKit          2D

 13 13  0  0  0  0  0  0  0  0999 V2000
    6.0000   -2.5981    0.0000 C   0  0  0  0  0  0  0  0  0  0  0  0
    5.2500   -1.2990    0.0000 C   0  0  0  0  0  0  0  0  0  0  0  0
    6.0000    0.0000    0.0000 C   0  0  0  0  0  0  0  0  0  0  0  0
    7.5000   -0.0000    0.0000 O   0  0  0  0  0  0  0  0  0  0  0  0
    3.7500   -1.2990    0.0000 C   0  0  0  0  0  0  0  0  0  0  0  0
    3.0000   -2.5981    0.0000 O   0  0  0  0  0  0  0  0  0  0  0  0
    3.0000    0.0000    0.0000 N   0  0  0  0  0  0  0  0  0  0  0  0
    1.5000    0.0000    0.0000 C   0  0  0  0  0  0  0  0  0  0  0  0
    0.7500   -1.2990    0.0000 N   0  0  0  0  0  0  0  0  0  0  0  0
   -0.7500   -1.2990    0.0000 N   0  0  0  0  0  0  0  0  0  0  0  0
   -1.5000    0.0000    0.0000 N   0  0  0  0  0  0  0  0  0  0  0  0
   -0.7500    1.2990    0.0000 N   0  0  0  0  0  0  0  0  0  0  0  0
    0.7500    1.2990    0.0000 N   0  0  0  0  0  0  0  0  0  0  0  0
  1  2  1  0
  2  3  1  0
  3  4  1  0
  2  5  1  0
  5  6  2  0
  5  7  1  0
  7  8  1  0
  8  9  2  0
  9 10  1  0
 10 11  2  0
 11 12  1  0
 12 13  2  0
 13  8  1  0
M  END
>  <Title>  (1112) 
idABOVgen6

$$$$

     RDKit          2D

 23 23  0  0  0  0  0  0  0  0999 V2000
   -3.0000   -5.1962    0.0000 C   0  0  0  0  0  0  0  0  0  0  0  0
   -1.5000   -5.1962    0.0000 C   0  0  0  0  0  0  0  0  0  0  0  0
   -0.7500   -6.4952    0.0000 O   0  0  0  0  0  0  0  0  0  0  0  0
   -0.7500   -3.8971    0.0000 C   0  0  0  0  0  0  0  0  0  0  0  0
   -1.5000   -2.5981    0.0000 C   0  0  0  0  0  0  0  0  0  0  0  0
   -0.7500   -1.2990    0.0000 O   0  0  0  0  0  0  0  0  0  0  0  0
   -3.0000   -2.5981    0.0000 O   0  0  0  0  0  0  0  0  0  0  0  0
    0.7500   -3.8971    0.0000 C   0  0  0  0  0  0  0  0  0  0  0  0
    1.5000   -5.1962    0.0000 O   0  0  0  0  0  0  0  0  0  0  0  0
    1.5000   -2.5981    0.0000 O   0  0  0  0  0  0  0  0  0  0  0  0
    3.0000   -2.5981    0.0000 C   0  0  0  0  0  0  0  0  0  0  0  0
    3.7500   -3.8971    0.0000 O   0  0  0  0  0  0  0  0  0  0  0  0
    3.7500   -1.2990    0.0000 C   0  0  0  0  0  0  0  0  0  0  0  0
    3.0000    0.0000    0.0000 C   0  0  0  0  0  0  0  0  0  0  0  0
    3.7500    1.2990    0.0000 C   0  0  0  0  0  0  0  0  0  0  0  0
    3.0000    2.5981    0.0000 C   0  0  0  0  0  0  0  0  0  0  0  0
    3.7500    3.8971    0.0000 C   0  0  0  0  0  0  0  0  0  0  0  0
    5.2500    3.8971    0.0000 C   0  0  0  0  0  0  0  0  0  0  0  0
    6.0000    2.5981    0.0000 C   0  0  0  0  0  0  0  0  0  0  0  0
    5.2500    1.2990    0.0000 C   0  0  0  0  0  0  0  0  0  0  0  0
    5.2500   -1.2990    0.0000 C   0  0  0  0  0  0  0  0  0  0  0  0
    6.0000    0.0000    0.0000 O   0  0  0  0  0  0  0  0  0  0  0  0
    6.0000   -2.5981    0.0000 O   0  0  0  0  0  0  0  0  0  0  0  0
  1  2  1  0
  2  3  2  0
  2  4  1  0
  4  5  1  0
  5  6  2  0
  5  7  1  0
  4  8  1  0
  8  9  2  0
  8 10  1  0
 10 11  1  0
 11 12  2  0
 11 13  1  0
 13 14  1  0
 14 15  1  0
 15 16  2  0
 16 17  1  0
 17 18  2  0
 18 19  1  0
 19 20  2  0
 13 21  1  0
 21 22  2  0
 21 23  1  0
 20 15  1  0
M  END
>  <Title>  (1113) 
idABOWgen6

$$$$

     RDKit          2D

  9  9  0  0  0  0  0  0  0  0999 V2000
    3.4598   -0.0000    0.0000 C   0  0  0  0  0  0  0  0  0  0  0  0
    1.9598    0.0000    0.0000 C   0  0  0  0  0  0  0  0  0  0  0  0
    1.3858   -1.3858    0.0000 C   0  0  0  0  0  0  0  0  0  0  0  0
   -0.0000   -1.9598    0.0000 C   0  0  0  0  0  0  0  0  0  0  0  0
   -1.3858   -1.3858    0.0000 C   0  0  0  0  0  0  0  0  0  0  0  0
   -1.9598    0.0000    0.0000 C   0  0  0  0  0  0  0  0  0  0  0  0
   -1.3858    1.3858    0.0000 C   0  0  0  0  0  0  0  0  0  0  0  0
    0.0000    1.9598    0.0000 C   0  0  0  0  0  0  0  0  0  0  0  0
    1.3858    1.3858    0.0000 C   0  0  0  0  0  0  0  0  0  0  0  0
  1  2  1  0
  2  3  1  0
  3  4  2  0
  4  5  1  0
  5  6  2  0
  6  7  1  0
  7  8  1  0
  8  9  1  0
  9  2  1  0
M  END
>  <Title>  (1114) 
idABOXgen6

$$$$

     RDKit          2D

 12 13  0  0  0  0  0  0  0  0999 V2000
    3.0000    0.0000    0.0000 C   0  0  0  0  0  0  0  0  0  0  0  0
    1.5000    0.0000    0.0000 C   0  0  0  0  0  0  0  0  0  0  0  0
    0.7500   -1.2990    0.0000 C   0  0  0  0  0  0  0  0  0  0  0  0
   -0.7500   -1.2990    0.0000 C   0  0  0  0  0  0  0  0  0  0  0  0
   -1.5000    0.0000    0.0000 C   0  0  0  0  0  0  0  0  0  0  0  0
   -3.0000    0.0000    0.0000 C   0  0  0  0  0  0  0  0  0  0  0  0
   -3.7500    1.2990    0.0000 C   0  0  0  0  0  0  0  0  0  0  0  0
   -3.0000    2.5981    0.0000 C   0  0  0  0  0  0  0  0  0  0  0  0
   -3.7500    3.8971    0.0000 C   0  0  0  0  0  0  0  0  0  0  0  0
   -1.5000    2.5981    0.0000 C   0  0  0  0  0  0  0  0  0  0  0  0
   -0.7500    1.2990    0.0000 C   0  0  0  0  0  0  0  0  0  0  0  0
    0.7500    1.2990    0.0000 C   0  0  0  0  0  0  0  0  0  0  0  0
  1  2  1  0
  2  3  2  0
  3  4  1  0
  4  5  2  0
  5  6  1  0
  6  7  2  0
  7  8  1  0
  8  9  1  0
  8 10  2  0
 10 11  1  0
 11 12  2  0
 12  2  1  0
 11  5  1  0
M  END
>  <Title>  (1115) 
idABOYgen6

$$$$

     RDKit          2D

 20 21  0  0  0  0  0  0  0  0999 V2000
   -1.2113   -8.0209    0.0000 C   0  0  0  0  0  0  0  0  0  0  0  0
   -1.0805   -6.5266    0.0000 C   0  0  0  0  0  0  0  0  0  0  0  0
    0.2789   -5.8926    0.0000 O   0  0  0  0  0  0  0  0  0  0  0  0
   -2.3093   -5.6662    0.0000 O   0  0  0  0  0  0  0  0  0  0  0  0
   -2.1785   -4.1719    0.0000 C   0  0  0  0  0  0  0  0  0  0  0  0
   -0.7296   -3.7837    0.0000 C   0  0  0  0  0  0  0  0  0  0  0  0
    0.1307   -2.5550    0.0000 C   0  0  0  0  0  0  0  0  0  0  0  0
   -0.0000   -1.0607    0.0000 C   0  0  0  0  0  0  0  0  0  0  0  0
    1.0607    0.0000    0.0000 C   0  0  0  0  0  0  0  0  0  0  0  0
    2.5607    0.0000    0.0000 O   0  0  0  0  0  0  0  0  0  0  0  0
    0.0000    1.0607    0.0000 N   0  0  0  0  0  0  0  0  0  0  0  0
   -1.0607    0.0000    0.0000 C   0  0  0  0  0  0  0  0  0  0  0  0
   -2.5550    0.1307    0.0000 C   0  0  0  0  0  0  0  0  0  0  0  0
   -3.7837   -0.7296    0.0000 C   0  0  0  0  0  0  0  0  0  0  0  0
   -4.1719   -2.1785    0.0000 C   0  0  0  0  0  0  0  0  0  0  0  0
   -5.6662   -2.3093    0.0000 C   0  0  0  0  0  0  0  0  0  0  0  0
   -6.3001   -3.6687    0.0000 O   0  0  0  0  0  0  0  0  0  0  0  0
   -6.5266   -1.0805    0.0000 O   0  0  0  0  0  0  0  0  0  0  0  0
   -3.5380   -3.5380    0.0000 C   0  0  0  0  0  0  0  0  0  0  0  0
   -4.5986   -4.5986    0.0000 O   0  0  0  0  0  0  0  0  0  0  0  0
  1  2  1  0
  2  3  2  0
  2  4  1  0
  4  5  1  0
  5  6  2  0
  6  7  1  0
  7  8  2  0
  8  9  1  0
  9 10  2  0
  9 11  1  0
 11 12  1  0
 12 13  2  0
 13 14  1  0
 14 15  2  0
 15 16  1  0
 16 17  2  0
 16 18  1  0
 15 19  1  0
 19 20  2  0
 19  5  1  0
 12  8  1  0
M  END
>  <Title>  (1116) 
idABOZgen6

$$$$

     RDKit          2D

 18 19  0  0  0  0  0  0  0  0999 V2000
    3.0613   -9.9436    0.0000 O   0  0  0  0  0  0  0  0  0  0  0  0
    1.8478   -9.0619    0.0000 C   0  0  0  0  0  0  0  0  0  0  0  0
    0.4775   -9.6721    0.0000 O   0  0  0  0  0  0  0  0  0  0  0  0
    2.0046   -7.5702    0.0000 C   0  0  0  0  0  0  0  0  0  0  0  0
    3.3037   -6.8202    0.0000 C   0  0  0  0  0  0  0  0  0  0  0  0
    2.9918   -5.3529    0.0000 C   0  0  0  0  0  0  0  0  0  0  0  0
    1.5000   -5.1962    0.0000 C   0  0  0  0  0  0  0  0  0  0  0  0
    0.7500   -3.8971    0.0000 C   0  0  0  0  0  0  0  0  0  0  0  0
   -0.7500   -3.8971    0.0000 O   0  0  0  0  0  0  0  0  0  0  0  0
    1.5000   -2.5981    0.0000 N   0  0  0  0  0  0  0  0  0  0  0  0
    0.7500   -1.2990    0.0000 C   0  0  0  0  0  0  0  0  0  0  0  0
    1.5000    0.0000    0.0000 C   0  0  0  0  0  0  0  0  0  0  0  0
    0.7500    1.2990    0.0000 C   0  0  0  0  0  0  0  0  0  0  0  0
   -0.7500    1.2990    0.0000 C   0  0  0  0  0  0  0  0  0  0  0  0
   -1.5000    2.5981    0.0000 O   0  0  0  0  0  0  0  0  0  0  0  0
   -1.5000    0.0000    0.0000 C   0  0  0  0  0  0  0  0  0  0  0  0
   -0.7500   -1.2990    0.0000 C   0  0  0  0  0  0  0  0  0  0  0  0
    0.8899   -6.5665    0.0000 C   0  0  0  0  0  0  0  0  0  0  0  0
  1  2  2  0
  2  3  1  0
  2  4  1  0
  4  5  1  0
  5  6  1  0
  6  7  1  0
  7  8  1  0
  8  9  2  0
  8 10  1  0
 10 11  1  0
 11 12  2  0
 12 13  1  0
 13 14  2  0
 14 15  1  0
 14 16  1  0
 16 17  2  0
  7 18  1  0
 18  4  1  0
 17 11  1  0
M  END
>  <Title>  (1117) 
idABPAgen6

$$$$

     RDKit          2D

 50 57  0  0  0  0  0  0  0  0999 V2000
   -9.4222    9.6108    0.0000 C   0  0  0  0  0  0  0  0  0  0  0  0
   -7.9304    9.4540    0.0000 C   0  0  0  0  0  0  0  0  0  0  0  0
   -6.9267   10.5687    0.0000 C   0  0  0  0  0  0  0  0  0  0  0  0
   -5.5564    9.9586    0.0000 C   0  0  0  0  0  0  0  0  0  0  0  0
   -5.7132    8.4668    0.0000 C   0  0  0  0  0  0  0  0  0  0  0  0
   -4.5984    7.4631    0.0000 C   0  0  0  0  0  0  0  0  0  0  0  0
   -3.1719    7.9266    0.0000 C   0  0  0  0  0  0  0  0  0  0  0  0
   -2.8600    9.3939    0.0000 C   0  0  0  0  0  0  0  0  0  0  0  0
   -1.4334    9.8574    0.0000 C   0  0  0  0  0  0  0  0  0  0  0  0
   -1.1215   11.3246    0.0000 O   0  0  0  0  0  0  0  0  0  0  0  0
   -0.3187    8.8537    0.0000 C   0  0  0  0  0  0  0  0  0  0  0  0
   -0.6306    7.3865    0.0000 C   0  0  0  0  0  0  0  0  0  0  0  0
   -2.0571    6.9229    0.0000 C   0  0  0  0  0  0  0  0  0  0  0  0
   -2.3690    5.4557    0.0000 C   0  0  0  0  0  0  0  0  0  0  0  0
   -3.7956    4.9922    0.0000 C   0  0  0  0  0  0  0  0  0  0  0  0
   -4.1075    3.5250    0.0000 C   0  0  0  0  0  0  0  0  0  0  0  0
   -2.9927    2.5213    0.0000 C   0  0  0  0  0  0  0  0  0  0  0  0
   -1.5662    2.9848    0.0000 C   0  0  0  0  0  0  0  0  0  0  0  0
   -1.2543    4.4520    0.0000 C   0  0  0  0  0  0  0  0  0  0  0  0
    0.1723    4.9155    0.0000 N   0  0  0  0  0  0  0  0  0  0  0  0
    0.6358    6.3421    0.0000 N   0  0  0  0  0  0  0  0  0  0  0  0
    2.1358    6.3421    0.0000 N   0  0  0  0  0  0  0  0  0  0  0  0
    2.5993    4.9155    0.0000 N   0  0  0  0  0  0  0  0  0  0  0  0
    1.3858    4.0339    0.0000 C   0  0  0  0  0  0  0  0  0  0  0  0
    1.3858    2.5339    0.0000 C   0  0  0  0  0  0  0  0  0  0  0  0
    2.7716    1.9598    0.0000 C   0  0  0  0  0  0  0  0  0  0  0  0
    3.3457    0.5740    0.0000 C   0  0  0  0  0  0  0  0  0  0  0  0
    4.8457    0.5740    0.0000 C   0  0  0  0  0  0  0  0  0  0  0  0
    2.7716   -0.8118    0.0000 C   0  0  0  0  0  0  0  0  0  0  0  0
    1.3858   -1.3858    0.0000 C   0  0  0  0  0  0  0  0  0  0  0  0
    1.9598    0.0000    0.0000 C   0  0  0  0  0  0  0  0  0  0  0  0
    1.3858    1.3858    0.0000 C   0  0  0  0  0  0  0  0  0  0  0  0
    0.0000    1.9598    0.0000 C   0  0  0  0  0  0  0  0  0  0  0  0
   -1.3858    1.3858    0.0000 O   0  0  0  0  0  0  0  0  0  0  0  0
   -1.9598   -0.0000    0.0000 C   0  0  0  0  0  0  0  0  0  0  0  0
   -3.4598    0.0000    0.0000 C   0  0  0  0  0  0  0  0  0  0  0  0
   -4.2098    1.2990    0.0000 C   0  0  0  0  0  0  0  0  0  0  0  0
   -5.7098    1.2990    0.0000 C   0  0  0  0  0  0  0  0  0  0  0  0
   -6.4598    0.0000    0.0000 C   0  0  0  0  0  0  0  0  0  0  0  0
   -5.7098   -1.2990    0.0000 C   0  0  0  0  0  0  0  0  0  0  0  0
   -4.2098   -1.2990    0.0000 C   0  0  0  0  0  0  0  0  0  0  0  0
   -1.3858   -1.3858    0.0000 C   0  0  0  0  0  0  0  0  0  0  0  0
   -0.0000   -1.9598    0.0000 C   0  0  0  0  0  0  0  0  0  0  0  0
   -7.1804    8.1549    0.0000 C   0  0  0  0  0  0  0  0  0  0  0  0
   -7.7905    6.7846    0.0000 C   0  0  0  0  0  0  0  0  0  0  0  0
   -9.2577    6.4728    0.0000 C   0  0  0  0  0  0  0  0  0  0  0  0
   -9.4145    4.9810    0.0000 C   0  0  0  0  0  0  0  0  0  0  0  0
   -8.0442    4.3709    0.0000 C   0  0  0  0  0  0  0  0  0  0  0  0
   -7.0405    5.4856    0.0000 C   0  0  0  0  0  0  0  0  0  0  0  0
   -5.5487    5.3288    0.0000 O   0  0  0  0  0  0  0  0  0  0  0  0
  1  2  1  0
  2  3  2  0
  3  4  1  0
  4  5  2  0
  5  6  1  0
  6  7  1  0
  7  8  2  0
  8  9  1  0
  9 10  1  0
  9 11  2  0
 11 12  1  0
 12 13  2  0
 13 14  1  0
 14 15  2  0
 15 16  1  0
 16 17  2  0
 17 18  1  0
 18 19  2  0
 19 20  1  0
 20 21  1  0
 21 22  2  0
 22 23  1  0
 23 24  2  0
 24 25  1  0
 25 26  2  0
 26 27  1  0
 27 28  1  0
 27 29  1  0
 29 30  1  0
 30 31  2  0
 31 32  1  0
 32 33  2  0
 33 34  1  0
 34 35  1  0
 35 36  1  0
 36 37  2  0
 37 38  1  0
 38 39  2  0
 39 40  1  0
 40 41  2  0
 35 42  1  0
 42 43  1  0
  5 44  1  0
 44 45  1  0
 45 46  2  0
 46 47  1  0
 47 48  2  0
 48 49  1  0
 49 50  2  0
 44  2  1  0
 49 45  1  0
 13  7  1  0
 19 14  1  0
 24 20  1  0
 33 25  1  0
 41 36  1  0
 43 30  1  0
M  END
>  <Title>  (1118) 
idABPBgen6

$$$$

     RDKit          2D

 43 49  0  0  0  0  0  0  0  0999 V2000
   -3.0000   -2.5981    0.0000 C   0  0  0  0  0  0  0  0  0  0  0  0
   -1.5000   -2.5981    0.0000 C   0  0  0  0  0  0  0  0  0  0  0  0
   -0.7500   -3.8971    0.0000 C   0  0  0  0  0  0  0  0  0  0  0  0
    0.7500   -3.8971    0.0000 C   0  0  0  0  0  0  0  0  0  0  0  0
    1.5000   -2.5981    0.0000 C   0  0  0  0  0  0  0  0  0  0  0  0
    3.0000   -2.5981    0.0000 C   0  0  0  0  0  0  0  0  0  0  0  0
    3.7500   -1.2990    0.0000 O   0  0  0  0  0  0  0  0  0  0  0  0
    3.7500   -3.8971    0.0000 N   0  0  0  0  0  0  0  0  0  0  0  0
    5.2500   -3.8971    0.0000 C   0  0  0  0  0  0  0  0  0  0  0  0
    6.1317   -2.6836    0.0000 N   0  0  0  0  0  0  0  0  0  0  0  0
    7.5583   -3.1471    0.0000 N   0  0  0  0  0  0  0  0  0  0  0  0
    7.5583   -4.6471    0.0000 N   0  0  0  0  0  0  0  0  0  0  0  0
    6.1317   -5.1106    0.0000 N   0  0  0  0  0  0  0  0  0  0  0  0
    5.6682   -6.5372    0.0000 C   0  0  0  0  0  0  0  0  0  0  0  0
    4.2009   -6.8491    0.0000 C   0  0  0  0  0  0  0  0  0  0  0  0
    3.7374   -8.2757    0.0000 C   0  0  0  0  0  0  0  0  0  0  0  0
    4.7411   -9.3904    0.0000 C   0  0  0  0  0  0  0  0  0  0  0  0
    6.2083   -9.0785    0.0000 C   0  0  0  0  0  0  0  0  0  0  0  0
    6.6718   -7.6519    0.0000 C   0  0  0  0  0  0  0  0  0  0  0  0
    8.1391   -7.3401    0.0000 C   0  0  0  0  0  0  0  0  0  0  0  0
    8.6026   -5.9135    0.0000 C   0  0  0  0  0  0  0  0  0  0  0  0
   10.0698   -5.6016    0.0000 C   0  0  0  0  0  0  0  0  0  0  0  0
   11.0735   -6.7163    0.0000 C   0  0  0  0  0  0  0  0  0  0  0  0
   10.6100   -8.1429    0.0000 C   0  0  0  0  0  0  0  0  0  0  0  0
    9.1428   -8.4548    0.0000 C   0  0  0  0  0  0  0  0  0  0  0  0
    8.6792   -9.8814    0.0000 C   0  0  0  0  0  0  0  0  0  0  0  0
    7.2120  -10.1932    0.0000 C   0  0  0  0  0  0  0  0  0  0  0  0
    6.7485  -11.6198    0.0000 C   0  0  0  0  0  0  0  0  0  0  0  0
    7.7522  -12.7345    0.0000 C   0  0  0  0  0  0  0  0  0  0  0  0
    9.2194  -12.4227    0.0000 C   0  0  0  0  0  0  0  0  0  0  0  0
    9.6829  -10.9961    0.0000 C   0  0  0  0  0  0  0  0  0  0  0  0
   11.1502  -10.6842    0.0000 C   0  0  0  0  0  0  0  0  0  0  0  0
   12.1539  -11.7989    0.0000 N   0  0  0  0  0  0  0  0  0  0  0  0
   13.6211  -11.4871    0.0000 N   0  0  0  0  0  0  0  0  0  0  0  0
   14.0846  -10.0605    0.0000 N   0  0  0  0  0  0  0  0  0  0  0  0
   13.0809   -8.9458    0.0000 N   0  0  0  0  0  0  0  0  0  0  0  0
   11.6137   -9.2576    0.0000 N   0  0  0  0  0  0  0  0  0  0  0  0
    0.7500   -1.2990    0.0000 C   0  0  0  0  0  0  0  0  0  0  0  0
    1.5000    0.0000    0.0000 C   0  0  0  0  0  0  0  0  0  0  0  0
    0.7500    1.2990    0.0000 C   0  0  0  0  0  0  0  0  0  0  0  0
   -0.7500    1.2990    0.0000 C   0  0  0  0  0  0  0  0  0  0  0  0
   -1.5000    0.0000    0.0000 C   0  0  0  0  0  0  0  0  0  0  0  0
   -0.7500   -1.2990    0.0000 C   0  0  0  0  0  0  0  0  0  0  0  0
  1  2  1  0
  2  3  1  0
  3  4  1  0
  4  5  1  0
  5  6  1  0
  6  7  2  0
  6  8  1  0
  8  9  1  0
  9 10  2  0
 10 11  1  0
 11 12  2  0
 12 13  1  0
 13 14  1  0
 14 15  2  0
 15 16  1  0
 16 17  2  0
 17 18  1  0
 18 19  2  0
 19 20  1  0
 20 21  2  0
 21 22  1  0
 22 23  2  0
 23 24  1  0
 24 25  2  0
 25 26  1  0
 26 27  2  0
 27 28  1  0
 28 29  2  0
 29 30  1  0
 30 31  2  0
 31 32  1  0
 32 33  2  0
 33 34  1  0
 34 35  2  0
 35 36  1  0
 36 37  2  0
  5 38  1  0
 38 39  2  0
 39 40  1  0
 40 41  2  0
 41 42  1  0
 42 43  2  0
 43  2  1  0
 13  9  1  0
 19 14  1  0
 25 20  1  0
 31 26  1  0
 37 32  1  0
 43 38  1  0
M  END
>  <Title>  (1119) 
idABPCgen6

$$$$

     RDKit          2D

 25 28  0  0  0  0  0  0  0  0999 V2000
   -2.6401   -3.1891    0.0000 C   0  0  0  0  0  0  0  0  0  0  0  0
   -1.2135   -2.7256    0.0000 C   0  0  0  0  0  0  0  0  0  0  0  0
   -0.0000   -3.6073    0.0000 C   0  0  0  0  0  0  0  0  0  0  0  0
    1.2135   -2.7256    0.0000 C   0  0  0  0  0  0  0  0  0  0  0  0
    2.6401   -3.1891    0.0000 N   0  0  0  0  0  0  0  0  0  0  0  0
    3.8536   -2.3075    0.0000 C   0  0  0  0  0  0  0  0  0  0  0  0
    5.0672   -3.1891    0.0000 C   0  0  0  0  0  0  0  0  0  0  0  0
    4.6036   -4.6157    0.0000 N   0  0  0  0  0  0  0  0  0  0  0  0
    5.4853   -5.8293    0.0000 C   0  0  0  0  0  0  0  0  0  0  0  0
    6.9771   -5.6725    0.0000 O   0  0  0  0  0  0  0  0  0  0  0  0
    4.8752   -7.1996    0.0000 N   0  0  0  0  0  0  0  0  0  0  0  0
    5.7569   -8.4131    0.0000 C   0  0  0  0  0  0  0  0  0  0  0  0
    5.1468   -9.7834    0.0000 N   0  0  0  0  0  0  0  0  0  0  0  0
    6.0285  -10.9969    0.0000 N   0  0  0  0  0  0  0  0  0  0  0  0
    7.5202  -10.8402    0.0000 N   0  0  0  0  0  0  0  0  0  0  0  0
    8.1303   -9.4698    0.0000 N   0  0  0  0  0  0  0  0  0  0  0  0
    7.2487   -8.2563    0.0000 N   0  0  0  0  0  0  0  0  0  0  0  0
    3.1036   -4.6157    0.0000 C   0  0  0  0  0  0  0  0  0  0  0  0
    2.2220   -5.8293    0.0000 O   0  0  0  0  0  0  0  0  0  0  0  0
    0.7500   -1.2990    0.0000 C   0  0  0  0  0  0  0  0  0  0  0  0
    1.5000    0.0000    0.0000 C   0  0  0  0  0  0  0  0  0  0  0  0
    0.7500    1.2990    0.0000 C   0  0  0  0  0  0  0  0  0  0  0  0
   -0.7500    1.2990    0.0000 C   0  0  0  0  0  0  0  0  0  0  0  0
   -1.5000    0.0000    0.0000 C   0  0  0  0  0  0  0  0  0  0  0  0
   -0.7500   -1.2990    0.0000 C   0  0  0  0  0  0  0  0  0  0  0  0
  1  2  1  0
  2  3  2  0
  3  4  1  0
  4  5  1  0
  5  6  1  0
  6  7  1  0
  7  8  1  0
  8  9  1  0
  9 10  2  0
  9 11  1  0
 11 12  1  0
 12 13  2  0
 13 14  1  0
 14 15  2  0
 15 16  1  0
 16 17  2  0
  8 18  1  0
 18 19  2  0
  4 20  1  0
 20 21  2  0
 21 22  1  0
 22 23  2  0
 23 24  1  0
 24 25  2  0
 25  2  1  0
 18  5  1  0
 25 20  1  0
 17 12  1  0
M  END
>  <Title>  (1120) 
idABPDgen6

$$$$

     RDKit          2D

 25 28  0  0  0  0  0  0  0  0999 V2000
   -3.7500   -1.2990    0.0000 O   0  0  0  0  0  0  0  0  0  0  0  0
   -3.0000   -2.5981    0.0000 C   0  0  0  0  0  0  0  0  0  0  0  0
   -3.7500   -3.8971    0.0000 N   0  0  0  0  0  0  0  0  0  0  0  0
   -5.2500   -3.8971    0.0000 C   0  0  0  0  0  0  0  0  0  0  0  0
   -6.0000   -2.5981    0.0000 C   0  0  0  0  0  0  0  0  0  0  0  0
   -7.5000   -2.5981    0.0000 N   0  0  0  0  0  0  0  0  0  0  0  0
   -8.2500   -3.8971    0.0000 N   0  0  0  0  0  0  0  0  0  0  0  0
   -7.5000   -5.1962    0.0000 N   0  0  0  0  0  0  0  0  0  0  0  0
   -6.0000   -5.1962    0.0000 N   0  0  0  0  0  0  0  0  0  0  0  0
   -1.5000   -2.5981    0.0000 N   0  0  0  0  0  0  0  0  0  0  0  0
   -0.7500   -3.8971    0.0000 C   0  0  0  0  0  0  0  0  0  0  0  0
    0.7500   -3.8971    0.0000 C   0  0  0  0  0  0  0  0  0  0  0  0
    1.5000   -2.5981    0.0000 C   0  0  0  0  0  0  0  0  0  0  0  0
    3.0000   -2.5981    0.0000 C   0  0  0  0  0  0  0  0  0  0  0  0
    3.7500   -3.8971    0.0000 C   0  0  0  0  0  0  0  0  0  0  0  0
    5.2500   -3.8971    0.0000 C   0  0  0  0  0  0  0  0  0  0  0  0
    6.0000   -2.5981    0.0000 C   0  0  0  0  0  0  0  0  0  0  0  0
    5.2500   -1.2990    0.0000 C   0  0  0  0  0  0  0  0  0  0  0  0
    3.7500   -1.2990    0.0000 C   0  0  0  0  0  0  0  0  0  0  0  0
    0.7500   -1.2990    0.0000 C   0  0  0  0  0  0  0  0  0  0  0  0
    1.5000    0.0000    0.0000 C   0  0  0  0  0  0  0  0  0  0  0  0
    0.7500    1.2990    0.0000 C   0  0  0  0  0  0  0  0  0  0  0  0
   -0.7500    1.2990    0.0000 C   0  0  0  0  0  0  0  0  0  0  0  0
   -1.5000    0.0000    0.0000 C   0  0  0  0  0  0  0  0  0  0  0  0
   -0.7500   -1.2990    0.0000 C   0  0  0  0  0  0  0  0  0  0  0  0
  1  2  2  0
  2  3  1  0
  3  4  1  0
  4  5  2  0
  5  6  1  0
  6  7  2  0
  7  8  1  0
  8  9  2  0
  2 10  1  0
 10 11  1  0
 11 12  1  0
 12 13  1  0
 13 14  1  0
 14 15  2  0
 15 16  1  0
 16 17  2  0
 17 18  1  0
 18 19  2  0
 13 20  1  0
 20 21  2  0
 21 22  1  0
 22 23  2  0
 23 24  1  0
 24 25  2  0
  9  4  1  0
 25 10  1  0
 19 14  1  0
 25 20  1  0
M  END
>  <Title>  (1121) 
idABPEgen6

$$$$

     RDKit          2D

 23 26  0  0  0  0  0  0  0  0999 V2000
   -2.6401   -3.1891    0.0000 C   0  0  0  0  0  0  0  0  0  0  0  0
   -1.2135   -2.7256    0.0000 C   0  0  0  0  0  0  0  0  0  0  0  0
   -0.0000   -3.6073    0.0000 C   0  0  0  0  0  0  0  0  0  0  0  0
    1.2135   -2.7256    0.0000 N   0  0  0  0  0  0  0  0  0  0  0  0
    2.6401   -3.1891    0.0000 C   0  0  0  0  0  0  0  0  0  0  0  0
    2.9520   -4.6564    0.0000 C   0  0  0  0  0  0  0  0  0  0  0  0
    1.8373   -5.6601    0.0000 O   0  0  0  0  0  0  0  0  0  0  0  0
    4.3786   -5.1199    0.0000 N   0  0  0  0  0  0  0  0  0  0  0  0
    4.6904   -6.5871    0.0000 C   0  0  0  0  0  0  0  0  0  0  0  0
    3.6867   -7.7018    0.0000 C   0  0  0  0  0  0  0  0  0  0  0  0
    4.4367   -9.0009    0.0000 C   0  0  0  0  0  0  0  0  0  0  0  0
    5.9040   -8.6890    0.0000 C   0  0  0  0  0  0  0  0  0  0  0  0
    7.2743   -9.2991    0.0000 C   0  0  0  0  0  0  0  0  0  0  0  0
    8.2780   -8.1844    0.0000 C   0  0  0  0  0  0  0  0  0  0  0  0
    7.5280   -6.8854    0.0000 C   0  0  0  0  0  0  0  0  0  0  0  0
    8.1381   -5.5150    0.0000 O   0  0  0  0  0  0  0  0  0  0  0  0
    6.0607   -7.1972    0.0000 C   0  0  0  0  0  0  0  0  0  0  0  0
    0.7500   -1.2990    0.0000 C   0  0  0  0  0  0  0  0  0  0  0  0
    1.5000    0.0000    0.0000 C   0  0  0  0  0  0  0  0  0  0  0  0
    0.7500    1.2990    0.0000 C   0  0  0  0  0  0  0  0  0  0  0  0
   -0.7500    1.2990    0.0000 C   0  0  0  0  0  0  0  0  0  0  0  0
   -1.5000    0.0000    0.0000 C   0  0  0  0  0  0  0  0  0  0  0  0
   -0.7500   -1.2990    0.0000 C   0  0  0  0  0  0  0  0  0  0  0  0
  1  2  1  0
  2  3  1  0
  3  4  1  0
  4  5  1  0
  5  6  1  0
  6  7  2  0
  6  8  1  0
  8  9  1  0
  9 10  2  0
 10 11  1  0
 11 12  2  0
 12 13  1  0
 13 14  2  0
 14 15  1  0
 15 16  1  0
 15 17  2  0
  4 18  1  0
 18 19  2  0
 19 20  1  0
 20 21  2  0
 21 22  1  0
 22 23  2  0
 23  2  1  0
 17  9  1  0
 23 18  1  0
 17 12  1  0
M  END
>  <Title>  (1122) 
idABPFgen6

$$$$

     RDKit          2D

 30 33  0  0  0  0  0  0  0  0999 V2000
   -3.1981   -1.5132    0.0000 C   0  0  0  0  0  0  0  0  0  0  0  0
   -1.8991   -2.2632    0.0000 C   0  0  0  0  0  0  0  0  0  0  0  0
   -2.1595   -3.7404    0.0000 C   0  0  0  0  0  0  0  0  0  0  0  0
   -1.4095   -5.0395    0.0000 C   0  0  0  0  0  0  0  0  0  0  0  0
   -0.0000   -5.5525    0.0000 C   0  0  0  0  0  0  0  0  0  0  0  0
    1.4095   -5.0395    0.0000 C   0  0  0  0  0  0  0  0  0  0  0  0
    2.1595   -3.7404    0.0000 C   0  0  0  0  0  0  0  0  0  0  0  0
    1.8991   -2.2632    0.0000 N   0  0  0  0  0  0  0  0  0  0  0  0
    3.1981   -1.5132    0.0000 C   0  0  0  0  0  0  0  0  0  0  0  0
    3.3549   -0.0214    0.0000 C   0  0  0  0  0  0  0  0  0  0  0  0
    4.8221    0.2904    0.0000 C   0  0  0  0  0  0  0  0  0  0  0  0
    5.5721   -1.0086    0.0000 N   0  0  0  0  0  0  0  0  0  0  0  0
    7.0639   -1.1654    0.0000 C   0  0  0  0  0  0  0  0  0  0  0  0
    7.9456    0.0481    0.0000 O   0  0  0  0  0  0  0  0  0  0  0  0
    7.6740   -2.5357    0.0000 N   0  0  0  0  0  0  0  0  0  0  0  0
    9.1658   -2.6925    0.0000 C   0  0  0  0  0  0  0  0  0  0  0  0
    9.7759   -4.0628    0.0000 N   0  0  0  0  0  0  0  0  0  0  0  0
   11.2677   -4.2196    0.0000 N   0  0  0  0  0  0  0  0  0  0  0  0
   12.1494   -3.0061    0.0000 N   0  0  0  0  0  0  0  0  0  0  0  0
   11.5393   -1.6358    0.0000 N   0  0  0  0  0  0  0  0  0  0  0  0
   10.0475   -1.4790    0.0000 N   0  0  0  0  0  0  0  0  0  0  0  0
    4.5684   -2.1233    0.0000 C   0  0  0  0  0  0  0  0  0  0  0  0
    0.7500   -1.2990    0.0000 C   0  0  0  0  0  0  0  0  0  0  0  0
    1.5000    0.0000    0.0000 C   0  0  0  0  0  0  0  0  0  0  0  0
    0.7500    1.2990    0.0000 C   0  0  0  0  0  0  0  0  0  0  0  0
   -0.7500    1.2990    0.0000 C   0  0  0  0  0  0  0  0  0  0  0  0
   -1.5000    2.5981    0.0000 C   0  0  0  0  0  0  0  0  0  0  0  0
   -2.2500    3.8971    0.0000 N   0  0  0  0  0  0  0  0  0  0  0  0
   -1.5000    0.0000    0.0000 C   0  0  0  0  0  0  0  0  0  0  0  0
   -0.7500   -1.2990    0.0000 C   0  0  0  0  0  0  0  0  0  0  0  0
  1  2  1  0
  2  3  1  0
  3  4  2  0
  4  5  1  0
  5  6  1  0
  6  7  1  0
  7  8  1  0
  8  9  1  0
  9 10  1  0
 10 11  1  0
 11 12  1  0
 12 13  1  0
 13 14  2  0
 13 15  1  0
 15 16  1  0
 16 17  2  0
 17 18  1  0
 18 19  2  0
 19 20  1  0
 20 21  2  0
 12 22  1  0
  8 23  1  0
 23 24  2  0
 24 25  1  0
 25 26  2  0
 26 27  1  0
 27 28  3  0
 26 29  1  0
 29 30  2  0
 30  2  1  0
 22  9  1  0
 30 23  1  0
 21 16  1  0
M  END
>  <Title>  (1123) 
idABPGgen6

$$$$

     RDKit          2D

 37 42  0  0  0  0  0  0  0  0999 V2000
    3.0000    0.0000    0.0000 C   0  0  0  0  0  0  0  0  0  0  0  0
    1.5000    0.0000    0.0000 C   0  0  0  0  0  0  0  0  0  0  0  0
    0.7500   -1.2990    0.0000 C   0  0  0  0  0  0  0  0  0  0  0  0
   -0.7500   -1.2990    0.0000 C   0  0  0  0  0  0  0  0  0  0  0  0
   -1.5000    0.0000    0.0000 C   0  0  0  0  0  0  0  0  0  0  0  0
   -0.7500    1.2990    0.0000 C   0  0  0  0  0  0  0  0  0  0  0  0
   -1.5000    2.5981    0.0000 N   0  0  0  0  0  0  0  0  0  0  0  0
   -0.7500    3.8971    0.0000 C   0  0  0  0  0  0  0  0  0  0  0  0
   -1.3601    5.2674    0.0000 N   0  0  0  0  0  0  0  0  0  0  0  0
   -0.2454    6.2711    0.0000 N   0  0  0  0  0  0  0  0  0  0  0  0
    1.0537    5.5211    0.0000 N   0  0  0  0  0  0  0  0  0  0  0  0
    0.7418    4.0539    0.0000 N   0  0  0  0  0  0  0  0  0  0  0  0
    1.7455    2.9392    0.0000 C   0  0  0  0  0  0  0  0  0  0  0  0
    1.6670    1.4412    0.0000 C   0  0  0  0  0  0  0  0  0  0  0  0
    3.1649    1.3627    0.0000 C   0  0  0  0  0  0  0  0  0  0  0  0
    4.1686    0.2480    0.0000 C   0  0  0  0  0  0  0  0  0  0  0  0
    5.6358    0.5599    0.0000 C   0  0  0  0  0  0  0  0  0  0  0  0
    6.6395   -0.5548    0.0000 C   0  0  0  0  0  0  0  0  0  0  0  0
    8.1068   -0.2430    0.0000 C   0  0  0  0  0  0  0  0  0  0  0  0
    8.5703    1.1836    0.0000 C   0  0  0  0  0  0  0  0  0  0  0  0
    7.5666    2.2983    0.0000 C   0  0  0  0  0  0  0  0  0  0  0  0
    6.0994    1.9865    0.0000 C   0  0  0  0  0  0  0  0  0  0  0  0
    3.2434    2.8607    0.0000 C   0  0  0  0  0  0  0  0  0  0  0  0
    4.3581    3.8644    0.0000 C   0  0  0  0  0  0  0  0  0  0  0  0
    5.7847    3.4009    0.0000 C   0  0  0  0  0  0  0  0  0  0  0  0
    6.8994    4.4046    0.0000 C   0  0  0  0  0  0  0  0  0  0  0  0
    6.5876    5.8718    0.0000 C   0  0  0  0  0  0  0  0  0  0  0  0
    5.1610    6.3353    0.0000 C   0  0  0  0  0  0  0  0  0  0  0  0
    4.0463    5.3316    0.0000 C   0  0  0  0  0  0  0  0  0  0  0  0
    2.6197    5.7951    0.0000 C   0  0  0  0  0  0  0  0  0  0  0  0
    1.5050    4.7914    0.0000 C   0  0  0  0  0  0  0  0  0  0  0  0
    0.0784    5.2550    0.0000 C   0  0  0  0  0  0  0  0  0  0  0  0
   -0.2335    6.7222    0.0000 C   0  0  0  0  0  0  0  0  0  0  0  0
   -1.6601    7.1857    0.0000 O   0  0  0  0  0  0  0  0  0  0  0  0
    0.8812    7.7259    0.0000 C   0  0  0  0  0  0  0  0  0  0  0  0
    2.3078    7.2624    0.0000 C   0  0  0  0  0  0  0  0  0  0  0  0
    0.7500    1.2990    0.0000 C   0  0  0  0  0  0  0  0  0  0  0  0
  1  2  1  0
  2  3  1  0
  3  4  2  0
  4  5  1  0
  5  6  2  0
  6  7  1  0
  7  8  1  0
  8  9  2  0
  9 10  1  0
 10 11  2  0
 11 12  1  0
 12 13  1  0
 13 14  1  0
 14 15  1  0
 15 16  1  0
 16 17  1  0
 17 18  2  0
 18 19  1  0
 19 20  2  0
 20 21  1  0
 21 22  2  0
 15 23  1  0
 23 24  1  0
 24 25  2  0
 25 26  1  0
 26 27  2  0
 27 28  1  0
 28 29  2  0
 29 30  1  0
 30 31  2  0
 31 32  1  0
 32 33  2  0
 33 34  1  0
 33 35  1  0
 35 36  2  0
  6 37  1  0
 37  2  1  0
 12  8  1  0
 23 13  1  0
 29 24  1  0
 36 30  1  0
 22 17  1  0
M  END
>  <Title>  (1124) 
idABPHgen6

$$$$

     RDKit          2D

 20 22  0  0  0  0  0  0  0  0999 V2000
   -0.7500   -3.8971    0.0000 O   0  0  0  0  0  0  0  0  0  0  0  0
    0.7500   -3.8971    0.0000 C   0  0  0  0  0  0  0  0  0  0  0  0
    1.5000   -2.5981    0.0000 N   0  0  0  0  0  0  0  0  0  0  0  0
    0.7500   -1.2990    0.0000 C   0  0  0  0  0  0  0  0  0  0  0  0
    1.5000    0.0000    0.0000 C   0  0  0  0  0  0  0  0  0  0  0  0
    0.7500    1.2990    0.0000 C   0  0  0  0  0  0  0  0  0  0  0  0
   -0.7500    1.2990    0.0000 C   0  0  0  0  0  0  0  0  0  0  0  0
   -1.5000    0.0000    0.0000 C   0  0  0  0  0  0  0  0  0  0  0  0
   -0.7500   -1.2990    0.0000 C   0  0  0  0  0  0  0  0  0  0  0  0
    1.5000   -5.1962    0.0000 N   0  0  0  0  0  0  0  0  0  0  0  0
    0.7500   -6.4952    0.0000 C   0  0  0  0  0  0  0  0  0  0  0  0
    1.5000   -7.7942    0.0000 C   0  0  0  0  0  0  0  0  0  0  0  0
    3.0000   -7.7942    0.0000 C   0  0  0  0  0  0  0  0  0  0  0  0
    3.7500   -9.0933    0.0000 N   0  0  0  0  0  0  0  0  0  0  0  0
    5.2418   -9.2501    0.0000 C   0  0  0  0  0  0  0  0  0  0  0  0
    5.5537  -10.7173    0.0000 C   0  0  0  0  0  0  0  0  0  0  0  0
    4.2546  -11.4673    0.0000 C   0  0  0  0  0  0  0  0  0  0  0  0
    3.1399  -10.4636    0.0000 C   0  0  0  0  0  0  0  0  0  0  0  0
    3.7500   -6.4952    0.0000 C   0  0  0  0  0  0  0  0  0  0  0  0
    3.0000   -5.1962    0.0000 C   0  0  0  0  0  0  0  0  0  0  0  0
  1  2  2  0
  2  3  1  0
  3  4  1  0
  4  5  2  0
  5  6  1  0
  6  7  2  0
  7  8  1  0
  8  9  2  0
  2 10  1  0
 10 11  1  0
 11 12  1  0
 12 13  1  0
 13 14  1  0
 14 15  1  0
 15 16  1  0
 16 17  2  0
 17 18  1  0
 13 19  1  0
 19 20  1  0
  9  4  1  0
 20 10  1  0
 18 14  1  0
M  END
>  <Title>  (1125) 
idABPIgen6

$$$$

     RDKit          2D

 19 19  0  0  0  0  0  0  0  0999 V2000
    5.3444    0.0000    0.0000 C   0  0  0  0  0  0  0  0  0  0  0  0
    3.8444    0.0000    0.0000 C   0  0  0  0  0  0  0  0  0  0  0  0
    3.5517   -1.4712    0.0000 C   0  0  0  0  0  0  0  0  0  0  0  0
    2.7184   -2.7184    0.0000 C   0  0  0  0  0  0  0  0  0  0  0  0
    1.4712   -3.5517    0.0000 C   0  0  0  0  0  0  0  0  0  0  0  0
   -0.0000   -3.8444    0.0000 C   0  0  0  0  0  0  0  0  0  0  0  0
   -1.4712   -3.5517    0.0000 C   0  0  0  0  0  0  0  0  0  0  0  0
   -2.7184   -2.7184    0.0000 C   0  0  0  0  0  0  0  0  0  0  0  0
   -3.5517   -1.4712    0.0000 C   0  0  0  0  0  0  0  0  0  0  0  0
   -3.8444    0.0000    0.0000 C   0  0  0  0  0  0  0  0  0  0  0  0
   -3.5517    1.4712    0.0000 C   0  0  0  0  0  0  0  0  0  0  0  0
   -2.7184    2.7184    0.0000 C   0  0  0  0  0  0  0  0  0  0  0  0
   -1.4712    3.5517    0.0000 C   0  0  0  0  0  0  0  0  0  0  0  0
    0.0000    3.8444    0.0000 C   0  0  0  0  0  0  0  0  0  0  0  0
    1.4712    3.5517    0.0000 C   0  0  0  0  0  0  0  0  0  0  0  0
    2.0452    4.9376    0.0000 C   0  0  0  0  0  0  0  0  0  0  0  0
    2.7184    2.7184    0.0000 C   0  0  0  0  0  0  0  0  0  0  0  0
    3.7790    3.7790    0.0000 C   0  0  0  0  0  0  0  0  0  0  0  0
    3.5517    1.4712    0.0000 C   0  0  0  0  0  0  0  0  0  0  0  0
  1  2  1  0
  2  3  2  0
  3  4  1  0
  4  5  2  0
  5  6  1  0
  6  7  2  0
  7  8  1  0
  8  9  2  0
  9 10  1  0
 10 11  2  0
 11 12  1  0
 12 13  2  0
 13 14  1  0
 14 15  2  0
 15 16  1  0
 15 17  1  0
 17 18  1  0
 17 19  2  0
 19  2  1  0
M  END
>  <Title>  (1126) 
idABPJgen6

$$$$

     RDKit          2D

 48 53  0  0  0  0  0  0  0  0999 V2000
    4.3978    0.0000    0.0000 C   0  0  0  0  0  0  0  0  0  0  0  0
    2.8978    0.0000    0.0000 C   0  0  0  0  0  0  0  0  0  0  0  0
    2.5095   -1.4489    0.0000 C   0  0  0  0  0  0  0  0  0  0  0  0
    1.4489   -2.5095    0.0000 C   0  0  0  0  0  0  0  0  0  0  0  0
   -0.0000   -2.8978    0.0000 C   0  0  0  0  0  0  0  0  0  0  0  0
   -1.4489   -2.5095    0.0000 C   0  0  0  0  0  0  0  0  0  0  0  0
   -2.5095   -1.4489    0.0000 C   0  0  0  0  0  0  0  0  0  0  0  0
   -2.8978    0.0000    0.0000 C   0  0  0  0  0  0  0  0  0  0  0  0
   -2.5095    1.4489    0.0000 C   0  0  0  0  0  0  0  0  0  0  0  0
   -1.4489    2.5095    0.0000 C   0  0  0  0  0  0  0  0  0  0  0  0
    0.0000    2.8978    0.0000 C   0  0  0  0  0  0  0  0  0  0  0  0
    1.4489    2.5095    0.0000 C   0  0  0  0  0  0  0  0  0  0  0  0
    2.1989    3.8086    0.0000 N   0  0  0  0  0  0  0  0  0  0  0  0
    3.6989    3.8086    0.0000 C   0  0  0  0  0  0  0  0  0  0  0  0
    4.4489    2.5095    0.0000 O   0  0  0  0  0  0  0  0  0  0  0  0
    4.4489    5.1076    0.0000 C   0  0  0  0  0  0  0  0  0  0  0  0
    3.8388    6.4779    0.0000 C   0  0  0  0  0  0  0  0  0  0  0  0
    4.9535    7.4816    0.0000 C   0  0  0  0  0  0  0  0  0  0  0  0
    6.2525    6.7316    0.0000 N   0  0  0  0  0  0  0  0  0  0  0  0
    7.6229    7.3417    0.0000 C   0  0  0  0  0  0  0  0  0  0  0  0
    7.9347    8.8090    0.0000 C   0  0  0  0  0  0  0  0  0  0  0  0
    9.4265    8.9658    0.0000 C   0  0  0  0  0  0  0  0  0  0  0  0
   10.0366    7.5954    0.0000 C   0  0  0  0  0  0  0  0  0  0  0  0
   11.5038    7.2836    0.0000 N   0  0  0  0  0  0  0  0  0  0  0  0
   11.9674    5.8570    0.0000 C   0  0  0  0  0  0  0  0  0  0  0  0
   13.4346    5.5451    0.0000 C   0  0  0  0  0  0  0  0  0  0  0  0
   14.4383    6.6598    0.0000 C   0  0  0  0  0  0  0  0  0  0  0  0
   15.9055    6.3480    0.0000 N   0  0  0  0  0  0  0  0  0  0  0  0
   16.3690    4.9214    0.0000 C   0  0  0  0  0  0  0  0  0  0  0  0
   17.8362    4.6095    0.0000 C   0  0  0  0  0  0  0  0  0  0  0  0
   18.8399    5.7242    0.0000 C   0  0  0  0  0  0  0  0  0  0  0  0
   20.3072    5.4124    0.0000 C   0  0  0  0  0  0  0  0  0  0  0  0
   21.3109    6.5271    0.0000 O   0  0  0  0  0  0  0  0  0  0  0  0
   20.7707    3.9858    0.0000 O   0  0  0  0  0  0  0  0  0  0  0  0
   18.3764    7.1508    0.0000 C   0  0  0  0  0  0  0  0  0  0  0  0
   16.9092    7.4627    0.0000 C   0  0  0  0  0  0  0  0  0  0  0  0
   13.9748    8.0864    0.0000 C   0  0  0  0  0  0  0  0  0  0  0  0
   12.5075    8.3983    0.0000 C   0  0  0  0  0  0  0  0  0  0  0  0
    8.9219    6.5917    0.0000 O   0  0  0  0  0  0  0  0  0  0  0  0
    5.9407    5.2644    0.0000 C   0  0  0  0  0  0  0  0  0  0  0  0
    6.9444    4.1497    0.0000 C   0  0  0  0  0  0  0  0  0  0  0  0
    6.4808    2.7231    0.0000 C   0  0  0  0  0  0  0  0  0  0  0  0
    7.4845    1.6084    0.0000 C   0  0  0  0  0  0  0  0  0  0  0  0
    8.9763    1.7652    0.0000 C   0  0  0  0  0  0  0  0  0  0  0  0
    9.5864    0.3949    0.0000 C   0  0  0  0  0  0  0  0  0  0  0  0
    8.4717   -0.6088    0.0000 C   0  0  0  0  0  0  0  0  0  0  0  0
    7.1727    0.1412    0.0000 C   0  0  0  0  0  0  0  0  0  0  0  0
    2.5095    1.4489    0.0000 C   0  0  0  0  0  0  0  0  0  0  0  0
  1  2  1  0
  2  3  1  0
  3  4  1  0
  4  5  1  0
  5  6  1  0
  6  7  1  0
  7  8  1  0
  8  9  1  0
  9 10  2  0
 10 11  1  0
 11 12  2  0
 12 13  1  0
 13 14  1  0
 14 15  2  0
 14 16  1  0
 16 17  1  0
 17 18  1  0
 18 19  1  0
 19 20  1  0
 20 21  2  0
 21 22  1  0
 22 23  2  0
 23 24  1  0
 24 25  1  0
 25 26  1  0
 26 27  1  0
 27 28  1  0
 28 29  1  0
 29 30  2  0
 30 31  1  0
 31 32  1  0
 32 33  2  0
 32 34  1  0
 31 35  1  0
 35 36  1  0
 27 37  1  0
 37 38  1  0
 23 39  1  0
 19 40  1  0
 40 41  2  3
 41 42  1  0
 42 43  2  3
 43 44  1  0
 44 45  2  0
 45 46  1  0
 46 47  2  0
 12 48  1  0
 48  2  1  0
 40 16  1  0
 47 43  1  0
 39 20  1  0
 38 24  1  0
 36 28  1  0
M  END
>  <Title>  (1127) 
idABPKgen6

$$$$

     RDKit          2D

 39 43  0  0  0  0  0  0  0  0999 V2000
    3.6929    0.0000    0.0000 C   0  0  0  0  0  0  0  0  0  0  0  0
    2.1929    0.0000    0.0000 C   0  0  0  0  0  0  0  0  0  0  0  0
    1.6798    1.4095    0.0000 C   0  0  0  0  0  0  0  0  0  0  0  0
    0.3808    2.1595    0.0000 C   0  0  0  0  0  0  0  0  0  0  0  0
   -1.0964    1.8991    0.0000 C   0  0  0  0  0  0  0  0  0  0  0  0
   -1.8464    3.1981    0.0000 C   0  0  0  0  0  0  0  0  0  0  0  0
   -3.3464    3.1981    0.0000 O   0  0  0  0  0  0  0  0  0  0  0  0
   -1.0964    4.4971    0.0000 N   0  0  0  0  0  0  0  0  0  0  0  0
   -1.8464    5.7962    0.0000 C   0  0  0  0  0  0  0  0  0  0  0  0
   -1.0964    7.0952    0.0000 N   0  0  0  0  0  0  0  0  0  0  0  0
   -1.8464    8.3943    0.0000 N   0  0  0  0  0  0  0  0  0  0  0  0
   -3.3464    8.3943    0.0000 N   0  0  0  0  0  0  0  0  0  0  0  0
   -4.0964    7.0952    0.0000 N   0  0  0  0  0  0  0  0  0  0  0  0
   -3.3464    5.7962    0.0000 N   0  0  0  0  0  0  0  0  0  0  0  0
   -2.0606    0.7500    0.0000 C   0  0  0  0  0  0  0  0  0  0  0  0
   -2.0606   -0.7500    0.0000 C   0  0  0  0  0  0  0  0  0  0  0  0
   -1.0964   -1.8991    0.0000 C   0  0  0  0  0  0  0  0  0  0  0  0
    0.3808   -2.1595    0.0000 C   0  0  0  0  0  0  0  0  0  0  0  0
    1.6798   -1.4095    0.0000 C   0  0  0  0  0  0  0  0  0  0  0  0
   -0.8819   -2.9883    0.0000 O   0  0  0  0  0  0  0  0  0  0  0  0
   -2.3762   -2.8575    0.0000 C   0  0  0  0  0  0  0  0  0  0  0  0
   -3.0688   -4.1881    0.0000 O   0  0  0  0  0  0  0  0  0  0  0  0
   -3.3404   -1.7085    0.0000 N   0  0  0  0  0  0  0  0  0  0  0  0
   -3.2097   -0.2142    0.0000 C   0  0  0  0  0  0  0  0  0  0  0  0
   -4.5402    0.4784    0.0000 N   0  0  0  0  0  0  0  0  0  0  0  0
   -5.8053   -0.3275    0.0000 N   0  0  0  0  0  0  0  0  0  0  0  0
   -7.1358    0.3651    0.0000 N   0  0  0  0  0  0  0  0  0  0  0  0
   -8.4009   -0.4408    0.0000 C   0  0  0  0  0  0  0  0  0  0  0  0
   -9.7314    0.2518    0.0000 C   0  0  0  0  0  0  0  0  0  0  0  0
  -10.9965   -0.5542    0.0000 C   0  0  0  0  0  0  0  0  0  0  0  0
  -10.9311   -2.0527    0.0000 C   0  0  0  0  0  0  0  0  0  0  0  0
   -9.6005   -2.7454    0.0000 C   0  0  0  0  0  0  0  0  0  0  0  0
   -8.3355   -1.9394    0.0000 C   0  0  0  0  0  0  0  0  0  0  0  0
   -7.0049   -2.6320    0.0000 C   0  0  0  0  0  0  0  0  0  0  0  0
   -6.9395   -4.1306    0.0000 C   0  0  0  0  0  0  0  0  0  0  0  0
   -5.6090   -4.8232    0.0000 C   0  0  0  0  0  0  0  0  0  0  0  0
   -4.3439   -4.0173    0.0000 C   0  0  0  0  0  0  0  0  0  0  0  0
   -4.4093   -2.5187    0.0000 C   0  0  0  0  0  0  0  0  0  0  0  0
   -5.7398   -1.8261    0.0000 C   0  0  0  0  0  0  0  0  0  0  0  0
  1  2  1  0
  2  3  1  0
  3  4  1  0
  4  5  1  0
  5  6  1  0
  6  7  2  0
  6  8  1  0
  8  9  1  0
  9 10  2  0
 10 11  1  0
 11 12  2  0
 12 13  1  0
 13 14  2  0
  5 15  1  0
 15 16  2  0
 16 17  1  0
 17 18  2  0
 18 19  1  0
 18 20  1  0
 20 21  1  0
 21 22  2  0
 21 23  1  0
 23 24  1  0
 24 25  2  3
 25 26  1  0
 26 27  2  3
 27 28  1  0
 28 29  2  0
 29 30  1  0
 30 31  2  0
 31 32  1  0
 32 33  2  0
 33 34  1  0
 34 35  2  0
 35 36  1  0
 36 37  2  0
 37 38  1  0
 38 39  2  0
 19  2  1  0
 33 28  1  0
 39 34  1  0
 14  9  1  0
 24 15  1  0
M  END
>  <Title>  (1128) 
idABPLgen6

$$$$

     RDKit          2D

 11 12  0  0  0  0  0  0  0  0999 V2000
    2.3250    2.9520    0.0000 C   0  0  0  0  0  0  0  0  0  0  0  0
    0.8578    2.6401    0.0000 C   0  0  0  0  0  0  0  0  0  0  0  0
    0.3943    1.2135    0.0000 C   0  0  0  0  0  0  0  0  0  0  0  0
    1.2760    0.0000    0.0000 C   0  0  0  0  0  0  0  0  0  0  0  0
    0.3943   -1.2135    0.0000 C   0  0  0  0  0  0  0  0  0  0  0  0
   -1.0323   -0.7500    0.0000 C   0  0  0  0  0  0  0  0  0  0  0  0
   -1.0323    0.7500    0.0000 C   0  0  0  0  0  0  0  0  0  0  0  0
    2.7886    4.3786    0.0000 C   0  0  0  0  0  0  0  0  0  0  0  0
    4.1251    5.0595    0.0000 C   0  0  0  0  0  0  0  0  0  0  0  0
    3.4441    6.3961    0.0000 C   0  0  0  0  0  0  0  0  0  0  0  0
    2.1076    5.7151    0.0000 C   0  0  0  0  0  0  0  0  0  0  0  0
  1  2  1  0
  2  3  1  0
  3  4  1  0
  4  5  1  0
  5  6  1  0
  6  7  1  0
  1  8  2  3
  8  9  1  0
  9 10  1  0
 10 11  1  0
  7  3  1  0
 11  8  1  0
M  END
>  <Title>  (1129) 
idABPMgen6

$$$$

     RDKit          2D

 28 31  0  0  0  0  0  0  0  0999 V2000
   -0.7500   -3.8971    0.0000 O   0  0  0  0  0  0  0  0  0  0  0  0
    0.7500   -3.8971    0.0000 C   0  0  0  0  0  0  0  0  0  0  0  0
    1.5000   -5.1962    0.0000 N   0  0  0  0  0  0  0  0  0  0  0  0
    0.7500   -6.4952    0.0000 C   0  0  0  0  0  0  0  0  0  0  0  0
   -0.7500   -6.4952    0.0000 C   0  0  0  0  0  0  0  0  0  0  0  0
   -1.5000   -7.7942    0.0000 C   0  0  0  0  0  0  0  0  0  0  0  0
   -0.7500   -9.0933    0.0000 C   0  0  0  0  0  0  0  0  0  0  0  0
    0.7500   -9.0933    0.0000 C   0  0  0  0  0  0  0  0  0  0  0  0
    1.5000  -10.3923    0.0000 O   0  0  0  0  0  0  0  0  0  0  0  0
    1.5000   -7.7942    0.0000 C   0  0  0  0  0  0  0  0  0  0  0  0
    1.5000   -2.5981    0.0000 C   0  0  0  0  0  0  0  0  0  0  0  0
    3.0000   -2.5981    0.0000 O   0  0  0  0  0  0  0  0  0  0  0  0
    0.7500   -1.2990    0.0000 N   0  0  0  0  0  0  0  0  0  0  0  0
    1.5000    0.0000    0.0000 C   0  0  0  0  0  0  0  0  0  0  0  0
    0.7500    1.2990    0.0000 C   0  0  0  0  0  0  0  0  0  0  0  0
   -0.7500    1.2990    0.0000 C   0  0  0  0  0  0  0  0  0  0  0  0
   -2.2500    1.2990    0.0000 C   0  0  0  0  0  0  0  0  0  0  0  0
   -3.0000   -0.0000    0.0000 C   0  0  0  0  0  0  0  0  0  0  0  0
   -2.2500   -1.2990    0.0000 C   0  0  0  0  0  0  0  0  0  0  0  0
   -3.0000   -2.5981    0.0000 C   0  0  0  0  0  0  0  0  0  0  0  0
   -4.5000   -2.5981    0.0000 C   0  0  0  0  0  0  0  0  0  0  0  0
   -5.2500   -3.8971    0.0000 C   0  0  0  0  0  0  0  0  0  0  0  0
   -4.5000   -5.1962    0.0000 C   0  0  0  0  0  0  0  0  0  0  0  0
   -5.2500   -6.4952    0.0000 Cl  0  0  0  0  0  0  0  0  0  0  0  0
   -3.0000   -5.1962    0.0000 C   0  0  0  0  0  0  0  0  0  0  0  0
   -2.2500   -3.8971    0.0000 C   0  0  0  0  0  0  0  0  0  0  0  0
   -0.7500   -1.2990    0.0000 C   0  0  0  0  0  0  0  0  0  0  0  0
   -1.5000    0.0000    0.0000 C   0  0  0  0  0  0  0  0  0  0  0  0
  1  2  2  0
  2  3  1  0
  3  4  1  0
  4  5  2  0
  5  6  1  0
  6  7  2  0
  7  8  1  0
  8  9  1  0
  8 10  1  0
  2 11  1  0
 11 12  2  0
 11 13  1  0
 13 14  1  0
 14 15  1  0
 15 16  1  0
 16 17  1  0
 17 18  1  0
 18 19  1  0
 19 20  1  0
 20 21  2  0
 21 22  1  0
 22 23  2  0
 23 24  1  0
 23 25  1  0
 25 26  2  0
 19 27  1  0
 27 28  1  0
 10  4  1  0
 27 13  1  0
 28 16  1  0
 26 20  1  0
M  END
>  <Title>  (1130) 
idABPNgen6

$$$$

     RDKit          2D

 10 11  0  0  0  0  0  0  0  0999 V2000
    2.7760    0.0000    0.0000 C   0  0  0  0  0  0  0  0  0  0  0  0
    1.2760    0.0000    0.0000 C   0  0  0  0  0  0  0  0  0  0  0  0
    0.3943    1.2135    0.0000 C   0  0  0  0  0  0  0  0  0  0  0  0
   -1.0323    0.7500    0.0000 C   0  0  0  0  0  0  0  0  0  0  0  0
   -1.0323   -0.7500    0.0000 C   0  0  0  0  0  0  0  0  0  0  0  0
   -1.9140   -1.9635    0.0000 C   0  0  0  0  0  0  0  0  0  0  0  0
   -1.0323   -3.1771    0.0000 C   0  0  0  0  0  0  0  0  0  0  0  0
    0.3943   -2.7135    0.0000 C   0  0  0  0  0  0  0  0  0  0  0  0
    1.6078   -3.5952    0.0000 O   0  0  0  0  0  0  0  0  0  0  0  0
    0.3943   -1.2135    0.0000 N   0  0  0  0  0  0  0  0  0  0  0  0
  1  2  1  0
  2  3  2  0
  3  4  1  0
  4  5  2  0
  5  6  1  0
  6  7  2  0
  7  8  1  0
  8  9  2  0
  8 10  1  0
 10  2  1  0
 10  5  1  0
M  END
>  <Title>  (1131) 
idABPOgen6

$$$$

     RDKit          2D

 20 22  0  0  0  0  0  0  0  0999 V2000
   -0.7500   -3.8971    0.0000 O   0  0  0  0  0  0  0  0  0  0  0  0
    0.7500   -3.8971    0.0000 C   0  0  0  0  0  0  0  0  0  0  0  0
    1.5000   -2.5981    0.0000 N   0  0  0  0  0  0  0  0  0  0  0  0
    0.7500   -1.2990    0.0000 C   0  0  0  0  0  0  0  0  0  0  0  0
    1.5000    0.0000    0.0000 N   0  0  0  0  0  0  0  0  0  0  0  0
    0.7500    1.2990    0.0000 N   0  0  0  0  0  0  0  0  0  0  0  0
   -0.7500    1.2990    0.0000 N   0  0  0  0  0  0  0  0  0  0  0  0
   -1.5000    0.0000    0.0000 N   0  0  0  0  0  0  0  0  0  0  0  0
   -0.7500   -1.2990    0.0000 N   0  0  0  0  0  0  0  0  0  0  0  0
    1.5000   -5.1962    0.0000 N   0  0  0  0  0  0  0  0  0  0  0  0
    0.7500   -6.4952    0.0000 C   0  0  0  0  0  0  0  0  0  0  0  0
    1.5000   -7.7942    0.0000 C   0  0  0  0  0  0  0  0  0  0  0  0
    3.0000   -7.7942    0.0000 N   0  0  0  0  0  0  0  0  0  0  0  0
    3.7500   -9.0933    0.0000 C   0  0  0  0  0  0  0  0  0  0  0  0
    5.2418   -9.2501    0.0000 C   0  0  0  0  0  0  0  0  0  0  0  0
    5.5537  -10.7173    0.0000 C   0  0  0  0  0  0  0  0  0  0  0  0
    4.2546  -11.4673    0.0000 C   0  0  0  0  0  0  0  0  0  0  0  0
    3.1399  -10.4636    0.0000 C   0  0  0  0  0  0  0  0  0  0  0  0
    3.7500   -6.4952    0.0000 C   0  0  0  0  0  0  0  0  0  0  0  0
    3.0000   -5.1962    0.0000 C   0  0  0  0  0  0  0  0  0  0  0  0
  1  2  2  0
  2  3  1  0
  3  4  1  0
  4  5  2  0
  5  6  1  0
  6  7  2  0
  7  8  1  0
  8  9  2  0
  2 10  1  0
 10 11  1  0
 11 12  1  0
 12 13  1  0
 13 14  1  0
 14 15  1  0
 15 16  1  0
 16 17  1  0
 17 18  1  0
 13 19  1  0
 19 20  1  0
  9  4  1  0
 20 10  1  0
 18 14  1  0
M  END
>  <Title>  (1132) 
idABPPgen6

$$$$

     RDKit          2D

 12 12  0  0  0  0  0  0  0  0999 V2000
    4.8107   -1.2990    0.0000 C   0  0  0  0  0  0  0  0  0  0  0  0
    3.3107   -1.2990    0.0000 C   0  0  0  0  0  0  0  0  0  0  0  0
    2.5607   -2.5981    0.0000 O   0  0  0  0  0  0  0  0  0  0  0  0
    2.5607    0.0000    0.0000 N   0  0  0  0  0  0  0  0  0  0  0  0
    1.0607    0.0000    0.0000 C   0  0  0  0  0  0  0  0  0  0  0  0
   -0.0000   -1.0607    0.0000 C   0  0  0  0  0  0  0  0  0  0  0  0
   -1.0607    0.0000    0.0000 C   0  0  0  0  0  0  0  0  0  0  0  0
   -2.5607    0.0000    0.0000 C   0  0  0  0  0  0  0  0  0  0  0  0
   -3.3107   -1.2990    0.0000 O   0  0  0  0  0  0  0  0  0  0  0  0
   -3.3107    1.2990    0.0000 O   0  0  0  0  0  0  0  0  0  0  0  0
    0.0000    1.0607    0.0000 C   0  0  0  0  0  0  0  0  0  0  0  0
    0.0000    2.5607    0.0000 O   0  0  0  0  0  0  0  0  0  0  0  0
  1  2  1  0
  2  3  2  0
  2  4  1  0
  4  5  1  0
  5  6  2  0
  6  7  1  0
  7  8  1  0
  8  9  2  0
  8 10  1  0
  7 11  1  0
 11 12  2  0
 11  5  1  0
M  END
>  <Title>  (1133) 
idABPQgen6

$$$$

     RDKit          2D

  4  3  0  0  0  0  0  0  0  0999 V2000
    0.0000    0.0000    0.0000 C   0  0  0  0  0  0  0  0  0  0  0  0
    1.2990    0.7500    0.0000 C   0  0  0  0  0  0  0  0  0  0  0  0
    2.5981   -0.0000    0.0000 N   0  0  0  0  0  0  0  0  0  0  0  0
    3.8971    0.7500    0.0000 C   0  0  0  0  0  0  0  0  0  0  0  0
  1  2  1  0
  2  3  1  0
  3  4  1  0
M  END
>  <Title>  (1134) 
idABPRgen6

$$$$

     RDKit          2D

 36 36  0  0  0  0  0  0  0  0999 V2000
    8.6053    0.0000    0.0000 C   0  0  0  0  0  0  0  0  0  0  0  0
    8.4746   -1.4943    0.0000 C   0  0  0  0  0  0  0  0  0  0  0  0
    8.0863   -2.9432    0.0000 C   0  0  0  0  0  0  0  0  0  0  0  0
    7.4524   -4.3026    0.0000 C   0  0  0  0  0  0  0  0  0  0  0  0
    6.5920   -5.5314    0.0000 C   0  0  0  0  0  0  0  0  0  0  0  0
    5.5314   -6.5920    0.0000 C   0  0  0  0  0  0  0  0  0  0  0  0
    4.3026   -7.4524    0.0000 C   0  0  0  0  0  0  0  0  0  0  0  0
    2.9432   -8.0863    0.0000 C   0  0  0  0  0  0  0  0  0  0  0  0
    1.4943   -8.4746    0.0000 C   0  0  0  0  0  0  0  0  0  0  0  0
   -0.0000   -8.6053    0.0000 C   0  0  0  0  0  0  0  0  0  0  0  0
   -1.4943   -8.4746    0.0000 C   0  0  0  0  0  0  0  0  0  0  0  0
   -2.9432   -8.0863    0.0000 C   0  0  0  0  0  0  0  0  0  0  0  0
   -4.3026   -7.4524    0.0000 C   0  0  0  0  0  0  0  0  0  0  0  0
   -5.5314   -6.5920    0.0000 C   0  0  0  0  0  0  0  0  0  0  0  0
   -6.5920   -5.5314    0.0000 C   0  0  0  0  0  0  0  0  0  0  0  0
   -7.4524   -4.3026    0.0000 C   0  0  0  0  0  0  0  0  0  0  0  0
   -8.0863   -2.9432    0.0000 C   0  0  0  0  0  0  0  0  0  0  0  0
   -8.4746   -1.4943    0.0000 C   0  0  0  0  0  0  0  0  0  0  0  0
   -8.6053    0.0000    0.0000 C   0  0  0  0  0  0  0  0  0  0  0  0
   -8.4746    1.4943    0.0000 C   0  0  0  0  0  0  0  0  0  0  0  0
   -8.0863    2.9432    0.0000 C   0  0  0  0  0  0  0  0  0  0  0  0
   -7.4524    4.3026    0.0000 C   0  0  0  0  0  0  0  0  0  0  0  0
   -6.5920    5.5314    0.0000 C   0  0  0  0  0  0  0  0  0  0  0  0
   -5.5314    6.5920    0.0000 C   0  0  0  0  0  0  0  0  0  0  0  0
   -4.3026    7.4524    0.0000 C   0  0  0  0  0  0  0  0  0  0  0  0
   -2.9432    8.0863    0.0000 C   0  0  0  0  0  0  0  0  0  0  0  0
   -1.4943    8.4746    0.0000 C   0  0  0  0  0  0  0  0  0  0  0  0
    0.0000    8.6053    0.0000 C   0  0  0  0  0  0  0  0  0  0  0  0
    1.4943    8.4746    0.0000 C   0  0  0  0  0  0  0  0  0  0  0  0
    2.9432    8.0863    0.0000 C   0  0  0  0  0  0  0  0  0  0  0  0
    4.3026    7.4524    0.0000 C   0  0  0  0  0  0  0  0  0  0  0  0
    5.5314    6.5920    0.0000 C   0  0  0  0  0  0  0  0  0  0  0  0
    6.5920    5.5314    0.0000 C   0  0  0  0  0  0  0  0  0  0  0  0
    7.4524    4.3026    0.0000 C   0  0  0  0  0  0  0  0  0  0  0  0
    8.0863    2.9432    0.0000 C   0  0  0  0  0  0  0  0  0  0  0  0
    8.4746    1.4943    0.0000 C   0  0  0  0  0  0  0  0  0  0  0  0
  1  2  1  0
  2  3  1  0
  3  4  1  0
  4  5  1  0
  5  6  1  0
  6  7  1  0
  7  8  1  0
  8  9  1  0
  9 10  1  0
 10 11  1  0
 11 12  1  0
 12 13  1  0
 13 14  1  0
 14 15  1  0
 15 16  1  0
 16 17  1  0
 17 18  1  0
 18 19  1  0
 19 20  1  0
 20 21  1  0
 21 22  1  0
 22 23  1  0
 23 24  1  0
 24 25  1  0
 25 26  1  0
 26 27  1  0
 27 28  1  0
 28 29  1  0
 29 30  1  0
 30 31  1  0
 31 32  1  0
 32 33  1  0
 33 34  1  0
 34 35  1  0
 35 36  1  0
 36  1  1  0
M  END
>  <Title>  (1135) 
idABPSgen6

$$$$

     RDKit          2D

 36 40  0  0  0  0  0  0  0  0999 V2000
   -2.3737   -6.1885    0.0000 C   0  0  0  0  0  0  0  0  0  0  0  0
   -1.4095   -5.0395    0.0000 C   0  0  0  0  0  0  0  0  0  0  0  0
   -0.0000   -5.5525    0.0000 C   0  0  0  0  0  0  0  0  0  0  0  0
    1.4095   -5.0395    0.0000 C   0  0  0  0  0  0  0  0  0  0  0  0
    2.1595   -3.7404    0.0000 C   0  0  0  0  0  0  0  0  0  0  0  0
    3.6368   -4.0009    0.0000 C   0  0  0  0  0  0  0  0  0  0  0  0
    4.6009   -2.8518    0.0000 O   0  0  0  0  0  0  0  0  0  0  0  0
    4.1498   -5.4104    0.0000 N   0  0  0  0  0  0  0  0  0  0  0  0
    5.6270   -5.6709    0.0000 C   0  0  0  0  0  0  0  0  0  0  0  0
    6.1400   -7.0805    0.0000 N   0  0  0  0  0  0  0  0  0  0  0  0
    7.6172   -7.3409    0.0000 N   0  0  0  0  0  0  0  0  0  0  0  0
    8.5814   -6.1919    0.0000 N   0  0  0  0  0  0  0  0  0  0  0  0
    8.0684   -4.7823    0.0000 N   0  0  0  0  0  0  0  0  0  0  0  0
    6.5912   -4.5218    0.0000 N   0  0  0  0  0  0  0  0  0  0  0  0
    1.8991   -2.2632    0.0000 C   0  0  0  0  0  0  0  0  0  0  0  0
    3.1981   -1.5132    0.0000 O   0  0  0  0  0  0  0  0  0  0  0  0
    3.1981   -0.0132    0.0000 C   0  0  0  0  0  0  0  0  0  0  0  0
    1.8991    0.7368    0.0000 C   0  0  0  0  0  0  0  0  0  0  0  0
    1.8991    2.2368    0.0000 C   0  0  0  0  0  0  0  0  0  0  0  0
    3.1981    2.9868    0.0000 C   0  0  0  0  0  0  0  0  0  0  0  0
    3.1981    4.4868    0.0000 C   0  0  0  0  0  0  0  0  0  0  0  0
    3.1981    5.9868    0.0000 N   0  0  0  0  0  0  0  0  0  0  0  0
    4.4971    2.2368    0.0000 C   0  0  0  0  0  0  0  0  0  0  0  0
    4.4971    0.7368    0.0000 C   0  0  0  0  0  0  0  0  0  0  0  0
    0.7500   -1.2990    0.0000 C   0  0  0  0  0  0  0  0  0  0  0  0
    1.5000    0.0000    0.0000 C   0  0  0  0  0  0  0  0  0  0  0  0
    0.7500    1.2990    0.0000 C   0  0  0  0  0  0  0  0  0  0  0  0
   -0.7500    1.2990    0.0000 C   0  0  0  0  0  0  0  0  0  0  0  0
   -1.5000    0.0000    0.0000 C   0  0  0  0  0  0  0  0  0  0  0  0
   -0.7500   -1.2990    0.0000 C   0  0  0  0  0  0  0  0  0  0  0  0
   -1.8991   -2.2632    0.0000 C   0  0  0  0  0  0  0  0  0  0  0  0
   -3.0481   -1.2990    0.0000 C   0  0  0  0  0  0  0  0  0  0  0  0
   -4.4577   -1.8121    0.0000 C   0  0  0  0  0  0  0  0  0  0  0  0
   -4.7181   -3.2893    0.0000 C   0  0  0  0  0  0  0  0  0  0  0  0
   -3.5691   -4.2535    0.0000 C   0  0  0  0  0  0  0  0  0  0  0  0
   -2.1595   -3.7404    0.0000 C   0  0  0  0  0  0  0  0  0  0  0  0
  1  2  1  0
  2  3  1  0
  3  4  1  0
  4  5  1  0
  5  6  1  0
  6  7  2  0
  6  8  1  0
  8  9  1  0
  9 10  2  0
 10 11  1  0
 11 12  2  0
 12 13  1  0
 13 14  2  0
  5 15  1  0
 15 16  1  0
 16 17  1  0
 17 18  2  0
 18 19  1  0
 19 20  2  0
 20 21  1  0
 21 22  3  0
 20 23  1  0
 23 24  2  0
 15 25  1  0
 25 26  2  0
 26 27  1  0
 27 28  2  0
 28 29  1  0
 29 30  2  0
 30 31  1  0
 31 32  2  0
 32 33  1  0
 33 34  2  0
 34 35  1  0
 35 36  2  0
 36  2  1  0
 14  9  1  0
 24 17  1  0
 30 25  1  0
 36 31  1  0
M  END
>  <Title>  (1136) 
idABPTgen6

$$$$

     RDKit          2D

 10  9  0  0  0  0  0  0  0  0999 V2000
    0.0000    0.0000    0.0000 C   0  0  0  0  0  0  0  0  0  0  0  0
    1.2990    0.7500    0.0000 C   0  0  0  0  0  0  0  0  0  0  0  0
    1.2990    2.2500    0.0000 O   0  0  0  0  0  0  0  0  0  0  0  0
    2.5981   -0.0000    0.0000 C   0  0  0  0  0  0  0  0  0  0  0  0
    3.3481    1.2990    0.0000 C   0  0  0  0  0  0  0  0  0  0  0  0
    1.8481   -1.2990    0.0000 C   0  0  0  0  0  0  0  0  0  0  0  0
    3.8971   -0.7500    0.0000 C   0  0  0  0  0  0  0  0  0  0  0  0
    5.1962   -1.5000    0.0000 C   0  0  0  0  0  0  0  0  0  0  0  0
    6.4952   -2.2500    0.0000 C   0  0  0  0  0  0  0  0  0  0  0  0
    7.7942   -3.0000    0.0000 N   0  0  0  0  0  0  0  0  0  0  0  0
  1  2  1  0
  2  3  2  0
  2  4  1  0
  4  5  1  0
  4  6  1  0
  4  7  1  0
  7  8  3  0
  8  9  1  0
  9 10  3  0
M  END
>  <Title>  (1137) 
idABPUgen6

$$$$

     RDKit          2D

  9  8  0  0  0  0  0  0  0  0999 V2000
    0.0000    0.0000    0.0000 C   0  0  0  0  0  0  0  0  0  0  0  0
    1.2990    0.7500    0.0000 C   0  0  0  0  0  0  0  0  0  0  0  0
    2.5981   -0.0000    0.0000 C   0  0  0  0  0  0  0  0  0  0  0  0
    3.8971    0.7500    0.0000 C   0  0  0  0  0  0  0  0  0  0  0  0
    5.1962   -0.0000    0.0000 C   0  0  0  0  0  0  0  0  0  0  0  0
    3.8971    2.2500    0.0000 C   0  0  0  0  0  0  0  0  0  0  0  0
    3.8971    3.7500    0.0000 C   0  0  0  0  0  0  0  0  0  0  0  0
    3.8971    5.2500    0.0000 C   0  0  0  0  0  0  0  0  0  0  0  0
    3.8971    6.7500    0.0000 N   0  0  0  0  0  0  0  0  0  0  0  0
  1  2  1  0
  2  3  2  3
  3  4  1  0
  4  5  1  0
  4  6  1  0
  6  7  3  0
  7  8  1  0
  8  9  3  0
M  END
>  <Title>  (1138) 
idABPVgen6

$$$$

     RDKit          2D

 62 69  0  0  0  0  0  0  0  0999 V2000
   -5.3570  -13.6088    0.0000 C   0  0  0  0  0  0  0  0  0  0  0  0
   -5.0382  -12.1431    0.0000 C   0  0  0  0  0  0  0  0  0  0  0  0
   -6.3547  -11.4242    0.0000 C   0  0  0  0  0  0  0  0  0  0  0  0
   -7.0735  -10.1077    0.0000 C   0  0  0  0  0  0  0  0  0  0  0  0
   -6.9665   -8.6115    0.0000 C   0  0  0  0  0  0  0  0  0  0  0  0
   -6.0676   -7.4107    0.0000 C   0  0  0  0  0  0  0  0  0  0  0  0
   -4.6622   -6.8865    0.0000 C   0  0  0  0  0  0  0  0  0  0  0  0
   -3.1965   -7.2054    0.0000 C   0  0  0  0  0  0  0  0  0  0  0  0
   -2.1358   -8.2660    0.0000 C   0  0  0  0  0  0  0  0  0  0  0  0
   -1.8170   -9.7317    0.0000 C   0  0  0  0  0  0  0  0  0  0  0  0
   -2.3412  -11.1372    0.0000 C   0  0  0  0  0  0  0  0  0  0  0  0
   -3.5420  -12.0361    0.0000 C   0  0  0  0  0  0  0  0  0  0  0  0
   -3.0178  -13.4415    0.0000 O   0  0  0  0  0  0  0  0  0  0  0  0
   -1.5386  -13.6903    0.0000 C   0  0  0  0  0  0  0  0  0  0  0  0
   -1.0144  -15.0957    0.0000 C   0  0  0  0  0  0  0  0  0  0  0  0
   -1.9694  -16.2524    0.0000 C   0  0  0  0  0  0  0  0  0  0  0  0
   -1.4452  -17.6578    0.0000 C   0  0  0  0  0  0  0  0  0  0  0  0
    0.0340  -17.9065    0.0000 C   0  0  0  0  0  0  0  0  0  0  0  0
    0.9891  -16.7498    0.0000 C   0  0  0  0  0  0  0  0  0  0  0  0
    0.4649  -15.3444    0.0000 C   0  0  0  0  0  0  0  0  0  0  0  0
   -0.7500   -8.8400    0.0000 C   0  0  0  0  0  0  0  0  0  0  0  0
   -1.0426  -10.3112    0.0000 C   0  0  0  0  0  0  0  0  0  0  0  0
    0.0851  -11.3002    0.0000 O   0  0  0  0  0  0  0  0  0  0  0  0
   -2.4630  -10.7934    0.0000 N   0  0  0  0  0  0  0  0  0  0  0  0
   -2.7557  -12.2646    0.0000 C   0  0  0  0  0  0  0  0  0  0  0  0
   -1.6279  -13.2536    0.0000 N   0  0  0  0  0  0  0  0  0  0  0  0
   -1.9205  -14.7248    0.0000 N   0  0  0  0  0  0  0  0  0  0  0  0
   -3.3409  -15.2069    0.0000 N   0  0  0  0  0  0  0  0  0  0  0  0
   -4.4687  -14.2179    0.0000 N   0  0  0  0  0  0  0  0  0  0  0  0
   -4.1761  -12.7467    0.0000 N   0  0  0  0  0  0  0  0  0  0  0  0
    0.7500   -8.8400    0.0000 C   0  0  0  0  0  0  0  0  0  0  0  0
    2.1358   -8.2660    0.0000 C   0  0  0  0  0  0  0  0  0  0  0  0
    3.1965   -7.2054    0.0000 C   0  0  0  0  0  0  0  0  0  0  0  0
    3.7705   -5.8195    0.0000 C   0  0  0  0  0  0  0  0  0  0  0  0
    5.2417   -6.1122    0.0000 C   0  0  0  0  0  0  0  0  0  0  0  0
    3.7705   -4.3195    0.0000 C   0  0  0  0  0  0  0  0  0  0  0  0
    5.2577   -4.5153    0.0000 C   0  0  0  0  0  0  0  0  0  0  0  0
    6.1708   -3.3253    0.0000 C   0  0  0  0  0  0  0  0  0  0  0  0
    7.6580   -3.5211    0.0000 C   0  0  0  0  0  0  0  0  0  0  0  0
    9.1451   -3.7169    0.0000 N   0  0  0  0  0  0  0  0  0  0  0  0
    5.5968   -1.9395    0.0000 C   0  0  0  0  0  0  0  0  0  0  0  0
    4.1096   -1.7437    0.0000 C   0  0  0  0  0  0  0  0  0  0  0  0
    3.1965   -2.9337    0.0000 C   0  0  0  0  0  0  0  0  0  0  0  0
    2.1358   -1.8731    0.0000 C   0  0  0  0  0  0  0  0  0  0  0  0
    0.7500   -1.2990    0.0000 C   0  0  0  0  0  0  0  0  0  0  0  0
    1.5000    0.0000    0.0000 C   0  0  0  0  0  0  0  0  0  0  0  0
    0.7500    1.2990    0.0000 C   0  0  0  0  0  0  0  0  0  0  0  0
   -0.7500    1.2990    0.0000 C   0  0  0  0  0  0  0  0  0  0  0  0
   -1.5000    0.0000    0.0000 C   0  0  0  0  0  0  0  0  0  0  0  0
   -0.7500   -1.2990    0.0000 C   0  0  0  0  0  0  0  0  0  0  0  0
   -2.1358   -1.8731    0.0000 C   0  0  0  0  0  0  0  0  0  0  0  0
   -2.5240   -0.4242    0.0000 C   0  0  0  0  0  0  0  0  0  0  0  0
   -3.9729   -0.0359    0.0000 C   0  0  0  0  0  0  0  0  0  0  0  0
   -5.0336   -1.0966    0.0000 C   0  0  0  0  0  0  0  0  0  0  0  0
   -4.6454   -2.5455    0.0000 C   0  0  0  0  0  0  0  0  0  0  0  0
   -3.1965   -2.9337    0.0000 C   0  0  0  0  0  0  0  0  0  0  0  0
   -3.7705   -4.3195    0.0000 C   0  0  0  0  0  0  0  0  0  0  0  0
   -5.0695   -3.5695    0.0000 C   0  0  0  0  0  0  0  0  0  0  0  0
   -6.3686   -4.3195    0.0000 C   0  0  0  0  0  0  0  0  0  0  0  0
   -6.3686   -5.8195    0.0000 C   0  0  0  0  0  0  0  0  0  0  0  0
   -5.0695   -6.5695    0.0000 C   0  0  0  0  0  0  0  0  0  0  0  0
   -3.7705   -5.8195    0.0000 C   0  0  0  0  0  0  0  0  0  0  0  0
  1  2  1  0
  2  3  1  0
  3  4  2  0
  4  5  1  0
  5  6  2  0
  6  7  1  0
  7  8  2  0
  8  9  1  0
  9 10  2  0
 10 11  1  0
 11 12  2  0
 12 13  1  0
 13 14  1  0
 14 15  1  0
 15 16  2  0
 16 17  1  0
 17 18  2  0
 18 19  1  0
 19 20  2  0
  9 21  1  0
 21 22  1  0
 22 23  2  0
 22 24  1  0
 24 25  1  0
 25 26  2  0
 26 27  1  0
 27 28  2  0
 28 29  1  0
 29 30  2  0
 21 31  2  0
 31 32  1  0
 32 33  1  0
 33 34  1  0
 34 35  1  0
 34 36  1  0
 36 37  2  0
 37 38  1  0
 38 39  1  0
 39 40  3  0
 38 41  2  0
 41 42  1  0
 42 43  2  0
 43 44  1  0
 44 45  1  0
 45 46  2  0
 46 47  1  0
 47 48  2  0
 48 49  1  0
 49 50  2  0
 50 51  1  0
 51 52  2  0
 52 53  1  0
 53 54  2  0
 54 55  1  0
 55 56  2  0
 56 57  1  0
 57 58  2  0
 58 59  1  0
 59 60  2  0
 60 61  1  0
 61 62  2  0
 12  2  1  0
 20 15  1  0
 30 25  1  0
 43 36  1  0
 50 45  1  0
 56 51  1  0
 62 57  1  0
 62  8  1  0
M  END
>  <Title>  (1139) 
idABPWgen6

$$$$

     RDKit          2D

 28 29  0  0  0  0  0  0  0  0999 V2000
    5.8191    0.0000    0.0000 C   0  0  0  0  0  0  0  0  0  0  0  0
    4.3191    0.0000    0.0000 C   0  0  0  0  0  0  0  0  0  0  0  0
    4.0586   -1.4772    0.0000 C   0  0  0  0  0  0  0  0  0  0  0  0
    3.3086   -2.7762    0.0000 C   0  0  0  0  0  0  0  0  0  0  0  0
    2.1595   -3.7404    0.0000 C   0  0  0  0  0  0  0  0  0  0  0  0
    0.7500   -4.2535    0.0000 C   0  0  0  0  0  0  0  0  0  0  0  0
   -0.7500   -4.2535    0.0000 C   0  0  0  0  0  0  0  0  0  0  0  0
   -2.1595   -3.7404    0.0000 C   0  0  0  0  0  0  0  0  0  0  0  0
   -3.3086   -2.7762    0.0000 C   0  0  0  0  0  0  0  0  0  0  0  0
   -4.0586   -1.4772    0.0000 C   0  0  0  0  0  0  0  0  0  0  0  0
   -4.3191    0.0000    0.0000 C   0  0  0  0  0  0  0  0  0  0  0  0
   -4.0586    1.4772    0.0000 C   0  0  0  0  0  0  0  0  0  0  0  0
   -3.3086    2.7762    0.0000 C   0  0  0  0  0  0  0  0  0  0  0  0
   -2.1595    3.7404    0.0000 C   0  0  0  0  0  0  0  0  0  0  0  0
   -0.7500    4.2535    0.0000 C   0  0  0  0  0  0  0  0  0  0  0  0
    0.7500    4.2535    0.0000 C   0  0  0  0  0  0  0  0  0  0  0  0
    2.1595    3.7404    0.0000 C   0  0  0  0  0  0  0  0  0  0  0  0
    3.3086    2.7762    0.0000 C   0  0  0  0  0  0  0  0  0  0  0  0
    4.4577    3.7404    0.0000 C   0  0  0  0  0  0  0  0  0  0  0  0
    4.1972    5.2176    0.0000 O   0  0  0  0  0  0  0  0  0  0  0  0
    5.8672    3.2274    0.0000 N   0  0  0  0  0  0  0  0  0  0  0  0
    7.0163    4.1916    0.0000 C   0  0  0  0  0  0  0  0  0  0  0  0
    8.4258    3.6786    0.0000 N   0  0  0  0  0  0  0  0  0  0  0  0
    9.5749    4.6427    0.0000 N   0  0  0  0  0  0  0  0  0  0  0  0
    9.3144    6.1199    0.0000 N   0  0  0  0  0  0  0  0  0  0  0  0
    7.9049    6.6330    0.0000 N   0  0  0  0  0  0  0  0  0  0  0  0
    6.7558    5.6688    0.0000 N   0  0  0  0  0  0  0  0  0  0  0  0
    4.0586    1.4772    0.0000 C   0  0  0  0  0  0  0  0  0  0  0  0
  1  2  1  0
  2  3  1  0
  3  4  1  0
  4  5  1  0
  5  6  1  0
  6  7  1  0
  7  8  1  0
  8  9  1  0
  9 10  1  0
 10 11  1  0
 11 12  1  0
 12 13  1  0
 13 14  1  0
 14 15  1  0
 15 16  1  0
 16 17  1  0
 17 18  1  0
 18 19  1  0
 19 20  2  0
 19 21  1  0
 21 22  1  0
 22 23  2  0
 23 24  1  0
 24 25  2  0
 25 26  1  0
 26 27  2  0
 18 28  1  0
 28  2  1  0
 27 22  1  0
M  END
>  <Title>  (1140) 
idABPXgen6

$$$$

     RDKit          2D

  8  8  0  0  0  0  0  0  0  0999 V2000
    3.0000    0.0000    0.0000 C   0  0  0  0  0  0  0  0  0  0  0  0
    1.5000    0.0000    0.0000 C   0  0  0  0  0  0  0  0  0  0  0  0
    0.7500   -1.2990    0.0000 C   0  0  0  0  0  0  0  0  0  0  0  0
   -0.7500   -1.2990    0.0000 C   0  0  0  0  0  0  0  0  0  0  0  0
   -1.5000    0.0000    0.0000 C   0  0  0  0  0  0  0  0  0  0  0  0
   -3.0000    0.0000    0.0000 O   0  0  0  0  0  0  0  0  0  0  0  0
   -0.7500    1.2990    0.0000 C   0  0  0  0  0  0  0  0  0  0  0  0
    0.7500    1.2990    0.0000 C   0  0  0  0  0  0  0  0  0  0  0  0
  1  2  1  0
  2  3  1  0
  3  4  1  0
  4  5  1  0
  5  6  1  0
  5  7  1  0
  7  8  1  0
  8  2  1  0
M  END
>  <Title>  (1141) 
idABPYgen6

$$$$

     RDKit          2D

  9  8  0  0  0  0  0  0  0  0999 V2000
    0.0000    0.0000    0.0000 C   0  0  0  0  0  0  0  0  0  0  0  0
    1.2990    0.7500    0.0000 C   0  0  0  0  0  0  0  0  0  0  0  0
    1.2990    2.2500    0.0000 O   0  0  0  0  0  0  0  0  0  0  0  0
    2.5981   -0.0000    0.0000 C   0  0  0  0  0  0  0  0  0  0  0  0
    3.8971    0.7500    0.0000 C   0  0  0  0  0  0  0  0  0  0  0  0
    2.5981   -1.5000    0.0000 C   0  0  0  0  0  0  0  0  0  0  0  0
    2.5981   -3.0000    0.0000 C   0  0  0  0  0  0  0  0  0  0  0  0
    2.5981   -4.5000    0.0000 C   0  0  0  0  0  0  0  0  0  0  0  0
    2.5981   -6.0000    0.0000 N   0  0  0  0  0  0  0  0  0  0  0  0
  1  2  1  0
  2  3  2  0
  2  4  1  0
  4  5  1  0
  4  6  1  0
  6  7  3  0
  7  8  1  0
  8  9  3  0
M  END
>  <Title>  (1142) 
idABPZgen6

$$$$

     RDKit          2D

 29 32  0  0  0  0  0  0  0  0999 V2000
   -3.7860   -5.5823    0.0000 C   0  0  0  0  0  0  0  0  0  0  0  0
   -2.4215   -4.9592    0.0000 C   0  0  0  0  0  0  0  0  0  0  0  0
   -1.4392   -6.0928    0.0000 C   0  0  0  0  0  0  0  0  0  0  0  0
   -0.0000   -6.5154    0.0000 C   0  0  0  0  0  0  0  0  0  0  0  0
    1.4392   -6.0928    0.0000 C   0  0  0  0  0  0  0  0  0  0  0  0
    2.4215   -4.9592    0.0000 C   0  0  0  0  0  0  0  0  0  0  0  0
    2.6350   -3.4744    0.0000 C   0  0  0  0  0  0  0  0  0  0  0  0
    2.0119   -2.1100    0.0000 C   0  0  0  0  0  0  0  0  0  0  0  0
    3.1455   -1.1277    0.0000 C   0  0  0  0  0  0  0  0  0  0  0  0
    2.8616    0.3452    0.0000 O   0  0  0  0  0  0  0  0  0  0  0  0
    4.5630   -1.6183    0.0000 N   0  0  0  0  0  0  0  0  0  0  0  0
    5.6966   -0.6360    0.0000 C   0  0  0  0  0  0  0  0  0  0  0  0
    7.1141   -1.1266    0.0000 N   0  0  0  0  0  0  0  0  0  0  0  0
    8.2478   -0.1443    0.0000 N   0  0  0  0  0  0  0  0  0  0  0  0
    7.9639    1.3286    0.0000 N   0  0  0  0  0  0  0  0  0  0  0  0
    6.5464    1.8192    0.0000 N   0  0  0  0  0  0  0  0  0  0  0  0
    5.4128    0.8369    0.0000 N   0  0  0  0  0  0  0  0  0  0  0  0
    0.7500   -1.2990    0.0000 C   0  0  0  0  0  0  0  0  0  0  0  0
    1.5000    0.0000    0.0000 C   0  0  0  0  0  0  0  0  0  0  0  0
    0.7500    1.2990    0.0000 C   0  0  0  0  0  0  0  0  0  0  0  0
   -0.7500    1.2990    0.0000 C   0  0  0  0  0  0  0  0  0  0  0  0
   -1.5000    0.0000    0.0000 C   0  0  0  0  0  0  0  0  0  0  0  0
   -0.7500   -1.2990    0.0000 C   0  0  0  0  0  0  0  0  0  0  0  0
   -2.0119   -2.1100    0.0000 C   0  0  0  0  0  0  0  0  0  0  0  0
   -2.8820   -0.8881    0.0000 C   0  0  0  0  0  0  0  0  0  0  0  0
   -4.3752   -1.0307    0.0000 C   0  0  0  0  0  0  0  0  0  0  0  0
   -4.9983   -2.3952    0.0000 C   0  0  0  0  0  0  0  0  0  0  0  0
   -4.1282   -3.6170    0.0000 C   0  0  0  0  0  0  0  0  0  0  0  0
   -2.6350   -3.4744    0.0000 C   0  0  0  0  0  0  0  0  0  0  0  0
  1  2  1  0
  2  3  1  0
  3  4  2  0
  4  5  1  0
  5  6  1  0
  6  7  1  0
  7  8  1  0
  8  9  1  0
  9 10  2  0
  9 11  1  0
 11 12  1  0
 12 13  2  0
 13 14  1  0
 14 15  2  0
 15 16  1  0
 16 17  2  0
  8 18  1  0
 18 19  2  0
 19 20  1  0
 20 21  2  0
 21 22  1  0
 22 23  2  0
 23 24  1  0
 24 25  2  0
 25 26  1  0
 26 27  2  0
 27 28  1  0
 28 29  2  0
 29  2  1  0
 17 12  1  0
 23 18  1  0
 29 24  1  0
M  END
>  <Title>  (1143) 
idABQAgen6

$$$$

     RDKit          2D

  8  7  0  0  0  0  0  0  0  0999 V2000
    0.0000    0.0000    0.0000 C   0  0  0  0  0  0  0  0  0  0  0  0
    1.2990    0.7500    0.0000 C   0  0  0  0  0  0  0  0  0  0  0  0
    2.5981   -0.0000    0.0000 C   0  0  0  0  0  0  0  0  0  0  0  0
    3.8971    0.7500    0.0000 C   0  0  0  0  0  0  0  0  0  0  0  0
    2.5981   -1.5000    0.0000 C   0  0  0  0  0  0  0  0  0  0  0  0
    2.5981   -3.0000    0.0000 C   0  0  0  0  0  0  0  0  0  0  0  0
    2.5981   -4.5000    0.0000 C   0  0  0  0  0  0  0  0  0  0  0  0
    2.5981   -6.0000    0.0000 N   0  0  0  0  0  0  0  0  0  0  0  0
  1  2  1  0
  2  3  2  3
  3  4  1  0
  3  5  1  0
  5  6  3  0
  6  7  1  0
  7  8  3  0
M  END
>  <Title>  (1144) 
idABQBgen6

$$$$

     RDKit          2D

 24 26  0  0  0  0  0  0  0  0999 V2000
   -0.7500   -3.8971    0.0000 O   0  0  0  0  0  0  0  0  0  0  0  0
    0.7500   -3.8971    0.0000 C   0  0  0  0  0  0  0  0  0  0  0  0
    1.5000   -2.5981    0.0000 N   0  0  0  0  0  0  0  0  0  0  0  0
    0.7500   -1.2990    0.0000 C   0  0  0  0  0  0  0  0  0  0  0  0
    1.5000    0.0000    0.0000 N   0  0  0  0  0  0  0  0  0  0  0  0
    0.7500    1.2990    0.0000 N   0  0  0  0  0  0  0  0  0  0  0  0
   -0.7500    1.2990    0.0000 N   0  0  0  0  0  0  0  0  0  0  0  0
   -1.5000    0.0000    0.0000 N   0  0  0  0  0  0  0  0  0  0  0  0
   -0.7500   -1.2990    0.0000 N   0  0  0  0  0  0  0  0  0  0  0  0
    1.5000   -5.1962    0.0000 C   0  0  0  0  0  0  0  0  0  0  0  0
    0.7500   -6.4952    0.0000 C   0  0  0  0  0  0  0  0  0  0  0  0
    1.5000   -7.7942    0.0000 C   0  0  0  0  0  0  0  0  0  0  0  0
    3.0000   -7.7942    0.0000 N   0  0  0  0  0  0  0  0  0  0  0  0
    3.7500   -9.0933    0.0000 C   0  0  0  0  0  0  0  0  0  0  0  0
    5.2500   -9.0933    0.0000 O   0  0  0  0  0  0  0  0  0  0  0  0
    3.0000  -10.3923    0.0000 N   0  0  0  0  0  0  0  0  0  0  0  0
    3.7500  -11.6913    0.0000 C   0  0  0  0  0  0  0  0  0  0  0  0
    3.0000  -12.9904    0.0000 N   0  0  0  0  0  0  0  0  0  0  0  0
    3.7500  -14.2894    0.0000 N   0  0  0  0  0  0  0  0  0  0  0  0
    5.2500  -14.2894    0.0000 N   0  0  0  0  0  0  0  0  0  0  0  0
    6.0000  -12.9904    0.0000 N   0  0  0  0  0  0  0  0  0  0  0  0
    5.2500  -11.6913    0.0000 N   0  0  0  0  0  0  0  0  0  0  0  0
    3.7500   -6.4952    0.0000 C   0  0  0  0  0  0  0  0  0  0  0  0
    3.0000   -5.1962    0.0000 C   0  0  0  0  0  0  0  0  0  0  0  0
  1  2  2  0
  2  3  1  0
  3  4  1  0
  4  5  2  0
  5  6  1  0
  6  7  2  0
  7  8  1  0
  8  9  2  0
  2 10  1  0
 10 11  1  0
 11 12  1  0
 12 13  1  0
 13 14  1  0
 14 15  2  0
 14 16  1  0
 16 17  1  0
 17 18  2  0
 18 19  1  0
 19 20  2  0
 20 21  1  0
 21 22  2  0
 13 23  1  0
 23 24  1  0
  9  4  1  0
 24 10  1  0
 22 17  1  0
M  END
>  <Title>  (1145) 
idABQCgen6

$$$$

     RDKit          2D

 25 27  0  0  0  0  0  0  0  0999 V2000
   -5.6303   -2.9038    0.0000 C   0  0  0  0  0  0  0  0  0  0  0  0
   -4.1679   -3.2376    0.0000 C   0  0  0  0  0  0  0  0  0  0  0  0
   -3.7258   -4.6709    0.0000 O   0  0  0  0  0  0  0  0  0  0  0  0
   -3.1476   -2.1380    0.0000 O   0  0  0  0  0  0  0  0  0  0  0  0
   -1.6852   -2.4718    0.0000 C   0  0  0  0  0  0  0  0  0  0  0  0
   -1.3515   -3.9342    0.0000 C   0  0  0  0  0  0  0  0  0  0  0  0
   -0.0000   -4.5850    0.0000 C   0  0  0  0  0  0  0  0  0  0  0  0
    1.3515   -3.9342    0.0000 C   0  0  0  0  0  0  0  0  0  0  0  0
    2.5242   -4.8694    0.0000 C   0  0  0  0  0  0  0  0  0  0  0  0
    3.9205   -4.3214    0.0000 O   0  0  0  0  0  0  0  0  0  0  0  0
    2.3006   -6.3527    0.0000 N   0  0  0  0  0  0  0  0  0  0  0  0
    3.4734   -7.2879    0.0000 C   0  0  0  0  0  0  0  0  0  0  0  0
    3.2498   -8.7711    0.0000 C   0  0  0  0  0  0  0  0  0  0  0  0
    4.4226   -9.7064    0.0000 C   0  0  0  0  0  0  0  0  0  0  0  0
    5.8189   -9.1584    0.0000 C   0  0  0  0  0  0  0  0  0  0  0  0
    6.0424   -7.6751    0.0000 C   0  0  0  0  0  0  0  0  0  0  0  0
    4.8697   -6.7399    0.0000 C   0  0  0  0  0  0  0  0  0  0  0  0
    1.6852   -2.4718    0.0000 C   0  0  0  0  0  0  0  0  0  0  0  0
    3.1476   -2.1380    0.0000 O   0  0  0  0  0  0  0  0  0  0  0  0
    0.7500   -1.2990    0.0000 C   0  0  0  0  0  0  0  0  0  0  0  0
    1.5000    0.0000    0.0000 C   0  0  0  0  0  0  0  0  0  0  0  0
    0.7500    1.2990    0.0000 C   0  0  0  0  0  0  0  0  0  0  0  0
   -0.7500    1.2990    0.0000 C   0  0  0  0  0  0  0  0  0  0  0  0
   -1.5000    0.0000    0.0000 C   0  0  0  0  0  0  0  0  0  0  0  0
   -0.7500   -1.2990    0.0000 C   0  0  0  0  0  0  0  0  0  0  0  0
  1  2  1  0
  2  3  2  0
  2  4  1  0
  4  5  1  0
  5  6  2  0
  6  7  1  0
  7  8  2  0
  8  9  1  0
  9 10  2  0
  9 11  1  0
 11 12  1  0
 12 13  2  0
 13 14  1  0
 14 15  2  0
 15 16  1  0
 16 17  2  0
  8 18  1  0
 18 19  2  0
 18 20  1  0
 20 21  2  0
 21 22  1  0
 22 23  2  0
 23 24  1  0
 24 25  2  0
 25  5  1  0
 17 12  1  0
 25 20  1  0
M  END
>  <Title>  (1146) 
idABQDgen6

$$$$

     RDKit          2D

 20 20  0  0  0  0  0  0  0  0999 V2000
    2.7990   -8.5442    0.0000 C   0  0  0  0  0  0  0  0  0  0  0  0
    1.5000   -7.7942    0.0000 C   0  0  0  0  0  0  0  0  0  0  0  0
    0.2010   -7.0442    0.0000 C   0  0  0  0  0  0  0  0  0  0  0  0
    0.7500   -9.0933    0.0000 C   0  0  0  0  0  0  0  0  0  0  0  0
    2.2500   -6.4952    0.0000 C   0  0  0  0  0  0  0  0  0  0  0  0
    3.0000   -5.1962    0.0000 C   0  0  0  0  0  0  0  0  0  0  0  0
    3.7500   -3.8971    0.0000 C   0  0  0  0  0  0  0  0  0  0  0  0
    5.2500   -3.8971    0.0000 O   0  0  0  0  0  0  0  0  0  0  0  0
    3.0000   -2.5981    0.0000 N   0  0  0  0  0  0  0  0  0  0  0  0
    3.7500   -1.2990    0.0000 C   0  0  0  0  0  0  0  0  0  0  0  0
    3.0000    0.0000    0.0000 C   0  0  0  0  0  0  0  0  0  0  0  0
    1.5000    0.0000    0.0000 C   0  0  0  0  0  0  0  0  0  0  0  0
    0.7500   -1.2990    0.0000 C   0  0  0  0  0  0  0  0  0  0  0  0
   -0.7500   -1.2990    0.0000 C   0  0  0  0  0  0  0  0  0  0  0  0
   -1.5000    0.0000    0.0000 C   0  0  0  0  0  0  0  0  0  0  0  0
   -0.7500    1.2990    0.0000 C   0  0  0  0  0  0  0  0  0  0  0  0
    0.7500    1.2990    0.0000 C   0  0  0  0  0  0  0  0  0  0  0  0
    5.2500   -1.2990    0.0000 C   0  0  0  0  0  0  0  0  0  0  0  0
    6.0000    0.0000    0.0000 O   0  0  0  0  0  0  0  0  0  0  0  0
    6.0000   -2.5981    0.0000 O   0  0  0  0  0  0  0  0  0  0  0  0
  1  2  1  0
  2  3  1  0
  2  4  1  0
  2  5  1  0
  5  6  3  0
  6  7  1  0
  7  8  2  0
  7  9  1  0
  9 10  1  0
 10 11  1  0
 11 12  1  0
 12 13  2  0
 13 14  1  0
 14 15  2  0
 15 16  1  0
 16 17  2  0
 10 18  1  0
 18 19  2  0
 18 20  1  0
 17 12  1  0
M  END
>  <Title>  (1147) 
idABQEgen6

$$$$

     RDKit          2D

 24 26  0  0  0  0  0  0  0  0999 V2000
   -3.2576   -0.1532    0.0000 C   0  0  0  0  0  0  0  0  0  0  0  0
   -2.4830    1.1313    0.0000 C   0  0  0  0  0  0  0  0  0  0  0  0
   -3.4973    2.2364    0.0000 C   0  0  0  0  0  0  0  0  0  0  0  0
   -3.7531    3.7145    0.0000 C   0  0  0  0  0  0  0  0  0  0  0  0
   -3.1691    5.0962    0.0000 C   0  0  0  0  0  0  0  0  0  0  0  0
   -1.9309    5.9428    0.0000 C   0  0  0  0  0  0  0  0  0  0  0  0
   -0.4316    5.9857    0.0000 C   0  0  0  0  0  0  0  0  0  0  0  0
    0.8530    5.2111    0.0000 C   0  0  0  0  0  0  0  0  0  0  0  0
    1.5148    3.8650    0.0000 C   0  0  0  0  0  0  0  0  0  0  0  0
    1.3438    2.3747    0.0000 C   0  0  0  0  0  0  0  0  0  0  0  0
    2.7255    1.7908    0.0000 C   0  0  0  0  0  0  0  0  0  0  0  0
    2.9107    0.3023    0.0000 O   0  0  0  0  0  0  0  0  0  0  0  0
    3.9220    2.6955    0.0000 N   0  0  0  0  0  0  0  0  0  0  0  0
    3.8935    4.1952    0.0000 C   0  0  0  0  0  0  0  0  0  0  0  0
    5.3110    4.6858    0.0000 C   0  0  0  0  0  0  0  0  0  0  0  0
    6.2156    3.4893    0.0000 C   0  0  0  0  0  0  0  0  0  0  0  0
    5.3572    2.2592    0.0000 C   0  0  0  0  0  0  0  0  0  0  0  0
    5.8478    0.8417    0.0000 O   0  0  0  0  0  0  0  0  0  0  0  0
    0.3943    1.2135    0.0000 C   0  0  0  0  0  0  0  0  0  0  0  0
    1.2760    0.0000    0.0000 C   0  0  0  0  0  0  0  0  0  0  0  0
    0.3943   -1.2135    0.0000 C   0  0  0  0  0  0  0  0  0  0  0  0
   -1.0323   -0.7500    0.0000 C   0  0  0  0  0  0  0  0  0  0  0  0
   -2.2458   -1.6317    0.0000 O   0  0  0  0  0  0  0  0  0  0  0  0
   -1.0323    0.7500    0.0000 N   0  0  0  0  0  0  0  0  0  0  0  0
  1  2  1  0
  2  3  1  0
  3  4  1  0
  4  5  1  0
  5  6  1  0
  6  7  1  0
  7  8  1  0
  8  9  1  0
  9 10  1  0
 10 11  1  0
 11 12  2  0
 11 13  1  0
 13 14  1  0
 14 15  1  0
 15 16  1  0
 16 17  1  0
 17 18  2  0
 10 19  1  0
 19 20  1  0
 20 21  1  0
 21 22  1  0
 22 23  2  0
 22 24  1  0
 24  2  1  0
 17 13  1  0
 24 19  1  0
M  END
>  <Title>  (1148) 
idABQFgen6

$$$$

     RDKit          2D

 30 32  0  0  0  0  0  0  0  0999 V2000
   -4.4437   -2.1004    0.0000 C   0  0  0  0  0  0  0  0  0  0  0  0
   -3.1965   -2.9337    0.0000 C   0  0  0  0  0  0  0  0  0  0  0  0
   -3.7705   -4.3195    0.0000 C   0  0  0  0  0  0  0  0  0  0  0  0
   -3.7705   -5.8195    0.0000 C   0  0  0  0  0  0  0  0  0  0  0  0
   -3.1965   -7.2054    0.0000 C   0  0  0  0  0  0  0  0  0  0  0  0
   -2.1358   -8.2660    0.0000 C   0  0  0  0  0  0  0  0  0  0  0  0
   -0.7500   -8.8400    0.0000 C   0  0  0  0  0  0  0  0  0  0  0  0
    0.7500   -8.8400    0.0000 C   0  0  0  0  0  0  0  0  0  0  0  0
    2.1358   -8.2660    0.0000 C   0  0  0  0  0  0  0  0  0  0  0  0
    3.1965   -7.2054    0.0000 C   0  0  0  0  0  0  0  0  0  0  0  0
    3.7705   -5.8195    0.0000 C   0  0  0  0  0  0  0  0  0  0  0  0
    3.7705   -4.3195    0.0000 C   0  0  0  0  0  0  0  0  0  0  0  0
    3.1965   -2.9337    0.0000 C   0  0  0  0  0  0  0  0  0  0  0  0
    2.1358   -1.8731    0.0000 C   0  0  0  0  0  0  0  0  0  0  0  0
    2.9692   -0.6259    0.0000 C   0  0  0  0  0  0  0  0  0  0  0  0
    2.3057    0.7195    0.0000 O   0  0  0  0  0  0  0  0  0  0  0  0
    4.4660   -0.7240    0.0000 N   0  0  0  0  0  0  0  0  0  0  0  0
    5.2993    0.5232    0.0000 C   0  0  0  0  0  0  0  0  0  0  0  0
    6.7961    0.4251    0.0000 N   0  0  0  0  0  0  0  0  0  0  0  0
    7.6295    1.6723    0.0000 N   0  0  0  0  0  0  0  0  0  0  0  0
    6.9660    3.0176    0.0000 N   0  0  0  0  0  0  0  0  0  0  0  0
    5.4692    3.1158    0.0000 N   0  0  0  0  0  0  0  0  0  0  0  0
    4.6359    1.8686    0.0000 N   0  0  0  0  0  0  0  0  0  0  0  0
    0.7500   -1.2990    0.0000 C   0  0  0  0  0  0  0  0  0  0  0  0
    1.5000    0.0000    0.0000 C   0  0  0  0  0  0  0  0  0  0  0  0
    0.7500    1.2990    0.0000 C   0  0  0  0  0  0  0  0  0  0  0  0
   -0.7500    1.2990    0.0000 C   0  0  0  0  0  0  0  0  0  0  0  0
   -1.5000    0.0000    0.0000 C   0  0  0  0  0  0  0  0  0  0  0  0
   -0.7500   -1.2990    0.0000 C   0  0  0  0  0  0  0  0  0  0  0  0
   -2.1358   -1.8731    0.0000 C   0  0  0  0  0  0  0  0  0  0  0  0
  1  2  1  0
  2  3  1  0
  3  4  1  0
  4  5  1  0
  5  6  1  0
  6  7  1  0
  7  8  1  0
  8  9  1  0
  9 10  1  0
 10 11  1  0
 11 12  1  0
 12 13  1  0
 13 14  1  0
 14 15  1  0
 15 16  2  0
 15 17  1  0
 17 18  1  0
 18 19  2  0
 19 20  1  0
 20 21  2  0
 21 22  1  0
 22 23  2  0
 14 24  1  0
 24 25  2  0
 25 26  1  0
 26 27  2  0
 27 28  1  0
 28 29  2  0
 29 30  1  0
 30  2  1  0
 23 18  1  0
 29 24  1  0
M  END
>  <Title>  (1149) 
idABQGgen6

$$$$

     RDKit          2D

  3  2  0  0  0  0  0  0  0  0999 V2000
    0.0000    0.0000    0.0000 C   0  0  0  0  0  0  0  0  0  0  0  0
    1.2990    0.7500    0.0000 C   0  0  0  0  0  0  0  0  0  0  0  0
    2.5981   -0.0000    0.0000 N   0  0  0  0  0  0  0  0  0  0  0  0
  1  2  1  0
  2  3  1  0
M  END
>  <Title>  (1150) 
idABQHgen6

$$$$

     RDKit          2D

 21 21  0  0  0  0  0  0  0  0999 V2000
    5.0321    0.0000    0.0000 C   0  0  0  0  0  0  0  0  0  0  0  0
    4.8086    1.4832    0.0000 C   0  0  0  0  0  0  0  0  0  0  0  0
    4.1577    2.8347    0.0000 C   0  0  0  0  0  0  0  0  0  0  0  0
    3.1375    3.9343    0.0000 C   0  0  0  0  0  0  0  0  0  0  0  0
    1.8384    4.6843    0.0000 C   0  0  0  0  0  0  0  0  0  0  0  0
    0.3761    5.0181    0.0000 C   0  0  0  0  0  0  0  0  0  0  0  0
   -1.1198    4.9060    0.0000 C   0  0  0  0  0  0  0  0  0  0  0  0
   -2.5161    4.3580    0.0000 C   0  0  0  0  0  0  0  0  0  0  0  0
   -3.6888    3.4227    0.0000 C   0  0  0  0  0  0  0  0  0  0  0  0
   -4.5338    2.1834    0.0000 C   0  0  0  0  0  0  0  0  0  0  0  0
   -4.9759    0.7500    0.0000 C   0  0  0  0  0  0  0  0  0  0  0  0
   -4.9759   -0.7500    0.0000 N   0  0  0  0  0  0  0  0  0  0  0  0
   -4.5338   -2.1834    0.0000 C   0  0  0  0  0  0  0  0  0  0  0  0
   -3.6888   -3.4227    0.0000 C   0  0  0  0  0  0  0  0  0  0  0  0
   -2.5161   -4.3580    0.0000 C   0  0  0  0  0  0  0  0  0  0  0  0
   -1.1198   -4.9060    0.0000 C   0  0  0  0  0  0  0  0  0  0  0  0
    0.3761   -5.0181    0.0000 C   0  0  0  0  0  0  0  0  0  0  0  0
    1.8384   -4.6843    0.0000 C   0  0  0  0  0  0  0  0  0  0  0  0
    3.1375   -3.9343    0.0000 C   0  0  0  0  0  0  0  0  0  0  0  0
    4.1577   -2.8347    0.0000 C   0  0  0  0  0  0  0  0  0  0  0  0
    4.8086   -1.4832    0.0000 C   0  0  0  0  0  0  0  0  0  0  0  0
  1  2  1  0
  2  3  1  0
  3  4  1  0
  4  5  1  0
  5  6  1  0
  6  7  1  0
  7  8  1  0
  8  9  1  0
  9 10  1  0
 10 11  1  0
 11 12  1  0
 12 13  1  0
 13 14  1  0
 14 15  1  0
 15 16  1  0
 16 17  1  0
 17 18  1  0
 18 19  1  0
 19 20  1  0
 20 21  1  0
 21  1  1  0
M  END
>  <Title>  (1151) 
idABQIgen6

$$$$

     RDKit          2D

 15 15  0  0  0  0  0  0  0  0999 V2000
    5.7760    2.5981    0.0000 C   0  0  0  0  0  0  0  0  0  0  0  0
    5.0260    1.2990    0.0000 C   0  0  0  0  0  0  0  0  0  0  0  0
    3.5260    1.2990    0.0000 C   0  0  0  0  0  0  0  0  0  0  0  0
    2.7760    2.5981    0.0000 O   0  0  0  0  0  0  0  0  0  0  0  0
    2.7760    0.0000    0.0000 C   0  0  0  0  0  0  0  0  0  0  0  0
    3.5260   -1.2990    0.0000 O   0  0  0  0  0  0  0  0  0  0  0  0
    1.2760    0.0000    0.0000 N   0  0  0  0  0  0  0  0  0  0  0  0
    0.3943    1.2135    0.0000 C   0  0  0  0  0  0  0  0  0  0  0  0
   -1.0323    0.7500    0.0000 C   0  0  0  0  0  0  0  0  0  0  0  0
   -1.0323   -0.7500    0.0000 C   0  0  0  0  0  0  0  0  0  0  0  0
   -2.2458   -1.6317    0.0000 C   0  0  0  0  0  0  0  0  0  0  0  0
   -2.0890   -3.1235    0.0000 O   0  0  0  0  0  0  0  0  0  0  0  0
   -3.6161   -1.0216    0.0000 O   0  0  0  0  0  0  0  0  0  0  0  0
    0.3943   -1.2135    0.0000 C   0  0  0  0  0  0  0  0  0  0  0  0
    0.8578   -2.6401    0.0000 O   0  0  0  0  0  0  0  0  0  0  0  0
  1  2  1  0
  2  3  1  0
  3  4  1  0
  3  5  1  0
  5  6  2  0
  5  7  1  0
  7  8  1  0
  8  9  1  0
  9 10  1  0
 10 11  1  0
 11 12  2  0
 11 13  1  0
 10 14  1  0
 14 15  2  0
 14  7  1  0
M  END
>  <Title>  (1152) 
idABQJgen6

$$$$

     RDKit          2D

 12 13  0  0  0  0  0  0  0  0999 V2000
   -6.3002    2.9513    0.0000 C   0  0  0  0  0  0  0  0  0  0  0  0
   -5.1512    1.9872    0.0000 C   0  0  0  0  0  0  0  0  0  0  0  0
   -5.4116    0.5099    0.0000 O   0  0  0  0  0  0  0  0  0  0  0  0
   -3.7416    2.5002    0.0000 C   0  0  0  0  0  0  0  0  0  0  0  0
   -2.5926    1.5360    0.0000 C   0  0  0  0  0  0  0  0  0  0  0  0
   -2.8530    0.0588    0.0000 O   0  0  0  0  0  0  0  0  0  0  0  0
   -1.1830    2.0490    0.0000 C   0  0  0  0  0  0  0  0  0  0  0  0
   -0.4330    0.7500    0.0000 C   0  0  0  0  0  0  0  0  0  0  0  0
    0.8660    0.0000    0.0000 C   0  0  0  0  0  0  0  0  0  0  0  0
   -0.4330   -0.7500    0.0000 C   0  0  0  0  0  0  0  0  0  0  0  0
   -1.4435    3.5262    0.0000 C   0  0  0  0  0  0  0  0  0  0  0  0
   -0.0339    3.0132    0.0000 C   0  0  0  0  0  0  0  0  0  0  0  0
  1  2  1  0
  2  3  2  0
  2  4  1  0
  4  5  1  0
  5  6  2  0
  5  7  1  0
  7  8  1  0
  8  9  1  0
  9 10  1  0
  7 11  1  0
 11 12  1  0
 12  7  1  0
 10  8  1  0
M  END
>  <Title>  (1153) 
idABQKgen6

$$$$

     RDKit          2D

 12 11  0  0  0  0  0  0  0  0999 V2000
    0.0000    0.0000    0.0000 C   0  0  0  0  0  0  0  0  0  0  0  0
    1.2990    0.7500    0.0000 C   0  0  0  0  0  0  0  0  0  0  0  0
    1.2990    2.2500    0.0000 O   0  0  0  0  0  0  0  0  0  0  0  0
    2.5981   -0.0000    0.0000 C   0  0  0  0  0  0  0  0  0  0  0  0
    2.5981   -1.5000    0.0000 O   0  0  0  0  0  0  0  0  0  0  0  0
    3.8971    0.7500    0.0000 C   0  0  0  0  0  0  0  0  0  0  0  0
    5.1962   -0.0000    0.0000 C   0  0  0  0  0  0  0  0  0  0  0  0
    5.1962   -1.5000    0.0000 O   0  0  0  0  0  0  0  0  0  0  0  0
    6.4952    0.7500    0.0000 O   0  0  0  0  0  0  0  0  0  0  0  0
    3.8971    2.2500    0.0000 C   0  0  0  0  0  0  0  0  0  0  0  0
    2.5981    3.0000    0.0000 O   0  0  0  0  0  0  0  0  0  0  0  0
    5.1962    3.0000    0.0000 O   0  0  0  0  0  0  0  0  0  0  0  0
  1  2  1  0
  2  3  2  0
  2  4  1  0
  4  5  2  0
  4  6  1  0
  6  7  1  0
  7  8  2  0
  7  9  1  0
  6 10  1  0
 10 11  2  0
 10 12  1  0
M  END
>  <Title>  (1154) 
idABQLgen6

$$$$

     RDKit          2D

  8  7  0  0  0  0  0  0  0  0999 V2000
    0.0000    0.0000    0.0000 C   0  0  0  0  0  0  0  0  0  0  0  0
    1.2990    0.7500    0.0000 C   0  0  0  0  0  0  0  0  0  0  0  0
    2.5981    1.5000    0.0000 C   0  0  0  0  0  0  0  0  0  0  0  0
    0.5490    2.0490    0.0000 F   0  0  0  0  0  0  0  0  0  0  0  0
    2.0490   -0.5490    0.0000 C   0  0  0  0  0  0  0  0  0  0  0  0
    2.7990   -1.8481    0.0000 C   0  0  0  0  0  0  0  0  0  0  0  0
    3.5490   -3.1471    0.0000 C   0  0  0  0  0  0  0  0  0  0  0  0
    4.2990   -4.4462    0.0000 N   0  0  0  0  0  0  0  0  0  0  0  0
  1  2  1  0
  2  3  1  0
  2  4  1  0
  2  5  1  0
  5  6  3  0
  6  7  1  0
  7  8  3  0
M  END
>  <Title>  (1155) 
idABQMgen6

$$$$

     RDKit          2D

 31 34  0  0  0  0  0  0  0  0999 V2000
   -8.2478   -0.1443    0.0000 C   0  0  0  0  0  0  0  0  0  0  0  0
   -7.1141   -1.1266    0.0000 C   0  0  0  0  0  0  0  0  0  0  0  0
   -5.6966   -0.6360    0.0000 C   0  0  0  0  0  0  0  0  0  0  0  0
   -5.4128    0.8369    0.0000 O   0  0  0  0  0  0  0  0  0  0  0  0
   -4.5630   -1.6183    0.0000 C   0  0  0  0  0  0  0  0  0  0  0  0
   -3.1455   -1.1277    0.0000 C   0  0  0  0  0  0  0  0  0  0  0  0
   -2.8616    0.3452    0.0000 O   0  0  0  0  0  0  0  0  0  0  0  0
   -2.0119   -2.1100    0.0000 C   0  0  0  0  0  0  0  0  0  0  0  0
   -2.6350   -3.4744    0.0000 C   0  0  0  0  0  0  0  0  0  0  0  0
   -2.4215   -4.9592    0.0000 C   0  0  0  0  0  0  0  0  0  0  0  0
   -1.4392   -6.0928    0.0000 C   0  0  0  0  0  0  0  0  0  0  0  0
   -0.0000   -6.5154    0.0000 C   0  0  0  0  0  0  0  0  0  0  0  0
    1.4392   -6.0928    0.0000 C   0  0  0  0  0  0  0  0  0  0  0  0
    2.4215   -4.9592    0.0000 C   0  0  0  0  0  0  0  0  0  0  0  0
    2.6350   -3.4744    0.0000 C   0  0  0  0  0  0  0  0  0  0  0  0
    4.1252   -3.3035    0.0000 C   0  0  0  0  0  0  0  0  0  0  0  0
    2.9012   -4.1162    0.0000 N   0  0  0  0  0  0  0  0  0  0  0  0
    2.6795   -4.1616    0.0000 N   0  0  0  0  0  0  0  0  0  0  0  0
    1.2068   -5.0807    0.0000 N   0  0  0  0  0  0  0  0  0  0  0  0
    0.9631   -4.9479    0.0000 N   0  0  0  0  0  0  0  0  0  0  0  0
   -0.5672   -5.8212    0.0000 N   0  0  0  0  0  0  0  0  0  0  0  0
    4.4231   -1.8333    0.0000 O   0  0  0  0  0  0  0  0  0  0  0  0
    3.1170   -1.0957    0.0000 C   0  0  0  0  0  0  0  0  0  0  0  0
    2.9460    0.3945    0.0000 O   0  0  0  0  0  0  0  0  0  0  0  0
    2.0119   -2.1100    0.0000 C   0  0  0  0  0  0  0  0  0  0  0  0
    0.7500   -1.2990    0.0000 C   0  0  0  0  0  0  0  0  0  0  0  0
    1.5000    0.0000    0.0000 C   0  0  0  0  0  0  0  0  0  0  0  0
    0.7500    1.2990    0.0000 C   0  0  0  0  0  0  0  0  0  0  0  0
   -0.7500    1.2990    0.0000 C   0  0  0  0  0  0  0  0  0  0  0  0
   -1.5000    0.0000    0.0000 C   0  0  0  0  0  0  0  0  0  0  0  0
   -0.7500   -1.2990    0.0000 C   0  0  0  0  0  0  0  0  0  0  0  0
  1  2  1  0
  2  3  1  0
  3  4  1  0
  3  5  1  0
  5  6  1  0
  6  7  2  0
  6  8  1  0
  8  9  1  0
  9 10  1  0
 10 11  1  0
 11 12  1  0
 12 13  1  0
 13 14  1  0
 14 15  1  0
 15 16  1  0
 16 17  2  0
 17 18  1  0
 18 19  2  0
 19 20  1  0
 20 21  2  0
 16 22  1  0
 22 23  1  0
 23 24  2  0
 23 25  1  0
 25 26  1  0
 26 27  2  0
 27 28  1  0
 28 29  2  0
 29 30  1  0
 30 31  2  0
 31  8  1  0
 21 11  1  0
 31 26  1  0
 25 15  1  0
M  END
>  <Title>  (1156) 
idABQNgen6

$$$$

     RDKit          2D

 13 13  0  0  0  0  0  0  0  0999 V2000
    7.5000   -2.5981    0.0000 C   0  0  0  0  0  0  0  0  0  0  0  0
    6.0000   -2.5981    0.0000 C   0  0  0  0  0  0  0  0  0  0  0  0
    5.2500   -3.8971    0.0000 O   0  0  0  0  0  0  0  0  0  0  0  0
    5.2500   -1.2990    0.0000 O   0  0  0  0  0  0  0  0  0  0  0  0
    3.7500   -1.2990    0.0000 C   0  0  0  0  0  0  0  0  0  0  0  0
    3.0000    0.0000    0.0000 C   0  0  0  0  0  0  0  0  0  0  0  0
    3.7500    1.2990    0.0000 O   0  0  0  0  0  0  0  0  0  0  0  0
    1.5000    0.0000    0.0000 C   0  0  0  0  0  0  0  0  0  0  0  0
    0.7500   -1.2990    0.0000 C   0  0  0  0  0  0  0  0  0  0  0  0
   -0.7500   -1.2990    0.0000 C   0  0  0  0  0  0  0  0  0  0  0  0
   -1.5000    0.0000    0.0000 C   0  0  0  0  0  0  0  0  0  0  0  0
   -0.7500    1.2990    0.0000 C   0  0  0  0  0  0  0  0  0  0  0  0
    0.7500    1.2990    0.0000 C   0  0  0  0  0  0  0  0  0  0  0  0
  1  2  1  0
  2  3  2  0
  2  4  1  0
  4  5  1  0
  5  6  1  0
  6  7  2  0
  6  8  1  0
  8  9  2  0
  9 10  1  0
 10 11  2  0
 11 12  1  0
 12 13  2  0
 13  8  1  0
M  END
>  <Title>  (1157) 
idABQOgen6

$$$$

     RDKit          2D

 12 12  0  0  0  0  0  0  0  0999 V2000
    4.1621    0.0000    0.0000 C   0  0  0  0  0  0  0  0  0  0  0  0
    2.6621    0.0000    0.0000 C   0  0  0  0  0  0  0  0  0  0  0  0
    2.2395    1.4392    0.0000 C   0  0  0  0  0  0  0  0  0  0  0  0
    1.1059    2.4215    0.0000 C   0  0  0  0  0  0  0  0  0  0  0  0
   -0.3789    2.6350    0.0000 C   0  0  0  0  0  0  0  0  0  0  0  0
   -1.7433    2.0119    0.0000 C   0  0  0  0  0  0  0  0  0  0  0  0
   -2.5543    0.7500    0.0000 C   0  0  0  0  0  0  0  0  0  0  0  0
   -2.5543   -0.7500    0.0000 C   0  0  0  0  0  0  0  0  0  0  0  0
   -1.7433   -2.0119    0.0000 C   0  0  0  0  0  0  0  0  0  0  0  0
   -0.3789   -2.6350    0.0000 N   0  0  0  0  0  0  0  0  0  0  0  0
    1.1059   -2.4215    0.0000 N   0  0  0  0  0  0  0  0  0  0  0  0
    2.2395   -1.4392    0.0000 N   0  0  0  0  0  0  0  0  0  0  0  0
  1  2  1  0
  2  3  1  0
  3  4  2  0
  4  5  1  0
  5  6  2  0
  6  7  1  0
  7  8  2  0
  8  9  1  0
  9 10  2  0
 10 11  1  0
 11 12  2  0
 12  2  1  0
M  END
>  <Title>  (1158) 
idABQPgen6

$$$$

     RDKit          2D

 28 32  0  0  0  0  0  0  0  0999 V2000
   -4.1640    0.6645    0.0000 O   0  0  0  0  0  0  0  0  0  0  0  0
   -3.4140    1.9635    0.0000 C   0  0  0  0  0  0  0  0  0  0  0  0
   -4.1640    3.2626    0.0000 N   0  0  0  0  0  0  0  0  0  0  0  0
   -5.6640    3.2626    0.0000 C   0  0  0  0  0  0  0  0  0  0  0  0
   -6.5456    2.0490    0.0000 N   0  0  0  0  0  0  0  0  0  0  0  0
   -7.9722    2.5126    0.0000 N   0  0  0  0  0  0  0  0  0  0  0  0
   -7.9722    4.0126    0.0000 N   0  0  0  0  0  0  0  0  0  0  0  0
   -6.5456    4.4761    0.0000 N   0  0  0  0  0  0  0  0  0  0  0  0
   -6.0821    5.9027    0.0000 N   0  0  0  0  0  0  0  0  0  0  0  0
   -4.6149    6.2145    0.0000 C   0  0  0  0  0  0  0  0  0  0  0  0
   -4.1514    7.6411    0.0000 C   0  0  0  0  0  0  0  0  0  0  0  0
   -5.1551    8.7558    0.0000 C   0  0  0  0  0  0  0  0  0  0  0  0
   -4.6915   10.1824    0.0000 C   0  0  0  0  0  0  0  0  0  0  0  0
   -3.2243   10.4943    0.0000 C   0  0  0  0  0  0  0  0  0  0  0  0
   -2.7608   11.9209    0.0000 C   0  0  0  0  0  0  0  0  0  0  0  0
   -3.7645   13.0356    0.0000 C   0  0  0  0  0  0  0  0  0  0  0  0
   -5.2317   12.7237    0.0000 C   0  0  0  0  0  0  0  0  0  0  0  0
   -5.6952   11.2971    0.0000 C   0  0  0  0  0  0  0  0  0  0  0  0
   -6.6223    8.4440    0.0000 C   0  0  0  0  0  0  0  0  0  0  0  0
   -7.0858    7.0174    0.0000 C   0  0  0  0  0  0  0  0  0  0  0  0
   -1.9140    1.9635    0.0000 C   0  0  0  0  0  0  0  0  0  0  0  0
   -1.0323    3.1771    0.0000 C   0  0  0  0  0  0  0  0  0  0  0  0
    0.3943    2.7135    0.0000 C   0  0  0  0  0  0  0  0  0  0  0  0
    0.3943    1.2135    0.0000 C   0  0  0  0  0  0  0  0  0  0  0  0
    1.2760    0.0000    0.0000 O   0  0  0  0  0  0  0  0  0  0  0  0
    0.3943   -1.2135    0.0000 C   0  0  0  0  0  0  0  0  0  0  0  0
   -1.0323   -0.7500    0.0000 C   0  0  0  0  0  0  0  0  0  0  0  0
   -1.0323    0.7500    0.0000 C   0  0  0  0  0  0  0  0  0  0  0  0
  1  2  2  0
  2  3  1  0
  3  4  1  0
  4  5  2  0
  5  6  1  0
  6  7  2  0
  7  8  1  0
  8  9  1  0
  9 10  1  0
 10 11  1  0
 11 12  1  0
 12 13  1  0
 13 14  2  0
 14 15  1  0
 15 16  2  0
 16 17  1  0
 17 18  2  0
 12 19  1  0
 19 20  1  0
  2 21  1  0
 21 22  2  0
 22 23  1  0
 23 24  2  0
 24 25  1  0
 25 26  1  0
 26 27  1  0
 27 28  2  0
  8  4  1  0
 20  9  1  0
 28 21  1  0
 18 13  1  0
 28 24  1  0
M  END
>  <Title>  (1159) 
idABQQgen6

$$$$

     RDKit          2D

 25 28  0  0  0  0  0  0  0  0999 V2000
   -0.4109   -7.4962    0.0000 C   0  0  0  0  0  0  0  0  0  0  0  0
   -1.3240   -6.3062    0.0000 C   0  0  0  0  0  0  0  0  0  0  0  0
   -2.8112   -6.5020    0.0000 O   0  0  0  0  0  0  0  0  0  0  0  0
   -0.7500   -4.9204    0.0000 C   0  0  0  0  0  0  0  0  0  0  0  0
    0.7500   -4.9204    0.0000 C   0  0  0  0  0  0  0  0  0  0  0  0
    1.8107   -3.8597    0.0000 C   0  0  0  0  0  0  0  0  0  0  0  0
    1.8107   -2.3597    0.0000 C   0  0  0  0  0  0  0  0  0  0  0  0
    3.1965   -1.7857    0.0000 N   0  0  0  0  0  0  0  0  0  0  0  0
    3.5466   -0.3271    0.0000 C   0  0  0  0  0  0  0  0  0  0  0  0
    5.0420   -0.2094    0.0000 C   0  0  0  0  0  0  0  0  0  0  0  0
    5.6160   -1.5952    0.0000 C   0  0  0  0  0  0  0  0  0  0  0  0
    4.4754   -2.5694    0.0000 C   0  0  0  0  0  0  0  0  0  0  0  0
    4.5931   -4.0648    0.0000 O   0  0  0  0  0  0  0  0  0  0  0  0
    0.7500   -1.2990    0.0000 C   0  0  0  0  0  0  0  0  0  0  0  0
    1.5000    0.0000    0.0000 C   0  0  0  0  0  0  0  0  0  0  0  0
    0.7500    1.2990    0.0000 C   0  0  0  0  0  0  0  0  0  0  0  0
   -0.7500    1.2990    0.0000 C   0  0  0  0  0  0  0  0  0  0  0  0
   -1.5000    0.0000    0.0000 C   0  0  0  0  0  0  0  0  0  0  0  0
   -0.7500   -1.2990    0.0000 C   0  0  0  0  0  0  0  0  0  0  0  0
   -1.8107   -2.3597    0.0000 C   0  0  0  0  0  0  0  0  0  0  0  0
   -3.1097   -1.6097    0.0000 C   0  0  0  0  0  0  0  0  0  0  0  0
   -4.4087   -2.3597    0.0000 C   0  0  0  0  0  0  0  0  0  0  0  0
   -4.4087   -3.8597    0.0000 C   0  0  0  0  0  0  0  0  0  0  0  0
   -3.1097   -4.6097    0.0000 C   0  0  0  0  0  0  0  0  0  0  0  0
   -1.8107   -3.8597    0.0000 C   0  0  0  0  0  0  0  0  0  0  0  0
  1  2  1  0
  2  3  2  0
  2  4  1  0
  4  5  2  0
  5  6  1  0
  6  7  2  0
  7  8  1  0
  8  9  1  0
  9 10  1  0
 10 11  1  0
 11 12  1  0
 12 13  2  0
  7 14  1  0
 14 15  2  0
 15 16  1  0
 16 17  2  0
 17 18  1  0
 18 19  2  0
 19 20  1  0
 20 21  2  0
 21 22  1  0
 22 23  2  0
 23 24  1  0
 24 25  2  0
 25  4  1  0
 12  8  1  0
 19 14  1  0
 25 20  1  0
M  END
>  <Title>  (1160) 
idABQRgen6

$$$$

     RDKit          2D

 27 29  0  0  0  0  0  0  0  0999 V2000
   -3.9830   -0.7118    0.0000 C   0  0  0  0  0  0  0  0  0  0  0  0
   -2.4932   -0.8859    0.0000 C   0  0  0  0  0  0  0  0  0  0  0  0
   -1.8991   -2.2632    0.0000 C   0  0  0  0  0  0  0  0  0  0  0  0
   -3.3889   -2.4374    0.0000 C   0  0  0  0  0  0  0  0  0  0  0  0
   -2.1595   -3.7404    0.0000 C   0  0  0  0  0  0  0  0  0  0  0  0
   -1.4095   -5.0395    0.0000 C   0  0  0  0  0  0  0  0  0  0  0  0
   -0.0000   -5.5525    0.0000 C   0  0  0  0  0  0  0  0  0  0  0  0
   -0.0000   -7.0525    0.0000 C   0  0  0  0  0  0  0  0  0  0  0  0
    1.4095   -5.0395    0.0000 C   0  0  0  0  0  0  0  0  0  0  0  0
    2.1595   -3.7404    0.0000 C   0  0  0  0  0  0  0  0  0  0  0  0
    1.8991   -2.2632    0.0000 C   0  0  0  0  0  0  0  0  0  0  0  0
    3.1981   -1.5132    0.0000 C   0  0  0  0  0  0  0  0  0  0  0  0
    4.4971   -2.2632    0.0000 C   0  0  0  0  0  0  0  0  0  0  0  0
    4.4971   -3.7632    0.0000 O   0  0  0  0  0  0  0  0  0  0  0  0
    5.7962   -1.5132    0.0000 N   0  0  0  0  0  0  0  0  0  0  0  0
    7.0952   -2.2632    0.0000 C   0  0  0  0  0  0  0  0  0  0  0  0
    7.0952   -3.7632    0.0000 N   0  0  0  0  0  0  0  0  0  0  0  0
    8.3943   -4.5132    0.0000 N   0  0  0  0  0  0  0  0  0  0  0  0
    9.6933   -3.7632    0.0000 N   0  0  0  0  0  0  0  0  0  0  0  0
    9.6933   -2.2632    0.0000 N   0  0  0  0  0  0  0  0  0  0  0  0
    8.3943   -1.5132    0.0000 N   0  0  0  0  0  0  0  0  0  0  0  0
    0.7500   -1.2990    0.0000 C   0  0  0  0  0  0  0  0  0  0  0  0
    1.5000    0.0000    0.0000 C   0  0  0  0  0  0  0  0  0  0  0  0
    0.7500    1.2990    0.0000 C   0  0  0  0  0  0  0  0  0  0  0  0
   -0.7500    1.2990    0.0000 C   0  0  0  0  0  0  0  0  0  0  0  0
   -1.5000    0.0000    0.0000 C   0  0  0  0  0  0  0  0  0  0  0  0
   -0.7500   -1.2990    0.0000 C   0  0  0  0  0  0  0  0  0  0  0  0
  1  2  1  0
  2  3  1  0
  3  4  1  0
  3  5  1  0
  5  6  3  0
  6  7  1  0
  7  8  1  0
  7  9  1  0
  9 10  1  0
 10 11  1  0
 11 12  1  0
 12 13  1  0
 13 14  2  0
 13 15  1  0
 15 16  1  0
 16 17  2  0
 17 18  1  0
 18 19  2  0
 19 20  1  0
 20 21  2  0
 11 22  1  0
 22 23  2  0
 23 24  1  0
 24 25  2  0
 25 26  1  0
 26 27  2  0
 27  3  1  0
 21 16  1  0
 27 22  1  0
M  END
>  <Title>  (1161) 
idABQSgen6

$$$$

     RDKit          2D

 30 33  0  0  0  0  0  0  0  0999 V2000
   -4.4971   -2.2632    0.0000 C   0  0  0  0  0  0  0  0  0  0  0  0
   -3.1981   -1.5132    0.0000 O   0  0  0  0  0  0  0  0  0  0  0  0
   -1.8991   -2.2632    0.0000 C   0  0  0  0  0  0  0  0  0  0  0  0
   -2.1595   -3.7404    0.0000 C   0  0  0  0  0  0  0  0  0  0  0  0
   -1.4095   -5.0395    0.0000 C   0  0  0  0  0  0  0  0  0  0  0  0
   -0.0000   -5.5525    0.0000 C   0  0  0  0  0  0  0  0  0  0  0  0
    1.4095   -5.0395    0.0000 C   0  0  0  0  0  0  0  0  0  0  0  0
    2.1595   -3.7404    0.0000 C   0  0  0  0  0  0  0  0  0  0  0  0
    1.8991   -2.2632    0.0000 C   0  0  0  0  0  0  0  0  0  0  0  0
    3.1981   -1.5132    0.0000 C   0  0  0  0  0  0  0  0  0  0  0  0
    3.1981   -0.0132    0.0000 O   0  0  0  0  0  0  0  0  0  0  0  0
    4.4971   -2.2632    0.0000 N   0  0  0  0  0  0  0  0  0  0  0  0
    5.7962   -1.5132    0.0000 C   0  0  0  0  0  0  0  0  0  0  0  0
    7.0952   -2.2632    0.0000 N   0  0  0  0  0  0  0  0  0  0  0  0
    8.3943   -1.5132    0.0000 N   0  0  0  0  0  0  0  0  0  0  0  0
    8.3943   -0.0132    0.0000 N   0  0  0  0  0  0  0  0  0  0  0  0
    7.0952    0.7368    0.0000 N   0  0  0  0  0  0  0  0  0  0  0  0
    7.0952    2.2368    0.0000 C   0  0  0  0  0  0  0  0  0  0  0  0
    8.3943    2.9868    0.0000 C   0  0  0  0  0  0  0  0  0  0  0  0
    8.3943    4.4868    0.0000 C   0  0  0  0  0  0  0  0  0  0  0  0
    7.0952    5.2368    0.0000 C   0  0  0  0  0  0  0  0  0  0  0  0
    5.7962    4.4868    0.0000 C   0  0  0  0  0  0  0  0  0  0  0  0
    5.7962    2.9868    0.0000 C   0  0  0  0  0  0  0  0  0  0  0  0
    5.7962   -0.0132    0.0000 C   0  0  0  0  0  0  0  0  0  0  0  0
    0.7500   -1.2990    0.0000 C   0  0  0  0  0  0  0  0  0  0  0  0
    1.5000    0.0000    0.0000 C   0  0  0  0  0  0  0  0  0  0  0  0
    0.7500    1.2990    0.0000 C   0  0  0  0  0  0  0  0  0  0  0  0
   -0.7500    1.2990    0.0000 C   0  0  0  0  0  0  0  0  0  0  0  0
   -1.5000    0.0000    0.0000 C   0  0  0  0  0  0  0  0  0  0  0  0
   -0.7500   -1.2990    0.0000 C   0  0  0  0  0  0  0  0  0  0  0  0
  1  2  1  0
  2  3  1  0
  3  4  1  0
  4  5  2  0
  5  6  1  0
  6  7  1  0
  7  8  1  0
  8  9  1  0
  9 10  1  0
 10 11  2  0
 10 12  1  0
 12 13  1  0
 13 14  2  0
 14 15  1  0
 15 16  2  0
 16 17  1  0
 17 18  1  0
 18 19  2  0
 19 20  1  0
 20 21  2  0
 21 22  1  0
 22 23  2  0
 17 24  1  0
  9 25  1  0
 25 26  2  0
 26 27  1  0
 27 28  2  0
 28 29  1  0
 29 30  2  0
 30  3  1  0
 24 13  1  0
 30 25  1  0
 23 18  1  0
M  END
>  <Title>  (1162) 
idABQTgen6

$$$$

     RDKit          2D

  8  7  0  0  0  0  0  0  0  0999 V2000
    0.0000    0.0000    0.0000 C   0  0  0  0  0  0  0  0  0  0  0  0
    1.2990    0.7500    0.0000 C   0  0  0  0  0  0  0  0  0  0  0  0
    2.5981   -0.0000    0.0000 C   0  0  0  0  0  0  0  0  0  0  0  0
    3.8971    0.7500    0.0000 C   0  0  0  0  0  0  0  0  0  0  0  0
    2.5981   -1.5000    0.0000 C   0  0  0  0  0  0  0  0  0  0  0  0
    2.5981   -3.0000    0.0000 F   0  0  0  0  0  0  0  0  0  0  0  0
    4.0981   -1.5000    0.0000 F   0  0  0  0  0  0  0  0  0  0  0  0
    1.0981   -1.5000    0.0000 F   0  0  0  0  0  0  0  0  0  0  0  0
  1  2  1  0
  2  3  1  0
  3  4  1  0
  3  5  1  0
  5  6  1  0
  5  7  1  0
  5  8  1  0
M  END
>  <Title>  (1163) 
idABQUgen6

$$$$

     RDKit          2D

  9  9  0  0  0  0  0  0  0  0999 V2000
    5.0260   -1.2990    0.0000 C   0  0  0  0  0  0  0  0  0  0  0  0
    3.5260   -1.2990    0.0000 C   0  0  0  0  0  0  0  0  0  0  0  0
    2.7760   -2.5981    0.0000 O   0  0  0  0  0  0  0  0  0  0  0  0
    2.7760    0.0000    0.0000 O   0  0  0  0  0  0  0  0  0  0  0  0
    1.2760    0.0000    0.0000 C   0  0  0  0  0  0  0  0  0  0  0  0
    0.3943    1.2135    0.0000 C   0  0  0  0  0  0  0  0  0  0  0  0
   -1.0323    0.7500    0.0000 C   0  0  0  0  0  0  0  0  0  0  0  0
   -1.0323   -0.7500    0.0000 N   0  0  0  0  0  0  0  0  0  0  0  0
    0.3943   -1.2135    0.0000 N   0  0  0  0  0  0  0  0  0  0  0  0
  1  2  1  0
  2  3  2  0
  2  4  1  0
  4  5  1  0
  5  6  2  0
  6  7  1  0
  7  8  2  0
  8  9  1  0
  9  5  1  0
M  END
>  <Title>  (1164) 
idABQVgen6

$$$$

     RDKit          2D

 14 14  0  0  0  0  0  0  0  0999 V2000
    5.4786   -1.2990    0.0000 C   0  0  0  0  0  0  0  0  0  0  0  0
    3.9786   -1.2990    0.0000 C   0  0  0  0  0  0  0  0  0  0  0  0
    3.2286   -2.5981    0.0000 O   0  0  0  0  0  0  0  0  0  0  0  0
    3.2286   -0.0000    0.0000 C   0  0  0  0  0  0  0  0  0  0  0  0
    3.9786    1.2990    0.0000 C   0  0  0  0  0  0  0  0  0  0  0  0
    3.2286    2.5981    0.0000 O   0  0  0  0  0  0  0  0  0  0  0  0
    5.4786    1.2990    0.0000 O   0  0  0  0  0  0  0  0  0  0  0  0
    1.7286    0.0000    0.0000 C   0  0  0  0  0  0  0  0  0  0  0  0
    1.0777    1.3515    0.0000 C   0  0  0  0  0  0  0  0  0  0  0  0
   -0.3846    1.6852    0.0000 C   0  0  0  0  0  0  0  0  0  0  0  0
   -1.5574    0.7500    0.0000 C   0  0  0  0  0  0  0  0  0  0  0  0
   -1.5574   -0.7500    0.0000 C   0  0  0  0  0  0  0  0  0  0  0  0
   -0.3846   -1.6852    0.0000 C   0  0  0  0  0  0  0  0  0  0  0  0
    1.0777   -1.3515    0.0000 C   0  0  0  0  0  0  0  0  0  0  0  0
  1  2  1  0
  2  3  2  0
  2  4  1  0
  4  5  1  0
  5  6  2  0
  5  7  1  0
  4  8  2  3
  8  9  1  0
  9 10  1  0
 10 11  1  0
 11 12  1  0
 12 13  1  0
 13 14  1  0
 14  8  1  0
M  END
>  <Title>  (1165) 
idABQWgen6

$$$$

     RDKit          2D

 15 16  0  0  0  0  0  0  0  0999 V2000
    2.7760    0.0000    0.0000 C   0  0  0  0  0  0  0  0  0  0  0  0
    1.2760    0.0000    0.0000 C   0  0  0  0  0  0  0  0  0  0  0  0
    0.3943    1.2135    0.0000 C   0  0  0  0  0  0  0  0  0  0  0  0
   -1.0323    0.7500    0.0000 C   0  0  0  0  0  0  0  0  0  0  0  0
   -1.0323   -0.7500    0.0000 C   0  0  0  0  0  0  0  0  0  0  0  0
   -2.2458   -1.6317    0.0000 C   0  0  0  0  0  0  0  0  0  0  0  0
   -2.0890   -3.1235    0.0000 O   0  0  0  0  0  0  0  0  0  0  0  0
   -3.6161   -1.0216    0.0000 N   0  0  0  0  0  0  0  0  0  0  0  0
   -4.8297   -1.9033    0.0000 C   0  0  0  0  0  0  0  0  0  0  0  0
   -4.8297   -3.4033    0.0000 N   0  0  0  0  0  0  0  0  0  0  0  0
   -6.2562   -3.8668    0.0000 N   0  0  0  0  0  0  0  0  0  0  0  0
   -7.1379   -2.6533    0.0000 N   0  0  0  0  0  0  0  0  0  0  0  0
   -6.2562   -1.4397    0.0000 C   0  0  0  0  0  0  0  0  0  0  0  0
   -6.7198   -0.0131    0.0000 O   0  0  0  0  0  0  0  0  0  0  0  0
    0.3943   -1.2135    0.0000 C   0  0  0  0  0  0  0  0  0  0  0  0
  1  2  1  0
  2  3  1  0
  3  4  2  0
  4  5  1  0
  5  6  1  0
  6  7  2  0
  6  8  1  0
  8  9  1  0
  9 10  2  0
 10 11  1  0
 11 12  2  0
 12 13  1  0
 13 14  2  0
  5 15  1  0
 15  2  1  0
 13  9  1  0
M  END
>  <Title>  (1166) 
idABQXgen6

$$$$

     RDKit          2D

  6  5  0  0  0  0  0  0  0  0999 V2000
    0.0000    0.0000    0.0000 C   0  0  0  0  0  0  0  0  0  0  0  0
   -0.0000   -1.5000    0.0000 C   0  0  0  0  0  0  0  0  0  0  0  0
   -0.0000   -3.0000    0.0000 C   0  0  0  0  0  0  0  0  0  0  0  0
   -0.0000   -4.5000    0.0000 C   0  0  0  0  0  0  0  0  0  0  0  0
   -0.0000   -6.0000    0.0000 C   0  0  0  0  0  0  0  0  0  0  0  0
   -0.0000   -7.5000    0.0000 N   0  0  0  0  0  0  0  0  0  0  0  0
  1  2  3  0
  2  3  1  0
  3  4  3  0
  4  5  1  0
  5  6  3  0
M  END
>  <Title>  (1167) 
idABQYgen6

$$$$

     RDKit          2D

  8  8  0  0  0  0  0  0  0  0999 V2000
    3.2286   -0.0000    0.0000 C   0  0  0  0  0  0  0  0  0  0  0  0
    1.7286    0.0000    0.0000 C   0  0  0  0  0  0  0  0  0  0  0  0
    1.0777    1.3515    0.0000 C   0  0  0  0  0  0  0  0  0  0  0  0
   -0.3846    1.6852    0.0000 C   0  0  0  0  0  0  0  0  0  0  0  0
   -1.5574    0.7500    0.0000 C   0  0  0  0  0  0  0  0  0  0  0  0
   -1.5574   -0.7500    0.0000 C   0  0  0  0  0  0  0  0  0  0  0  0
   -0.3846   -1.6852    0.0000 C   0  0  0  0  0  0  0  0  0  0  0  0
    1.0777   -1.3515    0.0000 C   0  0  0  0  0  0  0  0  0  0  0  0
  1  2  1  0
  2  3  1  0
  3  4  2  0
  4  5  1  0
  5  6  2  0
  6  7  1  0
  7  8  2  0
  8  2  1  0
M  END
>  <Title>  (1168) 
idABQZgen6

$$$$

     RDKit          2D

 15 16  0  0  0  0  0  0  0  0999 V2000
    1.8478   -9.0619    0.0000 C   0  0  0  0  0  0  0  0  0  0  0  0
    2.0046   -7.5702    0.0000 C   0  0  0  0  0  0  0  0  0  0  0  0
    3.3037   -6.8202    0.0000 C   0  0  0  0  0  0  0  0  0  0  0  0
    2.9918   -5.3529    0.0000 C   0  0  0  0  0  0  0  0  0  0  0  0
    1.5000   -5.1962    0.0000 C   0  0  0  0  0  0  0  0  0  0  0  0
    0.7500   -3.8971    0.0000 C   0  0  0  0  0  0  0  0  0  0  0  0
   -0.7500   -3.8971    0.0000 O   0  0  0  0  0  0  0  0  0  0  0  0
    1.5000   -2.5981    0.0000 N   0  0  0  0  0  0  0  0  0  0  0  0
    0.7500   -1.2990    0.0000 C   0  0  0  0  0  0  0  0  0  0  0  0
    1.5000    0.0000    0.0000 N   0  0  0  0  0  0  0  0  0  0  0  0
    0.7500    1.2990    0.0000 N   0  0  0  0  0  0  0  0  0  0  0  0
   -0.7500    1.2990    0.0000 N   0  0  0  0  0  0  0  0  0  0  0  0
   -1.5000    0.0000    0.0000 N   0  0  0  0  0  0  0  0  0  0  0  0
   -0.7500   -1.2990    0.0000 N   0  0  0  0  0  0  0  0  0  0  0  0
    0.8899   -6.5665    0.0000 C   0  0  0  0  0  0  0  0  0  0  0  0
  1  2  1  0
  2  3  2  0
  3  4  1  0
  4  5  2  0
  5  6  1  0
  6  7  2  0
  6  8  1  0
  8  9  1  0
  9 10  2  0
 10 11  1  0
 11 12  2  0
 12 13  1  0
 13 14  2  0
  5 15  1  0
 15  2  1  0
 14  9  1  0
M  END
>  <Title>  (1169) 
idABRAgen6

$$$$

     RDKit          2D

 42 47  0  0  0  0  0  0  0  0999 V2000
    1.0838   -9.3334    0.0000 C   0  0  0  0  0  0  0  0  0  0  0  0
    0.7500   -7.8710    0.0000 C   0  0  0  0  0  0  0  0  0  0  0  0
    2.1015   -7.2201    0.0000 C   0  0  0  0  0  0  0  0  0  0  0  0
    3.0367   -6.0474    0.0000 C   0  0  0  0  0  0  0  0  0  0  0  0
    3.3705   -4.5850    0.0000 C   0  0  0  0  0  0  0  0  0  0  0  0
    3.0367   -3.1226    0.0000 C   0  0  0  0  0  0  0  0  0  0  0  0
    2.1015   -1.9499    0.0000 C   0  0  0  0  0  0  0  0  0  0  0  0
    3.0367   -0.7771    0.0000 C   0  0  0  0  0  0  0  0  0  0  0  0
    2.4887    0.6192    0.0000 O   0  0  0  0  0  0  0  0  0  0  0  0
    4.5199   -1.0007    0.0000 N   0  0  0  0  0  0  0  0  0  0  0  0
    5.4552    0.1721    0.0000 C   0  0  0  0  0  0  0  0  0  0  0  0
    6.9384   -0.0515    0.0000 C   0  0  0  0  0  0  0  0  0  0  0  0
    7.8736    1.1213    0.0000 N   0  0  0  0  0  0  0  0  0  0  0  0
    7.3256    2.5176    0.0000 N   0  0  0  0  0  0  0  0  0  0  0  0
    5.8424    2.7411    0.0000 N   0  0  0  0  0  0  0  0  0  0  0  0
    4.9072    1.5684    0.0000 N   0  0  0  0  0  0  0  0  0  0  0  0
    0.7500   -1.2990    0.0000 C   0  0  0  0  0  0  0  0  0  0  0  0
    1.5000    0.0000    0.0000 C   0  0  0  0  0  0  0  0  0  0  0  0
    0.7500    1.2990    0.0000 C   0  0  0  0  0  0  0  0  0  0  0  0
   -0.7500    1.2990    0.0000 C   0  0  0  0  0  0  0  0  0  0  0  0
   -1.5000    0.0000    0.0000 C   0  0  0  0  0  0  0  0  0  0  0  0
   -0.7500   -1.2990    0.0000 C   0  0  0  0  0  0  0  0  0  0  0  0
   -2.1015   -1.9499    0.0000 C   0  0  0  0  0  0  0  0  0  0  0  0
   -3.0367   -3.1226    0.0000 C   0  0  0  0  0  0  0  0  0  0  0  0
   -3.3705   -4.5850    0.0000 C   0  0  0  0  0  0  0  0  0  0  0  0
   -3.0367   -6.0474    0.0000 C   0  0  0  0  0  0  0  0  0  0  0  0
   -4.5348   -5.9726    0.0000 N   0  0  0  0  0  0  0  0  0  0  0  0
   -5.6344   -4.9524    0.0000 C   0  0  0  0  0  0  0  0  0  0  0  0
   -6.9692   -5.6367    0.0000 O   0  0  0  0  0  0  0  0  0  0  0  0
   -5.8209   -3.4640    0.0000 C   0  0  0  0  0  0  0  0  0  0  0  0
   -7.0810   -2.6502    0.0000 C   0  0  0  0  0  0  0  0  0  0  0  0
   -6.2671   -1.3901    0.0000 C   0  0  0  0  0  0  0  0  0  0  0  0
   -5.0071   -2.2040    0.0000 C   0  0  0  0  0  0  0  0  0  0  0  0
   -3.5737   -1.7618    0.0000 N   0  0  0  0  0  0  0  0  0  0  0  0
   -2.1015   -7.2201    0.0000 C   0  0  0  0  0  0  0  0  0  0  0  0
   -3.3408   -8.0651    0.0000 C   0  0  0  0  0  0  0  0  0  0  0  0
   -3.2287   -9.5609    0.0000 C   0  0  0  0  0  0  0  0  0  0  0  0
   -1.8773  -10.2118    0.0000 C   0  0  0  0  0  0  0  0  0  0  0  0
   -1.7652  -11.7076    0.0000 C   0  0  0  0  0  0  0  0  0  0  0  0
   -1.6531  -13.2034    0.0000 N   0  0  0  0  0  0  0  0  0  0  0  0
   -0.6379   -9.3668    0.0000 C   0  0  0  0  0  0  0  0  0  0  0  0
   -0.7500   -7.8710    0.0000 C   0  0  0  0  0  0  0  0  0  0  0  0
  1  2  1  0
  2  3  1  0
  3  4  2  0
  4  5  1  0
  5  6  1  0
  6  7  1  0
  7  8  1  0
  8  9  2  0
  8 10  1  0
 10 11  1  0
 11 12  2  0
 12 13  1  0
 13 14  2  0
 14 15  1  0
 15 16  2  0
  7 17  1  0
 17 18  2  0
 18 19  1  0
 19 20  2  0
 20 21  1  0
 21 22  2  0
 22 23  1  0
 23 24  2  0
 24 25  1  0
 25 26  2  0
 26 27  1  0
 27 28  1  0
 28 29  2  0
 28 30  1  0
 30 31  1  0
 31 32  1  0
 32 33  1  0
 33 34  1  0
 26 35  1  0
 35 36  2  0
 36 37  1  0
 37 38  2  0
 38 39  1  0
 39 40  3  0
 38 41  1  0
 41 42  2  0
 42  2  1  0
 16 11  1  0
 22 17  1  0
 34 23  1  0
 42 35  1  0
 33 30  1  0
M  END
>  <Title>  (1170) 
idABRBgen6

$$$$

     RDKit          2D

 46 51  0  0  0  0  0  0  0  0999 V2000
   -4.3865   -2.6988    0.0000 C   0  0  0  0  0  0  0  0  0  0  0  0
   -3.1965   -1.7857    0.0000 C   0  0  0  0  0  0  0  0  0  0  0  0
   -1.8107   -2.3597    0.0000 C   0  0  0  0  0  0  0  0  0  0  0  0
   -1.8107   -3.8597    0.0000 C   0  0  0  0  0  0  0  0  0  0  0  0
   -0.7500   -4.9204    0.0000 C   0  0  0  0  0  0  0  0  0  0  0  0
    0.7500   -4.9204    0.0000 C   0  0  0  0  0  0  0  0  0  0  0  0
    1.3240   -6.3062    0.0000 C   0  0  0  0  0  0  0  0  0  0  0  0
    0.4109   -7.4962    0.0000 C   0  0  0  0  0  0  0  0  0  0  0  0
    0.9849   -8.8820    0.0000 C   0  0  0  0  0  0  0  0  0  0  0  0
    2.4721   -9.0778    0.0000 C   0  0  0  0  0  0  0  0  0  0  0  0
    3.0461  -10.4636    0.0000 C   0  0  0  0  0  0  0  0  0  0  0  0
    3.4469  -11.9091    0.0000 N   0  0  0  0  0  0  0  0  0  0  0  0
    3.3852   -7.8878    0.0000 C   0  0  0  0  0  0  0  0  0  0  0  0
    2.8112   -6.5020    0.0000 C   0  0  0  0  0  0  0  0  0  0  0  0
    3.7243   -5.3119    0.0000 C   0  0  0  0  0  0  0  0  0  0  0  0
    3.1503   -3.9261    0.0000 C   0  0  0  0  0  0  0  0  0  0  0  0
    4.0635   -2.7361    0.0000 C   0  0  0  0  0  0  0  0  0  0  0  0
    5.5506   -2.9319    0.0000 C   0  0  0  0  0  0  0  0  0  0  0  0
    6.4638   -1.7418    0.0000 C   0  0  0  0  0  0  0  0  0  0  0  0
    7.3769   -0.5518    0.0000 N   0  0  0  0  0  0  0  0  0  0  0  0
    6.1246   -4.3177    0.0000 C   0  0  0  0  0  0  0  0  0  0  0  0
    5.2115   -5.5077    0.0000 C   0  0  0  0  0  0  0  0  0  0  0  0
    5.7855   -6.8935    0.0000 C   0  0  0  0  0  0  0  0  0  0  0  0
    7.2441   -7.2437    0.0000 C   0  0  0  0  0  0  0  0  0  0  0  0
    7.3618   -8.7391    0.0000 C   0  0  0  0  0  0  0  0  0  0  0  0
    5.9760   -9.3131    0.0000 C   0  0  0  0  0  0  0  0  0  0  0  0
    5.6258  -10.7717    0.0000 C   0  0  0  0  0  0  0  0  0  0  0  0
    4.2502  -11.3698    0.0000 O   0  0  0  0  0  0  0  0  0  0  0  0
    6.7138  -11.8042    0.0000 N   0  0  0  0  0  0  0  0  0  0  0  0
    6.3637  -13.2628    0.0000 C   0  0  0  0  0  0  0  0  0  0  0  0
    4.9254  -13.6888    0.0000 N   0  0  0  0  0  0  0  0  0  0  0  0
    4.5753  -15.1473    0.0000 N   0  0  0  0  0  0  0  0  0  0  0  0
    5.6633  -16.1799    0.0000 N   0  0  0  0  0  0  0  0  0  0  0  0
    7.1016  -15.7538    0.0000 N   0  0  0  0  0  0  0  0  0  0  0  0
    8.1896  -16.7864    0.0000 C   0  0  0  0  0  0  0  0  0  0  0  0
    7.4517  -14.2953    0.0000 C   0  0  0  0  0  0  0  0  0  0  0  0
    5.0018   -8.1725    0.0000 C   0  0  0  0  0  0  0  0  0  0  0  0
    1.8107   -3.8597    0.0000 C   0  0  0  0  0  0  0  0  0  0  0  0
    2.5991   -3.9775    0.0000 O   0  0  0  0  0  0  0  0  0  0  0  0
    1.8107   -2.3597    0.0000 O   0  0  0  0  0  0  0  0  0  0  0  0
    0.7500   -1.2990    0.0000 C   0  0  0  0  0  0  0  0  0  0  0  0
    1.5000    0.0000    0.0000 C   0  0  0  0  0  0  0  0  0  0  0  0
    0.7500    1.2990    0.0000 C   0  0  0  0  0  0  0  0  0  0  0  0
   -0.7500    1.2990    0.0000 C   0  0  0  0  0  0  0  0  0  0  0  0
   -1.5000    0.0000    0.0000 C   0  0  0  0  0  0  0  0  0  0  0  0
   -0.7500   -1.2990    0.0000 C   0  0  0  0  0  0  0  0  0  0  0  0
  1  2  1  0
  2  3  1  0
  3  4  2  0
  4  5  1  0
  5  6  2  0
  6  7  1  0
  7  8  2  0
  8  9  1  0
  9 10  2  0
 10 11  1  0
 11 12  3  0
 10 13  1  0
 13 14  2  0
 14 15  1  0
 15 16  2  0
 16 17  1  0
 17 18  2  0
 18 19  1  0
 19 20  3  0
 18 21  1  0
 21 22  2  0
 22 23  1  0
 23 24  2  0
 24 25  1  0
 25 26  2  0
 26 27  1  0
 27 28  2  0
 27 29  1  0
 29 30  1  0
 30 31  2  0
 31 32  1  0
 32 33  2  0
 33 34  1  0
 34 35  1  0
 34 36  1  0
 26 37  1  0
  6 38  1  0
 38 39  2  0
 38 40  1  0
 40 41  1  0
 41 42  2  0
 42 43  1  0
 43 44  2  0
 44 45  1  0
 45 46  2  0
 46  3  1  0
 14  7  1  0
 22 15  1  0
 37 23  1  0
 46 41  1  0
 36 30  1  0
M  END
>  <Title>  (1171) 
idABRCgen6

$$$$

     RDKit          2D

 44 47  0  0  0  0  0  0  0  0999 V2000
   -5.6214  -11.0102    0.0000 C   0  0  0  0  0  0  0  0  0  0  0  0
   -6.7705  -10.0460    0.0000 C   0  0  0  0  0  0  0  0  0  0  0  0
   -8.1800  -10.5590    0.0000 O   0  0  0  0  0  0  0  0  0  0  0  0
   -6.5100   -8.5688    0.0000 C   0  0  0  0  0  0  0  0  0  0  0  0
   -7.6591   -7.6046    0.0000 C   0  0  0  0  0  0  0  0  0  0  0  0
   -8.3200   -8.0504    0.0000 O   0  0  0  0  0  0  0  0  0  0  0  0
   -7.3986   -6.1274    0.0000 C   0  0  0  0  0  0  0  0  0  0  0  0
   -5.9891   -5.6144    0.0000 O   0  0  0  0  0  0  0  0  0  0  0  0
   -8.5477   -5.1632    0.0000 C   0  0  0  0  0  0  0  0  0  0  0  0
   -9.9572   -5.6763    0.0000 C   0  0  0  0  0  0  0  0  0  0  0  0
  -10.2177   -7.1535    0.0000 C   0  0  0  0  0  0  0  0  0  0  0  0
  -11.6272   -7.6665    0.0000 C   0  0  0  0  0  0  0  0  0  0  0  0
  -11.8877   -9.1437    0.0000 C   0  0  0  0  0  0  0  0  0  0  0  0
  -10.7387  -10.1079    0.0000 C   0  0  0  0  0  0  0  0  0  0  0  0
   -9.3291   -9.5949    0.0000 C   0  0  0  0  0  0  0  0  0  0  0  0
   -9.0686   -8.1177    0.0000 C   0  0  0  0  0  0  0  0  0  0  0  0
   -8.2872   -3.6860    0.0000 N   0  0  0  0  0  0  0  0  0  0  0  0
   -6.8777   -3.1730    0.0000 C   0  0  0  0  0  0  0  0  0  0  0  0
   -5.7286   -4.1372    0.0000 O   0  0  0  0  0  0  0  0  0  0  0  0
   -6.6172   -1.6958    0.0000 C   0  0  0  0  0  0  0  0  0  0  0  0
   -7.7663   -0.7316    0.0000 C   0  0  0  0  0  0  0  0  0  0  0  0
   -9.1758   -1.2446    0.0000 C   0  0  0  0  0  0  0  0  0  0  0  0
  -10.3249   -0.2804    0.0000 C   0  0  0  0  0  0  0  0  0  0  0  0
  -11.7344   -0.7935    0.0000 C   0  0  0  0  0  0  0  0  0  0  0  0
  -11.9949   -2.2707    0.0000 C   0  0  0  0  0  0  0  0  0  0  0  0
  -10.8458   -3.2349    0.0000 C   0  0  0  0  0  0  0  0  0  0  0  0
   -9.4363   -2.7218    0.0000 C   0  0  0  0  0  0  0  0  0  0  0  0
   -5.2077   -1.1827    0.0000 N   0  0  0  0  0  0  0  0  0  0  0  0
   -4.0586   -2.1469    0.0000 C   0  0  0  0  0  0  0  0  0  0  0  0
   -4.3191   -3.6241    0.0000 O   0  0  0  0  0  0  0  0  0  0  0  0
   -2.6491   -1.6339    0.0000 C   0  0  0  0  0  0  0  0  0  0  0  0
   -1.5000   -2.5981    0.0000 C   0  0  0  0  0  0  0  0  0  0  0  0
   -2.6491   -3.5623    0.0000 C   0  0  0  0  0  0  0  0  0  0  0  0
   -0.7500   -3.8971    0.0000 C   0  0  0  0  0  0  0  0  0  0  0  0
   -1.5000   -5.1962    0.0000 O   0  0  0  0  0  0  0  0  0  0  0  0
    0.7500   -3.8971    0.0000 O   0  0  0  0  0  0  0  0  0  0  0  0
    1.5000   -2.5981    0.0000 C   0  0  0  0  0  0  0  0  0  0  0  0
    3.0000   -2.5981    0.0000 O   0  0  0  0  0  0  0  0  0  0  0  0
    0.7500   -1.2990    0.0000 C   0  0  0  0  0  0  0  0  0  0  0  0
    1.5000    0.0000    0.0000 C   0  0  0  0  0  0  0  0  0  0  0  0
    0.7500    1.2990    0.0000 C   0  0  0  0  0  0  0  0  0  0  0  0
   -0.7500    1.2990    0.0000 C   0  0  0  0  0  0  0  0  0  0  0  0
   -1.5000    0.0000    0.0000 C   0  0  0  0  0  0  0  0  0  0  0  0
   -0.7500   -1.2990    0.0000 C   0  0  0  0  0  0  0  0  0  0  0  0
  1  2  1  0
  2  3  2  0
  2  4  1  0
  4  5  2  3
  5  6  1  0
  5  7  1  0
  7  8  2  0
  7  9  1  0
  9 10  1  0
 10 11  1  0
 11 12  2  0
 12 13  1  0
 13 14  2  0
 14 15  1  0
 15 16  2  0
  9 17  1  0
 17 18  1  0
 18 19  2  0
 18 20  1  0
 20 21  1  0
 21 22  1  0
 22 23  2  0
 23 24  1  0
 24 25  2  0
 25 26  1  0
 26 27  2  0
 20 28  1  0
 28 29  1  0
 29 30  2  0
 29 31  1  0
 31 32  1  0
 32 33  1  0
 32 34  1  0
 34 35  2  0
 34 36  1  0
 36 37  1  0
 37 38  2  0
 37 39  1  0
 39 40  2  0
 40 41  1  0
 41 42  2  0
 42 43  1  0
 43 44  2  0
 16 11  1  0
 27 22  1  0
 44 32  1  0
 44 39  1  0
M  END
>  <Title>  (1172) 
idABRDgen6

$$$$

     RDKit          2D

 28 31  0  0  0  0  0  0  0  0999 V2000
   -3.1771   -5.9156    0.0000 C   0  0  0  0  0  0  0  0  0  0  0  0
   -1.9635   -5.0339    0.0000 C   0  0  0  0  0  0  0  0  0  0  0  0
   -0.7500   -5.9156    0.0000 C   0  0  0  0  0  0  0  0  0  0  0  0
    0.7500   -5.9156    0.0000 C   0  0  0  0  0  0  0  0  0  0  0  0
    1.9635   -5.0339    0.0000 C   0  0  0  0  0  0  0  0  0  0  0  0
    3.1771   -5.9156    0.0000 O   0  0  0  0  0  0  0  0  0  0  0  0
    2.4271   -3.6073    0.0000 C   0  0  0  0  0  0  0  0  0  0  0  0
    3.9271   -3.6073    0.0000 C   0  0  0  0  0  0  0  0  0  0  0  0
    4.6771   -2.3083    0.0000 C   0  0  0  0  0  0  0  0  0  0  0  0
    4.6771   -4.9063    0.0000 C   0  0  0  0  0  0  0  0  0  0  0  0
    3.9271   -6.2054    0.0000 C   0  0  0  0  0  0  0  0  0  0  0  0
    4.6771   -7.5044    0.0000 C   0  0  0  0  0  0  0  0  0  0  0  0
    6.1771   -7.5044    0.0000 N   0  0  0  0  0  0  0  0  0  0  0  0
    6.9271   -6.2054    0.0000 N   0  0  0  0  0  0  0  0  0  0  0  0
    6.1771   -4.9063    0.0000 N   0  0  0  0  0  0  0  0  0  0  0  0
    1.9635   -2.1807    0.0000 O   0  0  0  0  0  0  0  0  0  0  0  0
    0.7500   -1.2990    0.0000 C   0  0  0  0  0  0  0  0  0  0  0  0
    1.5000    0.0000    0.0000 C   0  0  0  0  0  0  0  0  0  0  0  0
    0.7500    1.2990    0.0000 C   0  0  0  0  0  0  0  0  0  0  0  0
   -0.7500    1.2990    0.0000 C   0  0  0  0  0  0  0  0  0  0  0  0
   -1.5000    0.0000    0.0000 C   0  0  0  0  0  0  0  0  0  0  0  0
   -0.7500   -1.2990    0.0000 C   0  0  0  0  0  0  0  0  0  0  0  0
   -1.9635   -2.1807    0.0000 C   0  0  0  0  0  0  0  0  0  0  0  0
   -2.9672   -1.0660    0.0000 C   0  0  0  0  0  0  0  0  0  0  0  0
   -4.4344   -1.3779    0.0000 C   0  0  0  0  0  0  0  0  0  0  0  0
   -4.8980   -2.8045    0.0000 C   0  0  0  0  0  0  0  0  0  0  0  0
   -3.8943   -3.9192    0.0000 C   0  0  0  0  0  0  0  0  0  0  0  0
   -2.4271   -3.6073    0.0000 C   0  0  0  0  0  0  0  0  0  0  0  0
  1  2  1  0
  2  3  1  0
  3  4  1  0
  4  5  1  0
  5  6  1  0
  5  7  1  0
  7  8  1  0
  8  9  1  0
  8 10  1  0
 10 11  2  0
 11 12  1  0
 12 13  2  0
 13 14  1  0
 14 15  2  0
  7 16  1  0
 16 17  1  0
 17 18  2  0
 18 19  1  0
 19 20  2  0
 20 21  1  0
 21 22  2  0
 22 23  1  0
 23 24  2  0
 24 25  1  0
 25 26  2  0
 26 27  1  0
 27 28  2  0
 28  2  1  0
 15 10  1  0
 22 17  1  0
 28 23  1  0
M  END
>  <Title>  (1173) 
idABREgen6

$$$$

     RDKit          2D

 11 11  0  0  0  0  0  0  0  0999 V2000
    5.2500   -1.2990    0.0000 C   0  0  0  0  0  0  0  0  0  0  0  0
    3.7500   -1.2990    0.0000 N   0  0  0  0  0  0  0  0  0  0  0  0
    3.0000   -2.5981    0.0000 C   0  0  0  0  0  0  0  0  0  0  0  0
    3.0000    0.0000    0.0000 C   0  0  0  0  0  0  0  0  0  0  0  0
    3.7500    1.2990    0.0000 O   0  0  0  0  0  0  0  0  0  0  0  0
    1.5000    0.0000    0.0000 C   0  0  0  0  0  0  0  0  0  0  0  0
    0.7500   -1.2990    0.0000 C   0  0  0  0  0  0  0  0  0  0  0  0
   -0.7500   -1.2990    0.0000 C   0  0  0  0  0  0  0  0  0  0  0  0
   -1.5000    0.0000    0.0000 C   0  0  0  0  0  0  0  0  0  0  0  0
   -0.7500    1.2990    0.0000 C   0  0  0  0  0  0  0  0  0  0  0  0
    0.7500    1.2990    0.0000 C   0  0  0  0  0  0  0  0  0  0  0  0
  1  2  1  0
  2  3  1  0
  2  4  1  0
  4  5  2  0
  4  6  1  0
  6  7  2  0
  7  8  1  0
  8  9  2  0
  9 10  1  0
 10 11  2  0
 11  6  1  0
M  END
>  <Title>  (1174) 
idABRFgen6

$$$$

     RDKit          2D

  6  5  0  0  0  0  0  0  0  0999 V2000
    0.0000    0.0000    0.0000 C   0  0  0  0  0  0  0  0  0  0  0  0
    1.2990    0.7500    0.0000 C   0  0  0  0  0  0  0  0  0  0  0  0
    2.5981   -0.0000    0.0000 C   0  0  0  0  0  0  0  0  0  0  0  0
    3.8971   -0.7500    0.0000 C   0  0  0  0  0  0  0  0  0  0  0  0
    5.1962   -1.5000    0.0000 C   0  0  0  0  0  0  0  0  0  0  0  0
    6.4952   -2.2500    0.0000 N   0  0  0  0  0  0  0  0  0  0  0  0
  1  2  2  0
  2  3  1  0
  3  4  3  0
  4  5  1  0
  5  6  3  0
M  END
>  <Title>  (1175) 
idABRGgen6

$$$$

     RDKit          2D

 11 10  0  0  0  0  0  0  0  0999 V2000
    0.0000    0.0000    0.0000 C   0  0  0  0  0  0  0  0  0  0  0  0
    1.2990    0.7500    0.0000 N   0  0  0  0  0  0  0  0  0  0  0  0
    2.5981   -0.0000    0.0000 C   0  0  0  0  0  0  0  0  0  0  0  0
    3.8971    0.7500    0.0000 C   0  0  0  0  0  0  0  0  0  0  0  0
    2.5981   -1.5000    0.0000 C   0  0  0  0  0  0  0  0  0  0  0  0
    3.8971   -2.2500    0.0000 C   0  0  0  0  0  0  0  0  0  0  0  0
    3.8971   -3.7500    0.0000 C   0  0  0  0  0  0  0  0  0  0  0  0
    5.1962   -4.5000    0.0000 C   0  0  0  0  0  0  0  0  0  0  0  0
    6.4952   -5.2500    0.0000 C   0  0  0  0  0  0  0  0  0  0  0  0
    7.7942   -6.0000    0.0000 C   0  0  0  0  0  0  0  0  0  0  0  0
    9.0933   -6.7500    0.0000 N   0  0  0  0  0  0  0  0  0  0  0  0
  1  2  1  0
  2  3  1  0
  3  4  1  0
  3  5  2  3
  5  6  1  0
  6  7  2  3
  7  8  1  0
  8  9  3  0
  9 10  1  0
 10 11  3  0
M  END
>  <Title>  (1176) 
idABRHgen6

$$$$

     RDKit          2D

 24 25  0  0  0  0  0  0  0  0999 V2000
    5.5816    0.0000    0.0000 C   0  0  0  0  0  0  0  0  0  0  0  0
    4.0816    0.0000    0.0000 C   0  0  0  0  0  0  0  0  0  0  0  0
    3.8060    1.4745    0.0000 C   0  0  0  0  0  0  0  0  0  0  0  0
    3.0164    2.7498    0.0000 C   0  0  0  0  0  0  0  0  0  0  0  0
    1.8193    3.6537    0.0000 C   0  0  0  0  0  0  0  0  0  0  0  0
    0.3766    4.0642    0.0000 C   0  0  0  0  0  0  0  0  0  0  0  0
    0.5150    5.5578    0.0000 N   0  0  0  0  0  0  0  0  0  0  0  0
   -0.6120    6.5477    0.0000 C   0  0  0  0  0  0  0  0  0  0  0  0
   -0.0188    7.9255    0.0000 C   0  0  0  0  0  0  0  0  0  0  0  0
    1.4748    7.7870    0.0000 C   0  0  0  0  0  0  0  0  0  0  0  0
    1.8047    6.3238    0.0000 C   0  0  0  0  0  0  0  0  0  0  0  0
    3.1824    5.7306    0.0000 O   0  0  0  0  0  0  0  0  0  0  0  0
   -1.1170    3.9258    0.0000 C   0  0  0  0  0  0  0  0  0  0  0  0
   -2.4597    3.2572    0.0000 C   0  0  0  0  0  0  0  0  0  0  0  0
   -3.4703    2.1487    0.0000 C   0  0  0  0  0  0  0  0  0  0  0  0
   -4.0121    0.7500    0.0000 C   0  0  0  0  0  0  0  0  0  0  0  0
   -4.0121   -0.7500    0.0000 C   0  0  0  0  0  0  0  0  0  0  0  0
   -3.4703   -2.1487    0.0000 C   0  0  0  0  0  0  0  0  0  0  0  0
   -2.4597   -3.2572    0.0000 C   0  0  0  0  0  0  0  0  0  0  0  0
   -1.1170   -3.9258    0.0000 C   0  0  0  0  0  0  0  0  0  0  0  0
    0.3766   -4.0642    0.0000 C   0  0  0  0  0  0  0  0  0  0  0  0
    1.8193   -3.6537    0.0000 C   0  0  0  0  0  0  0  0  0  0  0  0
    3.0164   -2.7498    0.0000 C   0  0  0  0  0  0  0  0  0  0  0  0
    3.8060   -1.4745    0.0000 C   0  0  0  0  0  0  0  0  0  0  0  0
  1  2  1  0
  2  3  1  0
  3  4  2  0
  4  5  1  0
  5  6  2  0
  6  7  1  0
  7  8  1  0
  8  9  1  0
  9 10  1  0
 10 11  1  0
 11 12  2  0
  6 13  1  0
 13 14  2  0
 14 15  1  0
 15 16  2  0
 16 17  1  0
 17 18  1  0
 18 19  1  0
 19 20  1  0
 20 21  1  0
 21 22  1  0
 22 23  1  0
 23 24  1  0
 24  2  1  0
 11  7  1  0
M  END
>  <Title>  (1177) 
idABRIgen6

$$$$

     RDKit          2D

  9  9  0  0  0  0  0  0  0  0999 V2000
    3.5260   -1.2990    0.0000 C   0  0  0  0  0  0  0  0  0  0  0  0
    2.7760    0.0000    0.0000 C   0  0  0  0  0  0  0  0  0  0  0  0
    3.5260    1.2990    0.0000 O   0  0  0  0  0  0  0  0  0  0  0  0
    1.2760    0.0000    0.0000 C   0  0  0  0  0  0  0  0  0  0  0  0
    0.3943    1.2135    0.0000 C   0  0  0  0  0  0  0  0  0  0  0  0
   -1.0323    0.7500    0.0000 C   0  0  0  0  0  0  0  0  0  0  0  0
   -1.0323   -0.7500    0.0000 C   0  0  0  0  0  0  0  0  0  0  0  0
   -2.2458   -1.6317    0.0000 O   0  0  0  0  0  0  0  0  0  0  0  0
    0.3943   -1.2135    0.0000 O   0  0  0  0  0  0  0  0  0  0  0  0
  1  2  1  0
  2  3  2  0
  2  4  1  0
  4  5  1  0
  5  6  1  0
  6  7  1  0
  7  8  2  0
  7  9  1  0
  9  4  1  0
M  END
>  <Title>  (1178) 
idABRJgen6

$$$$

     RDKit          2D

 13 14  0  0  0  0  0  0  0  0999 V2000
   -4.3202   -4.5321    0.0000 C   0  0  0  0  0  0  0  0  0  0  0  0
   -3.2595   -3.4715    0.0000 C   0  0  0  0  0  0  0  0  0  0  0  0
   -3.6478   -2.0226    0.0000 O   0  0  0  0  0  0  0  0  0  0  0  0
   -1.8107   -3.8597    0.0000 C   0  0  0  0  0  0  0  0  0  0  0  0
   -0.7500   -2.7990    0.0000 N   0  0  0  0  0  0  0  0  0  0  0  0
    0.7500   -2.7990    0.0000 C   0  0  0  0  0  0  0  0  0  0  0  0
    1.8107   -3.8597    0.0000 O   0  0  0  0  0  0  0  0  0  0  0  0
    0.7500   -1.2990    0.0000 C   0  0  0  0  0  0  0  0  0  0  0  0
    1.5000    0.0000    0.0000 C   0  0  0  0  0  0  0  0  0  0  0  0
    0.7500    1.2990    0.0000 C   0  0  0  0  0  0  0  0  0  0  0  0
   -0.7500    1.2990    0.0000 C   0  0  0  0  0  0  0  0  0  0  0  0
   -1.5000    0.0000    0.0000 C   0  0  0  0  0  0  0  0  0  0  0  0
   -0.7500   -1.2990    0.0000 C   0  0  0  0  0  0  0  0  0  0  0  0
  1  2  1  0
  2  3  2  0
  2  4  1  0
  4  5  1  0
  5  6  1  0
  6  7  2  0
  6  8  1  0
  8  9  2  0
  9 10  1  0
 10 11  2  0
 11 12  1  0
 12 13  2  0
 13  5  1  0
 13  8  1  0
M  END
>  <Title>  (1179) 
idABRKgen6

$$$$

     RDKit          2D

 19 19  0  0  0  0  0  0  0  0999 V2000
    7.2760   -2.5981    0.0000 C   0  0  0  0  0  0  0  0  0  0  0  0
    5.7760   -2.5981    0.0000 C   0  0  0  0  0  0  0  0  0  0  0  0
    5.0260   -1.2990    0.0000 C   0  0  0  0  0  0  0  0  0  0  0  0
    3.5260   -1.2990    0.0000 C   0  0  0  0  0  0  0  0  0  0  0  0
    2.7760    0.0000    0.0000 C   0  0  0  0  0  0  0  0  0  0  0  0
    1.2760    0.0000    0.0000 C   0  0  0  0  0  0  0  0  0  0  0  0
    0.3943    1.2135    0.0000 C   0  0  0  0  0  0  0  0  0  0  0  0
    0.8578    2.6401    0.0000 C   0  0  0  0  0  0  0  0  0  0  0  0
   -0.1459    3.7548    0.0000 O   0  0  0  0  0  0  0  0  0  0  0  0
    2.3250    2.9520    0.0000 O   0  0  0  0  0  0  0  0  0  0  0  0
   -1.0323    0.7500    0.0000 C   0  0  0  0  0  0  0  0  0  0  0  0
   -1.0323   -0.7500    0.0000 C   0  0  0  0  0  0  0  0  0  0  0  0
    0.3943   -1.2135    0.0000 N   0  0  0  0  0  0  0  0  0  0  0  0
    0.8578   -2.6401    0.0000 C   0  0  0  0  0  0  0  0  0  0  0  0
    2.3250   -2.9520    0.0000 O   0  0  0  0  0  0  0  0  0  0  0  0
   -0.1459   -3.7548    0.0000 C   0  0  0  0  0  0  0  0  0  0  0  0
    0.3177   -5.1814    0.0000 C   0  0  0  0  0  0  0  0  0  0  0  0
    0.7812   -6.6080    0.0000 C   0  0  0  0  0  0  0  0  0  0  0  0
    1.2447   -8.0346    0.0000 C   0  0  0  0  0  0  0  0  0  0  0  0
  1  2  2  0
  2  3  1  0
  3  4  2  3
  4  5  1  0
  5  6  2  3
  6  7  1  0
  7  8  1  0
  8  9  2  0
  8 10  1  0
  7 11  1  0
 11 12  1  0
 12 13  1  0
 13 14  1  0
 14 15  2  0
 14 16  1  0
 16 17  1  0
 17 18  3  0
 18 19  1  0
 13  6  1  0
M  END
>  <Title>  (1180) 
idABRLgen6

$$$$

     RDKit          2D

 10 11  0  0  0  0  0  0  0  0999 V2000
   -2.9499    4.2246    0.0000 O   0  0  0  0  0  0  0  0  0  0  0  0
   -1.8351    3.2209    0.0000 C   0  0  0  0  0  0  0  0  0  0  0  0
   -0.4086    3.6844    0.0000 C   0  0  0  0  0  0  0  0  0  0  0  0
    0.7062    2.6807    0.0000 C   0  0  0  0  0  0  0  0  0  0  0  0
    0.3943    1.2135    0.0000 C   0  0  0  0  0  0  0  0  0  0  0  0
    1.2760    0.0000    0.0000 C   0  0  0  0  0  0  0  0  0  0  0  0
    0.3943   -1.2135    0.0000 C   0  0  0  0  0  0  0  0  0  0  0  0
   -1.0323   -0.7500    0.0000 C   0  0  0  0  0  0  0  0  0  0  0  0
   -1.0323    0.7500    0.0000 C   0  0  0  0  0  0  0  0  0  0  0  0
   -2.1470    1.7537    0.0000 C   0  0  0  0  0  0  0  0  0  0  0  0
  1  2  1  0
  2  3  2  0
  3  4  1  0
  4  5  2  0
  5  6  1  0
  6  7  1  0
  7  8  1  0
  8  9  1  0
  9 10  2  0
 10  2  1  0
  9  5  1  0
M  END
>  <Title>  (1181) 
idABRMgen6

$$$$

     RDKit          2D

 13 13  0  0  0  0  0  0  0  0999 V2000
    5.7760   -2.5981    0.0000 C   0  0  0  0  0  0  0  0  0  0  0  0
    5.0260   -1.2990    0.0000 C   0  0  0  0  0  0  0  0  0  0  0  0
    3.5260   -1.2990    0.0000 C   0  0  0  0  0  0  0  0  0  0  0  0
    2.7760    0.0000    0.0000 C   0  0  0  0  0  0  0  0  0  0  0  0
    3.5260    1.2990    0.0000 O   0  0  0  0  0  0  0  0  0  0  0  0
    1.2760    0.0000    0.0000 N   0  0  0  0  0  0  0  0  0  0  0  0
    0.3943    1.2135    0.0000 C   0  0  0  0  0  0  0  0  0  0  0  0
   -1.0323    0.7500    0.0000 C   0  0  0  0  0  0  0  0  0  0  0  0
   -1.0323   -0.7500    0.0000 C   0  0  0  0  0  0  0  0  0  0  0  0
   -2.2458   -1.6317    0.0000 C   0  0  0  0  0  0  0  0  0  0  0  0
   -2.0890   -3.1235    0.0000 O   0  0  0  0  0  0  0  0  0  0  0  0
   -3.6161   -1.0216    0.0000 O   0  0  0  0  0  0  0  0  0  0  0  0
    0.3943   -1.2135    0.0000 C   0  0  0  0  0  0  0  0  0  0  0  0
  1  2  2  0
  2  3  1  0
  3  4  1  0
  4  5  2  0
  4  6  1  0
  6  7  1  0
  7  8  1  0
  8  9  1  0
  9 10  1  0
 10 11  2  0
 10 12  1  0
  9 13  1  0
 13  6  1  0
M  END
>  <Title>  (1182) 
idABRNgen6

$$$$

     RDKit          2D

 11 11  0  0  0  0  0  0  0  0999 V2000
    5.0260   -1.2990    0.0000 C   0  0  0  0  0  0  0  0  0  0  0  0
    3.5260   -1.2990    0.0000 C   0  0  0  0  0  0  0  0  0  0  0  0
    2.7760   -2.5981    0.0000 O   0  0  0  0  0  0  0  0  0  0  0  0
    2.7760    0.0000    0.0000 C   0  0  0  0  0  0  0  0  0  0  0  0
    3.5260    1.2990    0.0000 O   0  0  0  0  0  0  0  0  0  0  0  0
    1.2760    0.0000    0.0000 C   0  0  0  0  0  0  0  0  0  0  0  0
    0.3943    1.2135    0.0000 C   0  0  0  0  0  0  0  0  0  0  0  0
   -1.0323    0.7500    0.0000 C   0  0  0  0  0  0  0  0  0  0  0  0
   -2.2458    1.6317    0.0000 O   0  0  0  0  0  0  0  0  0  0  0  0
   -1.0323   -0.7500    0.0000 C   0  0  0  0  0  0  0  0  0  0  0  0
    0.3943   -1.2135    0.0000 C   0  0  0  0  0  0  0  0  0  0  0  0
  1  2  1  0
  2  3  2  0
  2  4  1  0
  4  5  2  0
  4  6  1  0
  6  7  2  0
  7  8  1  0
  8  9  1  0
  8 10  1  0
 10 11  1  0
 11  6  1  0
M  END
>  <Title>  (1183) 
idABROgen6

$$$$

     RDKit          2D

 26 27  0  0  0  0  0  0  0  0999 V2000
    3.7500   -9.0933    0.0000 C   0  0  0  0  0  0  0  0  0  0  0  0
    3.0000   -7.7942    0.0000 C   0  0  0  0  0  0  0  0  0  0  0  0
    1.5000   -7.7942    0.0000 C   0  0  0  0  0  0  0  0  0  0  0  0
    0.7500   -9.0933    0.0000 C   0  0  0  0  0  0  0  0  0  0  0  0
    0.7500   -6.4952    0.0000 N   0  0  0  0  0  0  0  0  0  0  0  0
    1.5000   -5.1962    0.0000 C   0  0  0  0  0  0  0  0  0  0  0  0
    3.0000   -5.1962    0.0000 O   0  0  0  0  0  0  0  0  0  0  0  0
    0.7500   -3.8971    0.0000 C   0  0  0  0  0  0  0  0  0  0  0  0
    1.5000   -2.5981    0.0000 C   0  0  0  0  0  0  0  0  0  0  0  0
    0.7500   -1.2990    0.0000 C   0  0  0  0  0  0  0  0  0  0  0  0
    1.5000    0.0000    0.0000 C   0  0  0  0  0  0  0  0  0  0  0  0
    0.7500    1.2990    0.0000 C   0  0  0  0  0  0  0  0  0  0  0  0
   -0.7500    1.2990    0.0000 C   0  0  0  0  0  0  0  0  0  0  0  0
   -1.5000    0.0000    0.0000 C   0  0  0  0  0  0  0  0  0  0  0  0
   -0.7500   -1.2990    0.0000 C   0  0  0  0  0  0  0  0  0  0  0  0
   -0.7500   -3.8971    0.0000 N   0  0  0  0  0  0  0  0  0  0  0  0
   -1.5000   -5.1962    0.0000 C   0  0  0  0  0  0  0  0  0  0  0  0
   -0.7500   -6.4952    0.0000 O   0  0  0  0  0  0  0  0  0  0  0  0
   -3.0000   -5.1962    0.0000 C   0  0  0  0  0  0  0  0  0  0  0  0
   -3.8817   -6.4097    0.0000 C   0  0  0  0  0  0  0  0  0  0  0  0
   -5.3083   -5.9462    0.0000 C   0  0  0  0  0  0  0  0  0  0  0  0
   -5.3083   -4.4462    0.0000 C   0  0  0  0  0  0  0  0  0  0  0  0
   -6.5218   -3.5645    0.0000 C   0  0  0  0  0  0  0  0  0  0  0  0
   -7.8921   -4.1746    0.0000 O   0  0  0  0  0  0  0  0  0  0  0  0
   -6.3650   -2.0727    0.0000 O   0  0  0  0  0  0  0  0  0  0  0  0
   -3.8817   -3.9826    0.0000 C   0  0  0  0  0  0  0  0  0  0  0  0
  1  2  1  0
  2  3  2  3
  3  4  1  0
  3  5  1  0
  5  6  1  0
  6  7  2  0
  6  8  1  0
  8  9  1  0
  9 10  1  0
 10 11  2  0
 11 12  1  0
 12 13  2  0
 13 14  1  0
 14 15  2  0
  8 16  1  0
 16 17  1  0
 17 18  2  0
 17 19  1  0
 19 20  1  0
 20 21  1  0
 21 22  1  0
 22 23  1  0
 23 24  2  0
 23 25  1  0
 22 26  1  0
 15 10  1  0
 26 19  1  0
M  END
>  <Title>  (1184) 
idABRPgen6

$$$$

     RDKit          2D

  7  7  0  0  0  0  0  0  0  0999 V2000
    3.0000    0.0000    0.0000 F   0  0  0  0  0  0  0  0  0  0  0  0
    1.5000    0.0000    0.0000 C   0  0  0  0  0  0  0  0  0  0  0  0
    0.7500   -1.2990    0.0000 C   0  0  0  0  0  0  0  0  0  0  0  0
   -0.7500   -1.2990    0.0000 C   0  0  0  0  0  0  0  0  0  0  0  0
   -1.5000    0.0000    0.0000 C   0  0  0  0  0  0  0  0  0  0  0  0
   -0.7500    1.2990    0.0000 C   0  0  0  0  0  0  0  0  0  0  0  0
    0.7500    1.2990    0.0000 C   0  0  0  0  0  0  0  0  0  0  0  0
  1  2  1  0
  2  3  2  0
  3  4  1  0
  4  5  2  0
  5  6  1  0
  6  7  2  0
  7  2  1  0
M  END
>  <Title>  (1185) 
idABRQgen6

$$$$

     RDKit          2D

 37 40  0  0  0  0  0  0  0  0999 V2000
    5.0109   -0.2716    0.0000 C   0  0  0  0  0  0  0  0  0  0  0  0
    3.6406   -0.8817    0.0000 O   0  0  0  0  0  0  0  0  0  0  0  0
    2.4271    0.0000    0.0000 C   0  0  0  0  0  0  0  0  0  0  0  0
    3.6406    0.8817    0.0000 C   0  0  0  0  0  0  0  0  0  0  0  0
    1.9635   -1.4266    0.0000 C   0  0  0  0  0  0  0  0  0  0  0  0
    0.7500   -2.3083    0.0000 C   0  0  0  0  0  0  0  0  0  0  0  0
   -0.7500   -2.3083    0.0000 C   0  0  0  0  0  0  0  0  0  0  0  0
   -1.9635   -1.4266    0.0000 C   0  0  0  0  0  0  0  0  0  0  0  0
   -2.4271    0.0000    0.0000 C   0  0  0  0  0  0  0  0  0  0  0  0
   -1.9635    1.4266    0.0000 C   0  0  0  0  0  0  0  0  0  0  0  0
   -0.7500    2.3083    0.0000 C   0  0  0  0  0  0  0  0  0  0  0  0
   -1.2135    3.7348    0.0000 C   0  0  0  0  0  0  0  0  0  0  0  0
   -2.6807    4.0467    0.0000 O   0  0  0  0  0  0  0  0  0  0  0  0
   -0.2098    4.8496    0.0000 N   0  0  0  0  0  0  0  0  0  0  0  0
   -0.6734    6.2761    0.0000 C   0  0  0  0  0  0  0  0  0  0  0  0
   -2.1598    6.4775    0.0000 N   0  0  0  0  0  0  0  0  0  0  0  0
   -2.9291    7.7652    0.0000 N   0  0  0  0  0  0  0  0  0  0  0  0
   -2.4021    9.1695    0.0000 N   0  0  0  0  0  0  0  0  0  0  0  0
   -0.9755    9.6331    0.0000 N   0  0  0  0  0  0  0  0  0  0  0  0
   -0.7741   11.1195    0.0000 N   0  0  0  0  0  0  0  0  0  0  0  0
   -1.8583   12.1561    0.0000 C   0  0  0  0  0  0  0  0  0  0  0  0
   -1.2075   13.5075    0.0000 C   0  0  0  0  0  0  0  0  0  0  0  0
    0.2789   13.3062    0.0000 C   0  0  0  0  0  0  0  0  0  0  0  0
    1.3155   14.3904    0.0000 C   0  0  0  0  0  0  0  0  0  0  0  0
    0.8949   15.8302    0.0000 O   0  0  0  0  0  0  0  0  0  0  0  0
    2.7728   14.0347    0.0000 N   0  0  0  0  0  0  0  0  0  0  0  0
    3.8093   15.1189    0.0000 C   0  0  0  0  0  0  0  0  0  0  0  0
    5.2666   14.7633    0.0000 C   0  0  0  0  0  0  0  0  0  0  0  0
    6.3032   15.8475    0.0000 C   0  0  0  0  0  0  0  0  0  0  0  0
    5.8825   17.2873    0.0000 C   0  0  0  0  0  0  0  0  0  0  0  0
    4.4253   17.6429    0.0000 C   0  0  0  0  0  0  0  0  0  0  0  0
    3.3887   16.5587    0.0000 C   0  0  0  0  0  0  0  0  0  0  0  0
    0.5468   11.8303    0.0000 C   0  0  0  0  0  0  0  0  0  0  0  0
    0.2764    8.8067    0.0000 C   0  0  0  0  0  0  0  0  0  0  0  0
    0.4108    7.3127    0.0000 C   0  0  0  0  0  0  0  0  0  0  0  0
    0.7500    2.3083    0.0000 C   0  0  0  0  0  0  0  0  0  0  0  0
    1.9635    1.4266    0.0000 C   0  0  0  0  0  0  0  0  0  0  0  0
  1  2  1  0
  2  3  1  0
  3  4  1  0
  3  5  1  0
  5  6  1  0
  6  7  2  0
  7  8  1  0
  8  9  2  0
  9 10  1  0
 10 11  2  0
 11 12  1  0
 12 13  2  0
 12 14  1  0
 14 15  1  0
 15 16  2  0
 16 17  1  0
 17 18  2  0
 18 19  1  0
 19 20  1  0
 20 21  1  0
 21 22  1  0
 22 23  1  0
 23 24  1  0
 24 25  2  0
 24 26  1  0
 26 27  1  0
 27 28  2  0
 28 29  1  0
 29 30  2  0
 30 31  1  0
 31 32  2  0
 23 33  1  0
 19 34  1  0
 34 35  1  0
 11 36  1  0
 36 37  1  0
 37  3  1  0
 35 15  1  0
 33 20  1  0
 32 27  1  0
M  END
>  <Title>  (1186) 
idABRRgen6

$$$$

     RDKit          2D

  8  7  0  0  0  0  0  0  0  0999 V2000
    0.0000    0.0000    0.0000 C   0  0  0  0  0  0  0  0  0  0  0  0
    1.2990    0.7500    0.0000 N   0  0  0  0  0  0  0  0  0  0  0  0
    2.5981   -0.0000    0.0000 C   0  0  0  0  0  0  0  0  0  0  0  0
    3.8971    0.7500    0.0000 C   0  0  0  0  0  0  0  0  0  0  0  0
    2.5981   -1.5000    0.0000 C   0  0  0  0  0  0  0  0  0  0  0  0
    2.5981   -3.0000    0.0000 C   0  0  0  0  0  0  0  0  0  0  0  0
    2.5981   -4.5000    0.0000 C   0  0  0  0  0  0  0  0  0  0  0  0
    2.5981   -6.0000    0.0000 N   0  0  0  0  0  0  0  0  0  0  0  0
  1  2  1  0
  2  3  1  0
  3  4  1  0
  3  5  1  0
  5  6  3  0
  6  7  1  0
  7  8  3  0
M  END
>  <Title>  (1187) 
idABRSgen6

$$$$

     RDKit          2D

 23 25  0  0  0  0  0  0  0  0999 V2000
   -5.6997    5.2008    0.0000 C   0  0  0  0  0  0  0  0  0  0  0  0
   -4.2624    4.7718    0.0000 C   0  0  0  0  0  0  0  0  0  0  0  0
   -3.5019    6.0648    0.0000 C   0  0  0  0  0  0  0  0  0  0  0  0
   -2.2277    6.8563    0.0000 C   0  0  0  0  0  0  0  0  0  0  0  0
   -0.7317    6.9649    0.0000 C   0  0  0  0  0  0  0  0  0  0  0  0
    0.6435    6.3659    0.0000 N   0  0  0  0  0  0  0  0  0  0  0  0
    1.5828    5.1963    0.0000 C   0  0  0  0  0  0  0  0  0  0  0  0
    2.9431    5.8284    0.0000 O   0  0  0  0  0  0  0  0  0  0  0  0
    1.8710    3.7243    0.0000 C   0  0  0  0  0  0  0  0  0  0  0  0
    3.3302    4.0715    0.0000 C   0  0  0  0  0  0  0  0  0  0  0  0
    4.3606    2.9814    0.0000 C   0  0  0  0  0  0  0  0  0  0  0  0
    3.9317    1.5440    0.0000 C   0  0  0  0  0  0  0  0  0  0  0  0
    4.9620    0.4539    0.0000 O   0  0  0  0  0  0  0  0  0  0  0  0
    2.4724    1.1968    0.0000 C   0  0  0  0  0  0  0  0  0  0  0  0
    1.4421    2.2869    0.0000 C   0  0  0  0  0  0  0  0  0  0  0  0
    0.3943    1.2135    0.0000 C   0  0  0  0  0  0  0  0  0  0  0  0
    1.2760    0.0000    0.0000 C   0  0  0  0  0  0  0  0  0  0  0  0
    0.3943   -1.2135    0.0000 C   0  0  0  0  0  0  0  0  0  0  0  0
   -1.0323   -0.7500    0.0000 C   0  0  0  0  0  0  0  0  0  0  0  0
   -1.0323    0.7500    0.0000 C   0  0  0  0  0  0  0  0  0  0  0  0
   -2.5109    1.0025    0.0000 C   0  0  0  0  0  0  0  0  0  0  0  0
   -3.7027    1.9133    0.0000 C   0  0  0  0  0  0  0  0  0  0  0  0
   -4.3348    3.2736    0.0000 C   0  0  0  0  0  0  0  0  0  0  0  0
  1  2  1  0
  2  3  1  0
  3  4  1  0
  4  5  1  0
  5  6  1  0
  6  7  1  0
  7  8  2  0
  7  9  1  0
  9 10  2  0
 10 11  1  0
 11 12  2  0
 12 13  1  0
 12 14  1  0
 14 15  2  0
 15 16  1  0
 16 17  1  0
 17 18  2  0
 18 19  1  0
 19 20  2  0
 20 21  1  0
 21 22  1  0
 22 23  1  0
 23  2  1  0
 15  9  1  0
 20 16  1  0
M  END
>  <Title>  (1188) 
idABRTgen6

$$$$

     RDKit          2D

 33 35  0  0  0  0  0  0  0  0999 V2000
    8.2500   -3.8971    0.0000 C   0  0  0  0  0  0  0  0  0  0  0  0
    7.5000   -2.5981    0.0000 C   0  0  0  0  0  0  0  0  0  0  0  0
    8.2500   -1.2990    0.0000 O   0  0  0  0  0  0  0  0  0  0  0  0
    6.0000   -2.5981    0.0000 C   0  0  0  0  0  0  0  0  0  0  0  0
    5.2500   -1.2990    0.0000 C   0  0  0  0  0  0  0  0  0  0  0  0
    6.0000    0.0000    0.0000 O   0  0  0  0  0  0  0  0  0  0  0  0
    3.7500   -1.2990    0.0000 C   0  0  0  0  0  0  0  0  0  0  0  0
    3.0000    0.0000    0.0000 C   0  0  0  0  0  0  0  0  0  0  0  0
    1.5000    0.0000    0.0000 C   0  0  0  0  0  0  0  0  0  0  0  0
    0.7500   -1.2990    0.0000 C   0  0  0  0  0  0  0  0  0  0  0  0
   -0.7500   -1.2990    0.0000 C   0  0  0  0  0  0  0  0  0  0  0  0
   -1.5000    0.0000    0.0000 C   0  0  0  0  0  0  0  0  0  0  0  0
   -3.0000    0.0000    0.0000 O   0  0  0  0  0  0  0  0  0  0  0  0
   -3.7500    1.2990    0.0000 C   0  0  0  0  0  0  0  0  0  0  0  0
   -5.2418    1.4558    0.0000 C   0  0  0  0  0  0  0  0  0  0  0  0
   -5.5537    2.9231    0.0000 C   0  0  0  0  0  0  0  0  0  0  0  0
   -4.2546    3.6731    0.0000 C   0  0  0  0  0  0  0  0  0  0  0  0
   -4.0978    5.1648    0.0000 O   0  0  0  0  0  0  0  0  0  0  0  0
   -2.7275    5.7749    0.0000 C   0  0  0  0  0  0  0  0  0  0  0  0
   -1.5140    4.8933    0.0000 O   0  0  0  0  0  0  0  0  0  0  0  0
   -2.5707    7.2667    0.0000 N   0  0  0  0  0  0  0  0  0  0  0  0
   -1.2004    7.8768    0.0000 C   0  0  0  0  0  0  0  0  0  0  0  0
    0.0131    6.9951    0.0000 N   0  0  0  0  0  0  0  0  0  0  0  0
    1.3835    7.6053    0.0000 N   0  0  0  0  0  0  0  0  0  0  0  0
    1.5402    9.0970    0.0000 N   0  0  0  0  0  0  0  0  0  0  0  0
    0.3267    9.9787    0.0000 N   0  0  0  0  0  0  0  0  0  0  0  0
   -1.0436    9.3686    0.0000 N   0  0  0  0  0  0  0  0  0  0  0  0
   -3.1399    2.6694    0.0000 C   0  0  0  0  0  0  0  0  0  0  0  0
   -0.7500    1.2990    0.0000 C   0  0  0  0  0  0  0  0  0  0  0  0
    0.7500    1.2990    0.0000 C   0  0  0  0  0  0  0  0  0  0  0  0
    3.0000   -2.5981    0.0000 C   0  0  0  0  0  0  0  0  0  0  0  0
    1.5000   -2.5981    0.0000 O   0  0  0  0  0  0  0  0  0  0  0  0
    3.7500   -3.8971    0.0000 O   0  0  0  0  0  0  0  0  0  0  0  0
  1  2  1  0
  2  3  2  0
  2  4  1  0
  4  5  1  0
  5  6  2  0
  5  7  1  0
  7  8  1  0
  8  9  1  0
  9 10  2  0
 10 11  1  0
 11 12  2  0
 12 13  1  0
 13 14  1  0
 14 15  2  0
 15 16  1  0
 16 17  2  0
 17 18  1  0
 18 19  1  0
 19 20  2  0
 19 21  1  0
 21 22  1  0
 22 23  2  0
 23 24  1  0
 24 25  2  0
 25 26  1  0
 26 27  2  0
 17 28  1  0
 12 29  1  0
 29 30  1  0
  7 31  1  0
 31 32  2  0
 31 33  1  0
 30  9  1  0
 28 14  1  0
 27 22  1  0
M  END
>  <Title>  (1189) 
idABRUgen6

$$$$

     RDKit          2D

 26 28  0  0  0  0  0  0  0  0999 V2000
   -3.7270   -4.3881    0.0000 C   0  0  0  0  0  0  0  0  0  0  0  0
   -4.3778   -3.0367    0.0000 C   0  0  0  0  0  0  0  0  0  0  0  0
   -5.8402   -3.3705    0.0000 C   0  0  0  0  0  0  0  0  0  0  0  0
   -7.3026   -3.0367    0.0000 C   0  0  0  0  0  0  0  0  0  0  0  0
   -8.4754   -2.1015    0.0000 C   0  0  0  0  0  0  0  0  0  0  0  0
   -9.1262   -0.7500    0.0000 C   0  0  0  0  0  0  0  0  0  0  0  0
   -9.1262    0.7500    0.0000 C   0  0  0  0  0  0  0  0  0  0  0  0
   -8.4754    2.1015    0.0000 C   0  0  0  0  0  0  0  0  0  0  0  0
   -7.3026    3.0367    0.0000 C   0  0  0  0  0  0  0  0  0  0  0  0
   -5.8402    3.3705    0.0000 C   0  0  0  0  0  0  0  0  0  0  0  0
   -4.3778    3.0367    0.0000 C   0  0  0  0  0  0  0  0  0  0  0  0
   -3.2051    2.1015    0.0000 C   0  0  0  0  0  0  0  0  0  0  0  0
   -2.5543    0.7500    0.0000 C   0  0  0  0  0  0  0  0  0  0  0  0
   -1.7433    2.0119    0.0000 C   0  0  0  0  0  0  0  0  0  0  0  0
   -2.7256    3.1455    0.0000 O   0  0  0  0  0  0  0  0  0  0  0  0
   -0.3789    2.6350    0.0000 N   0  0  0  0  0  0  0  0  0  0  0  0
    1.1059    2.4215    0.0000 C   0  0  0  0  0  0  0  0  0  0  0  0
    2.2395    1.4392    0.0000 C   0  0  0  0  0  0  0  0  0  0  0  0
    2.6621    0.0000    0.0000 N   0  0  0  0  0  0  0  0  0  0  0  0
    2.2395   -1.4392    0.0000 N   0  0  0  0  0  0  0  0  0  0  0  0
    1.1059   -2.4215    0.0000 N   0  0  0  0  0  0  0  0  0  0  0  0
   -0.3789   -2.6350    0.0000 N   0  0  0  0  0  0  0  0  0  0  0  0
   -1.7433   -2.0119    0.0000 N   0  0  0  0  0  0  0  0  0  0  0  0
   -2.5543   -0.7500    0.0000 C   0  0  0  0  0  0  0  0  0  0  0  0
   -3.2051   -2.1015    0.0000 C   0  0  0  0  0  0  0  0  0  0  0  0
   -2.0323   -3.0367    0.0000 O   0  0  0  0  0  0  0  0  0  0  0  0
  1  2  1  0
  2  3  1  0
  3  4  1  0
  4  5  1  0
  5  6  1  0
  6  7  1  0
  7  8  1  0
  8  9  1  0
  9 10  1  0
 10 11  1  0
 11 12  1  0
 12 13  1  0
 13 14  1  0
 14 15  2  0
 14 16  1  0
 16 17  1  0
 17 18  1  0
 18 19  2  0
 19 20  1  0
 20 21  2  0
 21 22  1  0
 22 23  2  0
 23 24  1  0
 24 25  1  0
 25 26  2  0
 25  2  1  0
 18 10  1  0
 24 13  1  0
M  END
>  <Title>  (1190) 
idABRVgen6

$$$$

     RDKit          2D

 26 28  0  0  0  0  0  0  0  0999 V2000
   -3.1771   -1.2990    0.0000 C   0  0  0  0  0  0  0  0  0  0  0  0
   -1.9635   -2.1807    0.0000 C   0  0  0  0  0  0  0  0  0  0  0  0
   -2.4271   -3.6073    0.0000 C   0  0  0  0  0  0  0  0  0  0  0  0
   -1.9635   -5.0339    0.0000 C   0  0  0  0  0  0  0  0  0  0  0  0
   -0.7500   -5.9156    0.0000 C   0  0  0  0  0  0  0  0  0  0  0  0
    0.7500   -5.9156    0.0000 C   0  0  0  0  0  0  0  0  0  0  0  0
    1.2135   -7.3421    0.0000 N   0  0  0  0  0  0  0  0  0  0  0  0
    2.5617   -7.9998    0.0000 C   0  0  0  0  0  0  0  0  0  0  0  0
    0.2098   -8.4569    0.0000 C   0  0  0  0  0  0  0  0  0  0  0  0
    1.9635   -5.0339    0.0000 N   0  0  0  0  0  0  0  0  0  0  0  0
    3.1771   -5.9156    0.0000 C   0  0  0  0  0  0  0  0  0  0  0  0
    4.5474   -5.3055    0.0000 C   0  0  0  0  0  0  0  0  0  0  0  0
    5.7609   -6.1871    0.0000 C   0  0  0  0  0  0  0  0  0  0  0  0
    5.6041   -7.6789    0.0000 C   0  0  0  0  0  0  0  0  0  0  0  0
    6.8176   -8.5606    0.0000 O   0  0  0  0  0  0  0  0  0  0  0  0
    4.2338   -8.2890    0.0000 C   0  0  0  0  0  0  0  0  0  0  0  0
    3.0203   -7.4073    0.0000 C   0  0  0  0  0  0  0  0  0  0  0  0
    2.4271   -3.6073    0.0000 C   0  0  0  0  0  0  0  0  0  0  0  0
    3.9271   -3.6073    0.0000 O   0  0  0  0  0  0  0  0  0  0  0  0
    1.9635   -2.1807    0.0000 O   0  0  0  0  0  0  0  0  0  0  0  0
    0.7500   -1.2990    0.0000 C   0  0  0  0  0  0  0  0  0  0  0  0
    1.5000    0.0000    0.0000 C   0  0  0  0  0  0  0  0  0  0  0  0
    0.7500    1.2990    0.0000 C   0  0  0  0  0  0  0  0  0  0  0  0
   -0.7500    1.2990    0.0000 C   0  0  0  0  0  0  0  0  0  0  0  0
   -1.5000    0.0000    0.0000 C   0  0  0  0  0  0  0  0  0  0  0  0
   -0.7500   -1.2990    0.0000 C   0  0  0  0  0  0  0  0  0  0  0  0
  1  2  1  0
  2  3  1  0
  3  4  2  0
  4  5  1  0
  5  6  1  0
  6  7  1  0
  7  8  1  0
  7  9  1  0
  6 10  1  0
 10 11  1  0
 11 12  2  0
 12 13  1  0
 13 14  2  0
 14 15  1  0
 14 16  1  0
 16 17  2  0
 10 18  1  0
 18 19  2  0
 18 20  1  0
 20 21  1  0
 21 22  2  0
 22 23  1  0
 23 24  2  0
 24 25  1  0
 25 26  2  0
 26  2  1  0
 17 11  1  0
 26 21  1  0
M  END
>  <Title>  (1191) 
idABRWgen6

$$$$

     RDKit          2D

 16 16  0  0  0  0  0  0  0  0999 V2000
    7.5000   -2.5981    0.0000 C   0  0  0  0  0  0  0  0  0  0  0  0
    6.0000   -2.5981    0.0000 C   0  0  0  0  0  0  0  0  0  0  0  0
    5.2500   -3.8971    0.0000 O   0  0  0  0  0  0  0  0  0  0  0  0
    5.2500   -1.2990    0.0000 C   0  0  0  0  0  0  0  0  0  0  0  0
    6.0000    0.0000    0.0000 O   0  0  0  0  0  0  0  0  0  0  0  0
    3.7500   -1.2990    0.0000 C   0  0  0  0  0  0  0  0  0  0  0  0
    3.0000    0.0000    0.0000 C   0  0  0  0  0  0  0  0  0  0  0  0
    1.5000    0.0000    0.0000 C   0  0  0  0  0  0  0  0  0  0  0  0
    0.7500   -1.2990    0.0000 C   0  0  0  0  0  0  0  0  0  0  0  0
   -0.7500   -1.2990    0.0000 C   0  0  0  0  0  0  0  0  0  0  0  0
   -1.5000    0.0000    0.0000 C   0  0  0  0  0  0  0  0  0  0  0  0
   -0.7500    1.2990    0.0000 C   0  0  0  0  0  0  0  0  0  0  0  0
    0.7500    1.2990    0.0000 C   0  0  0  0  0  0  0  0  0  0  0  0
    3.0000   -2.5981    0.0000 C   0  0  0  0  0  0  0  0  0  0  0  0
    1.5000   -2.5981    0.0000 O   0  0  0  0  0  0  0  0  0  0  0  0
    3.7500   -3.8971    0.0000 O   0  0  0  0  0  0  0  0  0  0  0  0
  1  2  1  0
  2  3  2  0
  2  4  1  0
  4  5  2  0
  4  6  1  0
  6  7  1  0
  7  8  1  0
  8  9  2  0
  9 10  1  0
 10 11  2  0
 11 12  1  0
 12 13  2  0
  6 14  1  0
 14 15  2  0
 14 16  1  0
 13  8  1  0
M  END
>  <Title>  (1192) 
idABRXgen6

$$$$

     RDKit          2D

 51 55  0  0  0  0  0  0  0  0999 V2000
   -7.6837    7.1218    0.0000 C   0  0  0  0  0  0  0  0  0  0  0  0
   -7.0127    8.4633    0.0000 C   0  0  0  0  0  0  0  0  0  0  0  0
   -7.8391    9.7152    0.0000 O   0  0  0  0  0  0  0  0  0  0  0  0
   -5.5154    8.5530    0.0000 O   0  0  0  0  0  0  0  0  0  0  0  0
   -4.8444    9.8946    0.0000 C   0  0  0  0  0  0  0  0  0  0  0  0
   -5.5354   11.2260    0.0000 C   0  0  0  0  0  0  0  0  0  0  0  0
   -4.4827   12.2945    0.0000 C   0  0  0  0  0  0  0  0  0  0  0  0
   -3.1411   11.6236    0.0000 C   0  0  0  0  0  0  0  0  0  0  0  0
   -1.8098   12.3145    0.0000 O   0  0  0  0  0  0  0  0  0  0  0  0
   -3.3647   10.1403    0.0000 C   0  0  0  0  0  0  0  0  0  0  0  0
   -2.2961    9.0876    0.0000 N   0  0  0  0  0  0  0  0  0  0  0  0
   -2.6735    7.6359    0.0000 C   0  0  0  0  0  0  0  0  0  0  0  0
   -0.8502    9.4867    0.0000 C   0  0  0  0  0  0  0  0  0  0  0  0
   -0.4728   10.9384    0.0000 O   0  0  0  0  0  0  0  0  0  0  0  0
    0.2184    8.4340    0.0000 C   0  0  0  0  0  0  0  0  0  0  0  0
   -0.1590    6.9822    0.0000 C   0  0  0  0  0  0  0  0  0  0  0  0
    0.9095    5.9295    0.0000 O   0  0  0  0  0  0  0  0  0  0  0  0
   -1.6050    6.5832    0.0000 O   0  0  0  0  0  0  0  0  0  0  0  0
    1.6643    8.8330    0.0000 C   0  0  0  0  0  0  0  0  0  0  0  0
    2.0417   10.2848    0.0000 O   0  0  0  0  0  0  0  0  0  0  0  0
    2.7329    7.7803    0.0000 N   0  0  0  0  0  0  0  0  0  0  0  0
    4.1788    8.1794    0.0000 C   0  0  0  0  0  0  0  0  0  0  0  0
    4.7059    9.5838    0.0000 N   0  0  0  0  0  0  0  0  0  0  0  0
    6.2044    9.5165    0.0000 N   0  0  0  0  0  0  0  0  0  0  0  0
    6.6034    8.0705    0.0000 N   0  0  0  0  0  0  0  0  0  0  0  0
    5.3516    7.2442    0.0000 N   0  0  0  0  0  0  0  0  0  0  0  0
    5.2843    5.7457    0.0000 C   0  0  0  0  0  0  0  0  0  0  0  0
    6.4570    4.8104    0.0000 C   0  0  0  0  0  0  0  0  0  0  0  0
    5.9300    3.4061    0.0000 C   0  0  0  0  0  0  0  0  0  0  0  0
    4.4315    3.4734    0.0000 C   0  0  0  0  0  0  0  0  0  0  0  0
    3.4962    2.3006    0.0000 C   0  0  0  0  0  0  0  0  0  0  0  0
    2.0130    2.5242    0.0000 O   0  0  0  0  0  0  0  0  0  0  0  0
    1.0777    1.3515    0.0000 C   0  0  0  0  0  0  0  0  0  0  0  0
    1.7286    0.0000    0.0000 C   0  0  0  0  0  0  0  0  0  0  0  0
    1.0777   -1.3515    0.0000 C   0  0  0  0  0  0  0  0  0  0  0  0
   -0.3846   -1.6852    0.0000 C   0  0  0  0  0  0  0  0  0  0  0  0
   -0.7184   -3.1476    0.0000 C   0  0  0  0  0  0  0  0  0  0  0  0
   -2.1518   -3.5898    0.0000 O   0  0  0  0  0  0  0  0  0  0  0  0
    0.3812   -4.1679    0.0000 N   0  0  0  0  0  0  0  0  0  0  0  0
    0.0474   -5.6303    0.0000 C   0  0  0  0  0  0  0  0  0  0  0  0
   -1.3860   -6.0724    0.0000 C   0  0  0  0  0  0  0  0  0  0  0  0
   -1.7198   -7.5348    0.0000 C   0  0  0  0  0  0  0  0  0  0  0  0
   -0.6202   -8.5551    0.0000 C   0  0  0  0  0  0  0  0  0  0  0  0
    0.8132   -8.1129    0.0000 C   0  0  0  0  0  0  0  0  0  0  0  0
    1.1469   -6.6505    0.0000 C   0  0  0  0  0  0  0  0  0  0  0  0
   -1.5574   -0.7500    0.0000 C   0  0  0  0  0  0  0  0  0  0  0  0
   -2.2082   -2.1015    0.0000 C   0  0  0  0  0  0  0  0  0  0  0  0
   -3.0198   -0.4162    0.0000 C   0  0  0  0  0  0  0  0  0  0  0  0
   -1.5574    0.7500    0.0000 C   0  0  0  0  0  0  0  0  0  0  0  0
   -0.3846    1.6852    0.0000 C   0  0  0  0  0  0  0  0  0  0  0  0
    4.0324    4.9193    0.0000 C   0  0  0  0  0  0  0  0  0  0  0  0
  1  2  1  0
  2  3  2  0
  2  4  1  0
  4  5  1  0
  5  6  2  0
  6  7  1  0
  7  8  2  0
  8  9  1  0
  8 10  1  0
 10 11  1  0
 11 12  1  0
 11 13  1  0
 13 14  2  0
 13 15  1  0
 15 16  1  0
 16 17  2  0
 16 18  1  0
 15 19  1  0
 19 20  2  0
 19 21  1  0
 21 22  1  0
 22 23  2  0
 23 24  1  0
 24 25  2  0
 25 26  1  0
 26 27  1  0
 27 28  1  0
 28 29  1  0
 29 30  1  0
 30 31  1  0
 31 32  1  0
 32 33  1  0
 33 34  2  0
 34 35  1  0
 35 36  2  0
 36 37  1  0
 37 38  2  0
 37 39  1  0
 39 40  1  0
 40 41  2  0
 41 42  1  0
 42 43  2  0
 43 44  1  0
 44 45  2  0
 36 46  1  0
 46 47  1  0
 46 48  1  0
 46 49  1  0
 49 50  1  0
 30 51  1  0
 10  5  1  0
 26 22  1  0
 51 27  1  0
 50 33  1  0
 45 40  1  0
M  END
>  <Title>  (1193) 
idABRYgen6

$$$$

     RDKit          2D

 18 20  0  0  0  0  0  0  0  0999 V2000
    3.8337   -3.7391    0.0000 C   0  0  0  0  0  0  0  0  0  0  0  0
    2.3361   -3.8232    0.0000 C   0  0  0  0  0  0  0  0  0  0  0  0
    1.8406   -5.2391    0.0000 C   0  0  0  0  0  0  0  0  0  0  0  0
    0.4892   -5.8899    0.0000 C   0  0  0  0  0  0  0  0  0  0  0  0
   -0.9266   -5.3945    0.0000 C   0  0  0  0  0  0  0  0  0  0  0  0
   -1.3515   -3.9342    0.0000 C   0  0  0  0  0  0  0  0  0  0  0  0
   -0.0000   -4.5850    0.0000 C   0  0  0  0  0  0  0  0  0  0  0  0
    1.3515   -3.9342    0.0000 C   0  0  0  0  0  0  0  0  0  0  0  0
    1.8359   -4.5672    0.0000 O   0  0  0  0  0  0  0  0  0  0  0  0
    1.6852   -2.4718    0.0000 N   0  0  0  0  0  0  0  0  0  0  0  0
    0.7500   -1.2990    0.0000 C   0  0  0  0  0  0  0  0  0  0  0  0
    1.5000    0.0000    0.0000 C   0  0  0  0  0  0  0  0  0  0  0  0
    0.7500    1.2990    0.0000 C   0  0  0  0  0  0  0  0  0  0  0  0
   -0.7500    1.2990    0.0000 C   0  0  0  0  0  0  0  0  0  0  0  0
   -1.5000    0.0000    0.0000 C   0  0  0  0  0  0  0  0  0  0  0  0
   -0.7500   -1.2990    0.0000 C   0  0  0  0  0  0  0  0  0  0  0  0
   -1.6852   -2.4718    0.0000 C   0  0  0  0  0  0  0  0  0  0  0  0
   -3.1476   -2.1380    0.0000 O   0  0  0  0  0  0  0  0  0  0  0  0
  1  2  1  0
  2  3  2  0
  3  4  1  0
  4  5  1  0
  5  6  1  0
  6  7  1  0
  7  8  1  0
  8  9  2  0
  8 10  1  0
 10 11  1  0
 11 12  2  0
 12 13  1  0
 13 14  2  0
 14 15  1  0
 15 16  2  0
 16 17  1  0
 17 18  2  0
 10  2  1  0
 16 11  1  0
 17  6  1  0
M  END
>  <Title>  (1194) 
idABRZgen6

$$$$

     RDKit          2D

 23 24  0  0  0  0  0  0  0  0999 V2000
    0.7500   -6.4952    0.0000 C   0  0  0  0  0  0  0  0  0  0  0  0
    1.5000   -5.1962    0.0000 C   0  0  0  0  0  0  0  0  0  0  0  0
    3.0000   -5.1962    0.0000 O   0  0  0  0  0  0  0  0  0  0  0  0
    0.7500   -3.8971    0.0000 C   0  0  0  0  0  0  0  0  0  0  0  0
    1.5000   -2.5981    0.0000 C   0  0  0  0  0  0  0  0  0  0  0  0
    0.7500   -1.2990    0.0000 C   0  0  0  0  0  0  0  0  0  0  0  0
    1.5000    0.0000    0.0000 C   0  0  0  0  0  0  0  0  0  0  0  0
    0.7500    1.2990    0.0000 C   0  0  0  0  0  0  0  0  0  0  0  0
   -0.7500    1.2990    0.0000 C   0  0  0  0  0  0  0  0  0  0  0  0
   -1.5000    0.0000    0.0000 C   0  0  0  0  0  0  0  0  0  0  0  0
   -0.7500   -1.2990    0.0000 C   0  0  0  0  0  0  0  0  0  0  0  0
   -0.7500   -3.8971    0.0000 N   0  0  0  0  0  0  0  0  0  0  0  0
   -1.5000   -5.1962    0.0000 C   0  0  0  0  0  0  0  0  0  0  0  0
   -0.7500   -6.4952    0.0000 O   0  0  0  0  0  0  0  0  0  0  0  0
   -3.0000   -5.1962    0.0000 N   0  0  0  0  0  0  0  0  0  0  0  0
   -3.8817   -6.4097    0.0000 C   0  0  0  0  0  0  0  0  0  0  0  0
   -5.3083   -5.9462    0.0000 C   0  0  0  0  0  0  0  0  0  0  0  0
   -5.3083   -4.4462    0.0000 C   0  0  0  0  0  0  0  0  0  0  0  0
   -6.5218   -3.5645    0.0000 C   0  0  0  0  0  0  0  0  0  0  0  0
   -7.8921   -4.1746    0.0000 O   0  0  0  0  0  0  0  0  0  0  0  0
   -6.3650   -2.0727    0.0000 O   0  0  0  0  0  0  0  0  0  0  0  0
   -3.8817   -3.9826    0.0000 C   0  0  0  0  0  0  0  0  0  0  0  0
   -3.4182   -2.5560    0.0000 O   0  0  0  0  0  0  0  0  0  0  0  0
  1  2  1  0
  2  3  2  0
  2  4  1  0
  4  5  1  0
  5  6  1  0
  6  7  2  0
  7  8  1  0
  8  9  2  0
  9 10  1  0
 10 11  1  0
  4 12  1  0
 12 13  1  0
 13 14  2  0
 13 15  1  0
 15 16  1  0
 16 17  1  0
 17 18  1  0
 18 19  1  0
 19 20  2  0
 19 21  1  0
 18 22  1  0
 22 23  2  0
 11  6  1  0
 22 15  1  0
M  END
>  <Title>  (1195) 
idABSAgen6

$$$$

     RDKit          2D

 13 13  0  0  0  0  0  0  0  0999 V2000
    7.2760   -2.5981    0.0000 C   0  0  0  0  0  0  0  0  0  0  0  0
    5.7760   -2.5981    0.0000 C   0  0  0  0  0  0  0  0  0  0  0  0
    5.0260   -3.8971    0.0000 O   0  0  0  0  0  0  0  0  0  0  0  0
    5.0260   -1.2990    0.0000 O   0  0  0  0  0  0  0  0  0  0  0  0
    3.5260   -1.2990    0.0000 C   0  0  0  0  0  0  0  0  0  0  0  0
    2.7760    0.0000    0.0000 C   0  0  0  0  0  0  0  0  0  0  0  0
    3.5260    1.2990    0.0000 O   0  0  0  0  0  0  0  0  0  0  0  0
    1.2760    0.0000    0.0000 C   0  0  0  0  0  0  0  0  0  0  0  0
    0.3943    1.2135    0.0000 C   0  0  0  0  0  0  0  0  0  0  0  0
   -1.0323    0.7500    0.0000 C   0  0  0  0  0  0  0  0  0  0  0  0
   -1.0323   -0.7500    0.0000 C   0  0  0  0  0  0  0  0  0  0  0  0
   -2.2458   -1.6317    0.0000 C   0  0  0  0  0  0  0  0  0  0  0  0
    0.3943   -1.2135    0.0000 C   0  0  0  0  0  0  0  0  0  0  0  0
  1  2  1  0
  2  3  2  0
  2  4  1  0
  4  5  1  0
  5  6  1  0
  6  7  2  0
  6  8  1  0
  8  9  1  0
  9 10  1  0
 10 11  1  0
 11 12  1  0
 11 13  1  0
 13  8  1  0
M  END
>  <Title>  (1196) 
idABSBgen6

$$$$

     RDKit          2D

 24 26  0  0  0  0  0  0  0  0999 V2000
   -5.2500   -3.8971    0.0000 C   0  0  0  0  0  0  0  0  0  0  0  0
   -3.7500   -3.8971    0.0000 C   0  0  0  0  0  0  0  0  0  0  0  0
   -3.0000   -5.1962    0.0000 O   0  0  0  0  0  0  0  0  0  0  0  0
   -3.0000   -2.5981    0.0000 C   0  0  0  0  0  0  0  0  0  0  0  0
   -3.7500   -1.2990    0.0000 O   0  0  0  0  0  0  0  0  0  0  0  0
   -1.5000   -2.5981    0.0000 C   0  0  0  0  0  0  0  0  0  0  0  0
   -0.7500   -3.8971    0.0000 C   0  0  0  0  0  0  0  0  0  0  0  0
    0.7500   -3.8971    0.0000 C   0  0  0  0  0  0  0  0  0  0  0  0
    1.5000   -2.5981    0.0000 C   0  0  0  0  0  0  0  0  0  0  0  0
    3.0000   -2.5981    0.0000 C   0  0  0  0  0  0  0  0  0  0  0  0
    3.7500   -1.2990    0.0000 O   0  0  0  0  0  0  0  0  0  0  0  0
    3.7500   -3.8971    0.0000 N   0  0  0  0  0  0  0  0  0  0  0  0
    5.2500   -3.8971    0.0000 C   0  0  0  0  0  0  0  0  0  0  0  0
    6.0000   -5.1962    0.0000 N   0  0  0  0  0  0  0  0  0  0  0  0
    7.5000   -5.1962    0.0000 N   0  0  0  0  0  0  0  0  0  0  0  0
    8.2500   -3.8971    0.0000 N   0  0  0  0  0  0  0  0  0  0  0  0
    7.5000   -2.5981    0.0000 N   0  0  0  0  0  0  0  0  0  0  0  0
    6.0000   -2.5981    0.0000 N   0  0  0  0  0  0  0  0  0  0  0  0
    0.7500   -1.2990    0.0000 C   0  0  0  0  0  0  0  0  0  0  0  0
    1.5000    0.0000    0.0000 C   0  0  0  0  0  0  0  0  0  0  0  0
    0.7500    1.2990    0.0000 C   0  0  0  0  0  0  0  0  0  0  0  0
   -0.7500    1.2990    0.0000 C   0  0  0  0  0  0  0  0  0  0  0  0
   -1.5000    0.0000    0.0000 C   0  0  0  0  0  0  0  0  0  0  0  0
   -0.7500   -1.2990    0.0000 C   0  0  0  0  0  0  0  0  0  0  0  0
  1  2  1  0
  2  3  2  0
  2  4  1  0
  4  5  2  0
  4  6  1  0
  6  7  1  0
  7  8  1  0
  8  9  1  0
  9 10  1  0
 10 11  2  0
 10 12  1  0
 12 13  1  0
 13 14  2  0
 14 15  1  0
 15 16  2  0
 16 17  1  0
 17 18  2  0
  9 19  1  0
 19 20  2  0
 20 21  1  0
 21 22  2  0
 22 23  1  0
 23 24  2  0
 24  6  1  0
 18 13  1  0
 24 19  1  0
M  END
>  <Title>  (1197) 
idABSCgen6

$$$$

     RDKit          2D

 21 22  0  0  0  0  0  0  0  0999 V2000
    3.4194   -8.9534    0.0000 C   0  0  0  0  0  0  0  0  0  0  0  0
    2.1203   -9.7034    0.0000 C   0  0  0  0  0  0  0  0  0  0  0  0
    1.9635  -11.1952    0.0000 C   0  0  0  0  0  0  0  0  0  0  0  0
    0.4963  -11.5070    0.0000 C   0  0  0  0  0  0  0  0  0  0  0  0
   -0.1138  -12.8773    0.0000 O   0  0  0  0  0  0  0  0  0  0  0  0
   -0.2537  -10.2080    0.0000 C   0  0  0  0  0  0  0  0  0  0  0  0
    0.7500   -9.0933    0.0000 C   0  0  0  0  0  0  0  0  0  0  0  0
   -0.4635   -8.2116    0.0000 O   0  0  0  0  0  0  0  0  0  0  0  0
    1.5000   -7.7942    0.0000 C   0  0  0  0  0  0  0  0  0  0  0  0
    0.7500   -6.4952    0.0000 C   0  0  0  0  0  0  0  0  0  0  0  0
    1.5000   -5.1962    0.0000 C   0  0  0  0  0  0  0  0  0  0  0  0
    3.0000   -5.1962    0.0000 O   0  0  0  0  0  0  0  0  0  0  0  0
    0.7500   -3.8971    0.0000 C   0  0  0  0  0  0  0  0  0  0  0  0
   -0.7500   -3.8971    0.0000 O   0  0  0  0  0  0  0  0  0  0  0  0
    1.5000   -2.5981    0.0000 N   0  0  0  0  0  0  0  0  0  0  0  0
    0.7500   -1.2990    0.0000 C   0  0  0  0  0  0  0  0  0  0  0  0
    1.5000    0.0000    0.0000 C   0  0  0  0  0  0  0  0  0  0  0  0
    0.7500    1.2990    0.0000 C   0  0  0  0  0  0  0  0  0  0  0  0
   -0.7500    1.2990    0.0000 C   0  0  0  0  0  0  0  0  0  0  0  0
   -1.5000    0.0000    0.0000 C   0  0  0  0  0  0  0  0  0  0  0  0
   -0.7500   -1.2990    0.0000 C   0  0  0  0  0  0  0  0  0  0  0  0
  1  2  1  0
  2  3  1  0
  3  4  2  0
  4  5  1  0
  4  6  1  0
  6  7  1  0
  7  8  1  0
  7  9  1  0
  9 10  1  0
 10 11  1  0
 11 12  1  0
 11 13  1  0
 13 14  2  0
 13 15  1  0
 15 16  1  0
 16 17  2  0
 17 18  1  0
 18 19  2  0
 19 20  1  0
 20 21  2  0
  7  2  1  0
 21 16  1  0
M  END
>  <Title>  (1198) 
idABSDgen6

$$$$

     RDKit          2D

 26 29  0  0  0  0  0  0  0  0999 V2000
   -1.3240   -6.3062    0.0000 C   0  0  0  0  0  0  0  0  0  0  0  0
   -0.7500   -4.9204    0.0000 C   0  0  0  0  0  0  0  0  0  0  0  0
    0.7500   -4.9204    0.0000 C   0  0  0  0  0  0  0  0  0  0  0  0
    1.8107   -3.8597    0.0000 C   0  0  0  0  0  0  0  0  0  0  0  0
    1.8107   -2.3597    0.0000 C   0  0  0  0  0  0  0  0  0  0  0  0
    3.1965   -1.7857    0.0000 C   0  0  0  0  0  0  0  0  0  0  0  0
    3.3923   -0.2985    0.0000 O   0  0  0  0  0  0  0  0  0  0  0  0
    4.3865   -2.6988    0.0000 N   0  0  0  0  0  0  0  0  0  0  0  0
    5.7723   -2.1248    0.0000 C   0  0  0  0  0  0  0  0  0  0  0  0
    6.9624   -3.0379    0.0000 N   0  0  0  0  0  0  0  0  0  0  0  0
    8.3482   -2.4639    0.0000 N   0  0  0  0  0  0  0  0  0  0  0  0
    8.5440   -0.9767    0.0000 N   0  0  0  0  0  0  0  0  0  0  0  0
    7.3539   -0.0636    0.0000 N   0  0  0  0  0  0  0  0  0  0  0  0
    5.9681   -0.6376    0.0000 N   0  0  0  0  0  0  0  0  0  0  0  0
    0.7500   -1.2990    0.0000 C   0  0  0  0  0  0  0  0  0  0  0  0
    1.5000    0.0000    0.0000 C   0  0  0  0  0  0  0  0  0  0  0  0
    0.7500    1.2990    0.0000 C   0  0  0  0  0  0  0  0  0  0  0  0
   -0.7500    1.2990    0.0000 C   0  0  0  0  0  0  0  0  0  0  0  0
   -1.5000    0.0000    0.0000 C   0  0  0  0  0  0  0  0  0  0  0  0
   -0.7500   -1.2990    0.0000 C   0  0  0  0  0  0  0  0  0  0  0  0
   -1.8107   -2.3597    0.0000 C   0  0  0  0  0  0  0  0  0  0  0  0
   -3.1097   -1.6097    0.0000 C   0  0  0  0  0  0  0  0  0  0  0  0
   -4.4087   -2.3597    0.0000 C   0  0  0  0  0  0  0  0  0  0  0  0
   -4.4087   -3.8597    0.0000 C   0  0  0  0  0  0  0  0  0  0  0  0
   -3.1097   -4.6097    0.0000 C   0  0  0  0  0  0  0  0  0  0  0  0
   -1.8107   -3.8597    0.0000 C   0  0  0  0  0  0  0  0  0  0  0  0
  1  2  1  0
  2  3  1  0
  3  4  1  0
  4  5  1  0
  5  6  1  0
  6  7  2  0
  6  8  1  0
  8  9  1  0
  9 10  2  0
 10 11  1  0
 11 12  2  0
 12 13  1  0
 13 14  2  0
  5 15  1  0
 15 16  2  0
 16 17  1  0
 17 18  2  0
 18 19  1  0
 19 20  2  0
 20 21  1  0
 21 22  2  0
 22 23  1  0
 23 24  2  0
 24 25  1  0
 25 26  2  0
 26  2  1  0
 14  9  1  0
 20 15  1  0
 26 21  1  0
M  END
>  <Title>  (1199) 
idABSEgen6

$$$$

     RDKit          2D

 25 28  0  0  0  0  0  0  0  0999 V2000
   -4.4971   -2.2632    0.0000 C   0  0  0  0  0  0  0  0  0  0  0  0
   -3.1981   -1.5132    0.0000 O   0  0  0  0  0  0  0  0  0  0  0  0
   -1.8991   -2.2632    0.0000 C   0  0  0  0  0  0  0  0  0  0  0  0
   -2.1595   -3.7404    0.0000 C   0  0  0  0  0  0  0  0  0  0  0  0
   -1.4095   -5.0395    0.0000 C   0  0  0  0  0  0  0  0  0  0  0  0
   -0.0000   -5.5525    0.0000 C   0  0  0  0  0  0  0  0  0  0  0  0
    1.4095   -5.0395    0.0000 C   0  0  0  0  0  0  0  0  0  0  0  0
    2.1595   -3.7404    0.0000 C   0  0  0  0  0  0  0  0  0  0  0  0
    1.8991   -2.2632    0.0000 C   0  0  0  0  0  0  0  0  0  0  0  0
    3.1981   -1.5132    0.0000 N   0  0  0  0  0  0  0  0  0  0  0  0
    4.4971   -2.2632    0.0000 C   0  0  0  0  0  0  0  0  0  0  0  0
    4.4971   -3.7632    0.0000 O   0  0  0  0  0  0  0  0  0  0  0  0
    5.7962   -1.5132    0.0000 C   0  0  0  0  0  0  0  0  0  0  0  0
    7.0952   -2.2632    0.0000 C   0  0  0  0  0  0  0  0  0  0  0  0
    8.3943   -1.5132    0.0000 C   0  0  0  0  0  0  0  0  0  0  0  0
    8.3943   -0.0132    0.0000 C   0  0  0  0  0  0  0  0  0  0  0  0
    7.0952    0.7368    0.0000 C   0  0  0  0  0  0  0  0  0  0  0  0
    5.7962   -0.0132    0.0000 C   0  0  0  0  0  0  0  0  0  0  0  0
    7.0952   -0.7632    0.0000 N   0  0  0  0  0  0  0  0  0  0  0  0
    0.7500   -1.2990    0.0000 C   0  0  0  0  0  0  0  0  0  0  0  0
    1.5000    0.0000    0.0000 C   0  0  0  0  0  0  0  0  0  0  0  0
    0.7500    1.2990    0.0000 C   0  0  0  0  0  0  0  0  0  0  0  0
   -0.7500    1.2990    0.0000 C   0  0  0  0  0  0  0  0  0  0  0  0
   -1.5000    0.0000    0.0000 C   0  0  0  0  0  0  0  0  0  0  0  0
   -0.7500   -1.2990    0.0000 C   0  0  0  0  0  0  0  0  0  0  0  0
  1  2  1  0
  2  3  1  0
  3  4  1  0
  4  5  2  0
  5  6  1  0
  6  7  1  0
  7  8  1  0
  8  9  1  0
  9 10  1  0
 10 11  1  0
 11 12  2  0
 11 13  1  0
 13 14  1  0
 14 15  1  0
 15 16  1  0
 16 17  1  0
 17 18  1  0
 17 19  1  0
  9 20  1  0
 20 21  2  0
 21 22  1  0
 22 23  2  0
 23 24  1  0
 24 25  2  0
 25  3  1  0
 18 13  1  0
 25 20  1  0
 19 13  1  0
M  END
>  <Title>  (1200) 
idABSFgen6

$$$$

     RDKit          2D

  9 10  0  0  0  0  0  0  0  0999 V2000
    1.5000    0.0000    0.0000 C   0  0  0  0  0  0  0  0  0  0  0  0
    0.7500   -1.2990    0.0000 C   0  0  0  0  0  0  0  0  0  0  0  0
   -0.7500   -1.2990    0.0000 N   0  0  0  0  0  0  0  0  0  0  0  0
   -1.5000    0.0000    0.0000 C   0  0  0  0  0  0  0  0  0  0  0  0
   -2.9672    0.3119    0.0000 C   0  0  0  0  0  0  0  0  0  0  0  0
   -3.1240    1.8037    0.0000 C   0  0  0  0  0  0  0  0  0  0  0  0
   -1.7537    2.4138    0.0000 C   0  0  0  0  0  0  0  0  0  0  0  0
   -0.7500    1.2990    0.0000 C   0  0  0  0  0  0  0  0  0  0  0  0
    0.7500    1.2990    0.0000 C   0  0  0  0  0  0  0  0  0  0  0  0
  1  2  1  0
  2  3  1  0
  3  4  1  0
  4  5  1  0
  5  6  1  0
  6  7  1  0
  7  8  1  0
  8  9  1  0
  9  1  1  0
  8  4  1  0
M  END
>  <Title>  (1201) 
idABSGgen6

$$$$

     RDKit          2D

 18 20  0  0  0  0  0  0  0  0999 V2000
   -3.7548   -2.1855    0.0000 O   0  0  0  0  0  0  0  0  0  0  0  0
   -2.6401   -3.1891    0.0000 C   0  0  0  0  0  0  0  0  0  0  0  0
   -2.9520   -4.6564    0.0000 N   0  0  0  0  0  0  0  0  0  0  0  0
   -4.3786   -5.1199    0.0000 C   0  0  0  0  0  0  0  0  0  0  0  0
   -5.4933   -4.1162    0.0000 C   0  0  0  0  0  0  0  0  0  0  0  0
   -6.9199   -4.5797    0.0000 C   0  0  0  0  0  0  0  0  0  0  0  0
   -7.2317   -6.0469    0.0000 C   0  0  0  0  0  0  0  0  0  0  0  0
   -6.1170   -7.0506    0.0000 C   0  0  0  0  0  0  0  0  0  0  0  0
   -4.6904   -6.5871    0.0000 C   0  0  0  0  0  0  0  0  0  0  0  0
   -1.2135   -2.7256    0.0000 N   0  0  0  0  0  0  0  0  0  0  0  0
   -0.0000   -3.6073    0.0000 C   0  0  0  0  0  0  0  0  0  0  0  0
    1.2135   -2.7256    0.0000 N   0  0  0  0  0  0  0  0  0  0  0  0
    0.7500   -1.2990    0.0000 C   0  0  0  0  0  0  0  0  0  0  0  0
    1.5000    0.0000    0.0000 C   0  0  0  0  0  0  0  0  0  0  0  0
    0.7500    1.2990    0.0000 C   0  0  0  0  0  0  0  0  0  0  0  0
   -0.7500    1.2990    0.0000 C   0  0  0  0  0  0  0  0  0  0  0  0
   -1.5000    0.0000    0.0000 C   0  0  0  0  0  0  0  0  0  0  0  0
   -0.7500   -1.2990    0.0000 C   0  0  0  0  0  0  0  0  0  0  0  0
  1  2  2  0
  2  3  1  0
  3  4  1  0
  4  5  2  0
  5  6  1  0
  6  7  2  0
  7  8  1  0
  8  9  2  0
  2 10  1  0
 10 11  1  0
 11 12  2  0
 12 13  1  0
 13 14  2  0
 14 15  1  0
 15 16  2  0
 16 17  1  0
 17 18  2  0
  9  4  1  0
 18 10  1  0
 18 13  1  0
M  END
>  <Title>  (1202) 
idABSHgen6

$$$$

     RDKit          2D

 42 46  0  0  0  0  0  0  0  0999 V2000
   -8.2500    1.2990    0.0000 C   0  0  0  0  0  0  0  0  0  0  0  0
   -7.5000    0.0000    0.0000 C   0  0  0  0  0  0  0  0  0  0  0  0
   -6.0000    0.0000    0.0000 O   0  0  0  0  0  0  0  0  0  0  0  0
   -8.2500   -1.2990    0.0000 C   0  0  0  0  0  0  0  0  0  0  0  0
   -7.5000   -2.5981    0.0000 N   0  0  0  0  0  0  0  0  0  0  0  0
   -6.0000   -2.5981    0.0000 C   0  0  0  0  0  0  0  0  0  0  0  0
   -5.2500   -1.2990    0.0000 O   0  0  0  0  0  0  0  0  0  0  0  0
   -5.2500   -3.8971    0.0000 C   0  0  0  0  0  0  0  0  0  0  0  0
   -6.0000   -5.1962    0.0000 C   0  0  0  0  0  0  0  0  0  0  0  0
   -7.5000   -5.1962    0.0000 C   0  0  0  0  0  0  0  0  0  0  0  0
   -8.2500   -3.8971    0.0000 C   0  0  0  0  0  0  0  0  0  0  0  0
   -9.7500   -3.8971    0.0000 C   0  0  0  0  0  0  0  0  0  0  0  0
  -10.5000   -5.1962    0.0000 C   0  0  0  0  0  0  0  0  0  0  0  0
   -9.7500   -6.4952    0.0000 C   0  0  0  0  0  0  0  0  0  0  0  0
   -8.2500   -6.4952    0.0000 C   0  0  0  0  0  0  0  0  0  0  0  0
   -3.7500   -3.8971    0.0000 N   0  0  0  0  0  0  0  0  0  0  0  0
   -3.0000   -2.5981    0.0000 C   0  0  0  0  0  0  0  0  0  0  0  0
   -3.7500   -1.2990    0.0000 O   0  0  0  0  0  0  0  0  0  0  0  0
   -1.5000   -2.5981    0.0000 C   0  0  0  0  0  0  0  0  0  0  0  0
   -0.7500   -3.8971    0.0000 C   0  0  0  0  0  0  0  0  0  0  0  0
    0.7500   -3.8971    0.0000 C   0  0  0  0  0  0  0  0  0  0  0  0
    1.5000   -2.5981    0.0000 C   0  0  0  0  0  0  0  0  0  0  0  0
    3.0000   -2.5981    0.0000 C   0  0  0  0  0  0  0  0  0  0  0  0
    3.7500   -3.8971    0.0000 N   0  0  0  0  0  0  0  0  0  0  0  0
    5.2500   -3.8971    0.0000 N   0  0  0  0  0  0  0  0  0  0  0  0
    6.0000   -2.5981    0.0000 N   0  0  0  0  0  0  0  0  0  0  0  0
    5.2500   -1.2990    0.0000 N   0  0  0  0  0  0  0  0  0  0  0  0
    3.7500   -1.2990    0.0000 N   0  0  0  0  0  0  0  0  0  0  0  0
    0.7500   -1.2990    0.0000 C   0  0  0  0  0  0  0  0  0  0  0  0
    1.5000    0.0000    0.0000 C   0  0  0  0  0  0  0  0  0  0  0  0
    0.7500    1.2990    0.0000 C   0  0  0  0  0  0  0  0  0  0  0  0
   -0.7500    1.2990    0.0000 C   0  0  0  0  0  0  0  0  0  0  0  0
   -1.5000    2.5981    0.0000 C   0  0  0  0  0  0  0  0  0  0  0  0
   -2.2500    3.8971    0.0000 N   0  0  0  0  0  0  0  0  0  0  0  0
   -1.5000    0.0000    0.0000 C   0  0  0  0  0  0  0  0  0  0  0  0
   -0.7500   -1.2990    0.0000 C   0  0  0  0  0  0  0  0  0  0  0  0
   -9.7500   -1.2990    0.0000 C   0  0  0  0  0  0  0  0  0  0  0  0
  -10.5000    0.0000    0.0000 C   0  0  0  0  0  0  0  0  0  0  0  0
  -12.0000    0.0000    0.0000 C   0  0  0  0  0  0  0  0  0  0  0  0
  -12.7500   -1.2990    0.0000 C   0  0  0  0  0  0  0  0  0  0  0  0
  -12.0000   -2.5981    0.0000 C   0  0  0  0  0  0  0  0  0  0  0  0
  -10.5000   -2.5981    0.0000 C   0  0  0  0  0  0  0  0  0  0  0  0
  1  2  1  0
  2  3  2  0
  2  4  1  0
  4  5  1  0
  5  6  1  0
  6  7  2  0
  6  8  1  0
  8  9  1  0
  9 10  1  0
 10 11  2  0
 11 12  1  0
 12 13  2  0
 13 14  1  0
 14 15  2  0
  8 16  1  0
 16 17  1  0
 17 18  2  0
 17 19  1  0
 19 20  1  0
 20 21  1  0
 21 22  1  0
 22 23  1  0
 23 24  2  0
 24 25  1  0
 25 26  2  0
 26 27  1  0
 27 28  2  0
 22 29  1  0
 29 30  2  0
 30 31  1  0
 31 32  2  0
 32 33  1  0
 33 34  3  0
 32 35  1  0
 35 36  2  0
  4 37  1  0
 37 38  2  0
 38 39  1  0
 39 40  2  0
 40 41  1  0
 41 42  2  0
 15 10  1  0
 36 19  1  0
 42 37  1  0
 28 23  1  0
 36 29  1  0
M  END
>  <Title>  (1203) 
idABSIgen6

$$$$

     RDKit          2D

  7  7  0  0  0  0  0  0  0  0999 V2000
    3.5260   -1.2990    0.0000 C   0  0  0  0  0  0  0  0  0  0  0  0
    2.7760    0.0000    0.0000 O   0  0  0  0  0  0  0  0  0  0  0  0
    1.2760    0.0000    0.0000 C   0  0  0  0  0  0  0  0  0  0  0  0
    0.3943    1.2135    0.0000 C   0  0  0  0  0  0  0  0  0  0  0  0
   -1.0323    0.7500    0.0000 C   0  0  0  0  0  0  0  0  0  0  0  0
   -1.0323   -0.7500    0.0000 C   0  0  0  0  0  0  0  0  0  0  0  0
    0.3943   -1.2135    0.0000 C   0  0  0  0  0  0  0  0  0  0  0  0
  1  2  1  0
  2  3  1  0
  3  4  1  0
  4  5  2  0
  5  6  1  0
  6  7  2  0
  7  3  1  0
M  END
>  <Title>  (1204) 
idABSJgen6

$$$$

     RDKit          2D

 15 15  0  0  0  0  0  0  0  0999 V2000
    4.8250    0.5490    0.0000 C   0  0  0  0  0  0  0  0  0  0  0  0
    3.5260    1.2990    0.0000 C   0  0  0  0  0  0  0  0  0  0  0  0
    2.2269    2.0490    0.0000 C   0  0  0  0  0  0  0  0  0  0  0  0
    4.2760    2.5981    0.0000 C   0  0  0  0  0  0  0  0  0  0  0  0
    2.7760    0.0000    0.0000 C   0  0  0  0  0  0  0  0  0  0  0  0
    3.5260   -1.2990    0.0000 O   0  0  0  0  0  0  0  0  0  0  0  0
    1.2760    0.0000    0.0000 N   0  0  0  0  0  0  0  0  0  0  0  0
    0.3943    1.2135    0.0000 C   0  0  0  0  0  0  0  0  0  0  0  0
   -1.0323    0.7500    0.0000 C   0  0  0  0  0  0  0  0  0  0  0  0
   -1.0323   -0.7500    0.0000 C   0  0  0  0  0  0  0  0  0  0  0  0
   -2.2458   -1.6317    0.0000 C   0  0  0  0  0  0  0  0  0  0  0  0
   -2.0890   -3.1235    0.0000 O   0  0  0  0  0  0  0  0  0  0  0  0
   -3.6161   -1.0216    0.0000 O   0  0  0  0  0  0  0  0  0  0  0  0
    0.3943   -1.2135    0.0000 C   0  0  0  0  0  0  0  0  0  0  0  0
    0.8578   -2.6401    0.0000 O   0  0  0  0  0  0  0  0  0  0  0  0
  1  2  1  0
  2  3  1  0
  2  4  1  0
  2  5  1  0
  5  6  2  0
  5  7  1  0
  7  8  1  0
  8  9  1  0
  9 10  1  0
 10 11  1  0
 11 12  2  0
 11 13  1  0
 10 14  1  0
 14 15  2  0
 14  7  1  0
M  END
>  <Title>  (1205) 
idABSKgen6

$$$$

     RDKit          2D

 17 17  0  0  0  0  0  0  0  0999 V2000
    5.3444    0.0000    0.0000 C   0  0  0  0  0  0  0  0  0  0  0  0
    3.8444    0.0000    0.0000 C   0  0  0  0  0  0  0  0  0  0  0  0
    3.5517   -1.4712    0.0000 C   0  0  0  0  0  0  0  0  0  0  0  0
    2.7184   -2.7184    0.0000 C   0  0  0  0  0  0  0  0  0  0  0  0
    1.4712   -3.5517    0.0000 C   0  0  0  0  0  0  0  0  0  0  0  0
   -0.0000   -3.8444    0.0000 C   0  0  0  0  0  0  0  0  0  0  0  0
   -1.4712   -3.5517    0.0000 C   0  0  0  0  0  0  0  0  0  0  0  0
   -2.7184   -2.7184    0.0000 C   0  0  0  0  0  0  0  0  0  0  0  0
   -3.5517   -1.4712    0.0000 C   0  0  0  0  0  0  0  0  0  0  0  0
   -3.8444    0.0000    0.0000 C   0  0  0  0  0  0  0  0  0  0  0  0
   -3.5517    1.4712    0.0000 C   0  0  0  0  0  0  0  0  0  0  0  0
   -2.7184    2.7184    0.0000 C   0  0  0  0  0  0  0  0  0  0  0  0
   -1.4712    3.5517    0.0000 C   0  0  0  0  0  0  0  0  0  0  0  0
    0.0000    3.8444    0.0000 C   0  0  0  0  0  0  0  0  0  0  0  0
    1.4712    3.5517    0.0000 C   0  0  0  0  0  0  0  0  0  0  0  0
    2.7184    2.7184    0.0000 C   0  0  0  0  0  0  0  0  0  0  0  0
    3.5517    1.4712    0.0000 C   0  0  0  0  0  0  0  0  0  0  0  0
  1  2  1  0
  2  3  1  0
  3  4  1  0
  4  5  1  0
  5  6  1  0
  6  7  2  0
  7  8  1  0
  8  9  3  0
  9 10  1  0
 10 11  2  0
 11 12  1  0
 12 13  1  0
 13 14  1  0
 14 15  1  0
 15 16  1  0
 16 17  1  0
 17  2  1  0
M  END
>  <Title>  (1206) 
idABSLgen6

$$$$

     RDKit          2D

 27 30  0  0  0  0  0  0  0  0999 V2000
   14.5680   -7.4220    0.0000 C   0  0  0  0  0  0  0  0  0  0  0  0
   13.1008   -7.7339    0.0000 C   0  0  0  0  0  0  0  0  0  0  0  0
   12.2839   -8.9919    0.0000 C   0  0  0  0  0  0  0  0  0  0  0  0
   11.0259   -8.1749    0.0000 C   0  0  0  0  0  0  0  0  0  0  0  0
    9.5586   -8.4868    0.0000 O   0  0  0  0  0  0  0  0  0  0  0  0
    8.5549   -7.3721    0.0000 C   0  0  0  0  0  0  0  0  0  0  0  0
    7.0877   -7.6840    0.0000 C   0  0  0  0  0  0  0  0  0  0  0  0
    6.4776   -9.0543    0.0000 C   0  0  0  0  0  0  0  0  0  0  0  0
    4.9858   -8.8975    0.0000 C   0  0  0  0  0  0  0  0  0  0  0  0
    4.6740   -7.4303    0.0000 C   0  0  0  0  0  0  0  0  0  0  0  0
    3.3037   -6.8202    0.0000 N   0  0  0  0  0  0  0  0  0  0  0  0
    2.0046   -7.5702    0.0000 C   0  0  0  0  0  0  0  0  0  0  0  0
    0.8899   -6.5665    0.0000 C   0  0  0  0  0  0  0  0  0  0  0  0
    1.5000   -5.1962    0.0000 N   0  0  0  0  0  0  0  0  0  0  0  0
    0.7500   -3.8971    0.0000 C   0  0  0  0  0  0  0  0  0  0  0  0
   -0.7500   -3.8971    0.0000 O   0  0  0  0  0  0  0  0  0  0  0  0
    1.5000   -2.5981    0.0000 N   0  0  0  0  0  0  0  0  0  0  0  0
    0.7500   -1.2990    0.0000 C   0  0  0  0  0  0  0  0  0  0  0  0
    1.5000    0.0000    0.0000 N   0  0  0  0  0  0  0  0  0  0  0  0
    0.7500    1.2990    0.0000 N   0  0  0  0  0  0  0  0  0  0  0  0
   -0.7500    1.2990    0.0000 N   0  0  0  0  0  0  0  0  0  0  0  0
   -1.5000    0.0000    0.0000 N   0  0  0  0  0  0  0  0  0  0  0  0
   -0.7500   -1.2990    0.0000 N   0  0  0  0  0  0  0  0  0  0  0  0
    2.9918   -5.3529    0.0000 C   0  0  0  0  0  0  0  0  0  0  0  0
    3.9955   -4.2382    0.0000 O   0  0  0  0  0  0  0  0  0  0  0  0
    5.9730   -6.6803    0.0000 C   0  0  0  0  0  0  0  0  0  0  0  0
   11.8428   -6.9169    0.0000 C   0  0  0  0  0  0  0  0  0  0  0  0
  1  2  1  0
  2  3  1  0
  3  4  2  0
  4  5  1  0
  5  6  1  0
  6  7  1  0
  7  8  1  0
  8  9  1  0
  9 10  1  0
 10 11  1  0
 11 12  1  0
 12 13  1  0
 13 14  1  0
 14 15  1  0
 15 16  2  0
 15 17  1  0
 17 18  1  0
 18 19  2  0
 19 20  1  0
 20 21  2  0
 21 22  1  0
 22 23  2  0
 14 24  1  0
 24 25  2  0
 10 26  1  0
  4 27  1  0
 27  2  1  0
 26  7  1  0
 24 11  1  0
 23 18  1  0
M  END
>  <Title>  (1207) 
idABSMgen6

$$$$

     RDKit          2D

 41 45  0  0  0  0  0  0  0  0999 V2000
    1.5000  -12.9904    0.0000 C   0  0  0  0  0  0  0  0  0  0  0  0
    0.7500  -11.6913    0.0000 C   0  0  0  0  0  0  0  0  0  0  0  0
    1.5000  -10.3923    0.0000 C   0  0  0  0  0  0  0  0  0  0  0  0
    0.7500   -9.0933    0.0000 C   0  0  0  0  0  0  0  0  0  0  0  0
    1.5000   -7.7942    0.0000 C   0  0  0  0  0  0  0  0  0  0  0  0
    0.7500   -6.4952    0.0000 C   0  0  0  0  0  0  0  0  0  0  0  0
    1.5000   -5.1962    0.0000 C   0  0  0  0  0  0  0  0  0  0  0  0
    0.7500   -3.8971    0.0000 N   0  0  0  0  0  0  0  0  0  0  0  0
    1.5000   -2.5981    0.0000 C   0  0  0  0  0  0  0  0  0  0  0  0
    3.0000   -2.5981    0.0000 O   0  0  0  0  0  0  0  0  0  0  0  0
    0.7500   -1.2990    0.0000 C   0  0  0  0  0  0  0  0  0  0  0  0
    1.5000    0.0000    0.0000 C   0  0  0  0  0  0  0  0  0  0  0  0
    0.7500    1.2990    0.0000 C   0  0  0  0  0  0  0  0  0  0  0  0
   -0.7500    1.2990    0.0000 C   0  0  0  0  0  0  0  0  0  0  0  0
   -1.5000    0.0000    0.0000 C   0  0  0  0  0  0  0  0  0  0  0  0
   -0.7500   -1.2990    0.0000 C   0  0  0  0  0  0  0  0  0  0  0  0
    3.0000  -10.3923    0.0000 N   0  0  0  0  0  0  0  0  0  0  0  0
    3.7500  -11.6913    0.0000 C   0  0  0  0  0  0  0  0  0  0  0  0
    5.2500  -11.6913    0.0000 C   0  0  0  0  0  0  0  0  0  0  0  0
    6.0000  -10.3923    0.0000 C   0  0  0  0  0  0  0  0  0  0  0  0
    7.5000  -10.3923    0.0000 C   0  0  0  0  0  0  0  0  0  0  0  0
    8.3817   -9.1788    0.0000 N   0  0  0  0  0  0  0  0  0  0  0  0
    9.8083   -9.6423    0.0000 N   0  0  0  0  0  0  0  0  0  0  0  0
    9.8083  -11.1423    0.0000 C   0  0  0  0  0  0  0  0  0  0  0  0
   11.0218  -12.0240    0.0000 N   0  0  0  0  0  0  0  0  0  0  0  0
   10.8650  -13.5158    0.0000 C   0  0  0  0  0  0  0  0  0  0  0  0
   12.0785  -14.3974    0.0000 C   0  0  0  0  0  0  0  0  0  0  0  0
   13.4488  -13.7873    0.0000 C   0  0  0  0  0  0  0  0  0  0  0  0
   14.6624  -14.6690    0.0000 C   0  0  0  0  0  0  0  0  0  0  0  0
   14.5056  -16.1608    0.0000 C   0  0  0  0  0  0  0  0  0  0  0  0
   15.7191  -17.0425    0.0000 C   0  0  0  0  0  0  0  0  0  0  0  0
   17.0894  -16.4324    0.0000 C   0  0  0  0  0  0  0  0  0  0  0  0
   18.3029  -17.3140    0.0000 C   0  0  0  0  0  0  0  0  0  0  0  0
   19.5165  -18.1957    0.0000 N   0  0  0  0  0  0  0  0  0  0  0  0
   17.2462  -14.9406    0.0000 C   0  0  0  0  0  0  0  0  0  0  0  0
   16.0327  -14.0589    0.0000 C   0  0  0  0  0  0  0  0  0  0  0  0
   13.6056  -12.2956    0.0000 C   0  0  0  0  0  0  0  0  0  0  0  0
   12.3921  -11.4139    0.0000 C   0  0  0  0  0  0  0  0  0  0  0  0
    8.3817  -11.6058    0.0000 C   0  0  0  0  0  0  0  0  0  0  0  0
    5.2500   -9.0933    0.0000 C   0  0  0  0  0  0  0  0  0  0  0  0
    3.7500   -9.0933    0.0000 C   0  0  0  0  0  0  0  0  0  0  0  0
  1  2  1  0
  2  3  1  0
  3  4  1  0
  4  5  1  0
  5  6  1  0
  6  7  2  3
  7  8  1  0
  8  9  1  0
  9 10  2  0
  9 11  1  0
 11 12  2  0
 12 13  1  0
 13 14  2  0
 14 15  1  0
 15 16  2  0
  3 17  1  0
 17 18  1  0
 18 19  1  0
 19 20  1  0
 20 21  1  0
 21 22  2  0
 22 23  1  0
 23 24  2  0
 24 25  1  0
 25 26  1  0
 26 27  1  0
 27 28  1  0
 28 29  1  0
 29 30  2  0
 30 31  1  0
 31 32  2  0
 32 33  1  0
 33 34  3  0
 32 35  1  0
 35 36  2  0
 28 37  1  0
 37 38  1  0
 24 39  1  0
 20 40  1  0
 40 41  1  0
 16 11  1  0
 41 17  1  0
 39 21  1  0
 38 25  1  0
 36 29  1  0
M  END
>  <Title>  (1208) 
idABSNgen6

$$$$

     RDKit          2D

 39 42  0  0  0  0  0  0  0  0999 V2000
    4.8705    0.0000    0.0000 C   0  0  0  0  0  0  0  0  0  0  0  0
    3.3705    0.0000    0.0000 C   0  0  0  0  0  0  0  0  0  0  0  0
    3.0367   -1.4624    0.0000 C   0  0  0  0  0  0  0  0  0  0  0  0
    2.1015   -2.6351    0.0000 C   0  0  0  0  0  0  0  0  0  0  0  0
    0.7500   -3.2860    0.0000 C   0  0  0  0  0  0  0  0  0  0  0  0
   -0.7500   -3.2860    0.0000 C   0  0  0  0  0  0  0  0  0  0  0  0
   -2.1015   -2.6351    0.0000 C   0  0  0  0  0  0  0  0  0  0  0  0
   -3.0367   -1.4624    0.0000 C   0  0  0  0  0  0  0  0  0  0  0  0
   -3.3705    0.0000    0.0000 C   0  0  0  0  0  0  0  0  0  0  0  0
   -3.0367    1.4624    0.0000 C   0  0  0  0  0  0  0  0  0  0  0  0
   -2.1015    2.6351    0.0000 O   0  0  0  0  0  0  0  0  0  0  0  0
   -0.7500    3.2860    0.0000 N   0  0  0  0  0  0  0  0  0  0  0  0
    0.7500    3.2860    0.0000 C   0  0  0  0  0  0  0  0  0  0  0  0
    1.0838    4.7484    0.0000 C   0  0  0  0  0  0  0  0  0  0  0  0
    2.5626    4.9996    0.0000 C   0  0  0  0  0  0  0  0  0  0  0  0
    3.4306    6.2230    0.0000 C   0  0  0  0  0  0  0  0  0  0  0  0
    3.1793    7.7018    0.0000 N   0  0  0  0  0  0  0  0  0  0  0  0
    4.4494    8.4998    0.0000 C   0  0  0  0  0  0  0  0  0  0  0  0
    4.3933    9.9988    0.0000 O   0  0  0  0  0  0  0  0  0  0  0  0
    5.7756    7.7989    0.0000 C   0  0  0  0  0  0  0  0  0  0  0  0
    5.8317    6.3000    0.0000 C   0  0  0  0  0  0  0  0  0  0  0  0
    7.1579    5.5991    0.0000 C   0  0  0  0  0  0  0  0  0  0  0  0
    8.4279    6.3971    0.0000 C   0  0  0  0  0  0  0  0  0  0  0  0
    8.3719    7.8961    0.0000 C   0  0  0  0  0  0  0  0  0  0  0  0
    7.0457    8.5970    0.0000 C   0  0  0  0  0  0  0  0  0  0  0  0
    1.9560    8.5698    0.0000 C   0  0  0  0  0  0  0  0  0  0  0  0
    2.2898   10.0322    0.0000 O   0  0  0  0  0  0  0  0  0  0  0  0
    0.4772    8.3185    0.0000 N   0  0  0  0  0  0  0  0  0  0  0  0
   -0.3908    7.0952    0.0000 C   0  0  0  0  0  0  0  0  0  0  0  0
   -1.8532    7.4290    0.0000 C   0  0  0  0  0  0  0  0  0  0  0  0
   -2.2953    8.8623    0.0000 C   0  0  0  0  0  0  0  0  0  0  0  0
   -1.2751    9.9619    0.0000 C   0  0  0  0  0  0  0  0  0  0  0  0
   -1.7172   11.3952    0.0000 C   0  0  0  0  0  0  0  0  0  0  0  0
   -3.1796   11.7290    0.0000 C   0  0  0  0  0  0  0  0  0  0  0  0
   -4.1999   10.6295    0.0000 C   0  0  0  0  0  0  0  0  0  0  0  0
   -3.7577    9.1961    0.0000 C   0  0  0  0  0  0  0  0  0  0  0  0
   -0.1396    5.6164    0.0000 C   0  0  0  0  0  0  0  0  0  0  0  0
    2.1015    2.6351    0.0000 C   0  0  0  0  0  0  0  0  0  0  0  0
    3.0367    1.4624    0.0000 C   0  0  0  0  0  0  0  0  0  0  0  0
  1  2  1  0
  2  3  1  0
  3  4  1  0
  4  5  1  0
  5  6  1  0
  6  7  1  0
  7  8  1  0
  8  9  1  0
  9 10  1  0
 10 11  1  0
 11 12  1  0
 12 13  2  0
 13 14  1  0
 14 15  1  0
 15 16  1  0
 16 17  1  0
 17 18  1  0
 18 19  2  0
 18 20  1  0
 20 21  2  0
 21 22  1  0
 22 23  2  0
 23 24  1  0
 24 25  2  0
 17 26  1  0
 26 27  2  0
 26 28  1  0
 28 29  1  0
 29 30  1  0
 30 31  1  0
 31 32  2  0
 32 33  1  0
 33 34  2  0
 34 35  1  0
 35 36  2  0
 29 37  1  0
 13 38  1  0
 38 39  1  0
 39  2  1  0
 37 14  1  0
 25 20  1  0
 36 31  1  0
M  END
>  <Title>  (1209) 
idABSOgen6

$$$$

     RDKit          2D

 12 12  0  0  0  0  0  0  0  0999 V2000
    3.0000   -2.5981    0.0000 O   0  0  0  0  0  0  0  0  0  0  0  0
    3.7500   -1.2990    0.0000 C   0  0  0  0  0  0  0  0  0  0  0  0
    3.0000    0.0000    0.0000 N   0  0  0  0  0  0  0  0  0  0  0  0
    1.5000    0.0000    0.0000 C   0  0  0  0  0  0  0  0  0  0  0  0
    0.7500   -1.2990    0.0000 C   0  0  0  0  0  0  0  0  0  0  0  0
   -0.7500   -1.2990    0.0000 C   0  0  0  0  0  0  0  0  0  0  0  0
   -1.5000    0.0000    0.0000 C   0  0  0  0  0  0  0  0  0  0  0  0
   -0.7500    1.2990    0.0000 C   0  0  0  0  0  0  0  0  0  0  0  0
    0.7500    1.2990    0.0000 C   0  0  0  0  0  0  0  0  0  0  0  0
    5.2500   -1.2990    0.0000 N   0  0  0  0  0  0  0  0  0  0  0  0
    6.0000   -2.5981    0.0000 F   0  0  0  0  0  0  0  0  0  0  0  0
    6.0000    0.0000    0.0000 F   0  0  0  0  0  0  0  0  0  0  0  0
  1  2  2  0
  2  3  1  0
  3  4  1  0
  4  5  2  0
  5  6  1  0
  6  7  2  0
  7  8  1  0
  8  9  2  0
  2 10  1  0
 10 11  1  0
 10 12  1  0
  9  4  1  0
M  END
>  <Title>  (1210) 
idABSPgen6

$$$$

     RDKit          2D

 19 20  0  0  0  0  0  0  0  0999 V2000
    5.4627   -4.5501    0.0000 C   0  0  0  0  0  0  0  0  0  0  0  0
    3.9955   -4.2382    0.0000 C   0  0  0  0  0  0  0  0  0  0  0  0
    3.5320   -2.8116    0.0000 O   0  0  0  0  0  0  0  0  0  0  0  0
    2.9918   -5.3529    0.0000 C   0  0  0  0  0  0  0  0  0  0  0  0
    1.5000   -5.1962    0.0000 C   0  0  0  0  0  0  0  0  0  0  0  0
    0.7500   -3.8971    0.0000 C   0  0  0  0  0  0  0  0  0  0  0  0
    1.5000   -2.5981    0.0000 C   0  0  0  0  0  0  0  0  0  0  0  0
    0.7500   -1.2990    0.0000 C   0  0  0  0  0  0  0  0  0  0  0  0
    1.5000    0.0000    0.0000 C   0  0  0  0  0  0  0  0  0  0  0  0
    0.7500    1.2990    0.0000 C   0  0  0  0  0  0  0  0  0  0  0  0
   -0.7500    1.2990    0.0000 C   0  0  0  0  0  0  0  0  0  0  0  0
   -1.5000    2.5981    0.0000 C   0  0  0  0  0  0  0  0  0  0  0  0
   -1.5000    0.0000    0.0000 C   0  0  0  0  0  0  0  0  0  0  0  0
   -3.0000    0.0000    0.0000 C   0  0  0  0  0  0  0  0  0  0  0  0
   -0.7500   -1.2990    0.0000 C   0  0  0  0  0  0  0  0  0  0  0  0
    0.8899   -6.5665    0.0000 N   0  0  0  0  0  0  0  0  0  0  0  0
    2.0046   -7.5702    0.0000 C   0  0  0  0  0  0  0  0  0  0  0  0
    1.8478   -9.0619    0.0000 O   0  0  0  0  0  0  0  0  0  0  0  0
    3.3037   -6.8202    0.0000 C   0  0  0  0  0  0  0  0  0  0  0  0
  1  2  1  0
  2  3  2  0
  2  4  1  0
  4  5  2  0
  5  6  1  0
  6  7  1  0
  7  8  1  0
  8  9  2  0
  9 10  1  0
 10 11  2  0
 11 12  1  0
 11 13  1  0
 13 14  1  0
 13 15  1  0
  5 16  1  0
 16 17  1  0
 17 18  2  0
 17 19  1  0
 19  4  1  0
 15  8  1  0
M  END
>  <Title>  (1211) 
idABSQgen6

$$$$

     RDKit          2D

  9  8  0  0  0  0  0  0  0  0999 V2000
    0.0000    0.0000    0.0000 C   0  0  0  0  0  0  0  0  0  0  0  0
    1.2990    0.7500    0.0000 C   0  0  0  0  0  0  0  0  0  0  0  0
    2.5981   -0.0000    0.0000 C   0  0  0  0  0  0  0  0  0  0  0  0
    3.8971    0.7500    0.0000 C   0  0  0  0  0  0  0  0  0  0  0  0
    3.1471    2.0490    0.0000 C   0  0  0  0  0  0  0  0  0  0  0  0
    4.6471   -0.5490    0.0000 C   0  0  0  0  0  0  0  0  0  0  0  0
    5.1962    1.5000    0.0000 C   0  0  0  0  0  0  0  0  0  0  0  0
    6.4952    2.2500    0.0000 C   0  0  0  0  0  0  0  0  0  0  0  0
    7.7942    3.0000    0.0000 N   0  0  0  0  0  0  0  0  0  0  0  0
  1  2  1  0
  2  3  2  3
  3  4  1  0
  4  5  1  0
  4  6  1  0
  4  7  1  0
  7  8  3  0
  8  9  1  0
M  END
>  <Title>  (1212) 
idABSRgen6

$$$$

     RDKit          2D

 12 12  0  0  0  0  0  0  0  0999 V2000
    5.0260   -1.2990    0.0000 C   0  0  0  0  0  0  0  0  0  0  0  0
    3.5260   -1.2990    0.0000 C   0  0  0  0  0  0  0  0  0  0  0  0
    2.7760   -2.5981    0.0000 O   0  0  0  0  0  0  0  0  0  0  0  0
    2.7760    0.0000    0.0000 O   0  0  0  0  0  0  0  0  0  0  0  0
    1.2760    0.0000    0.0000 C   0  0  0  0  0  0  0  0  0  0  0  0
    0.3943    1.2135    0.0000 C   0  0  0  0  0  0  0  0  0  0  0  0
   -1.0323    0.7500    0.0000 C   0  0  0  0  0  0  0  0  0  0  0  0
   -1.0323   -0.7500    0.0000 C   0  0  0  0  0  0  0  0  0  0  0  0
   -2.2458   -1.6317    0.0000 C   0  0  0  0  0  0  0  0  0  0  0  0
   -2.0890   -3.1235    0.0000 O   0  0  0  0  0  0  0  0  0  0  0  0
   -3.6161   -1.0216    0.0000 O   0  0  0  0  0  0  0  0  0  0  0  0
    0.3943   -1.2135    0.0000 C   0  0  0  0  0  0  0  0  0  0  0  0
  1  2  1  0
  2  3  2  0
  2  4  1  0
  4  5  1  0
  5  6  2  0
  6  7  1  0
  7  8  2  0
  8  9  1  0
  9 10  2  0
  9 11  1  0
  8 12  1  0
 12  5  1  0
M  END
>  <Title>  (1213) 
idABSSgen6

$$$$

     RDKit          2D

 24 25  0  0  0  0  0  0  0  0999 V2000
   -2.9692   -0.6259    0.0000 C   0  0  0  0  0  0  0  0  0  0  0  0
   -2.1358   -1.8731    0.0000 C   0  0  0  0  0  0  0  0  0  0  0  0
   -3.1965   -2.9337    0.0000 C   0  0  0  0  0  0  0  0  0  0  0  0
   -3.7705   -4.3195    0.0000 C   0  0  0  0  0  0  0  0  0  0  0  0
   -3.7705   -5.8195    0.0000 C   0  0  0  0  0  0  0  0  0  0  0  0
   -3.1965   -7.2054    0.0000 C   0  0  0  0  0  0  0  0  0  0  0  0
   -2.1358   -8.2660    0.0000 C   0  0  0  0  0  0  0  0  0  0  0  0
   -0.7500   -8.8400    0.0000 C   0  0  0  0  0  0  0  0  0  0  0  0
    0.7500   -8.8400    0.0000 C   0  0  0  0  0  0  0  0  0  0  0  0
    2.1358   -8.2660    0.0000 C   0  0  0  0  0  0  0  0  0  0  0  0
    3.1965   -7.2054    0.0000 C   0  0  0  0  0  0  0  0  0  0  0  0
    4.4437   -8.0387    0.0000 C   0  0  0  0  0  0  0  0  0  0  0  0
    4.3456   -9.5355    0.0000 C   0  0  0  0  0  0  0  0  0  0  0  0
    4.2475  -11.0323    0.0000 N   0  0  0  0  0  0  0  0  0  0  0  0
    3.7705   -5.8195    0.0000 C   0  0  0  0  0  0  0  0  0  0  0  0
    3.7705   -4.3195    0.0000 C   0  0  0  0  0  0  0  0  0  0  0  0
    3.1965   -2.9337    0.0000 C   0  0  0  0  0  0  0  0  0  0  0  0
    2.1358   -1.8731    0.0000 C   0  0  0  0  0  0  0  0  0  0  0  0
    0.7500   -1.2990    0.0000 C   0  0  0  0  0  0  0  0  0  0  0  0
    1.5000    0.0000    0.0000 C   0  0  0  0  0  0  0  0  0  0  0  0
    0.7500    1.2990    0.0000 C   0  0  0  0  0  0  0  0  0  0  0  0
   -0.7500    1.2990    0.0000 C   0  0  0  0  0  0  0  0  0  0  0  0
   -1.5000    0.0000    0.0000 C   0  0  0  0  0  0  0  0  0  0  0  0
   -0.7500   -1.2990    0.0000 C   0  0  0  0  0  0  0  0  0  0  0  0
  1  2  1  0
  2  3  1  0
  3  4  1  0
  4  5  1  0
  5  6  1  0
  6  7  1  0
  7  8  1  0
  8  9  1  0
  9 10  1  0
 10 11  1  0
 11 12  1  0
 12 13  1  0
 13 14  3  0
 11 15  1  0
 15 16  2  0
 16 17  1  0
 17 18  2  0
 18 19  1  0
 19 20  2  0
 20 21  1  0
 21 22  2  0
 22 23  1  0
 23 24  2  0
 24  2  1  0
 24 19  1  0
M  END
>  <Title>  (1214) 
idABSTgen6

$$$$

     RDKit          2D

 18 19  0  0  0  0  0  0  0  0999 V2000
    0.3207  -11.1638    0.0000 C   0  0  0  0  0  0  0  0  0  0  0  0
    0.4775   -9.6721    0.0000 C   0  0  0  0  0  0  0  0  0  0  0  0
   -0.7360   -8.7904    0.0000 O   0  0  0  0  0  0  0  0  0  0  0  0
    1.8478   -9.0619    0.0000 O   0  0  0  0  0  0  0  0  0  0  0  0
    2.0046   -7.5702    0.0000 C   0  0  0  0  0  0  0  0  0  0  0  0
    3.3037   -6.8202    0.0000 C   0  0  0  0  0  0  0  0  0  0  0  0
    2.9918   -5.3529    0.0000 C   0  0  0  0  0  0  0  0  0  0  0  0
    1.5000   -5.1962    0.0000 C   0  0  0  0  0  0  0  0  0  0  0  0
    0.7500   -3.8971    0.0000 C   0  0  0  0  0  0  0  0  0  0  0  0
   -0.7500   -3.8971    0.0000 O   0  0  0  0  0  0  0  0  0  0  0  0
    1.5000   -2.5981    0.0000 N   0  0  0  0  0  0  0  0  0  0  0  0
    0.7500   -1.2990    0.0000 C   0  0  0  0  0  0  0  0  0  0  0  0
    1.5000    0.0000    0.0000 N   0  0  0  0  0  0  0  0  0  0  0  0
    0.7500    1.2990    0.0000 N   0  0  0  0  0  0  0  0  0  0  0  0
   -0.7500    1.2990    0.0000 N   0  0  0  0  0  0  0  0  0  0  0  0
   -1.5000    0.0000    0.0000 N   0  0  0  0  0  0  0  0  0  0  0  0
   -0.7500   -1.2990    0.0000 N   0  0  0  0  0  0  0  0  0  0  0  0
    0.8899   -6.5665    0.0000 C   0  0  0  0  0  0  0  0  0  0  0  0
  1  2  1  0
  2  3  2  0
  2  4  1  0
  4  5  1  0
  5  6  2  0
  6  7  1  0
  7  8  2  0
  8  9  1  0
  9 10  2  0
  9 11  1  0
 11 12  1  0
 12 13  2  0
 13 14  1  0
 14 15  2  0
 15 16  1  0
 16 17  2  0
  8 18  1  0
 18  5  1  0
 17 12  1  0
M  END
>  <Title>  (1215) 
idABSUgen6

$$$$

     RDKit          2D

 10 11  0  0  0  0  0  0  0  0999 V2000
    1.5000    0.0000    0.0000 C   0  0  0  0  0  0  0  0  0  0  0  0
    0.7500   -1.2990    0.0000 C   0  0  0  0  0  0  0  0  0  0  0  0
   -0.7500   -1.2990    0.0000 C   0  0  0  0  0  0  0  0  0  0  0  0
   -1.5000    0.0000    0.0000 C   0  0  0  0  0  0  0  0  0  0  0  0
   -3.0000    0.0000    0.0000 C   0  0  0  0  0  0  0  0  0  0  0  0
   -3.7500    1.2990    0.0000 C   0  0  0  0  0  0  0  0  0  0  0  0
   -3.0000    2.5981    0.0000 C   0  0  0  0  0  0  0  0  0  0  0  0
   -1.5000    2.5981    0.0000 C   0  0  0  0  0  0  0  0  0  0  0  0
   -0.7500    1.2990    0.0000 C   0  0  0  0  0  0  0  0  0  0  0  0
    0.7500    1.2990    0.0000 C   0  0  0  0  0  0  0  0  0  0  0  0
  1  2  2  0
  2  3  1  0
  3  4  2  0
  4  5  1  0
  5  6  2  0
  6  7  1  0
  7  8  2  0
  8  9  1  0
  9 10  2  0
 10  1  1  0
  9  4  1  0
M  END
>  <Title>  (1216) 
idABSVgen6

$$$$

     RDKit          2D

 21 23  0  0  0  0  0  0  0  0999 V2000
    3.0000    0.0000    0.0000 C   0  0  0  0  0  0  0  0  0  0  0  0
    1.5000    0.0000    0.0000 C   0  0  0  0  0  0  0  0  0  0  0  0
    0.7500   -1.2990    0.0000 C   0  0  0  0  0  0  0  0  0  0  0  0
    1.5000   -2.5981    0.0000 C   0  0  0  0  0  0  0  0  0  0  0  0
    2.9918   -2.7549    0.0000 C   0  0  0  0  0  0  0  0  0  0  0  0
    3.3037   -4.2221    0.0000 C   0  0  0  0  0  0  0  0  0  0  0  0
    2.0046   -4.9721    0.0000 N   0  0  0  0  0  0  0  0  0  0  0  0
    1.8478   -6.4639    0.0000 C   0  0  0  0  0  0  0  0  0  0  0  0
    3.0613   -7.3456    0.0000 O   0  0  0  0  0  0  0  0  0  0  0  0
    0.4775   -7.0740    0.0000 C   0  0  0  0  0  0  0  0  0  0  0  0
   -0.7360   -6.1923    0.0000 C   0  0  0  0  0  0  0  0  0  0  0  0
   -2.1063   -6.8024    0.0000 C   0  0  0  0  0  0  0  0  0  0  0  0
   -2.2631   -8.2942    0.0000 C   0  0  0  0  0  0  0  0  0  0  0  0
   -1.0496   -9.1759    0.0000 C   0  0  0  0  0  0  0  0  0  0  0  0
    0.3207   -8.5658    0.0000 C   0  0  0  0  0  0  0  0  0  0  0  0
    0.8899   -3.9684    0.0000 C   0  0  0  0  0  0  0  0  0  0  0  0
   -0.7500   -1.2990    0.0000 C   0  0  0  0  0  0  0  0  0  0  0  0
   -1.5000    0.0000    0.0000 C   0  0  0  0  0  0  0  0  0  0  0  0
   -0.7500    1.2990    0.0000 C   0  0  0  0  0  0  0  0  0  0  0  0
    0.7500    1.2990    0.0000 C   0  0  0  0  0  0  0  0  0  0  0  0
    1.5000    2.5981    0.0000 C   0  0  0  0  0  0  0  0  0  0  0  0
  1  2  1  0
  2  3  2  0
  3  4  1  0
  4  5  1  0
  5  6  1  0
  6  7  1  0
  7  8  1  0
  8  9  2  0
  8 10  1  0
 10 11  2  0
 11 12  1  0
 12 13  2  0
 13 14  1  0
 14 15  2  0
  7 16  1  0
  3 17  1  0
 17 18  1  0
 18 19  1  0
 19 20  1  0
 20 21  1  0
 20  2  1  0
 16  4  1  0
 15 10  1  0
M  END
>  <Title>  (1217) 
idABSWgen6

$$$$

     RDKit          2D

 23 24  0  0  0  0  0  0  0  0999 V2000
    2.8213   -7.7711    0.0000 C   0  0  0  0  0  0  0  0  0  0  0  0
    3.3832   -6.3803    0.0000 O   0  0  0  0  0  0  0  0  0  0  0  0
    2.4597   -5.1983    0.0000 C   0  0  0  0  0  0  0  0  0  0  0  0
    1.0331   -5.6618    0.0000 C   0  0  0  0  0  0  0  0  0  0  0  0
   -0.3577   -5.0999    0.0000 C   0  0  0  0  0  0  0  0  0  0  0  0
   -1.0619   -3.7755    0.0000 C   0  0  0  0  0  0  0  0  0  0  0  0
   -0.7500   -2.3083    0.0000 C   0  0  0  0  0  0  0  0  0  0  0  0
    0.7500   -2.3083    0.0000 C   0  0  0  0  0  0  0  0  0  0  0  0
    1.9635   -1.4266    0.0000 C   0  0  0  0  0  0  0  0  0  0  0  0
    2.4271    0.0000    0.0000 C   0  0  0  0  0  0  0  0  0  0  0  0
    1.9635    1.4266    0.0000 C   0  0  0  0  0  0  0  0  0  0  0  0
    0.7500    2.3083    0.0000 C   0  0  0  0  0  0  0  0  0  0  0  0
   -0.7500    2.3083    0.0000 C   0  0  0  0  0  0  0  0  0  0  0  0
   -1.9635    1.4266    0.0000 C   0  0  0  0  0  0  0  0  0  0  0  0
   -2.4271    0.0000    0.0000 C   0  0  0  0  0  0  0  0  0  0  0  0
   -3.9271    0.0000    0.0000 C   0  0  0  0  0  0  0  0  0  0  0  0
   -4.6771   -1.2990    0.0000 O   0  0  0  0  0  0  0  0  0  0  0  0
   -4.6771    1.2990    0.0000 N   0  0  0  0  0  0  0  0  0  0  0  0
   -6.1771    1.2990    0.0000 C   0  0  0  0  0  0  0  0  0  0  0  0
   -3.9271    2.5981    0.0000 C   0  0  0  0  0  0  0  0  0  0  0  0
   -1.9635   -1.4266    0.0000 C   0  0  0  0  0  0  0  0  0  0  0  0
    3.0458   -2.4408    0.0000 C   0  0  0  0  0  0  0  0  0  0  0  0
    3.2546   -3.9262    0.0000 C   0  0  0  0  0  0  0  0  0  0  0  0
  1  2  1  0
  2  3  1  0
  3  4  2  0
  4  5  1  0
  5  6  1  0
  6  7  1  0
  7  8  1  0
  8  9  2  0
  9 10  1  0
 10 11  2  0
 11 12  1  0
 12 13  2  0
 13 14  1  0
 14 15  2  0
 15 16  1  0
 16 17  2  0
 16 18  1  0
 18 19  1  0
 18 20  1  0
 15 21  1  0
  9 22  1  0
 22 23  1  0
 23  3  1  0
 21  7  1  0
M  END
>  <Title>  (1218) 
idABSXgen6

$$$$

     RDKit          2D

  9  8  0  0  0  0  0  0  0  0999 V2000
    0.0000    0.0000    0.0000 C   0  0  0  0  0  0  0  0  0  0  0  0
    1.2990    0.7500    0.0000 C   0  0  0  0  0  0  0  0  0  0  0  0
    2.5981   -0.0000    0.0000 C   0  0  0  0  0  0  0  0  0  0  0  0
    3.8971    0.7500    0.0000 C   0  0  0  0  0  0  0  0  0  0  0  0
    5.1962    1.5000    0.0000 C   0  0  0  0  0  0  0  0  0  0  0  0
    6.4952    2.2500    0.0000 C   0  0  0  0  0  0  0  0  0  0  0  0
    7.7942    3.0000    0.0000 C   0  0  0  0  0  0  0  0  0  0  0  0
    9.0933    3.7500    0.0000 C   0  0  0  0  0  0  0  0  0  0  0  0
   10.3923    4.5000    0.0000 N   0  0  0  0  0  0  0  0  0  0  0  0
  1  2  1  0
  2  3  1  0
  3  4  1  0
  4  5  3  0
  5  6  1  0
  6  7  3  0
  7  8  1  0
  8  9  3  0
M  END
>  <Title>  (1219) 
idABSYgen6

$$$$

     RDKit          2D

 26 28  0  0  0  0  0  0  0  0999 V2000
   -6.0000   -5.1962    0.0000 C   0  0  0  0  0  0  0  0  0  0  0  0
   -5.2500   -3.8971    0.0000 C   0  0  0  0  0  0  0  0  0  0  0  0
   -6.0000   -2.5981    0.0000 O   0  0  0  0  0  0  0  0  0  0  0  0
   -3.7500   -3.8971    0.0000 C   0  0  0  0  0  0  0  0  0  0  0  0
   -3.0000   -2.5981    0.0000 C   0  0  0  0  0  0  0  0  0  0  0  0
   -1.5000   -2.5981    0.0000 C   0  0  0  0  0  0  0  0  0  0  0  0
   -0.7500   -3.8971    0.0000 C   0  0  0  0  0  0  0  0  0  0  0  0
    0.7500   -3.8971    0.0000 C   0  0  0  0  0  0  0  0  0  0  0  0
    1.5000   -2.5981    0.0000 C   0  0  0  0  0  0  0  0  0  0  0  0
    3.0000   -2.5981    0.0000 C   0  0  0  0  0  0  0  0  0  0  0  0
    3.7500   -1.2990    0.0000 O   0  0  0  0  0  0  0  0  0  0  0  0
    3.7500   -3.8971    0.0000 N   0  0  0  0  0  0  0  0  0  0  0  0
    5.2500   -3.8971    0.0000 C   0  0  0  0  0  0  0  0  0  0  0  0
    6.1317   -2.6836    0.0000 N   0  0  0  0  0  0  0  0  0  0  0  0
    7.5583   -3.1471    0.0000 N   0  0  0  0  0  0  0  0  0  0  0  0
    7.5583   -4.6471    0.0000 N   0  0  0  0  0  0  0  0  0  0  0  0
    6.1317   -5.1106    0.0000 N   0  0  0  0  0  0  0  0  0  0  0  0
    0.7500   -1.2990    0.0000 C   0  0  0  0  0  0  0  0  0  0  0  0
    1.5000    0.0000    0.0000 C   0  0  0  0  0  0  0  0  0  0  0  0
    0.7500    1.2990    0.0000 C   0  0  0  0  0  0  0  0  0  0  0  0
   -0.7500    1.2990    0.0000 C   0  0  0  0  0  0  0  0  0  0  0  0
   -1.5000    0.0000    0.0000 C   0  0  0  0  0  0  0  0  0  0  0  0
   -0.7500   -1.2990    0.0000 C   0  0  0  0  0  0  0  0  0  0  0  0
   -3.0000   -5.1962    0.0000 C   0  0  0  0  0  0  0  0  0  0  0  0
   -1.5000   -5.1962    0.0000 O   0  0  0  0  0  0  0  0  0  0  0  0
   -3.7500   -6.4952    0.0000 O   0  0  0  0  0  0  0  0  0  0  0  0
  1  2  1  0
  2  3  2  0
  2  4  1  0
  4  5  1  0
  5  6  1  0
  6  7  2  0
  7  8  1  0
  8  9  2  0
  9 10  1  0
 10 11  2  0
 10 12  1  0
 12 13  1  0
 13 14  2  0
 14 15  1  0
 15 16  2  0
 16 17  1  0
  9 18  1  0
 18 19  2  0
 19 20  1  0
 20 21  2  0
 21 22  1  0
 22 23  2  0
  4 24  1  0
 24 25  2  0
 24 26  1  0
 23  6  1  0
 17 13  1  0
 23 18  1  0
M  END
>  <Title>  (1220) 
idABSZgen6

$$$$

     RDKit          2D

 26 29  0  0  0  0  0  0  0  0999 V2000
    3.7500   -6.4952    0.0000 O   0  0  0  0  0  0  0  0  0  0  0  0
    3.0000   -5.1962    0.0000 C   0  0  0  0  0  0  0  0  0  0  0  0
    1.5000   -5.1962    0.0000 N   0  0  0  0  0  0  0  0  0  0  0  0
    0.7500   -6.4952    0.0000 C   0  0  0  0  0  0  0  0  0  0  0  0
    1.3601   -7.8655    0.0000 N   0  0  0  0  0  0  0  0  0  0  0  0
    0.2454   -8.8692    0.0000 N   0  0  0  0  0  0  0  0  0  0  0  0
   -1.0537   -8.1192    0.0000 N   0  0  0  0  0  0  0  0  0  0  0  0
   -0.7418   -6.6520    0.0000 N   0  0  0  0  0  0  0  0  0  0  0  0
   -1.7455   -5.5373    0.0000 N   0  0  0  0  0  0  0  0  0  0  0  0
   -1.4336   -4.0700    0.0000 C   0  0  0  0  0  0  0  0  0  0  0  0
   -2.7326   -3.3200    0.0000 C   0  0  0  0  0  0  0  0  0  0  0  0
   -3.8474   -4.3237    0.0000 C   0  0  0  0  0  0  0  0  0  0  0  0
   -5.3146   -4.0119    0.0000 N   0  0  0  0  0  0  0  0  0  0  0  0
   -5.9247   -2.6416    0.0000 C   0  0  0  0  0  0  0  0  0  0  0  0
   -7.4165   -2.7983    0.0000 C   0  0  0  0  0  0  0  0  0  0  0  0
   -7.7283   -4.2656    0.0000 C   0  0  0  0  0  0  0  0  0  0  0  0
   -6.4293   -5.0156    0.0000 C   0  0  0  0  0  0  0  0  0  0  0  0
   -3.2373   -5.6941    0.0000 C   0  0  0  0  0  0  0  0  0  0  0  0
    3.7500   -3.8971    0.0000 C   0  0  0  0  0  0  0  0  0  0  0  0
    3.0000   -2.5981    0.0000 O   0  0  0  0  0  0  0  0  0  0  0  0
    5.2500   -3.8971    0.0000 C   0  0  0  0  0  0  0  0  0  0  0  0
    6.0000   -2.5981    0.0000 C   0  0  0  0  0  0  0  0  0  0  0  0
    7.5000   -2.5981    0.0000 C   0  0  0  0  0  0  0  0  0  0  0  0
    8.2500   -3.8971    0.0000 C   0  0  0  0  0  0  0  0  0  0  0  0
    7.5000   -5.1962    0.0000 C   0  0  0  0  0  0  0  0  0  0  0  0
    6.0000   -5.1962    0.0000 C   0  0  0  0  0  0  0  0  0  0  0  0
  1  2  2  0
  2  3  1  0
  3  4  1  0
  4  5  2  0
  5  6  1  0
  6  7  2  0
  7  8  1  0
  8  9  1  0
  9 10  1  0
 10 11  1  0
 11 12  1  0
 12 13  1  0
 13 14  1  0
 14 15  1  0
 15 16  1  0
 16 17  1  0
 12 18  1  0
  2 19  1  0
 19 20  2  0
 19 21  1  0
 21 22  2  0
 22 23  1  0
 23 24  2  0
 24 25  1  0
 25 26  1  0
  8  4  1  0
 18  9  1  0
 26 21  1  0
 17 13  1  0
M  END
>  <Title>  (1221) 
idABTAgen6

$$$$

     RDKit          2D

 13 13  0  0  0  0  0  0  0  0999 V2000
    2.5607    0.0000    0.0000 C   0  0  0  0  0  0  0  0  0  0  0  0
    1.0607    0.0000    0.0000 C   0  0  0  0  0  0  0  0  0  0  0  0
   -0.0000   -1.0607    0.0000 C   0  0  0  0  0  0  0  0  0  0  0  0
   -1.0607    0.0000    0.0000 C   0  0  0  0  0  0  0  0  0  0  0  0
   -2.5607    0.0000    0.0000 C   0  0  0  0  0  0  0  0  0  0  0  0
   -3.3107   -1.2990    0.0000 O   0  0  0  0  0  0  0  0  0  0  0  0
   -3.3107    1.2990    0.0000 O   0  0  0  0  0  0  0  0  0  0  0  0
    0.0000    1.0607    0.0000 C   0  0  0  0  0  0  0  0  0  0  0  0
    0.0000    2.5607    0.0000 C   0  0  0  0  0  0  0  0  0  0  0  0
    1.2990    3.3107    0.0000 C   0  0  0  0  0  0  0  0  0  0  0  0
    1.2990    4.8107    0.0000 C   0  0  0  0  0  0  0  0  0  0  0  0
   -0.0000    5.5607    0.0000 O   0  0  0  0  0  0  0  0  0  0  0  0
    2.5981    5.5607    0.0000 O   0  0  0  0  0  0  0  0  0  0  0  0
  1  2  1  0
  2  3  2  0
  3  4  1  0
  4  5  1  0
  5  6  2  0
  5  7  1  0
  4  8  1  0
  8  9  1  0
  9 10  1  0
 10 11  1  0
 11 12  2  0
 11 13  1  0
  8  2  1  0
M  END
>  <Title>  (1222) 
idABTBgen6

$$$$

     RDKit          2D

 17 17  0  0  0  0  0  0  0  0999 V2000
    4.0816    0.0000    0.0000 C   0  0  0  0  0  0  0  0  0  0  0  0
    3.8060    1.4745    0.0000 C   0  0  0  0  0  0  0  0  0  0  0  0
    3.0164    2.7498    0.0000 C   0  0  0  0  0  0  0  0  0  0  0  0
    1.8193    3.6537    0.0000 C   0  0  0  0  0  0  0  0  0  0  0  0
    0.3766    4.0642    0.0000 C   0  0  0  0  0  0  0  0  0  0  0  0
   -1.1170    3.9258    0.0000 C   0  0  0  0  0  0  0  0  0  0  0  0
   -2.4597    3.2572    0.0000 C   0  0  0  0  0  0  0  0  0  0  0  0
   -3.4703    2.1487    0.0000 C   0  0  0  0  0  0  0  0  0  0  0  0
   -4.0121    0.7500    0.0000 C   0  0  0  0  0  0  0  0  0  0  0  0
   -4.0121   -0.7500    0.0000 C   0  0  0  0  0  0  0  0  0  0  0  0
   -3.4703   -2.1487    0.0000 C   0  0  0  0  0  0  0  0  0  0  0  0
   -2.4597   -3.2572    0.0000 C   0  0  0  0  0  0  0  0  0  0  0  0
   -1.1170   -3.9258    0.0000 C   0  0  0  0  0  0  0  0  0  0  0  0
    0.3766   -4.0642    0.0000 C   0  0  0  0  0  0  0  0  0  0  0  0
    1.8193   -3.6537    0.0000 C   0  0  0  0  0  0  0  0  0  0  0  0
    3.0164   -2.7498    0.0000 C   0  0  0  0  0  0  0  0  0  0  0  0
    3.8060   -1.4745    0.0000 C   0  0  0  0  0  0  0  0  0  0  0  0
  1  2  2  0
  2  3  1  0
  3  4  1  0
  4  5  1  0
  5  6  1  0
  6  7  1  0
  7  8  1  0
  8  9  1  0
  9 10  1  0
 10 11  1  0
 11 12  1  0
 12 13  1  0
 13 14  1  0
 14 15  1  0
 15 16  1  0
 16 17  2  0
 17  1  1  0
M  END
>  <Title>  (1223) 
idABTCgen6

$$$$

     RDKit          2D

 17 18  0  0  0  0  0  0  0  0999 V2000
    0.4775   -9.6721    0.0000 C   0  0  0  0  0  0  0  0  0  0  0  0
    1.8478   -9.0619    0.0000 O   0  0  0  0  0  0  0  0  0  0  0  0
    2.0046   -7.5702    0.0000 C   0  0  0  0  0  0  0  0  0  0  0  0
    3.3037   -6.8202    0.0000 C   0  0  0  0  0  0  0  0  0  0  0  0
    2.9918   -5.3529    0.0000 C   0  0  0  0  0  0  0  0  0  0  0  0
    1.5000   -5.1962    0.0000 C   0  0  0  0  0  0  0  0  0  0  0  0
    0.7500   -3.8971    0.0000 C   0  0  0  0  0  0  0  0  0  0  0  0
   -0.7500   -3.8971    0.0000 O   0  0  0  0  0  0  0  0  0  0  0  0
    1.5000   -2.5981    0.0000 N   0  0  0  0  0  0  0  0  0  0  0  0
    0.7500   -1.2990    0.0000 C   0  0  0  0  0  0  0  0  0  0  0  0
    1.5000    0.0000    0.0000 N   0  0  0  0  0  0  0  0  0  0  0  0
    0.7500    1.2990    0.0000 N   0  0  0  0  0  0  0  0  0  0  0  0
   -0.7500    1.2990    0.0000 N   0  0  0  0  0  0  0  0  0  0  0  0
   -1.5000    0.0000    0.0000 N   0  0  0  0  0  0  0  0  0  0  0  0
   -0.7500   -1.2990    0.0000 N   0  0  0  0  0  0  0  0  0  0  0  0
    0.8899   -6.5665    0.0000 C   0  0  0  0  0  0  0  0  0  0  0  0
   -0.5773   -6.8783    0.0000 O   0  0  0  0  0  0  0  0  0  0  0  0
  1  2  1  0
  2  3  1  0
  3  4  1  0
  4  5  2  0
  5  6  1  0
  6  7  1  0
  7  8  2  0
  7  9  1  0
  9 10  1  0
 10 11  2  0
 11 12  1  0
 12 13  2  0
 13 14  1  0
 14 15  2  0
  6 16  1  0
 16 17  2  0
 16  3  1  0
 15 10  1  0
M  END
>  <Title>  (1224) 
idABTDgen6

$$$$

     RDKit          2D

 31 31  0  0  0  0  0  0  0  0999 V2000
    7.4134    0.0000    0.0000 C   0  0  0  0  0  0  0  0  0  0  0  0
    7.2616    1.4923    0.0000 C   0  0  0  0  0  0  0  0  0  0  0  0
    6.8126    2.9235    0.0000 C   0  0  0  0  0  0  0  0  0  0  0  0
    6.0846    4.2350    0.0000 C   0  0  0  0  0  0  0  0  0  0  0  0
    5.1076    5.3732    0.0000 C   0  0  0  0  0  0  0  0  0  0  0  0
    3.9214    6.2913    0.0000 C   0  0  0  0  0  0  0  0  0  0  0  0
    2.5747    6.9519    0.0000 C   0  0  0  0  0  0  0  0  0  0  0  0
    1.1226    7.3279    0.0000 C   0  0  0  0  0  0  0  0  0  0  0  0
   -0.3755    7.4039    0.0000 C   0  0  0  0  0  0  0  0  0  0  0  0
   -1.8582    7.1767    0.0000 C   0  0  0  0  0  0  0  0  0  0  0  0
   -3.2648    6.6558    0.0000 C   0  0  0  0  0  0  0  0  0  0  0  0
   -4.5378    5.8623    0.0000 C   0  0  0  0  0  0  0  0  0  0  0  0
   -5.6250    4.8289    0.0000 C   0  0  0  0  0  0  0  0  0  0  0  0
   -6.4819    3.5977    0.0000 C   0  0  0  0  0  0  0  0  0  0  0  0
   -7.0734    2.2193    0.0000 C   0  0  0  0  0  0  0  0  0  0  0  0
   -7.3754    0.7500    0.0000 C   0  0  0  0  0  0  0  0  0  0  0  0
   -7.3754   -0.7500    0.0000 N   0  0  0  0  0  0  0  0  0  0  0  0
   -7.0734   -2.2193    0.0000 C   0  0  0  0  0  0  0  0  0  0  0  0
   -6.4819   -3.5977    0.0000 C   0  0  0  0  0  0  0  0  0  0  0  0
   -5.6250   -4.8289    0.0000 C   0  0  0  0  0  0  0  0  0  0  0  0
   -4.5378   -5.8623    0.0000 C   0  0  0  0  0  0  0  0  0  0  0  0
   -3.2648   -6.6558    0.0000 C   0  0  0  0  0  0  0  0  0  0  0  0
   -1.8582   -7.1767    0.0000 C   0  0  0  0  0  0  0  0  0  0  0  0
   -0.3755   -7.4039    0.0000 C   0  0  0  0  0  0  0  0  0  0  0  0
    1.1226   -7.3279    0.0000 C   0  0  0  0  0  0  0  0  0  0  0  0
    2.5747   -6.9519    0.0000 C   0  0  0  0  0  0  0  0  0  0  0  0
    3.9214   -6.2913    0.0000 C   0  0  0  0  0  0  0  0  0  0  0  0
    5.1076   -5.3732    0.0000 C   0  0  0  0  0  0  0  0  0  0  0  0
    6.0846   -4.2350    0.0000 C   0  0  0  0  0  0  0  0  0  0  0  0
    6.8126   -2.9235    0.0000 C   0  0  0  0  0  0  0  0  0  0  0  0
    7.2616   -1.4923    0.0000 C   0  0  0  0  0  0  0  0  0  0  0  0
  1  2  1  0
  2  3  1  0
  3  4  1  0
  4  5  1  0
  5  6  1  0
  6  7  1  0
  7  8  1  0
  8  9  1  0
  9 10  1  0
 10 11  1  0
 11 12  1  0
 12 13  1  0
 13 14  1  0
 14 15  1  0
 15 16  1  0
 16 17  1  0
 17 18  1  0
 18 19  1  0
 19 20  1  0
 20 21  1  0
 21 22  1  0
 22 23  1  0
 23 24  1  0
 24 25  1  0
 25 26  1  0
 26 27  1  0
 27 28  1  0
 28 29  1  0
 29 30  1  0
 30 31  1  0
 31  1  1  0
M  END
>  <Title>  (1225) 
idABTEgen6

$$$$

     RDKit          2D

 26 29  0  0  0  0  0  0  0  0999 V2000
   -3.1965   -4.4337    0.0000 C   0  0  0  0  0  0  0  0  0  0  0  0
   -1.8107   -3.8597    0.0000 C   0  0  0  0  0  0  0  0  0  0  0  0
   -0.7500   -4.9204    0.0000 C   0  0  0  0  0  0  0  0  0  0  0  0
    0.7500   -4.9204    0.0000 C   0  0  0  0  0  0  0  0  0  0  0  0
    1.3240   -6.3062    0.0000 C   0  0  0  0  0  0  0  0  0  0  0  0
    0.4109   -7.4962    0.0000 C   0  0  0  0  0  0  0  0  0  0  0  0
    0.9849   -8.8820    0.0000 C   0  0  0  0  0  0  0  0  0  0  0  0
    2.4721   -9.0778    0.0000 C   0  0  0  0  0  0  0  0  0  0  0  0
    3.0461  -10.4636    0.0000 O   0  0  0  0  0  0  0  0  0  0  0  0
    3.3852   -7.8878    0.0000 C   0  0  0  0  0  0  0  0  0  0  0  0
    2.8112   -6.5020    0.0000 C   0  0  0  0  0  0  0  0  0  0  0  0
    1.8107   -3.8597    0.0000 C   0  0  0  0  0  0  0  0  0  0  0  0
    3.1097   -4.6097    0.0000 C   0  0  0  0  0  0  0  0  0  0  0  0
    4.4087   -3.8597    0.0000 C   0  0  0  0  0  0  0  0  0  0  0  0
    4.4087   -2.3597    0.0000 C   0  0  0  0  0  0  0  0  0  0  0  0
    5.7078   -1.6097    0.0000 C   0  0  0  0  0  0  0  0  0  0  0  0
    7.0068   -0.8597    0.0000 N   0  0  0  0  0  0  0  0  0  0  0  0
    3.1097   -1.6097    0.0000 C   0  0  0  0  0  0  0  0  0  0  0  0
    1.8107   -2.3597    0.0000 C   0  0  0  0  0  0  0  0  0  0  0  0
    0.7500   -1.2990    0.0000 C   0  0  0  0  0  0  0  0  0  0  0  0
    1.5000    0.0000    0.0000 C   0  0  0  0  0  0  0  0  0  0  0  0
    0.7500    1.2990    0.0000 C   0  0  0  0  0  0  0  0  0  0  0  0
   -0.7500    1.2990    0.0000 C   0  0  0  0  0  0  0  0  0  0  0  0
   -1.5000    0.0000    0.0000 C   0  0  0  0  0  0  0  0  0  0  0  0
   -0.7500   -1.2990    0.0000 C   0  0  0  0  0  0  0  0  0  0  0  0
   -1.8107   -2.3597    0.0000 C   0  0  0  0  0  0  0  0  0  0  0  0
  1  2  1  0
  2  3  2  0
  3  4  1  0
  4  5  1  0
  5  6  2  0
  6  7  1  0
  7  8  2  0
  8  9  1  0
  8 10  1  0
 10 11  2  0
  4 12  1  0
 12 13  2  0
 13 14  1  0
 14 15  2  0
 15 16  1  0
 16 17  3  0
 15 18  1  0
 18 19  2  0
 19 20  1  0
 20 21  2  0
 21 22  1  0
 22 23  2  0
 23 24  1  0
 24 25  2  0
 25 26  1  0
 26  2  1  0
 11  5  1  0
 19 12  1  0
 25 20  1  0
M  END
>  <Title>  (1226) 
idABTFgen6

$$$$

     RDKit          2D

 35 38  0  0  0  0  0  0  0  0999 V2000
   -2.7215   -8.6567    0.0000 C   0  0  0  0  0  0  0  0  0  0  0  0
   -3.1097   -7.2078    0.0000 C   0  0  0  0  0  0  0  0  0  0  0  0
   -4.6095   -7.1817    0.0000 O   0  0  0  0  0  0  0  0  0  0  0  0
   -2.0490   -6.1471    0.0000 C   0  0  0  0  0  0  0  0  0  0  0  0
   -2.7990   -4.8481    0.0000 C   0  0  0  0  0  0  0  0  0  0  0  0
   -4.1109   -5.5754    0.0000 O   0  0  0  0  0  0  0  0  0  0  0  0
   -2.7990   -3.3481    0.0000 N   0  0  0  0  0  0  0  0  0  0  0  0
   -2.0490   -2.0490    0.0000 C   0  0  0  0  0  0  0  0  0  0  0  0
   -2.5851   -3.3242    0.0000 N   0  0  0  0  0  0  0  0  0  0  0  0
   -3.7062   -4.2736    0.0000 N   0  0  0  0  0  0  0  0  0  0  0  0
   -3.9232   -5.7265    0.0000 N   0  0  0  0  0  0  0  0  0  0  0  0
   -4.7252   -6.8536    0.0000 N   0  0  0  0  0  0  0  0  0  0  0  0
   -6.2174   -7.0058    0.0000 C   0  0  0  0  0  0  0  0  0  0  0  0
   -6.5338   -8.4720    0.0000 C   0  0  0  0  0  0  0  0  0  0  0  0
   -7.9060   -9.0779    0.0000 O   0  0  0  0  0  0  0  0  0  0  0  0
   -5.2371   -9.2260    0.0000 N   0  0  0  0  0  0  0  0  0  0  0  0
   -4.1193   -8.2258    0.0000 C   0  0  0  0  0  0  0  0  0  0  0  0
   -3.0586   -9.2864    0.0000 C   0  0  0  0  0  0  0  0  0  0  0  0
   -1.6864   -9.8923    0.0000 C   0  0  0  0  0  0  0  0  0  0  0  0
   -0.1880   -9.9616    0.0000 C   0  0  0  0  0  0  0  0  0  0  0  0
    1.2342   -9.4849    0.0000 C   0  0  0  0  0  0  0  0  0  0  0  0
    2.3882   -8.5266    0.0000 C   0  0  0  0  0  0  0  0  0  0  0  0
    2.0490   -6.1471    0.0000 C   0  0  0  0  0  0  0  0  0  0  0  0
    2.7990   -4.8481    0.0000 N   0  0  0  0  0  0  0  0  0  0  0  0
    2.7990   -3.3481    0.0000 N   0  0  0  0  0  0  0  0  0  0  0  0
    2.0490   -2.0490    0.0000 N   0  0  0  0  0  0  0  0  0  0  0  0
    0.7500   -1.2990    0.0000 C   0  0  0  0  0  0  0  0  0  0  0  0
    1.5000    0.0000    0.0000 C   0  0  0  0  0  0  0  0  0  0  0  0
    0.7500    1.2990    0.0000 C   0  0  0  0  0  0  0  0  0  0  0  0
   -0.7500    1.2990    0.0000 C   0  0  0  0  0  0  0  0  0  0  0  0
   -1.5000    0.0000    0.0000 C   0  0  0  0  0  0  0  0  0  0  0  0
   -0.7500   -1.2990    0.0000 C   0  0  0  0  0  0  0  0  0  0  0  0
    0.7500   -6.8971    0.0000 O   0  0  0  0  0  0  0  0  0  0  0  0
   -0.7500   -6.8971    0.0000 C   0  0  0  0  0  0  0  0  0  0  0  0
   -1.1382   -8.3460    0.0000 O   0  0  0  0  0  0  0  0  0  0  0  0
  1  2  1  0
  2  3  2  0
  2  4  1  0
  4  5  1  0
  5  6  2  0
  5  7  1  0
  7  8  1  0
  8  9  2  0
  9 10  1  0
 10 11  2  0
 11 12  1  0
 12 13  1  0
 13 14  1  0
 14 15  2  0
 14 16  1  0
 16 17  1  0
 17 18  2  0
 18 19  1  0
 19 20  2  0
 20 21  1  0
 21 22  2  0
 22 23  1  0
 23 24  2  0
 24 25  1  0
 25 26  2  0
 26 27  1  0
 27 28  2  0
 28 29  1  0
 29 30  2  0
 30 31  1  0
 31 32  2  0
 23 33  1  0
 33 34  1  0
 34 35  2  0
 34  4  1  0
 32  8  1  0
 17 12  1  0
 32 27  1  0
M  END
>  <Title>  (1227) 
idABTGgen6

$$$$

     RDKit          2D

 41 46  0  0  0  0  0  0  0  0999 V2000
   -4.4938   -0.8524    0.0000 C   0  0  0  0  0  0  0  0  0  0  0  0
   -3.0020   -0.6956    0.0000 O   0  0  0  0  0  0  0  0  0  0  0  0
   -2.1203   -1.9091    0.0000 C   0  0  0  0  0  0  0  0  0  0  0  0
   -3.1240   -3.0239    0.0000 C   0  0  0  0  0  0  0  0  0  0  0  0
   -3.5875   -4.4504    0.0000 C   0  0  0  0  0  0  0  0  0  0  0  0
   -3.4307   -5.9422    0.0000 C   0  0  0  0  0  0  0  0  0  0  0  0
   -2.6807   -7.2413    0.0000 C   0  0  0  0  0  0  0  0  0  0  0  0
   -1.4672   -8.1229    0.0000 C   0  0  0  0  0  0  0  0  0  0  0  0
   -0.0000   -8.4348    0.0000 C   0  0  0  0  0  0  0  0  0  0  0  0
    1.4672   -8.1229    0.0000 C   0  0  0  0  0  0  0  0  0  0  0  0
    2.6807   -7.2413    0.0000 C   0  0  0  0  0  0  0  0  0  0  0  0
    3.6844   -8.3560    0.0000 C   0  0  0  0  0  0  0  0  0  0  0  0
    5.0548   -7.7459    0.0000 C   0  0  0  0  0  0  0  0  0  0  0  0
    4.8980   -6.2541    0.0000 C   0  0  0  0  0  0  0  0  0  0  0  0
    3.4307   -5.9422    0.0000 C   0  0  0  0  0  0  0  0  0  0  0  0
    3.5875   -4.4504    0.0000 C   0  0  0  0  0  0  0  0  0  0  0  0
    5.0141   -3.9869    0.0000 C   0  0  0  0  0  0  0  0  0  0  0  0
    4.5506   -2.5603    0.0000 C   0  0  0  0  0  0  0  0  0  0  0  0
    3.1240   -3.0239    0.0000 C   0  0  0  0  0  0  0  0  0  0  0  0
    2.1203   -1.9091    0.0000 C   0  0  0  0  0  0  0  0  0  0  0  0
    3.0020   -0.6956    0.0000 N   0  0  0  0  0  0  0  0  0  0  0  0
    2.5385    0.7310    0.0000 C   0  0  0  0  0  0  0  0  0  0  0  0
    3.7520    1.6126    0.0000 C   0  0  0  0  0  0  0  0  0  0  0  0
    4.9655    0.7310    0.0000 C   0  0  0  0  0  0  0  0  0  0  0  0
    6.3921    1.1945    0.0000 C   0  0  0  0  0  0  0  0  0  0  0  0
    6.7040    2.6617    0.0000 O   0  0  0  0  0  0  0  0  0  0  0  0
    7.5068    0.1908    0.0000 N   0  0  0  0  0  0  0  0  0  0  0  0
    8.9334    0.6543    0.0000 C   0  0  0  0  0  0  0  0  0  0  0  0
   10.0481   -0.3494    0.0000 N   0  0  0  0  0  0  0  0  0  0  0  0
   11.4747    0.1142    0.0000 N   0  0  0  0  0  0  0  0  0  0  0  0
   11.7866    1.5814    0.0000 N   0  0  0  0  0  0  0  0  0  0  0  0
   10.6719    2.5851    0.0000 N   0  0  0  0  0  0  0  0  0  0  0  0
    9.2453    2.1215    0.0000 N   0  0  0  0  0  0  0  0  0  0  0  0
    4.5020   -0.6956    0.0000 C   0  0  0  0  0  0  0  0  0  0  0  0
    5.3837   -1.9091    0.0000 O   0  0  0  0  0  0  0  0  0  0  0  0
    0.7500   -1.2990    0.0000 C   0  0  0  0  0  0  0  0  0  0  0  0
    1.5000    0.0000    0.0000 C   0  0  0  0  0  0  0  0  0  0  0  0
    0.7500    1.2990    0.0000 C   0  0  0  0  0  0  0  0  0  0  0  0
   -0.7500    1.2990    0.0000 C   0  0  0  0  0  0  0  0  0  0  0  0
   -1.5000    0.0000    0.0000 C   0  0  0  0  0  0  0  0  0  0  0  0
   -0.7500   -1.2990    0.0000 C   0  0  0  0  0  0  0  0  0  0  0  0
  1  2  1  0
  2  3  1  0
  3  4  1  0
  4  5  2  0
  5  6  1  0
  6  7  2  0
  7  8  1  0
  8  9  2  0
  9 10  1  0
 10 11  2  0
 11 12  1  0
 12 13  2  0
 13 14  1  0
 14 15  2  0
 15 16  1  0
 16 17  2  0
 17 18  1  0
 18 19  2  0
 19 20  1  0
 20 21  1  0
 21 22  1  0
 22 23  1  0
 23 24  1  0
 24 25  1  0
 25 26  2  0
 25 27  1  0
 27 28  1  0
 28 29  2  0
 29 30  1  0
 30 31  2  0
 31 32  1  0
 32 33  2  0
 24 34  1  0
 34 35  2  0
 20 36  1  0
 36 37  2  0
 37 38  1  0
 38 39  2  0
 39 40  1  0
 40 41  2  0
 41  3  1  0
 15 11  1  0
 19 16  1  0
 34 21  1  0
 41 36  1  0
 33 28  1  0
M  END
>  <Title>  (1228) 
idABTHgen6

$$$$

     RDKit          2D

  8  7  0  0  0  0  0  0  0  0999 V2000
    0.0000    0.0000    0.0000 C   0  0  0  0  0  0  0  0  0  0  0  0
   -0.0000   -1.5000    0.0000 C   0  0  0  0  0  0  0  0  0  0  0  0
   -0.0000   -3.0000    0.0000 C   0  0  0  0  0  0  0  0  0  0  0  0
   -0.0000   -4.5000    0.0000 C   0  0  0  0  0  0  0  0  0  0  0  0
   -0.0000   -6.0000    0.0000 C   0  0  0  0  0  0  0  0  0  0  0  0
    1.5000   -6.0000    0.0000 C   0  0  0  0  0  0  0  0  0  0  0  0
   -1.5000   -6.0000    0.0000 C   0  0  0  0  0  0  0  0  0  0  0  0
   -0.0000   -7.5000    0.0000 C   0  0  0  0  0  0  0  0  0  0  0  0
  1  2  3  0
  2  3  1  0
  3  4  3  0
  4  5  1  0
  5  6  1  0
  5  7  1  0
  5  8  1  0
M  END
>  <Title>  (1229) 
idABTIgen6

$$$$

     RDKit          2D

 36 38  0  0  0  0  0  0  0  0999 V2000
    3.2286   -0.0000    0.0000 C   0  0  0  0  0  0  0  0  0  0  0  0
    1.7286    0.0000    0.0000 C   0  0  0  0  0  0  0  0  0  0  0  0
    1.0777    1.3515    0.0000 C   0  0  0  0  0  0  0  0  0  0  0  0
   -0.3846    1.6852    0.0000 C   0  0  0  0  0  0  0  0  0  0  0  0
   -1.5574    0.7500    0.0000 C   0  0  0  0  0  0  0  0  0  0  0  0
   -2.9088    1.4008    0.0000 N   0  0  0  0  0  0  0  0  0  0  0  0
   -4.0816    0.4656    0.0000 C   0  0  0  0  0  0  0  0  0  0  0  0
   -5.5440    0.7994    0.0000 C   0  0  0  0  0  0  0  0  0  0  0  0
   -6.1948    2.1508    0.0000 C   0  0  0  0  0  0  0  0  0  0  0  0
   -7.6948    2.1508    0.0000 C   0  0  0  0  0  0  0  0  0  0  0  0
   -8.4448    0.8518    0.0000 O   0  0  0  0  0  0  0  0  0  0  0  0
   -8.4448    3.4499    0.0000 N   0  0  0  0  0  0  0  0  0  0  0  0
   -9.9448    3.4499    0.0000 C   0  0  0  0  0  0  0  0  0  0  0  0
   -7.6948    4.7489    0.0000 C   0  0  0  0  0  0  0  0  0  0  0  0
   -8.4448    6.0479    0.0000 C   0  0  0  0  0  0  0  0  0  0  0  0
   -9.1948    7.3470    0.0000 C   0  0  0  0  0  0  0  0  0  0  0  0
   -9.9448    8.6460    0.0000 C   0  0  0  0  0  0  0  0  0  0  0  0
   -8.6458    9.3960    0.0000 C   0  0  0  0  0  0  0  0  0  0  0  0
  -11.2438    7.8960    0.0000 C   0  0  0  0  0  0  0  0  0  0  0  0
  -10.6948    9.9451    0.0000 C   0  0  0  0  0  0  0  0  0  0  0  0
   -5.5440    3.5023    0.0000 C   0  0  0  0  0  0  0  0  0  0  0  0
   -4.0816    3.8361    0.0000 C   0  0  0  0  0  0  0  0  0  0  0  0
   -2.9088    2.9008    0.0000 C   0  0  0  0  0  0  0  0  0  0  0  0
   -1.5574    3.5517    0.0000 O   0  0  0  0  0  0  0  0  0  0  0  0
   -1.5574   -0.7500    0.0000 C   0  0  0  0  0  0  0  0  0  0  0  0
   -0.3846   -1.6852    0.0000 C   0  0  0  0  0  0  0  0  0  0  0  0
    1.0777   -1.3515    0.0000 C   0  0  0  0  0  0  0  0  0  0  0  0
    2.0130   -2.5242    0.0000 C   0  0  0  0  0  0  0  0  0  0  0  0
    3.4962   -2.3006    0.0000 O   0  0  0  0  0  0  0  0  0  0  0  0
    1.4650   -3.9205    0.0000 O   0  0  0  0  0  0  0  0  0  0  0  0
    2.4002   -5.0933    0.0000 C   0  0  0  0  0  0  0  0  0  0  0  0
    1.8522   -6.4896    0.0000 C   0  0  0  0  0  0  0  0  0  0  0  0
    2.7874   -7.6623    0.0000 C   0  0  0  0  0  0  0  0  0  0  0  0
    4.2707   -7.4388    0.0000 C   0  0  0  0  0  0  0  0  0  0  0  0
    4.8187   -6.0424    0.0000 C   0  0  0  0  0  0  0  0  0  0  0  0
    3.8835   -4.8697    0.0000 C   0  0  0  0  0  0  0  0  0  0  0  0
  1  2  1  0
  2  3  2  0
  3  4  1  0
  4  5  2  0
  5  6  1  0
  6  7  1  0
  7  8  1  0
  8  9  1  0
  9 10  1  0
 10 11  2  0
 10 12  1  0
 12 13  1  0
 12 14  1  0
 14 15  1  0
 15 16  3  0
 16 17  1  0
 17 18  1  0
 17 19  1  0
 17 20  1  0
  9 21  1  0
 21 22  1  0
 22 23  1  0
 23 24  2  0
  5 25  1  0
 25 26  1  0
 26 27  1  0
 27 28  1  0
 28 29  2  0
 28 30  1  0
 30 31  1  0
 31 32  2  0
 32 33  1  0
 33 34  2  0
 34 35  1  0
 35 36  2  0
 27  2  1  0
 36 31  1  0
 23  6  1  0
M  END
>  <Title>  (1230) 
idABTJgen6

$$$$

     RDKit          2D

 10 10  0  0  0  0  0  0  0  0999 V2000
    5.0260   -1.2990    0.0000 C   0  0  0  0  0  0  0  0  0  0  0  0
    3.5260   -1.2990    0.0000 C   0  0  0  0  0  0  0  0  0  0  0  0
    2.7760   -2.5981    0.0000 O   0  0  0  0  0  0  0  0  0  0  0  0
    2.7760    0.0000    0.0000 O   0  0  0  0  0  0  0  0  0  0  0  0
    1.2760    0.0000    0.0000 C   0  0  0  0  0  0  0  0  0  0  0  0
    0.3943    1.2135    0.0000 C   0  0  0  0  0  0  0  0  0  0  0  0
   -1.0323    0.7500    0.0000 C   0  0  0  0  0  0  0  0  0  0  0  0
   -2.2458    1.6317    0.0000 C   0  0  0  0  0  0  0  0  0  0  0  0
   -1.0323   -0.7500    0.0000 C   0  0  0  0  0  0  0  0  0  0  0  0
    0.3943   -1.2135    0.0000 C   0  0  0  0  0  0  0  0  0  0  0  0
  1  2  1  0
  2  3  2  0
  2  4  1  0
  4  5  1  0
  5  6  2  0
  6  7  1  0
  7  8  1  0
  7  9  2  0
  9 10  1  0
 10  5  1  0
M  END
>  <Title>  (1231) 
idABTKgen6

$$$$

     RDKit          2D

 12 13  0  0  0  0  0  0  0  0999 V2000
   -3.7500   -3.8971    0.0000 C   0  0  0  0  0  0  0  0  0  0  0  0
   -3.0000   -2.5981    0.0000 O   0  0  0  0  0  0  0  0  0  0  0  0
   -1.5000   -2.5981    0.0000 C   0  0  0  0  0  0  0  0  0  0  0  0
   -0.7500   -3.8971    0.0000 C   0  0  0  0  0  0  0  0  0  0  0  0
    0.7500   -3.8971    0.0000 C   0  0  0  0  0  0  0  0  0  0  0  0
    1.5000   -2.5981    0.0000 C   0  0  0  0  0  0  0  0  0  0  0  0
    0.7500   -1.2990    0.0000 C   0  0  0  0  0  0  0  0  0  0  0  0
    1.5000    0.0000    0.0000 C   0  0  0  0  0  0  0  0  0  0  0  0
    0.7500    1.2990    0.0000 C   0  0  0  0  0  0  0  0  0  0  0  0
   -0.7500    1.2990    0.0000 C   0  0  0  0  0  0  0  0  0  0  0  0
   -1.5000    0.0000    0.0000 C   0  0  0  0  0  0  0  0  0  0  0  0
   -0.7500   -1.2990    0.0000 C   0  0  0  0  0  0  0  0  0  0  0  0
  1  2  1  0
  2  3  1  0
  3  4  2  0
  4  5  1  0
  5  6  1  0
  6  7  1  0
  7  8  2  0
  8  9  1  0
  9 10  2  0
 10 11  1  0
 11 12  2  0
 12  3  1  0
 12  7  1  0
M  END
>  <Title>  (1232) 
idABTLgen6

$$$$

     RDKit          2D

 27 28  0  0  0  0  0  0  0  0999 V2000
    5.5816    0.0000    0.0000 C   0  0  0  0  0  0  0  0  0  0  0  0
    4.0816    0.0000    0.0000 C   0  0  0  0  0  0  0  0  0  0  0  0
    3.8060    1.4745    0.0000 C   0  0  0  0  0  0  0  0  0  0  0  0
    3.0164    2.7498    0.0000 C   0  0  0  0  0  0  0  0  0  0  0  0
    1.8193    3.6537    0.0000 C   0  0  0  0  0  0  0  0  0  0  0  0
    0.3766    4.0642    0.0000 C   0  0  0  0  0  0  0  0  0  0  0  0
   -1.1170    3.9258    0.0000 C   0  0  0  0  0  0  0  0  0  0  0  0
   -2.4597    3.2572    0.0000 C   0  0  0  0  0  0  0  0  0  0  0  0
   -3.4703    2.1487    0.0000 C   0  0  0  0  0  0  0  0  0  0  0  0
   -4.0121    0.7500    0.0000 C   0  0  0  0  0  0  0  0  0  0  0  0
   -4.0121   -0.7500    0.0000 C   0  0  0  0  0  0  0  0  0  0  0  0
   -3.4703   -2.1487    0.0000 C   0  0  0  0  0  0  0  0  0  0  0  0
   -2.4597   -3.2572    0.0000 C   0  0  0  0  0  0  0  0  0  0  0  0
   -1.1170   -3.9258    0.0000 C   0  0  0  0  0  0  0  0  0  0  0  0
    0.3766   -4.0642    0.0000 C   0  0  0  0  0  0  0  0  0  0  0  0
    1.8193   -3.6537    0.0000 C   0  0  0  0  0  0  0  0  0  0  0  0
    3.0164   -2.7498    0.0000 C   0  0  0  0  0  0  0  0  0  0  0  0
    4.1249   -3.7603    0.0000 N   0  0  0  0  0  0  0  0  0  0  0  0
    3.8040   -5.2256    0.0000 C   0  0  0  0  0  0  0  0  0  0  0  0
    2.3746   -5.6803    0.0000 O   0  0  0  0  0  0  0  0  0  0  0  0
    4.9125   -6.2361    0.0000 C   0  0  0  0  0  0  0  0  0  0  0  0
    4.5916   -7.7014    0.0000 C   0  0  0  0  0  0  0  0  0  0  0  0
    5.7001   -8.7120    0.0000 C   0  0  0  0  0  0  0  0  0  0  0  0
    7.1295   -8.2572    0.0000 C   0  0  0  0  0  0  0  0  0  0  0  0
    7.4504   -6.7920    0.0000 C   0  0  0  0  0  0  0  0  0  0  0  0
    6.3419   -5.7814    0.0000 C   0  0  0  0  0  0  0  0  0  0  0  0
    3.8060   -1.4745    0.0000 C   0  0  0  0  0  0  0  0  0  0  0  0
  1  2  1  0
  2  3  1  0
  3  4  1  0
  4  5  1  0
  5  6  1  0
  6  7  1  0
  7  8  1  0
  8  9  1  0
  9 10  1  0
 10 11  1  0
 11 12  1  0
 12 13  1  0
 13 14  1  0
 14 15  1  0
 15 16  1  0
 16 17  1  0
 17 18  1  0
 18 19  1  0
 19 20  2  0
 19 21  1  0
 21 22  2  0
 22 23  1  0
 23 24  2  0
 24 25  1  0
 25 26  2  0
 17 27  1  0
 27  2  1  0
 26 21  1  0
M  END
>  <Title>  (1233) 
idABTMgen6

$$$$

     RDKit          2D

 33 37  0  0  0  0  0  0  0  0999 V2000
   -2.6401   -3.1891    0.0000 C   0  0  0  0  0  0  0  0  0  0  0  0
   -1.2135   -2.7256    0.0000 C   0  0  0  0  0  0  0  0  0  0  0  0
   -0.0000   -3.6073    0.0000 C   0  0  0  0  0  0  0  0  0  0  0  0
    1.2135   -2.7256    0.0000 C   0  0  0  0  0  0  0  0  0  0  0  0
    2.6401   -3.1891    0.0000 C   0  0  0  0  0  0  0  0  0  0  0  0
    3.7548   -2.1855    0.0000 O   0  0  0  0  0  0  0  0  0  0  0  0
    2.9520   -4.6564    0.0000 N   0  0  0  0  0  0  0  0  0  0  0  0
    4.3786   -5.1199    0.0000 C   0  0  0  0  0  0  0  0  0  0  0  0
    5.5921   -4.2382    0.0000 N   0  0  0  0  0  0  0  0  0  0  0  0
    6.8056   -5.1199    0.0000 N   0  0  0  0  0  0  0  0  0  0  0  0
    6.3421   -6.5465    0.0000 N   0  0  0  0  0  0  0  0  0  0  0  0
    4.8421   -6.5465    0.0000 N   0  0  0  0  0  0  0  0  0  0  0  0
    3.9604   -7.7600    0.0000 N   0  0  0  0  0  0  0  0  0  0  0  0
    4.4239   -9.1866    0.0000 C   0  0  0  0  0  0  0  0  0  0  0  0
    3.2104  -10.0683    0.0000 C   0  0  0  0  0  0  0  0  0  0  0  0
    1.9969   -9.1866    0.0000 C   0  0  0  0  0  0  0  0  0  0  0  0
    0.5703   -9.6501    0.0000 C   0  0  0  0  0  0  0  0  0  0  0  0
    0.2584  -11.1173    0.0000 O   0  0  0  0  0  0  0  0  0  0  0  0
   -0.5444   -8.6464    0.0000 N   0  0  0  0  0  0  0  0  0  0  0  0
   -1.9710   -9.1099    0.0000 C   0  0  0  0  0  0  0  0  0  0  0  0
   -3.0857   -8.1062    0.0000 N   0  0  0  0  0  0  0  0  0  0  0  0
   -4.5123   -8.5698    0.0000 N   0  0  0  0  0  0  0  0  0  0  0  0
   -4.8242  -10.0370    0.0000 N   0  0  0  0  0  0  0  0  0  0  0  0
   -3.7095  -11.0407    0.0000 N   0  0  0  0  0  0  0  0  0  0  0  0
   -2.2829  -10.5772    0.0000 N   0  0  0  0  0  0  0  0  0  0  0  0
    2.4604   -7.7600    0.0000 C   0  0  0  0  0  0  0  0  0  0  0  0
    1.5787   -6.5465    0.0000 O   0  0  0  0  0  0  0  0  0  0  0  0
    0.7500   -1.2990    0.0000 C   0  0  0  0  0  0  0  0  0  0  0  0
    1.5000    0.0000    0.0000 C   0  0  0  0  0  0  0  0  0  0  0  0
    0.7500    1.2990    0.0000 C   0  0  0  0  0  0  0  0  0  0  0  0
   -0.7500    1.2990    0.0000 C   0  0  0  0  0  0  0  0  0  0  0  0
   -1.5000    0.0000    0.0000 C   0  0  0  0  0  0  0  0  0  0  0  0
   -0.7500   -1.2990    0.0000 C   0  0  0  0  0  0  0  0  0  0  0  0
  1  2  1  0
  2  3  1  0
  3  4  2  0
  4  5  1  0
  5  6  2  0
  5  7  1  0
  7  8  1  0
  8  9  2  0
  9 10  1  0
 10 11  2  0
 11 12  1  0
 12 13  1  0
 13 14  1  0
 14 15  1  0
 15 16  1  0
 16 17  1  0
 17 18  2  0
 17 19  1  0
 19 20  1  0
 20 21  2  0
 21 22  1  0
 22 23  2  0
 23 24  1  0
 24 25  2  0
 16 26  1  0
 26 27  2  0
  4 28  1  0
 28 29  2  0
 29 30  1  0
 30 31  2  0
 31 32  1  0
 32 33  2  0
 33  2  1  0
 12  8  1  0
 26 13  1  0
 33 28  1  0
 25 20  1  0
M  END
>  <Title>  (1234) 
idABTNgen6

$$$$

     RDKit          2D

  9  9  0  0  0  0  0  0  0  0999 V2000
    3.7500   -1.2990    0.0000 C   0  0  0  0  0  0  0  0  0  0  0  0
    3.0000    0.0000    0.0000 C   0  0  0  0  0  0  0  0  0  0  0  0
    3.7500    1.2990    0.0000 O   0  0  0  0  0  0  0  0  0  0  0  0
    1.5000    0.0000    0.0000 C   0  0  0  0  0  0  0  0  0  0  0  0
    0.7500   -1.2990    0.0000 C   0  0  0  0  0  0  0  0  0  0  0  0
   -0.7500   -1.2990    0.0000 C   0  0  0  0  0  0  0  0  0  0  0  0
   -1.5000    0.0000    0.0000 C   0  0  0  0  0  0  0  0  0  0  0  0
   -0.7500    1.2990    0.0000 C   0  0  0  0  0  0  0  0  0  0  0  0
    0.7500    1.2990    0.0000 C   0  0  0  0  0  0  0  0  0  0  0  0
  1  2  1  0
  2  3  2  0
  2  4  1  0
  4  5  2  0
  5  6  1  0
  6  7  2  0
  7  8  1  0
  8  9  2  0
  9  4  1  0
M  END
>  <Title>  (1235) 
idABTOgen6

$$$$

     RDKit          2D

 26 28  0  0  0  0  0  0  0  0999 V2000
   -3.4734   -7.2879    0.0000 C   0  0  0  0  0  0  0  0  0  0  0  0
   -2.3006   -6.3527    0.0000 C   0  0  0  0  0  0  0  0  0  0  0  0
   -0.9043   -6.9007    0.0000 O   0  0  0  0  0  0  0  0  0  0  0  0
   -2.5242   -4.8694    0.0000 C   0  0  0  0  0  0  0  0  0  0  0  0
   -3.9205   -4.3214    0.0000 O   0  0  0  0  0  0  0  0  0  0  0  0
   -1.3515   -3.9342    0.0000 N   0  0  0  0  0  0  0  0  0  0  0  0
   -0.0000   -4.5850    0.0000 C   0  0  0  0  0  0  0  0  0  0  0  0
    1.3515   -3.9342    0.0000 C   0  0  0  0  0  0  0  0  0  0  0  0
    1.6852   -2.4718    0.0000 C   0  0  0  0  0  0  0  0  0  0  0  0
    3.1476   -2.1380    0.0000 C   0  0  0  0  0  0  0  0  0  0  0  0
    3.5898   -0.7046    0.0000 O   0  0  0  0  0  0  0  0  0  0  0  0
    4.1679   -3.2376    0.0000 N   0  0  0  0  0  0  0  0  0  0  0  0
    5.6303   -2.9038    0.0000 C   0  0  0  0  0  0  0  0  0  0  0  0
    6.6505   -4.0034    0.0000 N   0  0  0  0  0  0  0  0  0  0  0  0
    8.1129   -3.6696    0.0000 N   0  0  0  0  0  0  0  0  0  0  0  0
    8.5551   -2.2362    0.0000 N   0  0  0  0  0  0  0  0  0  0  0  0
    7.5348   -1.1367    0.0000 N   0  0  0  0  0  0  0  0  0  0  0  0
    6.0724   -1.4704    0.0000 N   0  0  0  0  0  0  0  0  0  0  0  0
    0.7500   -1.2990    0.0000 C   0  0  0  0  0  0  0  0  0  0  0  0
    1.5000    0.0000    0.0000 C   0  0  0  0  0  0  0  0  0  0  0  0
    0.7500    1.2990    0.0000 C   0  0  0  0  0  0  0  0  0  0  0  0
   -0.7500    1.2990    0.0000 C   0  0  0  0  0  0  0  0  0  0  0  0
   -1.5000    0.0000    0.0000 C   0  0  0  0  0  0  0  0  0  0  0  0
   -0.7500   -1.2990    0.0000 C   0  0  0  0  0  0  0  0  0  0  0  0
   -1.6852   -2.4718    0.0000 C   0  0  0  0  0  0  0  0  0  0  0  0
   -3.1476   -2.1380    0.0000 O   0  0  0  0  0  0  0  0  0  0  0  0
  1  2  1  0
  2  3  2  0
  2  4  1  0
  4  5  2  0
  4  6  1  0
  6  7  1  0
  7  8  1  0
  8  9  1  0
  9 10  1  0
 10 11  2  0
 10 12  1  0
 12 13  1  0
 13 14  2  0
 14 15  1  0
 15 16  2  0
 16 17  1  0
 17 18  2  0
  9 19  1  0
 19 20  2  0
 20 21  1  0
 21 22  2  0
 22 23  1  0
 23 24  2  0
 24 25  1  0
 25 26  2  0
 25  6  1  0
 18 13  1  0
 24 19  1  0
M  END
>  <Title>  (1236) 
idABTPgen6

$$$$

     RDKit          2D

 22 24  0  0  0  0  0  0  0  0999 V2000
    1.5000   -5.1962    0.0000 C   0  0  0  0  0  0  0  0  0  0  0  0
    0.7500   -3.8971    0.0000 C   0  0  0  0  0  0  0  0  0  0  0  0
    1.5000   -2.5981    0.0000 C   0  0  0  0  0  0  0  0  0  0  0  0
    3.0000   -2.5981    0.0000 C   0  0  0  0  0  0  0  0  0  0  0  0
    0.7500   -1.2990    0.0000 C   0  0  0  0  0  0  0  0  0  0  0  0
    1.5000    0.0000    0.0000 C   0  0  0  0  0  0  0  0  0  0  0  0
    0.7500    1.2990    0.0000 C   0  0  0  0  0  0  0  0  0  0  0  0
   -0.7500    1.2990    0.0000 C   0  0  0  0  0  0  0  0  0  0  0  0
   -1.5000    0.0000    0.0000 C   0  0  0  0  0  0  0  0  0  0  0  0
   -0.7500   -1.2990    0.0000 C   0  0  0  0  0  0  0  0  0  0  0  0
   -1.5000   -2.5981    0.0000 C   0  0  0  0  0  0  0  0  0  0  0  0
   -3.0000   -2.5981    0.0000 C   0  0  0  0  0  0  0  0  0  0  0  0
   -3.7500   -1.2990    0.0000 O   0  0  0  0  0  0  0  0  0  0  0  0
   -3.7500   -3.8971    0.0000 N   0  0  0  0  0  0  0  0  0  0  0  0
   -5.2500   -3.8971    0.0000 C   0  0  0  0  0  0  0  0  0  0  0  0
   -6.0000   -2.5981    0.0000 N   0  0  0  0  0  0  0  0  0  0  0  0
   -7.5000   -2.5981    0.0000 N   0  0  0  0  0  0  0  0  0  0  0  0
   -8.2500   -3.8971    0.0000 N   0  0  0  0  0  0  0  0  0  0  0  0
   -7.5000   -5.1962    0.0000 N   0  0  0  0  0  0  0  0  0  0  0  0
   -6.0000   -5.1962    0.0000 N   0  0  0  0  0  0  0  0  0  0  0  0
   -0.7500   -3.8971    0.0000 C   0  0  0  0  0  0  0  0  0  0  0  0
   -1.5000   -5.1962    0.0000 O   0  0  0  0  0  0  0  0  0  0  0  0
  1  2  1  0
  2  3  2  0
  3  4  1  0
  3  5  1  0
  5  6  2  0
  6  7  1  0
  7  8  2  0
  8  9  1  0
  9 10  2  0
 10 11  1  0
 11 12  1  0
 12 13  2  0
 12 14  1  0
 14 15  1  0
 15 16  2  0
 16 17  1  0
 17 18  2  0
 18 19  1  0
 19 20  2  0
 11 21  1  0
 21 22  2  0
 21  2  1  0
 10  5  1  0
 20 15  1  0
M  END
>  <Title>  (1237) 
idABTQgen6

$$$$

     RDKit          2D

 21 23  0  0  0  0  0  0  0  0999 V2000
   -3.0000   -2.5981    0.0000 C   0  0  0  0  0  0  0  0  0  0  0  0
   -1.5000   -2.5981    0.0000 C   0  0  0  0  0  0  0  0  0  0  0  0
   -0.7500   -3.8971    0.0000 C   0  0  0  0  0  0  0  0  0  0  0  0
    0.7500   -3.8971    0.0000 C   0  0  0  0  0  0  0  0  0  0  0  0
    1.5000   -2.5981    0.0000 C   0  0  0  0  0  0  0  0  0  0  0  0
    3.0000   -2.5981    0.0000 C   0  0  0  0  0  0  0  0  0  0  0  0
    3.7500   -1.2990    0.0000 O   0  0  0  0  0  0  0  0  0  0  0  0
    3.7500   -3.8971    0.0000 N   0  0  0  0  0  0  0  0  0  0  0  0
    5.2500   -3.8971    0.0000 C   0  0  0  0  0  0  0  0  0  0  0  0
    6.0000   -5.1962    0.0000 N   0  0  0  0  0  0  0  0  0  0  0  0
    7.5000   -5.1962    0.0000 N   0  0  0  0  0  0  0  0  0  0  0  0
    8.2500   -3.8971    0.0000 N   0  0  0  0  0  0  0  0  0  0  0  0
    7.5000   -2.5981    0.0000 N   0  0  0  0  0  0  0  0  0  0  0  0
    6.0000   -2.5981    0.0000 N   0  0  0  0  0  0  0  0  0  0  0  0
    0.7500   -1.2990    0.0000 C   0  0  0  0  0  0  0  0  0  0  0  0
    1.5000    0.0000    0.0000 C   0  0  0  0  0  0  0  0  0  0  0  0
    0.7500    1.2990    0.0000 C   0  0  0  0  0  0  0  0  0  0  0  0
   -0.7500    1.2990    0.0000 C   0  0  0  0  0  0  0  0  0  0  0  0
   -1.5000    2.5981    0.0000 O   0  0  0  0  0  0  0  0  0  0  0  0
   -1.5000    0.0000    0.0000 C   0  0  0  0  0  0  0  0  0  0  0  0
   -0.7500   -1.2990    0.0000 C   0  0  0  0  0  0  0  0  0  0  0  0
  1  2  1  0
  2  3  1  0
  3  4  2  0
  4  5  1  0
  5  6  1  0
  6  7  2  0
  6  8  1  0
  8  9  1  0
  9 10  2  0
 10 11  1  0
 11 12  2  0
 12 13  1  0
 13 14  2  0
  5 15  1  0
 15 16  2  0
 16 17  1  0
 17 18  2  0
 18 19  1  0
 18 20  1  0
 20 21  2  0
 21  2  1  0
 14  9  1  0
 21 15  1  0
M  END
>  <Title>  (1238) 
idABTRgen6

$$$$

     RDKit          2D

 17 18  0  0  0  0  0  0  0  0999 V2000
    3.2286   -0.0000    0.0000 C   0  0  0  0  0  0  0  0  0  0  0  0
    1.7286    0.0000    0.0000 C   0  0  0  0  0  0  0  0  0  0  0  0
    1.0777    1.3515    0.0000 C   0  0  0  0  0  0  0  0  0  0  0  0
   -0.3846    1.6852    0.0000 C   0  0  0  0  0  0  0  0  0  0  0  0
   -1.5574    0.7500    0.0000 C   0  0  0  0  0  0  0  0  0  0  0  0
   -1.5574   -0.7500    0.0000 C   0  0  0  0  0  0  0  0  0  0  0  0
   -0.3846   -1.6852    0.0000 C   0  0  0  0  0  0  0  0  0  0  0  0
   -0.7184   -3.1476    0.0000 C   0  0  0  0  0  0  0  0  0  0  0  0
    0.3812   -4.1679    0.0000 O   0  0  0  0  0  0  0  0  0  0  0  0
   -2.1518   -3.5898    0.0000 N   0  0  0  0  0  0  0  0  0  0  0  0
   -2.4856   -5.0522    0.0000 C   0  0  0  0  0  0  0  0  0  0  0  0
   -3.9189   -5.4943    0.0000 N   0  0  0  0  0  0  0  0  0  0  0  0
   -4.2527   -6.9567    0.0000 N   0  0  0  0  0  0  0  0  0  0  0  0
   -3.1531   -7.9769    0.0000 N   0  0  0  0  0  0  0  0  0  0  0  0
   -1.7198   -7.5348    0.0000 N   0  0  0  0  0  0  0  0  0  0  0  0
   -1.3860   -6.0724    0.0000 N   0  0  0  0  0  0  0  0  0  0  0  0
    1.0777   -1.3515    0.0000 C   0  0  0  0  0  0  0  0  0  0  0  0
  1  2  1  0
  2  3  1  0
  3  4  2  0
  4  5  1  0
  5  6  2  0
  6  7  1  0
  7  8  1  0
  8  9  2  0
  8 10  1  0
 10 11  1  0
 11 12  2  0
 12 13  1  0
 13 14  2  0
 14 15  1  0
 15 16  2  0
  7 17  1  0
 17  2  1  0
 16 11  1  0
M  END
>  <Title>  (1239) 
idABTSgen6

$$$$

     RDKit          2D

 24 27  0  0  0  0  0  0  0  0999 V2000
    2.7760    0.0000    0.0000 O   0  0  0  0  0  0  0  0  0  0  0  0
    1.2760    0.0000    0.0000 C   0  0  0  0  0  0  0  0  0  0  0  0
    0.3943    1.2135    0.0000 C   0  0  0  0  0  0  0  0  0  0  0  0
   -1.0323    0.7500    0.0000 C   0  0  0  0  0  0  0  0  0  0  0  0
   -1.0323   -0.7500    0.0000 C   0  0  0  0  0  0  0  0  0  0  0  0
    0.3943   -1.2135    0.0000 N   0  0  0  0  0  0  0  0  0  0  0  0
    0.8578   -2.6401    0.0000 C   0  0  0  0  0  0  0  0  0  0  0  0
    2.3250   -2.9520    0.0000 O   0  0  0  0  0  0  0  0  0  0  0  0
   -0.1459   -3.7548    0.0000 N   0  0  0  0  0  0  0  0  0  0  0  0
    0.3177   -5.1814    0.0000 C   0  0  0  0  0  0  0  0  0  0  0  0
    1.7442   -5.6449    0.0000 N   0  0  0  0  0  0  0  0  0  0  0  0
    1.7442   -7.1449    0.0000 N   0  0  0  0  0  0  0  0  0  0  0  0
    0.3177   -7.6085    0.0000 N   0  0  0  0  0  0  0  0  0  0  0  0
   -0.5640   -6.3949    0.0000 N   0  0  0  0  0  0  0  0  0  0  0  0
   -2.0640   -6.3949    0.0000 N   0  0  0  0  0  0  0  0  0  0  0  0
   -2.9457   -7.6085    0.0000 C   0  0  0  0  0  0  0  0  0  0  0  0
   -4.3723   -7.1449    0.0000 C   0  0  0  0  0  0  0  0  0  0  0  0
   -4.3723   -5.6449    0.0000 C   0  0  0  0  0  0  0  0  0  0  0  0
   -5.5858   -4.7633    0.0000 N   0  0  0  0  0  0  0  0  0  0  0  0
   -7.0124   -5.2268    0.0000 C   0  0  0  0  0  0  0  0  0  0  0  0
   -7.8941   -4.0133    0.0000 C   0  0  0  0  0  0  0  0  0  0  0  0
   -7.0124   -2.7997    0.0000 C   0  0  0  0  0  0  0  0  0  0  0  0
   -5.5858   -3.2633    0.0000 C   0  0  0  0  0  0  0  0  0  0  0  0
   -2.9457   -5.1814    0.0000 C   0  0  0  0  0  0  0  0  0  0  0  0
  1  2  2  0
  2  3  1  0
  3  4  1  0
  4  5  1  0
  5  6  1  0
  6  7  1  0
  7  8  2  0
  7  9  1  0
  9 10  1  0
 10 11  2  0
 11 12  1  0
 12 13  2  0
 13 14  1  0
 14 15  1  0
 15 16  1  0
 16 17  1  0
 17 18  1  0
 18 19  1  0
 19 20  1  0
 20 21  1  0
 21 22  1  0
 22 23  1  0
 18 24  1  0
  6  2  1  0
 14 10  1  0
 24 15  1  0
 23 19  1  0
M  END
>  <Title>  (1240) 
idABTTgen6

$$$$

     RDKit          2D

  8  7  0  0  0  0  0  0  0  0999 V2000
    0.0000    0.0000    0.0000 C   0  0  0  0  0  0  0  0  0  0  0  0
    1.2990    0.7500    0.0000 C   0  0  0  0  0  0  0  0  0  0  0  0
    1.2990    2.2500    0.0000 O   0  0  0  0  0  0  0  0  0  0  0  0
    2.5981   -0.0000    0.0000 C   0  0  0  0  0  0  0  0  0  0  0  0
    3.8971    0.7500    0.0000 C   0  0  0  0  0  0  0  0  0  0  0  0
    2.5981   -1.5000    0.0000 N   0  0  0  0  0  0  0  0  0  0  0  0
    3.8971   -2.2500    0.0000 C   0  0  0  0  0  0  0  0  0  0  0  0
    5.1962   -3.0000    0.0000 N   0  0  0  0  0  0  0  0  0  0  0  0
  1  2  1  0
  2  3  2  0
  2  4  1  0
  4  5  1  0
  4  6  2  3
  6  7  1  0
  7  8  3  0
M  END
>  <Title>  (1241) 
idABTUgen6

$$$$

     RDKit          2D

 21 23  0  0  0  0  0  0  0  0999 V2000
    0.7500   -6.4952    0.0000 C   0  0  0  0  0  0  0  0  0  0  0  0
    1.5000   -5.1962    0.0000 N   0  0  0  0  0  0  0  0  0  0  0  0
    3.0000   -5.1962    0.0000 C   0  0  0  0  0  0  0  0  0  0  0  0
    0.7500   -3.8971    0.0000 C   0  0  0  0  0  0  0  0  0  0  0  0
   -0.7500   -3.8971    0.0000 O   0  0  0  0  0  0  0  0  0  0  0  0
    1.5000   -2.5981    0.0000 C   0  0  0  0  0  0  0  0  0  0  0  0
    0.7500   -1.2990    0.0000 C   0  0  0  0  0  0  0  0  0  0  0  0
    1.5000    0.0000    0.0000 C   0  0  0  0  0  0  0  0  0  0  0  0
    0.7500    1.2990    0.0000 C   0  0  0  0  0  0  0  0  0  0  0  0
   -0.7500    1.2990    0.0000 C   0  0  0  0  0  0  0  0  0  0  0  0
   -1.5000    0.0000    0.0000 C   0  0  0  0  0  0  0  0  0  0  0  0
   -0.7500   -1.2990    0.0000 C   0  0  0  0  0  0  0  0  0  0  0  0
    3.0000   -2.5981    0.0000 N   0  0  0  0  0  0  0  0  0  0  0  0
    3.7500   -3.8971    0.0000 C   0  0  0  0  0  0  0  0  0  0  0  0
    5.2500   -3.8971    0.0000 C   0  0  0  0  0  0  0  0  0  0  0  0
    6.0000   -2.5981    0.0000 N   0  0  0  0  0  0  0  0  0  0  0  0
    7.5000   -2.5981    0.0000 C   0  0  0  0  0  0  0  0  0  0  0  0
    8.7990   -1.8481    0.0000 C   0  0  0  0  0  0  0  0  0  0  0  0
    8.7990   -3.3481    0.0000 C   0  0  0  0  0  0  0  0  0  0  0  0
    5.2500   -1.2990    0.0000 C   0  0  0  0  0  0  0  0  0  0  0  0
    3.7500   -1.2990    0.0000 C   0  0  0  0  0  0  0  0  0  0  0  0
  1  2  1  0
  2  3  1  0
  2  4  1  0
  4  5  2  0
  4  6  1  0
  6  7  1  0
  7  8  2  0
  8  9  1  0
  9 10  2  0
 10 11  1  0
 11 12  2  0
  6 13  1  0
 13 14  1  0
 14 15  1  0
 15 16  1  0
 16 17  1  0
 17 18  1  0
 18 19  1  0
 16 20  1  0
 20 21  1  0
 12  7  1  0
 21 13  1  0
 19 17  1  0
M  END
>  <Title>  (1242) 
idABTVgen6

$$$$

     RDKit          2D

 20 22  0  0  0  0  0  0  0  0999 V2000
   -3.0000   -2.5981    0.0000 C   0  0  0  0  0  0  0  0  0  0  0  0
   -1.5000   -2.5981    0.0000 C   0  0  0  0  0  0  0  0  0  0  0  0
   -0.7500   -3.8971    0.0000 C   0  0  0  0  0  0  0  0  0  0  0  0
    0.7500   -3.8971    0.0000 C   0  0  0  0  0  0  0  0  0  0  0  0
    1.5000   -2.5981    0.0000 C   0  0  0  0  0  0  0  0  0  0  0  0
    3.0000   -2.5981    0.0000 C   0  0  0  0  0  0  0  0  0  0  0  0
    3.7500   -1.2990    0.0000 O   0  0  0  0  0  0  0  0  0  0  0  0
    3.7500   -3.8971    0.0000 N   0  0  0  0  0  0  0  0  0  0  0  0
    5.2500   -3.8971    0.0000 C   0  0  0  0  0  0  0  0  0  0  0  0
    6.0000   -5.1962    0.0000 N   0  0  0  0  0  0  0  0  0  0  0  0
    7.5000   -5.1962    0.0000 N   0  0  0  0  0  0  0  0  0  0  0  0
    8.2500   -3.8971    0.0000 N   0  0  0  0  0  0  0  0  0  0  0  0
    7.5000   -2.5981    0.0000 N   0  0  0  0  0  0  0  0  0  0  0  0
    6.0000   -2.5981    0.0000 N   0  0  0  0  0  0  0  0  0  0  0  0
    0.7500   -1.2990    0.0000 C   0  0  0  0  0  0  0  0  0  0  0  0
    1.5000    0.0000    0.0000 C   0  0  0  0  0  0  0  0  0  0  0  0
    0.7500    1.2990    0.0000 C   0  0  0  0  0  0  0  0  0  0  0  0
   -0.7500    1.2990    0.0000 C   0  0  0  0  0  0  0  0  0  0  0  0
   -1.5000    0.0000    0.0000 C   0  0  0  0  0  0  0  0  0  0  0  0
   -0.7500   -1.2990    0.0000 C   0  0  0  0  0  0  0  0  0  0  0  0
  1  2  1  0
  2  3  1  0
  3  4  1  0
  4  5  1  0
  5  6  1  0
  6  7  2  0
  6  8  1  0
  8  9  1  0
  9 10  2  0
 10 11  1  0
 11 12  2  0
 12 13  1  0
 13 14  2  0
  5 15  1  0
 15 16  2  0
 16 17  1  0
 17 18  2  0
 18 19  1  0
 19 20  2  0
 20  2  1  0
 14  9  1  0
 20 15  1  0
M  END
>  <Title>  (1243) 
idABTWgen6

$$$$

     RDKit          2D

 12 12  0  0  0  0  0  0  0  0999 V2000
    3.9271    0.0000    0.0000 C   0  0  0  0  0  0  0  0  0  0  0  0
    2.4271    0.0000    0.0000 C   0  0  0  0  0  0  0  0  0  0  0  0
    1.9635   -1.4266    0.0000 C   0  0  0  0  0  0  0  0  0  0  0  0
    0.7500   -2.3083    0.0000 C   0  0  0  0  0  0  0  0  0  0  0  0
   -0.7500   -2.3083    0.0000 C   0  0  0  0  0  0  0  0  0  0  0  0
   -1.9635   -1.4266    0.0000 C   0  0  0  0  0  0  0  0  0  0  0  0
   -2.4271    0.0000    0.0000 C   0  0  0  0  0  0  0  0  0  0  0  0
   -1.9635    1.4266    0.0000 C   0  0  0  0  0  0  0  0  0  0  0  0
   -0.7500    2.3083    0.0000 C   0  0  0  0  0  0  0  0  0  0  0  0
   -1.2135    3.7348    0.0000 C   0  0  0  0  0  0  0  0  0  0  0  0
    0.7500    2.3083    0.0000 C   0  0  0  0  0  0  0  0  0  0  0  0
    1.9635    1.4266    0.0000 C   0  0  0  0  0  0  0  0  0  0  0  0
  1  2  1  0
  2  3  1  0
  3  4  1  0
  4  5  1  0
  5  6  1  0
  6  7  1  0
  7  8  1  0
  8  9  1  0
  9 10  1  0
  9 11  1  0
 11 12  1  0
 12  2  1  0
M  END
>  <Title>  (1244) 
idABTXgen6

$$$$

     RDKit          2D

 12 13  0  0  0  0  0  0  0  0999 V2000
    2.7760    0.0000    0.0000 C   0  0  0  0  0  0  0  0  0  0  0  0
    1.2760    0.0000    0.0000 C   0  0  0  0  0  0  0  0  0  0  0  0
    0.3943    1.2135    0.0000 C   0  0  0  0  0  0  0  0  0  0  0  0
   -1.0323    0.7500    0.0000 C   0  0  0  0  0  0  0  0  0  0  0  0
   -1.0323   -0.7500    0.0000 C   0  0  0  0  0  0  0  0  0  0  0  0
   -2.1470   -1.7537    0.0000 C   0  0  0  0  0  0  0  0  0  0  0  0
   -3.5736   -1.2902    0.0000 O   0  0  0  0  0  0  0  0  0  0  0  0
   -1.8351   -3.2209    0.0000 N   0  0  0  0  0  0  0  0  0  0  0  0
   -0.4086   -3.6844    0.0000 C   0  0  0  0  0  0  0  0  0  0  0  0
   -0.0967   -5.1517    0.0000 N   0  0  0  0  0  0  0  0  0  0  0  0
    0.7062   -2.6807    0.0000 N   0  0  0  0  0  0  0  0  0  0  0  0
    0.3943   -1.2135    0.0000 N   0  0  0  0  0  0  0  0  0  0  0  0
  1  2  1  0
  2  3  2  0
  3  4  1  0
  4  5  2  0
  5  6  1  0
  6  7  2  0
  6  8  1  0
  8  9  1  0
  9 10  1  0
  9 11  2  0
 11 12  1  0
 12  2  1  0
 12  5  1  0
M  END
>  <Title>  (1245) 
idABTYgen6

$$$$

     RDKit          2D

 32 36  0  0  0  0  0  0  0  0999 V2000
   -2.5242   -4.8694    0.0000 C   0  0  0  0  0  0  0  0  0  0  0  0
   -1.3515   -3.9342    0.0000 C   0  0  0  0  0  0  0  0  0  0  0  0
   -0.0000   -4.5850    0.0000 C   0  0  0  0  0  0  0  0  0  0  0  0
    1.3515   -3.9342    0.0000 C   0  0  0  0  0  0  0  0  0  0  0  0
    1.6852   -2.4718    0.0000 C   0  0  0  0  0  0  0  0  0  0  0  0
    3.1476   -2.1380    0.0000 C   0  0  0  0  0  0  0  0  0  0  0  0
    3.5898   -0.7046    0.0000 O   0  0  0  0  0  0  0  0  0  0  0  0
    4.1679   -3.2376    0.0000 N   0  0  0  0  0  0  0  0  0  0  0  0
    5.6303   -2.9038    0.0000 C   0  0  0  0  0  0  0  0  0  0  0  0
    6.6505   -4.0034    0.0000 N   0  0  0  0  0  0  0  0  0  0  0  0
    8.1129   -3.6696    0.0000 N   0  0  0  0  0  0  0  0  0  0  0  0
    8.5551   -2.2362    0.0000 N   0  0  0  0  0  0  0  0  0  0  0  0
    7.5348   -1.1367    0.0000 N   0  0  0  0  0  0  0  0  0  0  0  0
    6.0724   -1.4704    0.0000 N   0  0  0  0  0  0  0  0  0  0  0  0
    0.7500   -1.2990    0.0000 C   0  0  0  0  0  0  0  0  0  0  0  0
    1.5000    0.0000    0.0000 C   0  0  0  0  0  0  0  0  0  0  0  0
    0.7500    1.2990    0.0000 C   0  0  0  0  0  0  0  0  0  0  0  0
   -0.7500    1.2990    0.0000 C   0  0  0  0  0  0  0  0  0  0  0  0
   -1.5000    0.0000    0.0000 C   0  0  0  0  0  0  0  0  0  0  0  0
   -0.7500   -1.2990    0.0000 C   0  0  0  0  0  0  0  0  0  0  0  0
   -1.6852   -2.4718    0.0000 N   0  0  0  0  0  0  0  0  0  0  0  0
   -3.1476   -2.1380    0.0000 C   0  0  0  0  0  0  0  0  0  0  0  0
   -3.3989   -0.6592    0.0000 C   0  0  0  0  0  0  0  0  0  0  0  0
   -4.6222    0.2088    0.0000 C   0  0  0  0  0  0  0  0  0  0  0  0
   -6.1010   -0.0424    0.0000 C   0  0  0  0  0  0  0  0  0  0  0  0
   -6.9690   -1.2658    0.0000 C   0  0  0  0  0  0  0  0  0  0  0  0
   -6.7178   -2.7446    0.0000 C   0  0  0  0  0  0  0  0  0  0  0  0
   -7.5858   -3.9679    0.0000 C   0  0  0  0  0  0  0  0  0  0  0  0
   -9.0646   -4.2192    0.0000 O   0  0  0  0  0  0  0  0  0  0  0  0
   -6.3624   -4.8359    0.0000 O   0  0  0  0  0  0  0  0  0  0  0  0
   -5.4944   -3.6126    0.0000 C   0  0  0  0  0  0  0  0  0  0  0  0
   -4.0156   -3.3613    0.0000 C   0  0  0  0  0  0  0  0  0  0  0  0
  1  2  1  0
  2  3  1  0
  3  4  1  0
  4  5  1  0
  5  6  1  0
  6  7  2  0
  6  8  1  0
  8  9  1  0
  9 10  2  0
 10 11  1  0
 11 12  2  0
 12 13  1  0
 13 14  2  0
  5 15  1  0
 15 16  2  0
 16 17  1  0
 17 18  2  0
 18 19  1  0
 19 20  2  0
 20 21  1  0
 21 22  1  0
 22 23  2  0
 23 24  1  0
 24 25  2  0
 25 26  1  0
 26 27  2  0
 27 28  1  0
 28 29  2  0
 28 30  1  0
 30 31  1  0
 31 32  2  0
 21  2  1  0
 32 22  1  0
 14  9  1  0
 20 15  1  0
 31 27  1  0
M  END
>  <Title>  (1246) 
idABTZgen6

$$$$

     RDKit          2D

 46 51  0  0  0  0  0  0  0  0999 V2000
    1.2135   -7.3421    0.0000 C   0  0  0  0  0  0  0  0  0  0  0  0
    0.7500   -5.9156    0.0000 C   0  0  0  0  0  0  0  0  0  0  0  0
    1.9635   -5.0339    0.0000 C   0  0  0  0  0  0  0  0  0  0  0  0
    2.4271   -3.6073    0.0000 C   0  0  0  0  0  0  0  0  0  0  0  0
    1.9635   -2.1807    0.0000 C   0  0  0  0  0  0  0  0  0  0  0  0
    3.1771   -1.2990    0.0000 C   0  0  0  0  0  0  0  0  0  0  0  0
    3.0203    0.1927    0.0000 O   0  0  0  0  0  0  0  0  0  0  0  0
    4.5474   -1.9091    0.0000 N   0  0  0  0  0  0  0  0  0  0  0  0
    5.7609   -1.0275    0.0000 C   0  0  0  0  0  0  0  0  0  0  0  0
    7.1312   -1.6376    0.0000 N   0  0  0  0  0  0  0  0  0  0  0  0
    8.3447   -0.7559    0.0000 N   0  0  0  0  0  0  0  0  0  0  0  0
    8.1879    0.7359    0.0000 N   0  0  0  0  0  0  0  0  0  0  0  0
    6.8176    1.3460    0.0000 N   0  0  0  0  0  0  0  0  0  0  0  0
    5.6041    0.4643    0.0000 N   0  0  0  0  0  0  0  0  0  0  0  0
    0.7500   -1.2990    0.0000 C   0  0  0  0  0  0  0  0  0  0  0  0
    1.5000    0.0000    0.0000 C   0  0  0  0  0  0  0  0  0  0  0  0
    0.7500    1.2990    0.0000 C   0  0  0  0  0  0  0  0  0  0  0  0
   -0.7500    1.2990    0.0000 C   0  0  0  0  0  0  0  0  0  0  0  0
   -1.5000    0.0000    0.0000 C   0  0  0  0  0  0  0  0  0  0  0  0
   -0.7500   -1.2990    0.0000 C   0  0  0  0  0  0  0  0  0  0  0  0
   -1.9635   -2.1807    0.0000 C   0  0  0  0  0  0  0  0  0  0  0  0
   -1.8233   -2.7755    0.0000 C   0  0  0  0  0  0  0  0  0  0  0  0
   -1.3736   -4.0431    0.0000 C   0  0  0  0  0  0  0  0  0  0  0  0
   -1.4471   -4.0165    0.0000 C   0  0  0  0  0  0  0  0  0  0  0  0
   -4.6537   -6.6723    0.0000 O   0  0  0  0  0  0  0  0  0  0  0  0
   -4.3804   -8.1472    0.0000 C   0  0  0  0  0  0  0  0  0  0  0  0
   -5.5210   -9.1213    0.0000 C   0  0  0  0  0  0  0  0  0  0  0  0
   -6.9349   -8.6206    0.0000 C   0  0  0  0  0  0  0  0  0  0  0  0
   -8.0755   -9.5948    0.0000 C   0  0  0  0  0  0  0  0  0  0  0  0
   -7.8022  -11.0697    0.0000 C   0  0  0  0  0  0  0  0  0  0  0  0
   -8.9428  -12.0438    0.0000 C   0  0  0  0  0  0  0  0  0  0  0  0
   -8.6694  -13.5187    0.0000 O   0  0  0  0  0  0  0  0  0  0  0  0
  -10.3567  -11.5431    0.0000 O   0  0  0  0  0  0  0  0  0  0  0  0
   -6.3882  -11.5704    0.0000 C   0  0  0  0  0  0  0  0  0  0  0  0
   -5.2476  -10.5962    0.0000 C   0  0  0  0  0  0  0  0  0  0  0  0
   -1.0054   -5.2222    0.0000 C   0  0  0  0  0  0  0  0  0  0  0  0
   -2.2943   -7.8745    0.0000 O   0  0  0  0  0  0  0  0  0  0  0  0
   -0.7500   -5.9156    0.0000 N   0  0  0  0  0  0  0  0  0  0  0  0
   -1.9635   -5.0339    0.0000 C   0  0  0  0  0  0  0  0  0  0  0  0
   -3.1835   -5.4829    0.0000 C   0  0  0  0  0  0  0  0  0  0  0  0
   -3.9661   -5.3165    0.0000 C   0  0  0  0  0  0  0  0  0  0  0  0
   -4.2133   -4.5557    0.0000 C   0  0  0  0  0  0  0  0  0  0  0  0
   -6.3652   -4.0983    0.0000 C   0  0  0  0  0  0  0  0  0  0  0  0
   -7.8324   -3.7864    0.0000 N   0  0  0  0  0  0  0  0  0  0  0  0
   -3.6780   -3.9612    0.0000 C   0  0  0  0  0  0  0  0  0  0  0  0
   -2.4271   -3.6073    0.0000 C   0  0  0  0  0  0  0  0  0  0  0  0
  1  2  1  0
  2  3  1  0
  3  4  1  0
  4  5  1  0
  5  6  1  0
  6  7  2  0
  6  8  1  0
  8  9  1  0
  9 10  2  0
 10 11  1  0
 11 12  2  0
 12 13  1  0
 13 14  2  0
  5 15  1  0
 15 16  2  0
 16 17  1  0
 17 18  2  0
 18 19  1  0
 19 20  2  0
 20 21  1  0
 21 22  2  0
 22 23  1  0
 23 24  2  0
 24 25  1  0
 25 26  1  0
 26 27  1  0
 27 28  2  0
 28 29  1  0
 29 30  2  0
 30 31  1  0
 31 32  2  0
 31 33  1  0
 30 34  1  0
 34 35  2  0
 24 36  1  0
 36 37  2  0
 36 38  1  0
 38 39  1  0
 39 40  2  0
 40 41  1  0
 41 42  2  0
 42 43  1  0
 43 44  3  0
 42 45  1  0
 45 46  2  0
 38  2  1  0
 46 39  1  0
 14  9  1  0
 20 15  1  0
 46 21  1  0
 35 27  1  0
M  END
>  <Title>  (1247) 
idABUAgen6

$$$$

     RDKit          2D

 20 20  0  0  0  0  0  0  0  0999 V2000
    9.5260   -3.8971    0.0000 C   0  0  0  0  0  0  0  0  0  0  0  0
    8.0260   -3.8971    0.0000 C   0  0  0  0  0  0  0  0  0  0  0  0
    7.2760   -5.1962    0.0000 O   0  0  0  0  0  0  0  0  0  0  0  0
    7.2760   -2.5981    0.0000 C   0  0  0  0  0  0  0  0  0  0  0  0
    8.0260   -1.2990    0.0000 O   0  0  0  0  0  0  0  0  0  0  0  0
    5.7760   -2.5981    0.0000 C   0  0  0  0  0  0  0  0  0  0  0  0
    5.0260   -3.8971    0.0000 C   0  0  0  0  0  0  0  0  0  0  0  0
    3.5260   -3.8971    0.0000 O   0  0  0  0  0  0  0  0  0  0  0  0
    5.7760   -5.1962    0.0000 O   0  0  0  0  0  0  0  0  0  0  0  0
    5.0260   -1.2990    0.0000 C   0  0  0  0  0  0  0  0  0  0  0  0
    5.7760    0.0000    0.0000 O   0  0  0  0  0  0  0  0  0  0  0  0
    3.5260   -1.2990    0.0000 N   0  0  0  0  0  0  0  0  0  0  0  0
    2.7760    0.0000    0.0000 C   0  0  0  0  0  0  0  0  0  0  0  0
    3.5260    1.2990    0.0000 O   0  0  0  0  0  0  0  0  0  0  0  0
    1.2760    0.0000    0.0000 C   0  0  0  0  0  0  0  0  0  0  0  0
    0.3943    1.2135    0.0000 C   0  0  0  0  0  0  0  0  0  0  0  0
   -1.0323    0.7500    0.0000 C   0  0  0  0  0  0  0  0  0  0  0  0
   -1.0323   -0.7500    0.0000 C   0  0  0  0  0  0  0  0  0  0  0  0
   -2.2458   -1.6317    0.0000 O   0  0  0  0  0  0  0  0  0  0  0  0
    0.3943   -1.2135    0.0000 C   0  0  0  0  0  0  0  0  0  0  0  0
  1  2  1  0
  2  3  2  0
  2  4  1  0
  4  5  2  0
  4  6  1  0
  6  7  1  0
  7  8  2  0
  7  9  1  0
  6 10  1  0
 10 11  2  0
 10 12  1  0
 12 13  1  0
 13 14  2  0
 13 15  1  0
 15 16  1  0
 16 17  1  0
 17 18  2  0
 18 19  1  0
 18 20  1  0
 20 15  1  0
M  END
>  <Title>  (1248) 
idABUBgen6

$$$$

     RDKit          2D

 18 20  0  0  0  0  0  0  0  0999 V2000
    3.5260   -1.2990    0.0000 C   0  0  0  0  0  0  0  0  0  0  0  0
    2.7760    0.0000    0.0000 O   0  0  0  0  0  0  0  0  0  0  0  0
    1.2760    0.0000    0.0000 C   0  0  0  0  0  0  0  0  0  0  0  0
    0.3943    1.2135    0.0000 C   0  0  0  0  0  0  0  0  0  0  0  0
   -1.0323    0.7500    0.0000 C   0  0  0  0  0  0  0  0  0  0  0  0
   -1.0323   -0.7500    0.0000 C   0  0  0  0  0  0  0  0  0  0  0  0
   -2.2458   -1.6317    0.0000 N   0  0  0  0  0  0  0  0  0  0  0  0
   -2.2458   -3.1317    0.0000 C   0  0  0  0  0  0  0  0  0  0  0  0
   -3.6724   -3.5952    0.0000 C   0  0  0  0  0  0  0  0  0  0  0  0
   -4.5541   -2.3817    0.0000 N   0  0  0  0  0  0  0  0  0  0  0  0
   -6.0541   -2.3817    0.0000 C   0  0  0  0  0  0  0  0  0  0  0  0
   -6.8041   -3.6807    0.0000 O   0  0  0  0  0  0  0  0  0  0  0  0
   -6.8041   -1.0826    0.0000 C   0  0  0  0  0  0  0  0  0  0  0  0
   -6.4158    0.3662    0.0000 C   0  0  0  0  0  0  0  0  0  0  0  0
   -7.8647    0.7545    0.0000 C   0  0  0  0  0  0  0  0  0  0  0  0
   -8.2530   -0.6944    0.0000 C   0  0  0  0  0  0  0  0  0  0  0  0
   -3.6724   -1.1682    0.0000 C   0  0  0  0  0  0  0  0  0  0  0  0
    0.3943   -1.2135    0.0000 C   0  0  0  0  0  0  0  0  0  0  0  0
  1  2  1  0
  2  3  1  0
  3  4  2  0
  4  5  1  0
  5  6  2  0
  6  7  1  0
  7  8  1  0
  8  9  1  0
  9 10  1  0
 10 11  1  0
 11 12  2  0
 11 13  1  0
 13 14  1  0
 14 15  1  0
 15 16  1  0
 10 17  1  0
  6 18  1  0
 18  3  1  0
 17  7  1  0
 16 13  1  0
M  END
>  <Title>  (1249) 
idABUCgen6

$$$$

     RDKit          2D

 10  9  0  0  0  0  0  0  0  0999 V2000
    0.0000    0.0000    0.0000 C   0  0  0  0  0  0  0  0  0  0  0  0
    1.2990    0.7500    0.0000 C   0  0  0  0  0  0  0  0  0  0  0  0
    2.5981    1.5000    0.0000 C   0  0  0  0  0  0  0  0  0  0  0  0
    2.0490   -0.5490    0.0000 C   0  0  0  0  0  0  0  0  0  0  0  0
    0.5490    2.0490    0.0000 C   0  0  0  0  0  0  0  0  0  0  0  0
   -0.2010    3.3481    0.0000 C   0  0  0  0  0  0  0  0  0  0  0  0
   -0.9510    4.6471    0.0000 C   0  0  0  0  0  0  0  0  0  0  0  0
   -1.7010    5.9462    0.0000 C   0  0  0  0  0  0  0  0  0  0  0  0
   -2.4510    7.2452    0.0000 C   0  0  0  0  0  0  0  0  0  0  0  0
   -3.2010    8.5442    0.0000 N   0  0  0  0  0  0  0  0  0  0  0  0
  1  2  1  0
  2  3  1  0
  2  4  1  0
  2  5  1  0
  5  6  3  0
  6  7  1  0
  7  8  3  0
  8  9  1  0
  9 10  3  0
M  END
>  <Title>  (1250) 
idABUDgen6

$$$$

     RDKit          2D

 30 33  0  0  0  0  0  0  0  0999 V2000
   -0.0000   -8.5981    0.0000 C   0  0  0  0  0  0  0  0  0  0  0  0
   -0.0000   -7.0981    0.0000 C   0  0  0  0  0  0  0  0  0  0  0  0
    1.2990   -6.3481    0.0000 O   0  0  0  0  0  0  0  0  0  0  0  0
   -1.2990   -6.3481    0.0000 C   0  0  0  0  0  0  0  0  0  0  0  0
   -2.5981   -7.0981    0.0000 C   0  0  0  0  0  0  0  0  0  0  0  0
   -2.5981   -8.5981    0.0000 C   0  0  0  0  0  0  0  0  0  0  0  0
   -3.8971   -9.3481    0.0000 C   0  0  0  0  0  0  0  0  0  0  0  0
   -3.8971  -10.8481    0.0000 C   0  0  0  0  0  0  0  0  0  0  0  0
   -2.5981  -11.5981    0.0000 C   0  0  0  0  0  0  0  0  0  0  0  0
   -2.5981  -13.0981    0.0000 N   0  0  0  0  0  0  0  0  0  0  0  0
   -3.8971  -13.8481    0.0000 C   0  0  0  0  0  0  0  0  0  0  0  0
   -5.1962  -13.0981    0.0000 O   0  0  0  0  0  0  0  0  0  0  0  0
   -3.8971  -15.3481    0.0000 C   0  0  0  0  0  0  0  0  0  0  0  0
   -5.1962  -16.0981    0.0000 C   0  0  0  0  0  0  0  0  0  0  0  0
   -5.1962  -17.5981    0.0000 C   0  0  0  0  0  0  0  0  0  0  0  0
   -3.8971  -18.3481    0.0000 C   0  0  0  0  0  0  0  0  0  0  0  0
   -2.5981  -17.5981    0.0000 C   0  0  0  0  0  0  0  0  0  0  0  0
   -2.5981  -16.0981    0.0000 C   0  0  0  0  0  0  0  0  0  0  0  0
   -1.2990  -10.8481    0.0000 C   0  0  0  0  0  0  0  0  0  0  0  0
   -1.2990   -9.3481    0.0000 C   0  0  0  0  0  0  0  0  0  0  0  0
   -1.2990   -4.8481    0.0000 N   0  0  0  0  0  0  0  0  0  0  0  0
   -0.0000   -4.0981    0.0000 C   0  0  0  0  0  0  0  0  0  0  0  0
    1.2990   -4.8481    0.0000 O   0  0  0  0  0  0  0  0  0  0  0  0
   -0.0000   -2.5981    0.0000 C   0  0  0  0  0  0  0  0  0  0  0  0
    0.7500   -1.2990    0.0000 C   0  0  0  0  0  0  0  0  0  0  0  0
    1.5000    0.0000    0.0000 C   0  0  0  0  0  0  0  0  0  0  0  0
    0.7500    1.2990    0.0000 C   0  0  0  0  0  0  0  0  0  0  0  0
   -0.7500    1.2990    0.0000 C   0  0  0  0  0  0  0  0  0  0  0  0
   -1.5000    0.0000    0.0000 C   0  0  0  0  0  0  0  0  0  0  0  0
   -0.7500   -1.2990    0.0000 C   0  0  0  0  0  0  0  0  0  0  0  0
  1  2  1  0
  2  3  2  0
  2  4  1  0
  4  5  1  0
  5  6  1  0
  6  7  2  0
  7  8  1  0
  8  9  2  0
  9 10  1  0
 10 11  1  0
 11 12  2  0
 11 13  1  0
 13 14  2  0
 14 15  1  0
 15 16  2  0
 16 17  1  0
 17 18  2  0
  9 19  1  0
 19 20  1  0
  4 21  1  0
 21 22  1  0
 22 23  2  0
 22 24  1  0
 24 25  1  0
 25 26  2  0
 26 27  1  0
 27 28  2  0
 28 29  1  0
 29 30  2  0
 20  6  1  0
 30 24  1  0
 18 13  1  0
 30 25  1  0
M  END
>  <Title>  (1251) 
idABUEgen6

$$$$

     RDKit          2D

 27 30  0  0  0  0  0  0  0  0999 V2000
   -3.0458   -0.4530    0.0000 C   0  0  0  0  0  0  0  0  0  0  0  0
   -2.5187    0.9513    0.0000 C   0  0  0  0  0  0  0  0  0  0  0  0
   -3.7706    1.7777    0.0000 C   0  0  0  0  0  0  0  0  0  0  0  0
   -4.5399    3.0654    0.0000 C   0  0  0  0  0  0  0  0  0  0  0  0
   -4.6744    4.5593    0.0000 C   0  0  0  0  0  0  0  0  0  0  0  0
   -6.1541    4.3136    0.0000 C   0  0  0  0  0  0  0  0  0  0  0  0
   -4.4142    4.9717    0.0000 N   0  0  0  0  0  0  0  0  0  0  0  0
   -3.5437    5.9120    0.0000 N   0  0  0  0  0  0  0  0  0  0  0  0
   -1.2263    6.3868    0.0000 N   0  0  0  0  0  0  0  0  0  0  0  0
   -0.1501    7.2625    0.0000 C   0  0  0  0  0  0  0  0  0  0  0  0
    1.1017    6.4361    0.0000 C   0  0  0  0  0  0  0  0  0  0  0  0
    1.8711    5.1484    0.0000 C   0  0  0  0  0  0  0  0  0  0  0  0
    2.0056    3.6545    0.0000 C   0  0  0  0  0  0  0  0  0  0  0  0
    1.4785    2.2501    0.0000 C   0  0  0  0  0  0  0  0  0  0  0  0
    0.3943    1.2135    0.0000 C   0  0  0  0  0  0  0  0  0  0  0  0
    1.2760    0.0000    0.0000 C   0  0  0  0  0  0  0  0  0  0  0  0
    0.3943   -1.2135    0.0000 C   0  0  0  0  0  0  0  0  0  0  0  0
   -1.0323   -0.7500    0.0000 C   0  0  0  0  0  0  0  0  0  0  0  0
   -1.0323    0.7500    0.0000 C   0  0  0  0  0  0  0  0  0  0  0  0
   -1.6365    7.4638    0.0000 O   0  0  0  0  0  0  0  0  0  0  0  0
   -3.0631    7.0003    0.0000 C   0  0  0  0  0  0  0  0  0  0  0  0
   -3.8325    8.2879    0.0000 O   0  0  0  0  0  0  0  0  0  0  0  0
   -4.1473    5.9637    0.0000 C   0  0  0  0  0  0  0  0  0  0  0  0
   -5.1000    7.1223    0.0000 C   0  0  0  0  0  0  0  0  0  0  0  0
   -6.5797    6.8766    0.0000 C   0  0  0  0  0  0  0  0  0  0  0  0
   -7.5324    8.0352    0.0000 O   0  0  0  0  0  0  0  0  0  0  0  0
   -7.1068    5.4722    0.0000 N   0  0  0  0  0  0  0  0  0  0  0  0
  1  2  1  0
  2  3  1  0
  3  4  1  0
  4  5  1  0
  5  6  1  0
  6  7  2  0
  7  8  1  0
  8  9  2  0
  9 10  1  0
 10 11  2  0
 11 12  1  0
 12 13  2  0
 13 14  1  0
 14 15  2  0
 15 16  1  0
 16 17  2  0
 17 18  1  0
 18 19  2  0
 10 20  1  0
 20 21  1  0
 21 22  2  0
 21 23  1  0
 23 24  1  0
 24 25  1  0
 25 26  2  0
 25 27  1  0
 19  2  1  0
 23  5  1  0
 27  6  1  0
 19 15  1  0
M  END
>  <Title>  (1252) 
idABUFgen6

$$$$

     RDKit          2D

 25 28  0  0  0  0  0  0  0  0999 V2000
   -3.0000   -2.5981    0.0000 C   0  0  0  0  0  0  0  0  0  0  0  0
   -1.5000   -2.5981    0.0000 C   0  0  0  0  0  0  0  0  0  0  0  0
   -0.7500   -3.8971    0.0000 C   0  0  0  0  0  0  0  0  0  0  0  0
    0.7500   -3.8971    0.0000 C   0  0  0  0  0  0  0  0  0  0  0  0
    1.5000   -2.5981    0.0000 C   0  0  0  0  0  0  0  0  0  0  0  0
    3.0000   -2.5981    0.0000 N   0  0  0  0  0  0  0  0  0  0  0  0
    3.8817   -1.3846    0.0000 C   0  0  0  0  0  0  0  0  0  0  0  0
    5.3083   -1.8481    0.0000 C   0  0  0  0  0  0  0  0  0  0  0  0
    5.3083   -3.3481    0.0000 N   0  0  0  0  0  0  0  0  0  0  0  0
    6.5218   -4.2298    0.0000 C   0  0  0  0  0  0  0  0  0  0  0  0
    7.8921   -3.6196    0.0000 O   0  0  0  0  0  0  0  0  0  0  0  0
    6.3650   -5.7215    0.0000 C   0  0  0  0  0  0  0  0  0  0  0  0
    4.9947   -6.3316    0.0000 C   0  0  0  0  0  0  0  0  0  0  0  0
    4.8379   -7.8234    0.0000 C   0  0  0  0  0  0  0  0  0  0  0  0
    6.0514   -8.7051    0.0000 C   0  0  0  0  0  0  0  0  0  0  0  0
    7.4217   -8.0950    0.0000 C   0  0  0  0  0  0  0  0  0  0  0  0
    7.5785   -6.6032    0.0000 C   0  0  0  0  0  0  0  0  0  0  0  0
    3.8817   -3.8116    0.0000 C   0  0  0  0  0  0  0  0  0  0  0  0
    3.4182   -5.2382    0.0000 O   0  0  0  0  0  0  0  0  0  0  0  0
    0.7500   -1.2990    0.0000 C   0  0  0  0  0  0  0  0  0  0  0  0
    1.5000    0.0000    0.0000 C   0  0  0  0  0  0  0  0  0  0  0  0
    0.7500    1.2990    0.0000 C   0  0  0  0  0  0  0  0  0  0  0  0
   -0.7500    1.2990    0.0000 C   0  0  0  0  0  0  0  0  0  0  0  0
   -1.5000    0.0000    0.0000 C   0  0  0  0  0  0  0  0  0  0  0  0
   -0.7500   -1.2990    0.0000 C   0  0  0  0  0  0  0  0  0  0  0  0
  1  2  1  0
  2  3  2  0
  3  4  1  0
  4  5  2  0
  5  6  1  0
  6  7  1  0
  7  8  1  0
  8  9  1  0
  9 10  1  0
 10 11  2  0
 10 12  1  0
 12 13  2  0
 13 14  1  0
 14 15  2  0
 15 16  1  0
 16 17  2  0
  9 18  1  0
 18 19  2  0
  5 20  1  0
 20 21  2  0
 21 22  1  0
 22 23  2  0
 23 24  1  0
 24 25  2  0
 25  2  1  0
 18  6  1  0
 25 20  1  0
 17 12  1  0
M  END
>  <Title>  (1253) 
idABUGgen6

$$$$

     RDKit          2D

 40 46  0  0  0  0  0  0  0  0999 V2000
   -3.0367   -8.3929    0.0000 C   0  0  0  0  0  0  0  0  0  0  0  0
   -2.1015   -7.2201    0.0000 C   0  0  0  0  0  0  0  0  0  0  0  0
   -0.7500   -7.8710    0.0000 C   0  0  0  0  0  0  0  0  0  0  0  0
    0.7500   -7.8710    0.0000 C   0  0  0  0  0  0  0  0  0  0  0  0
    2.1015   -7.2201    0.0000 C   0  0  0  0  0  0  0  0  0  0  0  0
    3.0367   -8.3929    0.0000 O   0  0  0  0  0  0  0  0  0  0  0  0
    2.4887   -9.7892    0.0000 C   0  0  0  0  0  0  0  0  0  0  0  0
    3.2962  -11.0533    0.0000 C   0  0  0  0  0  0  0  0  0  0  0  0
    2.3435  -12.2119    0.0000 C   0  0  0  0  0  0  0  0  0  0  0  0
    0.9472  -11.6639    0.0000 N   0  0  0  0  0  0  0  0  0  0  0  0
    1.0369  -10.1666    0.0000 C   0  0  0  0  0  0  0  0  0  0  0  0
    3.0367   -6.0474    0.0000 C   0  0  0  0  0  0  0  0  0  0  0  0
    3.3705   -4.5850    0.0000 C   0  0  0  0  0  0  0  0  0  0  0  0
    4.8329   -4.9188    0.0000 C   0  0  0  0  0  0  0  0  0  0  0  0
    4.4991   -6.3812    0.0000 C   0  0  0  0  0  0  0  0  0  0  0  0
    5.2971   -7.6513    0.0000 C   0  0  0  0  0  0  0  0  0  0  0  0
    3.0367   -3.1226    0.0000 C   0  0  0  0  0  0  0  0  0  0  0  0
    4.4410   -2.5955    0.0000 C   0  0  0  0  0  0  0  0  0  0  0  0
    4.3737   -1.0971    0.0000 C   0  0  0  0  0  0  0  0  0  0  0  0
    2.9278   -0.6980    0.0000 C   0  0  0  0  0  0  0  0  0  0  0  0
    2.1015   -1.9499    0.0000 C   0  0  0  0  0  0  0  0  0  0  0  0
    0.7500   -1.2990    0.0000 C   0  0  0  0  0  0  0  0  0  0  0  0
    1.5000    0.0000    0.0000 C   0  0  0  0  0  0  0  0  0  0  0  0
    0.7500    1.2990    0.0000 C   0  0  0  0  0  0  0  0  0  0  0  0
   -0.7500    1.2990    0.0000 C   0  0  0  0  0  0  0  0  0  0  0  0
   -1.5000    0.0000    0.0000 C   0  0  0  0  0  0  0  0  0  0  0  0
   -0.7500   -1.2990    0.0000 C   0  0  0  0  0  0  0  0  0  0  0  0
   -2.1015   -1.9499    0.0000 C   0  0  0  0  0  0  0  0  0  0  0  0
   -2.9278   -0.6980    0.0000 C   0  0  0  0  0  0  0  0  0  0  0  0
   -4.3737   -1.0971    0.0000 C   0  0  0  0  0  0  0  0  0  0  0  0
   -4.4410   -2.5955    0.0000 C   0  0  0  0  0  0  0  0  0  0  0  0
   -3.0367   -3.1226    0.0000 C   0  0  0  0  0  0  0  0  0  0  0  0
   -3.3705   -4.5850    0.0000 C   0  0  0  0  0  0  0  0  0  0  0  0
   -4.8038   -4.1429    0.0000 C   0  0  0  0  0  0  0  0  0  0  0  0
   -5.9034   -5.1631    0.0000 C   0  0  0  0  0  0  0  0  0  0  0  0
   -5.5696   -6.6255    0.0000 C   0  0  0  0  0  0  0  0  0  0  0  0
   -6.6692   -7.6458    0.0000 C   0  0  0  0  0  0  0  0  0  0  0  0
   -7.7688   -8.6660    0.0000 N   0  0  0  0  0  0  0  0  0  0  0  0
   -4.1363   -7.0677    0.0000 C   0  0  0  0  0  0  0  0  0  0  0  0
   -3.0367   -6.0474    0.0000 C   0  0  0  0  0  0  0  0  0  0  0  0
  1  2  1  0
  2  3  1  0
  3  4  1  0
  4  5  1  0
  5  6  1  0
  6  7  1  0
  7  8  2  0
  8  9  1  0
  9 10  1  0
 10 11  2  0
  5 12  1  0
 12 13  1  0
 13 14  2  0
 14 15  1  0
 15 16  1  0
 13 17  1  0
 17 18  1  0
 18 19  2  0
 19 20  1  0
 20 21  2  0
 21 22  1  0
 22 23  1  0
 23 24  1  0
 24 25  1  0
 25 26  1  0
 26 27  1  0
 27 28  1  0
 28 29  1  0
 29 30  2  0
 30 31  1  0
 31 32  2  0
 32 33  1  0
 33 34  2  0
 34 35  1  0
 35 36  2  0
 36 37  1  0
 37 38  3  0
 36 39  1  0
 39 40  2  0
 40  2  1  0
 11  7  1  0
 15 12  1  0
 21 17  1  0
 27 22  1  0
 32 28  1  0
 40 33  1  0
M  END
>  <Title>  (1254) 
idABUHgen6

$$$$

     RDKit          2D

 27 29  0  0  0  0  0  0  0  0999 V2000
    5.2500   -2.7990    0.0000 C   0  0  0  0  0  0  0  0  0  0  0  0
    5.2500   -1.2990    0.0000 C   0  0  0  0  0  0  0  0  0  0  0  0
    5.2500    0.2010    0.0000 C   0  0  0  0  0  0  0  0  0  0  0  0
    6.7500   -1.2990    0.0000 C   0  0  0  0  0  0  0  0  0  0  0  0
    3.7500   -1.2990    0.0000 O   0  0  0  0  0  0  0  0  0  0  0  0
    3.0000    0.0000    0.0000 C   0  0  0  0  0  0  0  0  0  0  0  0
    3.7500    1.2990    0.0000 O   0  0  0  0  0  0  0  0  0  0  0  0
    1.5000    0.0000    0.0000 N   0  0  0  0  0  0  0  0  0  0  0  0
    0.7500   -1.2990    0.0000 C   0  0  0  0  0  0  0  0  0  0  0  0
   -0.7500   -1.2990    0.0000 C   0  0  0  0  0  0  0  0  0  0  0  0
   -1.5000    0.0000    0.0000 C   0  0  0  0  0  0  0  0  0  0  0  0
   -3.0000    0.0000    0.0000 N   0  0  0  0  0  0  0  0  0  0  0  0
   -3.7500    1.2990    0.0000 C   0  0  0  0  0  0  0  0  0  0  0  0
   -5.2500    1.2990    0.0000 C   0  0  0  0  0  0  0  0  0  0  0  0
   -6.0000    0.0000    0.0000 C   0  0  0  0  0  0  0  0  0  0  0  0
   -7.5000    0.0000    0.0000 N   0  0  0  0  0  0  0  0  0  0  0  0
   -8.3817   -1.2135    0.0000 C   0  0  0  0  0  0  0  0  0  0  0  0
   -9.8083   -0.7500    0.0000 C   0  0  0  0  0  0  0  0  0  0  0  0
   -9.8083    0.7500    0.0000 C   0  0  0  0  0  0  0  0  0  0  0  0
  -11.0218    1.6317    0.0000 C   0  0  0  0  0  0  0  0  0  0  0  0
  -12.3921    1.0216    0.0000 O   0  0  0  0  0  0  0  0  0  0  0  0
  -10.8650    3.1235    0.0000 O   0  0  0  0  0  0  0  0  0  0  0  0
   -8.3817    1.2135    0.0000 C   0  0  0  0  0  0  0  0  0  0  0  0
   -5.2500   -1.2990    0.0000 C   0  0  0  0  0  0  0  0  0  0  0  0
   -3.7500   -1.2990    0.0000 C   0  0  0  0  0  0  0  0  0  0  0  0
   -0.7500    1.2990    0.0000 C   0  0  0  0  0  0  0  0  0  0  0  0
    0.7500    1.2990    0.0000 C   0  0  0  0  0  0  0  0  0  0  0  0
  1  2  1  0
  2  3  1  0
  2  4  1  0
  2  5  1  0
  5  6  1  0
  6  7  2  0
  6  8  1  0
  8  9  1  0
  9 10  1  0
 10 11  1  0
 11 12  1  0
 12 13  1  0
 13 14  1  0
 14 15  1  0
 15 16  1  0
 16 17  1  0
 17 18  1  0
 18 19  1  0
 19 20  1  0
 20 21  2  0
 20 22  1  0
 19 23  1  0
 15 24  1  0
 24 25  1  0
 11 26  1  0
 26 27  1  0
 27  8  1  0
 25 12  1  0
 23 16  1  0
M  END
>  <Title>  (1255) 
idABUIgen6

$$$$

     RDKit          2D

 12 13  0  0  0  0  0  0  0  0999 V2000
    2.7760    0.0000    0.0000 C   0  0  0  0  0  0  0  0  0  0  0  0
    1.2760    0.0000    0.0000 C   0  0  0  0  0  0  0  0  0  0  0  0
    0.3943    1.2135    0.0000 C   0  0  0  0  0  0  0  0  0  0  0  0
   -1.0323    0.7500    0.0000 C   0  0  0  0  0  0  0  0  0  0  0  0
   -1.0323   -0.7500    0.0000 C   0  0  0  0  0  0  0  0  0  0  0  0
   -2.2458   -1.6317    0.0000 N   0  0  0  0  0  0  0  0  0  0  0  0
   -2.2458   -3.1317    0.0000 C   0  0  0  0  0  0  0  0  0  0  0  0
   -3.6724   -3.5952    0.0000 C   0  0  0  0  0  0  0  0  0  0  0  0
   -4.5541   -2.3817    0.0000 C   0  0  0  0  0  0  0  0  0  0  0  0
   -3.6724   -1.1682    0.0000 C   0  0  0  0  0  0  0  0  0  0  0  0
   -4.1359    0.2584    0.0000 O   0  0  0  0  0  0  0  0  0  0  0  0
    0.3943   -1.2135    0.0000 N   0  0  0  0  0  0  0  0  0  0  0  0
  1  2  1  0
  2  3  2  0
  3  4  1  0
  4  5  2  0
  5  6  1  0
  6  7  1  0
  7  8  1  0
  8  9  1  0
  9 10  1  0
 10 11  2  0
  5 12  1  0
 12  2  1  0
 10  6  1  0
M  END
>  <Title>  (1256) 
idABUJgen6

$$$$

     RDKit          2D

 27 29  0  0  0  0  0  0  0  0999 V2000
    3.6931  -10.0721    0.0000 C   0  0  0  0  0  0  0  0  0  0  0  0
    4.6062   -8.8820    0.0000 C   0  0  0  0  0  0  0  0  0  0  0  0
    6.0934   -9.0778    0.0000 O   0  0  0  0  0  0  0  0  0  0  0  0
    4.0322   -7.4962    0.0000 O   0  0  0  0  0  0  0  0  0  0  0  0
    4.9453   -6.3062    0.0000 C   0  0  0  0  0  0  0  0  0  0  0  0
    6.4325   -6.5020    0.0000 O   0  0  0  0  0  0  0  0  0  0  0  0
    4.3713   -4.9204    0.0000 C   0  0  0  0  0  0  0  0  0  0  0  0
    5.4320   -3.8597    0.0000 C   0  0  0  0  0  0  0  0  0  0  0  0
    5.4320   -2.3597    0.0000 C   0  0  0  0  0  0  0  0  0  0  0  0
    4.3713   -1.2990    0.0000 C   0  0  0  0  0  0  0  0  0  0  0  0
    2.8713   -1.2990    0.0000 C   0  0  0  0  0  0  0  0  0  0  0  0
    1.8107   -2.3597    0.0000 C   0  0  0  0  0  0  0  0  0  0  0  0
    0.7500   -1.2990    0.0000 C   0  0  0  0  0  0  0  0  0  0  0  0
    1.5000    0.0000    0.0000 C   0  0  0  0  0  0  0  0  0  0  0  0
    0.7500    1.2990    0.0000 C   0  0  0  0  0  0  0  0  0  0  0  0
   -0.7500    1.2990    0.0000 C   0  0  0  0  0  0  0  0  0  0  0  0
   -1.5000    0.0000    0.0000 C   0  0  0  0  0  0  0  0  0  0  0  0
   -0.7500   -1.2990    0.0000 C   0  0  0  0  0  0  0  0  0  0  0  0
   -1.8107   -2.3597    0.0000 C   0  0  0  0  0  0  0  0  0  0  0  0
   -3.1965   -1.7857    0.0000 O   0  0  0  0  0  0  0  0  0  0  0  0
   -1.8107   -3.8597    0.0000 C   0  0  0  0  0  0  0  0  0  0  0  0
   -3.1965   -4.4337    0.0000 O   0  0  0  0  0  0  0  0  0  0  0  0
   -0.7500   -4.9204    0.0000 O   0  0  0  0  0  0  0  0  0  0  0  0
    0.7500   -4.9204    0.0000 C   0  0  0  0  0  0  0  0  0  0  0  0
    1.3240   -6.3062    0.0000 O   0  0  0  0  0  0  0  0  0  0  0  0
    1.8107   -3.8597    0.0000 C   0  0  0  0  0  0  0  0  0  0  0  0
    2.8713   -4.9204    0.0000 C   0  0  0  0  0  0  0  0  0  0  0  0
  1  2  1  0
  2  3  2  0
  2  4  1  0
  4  5  1  0
  5  6  2  0
  5  7  1  0
  7  8  2  0
  8  9  1  0
  9 10  2  0
 10 11  1  0
 11 12  2  0
 12 13  1  0
 13 14  2  0
 14 15  1  0
 15 16  2  0
 16 17  1  0
 17 18  2  0
 18 19  1  0
 19 20  2  0
 19 21  1  0
 21 22  2  0
 21 23  1  0
 23 24  1  0
 24 25  2  0
 24 26  1  0
 26 27  1  0
 27  7  1  0
 26 12  1  0
 18 13  1  0
M  END
>  <Title>  (1257) 
idABUKgen6

$$$$

     RDKit          2D

 22 24  0  0  0  0  0  0  0  0999 V2000
    3.9271    0.0000    0.0000 C   0  0  0  0  0  0  0  0  0  0  0  0
    2.4271    0.0000    0.0000 C   0  0  0  0  0  0  0  0  0  0  0  0
    1.9635   -1.4266    0.0000 C   0  0  0  0  0  0  0  0  0  0  0  0
    0.7500   -2.3083    0.0000 C   0  0  0  0  0  0  0  0  0  0  0  0
   -0.7500   -2.3083    0.0000 C   0  0  0  0  0  0  0  0  0  0  0  0
   -1.2135   -3.7348    0.0000 C   0  0  0  0  0  0  0  0  0  0  0  0
   -2.6807   -4.0467    0.0000 N   0  0  0  0  0  0  0  0  0  0  0  0
   -3.1443   -5.4733    0.0000 N   0  0  0  0  0  0  0  0  0  0  0  0
   -2.1406   -6.5880    0.0000 N   0  0  0  0  0  0  0  0  0  0  0  0
   -0.6734   -6.2761    0.0000 N   0  0  0  0  0  0  0  0  0  0  0  0
   -0.2098   -4.8496    0.0000 N   0  0  0  0  0  0  0  0  0  0  0  0
   -1.9635   -1.4266    0.0000 C   0  0  0  0  0  0  0  0  0  0  0  0
   -2.4271    0.0000    0.0000 C   0  0  0  0  0  0  0  0  0  0  0  0
   -1.9635    1.4266    0.0000 C   0  0  0  0  0  0  0  0  0  0  0  0
   -0.7500    2.3083    0.0000 C   0  0  0  0  0  0  0  0  0  0  0  0
    0.7500    2.3083    0.0000 C   0  0  0  0  0  0  0  0  0  0  0  0
    1.9635    1.4266    0.0000 C   0  0  0  0  0  0  0  0  0  0  0  0
   -1.6814    1.6910    0.0000 C   0  0  0  0  0  0  0  0  0  0  0  0
   -2.7710    3.8471    0.0000 O   0  0  0  0  0  0  0  0  0  0  0  0
   -1.4006    0.4618    0.0000 N   0  0  0  0  0  0  0  0  0  0  0  0
   -2.3057   -0.1675    0.0000 C   0  0  0  0  0  0  0  0  0  0  0  0
   -4.3311   -0.9542    0.0000 O   0  0  0  0  0  0  0  0  0  0  0  0
  1  2  1  0
  2  3  1  0
  3  4  2  0
  4  5  1  0
  5  6  1  0
  6  7  2  0
  7  8  1  0
  8  9  2  0
  9 10  1  0
 10 11  2  0
  5 12  1  0
 12 13  1  0
 13 14  1  0
 14 15  1  0
 15 16  1  0
 16 17  1  0
 15 18  1  0
 18 19  2  0
 18 20  1  0
 20 21  1  0
 21 22  2  0
 17  2  1  0
 11  6  1  0
 21 12  1  0
M  END
>  <Title>  (1258) 
idABULgen6

$$$$

     RDKit          2D

 16 17  0  0  0  0  0  0  0  0999 V2000
    1.8478   -9.0619    0.0000 C   0  0  0  0  0  0  0  0  0  0  0  0
    2.0046   -7.5702    0.0000 C   0  0  0  0  0  0  0  0  0  0  0  0
    3.3037   -6.8202    0.0000 C   0  0  0  0  0  0  0  0  0  0  0  0
    2.9918   -5.3529    0.0000 C   0  0  0  0  0  0  0  0  0  0  0  0
    1.5000   -5.1962    0.0000 C   0  0  0  0  0  0  0  0  0  0  0  0
    0.7500   -3.8971    0.0000 C   0  0  0  0  0  0  0  0  0  0  0  0
   -0.7500   -3.8971    0.0000 O   0  0  0  0  0  0  0  0  0  0  0  0
    1.5000   -2.5981    0.0000 N   0  0  0  0  0  0  0  0  0  0  0  0
    0.7500   -1.2990    0.0000 C   0  0  0  0  0  0  0  0  0  0  0  0
    1.5000    0.0000    0.0000 N   0  0  0  0  0  0  0  0  0  0  0  0
    0.7500    1.2990    0.0000 N   0  0  0  0  0  0  0  0  0  0  0  0
   -0.7500    1.2990    0.0000 N   0  0  0  0  0  0  0  0  0  0  0  0
   -1.5000    0.0000    0.0000 N   0  0  0  0  0  0  0  0  0  0  0  0
   -0.7500   -1.2990    0.0000 N   0  0  0  0  0  0  0  0  0  0  0  0
    0.8899   -6.5665    0.0000 C   0  0  0  0  0  0  0  0  0  0  0  0
   -0.5773   -6.8783    0.0000 O   0  0  0  0  0  0  0  0  0  0  0  0
  1  2  1  0
  2  3  1  0
  3  4  1  0
  4  5  1  0
  5  6  1  0
  6  7  2  0
  6  8  1  0
  8  9  1  0
  9 10  2  0
 10 11  1  0
 11 12  2  0
 12 13  1  0
 13 14  2  0
  5 15  1  0
 15 16  2  0
 15  2  1  0
 14  9  1  0
M  END
>  <Title>  (1259) 
idABUMgen6

$$$$

     RDKit          2D

  7  7  0  0  0  0  0  0  0  0999 V2000
    3.5260   -1.2990    0.0000 C   0  0  0  0  0  0  0  0  0  0  0  0
    2.7760    0.0000    0.0000 N   0  0  0  0  0  0  0  0  0  0  0  0
    1.2760    0.0000    0.0000 C   0  0  0  0  0  0  0  0  0  0  0  0
    0.3943    1.2135    0.0000 C   0  0  0  0  0  0  0  0  0  0  0  0
   -1.0323    0.7500    0.0000 C   0  0  0  0  0  0  0  0  0  0  0  0
   -1.0323   -0.7500    0.0000 C   0  0  0  0  0  0  0  0  0  0  0  0
    0.3943   -1.2135    0.0000 C   0  0  0  0  0  0  0  0  0  0  0  0
  1  2  1  0
  2  3  1  0
  3  4  2  0
  4  5  1  0
  5  6  2  0
  6  7  1  0
  7  3  1  0
M  END
>  <Title>  (1260) 
idABUNgen6

$$$$

     RDKit          2D

 12 13  0  0  0  0  0  0  0  0999 V2000
   -1.9635   -4.0247    0.0000 C   0  0  0  0  0  0  0  0  0  0  0  0
   -1.2135   -2.7256    0.0000 C   0  0  0  0  0  0  0  0  0  0  0  0
   -2.5838   -2.1155    0.0000 O   0  0  0  0  0  0  0  0  0  0  0  0
   -0.0000   -3.6073    0.0000 C   0  0  0  0  0  0  0  0  0  0  0  0
   -0.0000   -5.1073    0.0000 O   0  0  0  0  0  0  0  0  0  0  0  0
    1.2135   -2.7256    0.0000 O   0  0  0  0  0  0  0  0  0  0  0  0
    0.7500   -1.2990    0.0000 C   0  0  0  0  0  0  0  0  0  0  0  0
    1.5000    0.0000    0.0000 C   0  0  0  0  0  0  0  0  0  0  0  0
    0.7500    1.2990    0.0000 C   0  0  0  0  0  0  0  0  0  0  0  0
   -0.7500    1.2990    0.0000 C   0  0  0  0  0  0  0  0  0  0  0  0
   -1.5000    0.0000    0.0000 C   0  0  0  0  0  0  0  0  0  0  0  0
   -0.7500   -1.2990    0.0000 C   0  0  0  0  0  0  0  0  0  0  0  0
  1  2  1  0
  2  3  1  0
  2  4  1  0
  4  5  2  0
  4  6  1  0
  6  7  1  0
  7  8  2  0
  8  9  1  0
  9 10  2  0
 10 11  1  0
 11 12  2  0
 12  2  1  0
 12  7  1  0
M  END
>  <Title>  (1261) 
idABUOgen6

$$$$

     RDKit          2D

 21 22  0  0  0  0  0  0  0  0999 V2000
   -2.5767  -11.2778    0.0000 C   0  0  0  0  0  0  0  0  0  0  0  0
   -1.2064  -10.6676    0.0000 C   0  0  0  0  0  0  0  0  0  0  0  0
   -1.0496   -9.1759    0.0000 C   0  0  0  0  0  0  0  0  0  0  0  0
    0.3207   -8.5658    0.0000 C   0  0  0  0  0  0  0  0  0  0  0  0
    1.5342   -9.4474    0.0000 C   0  0  0  0  0  0  0  0  0  0  0  0
    1.3774  -10.9392    0.0000 C   0  0  0  0  0  0  0  0  0  0  0  0
    0.4775   -7.0740    0.0000 C   0  0  0  0  0  0  0  0  0  0  0  0
   -0.7360   -6.1923    0.0000 O   0  0  0  0  0  0  0  0  0  0  0  0
    1.8478   -6.4639    0.0000 N   0  0  0  0  0  0  0  0  0  0  0  0
    2.0046   -4.9721    0.0000 C   0  0  0  0  0  0  0  0  0  0  0  0
    3.3037   -4.2221    0.0000 C   0  0  0  0  0  0  0  0  0  0  0  0
    2.9918   -2.7549    0.0000 C   0  0  0  0  0  0  0  0  0  0  0  0
    1.5000   -2.5981    0.0000 C   0  0  0  0  0  0  0  0  0  0  0  0
    0.7500   -1.2990    0.0000 C   0  0  0  0  0  0  0  0  0  0  0  0
    1.5000    0.0000    0.0000 C   0  0  0  0  0  0  0  0  0  0  0  0
    0.7500    1.2990    0.0000 C   0  0  0  0  0  0  0  0  0  0  0  0
   -0.7500    1.2990    0.0000 C   0  0  0  0  0  0  0  0  0  0  0  0
   -1.5000    2.5981    0.0000 O   0  0  0  0  0  0  0  0  0  0  0  0
   -1.5000    0.0000    0.0000 C   0  0  0  0  0  0  0  0  0  0  0  0
   -0.7500   -1.2990    0.0000 C   0  0  0  0  0  0  0  0  0  0  0  0
    0.8899   -3.9684    0.0000 C   0  0  0  0  0  0  0  0  0  0  0  0
  1  2  1  0
  2  3  2  3
  3  4  1  0
  4  5  2  3
  5  6  1  0
  4  7  1  0
  7  8  2  0
  7  9  1  0
  9 10  1  0
 10 11  2  0
 11 12  1  0
 12 13  2  0
 13 14  1  0
 14 15  2  0
 15 16  1  0
 16 17  2  0
 17 18  1  0
 17 19  1  0
 19 20  2  0
 13 21  1  0
 21 10  1  0
 20 14  1  0
M  END
>  <Title>  (1262) 
idABUPgen6

$$$$

     RDKit          2D

 34 37  0  0  0  0  0  0  0  0999 V2000
  -10.2463    0.5189    0.0000 C   0  0  0  0  0  0  0  0  0  0  0  0
   -9.9463   -0.9507    0.0000 C   0  0  0  0  0  0  0  0  0  0  0  0
   -9.6463   -2.4204    0.0000 C   0  0  0  0  0  0  0  0  0  0  0  0
  -11.4160   -1.2508    0.0000 C   0  0  0  0  0  0  0  0  0  0  0  0
   -8.4766   -0.6507    0.0000 C   0  0  0  0  0  0  0  0  0  0  0  0
   -7.0069   -0.3507    0.0000 C   0  0  0  0  0  0  0  0  0  0  0  0
   -5.5372   -0.0506    0.0000 C   0  0  0  0  0  0  0  0  0  0  0  0
   -5.0622    1.3722    0.0000 O   0  0  0  0  0  0  0  0  0  0  0  0
   -4.5426   -1.1734    0.0000 N   0  0  0  0  0  0  0  0  0  0  0  0
   -3.0729   -0.8734    0.0000 C   0  0  0  0  0  0  0  0  0  0  0  0
   -2.0782   -1.9961    0.0000 C   0  0  0  0  0  0  0  0  0  0  0  0
   -2.9303   -3.2306    0.0000 C   0  0  0  0  0  0  0  0  0  0  0  0
   -3.1111   -4.7197    0.0000 C   0  0  0  0  0  0  0  0  0  0  0  0
   -2.5792   -6.1222    0.0000 C   0  0  0  0  0  0  0  0  0  0  0  0
   -1.4564   -7.1169    0.0000 C   0  0  0  0  0  0  0  0  0  0  0  0
   -0.0000   -7.4758    0.0000 C   0  0  0  0  0  0  0  0  0  0  0  0
    1.4564   -7.1169    0.0000 C   0  0  0  0  0  0  0  0  0  0  0  0
    2.5792   -6.1222    0.0000 C   0  0  0  0  0  0  0  0  0  0  0  0
    3.1111   -4.7197    0.0000 C   0  0  0  0  0  0  0  0  0  0  0  0
    2.9303   -3.2306    0.0000 C   0  0  0  0  0  0  0  0  0  0  0  0
    3.5733   -1.8754    0.0000 C   0  0  0  0  0  0  0  0  0  0  0  0
    2.0782   -1.9961    0.0000 C   0  0  0  0  0  0  0  0  0  0  0  0
    0.7500   -1.2990    0.0000 C   0  0  0  0  0  0  0  0  0  0  0  0
    1.5000    0.0000    0.0000 C   0  0  0  0  0  0  0  0  0  0  0  0
    0.7500    1.2990    0.0000 C   0  0  0  0  0  0  0  0  0  0  0  0
   -0.7500    1.2990    0.0000 C   0  0  0  0  0  0  0  0  0  0  0  0
   -1.5000    0.0000    0.0000 C   0  0  0  0  0  0  0  0  0  0  0  0
   -0.7500   -1.2990    0.0000 C   0  0  0  0  0  0  0  0  0  0  0  0
   -2.4511   -8.2396    0.0000 O   0  0  0  0  0  0  0  0  0  0  0  0
   -3.5739   -7.2450    0.0000 C   0  0  0  0  0  0  0  0  0  0  0  0
   -5.0711   -7.3355    0.0000 O   0  0  0  0  0  0  0  0  0  0  0  0
   -5.0176   -2.5962    0.0000 C   0  0  0  0  0  0  0  0  0  0  0  0
   -4.0229   -3.7190    0.0000 O   0  0  0  0  0  0  0  0  0  0  0  0
   -6.4872   -2.8962    0.0000 O   0  0  0  0  0  0  0  0  0  0  0  0
  1  2  1  0
  2  3  1  0
  2  4  1  0
  2  5  1  0
  5  6  3  0
  6  7  1  0
  7  8  2  0
  7  9  1  0
  9 10  1  0
 10 11  1  0
 11 12  2  0
 12 13  1  0
 13 14  2  0
 14 15  1  0
 15 16  2  0
 16 17  1  0
 17 18  2  0
 18 19  1  0
 19 20  2  0
 20 21  1  0
 21 22  2  0
 22 23  1  0
 23 24  2  0
 24 25  1  0
 25 26  2  0
 26 27  1  0
 27 28  2  0
 15 29  1  0
 29 30  1  0
 30 31  2  0
  9 32  1  0
 32 33  2  0
 32 34  1  0
 28 11  1  0
 30 14  1  0
 22 20  1  0
 28 23  1  0
M  END
>  <Title>  (1263) 
idABUQgen6

$$$$

     RDKit          2D

 20 22  0  0  0  0  0  0  0  0999 V2000
   -3.0000   -2.5981    0.0000 C   0  0  0  0  0  0  0  0  0  0  0  0
   -1.5000   -2.5981    0.0000 C   0  0  0  0  0  0  0  0  0  0  0  0
   -0.7500   -3.8971    0.0000 C   0  0  0  0  0  0  0  0  0  0  0  0
    0.7500   -3.8971    0.0000 C   0  0  0  0  0  0  0  0  0  0  0  0
    1.5000   -2.5981    0.0000 N   0  0  0  0  0  0  0  0  0  0  0  0
    3.0000   -2.5981    0.0000 C   0  0  0  0  0  0  0  0  0  0  0  0
    3.7500   -1.2990    0.0000 O   0  0  0  0  0  0  0  0  0  0  0  0
    3.7500   -3.8971    0.0000 N   0  0  0  0  0  0  0  0  0  0  0  0
    5.2500   -3.8971    0.0000 C   0  0  0  0  0  0  0  0  0  0  0  0
    6.0000   -5.1962    0.0000 N   0  0  0  0  0  0  0  0  0  0  0  0
    7.5000   -5.1962    0.0000 N   0  0  0  0  0  0  0  0  0  0  0  0
    8.2500   -3.8971    0.0000 N   0  0  0  0  0  0  0  0  0  0  0  0
    7.5000   -2.5981    0.0000 N   0  0  0  0  0  0  0  0  0  0  0  0
    6.0000   -2.5981    0.0000 N   0  0  0  0  0  0  0  0  0  0  0  0
    0.7500   -1.2990    0.0000 C   0  0  0  0  0  0  0  0  0  0  0  0
    1.5000    0.0000    0.0000 C   0  0  0  0  0  0  0  0  0  0  0  0
    0.7500    1.2990    0.0000 C   0  0  0  0  0  0  0  0  0  0  0  0
   -0.7500    1.2990    0.0000 C   0  0  0  0  0  0  0  0  0  0  0  0
   -1.5000    0.0000    0.0000 C   0  0  0  0  0  0  0  0  0  0  0  0
   -0.7500   -1.2990    0.0000 C   0  0  0  0  0  0  0  0  0  0  0  0
  1  2  1  0
  2  3  1  0
  3  4  1  0
  4  5  1  0
  5  6  1  0
  6  7  2  0
  6  8  1  0
  8  9  1  0
  9 10  2  0
 10 11  1  0
 11 12  2  0
 12 13  1  0
 13 14  2  0
  5 15  1  0
 15 16  2  0
 16 17  1  0
 17 18  2  0
 18 19  1  0
 19 20  2  0
 20  2  1  0
 14  9  1  0
 20 15  1  0
M  END
>  <Title>  (1264) 
idABURgen6

$$$$

     RDKit          2D

 31 34  0  0  0  0  0  0  0  0999 V2000
   -0.0000   -8.0154    0.0000 C   0  0  0  0  0  0  0  0  0  0  0  0
   -0.0000   -6.5154    0.0000 C   0  0  0  0  0  0  0  0  0  0  0  0
    1.4392   -6.0928    0.0000 C   0  0  0  0  0  0  0  0  0  0  0  0
    2.4215   -4.9592    0.0000 C   0  0  0  0  0  0  0  0  0  0  0  0
    2.6350   -3.4744    0.0000 C   0  0  0  0  0  0  0  0  0  0  0  0
    2.0119   -2.1100    0.0000 C   0  0  0  0  0  0  0  0  0  0  0  0
    3.1455   -1.1277    0.0000 C   0  0  0  0  0  0  0  0  0  0  0  0
    2.8616    0.3452    0.0000 O   0  0  0  0  0  0  0  0  0  0  0  0
    4.5630   -1.6183    0.0000 N   0  0  0  0  0  0  0  0  0  0  0  0
    5.6966   -0.6360    0.0000 C   0  0  0  0  0  0  0  0  0  0  0  0
    7.1141   -1.1266    0.0000 N   0  0  0  0  0  0  0  0  0  0  0  0
    8.2478   -0.1443    0.0000 N   0  0  0  0  0  0  0  0  0  0  0  0
    7.9639    1.3286    0.0000 N   0  0  0  0  0  0  0  0  0  0  0  0
    6.5464    1.8192    0.0000 N   0  0  0  0  0  0  0  0  0  0  0  0
    5.4128    0.8369    0.0000 N   0  0  0  0  0  0  0  0  0  0  0  0
    0.7500   -1.2990    0.0000 C   0  0  0  0  0  0  0  0  0  0  0  0
    1.5000    0.0000    0.0000 C   0  0  0  0  0  0  0  0  0  0  0  0
    0.7500    1.2990    0.0000 C   0  0  0  0  0  0  0  0  0  0  0  0
   -0.7500    1.2990    0.0000 C   0  0  0  0  0  0  0  0  0  0  0  0
   -1.5000    0.0000    0.0000 C   0  0  0  0  0  0  0  0  0  0  0  0
   -0.7500   -1.2990    0.0000 C   0  0  0  0  0  0  0  0  0  0  0  0
   -2.0119   -2.1100    0.0000 C   0  0  0  0  0  0  0  0  0  0  0  0
   -3.1455   -1.1277    0.0000 O   0  0  0  0  0  0  0  0  0  0  0  0
   -2.6350   -3.4744    0.0000 O   0  0  0  0  0  0  0  0  0  0  0  0
   -2.4215   -4.9592    0.0000 C   0  0  0  0  0  0  0  0  0  0  0  0
   -3.8944   -5.2431    0.0000 C   0  0  0  0  0  0  0  0  0  0  0  0
   -4.3850   -6.6606    0.0000 C   0  0  0  0  0  0  0  0  0  0  0  0
   -3.4027   -7.7942    0.0000 C   0  0  0  0  0  0  0  0  0  0  0  0
   -3.8933   -9.2117    0.0000 O   0  0  0  0  0  0  0  0  0  0  0  0
   -1.9298   -7.5103    0.0000 C   0  0  0  0  0  0  0  0  0  0  0  0
   -1.4392   -6.0928    0.0000 C   0  0  0  0  0  0  0  0  0  0  0  0
  1  2  1  0
  2  3  1  0
  3  4  2  0
  4  5  1  0
  5  6  1  0
  6  7  1  0
  7  8  2  0
  7  9  1  0
  9 10  1  0
 10 11  2  0
 11 12  1  0
 12 13  2  0
 13 14  1  0
 14 15  2  0
  6 16  1  0
 16 17  2  0
 17 18  1  0
 18 19  2  0
 19 20  1  0
 20 21  2  0
 21 22  1  0
 22 23  2  0
 22 24  1  0
 24 25  1  0
 25 26  2  0
 26 27  1  0
 27 28  2  0
 28 29  1  0
 28 30  1  0
 30 31  2  0
 31  2  1  0
 15 10  1  0
 21 16  1  0
 31 25  1  0
M  END
>  <Title>  (1265) 
idABUSgen6

$$$$

     RDKit          2D

 33 37  0  0  0  0  0  0  0  0999 V2000
   -2.9678    0.5290    0.0000 C   0  0  0  0  0  0  0  0  0  0  0  0
   -3.7372   -0.7587    0.0000 C   0  0  0  0  0  0  0  0  0  0  0  0
   -5.2311   -0.8932    0.0000 C   0  0  0  0  0  0  0  0  0  0  0  0
   -5.5649   -2.3556    0.0000 C   0  0  0  0  0  0  0  0  0  0  0  0
   -4.2772   -3.1249    0.0000 C   0  0  0  0  0  0  0  0  0  0  0  0
   -3.1476   -2.1380    0.0000 C   0  0  0  0  0  0  0  0  0  0  0  0
   -1.6852   -2.4718    0.0000 C   0  0  0  0  0  0  0  0  0  0  0  0
   -1.3515   -3.9342    0.0000 C   0  0  0  0  0  0  0  0  0  0  0  0
   -0.0000   -4.5850    0.0000 S   0  0  0  0  0  4  0  0  0  0  0  0
    1.3515   -3.9342    0.0000 N   0  0  0  0  0  0  0  0  0  0  0  0
    1.6852   -2.4718    0.0000 N   0  0  0  0  0  0  0  0  0  0  0  0
    3.1476   -2.1380    0.0000 N   0  0  0  0  0  0  0  0  0  0  0  0
    4.1679   -3.2376    0.0000 C   0  0  0  0  0  0  0  0  0  0  0  0
    5.6303   -2.9038    0.0000 C   0  0  0  0  0  0  0  0  0  0  0  0
    6.0724   -1.4704    0.0000 N   0  0  0  0  0  0  0  0  0  0  0  0
    7.5348   -1.1367    0.0000 C   0  0  0  0  0  0  0  0  0  0  0  0
    7.9769    0.2967    0.0000 O   0  0  0  0  0  0  0  0  0  0  0  0
    8.5551   -2.2362    0.0000 C   0  0  0  0  0  0  0  0  0  0  0  0
    8.1129   -3.6696    0.0000 C   0  0  0  0  0  0  0  0  0  0  0  0
    9.1332   -4.7692    0.0000 C   0  0  0  0  0  0  0  0  0  0  0  0
   10.5956   -4.4354    0.0000 C   0  0  0  0  0  0  0  0  0  0  0  0
   11.0377   -3.0020    0.0000 C   0  0  0  0  0  0  0  0  0  0  0  0
   10.0175   -1.9025    0.0000 C   0  0  0  0  0  0  0  0  0  0  0  0
    5.0522   -0.3709    0.0000 C   0  0  0  0  0  0  0  0  0  0  0  0
    3.5898   -0.7046    0.0000 C   0  0  0  0  0  0  0  0  0  0  0  0
    0.7500   -1.2990    0.0000 C   0  0  0  0  0  0  0  0  0  0  0  0
    1.5000    0.0000    0.0000 C   0  0  0  0  0  0  0  0  0  0  0  0
    0.7500    1.2990    0.0000 C   0  0  0  0  0  0  0  0  0  0  0  0
   -0.7500    1.2990    0.0000 C   0  0  0  0  0  0  0  0  0  0  0  0
   -1.5000    2.5981    0.0000 C   0  0  0  0  0  0  0  0  0  0  0  0
   -2.2500    3.8971    0.0000 N   0  0  0  0  0  0  0  0  0  0  0  0
   -1.5000    0.0000    0.0000 C   0  0  0  0  0  0  0  0  0  0  0  0
   -0.7500   -1.2990    0.0000 C   0  0  0  0  0  0  0  0  0  0  0  0
  1  2  1  0
  2  3  1  0
  3  4  2  0
  4  5  1  0
  5  6  2  0
  6  7  1  0
  7  8  2  0
  8  9  1  0
  9 10  2  0
 10 11  1  0
 11 12  1  0
 12 13  1  0
 13 14  1  0
 14 15  1  0
 15 16  1  0
 16 17  2  0
 16 18  1  0
 18 19  2  0
 19 20  1  0
 20 21  2  0
 21 22  1  0
 22 23  2  0
 15 24  1  0
 24 25  1  0
 11 26  1  0
 26 27  2  0
 27 28  1  0
 28 29  2  0
 29 30  1  0
 30 31  3  0
 29 32  1  0
 32 33  2  0
  6  2  1  0
 33  7  1  0
 25 12  1  0
 33 26  1  0
 23 18  1  0
M  END
>  <Title>  (1266) 
idABUTgen6

$$$$

     RDKit          2D

 40 45  0  0  0  0  0  0  0  0999 V2000
    2.6964    0.2200    0.0000 O   0  0  0  0  0  0  0  0  0  0  0  0
    4.1280   -0.2278    0.0000 C   0  0  0  0  0  0  0  0  0  0  0  0
    4.4560   -1.6915    0.0000 N   0  0  0  0  0  0  0  0  0  0  0  0
    3.3524   -2.7074    0.0000 C   0  0  0  0  0  0  0  0  0  0  0  0
    2.1687   -1.7861    0.0000 C   0  0  0  0  0  0  0  0  0  0  0  0
    0.7500   -1.2990    0.0000 C   0  0  0  0  0  0  0  0  0  0  0  0
    1.5000    0.0000    0.0000 C   0  0  0  0  0  0  0  0  0  0  0  0
    0.7500    1.2990    0.0000 C   0  0  0  0  0  0  0  0  0  0  0  0
   -0.7500    1.2990    0.0000 C   0  0  0  0  0  0  0  0  0  0  0  0
   -1.5000    0.0000    0.0000 C   0  0  0  0  0  0  0  0  0  0  0  0
   -0.7500   -1.2990    0.0000 C   0  0  0  0  0  0  0  0  0  0  0  0
   -2.1687   -1.7861    0.0000 C   0  0  0  0  0  0  0  0  0  0  0  0
   -2.6792   -0.3756    0.0000 C   0  0  0  0  0  0  0  0  0  0  0  0
   -4.1783   -0.4252    0.0000 C   0  0  0  0  0  0  0  0  0  0  0  0
   -4.5944   -1.8663    0.0000 C   0  0  0  0  0  0  0  0  0  0  0  0
   -3.3524   -2.7074    0.0000 C   0  0  0  0  0  0  0  0  0  0  0  0
   -4.1729   -3.9632    0.0000 C   0  0  0  0  0  0  0  0  0  0  0  0
   -4.5411   -5.4173    0.0000 C   0  0  0  0  0  0  0  0  0  0  0  0
   -4.4172   -6.9121    0.0000 C   0  0  0  0  0  0  0  0  0  0  0  0
   -3.8147   -8.2858    0.0000 C   0  0  0  0  0  0  0  0  0  0  0  0
   -2.7988   -9.3894    0.0000 C   0  0  0  0  0  0  0  0  0  0  0  0
   -1.4795  -10.1033    0.0000 C   0  0  0  0  0  0  0  0  0  0  0  0
   -0.0000  -10.3502    0.0000 C   0  0  0  0  0  0  0  0  0  0  0  0
    1.4795  -10.1033    0.0000 C   0  0  0  0  0  0  0  0  0  0  0  0
    2.7988   -9.3894    0.0000 C   0  0  0  0  0  0  0  0  0  0  0  0
    3.8147   -8.2858    0.0000 C   0  0  0  0  0  0  0  0  0  0  0  0
    4.4172   -6.9121    0.0000 C   0  0  0  0  0  0  0  0  0  0  0  0
    4.5411   -5.4173    0.0000 C   0  0  0  0  0  0  0  0  0  0  0  0
    6.0378   -5.5164    0.0000 C   0  0  0  0  0  0  0  0  0  0  0  0
    6.5946   -4.1236    0.0000 C   0  0  0  0  0  0  0  0  0  0  0  0
    5.4420   -3.1636    0.0000 C   0  0  0  0  0  0  0  0  0  0  0  0
    4.1729   -3.9632    0.0000 C   0  0  0  0  0  0  0  0  0  0  0  0
    5.2316    0.7881    0.0000 C   0  0  0  0  0  0  0  0  0  0  0  0
    6.7303    0.7261    0.0000 C   0  0  0  0  0  0  0  0  0  0  0  0
    6.7923    2.2249    0.0000 C   0  0  0  0  0  0  0  0  0  0  0  0
    7.5953    3.4918    0.0000 C   0  0  0  0  0  0  0  0  0  0  0  0
    6.8997    4.8207    0.0000 C   0  0  0  0  0  0  0  0  0  0  0  0
    5.4009    4.8827    0.0000 C   0  0  0  0  0  0  0  0  0  0  0  0
    4.5979    3.6158    0.0000 C   0  0  0  0  0  0  0  0  0  0  0  0
    5.2936    2.2869    0.0000 C   0  0  0  0  0  0  0  0  0  0  0  0
  1  2  2  0
  2  3  1  0
  3  4  1  0
  4  5  1  0
  5  6  1  0
  6  7  1  0
  7  8  1  0
  8  9  1  0
  9 10  1  0
 10 11  1  0
 11 12  1  0
 12 13  1  0
 13 14  1  0
 14 15  1  0
 15 16  1  0
 16 17  1  0
 17 18  1  0
 18 19  1  0
 19 20  1  0
 20 21  1  0
 21 22  1  0
 22 23  1  0
 23 24  1  0
 24 25  1  0
 25 26  1  0
 26 27  1  0
 27 28  1  0
 28 29  2  0
 29 30  1  0
 30 31  2  0
 31 32  1  0
  2 33  1  0
 33 34  1  0
 34 35  1  0
 35 36  1  0
 36 37  1  0
 37 38  2  0
 38 39  1  0
 39 40  2  0
 32  4  1  0
 40 33  1  0
 11  6  1  0
 16 12  1  0
 32 28  1  0
 40 35  1  0
M  END
>  <Title>  (1267) 
idABUUgen6

$$$$

     RDKit          2D

 31 33  0  0  0  0  0  0  0  0999 V2000
   -0.7500   -3.8971    0.0000 O   0  0  0  0  0  0  0  0  0  0  0  0
    0.7500   -3.8971    0.0000 C   0  0  0  0  0  0  0  0  0  0  0  0
    1.5000   -2.5981    0.0000 N   0  0  0  0  0  0  0  0  0  0  0  0
    0.7500   -1.2990    0.0000 C   0  0  0  0  0  0  0  0  0  0  0  0
    1.5000    0.0000    0.0000 N   0  0  0  0  0  0  0  0  0  0  0  0
    0.7500    1.2990    0.0000 N   0  0  0  0  0  0  0  0  0  0  0  0
   -0.7500    1.2990    0.0000 N   0  0  0  0  0  0  0  0  0  0  0  0
   -1.5000    0.0000    0.0000 N   0  0  0  0  0  0  0  0  0  0  0  0
   -0.7500   -1.2990    0.0000 N   0  0  0  0  0  0  0  0  0  0  0  0
    1.5000   -5.1962    0.0000 O   0  0  0  0  0  0  0  0  0  0  0  0
    0.7500   -6.4952    0.0000 C   0  0  0  0  0  0  0  0  0  0  0  0
    1.5000   -7.7942    0.0000 C   0  0  0  0  0  0  0  0  0  0  0  0
    0.7500   -9.0933    0.0000 N   0  0  0  0  0  0  0  0  0  0  0  0
    1.5000  -10.3923    0.0000 C   0  0  0  0  0  0  0  0  0  0  0  0
    0.7500  -11.6913    0.0000 C   0  0  0  0  0  0  0  0  0  0  0  0
   -0.7500  -11.6913    0.0000 C   0  0  0  0  0  0  0  0  0  0  0  0
   -1.5000  -12.9904    0.0000 C   0  0  0  0  0  0  0  0  0  0  0  0
   -0.7500  -14.2894    0.0000 C   0  0  0  0  0  0  0  0  0  0  0  0
    0.7500  -14.2894    0.0000 C   0  0  0  0  0  0  0  0  0  0  0  0
    1.5000  -12.9904    0.0000 C   0  0  0  0  0  0  0  0  0  0  0  0
   -0.7500   -9.0933    0.0000 C   0  0  0  0  0  0  0  0  0  0  0  0
   -1.5000   -7.7942    0.0000 O   0  0  0  0  0  0  0  0  0  0  0  0
   -1.5000  -10.3923    0.0000 O   0  0  0  0  0  0  0  0  0  0  0  0
   -3.0000  -10.3923    0.0000 C   0  0  0  0  0  0  0  0  0  0  0  0
   -3.7500   -9.0933    0.0000 O   0  0  0  0  0  0  0  0  0  0  0  0
   -3.7500  -11.6913    0.0000 C   0  0  0  0  0  0  0  0  0  0  0  0
   -5.2500  -11.6913    0.0000 C   0  0  0  0  0  0  0  0  0  0  0  0
   -6.0000  -12.9904    0.0000 C   0  0  0  0  0  0  0  0  0  0  0  0
   -5.2500  -14.2894    0.0000 C   0  0  0  0  0  0  0  0  0  0  0  0
   -3.7500  -14.2894    0.0000 C   0  0  0  0  0  0  0  0  0  0  0  0
   -3.0000  -12.9904    0.0000 C   0  0  0  0  0  0  0  0  0  0  0  0
  1  2  2  0
  2  3  1  0
  3  4  1  0
  4  5  2  0
  5  6  1  0
  6  7  2  0
  7  8  1  0
  8  9  2  0
  2 10  1  0
 10 11  1  0
 11 12  1  0
 12 13  1  0
 13 14  1  0
 14 15  1  0
 15 16  2  0
 16 17  1  0
 17 18  2  0
 18 19  1  0
 19 20  2  0
 13 21  1  0
 21 22  2  0
 21 23  1  0
 23 24  1  0
 24 25  2  0
 24 26  1  0
 26 27  2  0
 27 28  1  0
 28 29  2  0
 29 30  1  0
 30 31  2  0
  9  4  1  0
 20 15  1  0
 31 26  1  0
M  END
>  <Title>  (1268) 
idABUVgen6

$$$$

     RDKit          2D

 29 32  0  0  0  0  0  0  0  0999 V2000
    3.0000    0.0000    0.0000 C   0  0  0  0  0  0  0  0  0  0  0  0
    1.5000    0.0000    0.0000 C   0  0  0  0  0  0  0  0  0  0  0  0
    0.7500   -1.2990    0.0000 C   0  0  0  0  0  0  0  0  0  0  0  0
   -0.7500   -1.2990    0.0000 C   0  0  0  0  0  0  0  0  0  0  0  0
   -1.5000    0.0000    0.0000 C   0  0  0  0  0  0  0  0  0  0  0  0
   -3.0000    0.0000    0.0000 C   0  0  0  0  0  0  0  0  0  0  0  0
   -3.7500   -1.2990    0.0000 O   0  0  0  0  0  0  0  0  0  0  0  0
   -3.7500    1.2990    0.0000 N   0  0  0  0  0  0  0  0  0  0  0  0
   -5.2500    1.2990    0.0000 C   0  0  0  0  0  0  0  0  0  0  0  0
   -6.1317    0.0855    0.0000 N   0  0  0  0  0  0  0  0  0  0  0  0
   -7.5583    0.5490    0.0000 N   0  0  0  0  0  0  0  0  0  0  0  0
   -7.5583    2.0490    0.0000 N   0  0  0  0  0  0  0  0  0  0  0  0
   -6.1317    2.5126    0.0000 N   0  0  0  0  0  0  0  0  0  0  0  0
   -5.6682    3.9391    0.0000 N   0  0  0  0  0  0  0  0  0  0  0  0
   -6.5498    5.1527    0.0000 C   0  0  0  0  0  0  0  0  0  0  0  0
   -5.6682    6.3662    0.0000 C   0  0  0  0  0  0  0  0  0  0  0  0
   -4.2416    5.9027    0.0000 C   0  0  0  0  0  0  0  0  0  0  0  0
   -3.0280    6.7844    0.0000 C   0  0  0  0  0  0  0  0  0  0  0  0
   -3.1848    8.2761    0.0000 O   0  0  0  0  0  0  0  0  0  0  0  0
   -1.6577    6.1742    0.0000 N   0  0  0  0  0  0  0  0  0  0  0  0
   -0.4442    7.0559    0.0000 C   0  0  0  0  0  0  0  0  0  0  0  0
    0.9261    6.4458    0.0000 N   0  0  0  0  0  0  0  0  0  0  0  0
    2.1396    7.3275    0.0000 N   0  0  0  0  0  0  0  0  0  0  0  0
    1.9829    8.8193    0.0000 N   0  0  0  0  0  0  0  0  0  0  0  0
    0.6125    9.4294    0.0000 N   0  0  0  0  0  0  0  0  0  0  0  0
   -0.6010    8.5477    0.0000 N   0  0  0  0  0  0  0  0  0  0  0  0
   -4.2416    4.4027    0.0000 C   0  0  0  0  0  0  0  0  0  0  0  0
   -0.7500    1.2990    0.0000 C   0  0  0  0  0  0  0  0  0  0  0  0
    0.7500    1.2990    0.0000 C   0  0  0  0  0  0  0  0  0  0  0  0
  1  2  1  0
  2  3  1  0
  3  4  1  0
  4  5  1  0
  5  6  1  0
  6  7  2  0
  6  8  1  0
  8  9  1  0
  9 10  2  0
 10 11  1  0
 11 12  2  0
 12 13  1  0
 13 14  1  0
 14 15  1  0
 15 16  1  0
 16 17  1  0
 17 18  1  0
 18 19  2  0
 18 20  1  0
 20 21  1  0
 21 22  2  0
 22 23  1  0
 23 24  2  0
 24 25  1  0
 25 26  2  0
 17 27  1  0
  5 28  1  0
 28 29  1  0
 29  2  1  0
 13  9  1  0
 27 14  1  0
 26 21  1  0
M  END
>  <Title>  (1269) 
idABUWgen6

$$$$

     RDKit          2D

 10 11  0  0  0  0  0  0  0  0999 V2000
    3.0000    0.0000    0.0000 C   0  0  0  0  0  0  0  0  0  0  0  0
    1.5000    0.0000    0.0000 C   0  0  0  0  0  0  0  0  0  0  0  0
    0.7500   -1.2990    0.0000 C   0  0  0  0  0  0  0  0  0  0  0  0
   -0.7500   -1.2990    0.0000 C   0  0  0  0  0  0  0  0  0  0  0  0
   -1.5000    0.0000    0.0000 C   0  0  0  0  0  0  0  0  0  0  0  0
   -2.7990    0.7500    0.0000 C   0  0  0  0  0  0  0  0  0  0  0  0
   -4.2479    0.3618    0.0000 O   0  0  0  0  0  0  0  0  0  0  0  0
   -2.0490    2.0490    0.0000 N   0  0  0  0  0  0  0  0  0  0  0  0
   -0.7500    1.2990    0.0000 C   0  0  0  0  0  0  0  0  0  0  0  0
    0.7500    1.2990    0.0000 C   0  0  0  0  0  0  0  0  0  0  0  0
  1  2  1  0
  2  3  2  0
  3  4  1  0
  4  5  2  0
  5  6  1  0
  6  7  2  0
  6  8  1  0
  8  9  1  0
  9 10  2  0
 10  2  1  0
  9  5  1  0
M  END
>  <Title>  (1270) 
idABUXgen6

$$$$

     RDKit          2D

 27 29  0  0  0  0  0  0  0  0999 V2000
    4.6339    0.0000    0.0000 C   0  0  0  0  0  0  0  0  0  0  0  0
    3.1339    0.0000    0.0000 C   0  0  0  0  0  0  0  0  0  0  0  0
    2.7750    1.4564    0.0000 C   0  0  0  0  0  0  0  0  0  0  0  0
    1.7803    2.5792    0.0000 C   0  0  0  0  0  0  0  0  0  0  0  0
    0.3778    3.1111    0.0000 C   0  0  0  0  0  0  0  0  0  0  0  0
   -1.1113    2.9303    0.0000 C   0  0  0  0  0  0  0  0  0  0  0  0
   -2.3458    2.0782    0.0000 C   0  0  0  0  0  0  0  0  0  0  0  0
   -3.0429    0.7500    0.0000 C   0  0  0  0  0  0  0  0  0  0  0  0
   -3.0429   -0.7500    0.0000 C   0  0  0  0  0  0  0  0  0  0  0  0
   -2.3458   -2.0782    0.0000 C   0  0  0  0  0  0  0  0  0  0  0  0
   -1.1113   -2.9303    0.0000 N   0  0  0  0  0  0  0  0  0  0  0  0
    0.3778   -3.1111    0.0000 C   0  0  0  0  0  0  0  0  0  0  0  0
    0.5586   -4.6001    0.0000 N   0  0  0  0  0  0  0  0  0  0  0  0
    1.8695   -5.3291    0.0000 C   0  0  0  0  0  0  0  0  0  0  0  0
    1.5813   -6.8012    0.0000 C   0  0  0  0  0  0  0  0  0  0  0  0
    0.0923   -6.9820    0.0000 C   0  0  0  0  0  0  0  0  0  0  0  0
   -0.6367   -8.2929    0.0000 N   0  0  0  0  0  0  0  0  0  0  0  0
   -0.0046   -9.6532    0.0000 C   0  0  0  0  0  0  0  0  0  0  0  0
   -1.1030  -10.6748    0.0000 C   0  0  0  0  0  0  0  0  0  0  0  0
   -2.4140   -9.9458    0.0000 C   0  0  0  0  0  0  0  0  0  0  0  0
   -3.7743  -10.5779    0.0000 C   0  0  0  0  0  0  0  0  0  0  0  0
   -5.0019   -9.7159    0.0000 N   0  0  0  0  0  0  0  0  0  0  0  0
   -3.9070  -12.0720    0.0000 O   0  0  0  0  0  0  0  0  0  0  0  0
   -2.1258   -8.4737    0.0000 C   0  0  0  0  0  0  0  0  0  0  0  0
   -0.5398   -5.6217    0.0000 C   0  0  0  0  0  0  0  0  0  0  0  0
    1.7803   -2.5792    0.0000 C   0  0  0  0  0  0  0  0  0  0  0  0
    2.7750   -1.4564    0.0000 C   0  0  0  0  0  0  0  0  0  0  0  0
  1  2  1  0
  2  3  1  0
  3  4  1  0
  4  5  1  0
  5  6  1  0
  6  7  1  0
  7  8  1  0
  8  9  1  0
  9 10  1  0
 10 11  2  0
 11 12  1  0
 12 13  1  0
 13 14  1  0
 14 15  1  0
 15 16  1  0
 16 17  1  0
 17 18  1  0
 18 19  1  0
 19 20  1  0
 20 21  1  0
 21 22  1  0
 21 23  2  0
 20 24  1  0
 16 25  1  0
 12 26  1  0
 26 27  1  0
 27  2  1  0
 25 13  1  0
 24 17  1  0
M  END
>  <Title>  (1271) 
idABUYgen6

$$$$

     RDKit          2D

  9  9  0  0  0  0  0  0  0  0999 V2000
    3.5260   -1.2990    0.0000 C   0  0  0  0  0  0  0  0  0  0  0  0
    2.7760    0.0000    0.0000 C   0  0  0  0  0  0  0  0  0  0  0  0
    3.5260    1.2990    0.0000 O   0  0  0  0  0  0  0  0  0  0  0  0
    1.2760    0.0000    0.0000 C   0  0  0  0  0  0  0  0  0  0  0  0
    0.3943    1.2135    0.0000 C   0  0  0  0  0  0  0  0  0  0  0  0
   -1.0323    0.7500    0.0000 C   0  0  0  0  0  0  0  0  0  0  0  0
   -1.0323   -0.7500    0.0000 C   0  0  0  0  0  0  0  0  0  0  0  0
   -2.2458   -1.6317    0.0000 C   0  0  0  0  0  0  0  0  0  0  0  0
    0.3943   -1.2135    0.0000 N   0  0  0  0  0  0  0  0  0  0  0  0
  1  2  1  0
  2  3  2  0
  2  4  1  0
  4  5  1  0
  5  6  2  0
  6  7  1  0
  7  8  1  0
  7  9  1  0
  9  4  1  0
M  END
>  <Title>  (1272) 
idABUZgen6

$$$$

     RDKit          2D

 40 45  0  0  0  0  0  0  0  0999 V2000
   -3.5094    0.4568    0.0000 C   0  0  0  0  0  0  0  0  0  0  0  0
   -2.3688    1.4310    0.0000 C   0  0  0  0  0  0  0  0  0  0  0  0
   -2.8323    2.8576    0.0000 C   0  0  0  0  0  0  0  0  0  0  0  0
   -2.1513    4.1941    0.0000 C   0  0  0  0  0  0  0  0  0  0  0  0
   -0.7248    4.6576    0.0000 C   0  0  0  0  0  0  0  0  0  0  0  0
   -0.6071    6.1530    0.0000 N   0  0  0  0  0  0  0  0  0  0  0  0
    0.7468    6.7987    0.0000 C   0  0  0  0  0  0  0  0  0  0  0  0
    1.9830    5.9491    0.0000 O   0  0  0  0  0  0  0  0  0  0  0  0
    0.8645    8.2941    0.0000 C   0  0  0  0  0  0  0  0  0  0  0  0
   -0.2761    9.2683    0.0000 N   0  0  0  0  0  0  0  0  0  0  0  0
    0.2979   10.6541    0.0000 N   0  0  0  0  0  0  0  0  0  0  0  0
    1.7933   10.5364    0.0000 N   0  0  0  0  0  0  0  0  0  0  0  0
    2.1435    9.0779    0.0000 N   0  0  0  0  0  0  0  0  0  0  0  0
    3.5293    8.5038    0.0000 C   0  0  0  0  0  0  0  0  0  0  0  0
    3.7251    7.0167    0.0000 C   0  0  0  0  0  0  0  0  0  0  0  0
    5.1109    6.4427    0.0000 C   0  0  0  0  0  0  0  0  0  0  0  0
    6.3009    7.3558    0.0000 C   0  0  0  0  0  0  0  0  0  0  0  0
    7.6867    6.7818    0.0000 C   0  0  0  0  0  0  0  0  0  0  0  0
    9.0726    6.2077    0.0000 N   0  0  0  0  0  0  0  0  0  0  0  0
    6.1051    8.8430    0.0000 C   0  0  0  0  0  0  0  0  0  0  0  0
    4.7193    9.4170    0.0000 C   0  0  0  0  0  0  0  0  0  0  0  0
    4.5235   10.9042    0.0000 C   0  0  0  0  0  0  0  0  0  0  0  0
    3.2053   11.6199    0.0000 C   0  0  0  0  0  0  0  0  0  0  0  0
    3.4787   13.0948    0.0000 C   0  0  0  0  0  0  0  0  0  0  0  0
    4.9658   13.2906    0.0000 C   0  0  0  0  0  0  0  0  0  0  0  0
    5.6816   14.6088    0.0000 C   0  0  0  0  0  0  0  0  0  0  0  0
    7.1810   14.6481    0.0000 C   0  0  0  0  0  0  0  0  0  0  0  0
    7.8968   15.9663    0.0000 C   0  0  0  0  0  0  0  0  0  0  0  0
    7.1130   17.2452    0.0000 C   0  0  0  0  0  0  0  0  0  0  0  0
    5.6135   17.2060    0.0000 C   0  0  0  0  0  0  0  0  0  0  0  0
    4.8978   15.8878    0.0000 C   0  0  0  0  0  0  0  0  0  0  0  0
    5.6116   11.9367    0.0000 C   0  0  0  0  0  0  0  0  0  0  0  0
    7.0865   11.6633    0.0000 O   0  0  0  0  0  0  0  0  0  0  0  0
    0.6118    3.9766    0.0000 C   0  0  0  0  0  0  0  0  0  0  0  0
    1.0753    2.5500    0.0000 C   0  0  0  0  0  0  0  0  0  0  0  0
    0.3943    1.2135    0.0000 C   0  0  0  0  0  0  0  0  0  0  0  0
    1.2760    0.0000    0.0000 C   0  0  0  0  0  0  0  0  0  0  0  0
    0.3943   -1.2135    0.0000 C   0  0  0  0  0  0  0  0  0  0  0  0
   -1.0323   -0.7500    0.0000 C   0  0  0  0  0  0  0  0  0  0  0  0
   -1.0323    0.7500    0.0000 C   0  0  0  0  0  0  0  0  0  0  0  0
  1  2  1  0
  2  3  1  0
  3  4  1  0
  4  5  1  0
  5  6  1  0
  6  7  1  0
  7  8  2  0
  7  9  1  0
  9 10  2  0
 10 11  1  0
 11 12  2  0
 12 13  1  0
 13 14  1  0
 14 15  2  0
 15 16  1  0
 16 17  2  0
 17 18  1  0
 18 19  3  0
 17 20  1  0
 20 21  2  0
 21 22  1  0
 22 23  2  0
 23 24  1  0
 24 25  2  0
 25 26  1  0
 26 27  2  0
 27 28  1  0
 28 29  2  0
 29 30  1  0
 30 31  2  0
 25 32  1  0
 32 33  2  0
  5 34  2  0
 34 35  1  0
 35 36  2  0
 36 37  1  0
 37 38  2  0
 38 39  1  0
 39 40  2  0
 40  2  1  0
 13  9  1  0
 21 14  1  0
 32 22  1  0
 40 36  1  0
 31 26  1  0
M  END
>  <Title>  (1273) 
idABVAgen6

$$$$

     RDKit          2D

 25 28  0  0  0  0  0  0  0  0999 V2000
   -3.0000   -2.5981    0.0000 C   0  0  0  0  0  0  0  0  0  0  0  0
   -1.5000   -2.5981    0.0000 C   0  0  0  0  0  0  0  0  0  0  0  0
   -0.7500   -3.8971    0.0000 C   0  0  0  0  0  0  0  0  0  0  0  0
    0.7500   -3.8971    0.0000 C   0  0  0  0  0  0  0  0  0  0  0  0
    1.5000   -2.5981    0.0000 C   0  0  0  0  0  0  0  0  0  0  0  0
    3.0000   -2.5981    0.0000 N   0  0  0  0  0  0  0  0  0  0  0  0
    3.8817   -1.3846    0.0000 C   0  0  0  0  0  0  0  0  0  0  0  0
    5.3083   -1.8481    0.0000 C   0  0  0  0  0  0  0  0  0  0  0  0
    5.3083   -3.3481    0.0000 C   0  0  0  0  0  0  0  0  0  0  0  0
    6.5218   -4.2298    0.0000 C   0  0  0  0  0  0  0  0  0  0  0  0
    7.8921   -3.6196    0.0000 O   0  0  0  0  0  0  0  0  0  0  0  0
    6.3650   -5.7215    0.0000 N   0  0  0  0  0  0  0  0  0  0  0  0
    7.5785   -6.6032    0.0000 C   0  0  0  0  0  0  0  0  0  0  0  0
    7.4217   -8.0950    0.0000 N   0  0  0  0  0  0  0  0  0  0  0  0
    8.6353   -8.9767    0.0000 N   0  0  0  0  0  0  0  0  0  0  0  0
   10.0056   -8.3666    0.0000 N   0  0  0  0  0  0  0  0  0  0  0  0
   10.1624   -6.8748    0.0000 N   0  0  0  0  0  0  0  0  0  0  0  0
    8.9488   -5.9931    0.0000 N   0  0  0  0  0  0  0  0  0  0  0  0
    3.8817   -3.8116    0.0000 C   0  0  0  0  0  0  0  0  0  0  0  0
    0.7500   -1.2990    0.0000 C   0  0  0  0  0  0  0  0  0  0  0  0
    1.5000    0.0000    0.0000 C   0  0  0  0  0  0  0  0  0  0  0  0
    0.7500    1.2990    0.0000 C   0  0  0  0  0  0  0  0  0  0  0  0
   -0.7500    1.2990    0.0000 C   0  0  0  0  0  0  0  0  0  0  0  0
   -1.5000    0.0000    0.0000 C   0  0  0  0  0  0  0  0  0  0  0  0
   -0.7500   -1.2990    0.0000 C   0  0  0  0  0  0  0  0  0  0  0  0
  1  2  1  0
  2  3  2  0
  3  4  1  0
  4  5  2  0
  5  6  1  0
  6  7  1  0
  7  8  1  0
  8  9  1  0
  9 10  1  0
 10 11  2  0
 10 12  1  0
 12 13  1  0
 13 14  2  0
 14 15  1  0
 15 16  2  0
 16 17  1  0
 17 18  2  0
  9 19  1  0
  5 20  1  0
 20 21  2  0
 21 22  1  0
 22 23  2  0
 23 24  1  0
 24 25  2  0
 25  2  1  0
 19  6  1  0
 25 20  1  0
 18 13  1  0
M  END
>  <Title>  (1274) 
idABVBgen6

$$$$

     RDKit          2D

 27 29  0  0  0  0  0  0  0  0999 V2000
    5.2500    1.2990    0.0000 C   0  0  0  0  0  0  0  0  0  0  0  0
    3.7500    1.2990    0.0000 C   0  0  0  0  0  0  0  0  0  0  0  0
    3.0000    2.5981    0.0000 O   0  0  0  0  0  0  0  0  0  0  0  0
    3.0000    0.0000    0.0000 C   0  0  0  0  0  0  0  0  0  0  0  0
    3.7500   -1.2990    0.0000 C   0  0  0  0  0  0  0  0  0  0  0  0
    5.2500   -1.2990    0.0000 O   0  0  0  0  0  0  0  0  0  0  0  0
    1.5000    0.0000    0.0000 N   0  0  0  0  0  0  0  0  0  0  0  0
    0.7500   -1.2990    0.0000 C   0  0  0  0  0  0  0  0  0  0  0  0
   -0.7500   -1.2990    0.0000 C   0  0  0  0  0  0  0  0  0  0  0  0
   -1.5000    0.0000    0.0000 C   0  0  0  0  0  0  0  0  0  0  0  0
   -3.0000    0.0000    0.0000 N   0  0  0  0  0  0  0  0  0  0  0  0
   -3.7500    1.2990    0.0000 C   0  0  0  0  0  0  0  0  0  0  0  0
   -5.2500    1.2990    0.0000 C   0  0  0  0  0  0  0  0  0  0  0  0
   -6.0000    0.0000    0.0000 C   0  0  0  0  0  0  0  0  0  0  0  0
   -7.5000    0.0000    0.0000 C   0  0  0  0  0  0  0  0  0  0  0  0
   -8.2500   -1.2990    0.0000 O   0  0  0  0  0  0  0  0  0  0  0  0
   -8.2500    1.2990    0.0000 O   0  0  0  0  0  0  0  0  0  0  0  0
   -9.7500    1.2990    0.0000 C   0  0  0  0  0  0  0  0  0  0  0  0
  -10.5000    2.5981    0.0000 C   0  0  0  0  0  0  0  0  0  0  0  0
  -12.0000    2.5981    0.0000 C   0  0  0  0  0  0  0  0  0  0  0  0
  -12.7500    1.2990    0.0000 C   0  0  0  0  0  0  0  0  0  0  0  0
  -12.0000    0.0000    0.0000 C   0  0  0  0  0  0  0  0  0  0  0  0
  -10.5000    0.0000    0.0000 C   0  0  0  0  0  0  0  0  0  0  0  0
   -5.2500   -1.2990    0.0000 C   0  0  0  0  0  0  0  0  0  0  0  0
   -3.7500   -1.2990    0.0000 C   0  0  0  0  0  0  0  0  0  0  0  0
   -0.7500    1.2990    0.0000 C   0  0  0  0  0  0  0  0  0  0  0  0
    0.7500    1.2990    0.0000 C   0  0  0  0  0  0  0  0  0  0  0  0
  1  2  1  0
  2  3  2  0
  2  4  1  0
  4  5  1  0
  5  6  1  0
  4  7  1  0
  7  8  1  0
  8  9  1  0
  9 10  1  0
 10 11  1  0
 11 12  1  0
 12 13  1  0
 13 14  1  0
 14 15  1  0
 15 16  2  0
 15 17  1  0
 17 18  1  0
 18 19  2  0
 19 20  1  0
 20 21  2  0
 21 22  1  0
 22 23  2  0
 14 24  1  0
 24 25  1  0
 10 26  1  0
 26 27  1  0
 27  7  1  0
 25 11  1  0
 23 18  1  0
M  END
>  <Title>  (1275) 
idABVCgen6

$$$$

     RDKit          2D

 39 43  0  0  0  0  0  0  0  0999 V2000
   -6.9046   -7.5528    0.0000 C   0  0  0  0  0  0  0  0  0  0  0  0
   -5.6056   -6.8028    0.0000 C   0  0  0  0  0  0  0  0  0  0  0  0
   -6.0229   -5.3621    0.0000 C   0  0  0  0  0  0  0  0  0  0  0  0
   -5.7228   -3.8924    0.0000 C   0  0  0  0  0  0  0  0  0  0  0  0
   -4.7742   -2.7305    0.0000 C   0  0  0  0  0  0  0  0  0  0  0  0
   -3.3942   -2.1425    0.0000 C   0  0  0  0  0  0  0  0  0  0  0  0
   -3.6348   -0.6619    0.0000 C   0  0  0  0  0  0  0  0  0  0  0  0
   -2.4729    0.2867    0.0000 O   0  0  0  0  0  0  0  0  0  0  0  0
   -5.0373   -0.1300    0.0000 N   0  0  0  0  0  0  0  0  0  0  0  0
   -5.2780    1.3505    0.0000 C   0  0  0  0  0  0  0  0  0  0  0  0
   -4.1161    2.2992    0.0000 N   0  0  0  0  0  0  0  0  0  0  0  0
   -4.3567    3.7798    0.0000 N   0  0  0  0  0  0  0  0  0  0  0  0
   -5.7592    4.3117    0.0000 N   0  0  0  0  0  0  0  0  0  0  0  0
   -6.9211    3.3630    0.0000 N   0  0  0  0  0  0  0  0  0  0  0  0
   -6.6805    1.8824    0.0000 N   0  0  0  0  0  0  0  0  0  0  0  0
   -1.8991   -2.2632    0.0000 C   0  0  0  0  0  0  0  0  0  0  0  0
   -2.1595   -3.7404    0.0000 C   0  0  0  0  0  0  0  0  0  0  0  0
   -1.4095   -5.0395    0.0000 C   0  0  0  0  0  0  0  0  0  0  0  0
    0.0000   -5.5525    0.0000 C   0  0  0  0  0  0  0  0  0  0  0  0
    1.4095   -5.0395    0.0000 C   0  0  0  0  0  0  0  0  0  0  0  0
    2.3737   -6.1885    0.0000 O   0  0  0  0  0  0  0  0  0  0  0  0
    2.1595   -3.7404    0.0000 O   0  0  0  0  0  0  0  0  0  0  0  0
    1.8991   -2.2632    0.0000 C   0  0  0  0  0  0  0  0  0  0  0  0
    3.1981   -1.5132    0.0000 O   0  0  0  0  0  0  0  0  0  0  0  0
    0.7500   -1.2990    0.0000 C   0  0  0  0  0  0  0  0  0  0  0  0
    1.5000    0.0000    0.0000 C   0  0  0  0  0  0  0  0  0  0  0  0
    0.7500    1.2990    0.0000 C   0  0  0  0  0  0  0  0  0  0  0  0
   -0.7500    1.2990    0.0000 C   0  0  0  0  0  0  0  0  0  0  0  0
   -1.5000    0.0000    0.0000 C   0  0  0  0  0  0  0  0  0  0  0  0
   -0.7500   -1.2990    0.0000 C   0  0  0  0  0  0  0  0  0  0  0  0
   -0.4639   -7.2179    0.0000 C   0  0  0  0  0  0  0  0  0  0  0  0
    0.6980   -8.1666    0.0000 O   0  0  0  0  0  0  0  0  0  0  0  0
   -1.6631   -8.1190    0.0000 O   0  0  0  0  0  0  0  0  0  0  0  0
   -3.1437   -8.3596    0.0000 C   0  0  0  0  0  0  0  0  0  0  0  0
   -2.8436   -9.8293    0.0000 C   0  0  0  0  0  0  0  0  0  0  0  0
   -3.9664  -10.8240    0.0000 C   0  0  0  0  0  0  0  0  0  0  0  0
   -5.3892  -10.3490    0.0000 C   0  0  0  0  0  0  0  0  0  0  0  0
   -5.6892   -8.8793    0.0000 C   0  0  0  0  0  0  0  0  0  0  0  0
   -4.5665   -7.8846    0.0000 C   0  0  0  0  0  0  0  0  0  0  0  0
  1  2  1  0
  2  3  1  0
  3  4  1  0
  4  5  1  0
  5  6  2  0
  6  7  1  0
  7  8  2  0
  7  9  1  0
  9 10  1  0
 10 11  2  0
 11 12  1  0
 12 13  2  0
 13 14  1  0
 14 15  2  0
  6 16  1  0
 16 17  2  0
 17 18  1  0
 18 19  2  0
 19 20  1  0
 20 21  2  0
 20 22  1  0
 22 23  1  0
 23 24  2  0
 23 25  1  0
 25 26  2  0
 26 27  1  0
 27 28  2  0
 28 29  1  0
 29 30  2  0
 19 31  1  0
 31 32  2  0
 31 33  1  0
 33 34  1  0
 34 35  2  0
 35 36  1  0
 36 37  2  0
 37 38  1  0
 38 39  2  0
 39  2  1  0
 15 10  1  0
 30 16  1  0
 39 34  1  0
 30 25  1  0
M  END
>  <Title>  (1276) 
idABVDgen6

$$$$

     RDKit          2D

 20 21  0  0  0  0  0  0  0  0999 V2000
    3.9271    0.0000    0.0000 C   0  0  0  0  0  0  0  0  0  0  0  0
    2.4271    0.0000    0.0000 C   0  0  0  0  0  0  0  0  0  0  0  0
    1.9635   -1.4266    0.0000 C   0  0  0  0  0  0  0  0  0  0  0  0
    0.7500   -2.3083    0.0000 C   0  0  0  0  0  0  0  0  0  0  0  0
   -0.7500   -2.3083    0.0000 C   0  0  0  0  0  0  0  0  0  0  0  0
   -1.9635   -1.4266    0.0000 C   0  0  0  0  0  0  0  0  0  0  0  0
   -2.4271    0.0000    0.0000 C   0  0  0  0  0  0  0  0  0  0  0  0
   -1.9635    1.4266    0.0000 C   0  0  0  0  0  0  0  0  0  0  0  0
   -0.7500    2.3083    0.0000 C   0  0  0  0  0  0  0  0  0  0  0  0
    0.7500    2.3083    0.0000 C   0  0  0  0  0  0  0  0  0  0  0  0
    1.2135    3.7348    0.0000 C   0  0  0  0  0  0  0  0  0  0  0  0
    0.2098    4.8496    0.0000 O   0  0  0  0  0  0  0  0  0  0  0  0
    2.6807    4.0467    0.0000 O   0  0  0  0  0  0  0  0  0  0  0  0
    3.1443    5.4733    0.0000 C   0  0  0  0  0  0  0  0  0  0  0  0
    4.6115    5.7852    0.0000 N   0  0  0  0  0  0  0  0  0  0  0  0
    5.0750    7.2118    0.0000 N   0  0  0  0  0  0  0  0  0  0  0  0
    4.0713    8.3265    0.0000 N   0  0  0  0  0  0  0  0  0  0  0  0
    2.6041    8.0146    0.0000 N   0  0  0  0  0  0  0  0  0  0  0  0
    2.1406    6.5880    0.0000 N   0  0  0  0  0  0  0  0  0  0  0  0
    1.9635    1.4266    0.0000 C   0  0  0  0  0  0  0  0  0  0  0  0
  1  2  1  0
  2  3  1  0
  3  4  1  0
  4  5  1  0
  5  6  1  0
  6  7  1  0
  7  8  1  0
  8  9  1  0
  9 10  1  0
 10 11  1  0
 11 12  2  0
 11 13  1  0
 13 14  1  0
 14 15  2  0
 15 16  1  0
 16 17  2  0
 17 18  1  0
 18 19  2  0
 10 20  1  0
 20  2  1  0
 19 14  1  0
M  END
>  <Title>  (1277) 
idABVEgen6

$$$$

     RDKit          2D

 16 17  0  0  0  0  0  0  0  0999 V2000
    3.0000    0.0000    0.0000 C   0  0  0  0  0  0  0  0  0  0  0  0
    1.5000    0.0000    0.0000 C   0  0  0  0  0  0  0  0  0  0  0  0
    0.7500   -1.2990    0.0000 C   0  0  0  0  0  0  0  0  0  0  0  0
   -0.7500   -1.2990    0.0000 C   0  0  0  0  0  0  0  0  0  0  0  0
   -1.5000    0.0000    0.0000 C   0  0  0  0  0  0  0  0  0  0  0  0
   -0.7500    1.2990    0.0000 C   0  0  0  0  0  0  0  0  0  0  0  0
   -1.5000    2.5981    0.0000 C   0  0  0  0  0  0  0  0  0  0  0  0
   -3.0000    2.5981    0.0000 O   0  0  0  0  0  0  0  0  0  0  0  0
   -0.7500    3.8971    0.0000 N   0  0  0  0  0  0  0  0  0  0  0  0
   -1.5000    5.1962    0.0000 C   0  0  0  0  0  0  0  0  0  0  0  0
   -0.7500    6.4952    0.0000 N   0  0  0  0  0  0  0  0  0  0  0  0
   -1.5000    7.7942    0.0000 N   0  0  0  0  0  0  0  0  0  0  0  0
   -3.0000    7.7942    0.0000 N   0  0  0  0  0  0  0  0  0  0  0  0
   -3.7500    6.4952    0.0000 N   0  0  0  0  0  0  0  0  0  0  0  0
   -3.0000    5.1962    0.0000 N   0  0  0  0  0  0  0  0  0  0  0  0
    0.7500    1.2990    0.0000 C   0  0  0  0  0  0  0  0  0  0  0  0
  1  2  1  0
  2  3  1  0
  3  4  1  0
  4  5  1  0
  5  6  1  0
  6  7  1  0
  7  8  2  0
  7  9  1  0
  9 10  1  0
 10 11  2  0
 11 12  1  0
 12 13  2  0
 13 14  1  0
 14 15  2  0
  6 16  1  0
 16  2  1  0
 15 10  1  0
M  END
>  <Title>  (1278) 
idABVFgen6

$$$$

     RDKit          2D

 26 29  0  0  0  0  0  0  0  0999 V2000
   -3.7500   -1.2990    0.0000 O   0  0  0  0  0  0  0  0  0  0  0  0
   -3.0000   -2.5981    0.0000 C   0  0  0  0  0  0  0  0  0  0  0  0
   -3.7500   -3.8971    0.0000 N   0  0  0  0  0  0  0  0  0  0  0  0
   -5.2500   -3.8971    0.0000 C   0  0  0  0  0  0  0  0  0  0  0  0
   -6.0000   -2.5981    0.0000 C   0  0  0  0  0  0  0  0  0  0  0  0
   -7.5000   -2.5981    0.0000 C   0  0  0  0  0  0  0  0  0  0  0  0
   -8.2500   -3.8971    0.0000 C   0  0  0  0  0  0  0  0  0  0  0  0
   -7.5000   -5.1962    0.0000 C   0  0  0  0  0  0  0  0  0  0  0  0
   -6.0000   -5.1962    0.0000 C   0  0  0  0  0  0  0  0  0  0  0  0
   -1.5000   -2.5981    0.0000 N   0  0  0  0  0  0  0  0  0  0  0  0
   -0.7500   -3.8971    0.0000 C   0  0  0  0  0  0  0  0  0  0  0  0
    0.7500   -3.8971    0.0000 C   0  0  0  0  0  0  0  0  0  0  0  0
    1.5000   -2.5981    0.0000 N   0  0  0  0  0  0  0  0  0  0  0  0
    3.0000   -2.5981    0.0000 C   0  0  0  0  0  0  0  0  0  0  0  0
    3.7500   -3.8971    0.0000 C   0  0  0  0  0  0  0  0  0  0  0  0
    5.2500   -3.8971    0.0000 C   0  0  0  0  0  0  0  0  0  0  0  0
    6.0000   -2.5981    0.0000 C   0  0  0  0  0  0  0  0  0  0  0  0
    5.2500   -1.2990    0.0000 C   0  0  0  0  0  0  0  0  0  0  0  0
    3.7500   -1.2990    0.0000 C   0  0  0  0  0  0  0  0  0  0  0  0
    0.7500   -1.2990    0.0000 C   0  0  0  0  0  0  0  0  0  0  0  0
    1.5000    0.0000    0.0000 C   0  0  0  0  0  0  0  0  0  0  0  0
    0.7500    1.2990    0.0000 C   0  0  0  0  0  0  0  0  0  0  0  0
   -0.7500    1.2990    0.0000 C   0  0  0  0  0  0  0  0  0  0  0  0
   -1.5000    2.5981    0.0000 O   0  0  0  0  0  0  0  0  0  0  0  0
   -1.5000    0.0000    0.0000 C   0  0  0  0  0  0  0  0  0  0  0  0
   -0.7500   -1.2990    0.0000 C   0  0  0  0  0  0  0  0  0  0  0  0
  1  2  2  0
  2  3  1  0
  3  4  1  0
  4  5  2  0
  5  6  1  0
  6  7  2  0
  7  8  1  0
  8  9  2  0
  2 10  1  0
 10 11  1  0
 11 12  1  0
 12 13  1  0
 13 14  1  0
 14 15  2  0
 15 16  1  0
 16 17  2  0
 17 18  1  0
 18 19  2  0
 13 20  1  0
 20 21  2  0
 21 22  1  0
 22 23  2  0
 23 24  1  0
 23 25  1  0
 25 26  2  0
  9  4  1  0
 26 10  1  0
 19 14  1  0
 26 20  1  0
M  END
>  <Title>  (1279) 
idABVGgen6

$$$$

     RDKit          2D

 26 27  0  0  0  0  0  0  0  0999 V2000
   14.2500   -6.4952    0.0000 C   0  0  0  0  0  0  0  0  0  0  0  0
   12.7500   -6.4952    0.0000 C   0  0  0  0  0  0  0  0  0  0  0  0
   12.0000   -5.1962    0.0000 C   0  0  0  0  0  0  0  0  0  0  0  0
   10.5000   -5.1962    0.0000 C   0  0  0  0  0  0  0  0  0  0  0  0
    9.7500   -3.8971    0.0000 C   0  0  0  0  0  0  0  0  0  0  0  0
    8.2500   -3.8971    0.0000 C   0  0  0  0  0  0  0  0  0  0  0  0
    7.5000   -2.5981    0.0000 C   0  0  0  0  0  0  0  0  0  0  0  0
    6.0000   -2.5981    0.0000 C   0  0  0  0  0  0  0  0  0  0  0  0
    5.2500   -1.2990    0.0000 C   0  0  0  0  0  0  0  0  0  0  0  0
    3.7500   -1.2990    0.0000 C   0  0  0  0  0  0  0  0  0  0  0  0
    3.0000    0.0000    0.0000 N   0  0  0  0  0  0  0  0  0  0  0  0
    1.5000    0.0000    0.0000 C   0  0  0  0  0  0  0  0  0  0  0  0
    0.7500   -1.2990    0.0000 C   0  0  0  0  0  0  0  0  0  0  0  0
   -0.7500   -1.2990    0.0000 C   0  0  0  0  0  0  0  0  0  0  0  0
   -1.5000    0.0000    0.0000 C   0  0  0  0  0  0  0  0  0  0  0  0
   -3.0000    0.0000    0.0000 C   0  0  0  0  0  0  0  0  0  0  0  0
   -3.7500   -1.2990    0.0000 O   0  0  0  0  0  0  0  0  0  0  0  0
   -3.7500    1.2990    0.0000 N   0  0  0  0  0  0  0  0  0  0  0  0
   -5.2500    1.2990    0.0000 C   0  0  0  0  0  0  0  0  0  0  0  0
   -6.0000    2.5981    0.0000 N   0  0  0  0  0  0  0  0  0  0  0  0
   -7.5000    2.5981    0.0000 N   0  0  0  0  0  0  0  0  0  0  0  0
   -8.2500    1.2990    0.0000 N   0  0  0  0  0  0  0  0  0  0  0  0
   -7.5000    0.0000    0.0000 N   0  0  0  0  0  0  0  0  0  0  0  0
   -6.0000    0.0000    0.0000 N   0  0  0  0  0  0  0  0  0  0  0  0
   -0.7500    1.2990    0.0000 C   0  0  0  0  0  0  0  0  0  0  0  0
    0.7500    1.2990    0.0000 N   0  0  0  0  0  0  0  0  0  0  0  0
  1  2  1  0
  2  3  1  0
  3  4  1  0
  4  5  1  0
  5  6  1  0
  6  7  1  0
  7  8  1  0
  8  9  1  0
  9 10  1  0
 10 11  1  0
 11 12  1  0
 12 13  1  0
 13 14  1  0
 14 15  1  0
 15 16  1  0
 16 17  2  0
 16 18  1  0
 18 19  1  0
 19 20  2  0
 20 21  1  0
 21 22  2  0
 22 23  1  0
 23 24  2  0
 15 25  1  0
 25 26  1  0
 26 12  1  0
 24 19  1  0
M  END
>  <Title>  (1280) 
idABVHgen6

$$$$

     RDKit          2D

 12 12  0  0  0  0  0  0  0  0999 V2000
    7.2760   -2.5981    0.0000 C   0  0  0  0  0  0  0  0  0  0  0  0
    5.7760   -2.5981    0.0000 C   0  0  0  0  0  0  0  0  0  0  0  0
    5.0260   -1.2990    0.0000 C   0  0  0  0  0  0  0  0  0  0  0  0
    3.5260   -1.2990    0.0000 O   0  0  0  0  0  0  0  0  0  0  0  0
    2.7760    0.0000    0.0000 C   0  0  0  0  0  0  0  0  0  0  0  0
    3.5260    1.2990    0.0000 O   0  0  0  0  0  0  0  0  0  0  0  0
    1.2760    0.0000    0.0000 C   0  0  0  0  0  0  0  0  0  0  0  0
    0.3943    1.2135    0.0000 C   0  0  0  0  0  0  0  0  0  0  0  0
   -1.0323    0.7500    0.0000 C   0  0  0  0  0  0  0  0  0  0  0  0
   -1.0323   -0.7500    0.0000 C   0  0  0  0  0  0  0  0  0  0  0  0
   -2.2458   -1.6317    0.0000 O   0  0  0  0  0  0  0  0  0  0  0  0
    0.3943   -1.2135    0.0000 N   0  0  0  0  0  0  0  0  0  0  0  0
  1  2  2  0
  2  3  1  0
  3  4  1  0
  4  5  1  0
  5  6  2  0
  5  7  1  0
  7  8  1  0
  8  9  1  0
  9 10  1  0
 10 11  2  0
 10 12  1  0
 12  7  1  0
M  END
>  <Title>  (1281) 
idABVIgen6

$$$$

     RDKit          2D

 24 27  0  0  0  0  0  0  0  0999 V2000
   -3.0000   -2.5981    0.0000 C   0  0  0  0  0  0  0  0  0  0  0  0
   -1.5000   -2.5981    0.0000 C   0  0  0  0  0  0  0  0  0  0  0  0
   -0.7500   -3.8971    0.0000 C   0  0  0  0  0  0  0  0  0  0  0  0
    0.7500   -3.8971    0.0000 C   0  0  0  0  0  0  0  0  0  0  0  0
    1.5000   -2.5981    0.0000 C   0  0  0  0  0  0  0  0  0  0  0  0
    3.0000   -2.5981    0.0000 C   0  0  0  0  0  0  0  0  0  0  0  0
    3.7500   -1.2990    0.0000 O   0  0  0  0  0  0  0  0  0  0  0  0
    3.7500   -3.8971    0.0000 N   0  0  0  0  0  0  0  0  0  0  0  0
    5.2500   -3.8971    0.0000 C   0  0  0  0  0  0  0  0  0  0  0  0
    6.1317   -2.6836    0.0000 N   0  0  0  0  0  0  0  0  0  0  0  0
    7.5583   -3.1471    0.0000 N   0  0  0  0  0  0  0  0  0  0  0  0
    7.5583   -4.6471    0.0000 N   0  0  0  0  0  0  0  0  0  0  0  0
    6.1317   -5.1106    0.0000 N   0  0  0  0  0  0  0  0  0  0  0  0
    5.6682   -6.5372    0.0000 C   0  0  0  0  0  0  0  0  0  0  0  0
    6.5498   -7.7508    0.0000 C   0  0  0  0  0  0  0  0  0  0  0  0
    5.6682   -8.9643    0.0000 C   0  0  0  0  0  0  0  0  0  0  0  0
    4.2416   -8.5008    0.0000 C   0  0  0  0  0  0  0  0  0  0  0  0
    4.2416   -7.0008    0.0000 C   0  0  0  0  0  0  0  0  0  0  0  0
    0.7500   -1.2990    0.0000 C   0  0  0  0  0  0  0  0  0  0  0  0
    1.5000    0.0000    0.0000 C   0  0  0  0  0  0  0  0  0  0  0  0
    0.7500    1.2990    0.0000 C   0  0  0  0  0  0  0  0  0  0  0  0
   -0.7500    1.2990    0.0000 C   0  0  0  0  0  0  0  0  0  0  0  0
   -1.5000    0.0000    0.0000 C   0  0  0  0  0  0  0  0  0  0  0  0
   -0.7500   -1.2990    0.0000 C   0  0  0  0  0  0  0  0  0  0  0  0
  1  2  1  0
  2  3  1  0
  3  4  1  0
  4  5  1  0
  5  6  1  0
  6  7  2  0
  6  8  1  0
  8  9  1  0
  9 10  2  0
 10 11  1  0
 11 12  2  0
 12 13  1  0
 13 14  1  0
 14 15  2  0
 15 16  1  0
 16 17  2  0
 17 18  1  0
  5 19  1  0
 19 20  2  0
 20 21  1  0
 21 22  2  0
 22 23  1  0
 23 24  2  0
 24  2  1  0
 13  9  1  0
 18 14  1  0
 24 19  1  0
M  END
>  <Title>  (1282) 
idABVJgen6

$$$$

     RDKit          2D

 40 45  0  0  0  0  0  0  0  0999 V2000
   -4.5474   -1.9091    0.0000 C   0  0  0  0  0  0  0  0  0  0  0  0
   -3.1771   -1.2990    0.0000 O   0  0  0  0  0  0  0  0  0  0  0  0
   -1.9635   -2.1807    0.0000 C   0  0  0  0  0  0  0  0  0  0  0  0
   -2.4271   -3.6073    0.0000 C   0  0  0  0  0  0  0  0  0  0  0  0
   -1.9635   -5.0339    0.0000 C   0  0  0  0  0  0  0  0  0  0  0  0
   -0.7500   -5.9156    0.0000 C   0  0  0  0  0  0  0  0  0  0  0  0
   -1.2135   -7.3421    0.0000 C   0  0  0  0  0  0  0  0  0  0  0  0
   -2.6807   -7.6540    0.0000 C   0  0  0  0  0  0  0  0  0  0  0  0
   -3.1443   -9.0806    0.0000 C   0  0  0  0  0  0  0  0  0  0  0  0
   -4.6115   -9.3925    0.0000 N   0  0  0  0  0  0  0  0  0  0  0  0
   -5.2216  -10.7628    0.0000 C   0  0  0  0  0  0  0  0  0  0  0  0
   -6.7134  -10.6060    0.0000 C   0  0  0  0  0  0  0  0  0  0  0  0
   -7.0252   -9.1388    0.0000 C   0  0  0  0  0  0  0  0  0  0  0  0
   -8.3956   -8.5287    0.0000 C   0  0  0  0  0  0  0  0  0  0  0  0
   -8.5524   -7.0369    0.0000 C   0  0  0  0  0  0  0  0  0  0  0  0
   -9.9227   -6.4268    0.0000 C   0  0  0  0  0  0  0  0  0  0  0  0
  -11.1362   -7.3085    0.0000 C   0  0  0  0  0  0  0  0  0  0  0  0
  -10.9794   -8.8002    0.0000 C   0  0  0  0  0  0  0  0  0  0  0  0
   -9.6091   -9.4103    0.0000 C   0  0  0  0  0  0  0  0  0  0  0  0
   -5.7262   -8.3888    0.0000 C   0  0  0  0  0  0  0  0  0  0  0  0
    0.7500   -5.9156    0.0000 C   0  0  0  0  0  0  0  0  0  0  0  0
    1.7002   -5.2597    0.0000 C   0  0  0  0  0  0  0  0  0  0  0  0
    1.4141   -4.0420    0.0000 C   0  0  0  0  0  0  0  0  0  0  0  0
    2.3137   -3.4238    0.0000 C   0  0  0  0  0  0  0  0  0  0  0  0
    4.3311   -2.6531    0.0000 C   0  0  0  0  0  0  0  0  0  0  0  0
    5.6726   -3.3240    0.0000 C   0  0  0  0  0  0  0  0  0  0  0  0
    6.9245   -2.4977    0.0000 C   0  0  0  0  0  0  0  0  0  0  0  0
    8.3940   -2.7986    0.0000 C   0  0  0  0  0  0  0  0  0  0  0  0
    8.6949   -1.3291    0.0000 C   0  0  0  0  0  0  0  0  0  0  0  0
    9.9467   -0.5027    0.0000 C   0  0  0  0  0  0  0  0  0  0  0  0
    7.2254   -1.0282    0.0000 N   0  0  0  0  0  0  0  0  0  0  0  0
    1.9635   -2.1807    0.0000 C   0  0  0  0  0  0  0  0  0  0  0  0
    1.5722   -2.9247    0.0000 C   0  0  0  0  0  0  0  0  0  0  0  0
    0.8706   -5.0837    0.0000 C   0  0  0  0  0  0  0  0  0  0  0  0
    0.7500   -1.2990    0.0000 C   0  0  0  0  0  0  0  0  0  0  0  0
    1.5000    0.0000    0.0000 C   0  0  0  0  0  0  0  0  0  0  0  0
    0.7500    1.2990    0.0000 C   0  0  0  0  0  0  0  0  0  0  0  0
   -0.7500    1.2990    0.0000 C   0  0  0  0  0  0  0  0  0  0  0  0
   -1.5000    0.0000    0.0000 C   0  0  0  0  0  0  0  0  0  0  0  0
   -0.7500   -1.2990    0.0000 C   0  0  0  0  0  0  0  0  0  0  0  0
  1  2  1  0
  2  3  1  0
  3  4  1  0
  4  5  2  0
  5  6  1  0
  6  7  1  0
  7  8  1  0
  8  9  1  0
  9 10  1  0
 10 11  1  0
 11 12  1  0
 12 13  1  0
 13 14  1  0
 14 15  2  0
 15 16  1  0
 16 17  2  0
 17 18  1  0
 18 19  2  0
 13 20  1  0
  6 21  1  0
 21 22  2  0
 22 23  1  0
 23 24  2  0
 24 25  1  0
 25 26  1  0
 26 27  1  0
 27 28  2  0
 28 29  1  0
 29 30  1  0
 29 31  2  0
 24 32  1  0
 32 33  1  0
 33 34  1  0
 32 35  1  0
 35 36  2  0
 36 37  1  0
 37 38  2  0
 38 39  1  0
 39 40  2  0
 40  3  1  0
 20 10  1  0
 34 21  1  0
 40 35  1  0
 19 14  1  0
 31 27  1  0
M  END
>  <Title>  (1283) 
idABVKgen6

$$$$

     RDKit          2D

 22 24  0  0  0  0  0  0  0  0999 V2000
   -5.2500   -3.8971    0.0000 C   0  0  0  0  0  0  0  0  0  0  0  0
   -3.7500   -3.8971    0.0000 C   0  0  0  0  0  0  0  0  0  0  0  0
   -3.0000   -5.1962    0.0000 O   0  0  0  0  0  0  0  0  0  0  0  0
   -3.0000   -2.5981    0.0000 C   0  0  0  0  0  0  0  0  0  0  0  0
   -3.7500   -1.2990    0.0000 O   0  0  0  0  0  0  0  0  0  0  0  0
   -1.5000   -2.5981    0.0000 C   0  0  0  0  0  0  0  0  0  0  0  0
   -0.7500   -3.8971    0.0000 C   0  0  0  0  0  0  0  0  0  0  0  0
    0.7500   -3.8971    0.0000 C   0  0  0  0  0  0  0  0  0  0  0  0
    1.5000   -2.5981    0.0000 C   0  0  0  0  0  0  0  0  0  0  0  0
    3.0000   -2.5981    0.0000 O   0  0  0  0  0  0  0  0  0  0  0  0
    3.7500   -3.8971    0.0000 C   0  0  0  0  0  0  0  0  0  0  0  0
    3.0000   -5.1962    0.0000 C   0  0  0  0  0  0  0  0  0  0  0  0
    3.7500   -6.4952    0.0000 C   0  0  0  0  0  0  0  0  0  0  0  0
    5.2500   -6.4952    0.0000 C   0  0  0  0  0  0  0  0  0  0  0  0
    6.0000   -5.1962    0.0000 C   0  0  0  0  0  0  0  0  0  0  0  0
    5.2500   -3.8971    0.0000 C   0  0  0  0  0  0  0  0  0  0  0  0
    0.7500   -1.2990    0.0000 C   0  0  0  0  0  0  0  0  0  0  0  0
    1.5000    0.0000    0.0000 C   0  0  0  0  0  0  0  0  0  0  0  0
    0.7500    1.2990    0.0000 C   0  0  0  0  0  0  0  0  0  0  0  0
   -0.7500    1.2990    0.0000 C   0  0  0  0  0  0  0  0  0  0  0  0
   -1.5000    0.0000    0.0000 C   0  0  0  0  0  0  0  0  0  0  0  0
   -0.7500   -1.2990    0.0000 C   0  0  0  0  0  0  0  0  0  0  0  0
  1  2  1  0
  2  3  2  0
  2  4  1  0
  4  5  2  0
  4  6  1  0
  6  7  2  0
  7  8  1  0
  8  9  2  0
  9 10  1  0
 10 11  1  0
 11 12  2  0
 12 13  1  0
 13 14  2  0
 14 15  1  0
 15 16  2  0
  9 17  1  0
 17 18  2  0
 18 19  1  0
 19 20  2  0
 20 21  1  0
 21 22  2  0
 22  6  1  0
 16 11  1  0
 22 17  1  0
M  END
>  <Title>  (1284) 
idABVLgen6

$$$$

     RDKit          2D

 20 22  0  0  0  0  0  0  0  0999 V2000
   -3.0000   -2.5981    0.0000 C   0  0  0  0  0  0  0  0  0  0  0  0
   -1.5000   -2.5981    0.0000 N   0  0  0  0  0  0  0  0  0  0  0  0
   -0.7500   -3.8971    0.0000 C   0  0  0  0  0  0  0  0  0  0  0  0
    0.7500   -3.8971    0.0000 C   0  0  0  0  0  0  0  0  0  0  0  0
    1.5000   -2.5981    0.0000 C   0  0  0  0  0  0  0  0  0  0  0  0
    3.0000   -2.5981    0.0000 C   0  0  0  0  0  0  0  0  0  0  0  0
    3.7500   -1.2990    0.0000 O   0  0  0  0  0  0  0  0  0  0  0  0
    3.7500   -3.8971    0.0000 N   0  0  0  0  0  0  0  0  0  0  0  0
    5.2500   -3.8971    0.0000 C   0  0  0  0  0  0  0  0  0  0  0  0
    6.0000   -5.1962    0.0000 N   0  0  0  0  0  0  0  0  0  0  0  0
    7.5000   -5.1962    0.0000 N   0  0  0  0  0  0  0  0  0  0  0  0
    8.2500   -3.8971    0.0000 N   0  0  0  0  0  0  0  0  0  0  0  0
    7.5000   -2.5981    0.0000 N   0  0  0  0  0  0  0  0  0  0  0  0
    6.0000   -2.5981    0.0000 N   0  0  0  0  0  0  0  0  0  0  0  0
    0.7500   -1.2990    0.0000 C   0  0  0  0  0  0  0  0  0  0  0  0
    1.5000    0.0000    0.0000 C   0  0  0  0  0  0  0  0  0  0  0  0
    0.7500    1.2990    0.0000 C   0  0  0  0  0  0  0  0  0  0  0  0
   -0.7500    1.2990    0.0000 C   0  0  0  0  0  0  0  0  0  0  0  0
   -1.5000    0.0000    0.0000 C   0  0  0  0  0  0  0  0  0  0  0  0
   -0.7500   -1.2990    0.0000 C   0  0  0  0  0  0  0  0  0  0  0  0
  1  2  1  0
  2  3  1  0
  3  4  2  0
  4  5  1  0
  5  6  1  0
  6  7  2  0
  6  8  1  0
  8  9  1  0
  9 10  2  0
 10 11  1  0
 11 12  2  0
 12 13  1  0
 13 14  2  0
  5 15  1  0
 15 16  2  0
 16 17  1  0
 17 18  2  0
 18 19  1  0
 19 20  2  0
 20  2  1  0
 14  9  1  0
 20 15  1  0
M  END
>  <Title>  (1285) 
idABVMgen6

$$$$

     RDKit          2D

 18 19  0  0  0  0  0  0  0  0999 V2000
    0.7500   -3.8971    0.0000 C   0  0  0  0  0  0  0  0  0  0  0  0
    1.5000   -2.5981    0.0000 C   0  0  0  0  0  0  0  0  0  0  0  0
    3.0000   -2.5981    0.0000 N   0  0  0  0  0  0  0  0  0  0  0  0
    3.7500   -3.8971    0.0000 C   0  0  0  0  0  0  0  0  0  0  0  0
    3.0000   -5.1962    0.0000 O   0  0  0  0  0  0  0  0  0  0  0  0
    5.2500   -3.8971    0.0000 C   0  0  0  0  0  0  0  0  0  0  0  0
    6.0000   -5.1962    0.0000 C   0  0  0  0  0  0  0  0  0  0  0  0
    7.4918   -5.3529    0.0000 N   0  0  0  0  0  0  0  0  0  0  0  0
    7.8037   -6.8202    0.0000 N   0  0  0  0  0  0  0  0  0  0  0  0
    6.5046   -7.5702    0.0000 N   0  0  0  0  0  0  0  0  0  0  0  0
    5.3899   -6.5665    0.0000 N   0  0  0  0  0  0  0  0  0  0  0  0
    0.7500   -1.2990    0.0000 C   0  0  0  0  0  0  0  0  0  0  0  0
    1.5000    0.0000    0.0000 C   0  0  0  0  0  0  0  0  0  0  0  0
    0.7500    1.2990    0.0000 C   0  0  0  0  0  0  0  0  0  0  0  0
   -0.7500    1.2990    0.0000 C   0  0  0  0  0  0  0  0  0  0  0  0
   -1.5000    0.0000    0.0000 C   0  0  0  0  0  0  0  0  0  0  0  0
   -0.7500   -1.2990    0.0000 C   0  0  0  0  0  0  0  0  0  0  0  0
   -1.5000   -2.5981    0.0000 O   0  0  0  0  0  0  0  0  0  0  0  0
  1  2  1  0
  2  3  1  0
  3  4  1  0
  4  5  2  0
  4  6  1  0
  6  7  1  0
  7  8  2  0
  8  9  1  0
  9 10  2  0
 10 11  1  0
  2 12  1  0
 12 13  2  0
 13 14  1  0
 14 15  2  0
 15 16  1  0
 16 17  2  0
 17 18  1  0
 11  7  1  0
 17 12  1  0
M  END
>  <Title>  (1286) 
idABVNgen6

$$$$

     RDKit          2D

 29 32  0  0  0  0  0  0  0  0999 V2000
    3.6930   -8.4694    0.0000 C   0  0  0  0  0  0  0  0  0  0  0  0
    3.8137   -6.9743    0.0000 O   0  0  0  0  0  0  0  0  0  0  0  0
    2.5792   -6.1222    0.0000 C   0  0  0  0  0  0  0  0  0  0  0  0
    3.1111   -4.7197    0.0000 C   0  0  0  0  0  0  0  0  0  0  0  0
    2.9303   -3.2306    0.0000 C   0  0  0  0  0  0  0  0  0  0  0  0
    2.0782   -1.9961    0.0000 C   0  0  0  0  0  0  0  0  0  0  0  0
    0.7500   -1.2990    0.0000 C   0  0  0  0  0  0  0  0  0  0  0  0
    1.5000    0.0000    0.0000 C   0  0  0  0  0  0  0  0  0  0  0  0
    0.7500    1.2990    0.0000 C   0  0  0  0  0  0  0  0  0  0  0  0
   -0.7500    1.2990    0.0000 C   0  0  0  0  0  0  0  0  0  0  0  0
   -1.5000    0.0000    0.0000 C   0  0  0  0  0  0  0  0  0  0  0  0
   -0.7500   -1.2990    0.0000 C   0  0  0  0  0  0  0  0  0  0  0  0
   -2.0782   -1.9961    0.0000 C   0  0  0  0  0  0  0  0  0  0  0  0
   -2.7212   -0.6409    0.0000 C   0  0  0  0  0  0  0  0  0  0  0  0
   -4.2164   -0.5202    0.0000 C   0  0  0  0  0  0  0  0  0  0  0  0
   -5.0685   -1.7547    0.0000 C   0  0  0  0  0  0  0  0  0  0  0  0
   -4.4254   -3.1099    0.0000 C   0  0  0  0  0  0  0  0  0  0  0  0
   -2.9303   -3.2306    0.0000 C   0  0  0  0  0  0  0  0  0  0  0  0
   -3.1111   -4.7197    0.0000 C   0  0  0  0  0  0  0  0  0  0  0  0
   -4.5917   -4.4790    0.0000 C   0  0  0  0  0  0  0  0  0  0  0  0
   -5.5403   -5.6410    0.0000 C   0  0  0  0  0  0  0  0  0  0  0  0
   -5.0084   -7.0435    0.0000 C   0  0  0  0  0  0  0  0  0  0  0  0
   -3.5278   -7.2841    0.0000 C   0  0  0  0  0  0  0  0  0  0  0  0
   -2.5792   -6.1222    0.0000 C   0  0  0  0  0  0  0  0  0  0  0  0
   -1.4564   -7.1169    0.0000 C   0  0  0  0  0  0  0  0  0  0  0  0
   -2.1535   -8.4451    0.0000 C   0  0  0  0  0  0  0  0  0  0  0  0
   -0.0000   -7.4758    0.0000 C   0  0  0  0  0  0  0  0  0  0  0  0
   -0.0000   -8.9758    0.0000 O   0  0  0  0  0  0  0  0  0  0  0  0
    1.4564   -7.1169    0.0000 C   0  0  0  0  0  0  0  0  0  0  0  0
  1  2  1  0
  2  3  1  0
  3  4  2  0
  4  5  1  0
  5  6  2  0
  6  7  1  0
  7  8  2  0
  8  9  1  0
  9 10  2  0
 10 11  1  0
 11 12  2  0
 12 13  1  0
 13 14  2  0
 14 15  1  0
 15 16  2  0
 16 17  1  0
 17 18  2  0
 18 19  1  0
 19 20  2  0
 20 21  1  0
 21 22  2  0
 22 23  1  0
 23 24  2  0
 24 25  1  0
 25 26  1  0
 25 27  1  0
 27 28  2  0
 27 29  1  0
 29  3  1  0
 12  7  1  0
 18 13  1  0
 24 19  1  0
M  END
>  <Title>  (1287) 
idABVOgen6

$$$$

     RDKit          2D

 16 16  0  0  0  0  0  0  0  0999 V2000
    3.9271    0.0000    0.0000 C   0  0  0  0  0  0  0  0  0  0  0  0
    2.4271    0.0000    0.0000 C   0  0  0  0  0  0  0  0  0  0  0  0
    1.9635   -1.4266    0.0000 C   0  0  0  0  0  0  0  0  0  0  0  0
    0.7500   -2.3083    0.0000 C   0  0  0  0  0  0  0  0  0  0  0  0
   -0.7500   -2.3083    0.0000 C   0  0  0  0  0  0  0  0  0  0  0  0
   -1.9635   -1.4266    0.0000 C   0  0  0  0  0  0  0  0  0  0  0  0
   -2.4271    0.0000    0.0000 C   0  0  0  0  0  0  0  0  0  0  0  0
   -1.9635    1.4266    0.0000 C   0  0  0  0  0  0  0  0  0  0  0  0
   -0.7500    2.3083    0.0000 C   0  0  0  0  0  0  0  0  0  0  0  0
    0.7500    2.3083    0.0000 C   0  0  0  0  0  0  0  0  0  0  0  0
    1.2135    3.7348    0.0000 C   0  0  0  0  0  0  0  0  0  0  0  0
    2.6807    4.0467    0.0000 C   0  0  0  0  0  0  0  0  0  0  0  0
    0.2098    4.8496    0.0000 N   0  0  0  0  0  0  0  0  0  0  0  0
    0.6734    6.2761    0.0000 C   0  0  0  0  0  0  0  0  0  0  0  0
   -1.2574    4.5377    0.0000 C   0  0  0  0  0  0  0  0  0  0  0  0
    1.9635    1.4266    0.0000 C   0  0  0  0  0  0  0  0  0  0  0  0
  1  2  1  0
  2  3  1  0
  3  4  1  0
  4  5  1  0
  5  6  1  0
  6  7  1  0
  7  8  1  0
  8  9  1  0
  9 10  1  0
 10 11  1  0
 11 12  1  0
 11 13  1  0
 13 14  1  0
 13 15  1  0
 10 16  1  0
 16  2  1  0
M  END
>  <Title>  (1288) 
idABVPgen6

$$$$

     RDKit          2D

 23 24  0  0  0  0  0  0  0  0999 V2000
   -6.4664   -3.4354    0.0000 C   0  0  0  0  0  0  0  0  0  0  0  0
   -5.4627   -4.5501    0.0000 C   0  0  0  0  0  0  0  0  0  0  0  0
   -5.9262   -5.9767    0.0000 O   0  0  0  0  0  0  0  0  0  0  0  0
   -3.9955   -4.2382    0.0000 O   0  0  0  0  0  0  0  0  0  0  0  0
   -2.9918   -5.3529    0.0000 C   0  0  0  0  0  0  0  0  0  0  0  0
   -3.3037   -6.8202    0.0000 C   0  0  0  0  0  0  0  0  0  0  0  0
   -2.0046   -7.5702    0.0000 C   0  0  0  0  0  0  0  0  0  0  0  0
   -0.8899   -6.5665    0.0000 N   0  0  0  0  0  0  0  0  0  0  0  0
   -1.5000   -5.1962    0.0000 N   0  0  0  0  0  0  0  0  0  0  0  0
   -0.7500   -3.8971    0.0000 C   0  0  0  0  0  0  0  0  0  0  0  0
   -1.5000   -2.5981    0.0000 O   0  0  0  0  0  0  0  0  0  0  0  0
    0.7500   -3.8971    0.0000 C   0  0  0  0  0  0  0  0  0  0  0  0
    1.5000   -5.1962    0.0000 C   0  0  0  0  0  0  0  0  0  0  0  0
    3.0000   -5.1962    0.0000 C   0  0  0  0  0  0  0  0  0  0  0  0
    3.7500   -6.4952    0.0000 O   0  0  0  0  0  0  0  0  0  0  0  0
    3.7500   -3.8971    0.0000 O   0  0  0  0  0  0  0  0  0  0  0  0
    1.5000   -2.5981    0.0000 C   0  0  0  0  0  0  0  0  0  0  0  0
    0.7500   -1.2990    0.0000 C   0  0  0  0  0  0  0  0  0  0  0  0
    1.5000    0.0000    0.0000 C   0  0  0  0  0  0  0  0  0  0  0  0
    0.7500    1.2990    0.0000 C   0  0  0  0  0  0  0  0  0  0  0  0
   -0.7500    1.2990    0.0000 C   0  0  0  0  0  0  0  0  0  0  0  0
   -1.5000    0.0000    0.0000 C   0  0  0  0  0  0  0  0  0  0  0  0
   -0.7500   -1.2990    0.0000 C   0  0  0  0  0  0  0  0  0  0  0  0
  1  2  1  0
  2  3  2  0
  2  4  1  0
  4  5  1  0
  5  6  2  0
  6  7  1  0
  7  8  2  0
  8  9  1  0
  9 10  1  0
 10 11  2  0
 10 12  1  0
 12 13  1  0
 13 14  1  0
 14 15  2  0
 14 16  1  0
 12 17  1  0
 17 18  1  0
 18 19  2  0
 19 20  1  0
 20 21  2  0
 21 22  1  0
 22 23  2  0
  9  5  1  0
 23 18  1  0
M  END
>  <Title>  (1289) 
idABVQgen6

$$$$

     RDKit          2D

 21 23  0  0  0  0  0  0  0  0999 V2000
   -3.1476   -2.1380    0.0000 C   0  0  0  0  0  0  0  0  0  0  0  0
   -1.6852   -2.4718    0.0000 C   0  0  0  0  0  0  0  0  0  0  0  0
   -1.3515   -3.9342    0.0000 C   0  0  0  0  0  0  0  0  0  0  0  0
   -0.0000   -4.5850    0.0000 C   0  0  0  0  0  0  0  0  0  0  0  0
    1.3515   -3.9342    0.0000 C   0  0  0  0  0  0  0  0  0  0  0  0
    1.6852   -2.4718    0.0000 C   0  0  0  0  0  0  0  0  0  0  0  0
    3.1476   -2.1380    0.0000 C   0  0  0  0  0  0  0  0  0  0  0  0
    3.5898   -0.7046    0.0000 O   0  0  0  0  0  0  0  0  0  0  0  0
    4.1679   -3.2376    0.0000 O   0  0  0  0  0  0  0  0  0  0  0  0
    5.6303   -2.9038    0.0000 C   0  0  0  0  0  0  0  0  0  0  0  0
    6.6505   -4.0034    0.0000 N   0  0  0  0  0  0  0  0  0  0  0  0
    8.1129   -3.6696    0.0000 N   0  0  0  0  0  0  0  0  0  0  0  0
    8.5551   -2.2362    0.0000 N   0  0  0  0  0  0  0  0  0  0  0  0
    7.5348   -1.1367    0.0000 N   0  0  0  0  0  0  0  0  0  0  0  0
    6.0724   -1.4704    0.0000 N   0  0  0  0  0  0  0  0  0  0  0  0
    0.7500   -1.2990    0.0000 C   0  0  0  0  0  0  0  0  0  0  0  0
    1.5000    0.0000    0.0000 C   0  0  0  0  0  0  0  0  0  0  0  0
    0.7500    1.2990    0.0000 C   0  0  0  0  0  0  0  0  0  0  0  0
   -0.7500    1.2990    0.0000 C   0  0  0  0  0  0  0  0  0  0  0  0
   -1.5000    0.0000    0.0000 C   0  0  0  0  0  0  0  0  0  0  0  0
   -0.7500   -1.2990    0.0000 C   0  0  0  0  0  0  0  0  0  0  0  0
  1  2  1  0
  2  3  1  0
  3  4  2  0
  4  5  1  0
  5  6  2  0
  6  7  1  0
  7  8  2  0
  7  9  1  0
  9 10  1  0
 10 11  2  0
 11 12  1  0
 12 13  2  0
 13 14  1  0
 14 15  2  0
  6 16  1  0
 16 17  2  0
 17 18  1  0
 18 19  2  0
 19 20  1  0
 20 21  2  0
 21  2  1  0
 15 10  1  0
 21 16  1  0
M  END
>  <Title>  (1290) 
idABVRgen6

$$$$

     RDKit          2D

 16 18  0  0  0  0  0  0  0  0999 V2000
   -3.1476   -2.1380    0.0000 O   0  0  0  0  0  0  0  0  0  0  0  0
   -1.6852   -2.4718    0.0000 C   0  0  0  0  0  0  0  0  0  0  0  0
   -1.3515   -3.9342    0.0000 N   0  0  0  0  0  0  0  0  0  0  0  0
   -0.0000   -4.5850    0.0000 C   0  0  0  0  0  0  0  0  0  0  0  0
    0.2013   -6.0714    0.0000 C   0  0  0  0  0  0  0  0  0  0  0  0
    1.6772   -6.3393    0.0000 C   0  0  0  0  0  0  0  0  0  0  0  0
    2.3880   -5.0184    0.0000 C   0  0  0  0  0  0  0  0  0  0  0  0
    3.8745   -4.8170    0.0000 O   0  0  0  0  0  0  0  0  0  0  0  0
    1.3515   -3.9342    0.0000 C   0  0  0  0  0  0  0  0  0  0  0  0
    1.6852   -2.4718    0.0000 C   0  0  0  0  0  0  0  0  0  0  0  0
    0.7500   -1.2990    0.0000 C   0  0  0  0  0  0  0  0  0  0  0  0
    1.5000    0.0000    0.0000 C   0  0  0  0  0  0  0  0  0  0  0  0
    0.7500    1.2990    0.0000 C   0  0  0  0  0  0  0  0  0  0  0  0
   -0.7500    1.2990    0.0000 C   0  0  0  0  0  0  0  0  0  0  0  0
   -1.5000    0.0000    0.0000 C   0  0  0  0  0  0  0  0  0  0  0  0
   -0.7500   -1.2990    0.0000 C   0  0  0  0  0  0  0  0  0  0  0  0
  1  2  2  0
  2  3  1  0
  3  4  1  0
  4  5  2  0
  5  6  1  0
  6  7  2  0
  7  8  1  0
  7  9  1  0
  9 10  1  0
 10 11  1  0
 11 12  2  0
 12 13  1  0
 13 14  2  0
 14 15  1  0
 15 16  2  0
 16  2  1  0
  9  4  1  0
 16 11  1  0
M  END
>  <Title>  (1291) 
idABVSgen6

$$$$

     RDKit          2D

 28 31  0  0  0  0  0  0  0  0999 V2000
   -3.1771   -5.9156    0.0000 C   0  0  0  0  0  0  0  0  0  0  0  0
   -1.9635   -5.0339    0.0000 C   0  0  0  0  0  0  0  0  0  0  0  0
   -0.7500   -5.9156    0.0000 C   0  0  0  0  0  0  0  0  0  0  0  0
    0.7500   -5.9156    0.0000 C   0  0  0  0  0  0  0  0  0  0  0  0
    1.9635   -5.0339    0.0000 C   0  0  0  0  0  0  0  0  0  0  0  0
    2.4271   -3.6073    0.0000 C   0  0  0  0  0  0  0  0  0  0  0  0
    1.9635   -2.1807    0.0000 C   0  0  0  0  0  0  0  0  0  0  0  0
    3.1771   -1.2990    0.0000 C   0  0  0  0  0  0  0  0  0  0  0  0
    3.0203    0.1927    0.0000 O   0  0  0  0  0  0  0  0  0  0  0  0
    4.5474   -1.9091    0.0000 N   0  0  0  0  0  0  0  0  0  0  0  0
    5.7609   -1.0275    0.0000 C   0  0  0  0  0  0  0  0  0  0  0  0
    7.1312   -1.6376    0.0000 N   0  0  0  0  0  0  0  0  0  0  0  0
    8.3447   -0.7559    0.0000 N   0  0  0  0  0  0  0  0  0  0  0  0
    8.1879    0.7359    0.0000 N   0  0  0  0  0  0  0  0  0  0  0  0
    6.8176    1.3460    0.0000 N   0  0  0  0  0  0  0  0  0  0  0  0
    5.6041    0.4643    0.0000 N   0  0  0  0  0  0  0  0  0  0  0  0
    0.7500   -1.2990    0.0000 C   0  0  0  0  0  0  0  0  0  0  0  0
    1.5000    0.0000    0.0000 C   0  0  0  0  0  0  0  0  0  0  0  0
    0.7500    1.2990    0.0000 C   0  0  0  0  0  0  0  0  0  0  0  0
   -0.7500    1.2990    0.0000 C   0  0  0  0  0  0  0  0  0  0  0  0
   -1.5000    0.0000    0.0000 C   0  0  0  0  0  0  0  0  0  0  0  0
   -0.7500   -1.2990    0.0000 C   0  0  0  0  0  0  0  0  0  0  0  0
   -1.9635   -2.1807    0.0000 C   0  0  0  0  0  0  0  0  0  0  0  0
   -2.9672   -1.0660    0.0000 C   0  0  0  0  0  0  0  0  0  0  0  0
   -4.4344   -1.3779    0.0000 C   0  0  0  0  0  0  0  0  0  0  0  0
   -4.8980   -2.8045    0.0000 C   0  0  0  0  0  0  0  0  0  0  0  0
   -3.8943   -3.9192    0.0000 C   0  0  0  0  0  0  0  0  0  0  0  0
   -2.4271   -3.6073    0.0000 C   0  0  0  0  0  0  0  0  0  0  0  0
  1  2  1  0
  2  3  1  0
  3  4  2  0
  4  5  1  0
  5  6  1  0
  6  7  1  0
  7  8  1  0
  8  9  2  0
  8 10  1  0
 10 11  1  0
 11 12  2  0
 12 13  1  0
 13 14  2  0
 14 15  1  0
 15 16  2  0
  7 17  1  0
 17 18  2  0
 18 19  1  0
 19 20  2  0
 20 21  1  0
 21 22  2  0
 22 23  1  0
 23 24  2  0
 24 25  1  0
 25 26  2  0
 26 27  1  0
 27 28  2  0
 28  2  1  0
 16 11  1  0
 22 17  1  0
 28 23  1  0
M  END
>  <Title>  (1292) 
idABVTgen6

$$$$

     RDKit          2D

 25 26  0  0  0  0  0  0  0  0999 V2000
    5.1073    0.0000    0.0000 C   0  0  0  0  0  0  0  0  0  0  0  0
    3.6073    0.0000    0.0000 C   0  0  0  0  0  0  0  0  0  0  0  0
    3.2954    1.4672    0.0000 C   0  0  0  0  0  0  0  0  0  0  0  0
    2.4138    2.6807    0.0000 C   0  0  0  0  0  0  0  0  0  0  0  0
    1.1147    3.4307    0.0000 C   0  0  0  0  0  0  0  0  0  0  0  0
   -0.3771    3.5875    0.0000 C   0  0  0  0  0  0  0  0  0  0  0  0
   -1.8037    3.1240    0.0000 C   0  0  0  0  0  0  0  0  0  0  0  0
   -2.9184    2.1203    0.0000 C   0  0  0  0  0  0  0  0  0  0  0  0
   -3.5285    0.7500    0.0000 C   0  0  0  0  0  0  0  0  0  0  0  0
   -3.5285   -0.7500    0.0000 C   0  0  0  0  0  0  0  0  0  0  0  0
   -2.9184   -2.1203    0.0000 C   0  0  0  0  0  0  0  0  0  0  0  0
   -1.8037   -3.1240    0.0000 C   0  0  0  0  0  0  0  0  0  0  0  0
   -0.3771   -3.5875    0.0000 C   0  0  0  0  0  0  0  0  0  0  0  0
    1.1147   -3.4307    0.0000 C   0  0  0  0  0  0  0  0  0  0  0  0
    2.4138   -2.6807    0.0000 C   0  0  0  0  0  0  0  0  0  0  0  0
    3.4175   -3.7955    0.0000 C   0  0  0  0  0  0  0  0  0  0  0  0
    4.8847   -3.4836    0.0000 O   0  0  0  0  0  0  0  0  0  0  0  0
    2.9539   -5.2220    0.0000 N   0  0  0  0  0  0  0  0  0  0  0  0
    3.9576   -6.3368    0.0000 C   0  0  0  0  0  0  0  0  0  0  0  0
    3.4941   -7.7634    0.0000 N   0  0  0  0  0  0  0  0  0  0  0  0
    4.4978   -8.8781    0.0000 N   0  0  0  0  0  0  0  0  0  0  0  0
    5.9650   -8.5662    0.0000 N   0  0  0  0  0  0  0  0  0  0  0  0
    6.4285   -7.1396    0.0000 N   0  0  0  0  0  0  0  0  0  0  0  0
    5.4248   -6.0249    0.0000 N   0  0  0  0  0  0  0  0  0  0  0  0
    3.2954   -1.4672    0.0000 C   0  0  0  0  0  0  0  0  0  0  0  0
  1  2  1  0
  2  3  1  0
  3  4  2  0
  4  5  1  0
  5  6  1  0
  6  7  1  0
  7  8  1  0
  8  9  1  0
  9 10  1  0
 10 11  1  0
 11 12  1  0
 12 13  1  0
 13 14  1  0
 14 15  1  0
 15 16  1  0
 16 17  2  0
 16 18  1  0
 18 19  1  0
 19 20  2  0
 20 21  1  0
 21 22  2  0
 22 23  1  0
 23 24  2  0
 15 25  1  0
 25  2  1  0
 24 19  1  0
M  END
>  <Title>  (1293) 
idABVUgen6

$$$$

     RDKit          2D

 60 65  0  0  0  0  0  0  0  0999 V2000
  -10.5746   -2.3017    0.0000 C   0  0  0  0  0  0  0  0  0  0  0  0
   -9.2756   -3.0517    0.0000 C   0  0  0  0  0  0  0  0  0  0  0  0
   -9.8754   -4.4265    0.0000 C   0  0  0  0  0  0  0  0  0  0  0  0
  -10.1543   -5.9004    0.0000 C   0  0  0  0  0  0  0  0  0  0  0  0
  -10.0982   -7.3993    0.0000 C   0  0  0  0  0  0  0  0  0  0  0  0
   -9.7099   -8.8482    0.0000 C   0  0  0  0  0  0  0  0  0  0  0  0
   -9.0090  -10.1744    0.0000 C   0  0  0  0  0  0  0  0  0  0  0  0
   -8.0306  -11.3113    0.0000 C   0  0  0  0  0  0  0  0  0  0  0  0
   -6.8237  -12.2021    0.0000 C   0  0  0  0  0  0  0  0  0  0  0  0
   -5.4489  -12.8019    0.0000 C   0  0  0  0  0  0  0  0  0  0  0  0
   -3.9750  -13.0808    0.0000 C   0  0  0  0  0  0  0  0  0  0  0  0
   -2.4761  -13.0247    0.0000 C   0  0  0  0  0  0  0  0  0  0  0  0
   -1.0272  -12.6365    0.0000 C   0  0  0  0  0  0  0  0  0  0  0  0
    0.2990  -11.9356    0.0000 C   0  0  0  0  0  0  0  0  0  0  0  0
    1.4360  -10.9571    0.0000 C   0  0  0  0  0  0  0  0  0  0  0  0
    2.6429  -11.8479    0.0000 C   0  0  0  0  0  0  0  0  0  0  0  0
    2.8664  -13.3311    0.0000 O   0  0  0  0  0  0  0  0  0  0  0  0
    3.5336  -10.6410    0.0000 N   0  0  0  0  0  0  0  0  0  0  0  0
    2.3267   -9.7502    0.0000 C   0  0  0  0  0  0  0  0  0  0  0  0
    2.9265   -8.3754    0.0000 N   0  0  0  0  0  0  0  0  0  0  0  0
    3.2054   -6.9015    0.0000 N   0  0  0  0  0  0  0  0  0  0  0  0
    3.1493   -5.4026    0.0000 N   0  0  0  0  0  0  0  0  0  0  0  0
    2.7611   -3.9537    0.0000 N   0  0  0  0  0  0  0  0  0  0  0  0
    4.1944   -4.3958    0.0000 C   0  0  0  0  0  0  0  0  0  0  0  0
    5.5206   -3.6949    0.0000 C   0  0  0  0  0  0  0  0  0  0  0  0
    5.9627   -2.2616    0.0000 C   0  0  0  0  0  0  0  0  0  0  0  0
    7.4562   -2.1215    0.0000 C   0  0  0  0  0  0  0  0  0  0  0  0
    8.0816   -0.7581    0.0000 O   0  0  0  0  0  0  0  0  0  0  0  0
    8.3242   -3.3449    0.0000 N   0  0  0  0  0  0  0  0  0  0  0  0
    9.8176   -3.2048    0.0000 C   0  0  0  0  0  0  0  0  0  0  0  0
   10.6856   -4.4282    0.0000 N   0  0  0  0  0  0  0  0  0  0  0  0
   12.1791   -4.2881    0.0000 N   0  0  0  0  0  0  0  0  0  0  0  0
   12.8045   -2.9247    0.0000 N   0  0  0  0  0  0  0  0  0  0  0  0
   11.9365   -1.7014    0.0000 N   0  0  0  0  0  0  0  0  0  0  0  0
   10.4431   -1.8414    0.0000 N   0  0  0  0  0  0  0  0  0  0  0  0
    5.2618   -0.9354    0.0000 C   0  0  0  0  0  0  0  0  0  0  0  0
    6.2188    0.2197    0.0000 C   0  0  0  0  0  0  0  0  0  0  0  0
    5.6970    1.6260    0.0000 O   0  0  0  0  0  0  0  0  0  0  0  0
    3.8285   -0.4933    0.0000 C   0  0  0  0  0  0  0  0  0  0  0  0
    2.5023   -1.1942    0.0000 C   0  0  0  0  0  0  0  0  0  0  0  0
    2.0602   -2.6275    0.0000 C   0  0  0  0  0  0  0  0  0  0  0  0
    0.7500   -1.2990    0.0000 C   0  0  0  0  0  0  0  0  0  0  0  0
    1.5000    0.0000    0.0000 C   0  0  0  0  0  0  0  0  0  0  0  0
    0.7500    1.2990    0.0000 C   0  0  0  0  0  0  0  0  0  0  0  0
   -0.7500    1.2990    0.0000 C   0  0  0  0  0  0  0  0  0  0  0  0
   -1.5000    0.0000    0.0000 C   0  0  0  0  0  0  0  0  0  0  0  0
   -0.7500   -1.2990    0.0000 C   0  0  0  0  0  0  0  0  0  0  0  0
   -1.5000   -2.5981    0.0000 O   0  0  0  0  0  0  0  0  0  0  0  0
   -2.9738    0.2789    0.0000 C   0  0  0  0  0  0  0  0  0  0  0  0
   -2.2729    1.6050    0.0000 C   0  0  0  0  0  0  0  0  0  0  0  0
   -3.0710    2.8751    0.0000 C   0  0  0  0  0  0  0  0  0  0  0  0
   -4.5699    2.8190    0.0000 C   0  0  0  0  0  0  0  0  0  0  0  0
   -5.3680    4.0891    0.0000 C   0  0  0  0  0  0  0  0  0  0  0  0
   -6.1660    5.3592    0.0000 N   0  0  0  0  0  0  0  0  0  0  0  0
   -5.2708    1.4929    0.0000 C   0  0  0  0  0  0  0  0  0  0  0  0
   -4.4728    0.2228    0.0000 C   0  0  0  0  0  0  0  0  0  0  0  0
   -5.9217   -0.1654    0.0000 C   0  0  0  0  0  0  0  0  0  0  0  0
   -6.4697    1.2309    0.0000 C   0  0  0  0  0  0  0  0  0  0  0  0
   -7.2479   -0.8664    0.0000 C   0  0  0  0  0  0  0  0  0  0  0  0
   -8.3848   -1.8448    0.0000 C   0  0  0  0  0  0  0  0  0  0  0  0
  1  2  1  0
  2  3  1  0
  3  4  1  0
  4  5  1  0
  5  6  1  0
  6  7  1  0
  7  8  1  0
  8  9  1  0
  9 10  1  0
 10 11  1  0
 11 12  1  0
 12 13  1  0
 13 14  1  0
 14 15  1  0
 15 16  1  0
 16 17  2  0
 16 18  1  0
 18 19  1  0
 19 20  2  0
 20 21  1  0
 21 22  2  0
 22 23  1  0
 23 24  1  0
 24 25  2  0
 25 26  1  0
 26 27  1  0
 27 28  2  0
 27 29  1  0
 29 30  1  0
 30 31  2  0
 31 32  1  0
 32 33  2  0
 33 34  1  0
 34 35  2  0
 26 36  1  0
 36 37  1  0
 37 38  1  0
 36 39  2  0
 39 40  1  0
 40 41  2  0
 41 42  1  0
 42 43  2  0
 43 44  1  0
 44 45  2  0
 45 46  1  0
 46 47  1  0
 47 48  2  0
 46 49  1  0
 49 50  2  0
 50 51  1  0
 51 52  2  0
 52 53  1  0
 53 54  3  0
 52 55  1  0
 55 56  2  0
 56 57  1  0
 57 58  1  0
 57 59  1  0
 59 60  1  0
 60  2  1  0
 19 15  1  0
 41 23  1  0
 47 42  1  0
 56 49  1  0
 35 30  1  0
M  END
>  <Title>  (1294) 
idABVVgen6

$$$$

     RDKit          2D

 20 20  0  0  0  0  0  0  0  0999 V2000
    6.5691   -1.2990    0.0000 C   0  0  0  0  0  0  0  0  0  0  0  0
    5.8191    0.0000    0.0000 O   0  0  0  0  0  0  0  0  0  0  0  0
    4.3191    0.0000    0.0000 C   0  0  0  0  0  0  0  0  0  0  0  0
    4.0586   -1.4772    0.0000 C   0  0  0  0  0  0  0  0  0  0  0  0
    3.3086   -2.7762    0.0000 C   0  0  0  0  0  0  0  0  0  0  0  0
    2.1595   -3.7404    0.0000 C   0  0  0  0  0  0  0  0  0  0  0  0
    0.7500   -4.2535    0.0000 C   0  0  0  0  0  0  0  0  0  0  0  0
   -0.7500   -4.2535    0.0000 C   0  0  0  0  0  0  0  0  0  0  0  0
   -2.1595   -3.7404    0.0000 C   0  0  0  0  0  0  0  0  0  0  0  0
   -3.3086   -2.7762    0.0000 C   0  0  0  0  0  0  0  0  0  0  0  0
   -4.0586   -1.4772    0.0000 C   0  0  0  0  0  0  0  0  0  0  0  0
   -4.3191    0.0000    0.0000 C   0  0  0  0  0  0  0  0  0  0  0  0
   -4.0586    1.4772    0.0000 C   0  0  0  0  0  0  0  0  0  0  0  0
   -3.3086    2.7762    0.0000 C   0  0  0  0  0  0  0  0  0  0  0  0
   -2.1595    3.7404    0.0000 C   0  0  0  0  0  0  0  0  0  0  0  0
   -0.7500    4.2535    0.0000 C   0  0  0  0  0  0  0  0  0  0  0  0
    0.7500    4.2535    0.0000 C   0  0  0  0  0  0  0  0  0  0  0  0
    2.1595    3.7404    0.0000 C   0  0  0  0  0  0  0  0  0  0  0  0
    3.3086    2.7762    0.0000 C   0  0  0  0  0  0  0  0  0  0  0  0
    4.0586    1.4772    0.0000 C   0  0  0  0  0  0  0  0  0  0  0  0
  1  2  1  0
  2  3  1  0
  3  4  1  0
  4  5  1  0
  5  6  1  0
  6  7  1  0
  7  8  1  0
  8  9  1  0
  9 10  1  0
 10 11  1  0
 11 12  1  0
 12 13  1  0
 13 14  1  0
 14 15  1  0
 15 16  1  0
 16 17  1  0
 17 18  1  0
 18 19  1  0
 19 20  1  0
 20  3  1  0
M  END
>  <Title>  (1295) 
idABVWgen6

$$$$

     RDKit          2D

 26 29  0  0  0  0  0  0  0  0999 V2000
   -3.7500   -3.8971    0.0000 C   0  0  0  0  0  0  0  0  0  0  0  0
   -3.0000   -2.5981    0.0000 O   0  0  0  0  0  0  0  0  0  0  0  0
   -1.5000   -2.5981    0.0000 C   0  0  0  0  0  0  0  0  0  0  0  0
   -0.7500   -3.8971    0.0000 C   0  0  0  0  0  0  0  0  0  0  0  0
    0.7500   -3.8971    0.0000 C   0  0  0  0  0  0  0  0  0  0  0  0
    1.5000   -2.5981    0.0000 C   0  0  0  0  0  0  0  0  0  0  0  0
    3.0000   -2.5981    0.0000 C   0  0  0  0  0  0  0  0  0  0  0  0
    3.8817   -1.3846    0.0000 C   0  0  0  0  0  0  0  0  0  0  0  0
    5.3083   -1.8481    0.0000 C   0  0  0  0  0  0  0  0  0  0  0  0
    5.3083   -3.3481    0.0000 C   0  0  0  0  0  0  0  0  0  0  0  0
    6.5218   -4.2298    0.0000 C   0  0  0  0  0  0  0  0  0  0  0  0
    7.8921   -3.6196    0.0000 O   0  0  0  0  0  0  0  0  0  0  0  0
    6.3650   -5.7215    0.0000 N   0  0  0  0  0  0  0  0  0  0  0  0
    7.5785   -6.6032    0.0000 C   0  0  0  0  0  0  0  0  0  0  0  0
    7.4217   -8.0950    0.0000 N   0  0  0  0  0  0  0  0  0  0  0  0
    8.6353   -8.9767    0.0000 N   0  0  0  0  0  0  0  0  0  0  0  0
   10.0056   -8.3666    0.0000 N   0  0  0  0  0  0  0  0  0  0  0  0
   10.1624   -6.8748    0.0000 N   0  0  0  0  0  0  0  0  0  0  0  0
    8.9488   -5.9931    0.0000 N   0  0  0  0  0  0  0  0  0  0  0  0
    3.8817   -3.8116    0.0000 C   0  0  0  0  0  0  0  0  0  0  0  0
    0.7500   -1.2990    0.0000 C   0  0  0  0  0  0  0  0  0  0  0  0
    1.5000    0.0000    0.0000 C   0  0  0  0  0  0  0  0  0  0  0  0
    0.7500    1.2990    0.0000 C   0  0  0  0  0  0  0  0  0  0  0  0
   -0.7500    1.2990    0.0000 C   0  0  0  0  0  0  0  0  0  0  0  0
   -1.5000    0.0000    0.0000 C   0  0  0  0  0  0  0  0  0  0  0  0
   -0.7500   -1.2990    0.0000 C   0  0  0  0  0  0  0  0  0  0  0  0
  1  2  1  0
  2  3  1  0
  3  4  2  0
  4  5  1  0
  5  6  2  0
  6  7  1  0
  7  8  1  0
  8  9  1  0
  9 10  1  0
 10 11  1  0
 11 12  2  0
 11 13  1  0
 13 14  1  0
 14 15  2  0
 15 16  1  0
 16 17  2  0
 17 18  1  0
 18 19  2  0
 10 20  1  0
  6 21  1  0
 21 22  2  0
 22 23  1  0
 23 24  2  0
 24 25  1  0
 25 26  2  0
 26  3  1  0
 20  7  1  0
 26 21  1  0
 19 14  1  0
M  END
>  <Title>  (1296) 
idABVXgen6

$$$$

     RDKit          2D

 24 25  0  0  0  0  0  0  0  0999 V2000
   -8.3482   -2.4639    0.0000 C   0  0  0  0  0  0  0  0  0  0  0  0
   -6.9624   -3.0379    0.0000 C   0  0  0  0  0  0  0  0  0  0  0  0
   -6.7666   -4.5251    0.0000 O   0  0  0  0  0  0  0  0  0  0  0  0
   -5.7723   -2.1248    0.0000 C   0  0  0  0  0  0  0  0  0  0  0  0
   -5.9681   -0.6376    0.0000 C   0  0  0  0  0  0  0  0  0  0  0  0
   -4.7781    0.2755    0.0000 O   0  0  0  0  0  0  0  0  0  0  0  0
   -7.3539   -0.0636    0.0000 O   0  0  0  0  0  0  0  0  0  0  0  0
   -4.3865   -2.6988    0.0000 C   0  0  0  0  0  0  0  0  0  0  0  0
   -4.1907   -4.1860    0.0000 O   0  0  0  0  0  0  0  0  0  0  0  0
   -3.1965   -1.7857    0.0000 N   0  0  0  0  0  0  0  0  0  0  0  0
   -1.8107   -2.3597    0.0000 C   0  0  0  0  0  0  0  0  0  0  0  0
   -1.8107   -3.8597    0.0000 C   0  0  0  0  0  0  0  0  0  0  0  0
   -0.7500   -4.9204    0.0000 C   0  0  0  0  0  0  0  0  0  0  0  0
    0.7500   -4.9204    0.0000 C   0  0  0  0  0  0  0  0  0  0  0  0
    1.3240   -6.3062    0.0000 C   0  0  0  0  0  0  0  0  0  0  0  0
    1.8107   -3.8597    0.0000 C   0  0  0  0  0  0  0  0  0  0  0  0
    3.1965   -4.4337    0.0000 O   0  0  0  0  0  0  0  0  0  0  0  0
    1.8107   -2.3597    0.0000 O   0  0  0  0  0  0  0  0  0  0  0  0
    0.7500   -1.2990    0.0000 C   0  0  0  0  0  0  0  0  0  0  0  0
    1.5000    0.0000    0.0000 C   0  0  0  0  0  0  0  0  0  0  0  0
    0.7500    1.2990    0.0000 C   0  0  0  0  0  0  0  0  0  0  0  0
   -0.7500    1.2990    0.0000 C   0  0  0  0  0  0  0  0  0  0  0  0
   -1.5000    0.0000    0.0000 C   0  0  0  0  0  0  0  0  0  0  0  0
   -0.7500   -1.2990    0.0000 C   0  0  0  0  0  0  0  0  0  0  0  0
  1  2  1  0
  2  3  2  0
  2  4  1  0
  4  5  1  0
  5  6  2  0
  5  7  1  0
  4  8  1  0
  8  9  2  0
  8 10  1  0
 10 11  1  0
 11 12  2  0
 12 13  1  0
 13 14  2  0
 14 15  1  0
 14 16  1  0
 16 17  2  0
 16 18  1  0
 18 19  1  0
 19 20  2  0
 20 21  1  0
 21 22  2  0
 22 23  1  0
 23 24  2  0
 24 11  1  0
 24 19  1  0
M  END
>  <Title>  (1297) 
idABVYgen6

$$$$

     RDKit          2D

  9  9  0  0  0  0  0  0  0  0999 V2000
    5.0260   -1.2990    0.0000 C   0  0  0  0  0  0  0  0  0  0  0  0
    3.5260   -1.2990    0.0000 C   0  0  0  0  0  0  0  0  0  0  0  0
    2.7760   -2.5981    0.0000 O   0  0  0  0  0  0  0  0  0  0  0  0
    2.7760    0.0000    0.0000 O   0  0  0  0  0  0  0  0  0  0  0  0
    1.2760    0.0000    0.0000 C   0  0  0  0  0  0  0  0  0  0  0  0
    0.3943    1.2135    0.0000 C   0  0  0  0  0  0  0  0  0  0  0  0
   -1.0323    0.7500    0.0000 C   0  0  0  0  0  0  0  0  0  0  0  0
   -1.0323   -0.7500    0.0000 C   0  0  0  0  0  0  0  0  0  0  0  0
    0.3943   -1.2135    0.0000 C   0  0  0  0  0  0  0  0  0  0  0  0
  1  2  1  0
  2  3  2  0
  2  4  1  0
  4  5  1  0
  5  6  2  0
  6  7  1  0
  7  8  2  0
  8  9  1  0
  9  5  1  0
M  END
>  <Title>  (1298) 
idABVZgen6

$$$$

     RDKit          2D

  6  6  0  0  0  0  0  0  0  0999 V2000
    2.7760    0.0000    0.0000 C   0  0  0  0  0  0  0  0  0  0  0  0
    1.2760    0.0000    0.0000 C   0  0  0  0  0  0  0  0  0  0  0  0
    0.3943    1.2135    0.0000 C   0  0  0  0  0  0  0  0  0  0  0  0
   -1.0323    0.7500    0.0000 C   0  0  0  0  0  0  0  0  0  0  0  0
   -1.0323   -0.7500    0.0000 C   0  0  0  0  0  0  0  0  0  0  0  0
    0.3943   -1.2135    0.0000 C   0  0  0  0  0  0  0  0  0  0  0  0
  1  2  1  0
  2  3  1  0
  3  4  2  0
  4  5  1  0
  5  6  1  0
  6  2  1  0
M  END
>  <Title>  (1299) 
idABWAgen6

$$$$

     RDKit          2D

 44 48  0  0  0  0  0  0  0  0999 V2000
   -1.0838   -9.3334    0.0000 C   0  0  0  0  0  0  0  0  0  0  0  0
   -0.7500   -7.8710    0.0000 C   0  0  0  0  0  0  0  0  0  0  0  0
    0.7500   -7.8710    0.0000 C   0  0  0  0  0  0  0  0  0  0  0  0
    2.1015   -7.2201    0.0000 C   0  0  0  0  0  0  0  0  0  0  0  0
    3.0367   -6.0474    0.0000 C   0  0  0  0  0  0  0  0  0  0  0  0
    3.3705   -4.5850    0.0000 C   0  0  0  0  0  0  0  0  0  0  0  0
    3.0367   -3.1226    0.0000 C   0  0  0  0  0  0  0  0  0  0  0  0
    2.1015   -1.9499    0.0000 C   0  0  0  0  0  0  0  0  0  0  0  0
    3.0367   -0.7771    0.0000 C   0  0  0  0  0  0  0  0  0  0  0  0
    0.7500   -1.2990    0.0000 C   0  0  0  0  0  0  0  0  0  0  0  0
    1.5000    0.0000    0.0000 C   0  0  0  0  0  0  0  0  0  0  0  0
    0.7500    1.2990    0.0000 C   0  0  0  0  0  0  0  0  0  0  0  0
   -0.7500    1.2990    0.0000 C   0  0  0  0  0  0  0  0  0  0  0  0
   -1.5000    0.0000    0.0000 C   0  0  0  0  0  0  0  0  0  0  0  0
   -0.7500   -1.2990    0.0000 C   0  0  0  0  0  0  0  0  0  0  0  0
   -2.1015   -1.9499    0.0000 C   0  0  0  0  0  0  0  0  0  0  0  0
   -3.0367   -0.7771    0.0000 C   0  0  0  0  0  0  0  0  0  0  0  0
   -4.5199   -1.0007    0.0000 C   0  0  0  0  0  0  0  0  0  0  0  0
   -5.4552    0.1721    0.0000 C   0  0  0  0  0  0  0  0  0  0  0  0
   -4.9072    1.5684    0.0000 O   0  0  0  0  0  0  0  0  0  0  0  0
   -6.9384   -0.0515    0.0000 N   0  0  0  0  0  0  0  0  0  0  0  0
   -7.6294   -1.3829    0.0000 C   0  0  0  0  0  0  0  0  0  0  0  0
   -9.1091   -1.1371    0.0000 C   0  0  0  0  0  0  0  0  0  0  0  0
   -9.3327    0.3461    0.0000 C   0  0  0  0  0  0  0  0  0  0  0  0
  -10.6641    1.0371    0.0000 N   0  0  0  0  0  0  0  0  0  0  0  0
  -10.7314    2.5356    0.0000 C   0  0  0  0  0  0  0  0  0  0  0  0
  -12.0627    3.2265    0.0000 C   0  0  0  0  0  0  0  0  0  0  0  0
  -13.3268    2.4190    0.0000 N   0  0  0  0  0  0  0  0  0  0  0  0
  -14.6582    3.1100    0.0000 C   0  0  0  0  0  0  0  0  0  0  0  0
  -15.9223    2.3024    0.0000 O   0  0  0  0  0  0  0  0  0  0  0  0
  -14.7255    4.6084    0.0000 C   0  0  0  0  0  0  0  0  0  0  0  0
  -13.4614    5.4160    0.0000 C   0  0  0  0  0  0  0  0  0  0  0  0
  -13.5287    6.9145    0.0000 C   0  0  0  0  0  0  0  0  0  0  0  0
  -14.8601    7.6054    0.0000 C   0  0  0  0  0  0  0  0  0  0  0  0
  -16.1242    6.7979    0.0000 C   0  0  0  0  0  0  0  0  0  0  0  0
  -16.0569    5.2994    0.0000 C   0  0  0  0  0  0  0  0  0  0  0  0
  -13.2595    0.9205    0.0000 C   0  0  0  0  0  0  0  0  0  0  0  0
  -11.9281    0.2295    0.0000 C   0  0  0  0  0  0  0  0  0  0  0  0
   -7.9911    1.0171    0.0000 C   0  0  0  0  0  0  0  0  0  0  0  0
   -3.0367   -3.1226    0.0000 C   0  0  0  0  0  0  0  0  0  0  0  0
   -3.3705   -4.5850    0.0000 N   0  0  0  0  0  0  0  0  0  0  0  0
   -4.8705   -4.5850    0.0000 C   0  0  0  0  0  0  0  0  0  0  0  0
   -3.0367   -6.0474    0.0000 C   0  0  0  0  0  0  0  0  0  0  0  0
   -2.1015   -7.2201    0.0000 C   0  0  0  0  0  0  0  0  0  0  0  0
  1  2  1  0
  2  3  1  0
  3  4  1  0
  4  5  1  0
  5  6  1  0
  6  7  1  0
  7  8  1  0
  8  9  1  0
  8 10  1  0
 10 11  2  0
 11 12  1  0
 12 13  2  0
 13 14  1  0
 14 15  2  0
 15 16  1  0
 16 17  1  0
 17 18  1  0
 18 19  1  0
 19 20  2  0
 19 21  1  0
 21 22  1  0
 22 23  1  0
 23 24  1  0
 24 25  1  0
 25 26  1  0
 26 27  1  0
 27 28  1  0
 28 29  1  0
 29 30  2  0
 29 31  1  0
 31 32  2  0
 32 33  1  0
 33 34  2  0
 34 35  1  0
 35 36  2  0
 28 37  1  0
 37 38  1  0
 24 39  1  0
 16 40  1  0
 40 41  1  0
 41 42  1  0
 41 43  1  0
 43 44  1  0
 44  2  1  0
 15 10  1  0
 39 21  1  0
 38 25  1  0
 36 31  1  0
M  END
>  <Title>  (1300) 
idABWBgen6

$$$$

     RDKit          2D

 16 17  0  0  0  0  0  0  0  0999 V2000
    3.0000    0.0000    0.0000 C   0  0  0  0  0  0  0  0  0  0  0  0
    1.5000    0.0000    0.0000 C   0  0  0  0  0  0  0  0  0  0  0  0
    0.7500   -1.2990    0.0000 C   0  0  0  0  0  0  0  0  0  0  0  0
   -0.7500   -1.2990    0.0000 C   0  0  0  0  0  0  0  0  0  0  0  0
   -1.5000    0.0000    0.0000 C   0  0  0  0  0  0  0  0  0  0  0  0
   -3.0000    0.0000    0.0000 C   0  0  0  0  0  0  0  0  0  0  0  0
   -3.7500   -1.2990    0.0000 O   0  0  0  0  0  0  0  0  0  0  0  0
   -3.7500    1.2990    0.0000 N   0  0  0  0  0  0  0  0  0  0  0  0
   -5.2500    1.2990    0.0000 C   0  0  0  0  0  0  0  0  0  0  0  0
   -6.0000    2.5981    0.0000 N   0  0  0  0  0  0  0  0  0  0  0  0
   -7.5000    2.5981    0.0000 N   0  0  0  0  0  0  0  0  0  0  0  0
   -8.2500    1.2990    0.0000 N   0  0  0  0  0  0  0  0  0  0  0  0
   -7.5000    0.0000    0.0000 N   0  0  0  0  0  0  0  0  0  0  0  0
   -6.0000    0.0000    0.0000 N   0  0  0  0  0  0  0  0  0  0  0  0
   -0.7500    1.2990    0.0000 C   0  0  0  0  0  0  0  0  0  0  0  0
    0.7500    1.2990    0.0000 C   0  0  0  0  0  0  0  0  0  0  0  0
  1  2  1  0
  2  3  1  0
  3  4  2  0
  4  5  1  0
  5  6  1  0
  6  7  2  0
  6  8  1  0
  8  9  1  0
  9 10  2  0
 10 11  1  0
 11 12  2  0
 12 13  1  0
 13 14  2  0
  5 15  1  0
 15 16  1  0
 16  2  1  0
 14  9  1  0
M  END
>  <Title>  (1301) 
idABWCgen6

$$$$

     RDKit          2D

 30 33  0  0  0  0  0  0  0  0999 V2000
    6.0000   -2.5981    0.0000 C   0  0  0  0  0  0  0  0  0  0  0  0
    5.2500   -1.2990    0.0000 C   0  0  0  0  0  0  0  0  0  0  0  0
    3.7500   -1.2990    0.0000 C   0  0  0  0  0  0  0  0  0  0  0  0
    3.0000    0.0000    0.0000 C   0  0  0  0  0  0  0  0  0  0  0  0
    1.5000    0.0000    0.0000 C   0  0  0  0  0  0  0  0  0  0  0  0
    0.7500   -1.2990    0.0000 C   0  0  0  0  0  0  0  0  0  0  0  0
   -0.7500   -1.2990    0.0000 C   0  0  0  0  0  0  0  0  0  0  0  0
   -1.5000    0.0000    0.0000 C   0  0  0  0  0  0  0  0  0  0  0  0
   -3.0000    0.0000    0.0000 N   0  0  0  0  0  0  0  0  0  0  0  0
   -3.8817   -1.2135    0.0000 C   0  0  0  0  0  0  0  0  0  0  0  0
   -5.3083   -0.7500    0.0000 C   0  0  0  0  0  0  0  0  0  0  0  0
   -5.3083    0.7500    0.0000 C   0  0  0  0  0  0  0  0  0  0  0  0
   -6.5218    1.6317    0.0000 C   0  0  0  0  0  0  0  0  0  0  0  0
   -7.8921    1.0216    0.0000 O   0  0  0  0  0  0  0  0  0  0  0  0
   -6.3650    3.1235    0.0000 N   0  0  0  0  0  0  0  0  0  0  0  0
   -7.5785    4.0051    0.0000 C   0  0  0  0  0  0  0  0  0  0  0  0
   -7.4217    5.4969    0.0000 N   0  0  0  0  0  0  0  0  0  0  0  0
   -8.6353    6.3786    0.0000 N   0  0  0  0  0  0  0  0  0  0  0  0
  -10.0056    5.7685    0.0000 N   0  0  0  0  0  0  0  0  0  0  0  0
  -10.1624    4.2767    0.0000 N   0  0  0  0  0  0  0  0  0  0  0  0
   -8.9488    3.3950    0.0000 N   0  0  0  0  0  0  0  0  0  0  0  0
   -3.8817    1.2135    0.0000 C   0  0  0  0  0  0  0  0  0  0  0  0
   -3.4182    2.6401    0.0000 C   0  0  0  0  0  0  0  0  0  0  0  0
   -1.9509    2.9520    0.0000 C   0  0  0  0  0  0  0  0  0  0  0  0
   -1.4874    4.3786    0.0000 C   0  0  0  0  0  0  0  0  0  0  0  0
   -2.4911    5.4933    0.0000 C   0  0  0  0  0  0  0  0  0  0  0  0
   -3.9583    5.1814    0.0000 C   0  0  0  0  0  0  0  0  0  0  0  0
   -4.4218    3.7548    0.0000 C   0  0  0  0  0  0  0  0  0  0  0  0
   -0.7500    1.2990    0.0000 C   0  0  0  0  0  0  0  0  0  0  0  0
    0.7500    1.2990    0.0000 C   0  0  0  0  0  0  0  0  0  0  0  0
  1  2  1  0
  2  3  2  3
  3  4  1  0
  4  5  1  0
  5  6  1  0
  6  7  1  0
  7  8  2  0
  8  9  1  0
  9 10  1  0
 10 11  1  0
 11 12  1  0
 12 13  1  0
 13 14  2  0
 13 15  1  0
 15 16  1  0
 16 17  2  0
 17 18  1  0
 18 19  2  0
 19 20  1  0
 20 21  2  0
 12 22  1  0
 22 23  1  0
 23 24  2  0
 24 25  1  0
 25 26  2  0
 26 27  1  0
 27 28  2  0
  8 29  1  0
 29 30  1  0
 30  5  1  0
 22  9  1  0
 28 23  1  0
 21 16  1  0
M  END
>  <Title>  (1302) 
idABWDgen6

$$$$

     RDKit          2D

 11 11  0  0  0  0  0  0  0  0999 V2000
    5.2500    1.2990    0.0000 C   0  0  0  0  0  0  0  0  0  0  0  0
    3.7500    1.2990    0.0000 C   0  0  0  0  0  0  0  0  0  0  0  0
    3.0000    0.0000    0.0000 C   0  0  0  0  0  0  0  0  0  0  0  0
    3.7500   -1.2990    0.0000 C   0  0  0  0  0  0  0  0  0  0  0  0
    1.5000    0.0000    0.0000 C   0  0  0  0  0  0  0  0  0  0  0  0
    0.7500   -1.2990    0.0000 C   0  0  0  0  0  0  0  0  0  0  0  0
   -0.7500   -1.2990    0.0000 C   0  0  0  0  0  0  0  0  0  0  0  0
   -1.5000    0.0000    0.0000 C   0  0  0  0  0  0  0  0  0  0  0  0
   -0.7500    1.2990    0.0000 C   0  0  0  0  0  0  0  0  0  0  0  0
   -1.5000    2.5981    0.0000 C   0  0  0  0  0  0  0  0  0  0  0  0
    0.7500    1.2990    0.0000 C   0  0  0  0  0  0  0  0  0  0  0  0
  1  2  1  0
  2  3  2  3
  3  4  1  0
  3  5  1  0
  5  6  2  0
  6  7  1  0
  7  8  2  0
  8  9  1  0
  9 10  1  0
  9 11  2  0
 11  5  1  0
M  END
>  <Title>  (1303) 
idABWEgen6

$$$$

     RDKit          2D

  8  8  0  0  0  0  0  0  0  0999 V2000
    3.0000    0.0000    0.0000 C   0  0  0  0  0  0  0  0  0  0  0  0
    1.5000    0.0000    0.0000 C   0  0  0  0  0  0  0  0  0  0  0  0
    0.7500   -1.2990    0.0000 C   0  0  0  0  0  0  0  0  0  0  0  0
   -0.7500   -1.2990    0.0000 C   0  0  0  0  0  0  0  0  0  0  0  0
   -1.5000    0.0000    0.0000 C   0  0  0  0  0  0  0  0  0  0  0  0
   -3.0000    0.0000    0.0000 C   0  0  0  0  0  0  0  0  0  0  0  0
   -0.7500    1.2990    0.0000 C   0  0  0  0  0  0  0  0  0  0  0  0
    0.7500    1.2990    0.0000 C   0  0  0  0  0  0  0  0  0  0  0  0
  1  2  1  0
  2  3  2  0
  3  4  1  0
  4  5  2  0
  5  6  1  0
  5  7  1  0
  7  8  1  0
  8  2  1  0
M  END
>  <Title>  (1304) 
idABWFgen6

$$$$

     RDKit          2D

 30 32  0  0  0  0  0  0  0  0999 V2000
    5.0260    1.2990    0.0000 C   0  0  0  0  0  0  0  0  0  0  0  0
    3.5260    1.2990    0.0000 C   0  0  0  0  0  0  0  0  0  0  0  0
    2.7760    2.5981    0.0000 O   0  0  0  0  0  0  0  0  0  0  0  0
    2.7760    0.0000    0.0000 C   0  0  0  0  0  0  0  0  0  0  0  0
    3.5260   -1.2990    0.0000 O   0  0  0  0  0  0  0  0  0  0  0  0
    1.2760    0.0000    0.0000 N   0  0  0  0  0  0  0  0  0  0  0  0
    0.3943    1.2135    0.0000 C   0  0  0  0  0  0  0  0  0  0  0  0
   -1.0323    0.7500    0.0000 C   0  0  0  0  0  0  0  0  0  0  0  0
   -1.0323   -0.7500    0.0000 C   0  0  0  0  0  0  0  0  0  0  0  0
   -2.4995   -1.0619    0.0000 C   0  0  0  0  0  0  0  0  0  0  0  0
   -2.4210    0.4361    0.0000 C   0  0  0  0  0  0  0  0  0  0  0  0
   -3.4247    1.5508    0.0000 C   0  0  0  0  0  0  0  0  0  0  0  0
   -2.7789    2.9047    0.0000 C   0  0  0  0  0  0  0  0  0  0  0  0
   -4.9226    1.6293    0.0000 C   0  0  0  0  0  0  0  0  0  0  0  0
   -6.0374    0.6256    0.0000 C   0  0  0  0  0  0  0  0  0  0  0  0
   -7.5046    0.3137    0.0000 C   0  0  0  0  0  0  0  0  0  0  0  0
   -6.7183    1.9621    0.0000 C   0  0  0  0  0  0  0  0  0  0  0  0
   -6.1159   -0.8723    0.0000 C   0  0  0  0  0  0  0  0  0  0  0  0
   -7.5298   -1.3731    0.0000 O   0  0  0  0  0  0  0  0  0  0  0  0
   -5.1122   -1.9871    0.0000 O   0  0  0  0  0  0  0  0  0  0  0  0
   -3.6142   -2.0656    0.0000 C   0  0  0  0  0  0  0  0  0  0  0  0
   -4.0778   -3.4921    0.0000 C   0  0  0  0  0  0  0  0  0  0  0  0
   -3.7659   -4.9594    0.0000 C   0  0  0  0  0  0  0  0  0  0  0  0
   -2.7622   -6.0741    0.0000 C   0  0  0  0  0  0  0  0  0  0  0  0
   -1.3356   -6.5376    0.0000 C   0  0  0  0  0  0  0  0  0  0  0  0
    0.1316   -6.2257    0.0000 C   0  0  0  0  0  0  0  0  0  0  0  0
    1.2463   -5.2220    0.0000 C   0  0  0  0  0  0  0  0  0  0  0  0
    1.7099   -3.7955    0.0000 C   0  0  0  0  0  0  0  0  0  0  0  0
    1.3980   -2.3282    0.0000 C   0  0  0  0  0  0  0  0  0  0  0  0
    0.3943   -1.2135    0.0000 C   0  0  0  0  0  0  0  0  0  0  0  0
  1  2  1  0
  2  3  2  0
  2  4  1  0
  4  5  2  0
  4  6  1  0
  6  7  1  0
  7  8  1  0
  8  9  1  0
  9 10  1  0
 10 11  2  0
 11 12  1  0
 12 13  1  0
 12 14  2  0
 14 15  1  0
 15 16  1  0
 15 17  1  0
 15 18  1  0
 18 19  2  0
 18 20  1  0
 20 21  1  0
 21 22  2  0
 22 23  1  0
 23 24  2  0
 24 25  1  0
 25 26  2  0
 26 27  1  0
 27 28  2  0
 28 29  1  0
 29 30  2  0
 30  6  1  0
 30  9  1  0
 21 10  1  0
M  END
>  <Title>  (1305) 
idABWGgen6

$$$$

     RDKit          2D

 24 25  0  0  0  0  0  0  0  0999 V2000
    4.6339    0.0000    0.0000 C   0  0  0  0  0  0  0  0  0  0  0  0
    3.1339    0.0000    0.0000 C   0  0  0  0  0  0  0  0  0  0  0  0
    2.7750    1.4564    0.0000 C   0  0  0  0  0  0  0  0  0  0  0  0
    1.7803    2.5792    0.0000 C   0  0  0  0  0  0  0  0  0  0  0  0
    0.3778    3.1111    0.0000 C   0  0  0  0  0  0  0  0  0  0  0  0
   -1.1113    2.9303    0.0000 C   0  0  0  0  0  0  0  0  0  0  0  0
   -2.3458    2.0782    0.0000 C   0  0  0  0  0  0  0  0  0  0  0  0
   -3.0429    0.7500    0.0000 C   0  0  0  0  0  0  0  0  0  0  0  0
   -3.0429   -0.7500    0.0000 C   0  0  0  0  0  0  0  0  0  0  0  0
   -2.3458   -2.0782    0.0000 C   0  0  0  0  0  0  0  0  0  0  0  0
   -1.1113   -2.9303    0.0000 C   0  0  0  0  0  0  0  0  0  0  0  0
    0.3778   -3.1111    0.0000 C   0  0  0  0  0  0  0  0  0  0  0  0
    1.7803   -2.5792    0.0000 C   0  0  0  0  0  0  0  0  0  0  0  0
    2.7750   -1.4564    0.0000 C   0  0  0  0  0  0  0  0  0  0  0  0
    4.1031   -2.1535    0.0000 C   0  0  0  0  0  0  0  0  0  0  0  0
    4.1635   -3.6523    0.0000 C   0  0  0  0  0  0  0  0  0  0  0  0
    5.4917   -4.3494    0.0000 C   0  0  0  0  0  0  0  0  0  0  0  0
    6.7595   -3.5477    0.0000 O   0  0  0  0  0  0  0  0  0  0  0  0
    5.5521   -5.8481    0.0000 C   0  0  0  0  0  0  0  0  0  0  0  0
    6.8002   -6.6802    0.0000 C   0  0  0  0  0  0  0  0  0  0  0  0
    6.3945   -8.1243    0.0000 C   0  0  0  0  0  0  0  0  0  0  0  0
    4.8957   -8.1847    0.0000 C   0  0  0  0  0  0  0  0  0  0  0  0
    4.0636   -9.4328    0.0000 O   0  0  0  0  0  0  0  0  0  0  0  0
    4.3751   -6.7780    0.0000 N   0  0  0  0  0  0  0  0  0  0  0  0
  1  2  1  0
  2  3  1  0
  3  4  1  0
  4  5  1  0
  5  6  1  0
  6  7  1  0
  7  8  1  0
  8  9  1  0
  9 10  1  0
 10 11  1  0
 11 12  1  0
 12 13  1  0
 13 14  1  0
 14 15  1  0
 15 16  1  0
 16 17  1  0
 17 18  2  0
 17 19  1  0
 19 20  1  0
 20 21  1  0
 21 22  1  0
 22 23  2  0
 22 24  1  0
 14  2  1  0
 24 19  1  0
M  END
>  <Title>  (1306) 
idABWHgen6

$$$$

     RDKit          2D

 20 21  0  0  0  0  0  0  0  0999 V2000
    0.7500   -6.4952    0.0000 C   0  0  0  0  0  0  0  0  0  0  0  0
    1.5000   -5.1962    0.0000 C   0  0  0  0  0  0  0  0  0  0  0  0
    3.0000   -5.1962    0.0000 O   0  0  0  0  0  0  0  0  0  0  0  0
    0.7500   -3.8971    0.0000 C   0  0  0  0  0  0  0  0  0  0  0  0
    1.5000   -2.5981    0.0000 C   0  0  0  0  0  0  0  0  0  0  0  0
    0.7500   -1.2990    0.0000 C   0  0  0  0  0  0  0  0  0  0  0  0
    1.5000    0.0000    0.0000 C   0  0  0  0  0  0  0  0  0  0  0  0
    0.7500    1.2990    0.0000 C   0  0  0  0  0  0  0  0  0  0  0  0
   -0.7500    1.2990    0.0000 C   0  0  0  0  0  0  0  0  0  0  0  0
   -1.5000    0.0000    0.0000 C   0  0  0  0  0  0  0  0  0  0  0  0
   -0.7500   -1.2990    0.0000 C   0  0  0  0  0  0  0  0  0  0  0  0
   -0.7500   -3.8971    0.0000 N   0  0  0  0  0  0  0  0  0  0  0  0
   -1.5000   -5.1962    0.0000 C   0  0  0  0  0  0  0  0  0  0  0  0
   -0.7500   -6.4952    0.0000 O   0  0  0  0  0  0  0  0  0  0  0  0
   -3.0000   -5.1962    0.0000 C   0  0  0  0  0  0  0  0  0  0  0  0
   -3.8817   -6.4097    0.0000 C   0  0  0  0  0  0  0  0  0  0  0  0
   -5.3083   -5.9462    0.0000 C   0  0  0  0  0  0  0  0  0  0  0  0
   -5.3083   -4.4462    0.0000 C   0  0  0  0  0  0  0  0  0  0  0  0
   -6.5218   -3.5645    0.0000 O   0  0  0  0  0  0  0  0  0  0  0  0
   -3.8817   -3.9826    0.0000 O   0  0  0  0  0  0  0  0  0  0  0  0
  1  2  1  0
  2  3  2  0
  2  4  1  0
  4  5  1  0
  5  6  1  0
  6  7  2  0
  7  8  1  0
  8  9  2  0
  9 10  1  0
 10 11  2  0
  4 12  1  0
 12 13  1  0
 13 14  2  0
 13 15  1  0
 15 16  1  0
 16 17  1  0
 17 18  1  0
 18 19  2  0
 18 20  1  0
 11  6  1  0
 20 15  1  0
M  END
>  <Title>  (1307) 
idABWIgen6

$$$$

     RDKit          2D

 20 22  0  0  0  0  0  0  0  0999 V2000
   -2.6401   -3.1891    0.0000 C   0  0  0  0  0  0  0  0  0  0  0  0
   -1.2135   -2.7256    0.0000 C   0  0  0  0  0  0  0  0  0  0  0  0
   -0.0000   -3.6073    0.0000 C   0  0  0  0  0  0  0  0  0  0  0  0
    1.2135   -2.7256    0.0000 C   0  0  0  0  0  0  0  0  0  0  0  0
    2.6401   -3.1891    0.0000 C   0  0  0  0  0  0  0  0  0  0  0  0
    3.7548   -2.1855    0.0000 O   0  0  0  0  0  0  0  0  0  0  0  0
    2.9520   -4.6564    0.0000 N   0  0  0  0  0  0  0  0  0  0  0  0
    4.3786   -5.1199    0.0000 C   0  0  0  0  0  0  0  0  0  0  0  0
    4.6904   -6.5871    0.0000 N   0  0  0  0  0  0  0  0  0  0  0  0
    6.1170   -7.0506    0.0000 N   0  0  0  0  0  0  0  0  0  0  0  0
    7.2317   -6.0469    0.0000 N   0  0  0  0  0  0  0  0  0  0  0  0
    6.9199   -4.5797    0.0000 N   0  0  0  0  0  0  0  0  0  0  0  0
    5.4933   -4.1162    0.0000 N   0  0  0  0  0  0  0  0  0  0  0  0
    0.7500   -1.2990    0.0000 C   0  0  0  0  0  0  0  0  0  0  0  0
    1.5000    0.0000    0.0000 C   0  0  0  0  0  0  0  0  0  0  0  0
    0.7500    1.2990    0.0000 C   0  0  0  0  0  0  0  0  0  0  0  0
   -0.7500    1.2990    0.0000 C   0  0  0  0  0  0  0  0  0  0  0  0
   -1.5000    2.5981    0.0000 O   0  0  0  0  0  0  0  0  0  0  0  0
   -1.5000    0.0000    0.0000 C   0  0  0  0  0  0  0  0  0  0  0  0
   -0.7500   -1.2990    0.0000 C   0  0  0  0  0  0  0  0  0  0  0  0
  1  2  1  0
  2  3  2  0
  3  4  1  0
  4  5  1  0
  5  6  2  0
  5  7  1  0
  7  8  1  0
  8  9  2  0
  9 10  1  0
 10 11  2  0
 11 12  1  0
 12 13  2  0
  4 14  1  0
 14 15  2  0
 15 16  1  0
 16 17  2  0
 17 18  1  0
 17 19  1  0
 19 20  2  0
 20  2  1  0
 13  8  1  0
 20 14  1  0
M  END
>  <Title>  (1308) 
idABWJgen6

$$$$

     RDKit          2D

 22 24  0  0  0  0  0  0  0  0999 V2000
   -0.7500   -3.8971    0.0000 O   0  0  0  0  0  0  0  0  0  0  0  0
    0.7500   -3.8971    0.0000 C   0  0  0  0  0  0  0  0  0  0  0  0
    1.5000   -2.5981    0.0000 N   0  0  0  0  0  0  0  0  0  0  0  0
    0.7500   -1.2990    0.0000 C   0  0  0  0  0  0  0  0  0  0  0  0
    1.5000    0.0000    0.0000 C   0  0  0  0  0  0  0  0  0  0  0  0
    0.7500    1.2990    0.0000 C   0  0  0  0  0  0  0  0  0  0  0  0
   -0.7500    1.2990    0.0000 C   0  0  0  0  0  0  0  0  0  0  0  0
   -1.5000    2.5981    0.0000 O   0  0  0  0  0  0  0  0  0  0  0  0
   -1.5000    0.0000    0.0000 C   0  0  0  0  0  0  0  0  0  0  0  0
   -0.7500   -1.2990    0.0000 C   0  0  0  0  0  0  0  0  0  0  0  0
    1.5000   -5.1962    0.0000 N   0  0  0  0  0  0  0  0  0  0  0  0
    2.9918   -5.3529    0.0000 C   0  0  0  0  0  0  0  0  0  0  0  0
    3.3037   -6.8202    0.0000 C   0  0  0  0  0  0  0  0  0  0  0  0
    2.0046   -7.5702    0.0000 C   0  0  0  0  0  0  0  0  0  0  0  0
    1.8478   -9.0619    0.0000 C   0  0  0  0  0  0  0  0  0  0  0  0
    0.4775   -9.6721    0.0000 C   0  0  0  0  0  0  0  0  0  0  0  0
    0.3207  -11.1638    0.0000 C   0  0  0  0  0  0  0  0  0  0  0  0
    1.5342  -12.0455    0.0000 C   0  0  0  0  0  0  0  0  0  0  0  0
    2.9046  -11.4354    0.0000 C   0  0  0  0  0  0  0  0  0  0  0  0
    3.0613   -9.9436    0.0000 C   0  0  0  0  0  0  0  0  0  0  0  0
    0.8899   -6.5665    0.0000 C   0  0  0  0  0  0  0  0  0  0  0  0
   -0.5773   -6.8783    0.0000 O   0  0  0  0  0  0  0  0  0  0  0  0
  1  2  2  0
  2  3  1  0
  3  4  1  0
  4  5  2  0
  5  6  1  0
  6  7  2  0
  7  8  1  0
  7  9  1  0
  9 10  2  0
  2 11  1  0
 11 12  1  0
 12 13  1  0
 13 14  1  0
 14 15  1  0
 15 16  2  0
 16 17  1  0
 17 18  2  0
 18 19  1  0
 19 20  2  0
 14 21  1  0
 21 22  2  0
 10  4  1  0
 21 11  1  0
 20 15  1  0
M  END
>  <Title>  (1309) 
idABWKgen6

$$$$

     RDKit          2D

  6  6  0  0  0  0  0  0  0  0999 V2000
    1.5000    0.0000    0.0000 C   0  0  0  0  0  0  0  0  0  0  0  0
    0.7500   -1.2990    0.0000 C   0  0  0  0  0  0  0  0  0  0  0  0
   -0.7500   -1.2990    0.0000 C   0  0  0  0  0  0  0  0  0  0  0  0
   -1.5000    0.0000    0.0000 C   0  0  0  0  0  0  0  0  0  0  0  0
   -0.7500    1.2990    0.0000 C   0  0  0  0  0  0  0  0  0  0  0  0
    0.7500    1.2990    0.0000 C   0  0  0  0  0  0  0  0  0  0  0  0
  1  2  2  0
  2  3  1  0
  3  4  1  0
  4  5  1  0
  5  6  1  0
  6  1  1  0
M  END
>  <Title>  (1310) 
idABWLgen6

$$$$

     RDKit          2D

 43 47  0  0  0  0  0  0  0  0999 V2000
    5.6205   -5.8840    0.0000 C   0  0  0  0  0  0  0  0  0  0  0  0
    4.8705   -4.5850    0.0000 C   0  0  0  0  0  0  0  0  0  0  0  0
    3.3705   -4.5850    0.0000 C   0  0  0  0  0  0  0  0  0  0  0  0
    3.0367   -3.1226    0.0000 C   0  0  0  0  0  0  0  0  0  0  0  0
    4.3881   -2.4718    0.0000 O   0  0  0  0  0  0  0  0  0  0  0  0
    2.1015   -1.9499    0.0000 N   0  0  0  0  0  0  0  0  0  0  0  0
    0.7500   -1.2990    0.0000 C   0  0  0  0  0  0  0  0  0  0  0  0
    1.5000    0.0000    0.0000 C   0  0  0  0  0  0  0  0  0  0  0  0
    0.7500    1.2990    0.0000 C   0  0  0  0  0  0  0  0  0  0  0  0
   -0.7500    1.2990    0.0000 C   0  0  0  0  0  0  0  0  0  0  0  0
   -1.5000    0.0000    0.0000 C   0  0  0  0  0  0  0  0  0  0  0  0
   -0.7500   -1.2990    0.0000 C   0  0  0  0  0  0  0  0  0  0  0  0
   -2.1015   -1.9499    0.0000 C   0  0  0  0  0  0  0  0  0  0  0  0
   -3.0367   -3.1226    0.0000 C   0  0  0  0  0  0  0  0  0  0  0  0
   -3.3705   -4.5850    0.0000 C   0  0  0  0  0  0  0  0  0  0  0  0
   -3.0367   -6.0474    0.0000 C   0  0  0  0  0  0  0  0  0  0  0  0
   -4.3881   -6.6982    0.0000 C   0  0  0  0  0  0  0  0  0  0  0  0
   -5.6275   -5.8532    0.0000 C   0  0  0  0  0  0  0  0  0  0  0  0
   -6.9790   -6.5041    0.0000 C   0  0  0  0  0  0  0  0  0  0  0  0
   -7.0910   -7.9999    0.0000 C   0  0  0  0  0  0  0  0  0  0  0  0
   -5.8517   -8.8449    0.0000 C   0  0  0  0  0  0  0  0  0  0  0  0
   -4.5002   -8.1940    0.0000 C   0  0  0  0  0  0  0  0  0  0  0  0
   -2.1015   -7.2201    0.0000 C   0  0  0  0  0  0  0  0  0  0  0  0
   -3.0367   -8.3929    0.0000 O   0  0  0  0  0  0  0  0  0  0  0  0
   -0.7500   -7.8710    0.0000 O   0  0  0  0  0  0  0  0  0  0  0  0
    0.7500   -7.8710    0.0000 C   0  0  0  0  0  0  0  0  0  0  0  0
    1.0546   -6.3945    0.0000 C   0  0  0  0  0  0  0  0  0  0  0  0
    1.3190   -5.2358    0.0000 C   0  0  0  0  0  0  0  0  0  0  0  0
    1.0546   -4.0772    0.0000 C   0  0  0  0  0  0  0  0  0  0  0  0
    0.3136   -3.1480    0.0000 C   0  0  0  0  0  0  0  0  0  0  0  0
   -0.7572   -2.6323    0.0000 C   0  0  0  0  0  0  0  0  0  0  0  0
   -0.2677   -0.4875    0.0000 O   0  0  0  0  0  0  0  0  0  0  0  0
    2.1015   -7.2201    0.0000 N   0  0  0  0  0  0  0  0  0  0  0  0
    3.0367   -8.3929    0.0000 C   0  0  0  0  0  0  0  0  0  0  0  0
    2.4887   -9.7892    0.0000 C   0  0  0  0  0  0  0  0  0  0  0  0
    3.4239  -10.9619    0.0000 C   0  0  0  0  0  0  0  0  0  0  0  0
    3.2560  -12.4525    0.0000 C   0  0  0  0  0  0  0  0  0  0  0  0
    2.0832  -13.3877    0.0000 O   0  0  0  0  0  0  0  0  0  0  0  0
    4.7465  -12.6205    0.0000 O   0  0  0  0  0  0  0  0  0  0  0  0
    4.9145  -11.1299    0.0000 C   0  0  0  0  0  0  0  0  0  0  0  0
    6.0872  -10.1947    0.0000 O   0  0  0  0  0  0  0  0  0  0  0  0
    3.0367   -6.0474    0.0000 C   0  0  0  0  0  0  0  0  0  0  0  0
    4.3881   -6.6982    0.0000 O   0  0  0  0  0  0  0  0  0  0  0  0
  1  2  1  0
  2  3  1  0
  3  4  1  0
  4  5  2  0
  4  6  1  0
  6  7  1  0
  7  8  2  0
  8  9  1  0
  9 10  2  0
 10 11  1  0
 11 12  2  0
 12 13  1  0
 13 14  2  0
 14 15  1  0
 15 16  2  0
 16 17  1  0
 17 18  2  0
 18 19  1  0
 19 20  2  0
 20 21  1  0
 21 22  2  0
 16 23  1  0
 23 24  2  0
 23 25  1  0
 25 26  1  0
 26 27  2  0
 27 28  1  0
 28 29  2  0
 29 30  1  0
 30 31  2  0
 31 32  1  0
 26 33  1  0
 33 34  1  0
 34 35  1  0
 35 36  1  0
 36 37  1  0
 37 38  2  0
 37 39  1  0
 39 40  1  0
 40 41  2  0
 33 42  1  0
 42 43  2  0
 42  3  1  0
 12  7  1  0
 31 13  1  0
 40 36  1  0
 22 17  1  0
M  END
>  <Title>  (1311) 
idABWMgen6

$$$$

     RDKit          2D

  8  9  0  0  0  0  0  0  0  0999 V2000
   -0.0000   -4.0981    0.0000 O   0  0  0  0  0  0  0  0  0  0  0  0
   -0.0000   -2.5981    0.0000 C   0  0  0  0  0  0  0  0  0  0  0  0
    0.7500   -1.2990    0.0000 C   0  0  0  0  0  0  0  0  0  0  0  0
    1.5000    0.0000    0.0000 C   0  0  0  0  0  0  0  0  0  0  0  0
    0.7500    1.2990    0.0000 C   0  0  0  0  0  0  0  0  0  0  0  0
   -0.7500    1.2990    0.0000 C   0  0  0  0  0  0  0  0  0  0  0  0
   -1.5000    0.0000    0.0000 C   0  0  0  0  0  0  0  0  0  0  0  0
   -0.7500   -1.2990    0.0000 C   0  0  0  0  0  0  0  0  0  0  0  0
  1  2  1  0
  2  3  1  0
  3  4  2  0
  4  5  1  0
  5  6  2  0
  6  7  1  0
  7  8  2  0
  8  2  1  0
  8  3  1  0
M  END
>  <Title>  (1312) 
idABWNgen6

$$$$

     RDKit          2D

 14 14  0  0  0  0  0  0  0  0999 V2000
    5.0260   -1.2990    0.0000 C   0  0  0  0  0  0  0  0  0  0  0  0
    3.5260   -1.2990    0.0000 C   0  0  0  0  0  0  0  0  0  0  0  0
    2.7760   -2.5981    0.0000 O   0  0  0  0  0  0  0  0  0  0  0  0
    2.7760    0.0000    0.0000 C   0  0  0  0  0  0  0  0  0  0  0  0
    3.5260    1.2990    0.0000 O   0  0  0  0  0  0  0  0  0  0  0  0
    1.2760    0.0000    0.0000 C   0  0  0  0  0  0  0  0  0  0  0  0
    0.3943    1.2135    0.0000 C   0  0  0  0  0  0  0  0  0  0  0  0
   -1.0323    0.7500    0.0000 C   0  0  0  0  0  0  0  0  0  0  0  0
   -1.0323   -0.7500    0.0000 C   0  0  0  0  0  0  0  0  0  0  0  0
   -2.2458   -1.6317    0.0000 C   0  0  0  0  0  0  0  0  0  0  0  0
   -2.0890   -3.1235    0.0000 O   0  0  0  0  0  0  0  0  0  0  0  0
   -3.6161   -1.0216    0.0000 O   0  0  0  0  0  0  0  0  0  0  0  0
    0.3943   -1.2135    0.0000 C   0  0  0  0  0  0  0  0  0  0  0  0
    0.8578   -2.6401    0.0000 O   0  0  0  0  0  0  0  0  0  0  0  0
  1  2  1  0
  2  3  2  0
  2  4  1  0
  4  5  2  0
  4  6  1  0
  6  7  1  0
  7  8  1  0
  8  9  1  0
  9 10  1  0
 10 11  2  0
 10 12  1  0
  9 13  1  0
 13 14  2  0
 13  6  1  0
M  END
>  <Title>  (1313) 
idABWOgen6

$$$$

     RDKit          2D

 38 43  0  0  0  0  0  0  0  0999 V2000
    3.1097   -7.2078    0.0000 C   0  0  0  0  0  0  0  0  0  0  0  0
    2.0490   -6.1471    0.0000 C   0  0  0  0  0  0  0  0  0  0  0  0
    2.7990   -4.8481    0.0000 C   0  0  0  0  0  0  0  0  0  0  0  0
    2.7990   -3.3481    0.0000 C   0  0  0  0  0  0  0  0  0  0  0  0
    2.0490   -2.0490    0.0000 C   0  0  0  0  0  0  0  0  0  0  0  0
    3.1097   -0.9884    0.0000 C   0  0  0  0  0  0  0  0  0  0  0  0
    2.7215    0.4605    0.0000 O   0  0  0  0  0  0  0  0  0  0  0  0
    4.5586   -1.3766    0.0000 N   0  0  0  0  0  0  0  0  0  0  0  0
    5.6192   -0.3159    0.0000 C   0  0  0  0  0  0  0  0  0  0  0  0
    7.0681   -0.7042    0.0000 N   0  0  0  0  0  0  0  0  0  0  0  0
    8.1288    0.3565    0.0000 N   0  0  0  0  0  0  0  0  0  0  0  0
    7.7406    1.8054    0.0000 N   0  0  0  0  0  0  0  0  0  0  0  0
    6.2917    2.1936    0.0000 N   0  0  0  0  0  0  0  0  0  0  0  0
    5.2310    1.1329    0.0000 N   0  0  0  0  0  0  0  0  0  0  0  0
    0.7500   -1.2990    0.0000 C   0  0  0  0  0  0  0  0  0  0  0  0
    1.5000    0.0000    0.0000 C   0  0  0  0  0  0  0  0  0  0  0  0
    0.7500    1.2990    0.0000 C   0  0  0  0  0  0  0  0  0  0  0  0
   -0.7500    1.2990    0.0000 C   0  0  0  0  0  0  0  0  0  0  0  0
   -1.5000    0.0000    0.0000 C   0  0  0  0  0  0  0  0  0  0  0  0
   -0.7500   -1.2990    0.0000 C   0  0  0  0  0  0  0  0  0  0  0  0
   -2.0490   -2.0490    0.0000 C   0  0  0  0  0  0  0  0  0  0  0  0
   -2.7990   -0.7500    0.0000 C   0  0  0  0  0  0  0  0  0  0  0  0
   -4.2990   -0.7500    0.0000 C   0  0  0  0  0  0  0  0  0  0  0  0
   -5.0490   -2.0490    0.0000 C   0  0  0  0  0  0  0  0  0  0  0  0
   -4.2990   -3.3481    0.0000 C   0  0  0  0  0  0  0  0  0  0  0  0
   -2.7990   -3.3481    0.0000 C   0  0  0  0  0  0  0  0  0  0  0  0
   -2.7990   -4.8481    0.0000 C   0  0  0  0  0  0  0  0  0  0  0  0
   -4.2990   -4.8481    0.0000 C   0  0  0  0  0  0  0  0  0  0  0  0
   -5.0490   -6.1471    0.0000 C   0  0  0  0  0  0  0  0  0  0  0  0
   -4.2990   -7.4462    0.0000 C   0  0  0  0  0  0  0  0  0  0  0  0
   -2.7990   -7.4462    0.0000 C   0  0  0  0  0  0  0  0  0  0  0  0
   -2.0490   -6.1471    0.0000 C   0  0  0  0  0  0  0  0  0  0  0  0
   -0.7500   -6.8971    0.0000 C   0  0  0  0  0  0  0  0  0  0  0  0
   -1.5000   -8.1962    0.0000 C   0  0  0  0  0  0  0  0  0  0  0  0
   -0.7500   -9.4952    0.0000 C   0  0  0  0  0  0  0  0  0  0  0  0
    0.7500   -9.4952    0.0000 C   0  0  0  0  0  0  0  0  0  0  0  0
    1.5000   -8.1962    0.0000 C   0  0  0  0  0  0  0  0  0  0  0  0
    0.7500   -6.8971    0.0000 C   0  0  0  0  0  0  0  0  0  0  0  0
  1  2  1  0
  2  3  1  0
  3  4  1  0
  4  5  1  0
  5  6  1  0
  6  7  2  0
  6  8  1  0
  8  9  1  0
  9 10  2  0
 10 11  1  0
 11 12  2  0
 12 13  1  0
 13 14  2  0
  5 15  1  0
 15 16  2  0
 16 17  1  0
 17 18  2  0
 18 19  1  0
 19 20  2  0
 20 21  1  0
 21 22  2  0
 22 23  1  0
 23 24  2  0
 24 25  1  0
 25 26  2  0
 26 27  1  0
 27 28  2  0
 28 29  1  0
 29 30  2  0
 30 31  1  0
 31 32  2  0
 32 33  1  0
 33 34  2  0
 34 35  1  0
 35 36  2  0
 36 37  1  0
 37 38  2  0
 38  2  1  0
 14  9  1  0
 20 15  1  0
 26 21  1  0
 32 27  1  0
 38 33  1  0
M  END
>  <Title>  (1314) 
idABWPgen6

$$$$

     RDKit          2D

 29 32  0  0  0  0  0  0  0  0999 V2000
   -0.7500   -3.8971    0.0000 O   0  0  0  0  0  0  0  0  0  0  0  0
    0.7500   -3.8971    0.0000 C   0  0  0  0  0  0  0  0  0  0  0  0
    1.5000   -2.5981    0.0000 N   0  0  0  0  0  0  0  0  0  0  0  0
    0.7500   -1.2990    0.0000 C   0  0  0  0  0  0  0  0  0  0  0  0
    1.5000    0.0000    0.0000 N   0  0  0  0  0  0  0  0  0  0  0  0
    0.7500    1.2990    0.0000 N   0  0  0  0  0  0  0  0  0  0  0  0
   -0.7500    1.2990    0.0000 N   0  0  0  0  0  0  0  0  0  0  0  0
   -1.5000    0.0000    0.0000 N   0  0  0  0  0  0  0  0  0  0  0  0
   -0.7500   -1.2990    0.0000 N   0  0  0  0  0  0  0  0  0  0  0  0
    1.5000   -5.1962    0.0000 C   0  0  0  0  0  0  0  0  0  0  0  0
    2.9918   -5.3529    0.0000 C   0  0  0  0  0  0  0  0  0  0  0  0
    3.3037   -6.8202    0.0000 C   0  0  0  0  0  0  0  0  0  0  0  0
    2.0046   -7.5702    0.0000 C   0  0  0  0  0  0  0  0  0  0  0  0
    1.8478   -9.0619    0.0000 N   0  0  0  0  0  0  0  0  0  0  0  0
    0.4775   -9.6721    0.0000 C   0  0  0  0  0  0  0  0  0  0  0  0
    0.3207  -11.1638    0.0000 C   0  0  0  0  0  0  0  0  0  0  0  0
    1.5342  -12.0455    0.0000 N   0  0  0  0  0  0  0  0  0  0  0  0
    1.3774  -13.5373    0.0000 C   0  0  0  0  0  0  0  0  0  0  0  0
    2.5910  -14.4190    0.0000 O   0  0  0  0  0  0  0  0  0  0  0  0
    0.0071  -14.1474    0.0000 N   0  0  0  0  0  0  0  0  0  0  0  0
   -0.1497  -15.6392    0.0000 C   0  0  0  0  0  0  0  0  0  0  0  0
   -1.5200  -16.2493    0.0000 C   0  0  0  0  0  0  0  0  0  0  0  0
   -1.6768  -17.7411    0.0000 C   0  0  0  0  0  0  0  0  0  0  0  0
   -0.4633  -18.6228    0.0000 C   0  0  0  0  0  0  0  0  0  0  0  0
    0.9071  -18.0126    0.0000 C   0  0  0  0  0  0  0  0  0  0  0  0
    1.0639  -16.5209    0.0000 C   0  0  0  0  0  0  0  0  0  0  0  0
    2.9046  -11.4354    0.0000 C   0  0  0  0  0  0  0  0  0  0  0  0
    3.0613   -9.9436    0.0000 C   0  0  0  0  0  0  0  0  0  0  0  0
    0.8899   -6.5665    0.0000 C   0  0  0  0  0  0  0  0  0  0  0  0
  1  2  2  0
  2  3  1  0
  3  4  1  0
  4  5  2  0
  5  6  1  0
  6  7  2  0
  7  8  1  0
  8  9  2  0
  2 10  1  0
 10 11  1  0
 11 12  1  0
 12 13  1  0
 13 14  1  0
 14 15  1  0
 15 16  1  0
 16 17  1  0
 17 18  1  0
 18 19  2  0
 18 20  1  0
 20 21  1  0
 21 22  2  0
 22 23  1  0
 23 24  2  0
 24 25  1  0
 25 26  2  0
 17 27  1  0
 27 28  1  0
 13 29  1  0
  9  4  1  0
 29 10  1  0
 28 14  1  0
 26 21  1  0
M  END
>  <Title>  (1315) 
idABWQgen6

$$$$

     RDKit          2D

 33 36  0  0  0  0  0  0  0  0999 V2000
    2.2939    7.0249    0.0000 C   0  0  0  0  0  0  0  0  0  0  0  0
    1.2902    5.9102    0.0000 C   0  0  0  0  0  0  0  0  0  0  0  0
   -0.1771    6.2221    0.0000 O   0  0  0  0  0  0  0  0  0  0  0  0
    1.7537    4.4836    0.0000 C   0  0  0  0  0  0  0  0  0  0  0  0
    0.7500    3.3689    0.0000 O   0  0  0  0  0  0  0  0  0  0  0  0
    1.2135    1.9423    0.0000 C   0  0  0  0  0  0  0  0  0  0  0  0
    2.7135    1.9423    0.0000 N   0  0  0  0  0  0  0  0  0  0  0  0
    3.9271    1.0607    0.0000 C   0  0  0  0  0  0  0  0  0  0  0  0
    5.1406    1.9423    0.0000 C   0  0  0  0  0  0  0  0  0  0  0  0
    4.3906   -0.3659    0.0000 C   0  0  0  0  0  0  0  0  0  0  0  0
    3.9271   -1.7925    0.0000 C   0  0  0  0  0  0  0  0  0  0  0  0
    2.7135   -2.6742    0.0000 C   0  0  0  0  0  0  0  0  0  0  0  0
    3.1771   -4.1008    0.0000 N   0  0  0  0  0  0  0  0  0  0  0  0
    4.6036   -4.5643    0.0000 C   0  0  0  0  0  0  0  0  0  0  0  0
    4.6036   -6.0643    0.0000 C   0  0  0  0  0  0  0  0  0  0  0  0
    3.1771   -6.5278    0.0000 N   0  0  0  0  0  0  0  0  0  0  0  0
    2.7135   -7.9544    0.0000 C   0  0  0  0  0  0  0  0  0  0  0  0
    3.7172   -9.0691    0.0000 O   0  0  0  0  0  0  0  0  0  0  0  0
    1.2463   -8.2663    0.0000 O   0  0  0  0  0  0  0  0  0  0  0  0
    0.7828   -9.6929    0.0000 C   0  0  0  0  0  0  0  0  0  0  0  0
   -0.6844  -10.0047    0.0000 C   0  0  0  0  0  0  0  0  0  0  0  0
   -1.1480  -11.4313    0.0000 C   0  0  0  0  0  0  0  0  0  0  0  0
   -0.1443  -12.5460    0.0000 C   0  0  0  0  0  0  0  0  0  0  0  0
   -0.6078  -13.9726    0.0000 C   0  0  0  0  0  0  0  0  0  0  0  0
   -1.0713  -15.3992    0.0000 N   0  0  0  0  0  0  0  0  0  0  0  0
    1.3229  -12.2342    0.0000 C   0  0  0  0  0  0  0  0  0  0  0  0
    1.7865  -10.8076    0.0000 C   0  0  0  0  0  0  0  0  0  0  0  0
    2.2954   -5.3143    0.0000 C   0  0  0  0  0  0  0  0  0  0  0  0
    1.2135   -2.6742    0.0000 C   0  0  0  0  0  0  0  0  0  0  0  0
   -0.0000   -1.0607    0.0000 C   0  0  0  0  0  0  0  0  0  0  0  0
    1.0607    0.0000    0.0000 C   0  0  0  0  0  0  0  0  0  0  0  0
    0.0000    1.0607    0.0000 C   0  0  0  0  0  0  0  0  0  0  0  0
   -1.0607    0.0000    0.0000 C   0  0  0  0  0  0  0  0  0  0  0  0
  1  2  1  0
  2  3  2  0
  2  4  1  0
  4  5  1  0
  5  6  1  0
  6  7  1  0
  7  8  1  0
  8  9  1  0
  8 10  1  0
 10 11  2  0
 11 12  1  0
 12 13  1  0
 13 14  1  0
 14 15  1  0
 15 16  1  0
 16 17  1  0
 17 18  2  0
 17 19  1  0
 19 20  1  0
 20 21  2  0
 21 22  1  0
 22 23  2  0
 23 24  1  0
 24 25  3  0
 23 26  1  0
 26 27  2  0
 16 28  1  0
 12 29  1  0
 29 30  1  0
 30 31  1  0
 31 32  1  0
 32 33  1  0
 32  6  1  0
 28 13  1  0
 33 30  1  0
 27 20  1  0
M  END
>  <Title>  (1316) 
idABWRgen6

$$$$

     RDKit          2D

 16 17  0  0  0  0  0  0  0  0999 V2000
    5.7098   -1.2990    0.0000 C   0  0  0  0  0  0  0  0  0  0  0  0
    4.2098   -1.2990    0.0000 N   0  0  0  0  0  0  0  0  0  0  0  0
    3.4598   -2.5981    0.0000 C   0  0  0  0  0  0  0  0  0  0  0  0
    3.4598   -0.0000    0.0000 C   0  0  0  0  0  0  0  0  0  0  0  0
    4.2098    1.2990    0.0000 O   0  0  0  0  0  0  0  0  0  0  0  0
    1.9598    0.0000    0.0000 C   0  0  0  0  0  0  0  0  0  0  0  0
    1.3858   -1.3858    0.0000 C   0  0  0  0  0  0  0  0  0  0  0  0
   -0.0000   -1.9598    0.0000 C   0  0  0  0  0  0  0  0  0  0  0  0
   -1.3858   -1.3858    0.0000 C   0  0  0  0  0  0  0  0  0  0  0  0
   -1.9598    0.0000    0.0000 C   0  0  0  0  0  0  0  0  0  0  0  0
   -1.3858    1.3858    0.0000 C   0  0  0  0  0  0  0  0  0  0  0  0
   -1.9598    2.7716    0.0000 C   0  0  0  0  0  0  0  0  0  0  0  0
   -3.3457    3.3457    0.0000 O   0  0  0  0  0  0  0  0  0  0  0  0
   -0.5740    3.3457    0.0000 O   0  0  0  0  0  0  0  0  0  0  0  0
    0.0000    1.9598    0.0000 C   0  0  0  0  0  0  0  0  0  0  0  0
    1.3858    1.3858    0.0000 C   0  0  0  0  0  0  0  0  0  0  0  0
  1  2  1  0
  2  3  1  0
  2  4  1  0
  4  5  2  0
  4  6  1  0
  6  7  2  0
  7  8  1  0
  8  9  2  0
  9 10  1  0
 10 11  2  0
 11 12  1  0
 12 13  2  0
 12 14  1  0
 14 15  1  0
 15 16  2  0
 16  6  1  0
 15 11  1  0
M  END
>  <Title>  (1317) 
idABWSgen6

$$$$

     RDKit          2D

 10 10  0  0  0  0  0  0  0  0999 V2000
    5.2500   -1.2990    0.0000 C   0  0  0  0  0  0  0  0  0  0  0  0
    3.7500   -1.2990    0.0000 C   0  0  0  0  0  0  0  0  0  0  0  0
    3.0000   -2.5981    0.0000 O   0  0  0  0  0  0  0  0  0  0  0  0
    3.0000    0.0000    0.0000 C   0  0  0  0  0  0  0  0  0  0  0  0
    1.5000    0.0000    0.0000 C   0  0  0  0  0  0  0  0  0  0  0  0
    0.7500   -1.2990    0.0000 C   0  0  0  0  0  0  0  0  0  0  0  0
   -0.7500   -1.2990    0.0000 C   0  0  0  0  0  0  0  0  0  0  0  0
   -1.5000    0.0000    0.0000 C   0  0  0  0  0  0  0  0  0  0  0  0
   -0.7500    1.2990    0.0000 C   0  0  0  0  0  0  0  0  0  0  0  0
    0.7500    1.2990    0.0000 C   0  0  0  0  0  0  0  0  0  0  0  0
  1  2  1  0
  2  3  2  0
  2  4  1  0
  4  5  1  0
  5  6  2  0
  6  7  1  0
  7  8  2  0
  8  9  1  0
  9 10  2  0
 10  5  1  0
M  END
>  <Title>  (1318) 
idABWTgen6

$$$$

     RDKit          2D

 29 31  0  0  0  0  0  0  0  0999 V2000
    3.7500   -9.0933    0.0000 C   0  0  0  0  0  0  0  0  0  0  0  0
    3.0000   -7.7942    0.0000 C   0  0  0  0  0  0  0  0  0  0  0  0
    3.7500   -6.4952    0.0000 O   0  0  0  0  0  0  0  0  0  0  0  0
    1.5000   -7.7942    0.0000 C   0  0  0  0  0  0  0  0  0  0  0  0
    0.7500   -6.4952    0.0000 N   0  0  0  0  0  0  0  0  0  0  0  0
    1.5000   -5.1962    0.0000 C   0  0  0  0  0  0  0  0  0  0  0  0
    3.0000   -5.1962    0.0000 O   0  0  0  0  0  0  0  0  0  0  0  0
    0.7500   -3.8971    0.0000 C   0  0  0  0  0  0  0  0  0  0  0  0
    1.5000   -2.5981    0.0000 C   0  0  0  0  0  0  0  0  0  0  0  0
    0.7500   -1.2990    0.0000 C   0  0  0  0  0  0  0  0  0  0  0  0
    1.5000    0.0000    0.0000 C   0  0  0  0  0  0  0  0  0  0  0  0
    0.7500    1.2990    0.0000 C   0  0  0  0  0  0  0  0  0  0  0  0
   -0.7500    1.2990    0.0000 C   0  0  0  0  0  0  0  0  0  0  0  0
   -1.5000    0.0000    0.0000 C   0  0  0  0  0  0  0  0  0  0  0  0
   -0.7500   -1.2990    0.0000 C   0  0  0  0  0  0  0  0  0  0  0  0
   -0.7500   -3.8971    0.0000 N   0  0  0  0  0  0  0  0  0  0  0  0
   -1.5000   -5.1962    0.0000 C   0  0  0  0  0  0  0  0  0  0  0  0
   -0.7500   -6.4952    0.0000 O   0  0  0  0  0  0  0  0  0  0  0  0
   -3.0000   -5.1962    0.0000 C   0  0  0  0  0  0  0  0  0  0  0  0
   -3.8817   -6.4097    0.0000 C   0  0  0  0  0  0  0  0  0  0  0  0
   -5.3083   -5.9462    0.0000 C   0  0  0  0  0  0  0  0  0  0  0  0
   -5.3083   -4.4462    0.0000 C   0  0  0  0  0  0  0  0  0  0  0  0
   -3.8817   -3.9826    0.0000 C   0  0  0  0  0  0  0  0  0  0  0  0
    0.7500   -9.0933    0.0000 C   0  0  0  0  0  0  0  0  0  0  0  0
   -0.7500   -9.0933    0.0000 C   0  0  0  0  0  0  0  0  0  0  0  0
   -1.5000  -10.3923    0.0000 C   0  0  0  0  0  0  0  0  0  0  0  0
   -0.7500  -11.6913    0.0000 C   0  0  0  0  0  0  0  0  0  0  0  0
    0.7500  -11.6913    0.0000 C   0  0  0  0  0  0  0  0  0  0  0  0
    1.5000  -10.3923    0.0000 C   0  0  0  0  0  0  0  0  0  0  0  0
  1  2  1  0
  2  3  2  0
  2  4  1  0
  4  5  1  0
  5  6  1  0
  6  7  2  0
  6  8  1  0
  8  9  1  0
  9 10  1  0
 10 11  2  0
 11 12  1  0
 12 13  2  0
 13 14  1  0
 14 15  2  0
  8 16  1  0
 16 17  1  0
 17 18  2  0
 17 19  1  0
 19 20  2  0
 20 21  1  0
 21 22  2  0
 22 23  1  0
  4 24  1  0
 24 25  2  0
 25 26  1  0
 26 27  2  0
 27 28  1  0
 28 29  2  0
 15 10  1  0
 23 19  1  0
 29 24  1  0
M  END
>  <Title>  (1319) 
idABWUgen6

$$$$

     RDKit          2D

 10 10  0  0  0  0  0  0  0  0999 V2000
    3.0000    0.0000    0.0000 C   0  0  0  0  0  0  0  0  0  0  0  0
    1.5000    0.0000    0.0000 C   0  0  0  0  0  0  0  0  0  0  0  0
    0.7500   -1.2990    0.0000 C   0  0  0  0  0  0  0  0  0  0  0  0
   -0.7500   -1.2990    0.0000 C   0  0  0  0  0  0  0  0  0  0  0  0
   -1.5000    0.0000    0.0000 C   0  0  0  0  0  0  0  0  0  0  0  0
   -0.7500    1.2990    0.0000 C   0  0  0  0  0  0  0  0  0  0  0  0
    0.7500    1.2990    0.0000 C   0  0  0  0  0  0  0  0  0  0  0  0
    1.5000    2.5981    0.0000 C   0  0  0  0  0  0  0  0  0  0  0  0
    3.0000    2.5981    0.0000 O   0  0  0  0  0  0  0  0  0  0  0  0
    0.7500    3.8971    0.0000 O   0  0  0  0  0  0  0  0  0  0  0  0
  1  2  1  0
  2  3  1  0
  3  4  1  0
  4  5  1  0
  5  6  1  0
  6  7  1  0
  7  8  1  0
  8  9  2  0
  8 10  1  0
  7  2  1  0
M  END
>  <Title>  (1320) 
idABWVgen6

$$$$

     RDKit          2D

 22 23  0  0  0  0  0  0  0  0999 V2000
    4.2558    4.6904    0.0000 C   0  0  0  0  0  0  0  0  0  0  0  0
    2.7886    4.3786    0.0000 C   0  0  0  0  0  0  0  0  0  0  0  0
    1.7849    5.4933    0.0000 O   0  0  0  0  0  0  0  0  0  0  0  0
    2.3250    2.9520    0.0000 C   0  0  0  0  0  0  0  0  0  0  0  0
    0.8578    2.6401    0.0000 C   0  0  0  0  0  0  0  0  0  0  0  0
    0.3943    1.2135    0.0000 C   0  0  0  0  0  0  0  0  0  0  0  0
    1.2760    0.0000    0.0000 C   0  0  0  0  0  0  0  0  0  0  0  0
    0.3943   -1.2135    0.0000 C   0  0  0  0  0  0  0  0  0  0  0  0
   -1.0323   -0.7500    0.0000 C   0  0  0  0  0  0  0  0  0  0  0  0
   -1.0323    0.7500    0.0000 C   0  0  0  0  0  0  0  0  0  0  0  0
    3.3287    1.8373    0.0000 N   0  0  0  0  0  0  0  0  0  0  0  0
    4.7960    2.1491    0.0000 C   0  0  0  0  0  0  0  0  0  0  0  0
    5.2595    3.5757    0.0000 O   0  0  0  0  0  0  0  0  0  0  0  0
    5.7997    1.0344    0.0000 C   0  0  0  0  0  0  0  0  0  0  0  0
    7.2914    1.1912    0.0000 C   0  0  0  0  0  0  0  0  0  0  0  0
    7.9015   -0.1791    0.0000 C   0  0  0  0  0  0  0  0  0  0  0  0
    6.7868   -1.1828    0.0000 C   0  0  0  0  0  0  0  0  0  0  0  0
    6.9436   -2.6746    0.0000 C   0  0  0  0  0  0  0  0  0  0  0  0
    8.3139   -3.2847    0.0000 O   0  0  0  0  0  0  0  0  0  0  0  0
    5.7301   -3.5563    0.0000 O   0  0  0  0  0  0  0  0  0  0  0  0
    5.4878   -0.4328    0.0000 C   0  0  0  0  0  0  0  0  0  0  0  0
    4.1175   -1.0429    0.0000 O   0  0  0  0  0  0  0  0  0  0  0  0
  1  2  1  0
  2  3  2  0
  2  4  1  0
  4  5  1  0
  5  6  1  0
  6  7  2  0
  7  8  1  0
  8  9  2  0
  9 10  1  0
  4 11  1  0
 11 12  1  0
 12 13  2  0
 12 14  1  0
 14 15  1  0
 15 16  1  0
 16 17  1  0
 17 18  1  0
 18 19  2  0
 18 20  1  0
 17 21  1  0
 21 22  2  0
 10  6  1  0
 21 14  1  0
M  END
>  <Title>  (1321) 
idABWWgen6

$$$$

     RDKit          2D

 10 10  0  0  0  0  0  0  0  0999 V2000
    3.6929    0.0000    0.0000 C   0  0  0  0  0  0  0  0  0  0  0  0
    2.1929    0.0000    0.0000 C   0  0  0  0  0  0  0  0  0  0  0  0
    1.6798    1.4095    0.0000 C   0  0  0  0  0  0  0  0  0  0  0  0
    0.3808    2.1595    0.0000 C   0  0  0  0  0  0  0  0  0  0  0  0
   -1.0964    1.8991    0.0000 C   0  0  0  0  0  0  0  0  0  0  0  0
   -2.0606    0.7500    0.0000 C   0  0  0  0  0  0  0  0  0  0  0  0
   -2.0606   -0.7500    0.0000 C   0  0  0  0  0  0  0  0  0  0  0  0
   -1.0964   -1.8991    0.0000 C   0  0  0  0  0  0  0  0  0  0  0  0
    0.3808   -2.1595    0.0000 C   0  0  0  0  0  0  0  0  0  0  0  0
    1.6798   -1.4095    0.0000 C   0  0  0  0  0  0  0  0  0  0  0  0
  1  2  1  0
  2  3  1  0
  3  4  1  0
  4  5  2  0
  5  6  1  0
  6  7  1  0
  7  8  1  0
  8  9  1  0
  9 10  1  0
 10  2  1  0
M  END
>  <Title>  (1322) 
idABWXgen6

$$$$

     RDKit          2D

 11 11  0  0  0  0  0  0  0  0999 V2000
    2.6621    0.0000    0.0000 C   0  0  0  0  0  0  0  0  0  0  0  0
    2.2395    1.4392    0.0000 C   0  0  0  0  0  0  0  0  0  0  0  0
    1.1059    2.4215    0.0000 C   0  0  0  0  0  0  0  0  0  0  0  0
   -0.3789    2.6350    0.0000 C   0  0  0  0  0  0  0  0  0  0  0  0
   -1.7433    2.0119    0.0000 C   0  0  0  0  0  0  0  0  0  0  0  0
   -2.5543    0.7500    0.0000 C   0  0  0  0  0  0  0  0  0  0  0  0
   -2.5543   -0.7500    0.0000 N   0  0  0  0  0  0  0  0  0  0  0  0
   -1.7433   -2.0119    0.0000 C   0  0  0  0  0  0  0  0  0  0  0  0
   -0.3789   -2.6350    0.0000 C   0  0  0  0  0  0  0  0  0  0  0  0
    1.1059   -2.4215    0.0000 C   0  0  0  0  0  0  0  0  0  0  0  0
    2.2395   -1.4392    0.0000 C   0  0  0  0  0  0  0  0  0  0  0  0
  1  2  1  0
  2  3  1  0
  3  4  1  0
  4  5  1  0
  5  6  1  0
  6  7  1  0
  7  8  1  0
  8  9  1  0
  9 10  1  0
 10 11  1  0
 11  1  1  0
M  END
>  <Title>  (1323) 
idABWYgen6

$$$$

     RDKit          2D

 57 65  0  0  0  0  0  0  0  0999 V2000
   -3.7860   -5.5823    0.0000 C   0  0  0  0  0  0  0  0  0  0  0  0
   -2.4215   -4.9592    0.0000 C   0  0  0  0  0  0  0  0  0  0  0  0
   -1.4392   -6.0928    0.0000 C   0  0  0  0  0  0  0  0  0  0  0  0
   -0.0000   -6.5154    0.0000 C   0  0  0  0  0  0  0  0  0  0  0  0
    1.4392   -6.0928    0.0000 C   0  0  0  0  0  0  0  0  0  0  0  0
    1.7131   -7.5676    0.0000 C   0  0  0  0  0  0  0  0  0  0  0  0
    0.5032   -8.4542    0.0000 O   0  0  0  0  0  0  0  0  0  0  0  0
    3.0369   -8.2730    0.0000 N   0  0  0  0  0  0  0  0  0  0  0  0
    4.4138   -7.6778    0.0000 C   0  0  0  0  0  0  0  0  0  0  0  0
    5.6690   -8.4991    0.0000 N   0  0  0  0  0  0  0  0  0  0  0  0
    6.8379   -7.5591    0.0000 N   0  0  0  0  0  0  0  0  0  0  0  0
    6.3051   -6.1569    0.0000 N   0  0  0  0  0  0  0  0  0  0  0  0
    4.8069   -6.2303    0.0000 N   0  0  0  0  0  0  0  0  0  0  0  0
    3.9203   -5.0204    0.0000 N   0  0  0  0  0  0  0  0  0  0  0  0
    4.6257   -3.6966    0.0000 C   0  0  0  0  0  0  0  0  0  0  0  0
    6.1248   -3.6456    0.0000 C   0  0  0  0  0  0  0  0  0  0  0  0
    6.8302   -2.3218    0.0000 C   0  0  0  0  0  0  0  0  0  0  0  0
    8.2651   -1.8846    0.0000 C   0  0  0  0  0  0  0  0  0  0  0  0
    7.8278   -0.4497    0.0000 C   0  0  0  0  0  0  0  0  0  0  0  0
    6.3930   -0.8870    0.0000 N   0  0  0  0  0  0  0  0  0  0  0  0
    5.0692   -0.1815    0.0000 C   0  0  0  0  0  0  0  0  0  0  0  0
    5.0182    1.3176    0.0000 C   0  0  0  0  0  0  0  0  0  0  0  0
    3.6944    2.0230    0.0000 C   0  0  0  0  0  0  0  0  0  0  0  0
    2.4216    1.2293    0.0000 O   0  0  0  0  0  0  0  0  0  0  0  0
    3.6434    3.5221    0.0000 N   0  0  0  0  0  0  0  0  0  0  0  0
    2.3196    4.2275    0.0000 C   0  0  0  0  0  0  0  0  0  0  0  0
    2.2687    5.7267    0.0000 C   0  0  0  0  0  0  0  0  0  0  0  0
    0.9449    6.4321    0.0000 C   0  0  0  0  0  0  0  0  0  0  0  0
   -0.3279    5.6384    0.0000 C   0  0  0  0  0  0  0  0  0  0  0  0
   -0.2769    4.1392    0.0000 C   0  0  0  0  0  0  0  0  0  0  0  0
    1.0469    3.4338    0.0000 C   0  0  0  0  0  0  0  0  0  0  0  0
    2.4215   -4.9592    0.0000 C   0  0  0  0  0  0  0  0  0  0  0  0
    2.6350   -3.4744    0.0000 C   0  0  0  0  0  0  0  0  0  0  0  0
    4.1252   -3.3035    0.0000 C   0  0  0  0  0  0  0  0  0  0  0  0
    4.4231   -1.8333    0.0000 C   0  0  0  0  0  0  0  0  0  0  0  0
    3.1170   -1.0957    0.0000 C   0  0  0  0  0  0  0  0  0  0  0  0
    2.9460    0.3945    0.0000 O   0  0  0  0  0  0  0  0  0  0  0  0
    4.1511    1.2877    0.0000 C   0  0  0  0  0  0  0  0  0  0  0  0
    5.5271    0.6906    0.0000 O   0  0  0  0  0  0  0  0  0  0  0  0
    3.9801    2.7779    0.0000 N   0  0  0  0  0  0  0  0  0  0  0  0
    5.1852    3.6711    0.0000 C   0  0  0  0  0  0  0  0  0  0  0  0
    6.6689    3.4506    0.0000 N   0  0  0  0  0  0  0  0  0  0  0  0
    6.8894    4.9343    0.0000 N   0  0  0  0  0  0  0  0  0  0  0  0
    5.4057    5.1548    0.0000 N   0  0  0  0  0  0  0  0  0  0  0  0
    2.0119   -2.1100    0.0000 C   0  0  0  0  0  0  0  0  0  0  0  0
    0.7500   -1.2990    0.0000 C   0  0  0  0  0  0  0  0  0  0  0  0
    1.5000    0.0000    0.0000 C   0  0  0  0  0  0  0  0  0  0  0  0
    0.7500    1.2990    0.0000 C   0  0  0  0  0  0  0  0  0  0  0  0
   -0.7500    1.2990    0.0000 C   0  0  0  0  0  0  0  0  0  0  0  0
   -1.5000    0.0000    0.0000 C   0  0  0  0  0  0  0  0  0  0  0  0
   -0.7500   -1.2990    0.0000 C   0  0  0  0  0  0  0  0  0  0  0  0
   -2.0119   -2.1100    0.0000 C   0  0  0  0  0  0  0  0  0  0  0  0
   -2.8820   -0.8881    0.0000 C   0  0  0  0  0  0  0  0  0  0  0  0
   -4.3752   -1.0307    0.0000 C   0  0  0  0  0  0  0  0  0  0  0  0
   -4.9983   -2.3952    0.0000 C   0  0  0  0  0  0  0  0  0  0  0  0
   -4.1282   -3.6170    0.0000 C   0  0  0  0  0  0  0  0  0  0  0  0
   -2.6350   -3.4744    0.0000 C   0  0  0  0  0  0  0  0  0  0  0  0
  1  2  1  0
  2  3  1  0
  3  4  1  0
  4  5  1  0
  5  6  1  0
  6  7  2  0
  6  8  1  0
  8  9  1  0
  9 10  2  0
 10 11  1  0
 11 12  2  0
 12 13  1  0
 13 14  1  0
 14 15  1  0
 15 16  1  0
 16 17  1  0
 17 18  1  0
 18 19  1  0
 19 20  1  0
 20 21  1  0
 21 22  1  0
 22 23  1  0
 23 24  2  0
 23 25  1  0
 25 26  1  0
 26 27  2  0
 27 28  1  0
 28 29  2  0
 29 30  1  0
 30 31  2  0
 14 32  1  0
 32 33  1  0
 33 34  2  0
 34 35  1  0
 35 36  2  0
 36 37  1  0
 37 38  1  0
 38 39  2  0
 38 40  1  0
 40 41  1  0
 41 42  2  0
 42 43  1  0
 43 44  2  0
 36 45  1  0
 45 46  1  0
 46 47  2  0
 47 48  1  0
 48 49  2  0
 49 50  1  0
 50 51  2  0
 51 52  1  0
 52 53  2  0
 53 54  1  0
 54 55  2  0
 55 56  1  0
 56 57  2  0
 57  2  1  0
 32  5  1  0
 45 33  1  0
 51 46  1  0
 57 52  1  0
 13  9  1  0
 20 17  1  0
 31 26  1  0
 44 41  1  0
M  END
>  <Title>  (1324) 
idABWZgen6

$$$$

     RDKit          2D

 20 21  0  0  0  0  0  0  0  0999 V2000
   -5.0078   -8.4577    0.0000 C   0  0  0  0  0  0  0  0  0  0  0  0
   -3.6375   -7.8476    0.0000 C   0  0  0  0  0  0  0  0  0  0  0  0
   -3.4807   -6.3558    0.0000 O   0  0  0  0  0  0  0  0  0  0  0  0
   -2.4240   -8.7293    0.0000 C   0  0  0  0  0  0  0  0  0  0  0  0
   -2.5808  -10.2211    0.0000 O   0  0  0  0  0  0  0  0  0  0  0  0
   -1.0537   -8.1192    0.0000 C   0  0  0  0  0  0  0  0  0  0  0  0
    0.2454   -8.8692    0.0000 C   0  0  0  0  0  0  0  0  0  0  0  0
    1.3601   -7.8655    0.0000 C   0  0  0  0  0  0  0  0  0  0  0  0
    0.7500   -6.4952    0.0000 C   0  0  0  0  0  0  0  0  0  0  0  0
    1.5000   -5.1962    0.0000 O   0  0  0  0  0  0  0  0  0  0  0  0
    0.7500   -3.8971    0.0000 C   0  0  0  0  0  0  0  0  0  0  0  0
    1.5000   -2.5981    0.0000 C   0  0  0  0  0  0  0  0  0  0  0  0
    3.0000   -2.5981    0.0000 O   0  0  0  0  0  0  0  0  0  0  0  0
    0.7500   -1.2990    0.0000 C   0  0  0  0  0  0  0  0  0  0  0  0
    1.5000    0.0000    0.0000 C   0  0  0  0  0  0  0  0  0  0  0  0
    0.7500    1.2990    0.0000 N   0  0  0  0  0  0  0  0  0  0  0  0
   -0.7500    1.2990    0.0000 N   0  0  0  0  0  0  0  0  0  0  0  0
   -1.5000    0.0000    0.0000 N   0  0  0  0  0  0  0  0  0  0  0  0
   -0.7500   -1.2990    0.0000 N   0  0  0  0  0  0  0  0  0  0  0  0
   -0.7418   -6.6520    0.0000 C   0  0  0  0  0  0  0  0  0  0  0  0
  1  2  1  0
  2  3  2  0
  2  4  1  0
  4  5  2  0
  4  6  1  0
  6  7  2  0
  7  8  1  0
  8  9  2  0
  9 10  1  0
 10 11  1  0
 11 12  1  0
 12 13  2  0
 12 14  1  0
 14 15  2  0
 15 16  1  0
 16 17  2  0
 17 18  1  0
 18 19  2  0
  9 20  1  0
 20  6  1  0
 19 14  1  0
M  END
>  <Title>  (1325) 
idABXAgen6

$$$$

     RDKit          2D

 15 16  0  0  0  0  0  0  0  0999 V2000
    4.1621    0.0000    0.0000 C   0  0  0  0  0  0  0  0  0  0  0  0
    2.6621    0.0000    0.0000 C   0  0  0  0  0  0  0  0  0  0  0  0
    2.2395    1.4392    0.0000 C   0  0  0  0  0  0  0  0  0  0  0  0
    1.1059    2.4215    0.0000 C   0  0  0  0  0  0  0  0  0  0  0  0
   -0.3789    2.6350    0.0000 C   0  0  0  0  0  0  0  0  0  0  0  0
   -1.7433    2.0119    0.0000 C   0  0  0  0  0  0  0  0  0  0  0  0
   -3.0052    2.8228    0.0000 C   0  0  0  0  0  0  0  0  0  0  0  0
   -3.3240    4.2886    0.0000 O   0  0  0  0  0  0  0  0  0  0  0  0
   -3.8161    1.5610    0.0000 N   0  0  0  0  0  0  0  0  0  0  0  0
   -2.5543    0.7500    0.0000 C   0  0  0  0  0  0  0  0  0  0  0  0
   -2.5543   -0.7500    0.0000 N   0  0  0  0  0  0  0  0  0  0  0  0
   -1.7433   -2.0119    0.0000 N   0  0  0  0  0  0  0  0  0  0  0  0
   -0.3789   -2.6350    0.0000 N   0  0  0  0  0  0  0  0  0  0  0  0
    1.1059   -2.4215    0.0000 N   0  0  0  0  0  0  0  0  0  0  0  0
    2.2395   -1.4392    0.0000 N   0  0  0  0  0  0  0  0  0  0  0  0
  1  2  1  0
  2  3  2  0
  3  4  1  0
  4  5  2  0
  5  6  1  0
  6  7  1  0
  7  8  2  0
  7  9  1  0
  9 10  1  0
 10 11  2  0
 11 12  1  0
 12 13  2  0
 13 14  1  0
 14 15  2  0
 15  2  1  0
 10  6  1  0
M  END
>  <Title>  (1326) 
idABXBgen6

$$$$

     RDKit          2D

 10 10  0  0  0  0  0  0  0  0999 V2000
    5.7760   -2.5981    0.0000 C   0  0  0  0  0  0  0  0  0  0  0  0
    5.0260   -1.2990    0.0000 C   0  0  0  0  0  0  0  0  0  0  0  0
    5.7760    0.0000    0.0000 O   0  0  0  0  0  0  0  0  0  0  0  0
    3.5260   -1.2990    0.0000 O   0  0  0  0  0  0  0  0  0  0  0  0
    2.7760    0.0000    0.0000 C   0  0  0  0  0  0  0  0  0  0  0  0
    1.2760    0.0000    0.0000 C   0  0  0  0  0  0  0  0  0  0  0  0
    0.3943    1.2135    0.0000 C   0  0  0  0  0  0  0  0  0  0  0  0
   -1.0323    0.7500    0.0000 C   0  0  0  0  0  0  0  0  0  0  0  0
   -1.0323   -0.7500    0.0000 C   0  0  0  0  0  0  0  0  0  0  0  0
    0.3943   -1.2135    0.0000 C   0  0  0  0  0  0  0  0  0  0  0  0
  1  2  1  0
  2  3  2  0
  2  4  1  0
  4  5  1  0
  5  6  1  0
  6  7  2  0
  7  8  1  0
  8  9  2  0
  9 10  1  0
 10  6  1  0
M  END
>  <Title>  (1327) 
idABXCgen6

$$$$

     RDKit          2D

 11 11  0  0  0  0  0  0  0  0999 V2000
    5.2500   -1.2990    0.0000 C   0  0  0  0  0  0  0  0  0  0  0  0
    3.7500   -1.2990    0.0000 C   0  0  0  0  0  0  0  0  0  0  0  0
    3.0000   -2.5981    0.0000 O   0  0  0  0  0  0  0  0  0  0  0  0
    3.0000    0.0000    0.0000 O   0  0  0  0  0  0  0  0  0  0  0  0
    1.5000    0.0000    0.0000 C   0  0  0  0  0  0  0  0  0  0  0  0
    0.7500   -1.2990    0.0000 C   0  0  0  0  0  0  0  0  0  0  0  0
   -0.7500   -1.2990    0.0000 C   0  0  0  0  0  0  0  0  0  0  0  0
   -1.5000    0.0000    0.0000 C   0  0  0  0  0  0  0  0  0  0  0  0
   -3.0000    0.0000    0.0000 O   0  0  0  0  0  0  0  0  0  0  0  0
   -0.7500    1.2990    0.0000 C   0  0  0  0  0  0  0  0  0  0  0  0
    0.7500    1.2990    0.0000 C   0  0  0  0  0  0  0  0  0  0  0  0
  1  2  1  0
  2  3  2  0
  2  4  1  0
  4  5  1  0
  5  6  2  0
  6  7  1  0
  7  8  2  0
  8  9  1  0
  8 10  1  0
 10 11  2  0
 11  5  1  0
M  END
>  <Title>  (1328) 
idABXDgen6

$$$$

     RDKit          2D

 16 16  0  0  0  0  0  0  0  0999 V2000
    5.0260    2.7990    0.0000 C   0  0  0  0  0  0  0  0  0  0  0  0
    5.0260    1.2990    0.0000 C   0  0  0  0  0  0  0  0  0  0  0  0
    5.0260   -0.2010    0.0000 C   0  0  0  0  0  0  0  0  0  0  0  0
    6.5260    1.2990    0.0000 C   0  0  0  0  0  0  0  0  0  0  0  0
    3.5260    1.2990    0.0000 C   0  0  0  0  0  0  0  0  0  0  0  0
    2.7760    0.0000    0.0000 C   0  0  0  0  0  0  0  0  0  0  0  0
    3.5260   -1.2990    0.0000 O   0  0  0  0  0  0  0  0  0  0  0  0
    1.2760    0.0000    0.0000 N   0  0  0  0  0  0  0  0  0  0  0  0
    0.3943    1.2135    0.0000 C   0  0  0  0  0  0  0  0  0  0  0  0
   -1.0323    0.7500    0.0000 C   0  0  0  0  0  0  0  0  0  0  0  0
   -1.0323   -0.7500    0.0000 C   0  0  0  0  0  0  0  0  0  0  0  0
   -2.2458   -1.6317    0.0000 C   0  0  0  0  0  0  0  0  0  0  0  0
   -2.0890   -3.1235    0.0000 O   0  0  0  0  0  0  0  0  0  0  0  0
   -3.6161   -1.0216    0.0000 O   0  0  0  0  0  0  0  0  0  0  0  0
    0.3943   -1.2135    0.0000 C   0  0  0  0  0  0  0  0  0  0  0  0
    0.8578   -2.6401    0.0000 O   0  0  0  0  0  0  0  0  0  0  0  0
  1  2  1  0
  2  3  1  0
  2  4  1  0
  2  5  1  0
  5  6  1  0
  6  7  2  0
  6  8  1  0
  8  9  1  0
  9 10  1  0
 10 11  1  0
 11 12  1  0
 12 13  2  0
 12 14  1  0
 11 15  1  0
 15 16  2  0
 15  8  1  0
M  END
>  <Title>  (1329) 
idABXEgen6

$$$$

     RDKit          2D

 21 23  0  0  0  0  0  0  0  0999 V2000
    5.2500   -1.2990    0.0000 C   0  0  0  0  0  0  0  0  0  0  0  0
    3.7500   -1.2990    0.0000 C   0  0  0  0  0  0  0  0  0  0  0  0
    3.0000   -2.5981    0.0000 O   0  0  0  0  0  0  0  0  0  0  0  0
    3.0000    0.0000    0.0000 O   0  0  0  0  0  0  0  0  0  0  0  0
    1.5000    0.0000    0.0000 C   0  0  0  0  0  0  0  0  0  0  0  0
    0.7500   -1.2990    0.0000 C   0  0  0  0  0  0  0  0  0  0  0  0
   -0.7500   -1.2990    0.0000 C   0  0  0  0  0  0  0  0  0  0  0  0
   -1.5000    0.0000    0.0000 C   0  0  0  0  0  0  0  0  0  0  0  0
   -3.0000    0.0000    0.0000 N   0  0  0  0  0  0  0  0  0  0  0  0
   -3.8817   -1.2135    0.0000 C   0  0  0  0  0  0  0  0  0  0  0  0
   -5.3083   -0.7500    0.0000 C   0  0  0  0  0  0  0  0  0  0  0  0
   -5.3083    0.7500    0.0000 C   0  0  0  0  0  0  0  0  0  0  0  0
   -6.5218    1.6317    0.0000 C   0  0  0  0  0  0  0  0  0  0  0  0
   -6.3650    3.1235    0.0000 C   0  0  0  0  0  0  0  0  0  0  0  0
   -7.5785    4.0051    0.0000 C   0  0  0  0  0  0  0  0  0  0  0  0
   -8.9488    3.3950    0.0000 C   0  0  0  0  0  0  0  0  0  0  0  0
   -9.1056    1.9033    0.0000 C   0  0  0  0  0  0  0  0  0  0  0  0
   -7.8921    1.0216    0.0000 C   0  0  0  0  0  0  0  0  0  0  0  0
   -3.8817    1.2135    0.0000 C   0  0  0  0  0  0  0  0  0  0  0  0
   -0.7500    1.2990    0.0000 C   0  0  0  0  0  0  0  0  0  0  0  0
    0.7500    1.2990    0.0000 C   0  0  0  0  0  0  0  0  0  0  0  0
  1  2  1  0
  2  3  2  0
  2  4  1  0
  4  5  1  0
  5  6  2  0
  6  7  1  0
  7  8  2  0
  8  9  1  0
  9 10  1  0
 10 11  2  0
 11 12  1  0
 12 13  1  0
 13 14  2  0
 14 15  1  0
 15 16  2  0
 16 17  1  0
 17 18  2  0
 12 19  1  0
  8 20  1  0
 20 21  1  0
 21  5  1  0
 19  9  1  0
 18 13  1  0
M  END
>  <Title>  (1330) 
idABXFgen6

$$$$

     RDKit          2D

 42 42  0  0  0  0  0  0  0  0999 V2000
   11.2976   -0.0000    0.0000 O   0  0  0  0  0  0  0  0  0  0  0  0
    9.7976    0.0000    0.0000 C   0  0  0  0  0  0  0  0  0  0  0  0
    9.6828    1.4956    0.0000 C   0  0  0  0  0  0  0  0  0  0  0  0
    9.3410    2.9561    0.0000 C   0  0  0  0  0  0  0  0  0  0  0  0
    8.7803    4.3474    0.0000 C   0  0  0  0  0  0  0  0  0  0  0  0
    8.0138    5.6367    0.0000 C   0  0  0  0  0  0  0  0  0  0  0  0
    7.0594    6.7940    0.0000 C   0  0  0  0  0  0  0  0  0  0  0  0
    5.9396    7.7920    0.0000 C   0  0  0  0  0  0  0  0  0  0  0  0
    4.6805    8.6073    0.0000 C   0  0  0  0  0  0  0  0  0  0  0  0
    3.3118    9.2209    0.0000 C   0  0  0  0  0  0  0  0  0  0  0  0
    1.8654    9.6184    0.0000 C   0  0  0  0  0  0  0  0  0  0  0  0
    0.3753    9.7904    0.0000 C   0  0  0  0  0  0  0  0  0  0  0  0
   -1.1236    9.7330    0.0000 C   0  0  0  0  0  0  0  0  0  0  0  0
   -2.5962    9.4474    0.0000 C   0  0  0  0  0  0  0  0  0  0  0  0
   -4.0079    8.9404    0.0000 C   0  0  0  0  0  0  0  0  0  0  0  0
   -5.3257    8.2238    0.0000 C   0  0  0  0  0  0  0  0  0  0  0  0
   -6.5186    7.3144    0.0000 C   0  0  0  0  0  0  0  0  0  0  0  0
   -7.5588    6.2337    0.0000 C   0  0  0  0  0  0  0  0  0  0  0  0
   -8.4217    5.0068    0.0000 C   0  0  0  0  0  0  0  0  0  0  0  0
   -9.0873    3.6625    0.0000 C   0  0  0  0  0  0  0  0  0  0  0  0
   -9.5399    2.2324    0.0000 C   0  0  0  0  0  0  0  0  0  0  0  0
   -9.7689    0.7500    0.0000 C   0  0  0  0  0  0  0  0  0  0  0  0
   -9.7689   -0.7500    0.0000 C   0  0  0  0  0  0  0  0  0  0  0  0
   -9.5399   -2.2324    0.0000 C   0  0  0  0  0  0  0  0  0  0  0  0
   -9.0873   -3.6625    0.0000 C   0  0  0  0  0  0  0  0  0  0  0  0
   -8.4217   -5.0068    0.0000 C   0  0  0  0  0  0  0  0  0  0  0  0
   -7.5588   -6.2337    0.0000 C   0  0  0  0  0  0  0  0  0  0  0  0
   -6.5186   -7.3144    0.0000 C   0  0  0  0  0  0  0  0  0  0  0  0
   -5.3257   -8.2238    0.0000 C   0  0  0  0  0  0  0  0  0  0  0  0
   -4.0079   -8.9404    0.0000 C   0  0  0  0  0  0  0  0  0  0  0  0
   -2.5962   -9.4474    0.0000 C   0  0  0  0  0  0  0  0  0  0  0  0
   -1.1236   -9.7330    0.0000 C   0  0  0  0  0  0  0  0  0  0  0  0
    0.3753   -9.7904    0.0000 C   0  0  0  0  0  0  0  0  0  0  0  0
    1.8654   -9.6184    0.0000 C   0  0  0  0  0  0  0  0  0  0  0  0
    3.3118   -9.2209    0.0000 C   0  0  0  0  0  0  0  0  0  0  0  0
    4.6805   -8.6073    0.0000 C   0  0  0  0  0  0  0  0  0  0  0  0
    5.9396   -7.7920    0.0000 C   0  0  0  0  0  0  0  0  0  0  0  0
    7.0594   -6.7940    0.0000 C   0  0  0  0  0  0  0  0  0  0  0  0
    8.0138   -5.6367    0.0000 C   0  0  0  0  0  0  0  0  0  0  0  0
    8.7803   -4.3474    0.0000 C   0  0  0  0  0  0  0  0  0  0  0  0
    9.3410   -2.9561    0.0000 C   0  0  0  0  0  0  0  0  0  0  0  0
    9.6828   -1.4956    0.0000 C   0  0  0  0  0  0  0  0  0  0  0  0
  1  2  1  0
  2  3  1  0
  3  4  1  0
  4  5  1  0
  5  6  1  0
  6  7  1  0
  7  8  1  0
  8  9  1  0
  9 10  1  0
 10 11  1  0
 11 12  1  0
 12 13  1  0
 13 14  1  0
 14 15  1  0
 15 16  1  0
 16 17  1  0
 17 18  1  0
 18 19  1  0
 19 20  1  0
 20 21  1  0
 21 22  1  0
 22 23  1  0
 23 24  1  0
 24 25  1  0
 25 26  1  0
 26 27  1  0
 27 28  1  0
 28 29  1  0
 29 30  1  0
 30 31  1  0
 31 32  1  0
 32 33  1  0
 33 34  1  0
 34 35  1  0
 35 36  1  0
 36 37  1  0
 37 38  1  0
 38 39  1  0
 39 40  1  0
 40 41  1  0
 41 42  1  0
 42  2  1  0
M  END
>  <Title>  (1331) 
idABXGgen6

$$$$

     RDKit          2D

 36 40  0  0  0  0  0  0  0  0999 V2000
   -3.1476   -2.1380    0.0000 C   0  0  0  0  0  0  0  0  0  0  0  0
   -1.6852   -2.4718    0.0000 C   0  0  0  0  0  0  0  0  0  0  0  0
   -1.3515   -3.9342    0.0000 C   0  0  0  0  0  0  0  0  0  0  0  0
   -0.0000   -4.5850    0.0000 C   0  0  0  0  0  0  0  0  0  0  0  0
    1.3515   -3.9342    0.0000 C   0  0  0  0  0  0  0  0  0  0  0  0
    1.6852   -2.4718    0.0000 C   0  0  0  0  0  0  0  0  0  0  0  0
    3.1476   -2.1380    0.0000 C   0  0  0  0  0  0  0  0  0  0  0  0
    4.1679   -3.2376    0.0000 C   0  0  0  0  0  0  0  0  0  0  0  0
    3.7258   -4.6709    0.0000 O   0  0  0  0  0  0  0  0  0  0  0  0
    5.6303   -2.9038    0.0000 N   0  0  0  0  0  0  0  0  0  0  0  0
    6.6505   -4.0034    0.0000 C   0  0  0  0  0  0  0  0  0  0  0  0
    8.1129   -3.6696    0.0000 C   0  0  0  0  0  0  0  0  0  0  0  0
    8.5551   -2.2362    0.0000 C   0  0  0  0  0  0  0  0  0  0  0  0
    7.5348   -1.1367    0.0000 N   0  0  0  0  0  0  0  0  0  0  0  0
    7.9769    0.2967    0.0000 C   0  0  0  0  0  0  0  0  0  0  0  0
    6.9567    1.3963    0.0000 O   0  0  0  0  0  0  0  0  0  0  0  0
    9.4393    0.6305    0.0000 C   0  0  0  0  0  0  0  0  0  0  0  0
   10.4596   -0.4691    0.0000 C   0  0  0  0  0  0  0  0  0  0  0  0
   11.9220   -0.1353    0.0000 C   0  0  0  0  0  0  0  0  0  0  0  0
   12.3641    1.2980    0.0000 C   0  0  0  0  0  0  0  0  0  0  0  0
   11.3439    2.3976    0.0000 C   0  0  0  0  0  0  0  0  0  0  0  0
    9.8815    2.0638    0.0000 C   0  0  0  0  0  0  0  0  0  0  0  0
    6.0724   -1.4704    0.0000 C   0  0  0  0  0  0  0  0  0  0  0  0
    5.0522   -0.3709    0.0000 C   0  0  0  0  0  0  0  0  0  0  0  0
    5.4943    1.0625    0.0000 C   0  0  0  0  0  0  0  0  0  0  0  0
    4.4740    2.1621    0.0000 C   0  0  0  0  0  0  0  0  0  0  0  0
    3.0116    1.8283    0.0000 C   0  0  0  0  0  0  0  0  0  0  0  0
    2.5695    0.3949    0.0000 C   0  0  0  0  0  0  0  0  0  0  0  0
    3.5898   -0.7046    0.0000 C   0  0  0  0  0  0  0  0  0  0  0  0
    0.7500   -1.2990    0.0000 C   0  0  0  0  0  0  0  0  0  0  0  0
    1.5000    0.0000    0.0000 C   0  0  0  0  0  0  0  0  0  0  0  0
    0.7500    1.2990    0.0000 C   0  0  0  0  0  0  0  0  0  0  0  0
   -0.7500    1.2990    0.0000 C   0  0  0  0  0  0  0  0  0  0  0  0
   -1.5000    2.5981    0.0000 O   0  0  0  0  0  0  0  0  0  0  0  0
   -1.5000    0.0000    0.0000 C   0  0  0  0  0  0  0  0  0  0  0  0
   -0.7500   -1.2990    0.0000 C   0  0  0  0  0  0  0  0  0  0  0  0
  1  2  1  0
  2  3  2  0
  3  4  1  0
  4  5  2  0
  5  6  1  0
  6  7  1  0
  7  8  1  0
  8  9  2  0
  8 10  1  0
 10 11  1  0
 11 12  2  0
 12 13  1  0
 13 14  1  0
 14 15  1  0
 15 16  2  0
 15 17  1  0
 17 18  2  0
 18 19  1  0
 19 20  2  0
 20 21  1  0
 21 22  2  0
 14 23  1  0
 23 24  1  0
 24 25  2  0
 25 26  1  0
 26 27  2  0
 27 28  1  0
 28 29  2  0
  6 30  1  0
 30 31  2  0
 31 32  1  0
 32 33  2  0
 33 34  1  0
 33 35  1  0
 35 36  2  0
 36  2  1  0
 23 10  1  0
 29 24  1  0
 36 30  1  0
 22 17  1  0
M  END
>  <Title>  (1332) 
idABXHgen6

$$$$

     RDKit          2D

 27 30  0  0  0  0  0  0  0  0999 V2000
   -3.0000   -2.5981    0.0000 C   0  0  0  0  0  0  0  0  0  0  0  0
   -1.5000   -2.5981    0.0000 C   0  0  0  0  0  0  0  0  0  0  0  0
   -0.7500   -3.8971    0.0000 C   0  0  0  0  0  0  0  0  0  0  0  0
    0.7500   -3.8971    0.0000 C   0  0  0  0  0  0  0  0  0  0  0  0
    1.5000   -2.5981    0.0000 C   0  0  0  0  0  0  0  0  0  0  0  0
    3.0000   -2.5981    0.0000 C   0  0  0  0  0  0  0  0  0  0  0  0
    3.7500   -1.2990    0.0000 O   0  0  0  0  0  0  0  0  0  0  0  0
    3.7500   -3.8971    0.0000 N   0  0  0  0  0  0  0  0  0  0  0  0
    5.2418   -4.0539    0.0000 C   0  0  0  0  0  0  0  0  0  0  0  0
    5.5537   -5.5211    0.0000 C   0  0  0  0  0  0  0  0  0  0  0  0
    4.2546   -6.2711    0.0000 C   0  0  0  0  0  0  0  0  0  0  0  0
    4.0978   -7.7629    0.0000 C   0  0  0  0  0  0  0  0  0  0  0  0
    5.3113   -8.6446    0.0000 O   0  0  0  0  0  0  0  0  0  0  0  0
    2.7275   -8.3730    0.0000 N   0  0  0  0  0  0  0  0  0  0  0  0
    2.5707   -9.8648    0.0000 C   0  0  0  0  0  0  0  0  0  0  0  0
    1.2004  -10.4749    0.0000 N   0  0  0  0  0  0  0  0  0  0  0  0
    1.0436  -11.9667    0.0000 N   0  0  0  0  0  0  0  0  0  0  0  0
    2.2571  -12.8484    0.0000 N   0  0  0  0  0  0  0  0  0  0  0  0
    3.6274  -12.2383    0.0000 N   0  0  0  0  0  0  0  0  0  0  0  0
    3.7842  -10.7465    0.0000 N   0  0  0  0  0  0  0  0  0  0  0  0
    3.1399   -5.2674    0.0000 C   0  0  0  0  0  0  0  0  0  0  0  0
    0.7500   -1.2990    0.0000 C   0  0  0  0  0  0  0  0  0  0  0  0
    1.5000    0.0000    0.0000 C   0  0  0  0  0  0  0  0  0  0  0  0
    0.7500    1.2990    0.0000 C   0  0  0  0  0  0  0  0  0  0  0  0
   -0.7500    1.2990    0.0000 C   0  0  0  0  0  0  0  0  0  0  0  0
   -1.5000    0.0000    0.0000 C   0  0  0  0  0  0  0  0  0  0  0  0
   -0.7500   -1.2990    0.0000 C   0  0  0  0  0  0  0  0  0  0  0  0
  1  2  1  0
  2  3  1  0
  3  4  2  0
  4  5  1  0
  5  6  1  0
  6  7  2  0
  6  8  1  0
  8  9  1  0
  9 10  1  0
 10 11  1  0
 11 12  1  0
 12 13  2  0
 12 14  1  0
 14 15  1  0
 15 16  2  0
 16 17  1  0
 17 18  2  0
 18 19  1  0
 19 20  2  0
 11 21  1  0
  5 22  1  0
 22 23  2  0
 23 24  1  0
 24 25  2  0
 25 26  1  0
 26 27  2  0
 27  2  1  0
 21  8  1  0
 27 22  1  0
 20 15  1  0
M  END
>  <Title>  (1333) 
idABXIgen6

$$$$

     RDKit          2D

 40 45  0  0  0  0  0  0  0  0999 V2000
    0.7500   -6.4952    0.0000 C   0  0  0  0  0  0  0  0  0  0  0  0
    1.5000   -5.1962    0.0000 C   0  0  0  0  0  0  0  0  0  0  0  0
    3.0000   -5.1962    0.0000 O   0  0  0  0  0  0  0  0  0  0  0  0
    0.7500   -3.8971    0.0000 C   0  0  0  0  0  0  0  0  0  0  0  0
    1.5000   -2.5981    0.0000 C   0  0  0  0  0  0  0  0  0  0  0  0
    0.7500   -1.2990    0.0000 C   0  0  0  0  0  0  0  0  0  0  0  0
    1.5000    0.0000    0.0000 C   0  0  0  0  0  0  0  0  0  0  0  0
    0.7500    1.2990    0.0000 C   0  0  0  0  0  0  0  0  0  0  0  0
   -0.7500    1.2990    0.0000 C   0  0  0  0  0  0  0  0  0  0  0  0
   -1.5000    0.0000    0.0000 C   0  0  0  0  0  0  0  0  0  0  0  0
   -0.7500   -1.2990    0.0000 C   0  0  0  0  0  0  0  0  0  0  0  0
   -0.7500   -3.8971    0.0000 N   0  0  0  0  0  0  0  0  0  0  0  0
   -1.5000   -2.5981    0.0000 C   0  0  0  0  0  0  0  0  0  0  0  0
   -3.0000   -2.5981    0.0000 C   0  0  0  0  0  0  0  0  0  0  0  0
   -3.7500   -3.8971    0.0000 C   0  0  0  0  0  0  0  0  0  0  0  0
   -5.2500   -3.8971    0.0000 N   0  0  0  0  0  0  0  0  0  0  0  0
   -6.1317   -5.1106    0.0000 C   0  0  0  0  0  0  0  0  0  0  0  0
   -7.5583   -4.6471    0.0000 C   0  0  0  0  0  0  0  0  0  0  0  0
   -7.5583   -3.1471    0.0000 C   0  0  0  0  0  0  0  0  0  0  0  0
   -8.7718   -2.2654    0.0000 N   0  0  0  0  0  0  0  0  0  0  0  0
   -8.6150   -0.7737    0.0000 C   0  0  0  0  0  0  0  0  0  0  0  0
   -9.8285    0.1080    0.0000 C   0  0  0  0  0  0  0  0  0  0  0  0
  -11.1988   -0.5021    0.0000 C   0  0  0  0  0  0  0  0  0  0  0  0
  -12.4124    0.3796    0.0000 N   0  0  0  0  0  0  0  0  0  0  0  0
  -13.8389   -0.0839    0.0000 C   0  0  0  0  0  0  0  0  0  0  0  0
  -14.7206    1.1296    0.0000 C   0  0  0  0  0  0  0  0  0  0  0  0
  -13.8389    2.3431    0.0000 C   0  0  0  0  0  0  0  0  0  0  0  0
  -14.3025    3.7697    0.0000 C   0  0  0  0  0  0  0  0  0  0  0  0
  -13.2988    4.8844    0.0000 C   0  0  0  0  0  0  0  0  0  0  0  0
  -13.7623    6.3110    0.0000 C   0  0  0  0  0  0  0  0  0  0  0  0
  -15.2295    6.6229    0.0000 C   0  0  0  0  0  0  0  0  0  0  0  0
  -16.2332    5.5082    0.0000 C   0  0  0  0  0  0  0  0  0  0  0  0
  -15.7697    4.0816    0.0000 C   0  0  0  0  0  0  0  0  0  0  0  0
  -12.4124    1.8796    0.0000 C   0  0  0  0  0  0  0  0  0  0  0  0
  -11.3556   -1.9939    0.0000 C   0  0  0  0  0  0  0  0  0  0  0  0
  -10.1421   -2.8755    0.0000 C   0  0  0  0  0  0  0  0  0  0  0  0
   -6.1317   -2.6836    0.0000 C   0  0  0  0  0  0  0  0  0  0  0  0
   -5.6682   -1.2570    0.0000 O   0  0  0  0  0  0  0  0  0  0  0  0
   -3.0000   -5.1962    0.0000 C   0  0  0  0  0  0  0  0  0  0  0  0
   -1.5000   -5.1962    0.0000 C   0  0  0  0  0  0  0  0  0  0  0  0
  1  2  1  0
  2  3  2  0
  2  4  1  0
  4  5  1  0
  5  6  1  0
  6  7  2  0
  7  8  1  0
  8  9  2  0
  9 10  1  0
 10 11  2  0
  4 12  1  0
 12 13  1  0
 13 14  1  0
 14 15  1  0
 15 16  1  0
 16 17  1  0
 17 18  2  0
 18 19  1  0
 19 20  1  0
 20 21  1  0
 21 22  1  0
 22 23  1  0
 23 24  1  0
 24 25  1  0
 25 26  1  0
 26 27  1  0
 27 28  1  0
 28 29  2  0
 29 30  1  0
 30 31  2  0
 31 32  1  0
 32 33  2  0
 27 34  1  0
 23 35  1  0
 35 36  1  0
 19 37  1  0
 37 38  2  0
 15 39  1  0
 39 40  1  0
 11  6  1  0
 40 12  1  0
 37 16  1  0
 36 20  1  0
 34 24  1  0
 33 28  1  0
M  END
>  <Title>  (1334) 
idABXJgen6

$$$$

     RDKit          2D

 27 30  0  0  0  0  0  0  0  0999 V2000
   -0.4109   -7.4962    0.0000 C   0  0  0  0  0  0  0  0  0  0  0  0
   -1.3240   -6.3062    0.0000 O   0  0  0  0  0  0  0  0  0  0  0  0
   -0.7500   -4.9204    0.0000 C   0  0  0  0  0  0  0  0  0  0  0  0
    0.7500   -4.9204    0.0000 C   0  0  0  0  0  0  0  0  0  0  0  0
    1.8107   -3.8597    0.0000 C   0  0  0  0  0  0  0  0  0  0  0  0
    1.8107   -2.3597    0.0000 C   0  0  0  0  0  0  0  0  0  0  0  0
    3.1965   -1.7857    0.0000 C   0  0  0  0  0  0  0  0  0  0  0  0
    3.3923   -0.2985    0.0000 O   0  0  0  0  0  0  0  0  0  0  0  0
    4.3865   -2.6988    0.0000 N   0  0  0  0  0  0  0  0  0  0  0  0
    5.7723   -2.1248    0.0000 C   0  0  0  0  0  0  0  0  0  0  0  0
    6.9624   -3.0379    0.0000 N   0  0  0  0  0  0  0  0  0  0  0  0
    8.3482   -2.4639    0.0000 N   0  0  0  0  0  0  0  0  0  0  0  0
    8.5440   -0.9767    0.0000 N   0  0  0  0  0  0  0  0  0  0  0  0
    7.3539   -0.0636    0.0000 N   0  0  0  0  0  0  0  0  0  0  0  0
    5.9681   -0.6376    0.0000 N   0  0  0  0  0  0  0  0  0  0  0  0
    0.7500   -1.2990    0.0000 C   0  0  0  0  0  0  0  0  0  0  0  0
    1.5000    0.0000    0.0000 C   0  0  0  0  0  0  0  0  0  0  0  0
    0.7500    1.2990    0.0000 C   0  0  0  0  0  0  0  0  0  0  0  0
   -0.7500    1.2990    0.0000 C   0  0  0  0  0  0  0  0  0  0  0  0
   -1.5000    0.0000    0.0000 C   0  0  0  0  0  0  0  0  0  0  0  0
   -0.7500   -1.2990    0.0000 C   0  0  0  0  0  0  0  0  0  0  0  0
   -1.8107   -2.3597    0.0000 C   0  0  0  0  0  0  0  0  0  0  0  0
   -3.1097   -1.6097    0.0000 C   0  0  0  0  0  0  0  0  0  0  0  0
   -4.4087   -2.3597    0.0000 C   0  0  0  0  0  0  0  0  0  0  0  0
   -4.4087   -3.8597    0.0000 C   0  0  0  0  0  0  0  0  0  0  0  0
   -3.1097   -4.6097    0.0000 C   0  0  0  0  0  0  0  0  0  0  0  0
   -1.8107   -3.8597    0.0000 C   0  0  0  0  0  0  0  0  0  0  0  0
  1  2  1  0
  2  3  1  0
  3  4  2  0
  4  5  1  0
  5  6  2  0
  6  7  1  0
  7  8  2  0
  7  9  1  0
  9 10  1  0
 10 11  2  0
 11 12  1  0
 12 13  2  0
 13 14  1  0
 14 15  2  0
  6 16  1  0
 16 17  2  0
 17 18  1  0
 18 19  2  0
 19 20  1  0
 20 21  2  0
 21 22  1  0
 22 23  2  0
 23 24  1  0
 24 25  2  0
 25 26  1  0
 26 27  2  0
 27  3  1  0
 15 10  1  0
 21 16  1  0
 27 22  1  0
M  END
>  <Title>  (1335) 
idABXKgen6

$$$$

     RDKit          2D

 33 37  0  0  0  0  0  0  0  0999 V2000
   -1.8607   -7.5981    0.0000 C   0  0  0  0  0  0  0  0  0  0  0  0
   -2.3737   -6.1885    0.0000 O   0  0  0  0  0  0  0  0  0  0  0  0
   -1.4095   -5.0395    0.0000 C   0  0  0  0  0  0  0  0  0  0  0  0
   -0.0000   -5.5525    0.0000 C   0  0  0  0  0  0  0  0  0  0  0  0
    1.4095   -5.0395    0.0000 C   0  0  0  0  0  0  0  0  0  0  0  0
    2.1595   -3.7404    0.0000 C   0  0  0  0  0  0  0  0  0  0  0  0
    1.8991   -2.2632    0.0000 C   0  0  0  0  0  0  0  0  0  0  0  0
    3.1981   -1.5132    0.0000 C   0  0  0  0  0  0  0  0  0  0  0  0
    3.1981   -0.0132    0.0000 O   0  0  0  0  0  0  0  0  0  0  0  0
    4.4971   -2.2632    0.0000 N   0  0  0  0  0  0  0  0  0  0  0  0
    5.7962   -1.5132    0.0000 C   0  0  0  0  0  0  0  0  0  0  0  0
    5.9530   -0.0214    0.0000 N   0  0  0  0  0  0  0  0  0  0  0  0
    7.4202    0.2904    0.0000 N   0  0  0  0  0  0  0  0  0  0  0  0
    8.1702   -1.0086    0.0000 N   0  0  0  0  0  0  0  0  0  0  0  0
    7.1665   -2.1233    0.0000 N   0  0  0  0  0  0  0  0  0  0  0  0
    7.4784   -3.5905    0.0000 C   0  0  0  0  0  0  0  0  0  0  0  0
    6.3636   -4.5942    0.0000 C   0  0  0  0  0  0  0  0  0  0  0  0
    6.6755   -6.0615    0.0000 C   0  0  0  0  0  0  0  0  0  0  0  0
    8.1021   -6.5250    0.0000 C   0  0  0  0  0  0  0  0  0  0  0  0
    9.2168   -5.5213    0.0000 C   0  0  0  0  0  0  0  0  0  0  0  0
    8.9050   -4.0541    0.0000 C   0  0  0  0  0  0  0  0  0  0  0  0
    0.7500   -1.2990    0.0000 C   0  0  0  0  0  0  0  0  0  0  0  0
    1.5000    0.0000    0.0000 C   0  0  0  0  0  0  0  0  0  0  0  0
    0.7500    1.2990    0.0000 C   0  0  0  0  0  0  0  0  0  0  0  0
   -0.7500    1.2990    0.0000 C   0  0  0  0  0  0  0  0  0  0  0  0
   -1.5000    0.0000    0.0000 C   0  0  0  0  0  0  0  0  0  0  0  0
   -0.7500   -1.2990    0.0000 C   0  0  0  0  0  0  0  0  0  0  0  0
   -1.8991   -2.2632    0.0000 C   0  0  0  0  0  0  0  0  0  0  0  0
   -3.0481   -1.2990    0.0000 C   0  0  0  0  0  0  0  0  0  0  0  0
   -4.4577   -1.8121    0.0000 C   0  0  0  0  0  0  0  0  0  0  0  0
   -4.7181   -3.2893    0.0000 C   0  0  0  0  0  0  0  0  0  0  0  0
   -3.5691   -4.2535    0.0000 C   0  0  0  0  0  0  0  0  0  0  0  0
   -2.1595   -3.7404    0.0000 C   0  0  0  0  0  0  0  0  0  0  0  0
  1  2  1  0
  2  3  1  0
  3  4  2  0
  4  5  1  0
  5  6  2  0
  6  7  1  0
  7  8  1  0
  8  9  2  0
  8 10  1  0
 10 11  1  0
 11 12  2  0
 12 13  1  0
 13 14  2  0
 14 15  1  0
 15 16  1  0
 16 17  2  0
 17 18  1  0
 18 19  2  0
 19 20  1  0
 20 21  2  0
  7 22  1  0
 22 23  2  0
 23 24  1  0
 24 25  2  0
 25 26  1  0
 26 27  2  0
 27 28  1  0
 28 29  2  0
 29 30  1  0
 30 31  2  0
 31 32  1  0
 32 33  2  0
 33  3  1  0
 15 11  1  0
 21 16  1  0
 27 22  1  0
 33 28  1  0
M  END
>  <Title>  (1336) 
idABXLgen6

$$$$

     RDKit          2D

 19 21  0  0  0  0  0  0  0  0999 V2000
   -3.5736    1.2902    0.0000 C   0  0  0  0  0  0  0  0  0  0  0  0
   -2.1470    1.7537    0.0000 C   0  0  0  0  0  0  0  0  0  0  0  0
   -1.8351    3.2209    0.0000 C   0  0  0  0  0  0  0  0  0  0  0  0
   -0.4086    3.6844    0.0000 C   0  0  0  0  0  0  0  0  0  0  0  0
   -0.0967    5.1517    0.0000 N   0  0  0  0  0  0  0  0  0  0  0  0
    1.3299    5.6152    0.0000 C   0  0  0  0  0  0  0  0  0  0  0  0
    2.4446    4.6115    0.0000 O   0  0  0  0  0  0  0  0  0  0  0  0
    1.6418    7.0824    0.0000 C   0  0  0  0  0  0  0  0  0  0  0  0
    0.6381    8.1971    0.0000 C   0  0  0  0  0  0  0  0  0  0  0  0
    1.3881    9.4962    0.0000 C   0  0  0  0  0  0  0  0  0  0  0  0
    2.8553    9.1843    0.0000 C   0  0  0  0  0  0  0  0  0  0  0  0
    3.0121    7.6925    0.0000 C   0  0  0  0  0  0  0  0  0  0  0  0
    0.7062    2.6807    0.0000 C   0  0  0  0  0  0  0  0  0  0  0  0
    0.3943    1.2135    0.0000 C   0  0  0  0  0  0  0  0  0  0  0  0
    1.2760    0.0000    0.0000 C   0  0  0  0  0  0  0  0  0  0  0  0
    0.3943   -1.2135    0.0000 C   0  0  0  0  0  0  0  0  0  0  0  0
   -1.0323   -0.7500    0.0000 C   0  0  0  0  0  0  0  0  0  0  0  0
   -2.2458   -1.6317    0.0000 O   0  0  0  0  0  0  0  0  0  0  0  0
   -1.0323    0.7500    0.0000 N   0  0  0  0  0  0  0  0  0  0  0  0
  1  2  1  0
  2  3  1  0
  3  4  2  0
  4  5  1  0
  5  6  1  0
  6  7  2  0
  6  8  1  0
  8  9  2  0
  9 10  1  0
 10 11  2  0
 11 12  1  0
  4 13  1  0
 13 14  1  0
 14 15  1  0
 15 16  1  0
 16 17  1  0
 17 18  2  0
 17 19  1  0
 19  2  1  0
 12  8  1  0
 19 14  1  0
M  END
>  <Title>  (1337) 
idABXMgen6

$$$$

     RDKit          2D

 23 25  0  0  0  0  0  0  0  0999 V2000
   -2.3737   -6.1885    0.0000 C   0  0  0  0  0  0  0  0  0  0  0  0
   -1.4095   -5.0395    0.0000 C   0  0  0  0  0  0  0  0  0  0  0  0
   -0.0000   -5.5525    0.0000 C   0  0  0  0  0  0  0  0  0  0  0  0
    1.4095   -5.0395    0.0000 C   0  0  0  0  0  0  0  0  0  0  0  0
    2.3737   -6.1885    0.0000 C   0  0  0  0  0  0  0  0  0  0  0  0
    2.1595   -3.7404    0.0000 N   0  0  0  0  0  0  0  0  0  0  0  0
    3.5691   -4.2535    0.0000 C   0  0  0  0  0  0  0  0  0  0  0  0
    3.8296   -5.7307    0.0000 O   0  0  0  0  0  0  0  0  0  0  0  0
    4.7181   -3.2893    0.0000 C   0  0  0  0  0  0  0  0  0  0  0  0
    4.4577   -1.8121    0.0000 C   0  0  0  0  0  0  0  0  0  0  0  0
    5.6067   -0.8479    0.0000 C   0  0  0  0  0  0  0  0  0  0  0  0
    6.7558    0.1163    0.0000 N   0  0  0  0  0  0  0  0  0  0  0  0
    3.0481   -1.2990    0.0000 C   0  0  0  0  0  0  0  0  0  0  0  0
    1.8991   -2.2632    0.0000 C   0  0  0  0  0  0  0  0  0  0  0  0
    0.7500   -1.2990    0.0000 C   0  0  0  0  0  0  0  0  0  0  0  0
    1.5000    0.0000    0.0000 C   0  0  0  0  0  0  0  0  0  0  0  0
    0.7500    1.2990    0.0000 C   0  0  0  0  0  0  0  0  0  0  0  0
   -0.7500    1.2990    0.0000 C   0  0  0  0  0  0  0  0  0  0  0  0
   -1.5000    0.0000    0.0000 C   0  0  0  0  0  0  0  0  0  0  0  0
   -0.7500   -1.2990    0.0000 C   0  0  0  0  0  0  0  0  0  0  0  0
   -1.8991   -2.2632    0.0000 O   0  0  0  0  0  0  0  0  0  0  0  0
   -2.1595   -3.7404    0.0000 C   0  0  0  0  0  0  0  0  0  0  0  0
   -3.6368   -4.0009    0.0000 O   0  0  0  0  0  0  0  0  0  0  0  0
  1  2  1  0
  2  3  1  0
  3  4  1  0
  4  5  1  0
  4  6  1  0
  6  7  1  0
  7  8  2  0
  7  9  1  0
  9 10  2  0
 10 11  1  0
 11 12  3  0
 10 13  1  0
 13 14  2  0
 14 15  1  0
 15 16  2  0
 16 17  1  0
 17 18  2  0
 18 19  1  0
 19 20  2  0
 20 21  1  0
 21 22  1  0
 22 23  2  0
 22  2  1  0
 14  6  1  0
 20 15  1  0
M  END
>  <Title>  (1338) 
idABXNgen6

$$$$

     RDKit          2D

  7  6  0  0  0  0  0  0  0  0999 V2000
    0.0000    0.0000    0.0000 C   0  0  0  0  0  0  0  0  0  0  0  0
    1.2990    0.7500    0.0000 C   0  0  0  0  0  0  0  0  0  0  0  0
    2.5981    1.5000    0.0000 C   0  0  0  0  0  0  0  0  0  0  0  0
    3.8971    2.2500    0.0000 C   0  0  0  0  0  0  0  0  0  0  0  0
    5.1962    3.0000    0.0000 C   0  0  0  0  0  0  0  0  0  0  0  0
    6.4952    3.7500    0.0000 C   0  0  0  0  0  0  0  0  0  0  0  0
    7.7942    4.5000    0.0000 N   0  0  0  0  0  0  0  0  0  0  0  0
  1  2  1  0
  2  3  3  0
  3  4  1  0
  4  5  3  0
  5  6  1  0
  6  7  3  0
M  END
>  <Title>  (1339) 
idABXOgen6

$$$$

     RDKit          2D

 18 19  0  0  0  0  0  0  0  0999 V2000
    3.2286   -0.0000    0.0000 C   0  0  0  0  0  0  0  0  0  0  0  0
    1.7286    0.0000    0.0000 C   0  0  0  0  0  0  0  0  0  0  0  0
    1.0777    1.3515    0.0000 C   0  0  0  0  0  0  0  0  0  0  0  0
   -0.3846    1.6852    0.0000 C   0  0  0  0  0  0  0  0  0  0  0  0
   -1.5574    0.7500    0.0000 C   0  0  0  0  0  0  0  0  0  0  0  0
   -2.9088    1.4008    0.0000 O   0  0  0  0  0  0  0  0  0  0  0  0
   -3.0209    2.8966    0.0000 C   0  0  0  0  0  0  0  0  0  0  0  0
   -1.7816    3.7416    0.0000 C   0  0  0  0  0  0  0  0  0  0  0  0
   -1.8937    5.2374    0.0000 C   0  0  0  0  0  0  0  0  0  0  0  0
   -3.2451    5.8882    0.0000 C   0  0  0  0  0  0  0  0  0  0  0  0
   -3.3572    7.3840    0.0000 C   0  0  0  0  0  0  0  0  0  0  0  0
   -3.4693    8.8799    0.0000 N   0  0  0  0  0  0  0  0  0  0  0  0
   -4.4845    5.0433    0.0000 N   0  0  0  0  0  0  0  0  0  0  0  0
   -4.3724    3.5475    0.0000 N   0  0  0  0  0  0  0  0  0  0  0  0
   -1.5574   -0.7500    0.0000 C   0  0  0  0  0  0  0  0  0  0  0  0
   -0.3846   -1.6852    0.0000 C   0  0  0  0  0  0  0  0  0  0  0  0
   -0.7184   -3.1476    0.0000 O   0  0  0  0  0  0  0  0  0  0  0  0
    1.0777   -1.3515    0.0000 N   0  0  0  0  0  0  0  0  0  0  0  0
  1  2  1  0
  2  3  1  0
  3  4  1  0
  4  5  1  0
  5  6  1  0
  6  7  1  0
  7  8  2  0
  8  9  1  0
  9 10  2  0
 10 11  1  0
 11 12  3  0
 10 13  1  0
 13 14  2  0
  5 15  1  0
 15 16  1  0
 16 17  2  0
 16 18  1  0
 18  2  1  0
 14  7  1  0
M  END
>  <Title>  (1340) 
idABXPgen6

$$$$

     RDKit          2D

 16 17  0  0  0  0  0  0  0  0999 V2000
    3.2286   -0.0000    0.0000 C   0  0  0  0  0  0  0  0  0  0  0  0
    1.7286    0.0000    0.0000 C   0  0  0  0  0  0  0  0  0  0  0  0
    1.0777    1.3515    0.0000 C   0  0  0  0  0  0  0  0  0  0  0  0
   -0.3846    1.6852    0.0000 C   0  0  0  0  0  0  0  0  0  0  0  0
   -1.5574    0.7500    0.0000 C   0  0  0  0  0  0  0  0  0  0  0  0
   -1.5574   -0.7500    0.0000 C   0  0  0  0  0  0  0  0  0  0  0  0
   -0.3846   -1.6852    0.0000 C   0  0  0  0  0  0  0  0  0  0  0  0
    1.0777   -1.3515    0.0000 C   0  0  0  0  0  0  0  0  0  0  0  0
    2.0130   -2.5242    0.0000 C   0  0  0  0  0  0  0  0  0  0  0  0
    3.4962   -2.3006    0.0000 O   0  0  0  0  0  0  0  0  0  0  0  0
    1.4650   -3.9205    0.0000 O   0  0  0  0  0  0  0  0  0  0  0  0
    2.4002   -5.0933    0.0000 C   0  0  0  0  0  0  0  0  0  0  0  0
    3.8987   -5.0260    0.0000 C   0  0  0  0  0  0  0  0  0  0  0  0
    4.4258   -6.4303    0.0000 C   0  0  0  0  0  0  0  0  0  0  0  0
    3.2530   -7.3655    0.0000 C   0  0  0  0  0  0  0  0  0  0  0  0
    2.0012   -6.5392    0.0000 C   0  0  0  0  0  0  0  0  0  0  0  0
  1  2  1  0
  2  3  2  0
  3  4  1  0
  4  5  1  0
  5  6  2  0
  6  7  1  0
  7  8  2  0
  8  9  1  0
  9 10  2  0
  9 11  1  0
 11 12  1  0
 12 13  2  0
 13 14  1  0
 14 15  2  0
 15 16  1  0
  8  2  1  0
 16 12  1  0
M  END
>  <Title>  (1341) 
idABXQgen6

$$$$

     RDKit          2D

 13 14  0  0  0  0  0  0  0  0999 V2000
    3.6929    0.0000    0.0000 C   0  0  0  0  0  0  0  0  0  0  0  0
    2.1929    0.0000    0.0000 C   0  0  0  0  0  0  0  0  0  0  0  0
    1.6798    1.4095    0.0000 C   0  0  0  0  0  0  0  0  0  0  0  0
    0.3808    2.1595    0.0000 C   0  0  0  0  0  0  0  0  0  0  0  0
   -1.0964    1.8991    0.0000 C   0  0  0  0  0  0  0  0  0  0  0  0
   -2.2455    2.8632    0.0000 C   0  0  0  0  0  0  0  0  0  0  0  0
   -2.3762    4.3575    0.0000 O   0  0  0  0  0  0  0  0  0  0  0  0
   -3.2097    1.7142    0.0000 O   0  0  0  0  0  0  0  0  0  0  0  0
   -2.0606    0.7500    0.0000 C   0  0  0  0  0  0  0  0  0  0  0  0
   -2.0606   -0.7500    0.0000 C   0  0  0  0  0  0  0  0  0  0  0  0
   -1.0964   -1.8991    0.0000 C   0  0  0  0  0  0  0  0  0  0  0  0
    0.3808   -2.1595    0.0000 C   0  0  0  0  0  0  0  0  0  0  0  0
    1.6798   -1.4095    0.0000 S   0  0  0  0  0  0  0  0  0  0  0  0
  1  2  1  0
  2  3  1  0
  3  4  1  0
  4  5  1  0
  5  6  1  0
  6  7  2  0
  6  8  1  0
  8  9  1  0
  9 10  2  0
 10 11  1  0
 11 12  2  0
 12 13  1  0
 13  2  1  0
  9  5  1  0
M  END
>  <Title>  (1342) 
idABXRgen6

$$$$

     RDKit          2D

  6  5  0  0  0  0  0  0  0  0999 V2000
    0.0000    0.0000    0.0000 C   0  0  0  0  0  0  0  0  0  0  0  0
    1.2990    0.7500    0.0000 C   0  0  0  0  0  0  0  0  0  0  0  0
    2.5981   -0.0000    0.0000 C   0  0  0  0  0  0  0  0  0  0  0  0
    3.8971    0.7500    0.0000 C   0  0  0  0  0  0  0  0  0  0  0  0
    5.1962   -0.0000    0.0000 C   0  0  0  0  0  0  0  0  0  0  0  0
    3.8971    2.2500    0.0000 C   0  0  0  0  0  0  0  0  0  0  0  0
  1  2  1  0
  2  3  2  3
  3  4  1  0
  4  5  1  0
  4  6  1  0
M  END
>  <Title>  (1343) 
idABXSgen6

$$$$

     RDKit          2D

 29 32  0  0  0  0  0  0  0  0999 V2000
   -5.2500   -3.8971    0.0000 C   0  0  0  0  0  0  0  0  0  0  0  0
   -3.7500   -3.8971    0.0000 C   0  0  0  0  0  0  0  0  0  0  0  0
   -3.0000   -5.1962    0.0000 O   0  0  0  0  0  0  0  0  0  0  0  0
   -3.0000   -2.5981    0.0000 C   0  0  0  0  0  0  0  0  0  0  0  0
   -3.7500   -1.2990    0.0000 O   0  0  0  0  0  0  0  0  0  0  0  0
   -1.5000   -2.5981    0.0000 C   0  0  0  0  0  0  0  0  0  0  0  0
   -0.7500   -3.8971    0.0000 C   0  0  0  0  0  0  0  0  0  0  0  0
    0.7500   -3.8971    0.0000 C   0  0  0  0  0  0  0  0  0  0  0  0
    1.5000   -2.5981    0.0000 C   0  0  0  0  0  0  0  0  0  0  0  0
    3.0000   -2.5981    0.0000 C   0  0  0  0  0  0  0  0  0  0  0  0
    3.7500   -1.2990    0.0000 O   0  0  0  0  0  0  0  0  0  0  0  0
    3.7500   -3.8971    0.0000 O   0  0  0  0  0  0  0  0  0  0  0  0
    5.2500   -3.8971    0.0000 C   0  0  0  0  0  0  0  0  0  0  0  0
    6.1317   -2.6836    0.0000 N   0  0  0  0  0  0  0  0  0  0  0  0
    7.5583   -3.1471    0.0000 N   0  0  0  0  0  0  0  0  0  0  0  0
    7.5583   -4.6471    0.0000 N   0  0  0  0  0  0  0  0  0  0  0  0
    6.1317   -5.1106    0.0000 N   0  0  0  0  0  0  0  0  0  0  0  0
    5.6682   -6.5372    0.0000 C   0  0  0  0  0  0  0  0  0  0  0  0
    4.2009   -6.8491    0.0000 C   0  0  0  0  0  0  0  0  0  0  0  0
    3.7374   -8.2757    0.0000 C   0  0  0  0  0  0  0  0  0  0  0  0
    4.7411   -9.3904    0.0000 C   0  0  0  0  0  0  0  0  0  0  0  0
    6.2083   -9.0785    0.0000 C   0  0  0  0  0  0  0  0  0  0  0  0
    6.6718   -7.6519    0.0000 C   0  0  0  0  0  0  0  0  0  0  0  0
    0.7500   -1.2990    0.0000 C   0  0  0  0  0  0  0  0  0  0  0  0
    1.5000    0.0000    0.0000 C   0  0  0  0  0  0  0  0  0  0  0  0
    0.7500    1.2990    0.0000 C   0  0  0  0  0  0  0  0  0  0  0  0
   -0.7500    1.2990    0.0000 C   0  0  0  0  0  0  0  0  0  0  0  0
   -1.5000    0.0000    0.0000 C   0  0  0  0  0  0  0  0  0  0  0  0
   -0.7500   -1.2990    0.0000 C   0  0  0  0  0  0  0  0  0  0  0  0
  1  2  1  0
  2  3  2  0
  2  4  1  0
  4  5  2  0
  4  6  1  0
  6  7  1  0
  7  8  1  0
  8  9  1  0
  9 10  1  0
 10 11  2  0
 10 12  1  0
 12 13  1  0
 13 14  2  0
 14 15  1  0
 15 16  2  0
 16 17  1  0
 17 18  1  0
 18 19  2  0
 19 20  1  0
 20 21  2  0
 21 22  1  0
 22 23  2  0
  9 24  1  0
 24 25  2  0
 25 26  1  0
 26 27  2  0
 27 28  1  0
 28 29  2  0
 29  6  1  0
 17 13  1  0
 23 18  1  0
 29 24  1  0
M  END
>  <Title>  (1344) 
idABXTgen6

$$$$

     RDKit          2D

 36 40  0  0  0  0  0  0  0  0999 V2000
   -8.2500    6.4952    0.0000 C   0  0  0  0  0  0  0  0  0  0  0  0
   -7.5000    5.1962    0.0000 C   0  0  0  0  0  0  0  0  0  0  0  0
   -8.2500    3.8971    0.0000 C   0  0  0  0  0  0  0  0  0  0  0  0
   -7.5000    2.5981    0.0000 C   0  0  0  0  0  0  0  0  0  0  0  0
   -6.0000    2.5981    0.0000 C   0  0  0  0  0  0  0  0  0  0  0  0
   -5.2500    1.2990    0.0000 N   0  0  0  0  0  0  0  0  0  0  0  0
   -3.7500    1.2990    0.0000 C   0  0  0  0  0  0  0  0  0  0  0  0
   -6.0000    0.0000    0.0000 C   0  0  0  0  0  0  0  0  0  0  0  0
   -7.5000    0.0000    0.0000 O   0  0  0  0  0  0  0  0  0  0  0  0
   -5.2500   -1.2990    0.0000 O   0  0  0  0  0  0  0  0  0  0  0  0
   -6.0000   -2.5981    0.0000 C   0  0  0  0  0  0  0  0  0  0  0  0
   -7.5000   -2.5981    0.0000 C   0  0  0  0  0  0  0  0  0  0  0  0
   -8.2500   -3.8971    0.0000 C   0  0  0  0  0  0  0  0  0  0  0  0
   -7.5000   -5.1962    0.0000 C   0  0  0  0  0  0  0  0  0  0  0  0
   -6.0000   -5.1962    0.0000 C   0  0  0  0  0  0  0  0  0  0  0  0
   -5.2500   -3.8971    0.0000 C   0  0  0  0  0  0  0  0  0  0  0  0
   -3.7500   -3.8971    0.0000 C   0  0  0  0  0  0  0  0  0  0  0  0
   -3.0000   -2.5981    0.0000 C   0  0  0  0  0  0  0  0  0  0  0  0
   -1.5000   -2.5981    0.0000 C   0  0  0  0  0  0  0  0  0  0  0  0
   -0.7500   -3.8971    0.0000 C   0  0  0  0  0  0  0  0  0  0  0  0
   -1.5000   -5.1962    0.0000 C   0  0  0  0  0  0  0  0  0  0  0  0
   -3.0000   -5.1962    0.0000 C   0  0  0  0  0  0  0  0  0  0  0  0
   -3.7500   -6.4952    0.0000 C   0  0  0  0  0  0  0  0  0  0  0  0
   -5.2500   -6.4952    0.0000 C   0  0  0  0  0  0  0  0  0  0  0  0
   -6.0000   -7.7942    0.0000 C   0  0  0  0  0  0  0  0  0  0  0  0
   -5.2500   -9.0933    0.0000 C   0  0  0  0  0  0  0  0  0  0  0  0
   -3.7500   -9.0933    0.0000 C   0  0  0  0  0  0  0  0  0  0  0  0
   -3.0000   -7.7942    0.0000 C   0  0  0  0  0  0  0  0  0  0  0  0
   -1.5000   -7.7942    0.0000 C   0  0  0  0  0  0  0  0  0  0  0  0
   -0.7500   -9.0933    0.0000 N   0  0  0  0  0  0  0  0  0  0  0  0
    0.7500   -9.0933    0.0000 N   0  0  0  0  0  0  0  0  0  0  0  0
    1.5000   -7.7942    0.0000 N   0  0  0  0  0  0  0  0  0  0  0  0
    0.7500   -6.4952    0.0000 N   0  0  0  0  0  0  0  0  0  0  0  0
   -0.7500   -6.4952    0.0000 N   0  0  0  0  0  0  0  0  0  0  0  0
   -5.2500    3.8971    0.0000 C   0  0  0  0  0  0  0  0  0  0  0  0
   -6.0000    5.1962    0.0000 C   0  0  0  0  0  0  0  0  0  0  0  0
  1  2  1  0
  2  3  1  0
  3  4  1  0
  4  5  1  0
  5  6  1  0
  6  7  1  0
  6  8  1  0
  8  9  2  0
  8 10  1  0
 10 11  1  0
 11 12  2  0
 12 13  1  0
 13 14  2  0
 14 15  1  0
 15 16  2  0
 16 17  1  0
 17 18  2  0
 18 19  1  0
 19 20  2  0
 20 21  1  0
 21 22  2  0
 22 23  1  0
 23 24  2  0
 24 25  1  0
 25 26  2  0
 26 27  1  0
 27 28  2  0
 28 29  1  0
 29 30  2  0
 30 31  1  0
 31 32  2  0
 32 33  1  0
 33 34  2  0
  5 35  1  0
 35 36  1  0
 36  2  1  0
 16 11  1  0
 22 17  1  0
 28 23  1  0
 34 29  1  0
M  END
>  <Title>  (1345) 
idABXUgen6

$$$$

     RDKit          2D

 10 11  0  0  0  0  0  0  0  0999 V2000
    3.5260   -1.2990    0.0000 C   0  0  0  0  0  0  0  0  0  0  0  0
    2.7760    0.0000    0.0000 O   0  0  0  0  0  0  0  0  0  0  0  0
    1.2760    0.0000    0.0000 C   0  0  0  0  0  0  0  0  0  0  0  0
    0.3943    1.2135    0.0000 C   0  0  0  0  0  0  0  0  0  0  0  0
   -1.0323    0.7500    0.0000 C   0  0  0  0  0  0  0  0  0  0  0  0
   -1.0323   -0.7500    0.0000 C   0  0  0  0  0  0  0  0  0  0  0  0
   -1.4958   -2.1766    0.0000 C   0  0  0  0  0  0  0  0  0  0  0  0
   -2.8323   -2.8576    0.0000 C   0  0  0  0  0  0  0  0  0  0  0  0
   -0.0692   -2.6401    0.0000 C   0  0  0  0  0  0  0  0  0  0  0  0
    0.3943   -1.2135    0.0000 C   0  0  0  0  0  0  0  0  0  0  0  0
  1  2  1  0
  2  3  1  0
  3  4  2  0
  4  5  1  0
  5  6  2  0
  6  7  1  0
  7  8  1  0
  7  9  1  0
  9 10  1  0
 10  3  1  0
 10  6  1  0
M  END
>  <Title>  (1346) 
idABXVgen6

$$$$

     RDKit          2D

 23 25  0  0  0  0  0  0  0  0999 V2000
   -3.1965   -1.7857    0.0000 C   0  0  0  0  0  0  0  0  0  0  0  0
   -1.8107   -2.3597    0.0000 C   0  0  0  0  0  0  0  0  0  0  0  0
   -1.8107   -3.8597    0.0000 C   0  0  0  0  0  0  0  0  0  0  0  0
   -0.7500   -4.9204    0.0000 C   0  0  0  0  0  0  0  0  0  0  0  0
    0.7500   -4.9204    0.0000 C   0  0  0  0  0  0  0  0  0  0  0  0
    1.3240   -6.3062    0.0000 C   0  0  0  0  0  0  0  0  0  0  0  0
    2.8112   -6.5020    0.0000 O   0  0  0  0  0  0  0  0  0  0  0  0
    0.4109   -7.4962    0.0000 N   0  0  0  0  0  0  0  0  0  0  0  0
    0.9849   -8.8820    0.0000 C   0  0  0  0  0  0  0  0  0  0  0  0
    0.0718  -10.0721    0.0000 N   0  0  0  0  0  0  0  0  0  0  0  0
    0.6458  -11.4579    0.0000 N   0  0  0  0  0  0  0  0  0  0  0  0
    2.1330  -11.6537    0.0000 N   0  0  0  0  0  0  0  0  0  0  0  0
    3.0461  -10.4636    0.0000 N   0  0  0  0  0  0  0  0  0  0  0  0
    2.4721   -9.0778    0.0000 N   0  0  0  0  0  0  0  0  0  0  0  0
    1.8107   -3.8597    0.0000 C   0  0  0  0  0  0  0  0  0  0  0  0
    3.1965   -4.4337    0.0000 O   0  0  0  0  0  0  0  0  0  0  0  0
    1.8107   -2.3597    0.0000 O   0  0  0  0  0  0  0  0  0  0  0  0
    0.7500   -1.2990    0.0000 C   0  0  0  0  0  0  0  0  0  0  0  0
    1.5000    0.0000    0.0000 C   0  0  0  0  0  0  0  0  0  0  0  0
    0.7500    1.2990    0.0000 C   0  0  0  0  0  0  0  0  0  0  0  0
   -0.7500    1.2990    0.0000 C   0  0  0  0  0  0  0  0  0  0  0  0
   -1.5000    0.0000    0.0000 C   0  0  0  0  0  0  0  0  0  0  0  0
   -0.7500   -1.2990    0.0000 C   0  0  0  0  0  0  0  0  0  0  0  0
  1  2  1  0
  2  3  2  0
  3  4  1  0
  4  5  2  0
  5  6  1  0
  6  7  2  0
  6  8  1  0
  8  9  1  0
  9 10  2  0
 10 11  1  0
 11 12  2  0
 12 13  1  0
 13 14  2  0
  5 15  1  0
 15 16  2  0
 15 17  1  0
 17 18  1  0
 18 19  2  0
 19 20  1  0
 20 21  2  0
 21 22  1  0
 22 23  2  0
 23  2  1  0
 14  9  1  0
 23 18  1  0
M  END
>  <Title>  (1347) 
idABXWgen6

$$$$

     RDKit          2D

 21 22  0  0  0  0  0  0  0  0999 V2000
   -6.9331    4.9965    0.0000 C   0  0  0  0  0  0  0  0  0  0  0  0
   -6.2645    3.6537    0.0000 C   0  0  0  0  0  0  0  0  0  0  0  0
   -4.8218    4.0642    0.0000 C   0  0  0  0  0  0  0  0  0  0  0  0
   -3.3282    3.9258    0.0000 C   0  0  0  0  0  0  0  0  0  0  0  0
   -1.9854    3.2572    0.0000 C   0  0  0  0  0  0  0  0  0  0  0  0
   -0.9749    2.1487    0.0000 C   0  0  0  0  0  0  0  0  0  0  0  0
   -0.4330    0.7500    0.0000 C   0  0  0  0  0  0  0  0  0  0  0  0
    0.8660    0.0000    0.0000 C   0  0  0  0  0  0  0  0  0  0  0  0
    2.3660    0.0000    0.0000 O   0  0  0  0  0  0  0  0  0  0  0  0
   -0.4330   -0.7500    0.0000 C   0  0  0  0  0  0  0  0  0  0  0  0
   -0.9749   -2.1487    0.0000 N   0  0  0  0  0  0  0  0  0  0  0  0
   -1.9854   -3.2572    0.0000 N   0  0  0  0  0  0  0  0  0  0  0  0
   -3.3282   -3.9258    0.0000 C   0  0  0  0  0  0  0  0  0  0  0  0
   -4.8218   -4.0642    0.0000 C   0  0  0  0  0  0  0  0  0  0  0  0
   -6.2645   -3.6537    0.0000 C   0  0  0  0  0  0  0  0  0  0  0  0
   -7.4615   -2.7498    0.0000 C   0  0  0  0  0  0  0  0  0  0  0  0
   -8.2512   -1.4745    0.0000 C   0  0  0  0  0  0  0  0  0  0  0  0
   -8.5268    0.0000    0.0000 C   0  0  0  0  0  0  0  0  0  0  0  0
   -8.2512    1.4745    0.0000 C   0  0  0  0  0  0  0  0  0  0  0  0
   -7.4615    2.7498    0.0000 C   0  0  0  0  0  0  0  0  0  0  0  0
   -8.5700    3.7603    0.0000 C   0  0  0  0  0  0  0  0  0  0  0  0
  1  2  1  0
  2  3  2  0
  3  4  1  0
  4  5  2  0
  5  6  1  0
  6  7  2  0
  7  8  1  0
  8  9  2  0
  8 10  1  0
 10 11  2  0
 11 12  1  0
 12 13  2  0
 13 14  1  0
 14 15  2  0
 15 16  1  0
 16 17  2  0
 17 18  1  0
 18 19  2  0
 19 20  1  0
 20 21  1  0
 20  2  1  0
 10  7  1  0
M  END
>  <Title>  (1348) 
idABXXgen6

$$$$

     RDKit          2D

 14 13  0  0  0  0  0  0  0  0999 V2000
    0.0000    0.0000    0.0000 C   0  0  0  0  0  0  0  0  0  0  0  0
    1.2990    0.7500    0.0000 C   0  0  0  0  0  0  0  0  0  0  0  0
    2.5981   -0.0000    0.0000 C   0  0  0  0  0  0  0  0  0  0  0  0
    3.8971    0.7500    0.0000 C   0  0  0  0  0  0  0  0  0  0  0  0
    5.1962   -0.0000    0.0000 C   0  0  0  0  0  0  0  0  0  0  0  0
    6.4952    0.7500    0.0000 C   0  0  0  0  0  0  0  0  0  0  0  0
    7.7942   -0.0000    0.0000 C   0  0  0  0  0  0  0  0  0  0  0  0
    9.0933    0.7500    0.0000 C   0  0  0  0  0  0  0  0  0  0  0  0
   10.3923   -0.0000    0.0000 C   0  0  0  0  0  0  0  0  0  0  0  0
   10.3923   -1.5000    0.0000 O   0  0  0  0  0  0  0  0  0  0  0  0
   11.6913    0.7500    0.0000 O   0  0  0  0  0  0  0  0  0  0  0  0
    9.0933    2.2500    0.0000 C   0  0  0  0  0  0  0  0  0  0  0  0
    7.7942    3.0000    0.0000 O   0  0  0  0  0  0  0  0  0  0  0  0
   10.3923    3.0000    0.0000 O   0  0  0  0  0  0  0  0  0  0  0  0
  1  2  1  0
  2  3  1  0
  3  4  1  0
  4  5  2  3
  5  6  1  0
  6  7  2  3
  7  8  1  0
  8  9  1  0
  9 10  2  0
  9 11  1  0
  8 12  1  0
 12 13  2  0
 12 14  1  0
M  END
>  <Title>  (1349) 
idABXYgen6

$$$$

     RDKit          2D

 22 24  0  0  0  0  0  0  0  0999 V2000
   -5.2500   -3.8971    0.0000 C   0  0  0  0  0  0  0  0  0  0  0  0
   -3.7500   -3.8971    0.0000 C   0  0  0  0  0  0  0  0  0  0  0  0
   -3.0000   -5.1962    0.0000 O   0  0  0  0  0  0  0  0  0  0  0  0
   -3.0000   -2.5981    0.0000 N   0  0  0  0  0  0  0  0  0  0  0  0
   -1.5000   -2.5981    0.0000 C   0  0  0  0  0  0  0  0  0  0  0  0
   -0.7500   -3.8971    0.0000 C   0  0  0  0  0  0  0  0  0  0  0  0
    0.7500   -3.8971    0.0000 C   0  0  0  0  0  0  0  0  0  0  0  0
    1.5000   -2.5981    0.0000 C   0  0  0  0  0  0  0  0  0  0  0  0
    3.0000   -2.5981    0.0000 O   0  0  0  0  0  0  0  0  0  0  0  0
    3.7500   -3.8971    0.0000 C   0  0  0  0  0  0  0  0  0  0  0  0
    5.2500   -3.8971    0.0000 C   0  0  0  0  0  0  0  0  0  0  0  0
    6.0000   -5.1962    0.0000 C   0  0  0  0  0  0  0  0  0  0  0  0
    7.5000   -5.1962    0.0000 C   0  0  0  0  0  0  0  0  0  0  0  0
    8.2500   -3.8971    0.0000 C   0  0  0  0  0  0  0  0  0  0  0  0
    7.5000   -2.5981    0.0000 C   0  0  0  0  0  0  0  0  0  0  0  0
    6.0000   -2.5981    0.0000 C   0  0  0  0  0  0  0  0  0  0  0  0
    0.7500   -1.2990    0.0000 C   0  0  0  0  0  0  0  0  0  0  0  0
    1.5000    0.0000    0.0000 C   0  0  0  0  0  0  0  0  0  0  0  0
    0.7500    1.2990    0.0000 C   0  0  0  0  0  0  0  0  0  0  0  0
   -0.7500    1.2990    0.0000 C   0  0  0  0  0  0  0  0  0  0  0  0
   -1.5000    0.0000    0.0000 C   0  0  0  0  0  0  0  0  0  0  0  0
   -0.7500   -1.2990    0.0000 C   0  0  0  0  0  0  0  0  0  0  0  0
  1  2  1  0
  2  3  2  0
  2  4  1  0
  4  5  1  0
  5  6  2  0
  6  7  1  0
  7  8  2  0
  8  9  1  0
  9 10  1  0
 10 11  1  0
 11 12  2  0
 12 13  1  0
 13 14  2  0
 14 15  1  0
 15 16  2  0
  8 17  1  0
 17 18  2  0
 18 19  1  0
 19 20  2  0
 20 21  1  0
 21 22  2  0
 22  5  1  0
 16 11  1  0
 22 17  1  0
M  END
>  <Title>  (1350) 
idABXZgen6

$$$$

     RDKit          2D

  7  7  0  0  0  0  0  0  0  0999 V2000
    2.7760    0.0000    0.0000 C   0  0  0  0  0  0  0  0  0  0  0  0
    1.2760    0.0000    0.0000 C   0  0  0  0  0  0  0  0  0  0  0  0
    0.3943    1.2135    0.0000 C   0  0  0  0  0  0  0  0  0  0  0  0
   -1.0323    0.7500    0.0000 C   0  0  0  0  0  0  0  0  0  0  0  0
   -1.0323   -0.7500    0.0000 N   0  0  0  0  0  0  0  0  0  0  0  0
   -2.2458   -1.6317    0.0000 C   0  0  0  0  0  0  0  0  0  0  0  0
    0.3943   -1.2135    0.0000 C   0  0  0  0  0  0  0  0  0  0  0  0
  1  2  1  0
  2  3  1  0
  3  4  1  0
  4  5  1  0
  5  6  1  0
  5  7  1  0
  7  2  1  0
M  END
>  <Title>  (1351) 
idABYAgen6

$$$$

     RDKit          2D

 26 29  0  0  0  0  0  0  0  0999 V2000
   -3.7500   -3.8971    0.0000 C   0  0  0  0  0  0  0  0  0  0  0  0
   -3.0000   -2.5981    0.0000 O   0  0  0  0  0  0  0  0  0  0  0  0
   -1.5000   -2.5981    0.0000 C   0  0  0  0  0  0  0  0  0  0  0  0
   -0.7500   -3.8971    0.0000 C   0  0  0  0  0  0  0  0  0  0  0  0
    0.7500   -3.8971    0.0000 C   0  0  0  0  0  0  0  0  0  0  0  0
    1.5000   -2.5981    0.0000 C   0  0  0  0  0  0  0  0  0  0  0  0
    3.0000   -2.5981    0.0000 C   0  0  0  0  0  0  0  0  0  0  0  0
    3.7500   -1.2990    0.0000 O   0  0  0  0  0  0  0  0  0  0  0  0
    3.7500   -3.8971    0.0000 N   0  0  0  0  0  0  0  0  0  0  0  0
    5.2500   -3.8971    0.0000 C   0  0  0  0  0  0  0  0  0  0  0  0
    6.1317   -2.6836    0.0000 N   0  0  0  0  0  0  0  0  0  0  0  0
    7.5583   -3.1471    0.0000 N   0  0  0  0  0  0  0  0  0  0  0  0
    7.5583   -4.6471    0.0000 N   0  0  0  0  0  0  0  0  0  0  0  0
    6.1317   -5.1106    0.0000 N   0  0  0  0  0  0  0  0  0  0  0  0
    5.6682   -6.5372    0.0000 C   0  0  0  0  0  0  0  0  0  0  0  0
    4.2009   -6.8491    0.0000 C   0  0  0  0  0  0  0  0  0  0  0  0
    3.7374   -8.2757    0.0000 C   0  0  0  0  0  0  0  0  0  0  0  0
    4.7411   -9.3904    0.0000 C   0  0  0  0  0  0  0  0  0  0  0  0
    6.2083   -9.0785    0.0000 C   0  0  0  0  0  0  0  0  0  0  0  0
    6.6718   -7.6519    0.0000 C   0  0  0  0  0  0  0  0  0  0  0  0
    0.7500   -1.2990    0.0000 C   0  0  0  0  0  0  0  0  0  0  0  0
    1.5000    0.0000    0.0000 C   0  0  0  0  0  0  0  0  0  0  0  0
    0.7500    1.2990    0.0000 C   0  0  0  0  0  0  0  0  0  0  0  0
   -0.7500    1.2990    0.0000 C   0  0  0  0  0  0  0  0  0  0  0  0
   -1.5000    0.0000    0.0000 C   0  0  0  0  0  0  0  0  0  0  0  0
   -0.7500   -1.2990    0.0000 C   0  0  0  0  0  0  0  0  0  0  0  0
  1  2  1  0
  2  3  1  0
  3  4  2  0
  4  5  1  0
  5  6  2  0
  6  7  1  0
  7  8  2  0
  7  9  1  0
  9 10  1  0
 10 11  2  0
 11 12  1  0
 12 13  2  0
 13 14  1  0
 14 15  1  0
 15 16  2  0
 16 17  1  0
 17 18  2  0
 18 19  1  0
 19 20  2  0
  6 21  1  0
 21 22  2  0
 22 23  1  0
 23 24  2  0
 24 25  1  0
 25 26  2  0
 26  3  1  0
 14 10  1  0
 20 15  1  0
 26 21  1  0
M  END
>  <Title>  (1352) 
idABYBgen6

$$$$

     RDKit          2D

 15 16  0  0  0  0  0  0  0  0999 V2000
    2.5607   -9.6313    0.0000 C   0  0  0  0  0  0  0  0  0  0  0  0
    3.3107   -8.3323    0.0000 O   0  0  0  0  0  0  0  0  0  0  0  0
    2.5607   -7.0333    0.0000 C   0  0  0  0  0  0  0  0  0  0  0  0
    1.1118   -6.6450    0.0000 C   0  0  0  0  0  0  0  0  0  0  0  0
    1.5000   -5.1962    0.0000 C   0  0  0  0  0  0  0  0  0  0  0  0
    0.7500   -3.8971    0.0000 C   0  0  0  0  0  0  0  0  0  0  0  0
   -0.7500   -3.8971    0.0000 O   0  0  0  0  0  0  0  0  0  0  0  0
    1.5000   -2.5981    0.0000 N   0  0  0  0  0  0  0  0  0  0  0  0
    0.7500   -1.2990    0.0000 C   0  0  0  0  0  0  0  0  0  0  0  0
    1.5000    0.0000    0.0000 N   0  0  0  0  0  0  0  0  0  0  0  0
    0.7500    1.2990    0.0000 N   0  0  0  0  0  0  0  0  0  0  0  0
   -0.7500    1.2990    0.0000 N   0  0  0  0  0  0  0  0  0  0  0  0
   -1.5000    0.0000    0.0000 N   0  0  0  0  0  0  0  0  0  0  0  0
   -0.7500   -1.2990    0.0000 N   0  0  0  0  0  0  0  0  0  0  0  0
    2.9489   -5.5844    0.0000 C   0  0  0  0  0  0  0  0  0  0  0  0
  1  2  1  0
  2  3  1  0
  3  4  1  0
  4  5  2  0
  5  6  1  0
  6  7  2  0
  6  8  1  0
  8  9  1  0
  9 10  2  0
 10 11  1  0
 11 12  2  0
 12 13  1  0
 13 14  2  0
  5 15  1  0
 15  3  1  0
 14  9  1  0
M  END
>  <Title>  (1353) 
idABYCgen6

$$$$

     RDKit          2D

 10 10  0  0  0  0  0  0  0  0999 V2000
    3.2286   -0.0000    0.0000 C   0  0  0  0  0  0  0  0  0  0  0  0
    1.7286    0.0000    0.0000 C   0  0  0  0  0  0  0  0  0  0  0  0
    1.0777    1.3515    0.0000 C   0  0  0  0  0  0  0  0  0  0  0  0
   -0.3846    1.6852    0.0000 C   0  0  0  0  0  0  0  0  0  0  0  0
   -1.5574    0.7500    0.0000 C   0  0  0  0  0  0  0  0  0  0  0  0
   -2.9088    1.4008    0.0000 O   0  0  0  0  0  0  0  0  0  0  0  0
   -1.5574   -0.7500    0.0000 C   0  0  0  0  0  0  0  0  0  0  0  0
   -0.3846   -1.6852    0.0000 C   0  0  0  0  0  0  0  0  0  0  0  0
   -0.7184   -3.1476    0.0000 C   0  0  0  0  0  0  0  0  0  0  0  0
    1.0777   -1.3515    0.0000 C   0  0  0  0  0  0  0  0  0  0  0  0
  1  2  1  0
  2  3  2  0
  3  4  1  0
  4  5  2  0
  5  6  1  0
  5  7  1  0
  7  8  1  0
  8  9  1  0
  8 10  2  0
 10  2  1  0
M  END
>  <Title>  (1354) 
idABYDgen6

$$$$

     RDKit          2D

 23 26  0  0  0  0  0  0  0  0999 V2000
    2.5242   -4.8694    0.0000 O   0  0  0  0  0  0  0  0  0  0  0  0
    1.3515   -3.9342    0.0000 C   0  0  0  0  0  0  0  0  0  0  0  0
    1.6852   -2.4718    0.0000 O   0  0  0  0  0  0  0  0  0  0  0  0
    0.7500   -1.2990    0.0000 C   0  0  0  0  0  0  0  0  0  0  0  0
    1.5000    0.0000    0.0000 C   0  0  0  0  0  0  0  0  0  0  0  0
    0.7500    1.2990    0.0000 C   0  0  0  0  0  0  0  0  0  0  0  0
   -0.7500    1.2990    0.0000 C   0  0  0  0  0  0  0  0  0  0  0  0
   -1.5000    0.0000    0.0000 C   0  0  0  0  0  0  0  0  0  0  0  0
   -0.7500   -1.2990    0.0000 C   0  0  0  0  0  0  0  0  0  0  0  0
   -1.6852   -2.4718    0.0000 C   0  0  0  0  0  0  0  0  0  0  0  0
   -1.3515   -3.9342    0.0000 C   0  0  0  0  0  0  0  0  0  0  0  0
   -0.0000   -4.5850    0.0000 C   0  0  0  0  0  0  0  0  0  0  0  0
   -0.0000   -6.0850    0.0000 C   0  0  0  0  0  0  0  0  0  0  0  0
   -1.2990   -6.8350    0.0000 C   0  0  0  0  0  0  0  0  0  0  0  0
   -1.2990   -8.3350    0.0000 C   0  0  0  0  0  0  0  0  0  0  0  0
   -0.0000   -9.0850    0.0000 C   0  0  0  0  0  0  0  0  0  0  0  0
   -0.0000  -10.5850    0.0000 N   0  0  0  0  0  0  0  0  0  0  0  0
    1.2135  -11.4667    0.0000 C   0  0  0  0  0  0  0  0  0  0  0  0
    0.7500  -12.8933    0.0000 C   0  0  0  0  0  0  0  0  0  0  0  0
   -0.7500  -12.8933    0.0000 C   0  0  0  0  0  0  0  0  0  0  0  0
   -1.2135  -11.4667    0.0000 C   0  0  0  0  0  0  0  0  0  0  0  0
    1.2990   -8.3350    0.0000 C   0  0  0  0  0  0  0  0  0  0  0  0
    1.2990   -6.8350    0.0000 C   0  0  0  0  0  0  0  0  0  0  0  0
  1  2  2  0
  2  3  1  0
  3  4  1  0
  4  5  2  0
  5  6  1  0
  6  7  2  0
  7  8  1  0
  8  9  2  0
  9 10  1  0
 10 11  2  0
 11 12  1  0
 12 13  1  0
 13 14  2  0
 14 15  1  0
 15 16  2  0
 16 17  1  0
 17 18  1  0
 18 19  1  0
 19 20  1  0
 20 21  1  0
 16 22  1  0
 22 23  1  0
 12  2  1  0
 23 13  1  0
  9  4  1  0
 21 17  1  0
M  END
>  <Title>  (1355) 
idABYEgen6

$$$$

     RDKit          2D

 10 11  0  0  0  0  0  0  0  0999 V2000
   -0.0967    5.1517    0.0000 O   0  0  0  0  0  0  0  0  0  0  0  0
   -0.4086    3.6844    0.0000 C   0  0  0  0  0  0  0  0  0  0  0  0
   -1.8351    3.2209    0.0000 C   0  0  0  0  0  0  0  0  0  0  0  0
   -2.1470    1.7537    0.0000 C   0  0  0  0  0  0  0  0  0  0  0  0
   -1.0323    0.7500    0.0000 C   0  0  0  0  0  0  0  0  0  0  0  0
    0.3943    1.2135    0.0000 C   0  0  0  0  0  0  0  0  0  0  0  0
    0.7062    2.6807    0.0000 C   0  0  0  0  0  0  0  0  0  0  0  0
    1.2760    0.0000    0.0000 O   0  0  0  0  0  0  0  0  0  0  0  0
    0.3943   -1.2135    0.0000 C   0  0  0  0  0  0  0  0  0  0  0  0
   -1.0323   -0.7500    0.0000 C   0  0  0  0  0  0  0  0  0  0  0  0
  1  2  1  0
  2  3  2  0
  3  4  1  0
  4  5  2  0
  5  6  1  0
  6  7  2  0
  6  8  1  0
  8  9  1  0
  9 10  1  0
  7  2  1  0
 10  5  1  0
M  END
>  <Title>  (1356) 
idABYFgen6

$$$$

     RDKit          2D

 62 63  0  0  0  0  0  0  0  0999 V2000
   17.0056    4.3585    0.0000 O   0  0  0  0  0  0  0  0  0  0  0  0
   15.8478    3.4049    0.0000 C   0  0  0  0  0  0  0  0  0  0  0  0
   16.0946    1.9254    0.0000 C   0  0  0  0  0  0  0  0  0  0  0  0
   14.9368    0.9718    0.0000 C   0  0  0  0  0  0  0  0  0  0  0  0
   13.5320    1.4977    0.0000 C   0  0  0  0  0  0  0  0  0  0  0  0
   13.6146    0.0000    0.0000 C   0  0  0  0  0  0  0  0  0  0  0  0
   13.5320   -1.4977    0.0000 C   0  0  0  0  0  0  0  0  0  0  0  0
   13.2851   -2.9773    0.0000 C   0  0  0  0  0  0  0  0  0  0  0  0
   12.8770   -4.4207    0.0000 C   0  0  0  0  0  0  0  0  0  0  0  0
   12.3125   -5.8104    0.0000 C   0  0  0  0  0  0  0  0  0  0  0  0
   11.5986   -7.1296    0.0000 C   0  0  0  0  0  0  0  0  0  0  0  0
   10.7439   -8.3623    0.0000 C   0  0  0  0  0  0  0  0  0  0  0  0
    9.7587   -9.4934    0.0000 C   0  0  0  0  0  0  0  0  0  0  0  0
    8.6551  -10.5094    0.0000 C   0  0  0  0  0  0  0  0  0  0  0  0
    7.4465  -11.3977    0.0000 C   0  0  0  0  0  0  0  0  0  0  0  0
    6.1475  -12.1477    0.0000 C   0  0  0  0  0  0  0  0  0  0  0  0
    4.7738  -12.7503    0.0000 C   0  0  0  0  0  0  0  0  0  0  0  0
    3.3422  -13.1980    0.0000 C   0  0  0  0  0  0  0  0  0  0  0  0
    1.8700  -13.4856    0.0000 C   0  0  0  0  0  0  0  0  0  0  0  0
    0.3751  -13.6095    0.0000 C   0  0  0  0  0  0  0  0  0  0  0  0
   -1.1243  -13.5681    0.0000 C   0  0  0  0  0  0  0  0  0  0  0  0
   -2.6101  -13.3621    0.0000 C   0  0  0  0  0  0  0  0  0  0  0  0
   -4.0642  -12.9939    0.0000 C   0  0  0  0  0  0  0  0  0  0  0  0
   -5.4689  -12.4679    0.0000 C   0  0  0  0  0  0  0  0  0  0  0  0
   -6.8073  -11.7906    0.0000 C   0  0  0  0  0  0  0  0  0  0  0  0
   -8.0631  -10.9702    0.0000 C   0  0  0  0  0  0  0  0  0  0  0  0
   -9.2209  -10.0166    0.0000 C   0  0  0  0  0  0  0  0  0  0  0  0
  -10.2669   -8.9414    0.0000 C   0  0  0  0  0  0  0  0  0  0  0  0
  -11.1882   -7.7577    0.0000 C   0  0  0  0  0  0  0  0  0  0  0  0
  -11.9737   -6.4799    0.0000 C   0  0  0  0  0  0  0  0  0  0  0  0
  -12.6139   -5.1233    0.0000 C   0  0  0  0  0  0  0  0  0  0  0  0
  -13.1009   -3.7046    0.0000 C   0  0  0  0  0  0  0  0  0  0  0  0
  -13.4290   -2.2409    0.0000 C   0  0  0  0  0  0  0  0  0  0  0  0
  -13.5940   -0.7500    0.0000 C   0  0  0  0  0  0  0  0  0  0  0  0
  -13.5940    0.7500    0.0000 C   0  0  0  0  0  0  0  0  0  0  0  0
  -13.4290    2.2409    0.0000 C   0  0  0  0  0  0  0  0  0  0  0  0
  -13.1009    3.7046    0.0000 C   0  0  0  0  0  0  0  0  0  0  0  0
  -12.6139    5.1233    0.0000 C   0  0  0  0  0  0  0  0  0  0  0  0
  -11.9737    6.4799    0.0000 C   0  0  0  0  0  0  0  0  0  0  0  0
  -11.1882    7.7577    0.0000 C   0  0  0  0  0  0  0  0  0  0  0  0
  -10.2669    8.9414    0.0000 C   0  0  0  0  0  0  0  0  0  0  0  0
   -9.2209   10.0166    0.0000 C   0  0  0  0  0  0  0  0  0  0  0  0
   -8.0631   10.9702    0.0000 C   0  0  0  0  0  0  0  0  0  0  0  0
   -6.8073   11.7906    0.0000 C   0  0  0  0  0  0  0  0  0  0  0  0
   -5.4689   12.4679    0.0000 C   0  0  0  0  0  0  0  0  0  0  0  0
   -4.0642   12.9939    0.0000 C   0  0  0  0  0  0  0  0  0  0  0  0
   -2.6101   13.3621    0.0000 C   0  0  0  0  0  0  0  0  0  0  0  0
   -1.1243   13.5681    0.0000 C   0  0  0  0  0  0  0  0  0  0  0  0
    0.3751   13.6095    0.0000 C   0  0  0  0  0  0  0  0  0  0  0  0
    1.8700   13.4856    0.0000 C   0  0  0  0  0  0  0  0  0  0  0  0
    3.3422   13.1980    0.0000 C   0  0  0  0  0  0  0  0  0  0  0  0
    4.7738   12.7503    0.0000 C   0  0  0  0  0  0  0  0  0  0  0  0
    6.1475   12.1477    0.0000 C   0  0  0  0  0  0  0  0  0  0  0  0
    7.4465   11.3977    0.0000 C   0  0  0  0  0  0  0  0  0  0  0  0
    8.6551   10.5094    0.0000 C   0  0  0  0  0  0  0  0  0  0  0  0
    9.7587    9.4934    0.0000 C   0  0  0  0  0  0  0  0  0  0  0  0
   10.7439    8.3623    0.0000 C   0  0  0  0  0  0  0  0  0  0  0  0
   11.5986    7.1296    0.0000 C   0  0  0  0  0  0  0  0  0  0  0  0
   12.3125    5.8104    0.0000 C   0  0  0  0  0  0  0  0  0  0  0  0
   12.8770    4.4207    0.0000 C   0  0  0  0  0  0  0  0  0  0  0  0
   13.2851    2.9773    0.0000 C   0  0  0  0  0  0  0  0  0  0  0  0
   14.4430    3.9308    0.0000 C   0  0  0  0  0  0  0  0  0  0  0  0
  1  2  1  0
  2  3  2  0
  3  4  1  0
  4  5  2  0
  5  6  1  0
  6  7  1  0
  7  8  1  0
  8  9  1  0
  9 10  1  0
 10 11  1  0
 11 12  1  0
 12 13  1  0
 13 14  1  0
 14 15  1  0
 15 16  1  0
 16 17  1  0
 17 18  1  0
 18 19  1  0
 19 20  1  0
 20 21  1  0
 21 22  1  0
 22 23  1  0
 23 24  1  0
 24 25  1  0
 25 26  1  0
 26 27  1  0
 27 28  1  0
 28 29  1  0
 29 30  1  0
 30 31  1  0
 31 32  1  0
 32 33  1  0
 33 34  1  0
 34 35  1  0
 35 36  1  0
 36 37  1  0
 37 38  1  0
 38 39  1  0
 39 40  1  0
 40 41  1  0
 41 42  1  0
 42 43  1  0
 43 44  1  0
 44 45  1  0
 45 46  1  0
 46 47  1  0
 47 48  1  0
 48 49  1  0
 49 50  1  0
 50 51  1  0
 51 52  1  0
 52 53  1  0
 53 54  1  0
 54 55  1  0
 55 56  1  0
 56 57  1  0
 57 58  1  0
 58 59  1  0
 59 60  1  0
 60 61  1  0
 61 62  2  0
 62  2  1  0
 61  5  1  0
M  END
>  <Title>  (1357) 
idABYGgen6

$$$$

     RDKit          2D

 13 13  0  0  0  0  0  0  0  0999 V2000
    5.7760   -2.5981    0.0000 C   0  0  0  0  0  0  0  0  0  0  0  0
    5.0260   -1.2990    0.0000 C   0  0  0  0  0  0  0  0  0  0  0  0
    5.7760    0.0000    0.0000 O   0  0  0  0  0  0  0  0  0  0  0  0
    3.5260   -1.2990    0.0000 O   0  0  0  0  0  0  0  0  0  0  0  0
    2.7760    0.0000    0.0000 C   0  0  0  0  0  0  0  0  0  0  0  0
    1.2760    0.0000    0.0000 C   0  0  0  0  0  0  0  0  0  0  0  0
    0.3943    1.2135    0.0000 C   0  0  0  0  0  0  0  0  0  0  0  0
   -1.0323    0.7500    0.0000 C   0  0  0  0  0  0  0  0  0  0  0  0
   -1.0323   -0.7500    0.0000 C   0  0  0  0  0  0  0  0  0  0  0  0
   -2.2458   -1.6317    0.0000 C   0  0  0  0  0  0  0  0  0  0  0  0
   -2.0890   -3.1235    0.0000 O   0  0  0  0  0  0  0  0  0  0  0  0
   -3.6161   -1.0216    0.0000 O   0  0  0  0  0  0  0  0  0  0  0  0
    0.3943   -1.2135    0.0000 C   0  0  0  0  0  0  0  0  0  0  0  0
  1  2  1  0
  2  3  2  0
  2  4  1  0
  4  5  1  0
  5  6  1  0
  6  7  2  0
  7  8  1  0
  8  9  2  0
  9 10  1  0
 10 11  2  0
 10 12  1  0
  9 13  1  0
 13  6  1  0
M  END
>  <Title>  (1358) 
idABYHgen6

$$$$

     RDKit          2D

 17 18  0  0  0  0  0  0  0  0999 V2000
    3.7500   -1.2990    0.0000 C   0  0  0  0  0  0  0  0  0  0  0  0
    3.0000    0.0000    0.0000 O   0  0  0  0  0  0  0  0  0  0  0  0
    1.5000    0.0000    0.0000 C   0  0  0  0  0  0  0  0  0  0  0  0
    0.7500   -1.2990    0.0000 C   0  0  0  0  0  0  0  0  0  0  0  0
   -0.7500   -1.2990    0.0000 C   0  0  0  0  0  0  0  0  0  0  0  0
   -1.5000    0.0000    0.0000 C   0  0  0  0  0  0  0  0  0  0  0  0
   -0.7500    1.2990    0.0000 C   0  0  0  0  0  0  0  0  0  0  0  0
   -1.5000    2.5981    0.0000 C   0  0  0  0  0  0  0  0  0  0  0  0
   -3.0000    2.5981    0.0000 O   0  0  0  0  0  0  0  0  0  0  0  0
   -0.7500    3.8971    0.0000 N   0  0  0  0  0  0  0  0  0  0  0  0
   -1.5000    5.1962    0.0000 C   0  0  0  0  0  0  0  0  0  0  0  0
   -0.7500    6.4952    0.0000 N   0  0  0  0  0  0  0  0  0  0  0  0
   -1.5000    7.7942    0.0000 N   0  0  0  0  0  0  0  0  0  0  0  0
   -3.0000    7.7942    0.0000 N   0  0  0  0  0  0  0  0  0  0  0  0
   -3.7500    6.4952    0.0000 N   0  0  0  0  0  0  0  0  0  0  0  0
   -3.0000    5.1962    0.0000 N   0  0  0  0  0  0  0  0  0  0  0  0
    0.7500    1.2990    0.0000 C   0  0  0  0  0  0  0  0  0  0  0  0
  1  2  1  0
  2  3  1  0
  3  4  1  0
  4  5  2  0
  5  6  1  0
  6  7  1  0
  7  8  1  0
  8  9  2  0
  8 10  1  0
 10 11  1  0
 11 12  2  0
 12 13  1  0
 13 14  2  0
 14 15  1  0
 15 16  2  0
  7 17  1  0
 17  3  1  0
 16 11  1  0
M  END
>  <Title>  (1359) 
idABYIgen6

$$$$

     RDKit          2D

 16 18  0  0  0  0  0  0  0  0999 V2000
    7.3793   -3.7937    0.0000 C   0  0  0  0  0  0  0  0  0  0  0  0
    6.1658   -4.6754    0.0000 C   0  0  0  0  0  0  0  0  0  0  0  0
    4.6740   -4.8322    0.0000 C   0  0  0  0  0  0  0  0  0  0  0  0
    3.3037   -4.2221    0.0000 C   0  0  0  0  0  0  0  0  0  0  0  0
    2.0046   -4.9721    0.0000 C   0  0  0  0  0  0  0  0  0  0  0  0
    0.8899   -3.9684    0.0000 C   0  0  0  0  0  0  0  0  0  0  0  0
    1.5000   -2.5981    0.0000 C   0  0  0  0  0  0  0  0  0  0  0  0
    0.7500   -1.2990    0.0000 C   0  0  0  0  0  0  0  0  0  0  0  0
    1.5000    0.0000    0.0000 C   0  0  0  0  0  0  0  0  0  0  0  0
    0.7500    1.2990    0.0000 C   0  0  0  0  0  0  0  0  0  0  0  0
   -0.7500    1.2990    0.0000 C   0  0  0  0  0  0  0  0  0  0  0  0
   -1.5000    0.0000    0.0000 C   0  0  0  0  0  0  0  0  0  0  0  0
   -0.7500   -1.2990    0.0000 C   0  0  0  0  0  0  0  0  0  0  0  0
    2.9918   -2.7549    0.0000 C   0  0  0  0  0  0  0  0  0  0  0  0
    3.9955   -1.6402    0.0000 O   0  0  0  0  0  0  0  0  0  0  0  0
    5.5556   -6.0457    0.0000 N   0  0  0  0  0  0  0  0  0  0  0  0
  1  2  1  0
  2  3  2  0
  3  4  1  0
  4  5  2  0
  5  6  1  0
  6  7  2  0
  7  8  1  0
  8  9  2  0
  9 10  1  0
 10 11  2  0
 11 12  1  0
 12 13  2  0
  7 14  1  0
 14 15  2  0
  3 16  1  0
 16  2  1  0
 14  4  1  0
 13  8  1  0
M  END
>  <Title>  (1360) 
idABYJgen6

$$$$

     RDKit          2D

 46 48  0  0  0  0  0  0  0  0999 V2000
    3.0000  -10.3923    0.0000 C   0  0  0  0  0  0  0  0  0  0  0  0
    3.7500   -9.0933    0.0000 C   0  0  0  0  0  0  0  0  0  0  0  0
    5.2500   -9.0933    0.0000 O   0  0  0  0  0  0  0  0  0  0  0  0
    3.0000   -7.7942    0.0000 C   0  0  0  0  0  0  0  0  0  0  0  0
    1.5000   -7.7942    0.0000 O   0  0  0  0  0  0  0  0  0  0  0  0
    3.7500   -6.4952    0.0000 C   0  0  0  0  0  0  0  0  0  0  0  0
    5.2500   -6.4952    0.0000 C   0  0  0  0  0  0  0  0  0  0  0  0
    6.0000   -5.1962    0.0000 C   0  0  0  0  0  0  0  0  0  0  0  0
    5.3899   -3.8258    0.0000 C   0  0  0  0  0  0  0  0  0  0  0  0
    6.5046   -2.8221    0.0000 C   0  0  0  0  0  0  0  0  0  0  0  0
    7.8037   -3.5721    0.0000 C   0  0  0  0  0  0  0  0  0  0  0  0
    9.1740   -2.9620    0.0000 O   0  0  0  0  0  0  0  0  0  0  0  0
    7.4918   -5.0394    0.0000 C   0  0  0  0  0  0  0  0  0  0  0  0
    8.4955   -6.1541    0.0000 O   0  0  0  0  0  0  0  0  0  0  0  0
    3.0000   -5.1962    0.0000 N   0  0  0  0  0  0  0  0  0  0  0  0
    3.7500   -3.8971    0.0000 C   0  0  0  0  0  0  0  0  0  0  0  0
    1.5000   -5.1962    0.0000 C   0  0  0  0  0  0  0  0  0  0  0  0
    0.7500   -6.4952    0.0000 O   0  0  0  0  0  0  0  0  0  0  0  0
    0.7500   -3.8971    0.0000 C   0  0  0  0  0  0  0  0  0  0  0  0
    1.5000   -2.5981    0.0000 C   0  0  0  0  0  0  0  0  0  0  0  0
    0.7500   -1.2990    0.0000 C   0  0  0  0  0  0  0  0  0  0  0  0
    1.5000    0.0000    0.0000 C   0  0  0  0  0  0  0  0  0  0  0  0
    0.7500    1.2990    0.0000 C   0  0  0  0  0  0  0  0  0  0  0  0
   -0.7500    1.2990    0.0000 C   0  0  0  0  0  0  0  0  0  0  0  0
   -1.5000    0.0000    0.0000 C   0  0  0  0  0  0  0  0  0  0  0  0
   -0.7500   -1.2990    0.0000 C   0  0  0  0  0  0  0  0  0  0  0  0
   -0.7500   -3.8971    0.0000 N   0  0  0  0  0  0  0  0  0  0  0  0
   -1.5000   -5.1962    0.0000 C   0  0  0  0  0  0  0  0  0  0  0  0
   -0.7500   -6.4952    0.0000 O   0  0  0  0  0  0  0  0  0  0  0  0
   -3.0000   -5.1962    0.0000 C   0  0  0  0  0  0  0  0  0  0  0  0
   -3.7500   -3.8971    0.0000 C   0  0  0  0  0  0  0  0  0  0  0  0
   -3.0000   -2.5981    0.0000 O   0  0  0  0  0  0  0  0  0  0  0  0
   -5.2500   -3.8971    0.0000 O   0  0  0  0  0  0  0  0  0  0  0  0
   -3.7500   -6.4952    0.0000 C   0  0  0  0  0  0  0  0  0  0  0  0
   -3.0000   -7.7942    0.0000 O   0  0  0  0  0  0  0  0  0  0  0  0
   -5.2500   -6.4952    0.0000 N   0  0  0  0  0  0  0  0  0  0  0  0
   -6.0000   -7.7942    0.0000 C   0  0  0  0  0  0  0  0  0  0  0  0
   -5.2500   -9.0933    0.0000 O   0  0  0  0  0  0  0  0  0  0  0  0
   -7.5000   -7.7942    0.0000 C   0  0  0  0  0  0  0  0  0  0  0  0
   -8.2500   -6.4952    0.0000 O   0  0  0  0  0  0  0  0  0  0  0  0
   -8.2500   -9.0933    0.0000 C   0  0  0  0  0  0  0  0  0  0  0  0
   -7.6399  -10.4636    0.0000 C   0  0  0  0  0  0  0  0  0  0  0  0
   -8.7546  -11.4673    0.0000 C   0  0  0  0  0  0  0  0  0  0  0  0
  -10.0537  -10.7173    0.0000 C   0  0  0  0  0  0  0  0  0  0  0  0
  -11.4240  -11.3274    0.0000 O   0  0  0  0  0  0  0  0  0  0  0  0
   -9.7418   -9.2501    0.0000 N   0  0  0  0  0  0  0  0  0  0  0  0
  1  2  1  0
  2  3  2  0
  2  4  1  0
  4  5  2  0
  4  6  1  0
  6  7  1  0
  7  8  1  0
  8  9  2  0
  9 10  1  0
 10 11  2  0
 11 12  1  0
 11 13  1  0
 13 14  2  0
  6 15  1  0
 15 16  1  0
 15 17  1  0
 17 18  2  0
 17 19  1  0
 19 20  1  0
 20 21  1  0
 21 22  2  0
 22 23  1  0
 23 24  2  0
 24 25  1  0
 25 26  2  0
 19 27  1  0
 27 28  1  0
 28 29  2  0
 28 30  1  0
 30 31  1  0
 31 32  2  0
 31 33  1  0
 30 34  1  0
 34 35  2  0
 34 36  1  0
 36 37  1  0
 37 38  2  0
 37 39  1  0
 39 40  2  0
 39 41  1  0
 41 42  1  0
 42 43  1  0
 43 44  1  0
 44 45  2  0
 44 46  1  0
 13  8  1  0
 26 21  1  0
 46 41  1  0
M  END
>  <Title>  (1361) 
idABYKgen6

$$$$

     RDKit          2D

  6  5  0  0  0  0  0  0  0  0999 V2000
    0.0000    0.0000    0.0000 C   0  0  0  0  0  0  0  0  0  0  0  0
    1.2990    0.7500    0.0000 C   0  0  0  0  0  0  0  0  0  0  0  0
    1.2990    2.2500    0.0000 O   0  0  0  0  0  0  0  0  0  0  0  0
    2.5981   -0.0000    0.0000 N   0  0  0  0  0  0  0  0  0  0  0  0
    3.8971    0.7500    0.0000 C   0  0  0  0  0  0  0  0  0  0  0  0
    2.5981   -1.5000    0.0000 C   0  0  0  0  0  0  0  0  0  0  0  0
  1  2  1  0
  2  3  2  0
  2  4  1  0
  4  5  1  0
  4  6  1  0
M  END
>  <Title>  (1362) 
idABYLgen6

$$$$

     RDKit          2D

 23 25  0  0  0  0  0  0  0  0999 V2000
    6.0000   -2.5981    0.0000 C   0  0  0  0  0  0  0  0  0  0  0  0
    5.2500   -1.2990    0.0000 C   0  0  0  0  0  0  0  0  0  0  0  0
    6.0000    0.0000    0.0000 O   0  0  0  0  0  0  0  0  0  0  0  0
    3.7500   -1.2990    0.0000 O   0  0  0  0  0  0  0  0  0  0  0  0
    3.0000    0.0000    0.0000 C   0  0  0  0  0  0  0  0  0  0  0  0
    3.7500    1.2990    0.0000 O   0  0  0  0  0  0  0  0  0  0  0  0
    1.5000    0.0000    0.0000 C   0  0  0  0  0  0  0  0  0  0  0  0
    0.7500   -1.2990    0.0000 C   0  0  0  0  0  0  0  0  0  0  0  0
   -0.7500   -1.2990    0.0000 C   0  0  0  0  0  0  0  0  0  0  0  0
   -1.5000    0.0000    0.0000 N   0  0  0  0  0  0  0  0  0  0  0  0
   -3.0000    0.0000    0.0000 C   0  0  0  0  0  0  0  0  0  0  0  0
   -3.8817   -1.2135    0.0000 C   0  0  0  0  0  0  0  0  0  0  0  0
   -5.3083   -0.7500    0.0000 C   0  0  0  0  0  0  0  0  0  0  0  0
   -5.3083    0.7500    0.0000 C   0  0  0  0  0  0  0  0  0  0  0  0
   -6.5218    1.6317    0.0000 C   0  0  0  0  0  0  0  0  0  0  0  0
   -6.3650    3.1235    0.0000 C   0  0  0  0  0  0  0  0  0  0  0  0
   -7.5785    4.0051    0.0000 C   0  0  0  0  0  0  0  0  0  0  0  0
   -8.9488    3.3950    0.0000 C   0  0  0  0  0  0  0  0  0  0  0  0
   -9.1056    1.9033    0.0000 C   0  0  0  0  0  0  0  0  0  0  0  0
   -7.8921    1.0216    0.0000 C   0  0  0  0  0  0  0  0  0  0  0  0
   -3.8817    1.2135    0.0000 C   0  0  0  0  0  0  0  0  0  0  0  0
   -0.7500    1.2990    0.0000 C   0  0  0  0  0  0  0  0  0  0  0  0
    0.7500    1.2990    0.0000 C   0  0  0  0  0  0  0  0  0  0  0  0
  1  2  1  0
  2  3  2  0
  2  4  1  0
  4  5  1  0
  5  6  2  0
  5  7  1  0
  7  8  1  0
  8  9  1  0
  9 10  1  0
 10 11  1  0
 11 12  1  0
 12 13  1  0
 13 14  1  0
 14 15  1  0
 15 16  2  0
 16 17  1  0
 17 18  2  0
 18 19  1  0
 19 20  2  0
 14 21  1  0
 10 22  1  0
 22 23  1  0
 23  7  1  0
 21 11  1  0
 20 15  1  0
M  END
>  <Title>  (1363) 
idABYMgen6

$$$$

     RDKit          2D

 23 25  0  0  0  0  0  0  0  0999 V2000
   -0.7500   -3.8971    0.0000 O   0  0  0  0  0  0  0  0  0  0  0  0
    0.7500   -3.8971    0.0000 C   0  0  0  0  0  0  0  0  0  0  0  0
    1.5000   -2.5981    0.0000 N   0  0  0  0  0  0  0  0  0  0  0  0
    0.7500   -1.2990    0.0000 C   0  0  0  0  0  0  0  0  0  0  0  0
    1.5000    0.0000    0.0000 C   0  0  0  0  0  0  0  0  0  0  0  0
    0.7500    1.2990    0.0000 C   0  0  0  0  0  0  0  0  0  0  0  0
   -0.7500    1.2990    0.0000 C   0  0  0  0  0  0  0  0  0  0  0  0
   -1.5000    0.0000    0.0000 C   0  0  0  0  0  0  0  0  0  0  0  0
   -0.7500   -1.2990    0.0000 C   0  0  0  0  0  0  0  0  0  0  0  0
    1.5000   -5.1962    0.0000 C   0  0  0  0  0  0  0  0  0  0  0  0
    0.7500   -6.4952    0.0000 C   0  0  0  0  0  0  0  0  0  0  0  0
    1.5000   -7.7942    0.0000 C   0  0  0  0  0  0  0  0  0  0  0  0
    3.0000   -7.7942    0.0000 N   0  0  0  0  0  0  0  0  0  0  0  0
    3.7500   -9.0933    0.0000 C   0  0  0  0  0  0  0  0  0  0  0  0
    5.2500   -9.0933    0.0000 O   0  0  0  0  0  0  0  0  0  0  0  0
    3.0000  -10.3923    0.0000 C   0  0  0  0  0  0  0  0  0  0  0  0
    1.5000  -10.3923    0.0000 C   0  0  0  0  0  0  0  0  0  0  0  0
    0.7500  -11.6913    0.0000 C   0  0  0  0  0  0  0  0  0  0  0  0
    1.5000  -12.9904    0.0000 C   0  0  0  0  0  0  0  0  0  0  0  0
    3.0000  -12.9904    0.0000 C   0  0  0  0  0  0  0  0  0  0  0  0
    3.7500  -11.6913    0.0000 C   0  0  0  0  0  0  0  0  0  0  0  0
    3.7500   -6.4952    0.0000 C   0  0  0  0  0  0  0  0  0  0  0  0
    3.0000   -5.1962    0.0000 C   0  0  0  0  0  0  0  0  0  0  0  0
  1  2  2  0
  2  3  1  0
  3  4  1  0
  4  5  2  0
  5  6  1  0
  6  7  2  0
  7  8  1  0
  8  9  2  0
  2 10  1  0
 10 11  1  0
 11 12  1  0
 12 13  1  0
 13 14  1  0
 14 15  2  0
 14 16  1  0
 16 17  2  0
 17 18  1  0
 18 19  2  0
 19 20  1  0
 20 21  2  0
 13 22  1  0
 22 23  1  0
  9  4  1  0
 23 10  1  0
 21 16  1  0
M  END
>  <Title>  (1364) 
idABYNgen6

$$$$

     RDKit          2D

 11 11  0  0  0  0  0  0  0  0999 V2000
    2.6621    0.0000    0.0000 C   0  0  0  0  0  0  0  0  0  0  0  0
    2.2395    1.4392    0.0000 C   0  0  0  0  0  0  0  0  0  0  0  0
    1.1059    2.4215    0.0000 C   0  0  0  0  0  0  0  0  0  0  0  0
   -0.3789    2.6350    0.0000 C   0  0  0  0  0  0  0  0  0  0  0  0
   -1.7433    2.0119    0.0000 C   0  0  0  0  0  0  0  0  0  0  0  0
   -2.5543    0.7500    0.0000 C   0  0  0  0  0  0  0  0  0  0  0  0
   -2.5543   -0.7500    0.0000 C   0  0  0  0  0  0  0  0  0  0  0  0
   -1.7433   -2.0119    0.0000 C   0  0  0  0  0  0  0  0  0  0  0  0
   -0.3789   -2.6350    0.0000 C   0  0  0  0  0  0  0  0  0  0  0  0
    1.1059   -2.4215    0.0000 C   0  0  0  0  0  0  0  0  0  0  0  0
    2.2395   -1.4392    0.0000 C   0  0  0  0  0  0  0  0  0  0  0  0
  1  2  1  0
  2  3  1  0
  3  4  1  0
  4  5  1  0
  5  6  1  0
  6  7  1  0
  7  8  1  0
  8  9  1  0
  9 10  1  0
 10 11  1  0
 11  1  1  0
M  END
>  <Title>  (1365) 
idABYOgen6

$$$$

     RDKit          2D

 17 18  0  0  0  0  0  0  0  0999 V2000
    3.0613   -9.9436    0.0000 O   0  0  0  0  0  0  0  0  0  0  0  0
    1.8478   -9.0619    0.0000 C   0  0  0  0  0  0  0  0  0  0  0  0
    0.4775   -9.6721    0.0000 O   0  0  0  0  0  0  0  0  0  0  0  0
    2.0046   -7.5702    0.0000 C   0  0  0  0  0  0  0  0  0  0  0  0
    3.3037   -6.8202    0.0000 C   0  0  0  0  0  0  0  0  0  0  0  0
    2.9918   -5.3529    0.0000 C   0  0  0  0  0  0  0  0  0  0  0  0
    1.5000   -5.1962    0.0000 N   0  0  0  0  0  0  0  0  0  0  0  0
    0.7500   -3.8971    0.0000 C   0  0  0  0  0  0  0  0  0  0  0  0
   -0.7500   -3.8971    0.0000 O   0  0  0  0  0  0  0  0  0  0  0  0
    1.5000   -2.5981    0.0000 N   0  0  0  0  0  0  0  0  0  0  0  0
    0.7500   -1.2990    0.0000 C   0  0  0  0  0  0  0  0  0  0  0  0
    1.5000    0.0000    0.0000 C   0  0  0  0  0  0  0  0  0  0  0  0
    0.7500    1.2990    0.0000 C   0  0  0  0  0  0  0  0  0  0  0  0
   -0.7500    1.2990    0.0000 C   0  0  0  0  0  0  0  0  0  0  0  0
   -1.5000    0.0000    0.0000 C   0  0  0  0  0  0  0  0  0  0  0  0
   -0.7500   -1.2990    0.0000 C   0  0  0  0  0  0  0  0  0  0  0  0
    0.8899   -6.5665    0.0000 C   0  0  0  0  0  0  0  0  0  0  0  0
  1  2  2  0
  2  3  1  0
  2  4  1  0
  4  5  1  0
  5  6  1  0
  6  7  1  0
  7  8  1  0
  8  9  2  0
  8 10  1  0
 10 11  1  0
 11 12  2  0
 12 13  1  0
 13 14  2  0
 14 15  1  0
 15 16  2  0
  7 17  1  0
 17  4  1  0
 16 11  1  0
M  END
>  <Title>  (1366) 
idABYPgen6

$$$$

     RDKit          2D

 20 22  0  0  0  0  0  0  0  0999 V2000
    3.0000   -2.5981    0.0000 O   0  0  0  0  0  0  0  0  0  0  0  0
    1.5000   -2.5981    0.0000 C   0  0  0  0  0  0  0  0  0  0  0  0
    0.7500   -3.8971    0.0000 N   0  0  0  0  0  0  0  0  0  0  0  0
    1.5000   -5.1962    0.0000 C   0  0  0  0  0  0  0  0  0  0  0  0
    2.9918   -5.3529    0.0000 C   0  0  0  0  0  0  0  0  0  0  0  0
    3.3037   -6.8202    0.0000 C   0  0  0  0  0  0  0  0  0  0  0  0
    2.0046   -7.5702    0.0000 C   0  0  0  0  0  0  0  0  0  0  0  0
    0.8899   -6.5665    0.0000 C   0  0  0  0  0  0  0  0  0  0  0  0
    0.7500   -1.2990    0.0000 C   0  0  0  0  0  0  0  0  0  0  0  0
    1.5000    0.0000    0.0000 C   0  0  0  0  0  0  0  0  0  0  0  0
    0.7500    1.2990    0.0000 C   0  0  0  0  0  0  0  0  0  0  0  0
   -0.7500    1.2990    0.0000 C   0  0  0  0  0  0  0  0  0  0  0  0
   -1.5000    2.5981    0.0000 N   0  0  0  0  0  0  0  0  0  0  0  0
   -2.9918    2.7549    0.0000 C   0  0  0  0  0  0  0  0  0  0  0  0
   -3.3037    4.2221    0.0000 C   0  0  0  0  0  0  0  0  0  0  0  0
   -2.0046    4.9721    0.0000 C   0  0  0  0  0  0  0  0  0  0  0  0
   -0.8899    3.9684    0.0000 C   0  0  0  0  0  0  0  0  0  0  0  0
    0.5773    4.2803    0.0000 O   0  0  0  0  0  0  0  0  0  0  0  0
   -1.5000    0.0000    0.0000 C   0  0  0  0  0  0  0  0  0  0  0  0
   -0.7500   -1.2990    0.0000 C   0  0  0  0  0  0  0  0  0  0  0  0
  1  2  2  0
  2  3  1  0
  3  4  1  0
  4  5  2  0
  5  6  1  0
  6  7  2  0
  7  8  1  0
  2  9  1  0
  9 10  1  0
 10 11  1  0
 11 12  1  0
 12 13  1  0
 13 14  1  0
 14 15  1  0
 15 16  1  0
 16 17  1  0
 17 18  2  0
 12 19  1  0
 19 20  1  0
  8  4  1  0
 20  9  1  0
 17 13  1  0
M  END
>  <Title>  (1367) 
idABYQgen6

$$$$

     RDKit          2D

 32 36  0  0  0  0  0  0  0  0999 V2000
   -2.3737   -6.1885    0.0000 C   0  0  0  0  0  0  0  0  0  0  0  0
   -1.4095   -5.0395    0.0000 C   0  0  0  0  0  0  0  0  0  0  0  0
   -0.0000   -5.5525    0.0000 C   0  0  0  0  0  0  0  0  0  0  0  0
    1.4095   -5.0395    0.0000 C   0  0  0  0  0  0  0  0  0  0  0  0
    2.1595   -3.7404    0.0000 C   0  0  0  0  0  0  0  0  0  0  0  0
    1.8991   -2.2632    0.0000 C   0  0  0  0  0  0  0  0  0  0  0  0
    3.1981   -1.5132    0.0000 C   0  0  0  0  0  0  0  0  0  0  0  0
    3.1981   -0.0132    0.0000 O   0  0  0  0  0  0  0  0  0  0  0  0
    4.4971   -2.2632    0.0000 N   0  0  0  0  0  0  0  0  0  0  0  0
    5.7962   -1.5132    0.0000 C   0  0  0  0  0  0  0  0  0  0  0  0
    5.9530   -0.0214    0.0000 N   0  0  0  0  0  0  0  0  0  0  0  0
    7.4202    0.2904    0.0000 N   0  0  0  0  0  0  0  0  0  0  0  0
    8.1702   -1.0086    0.0000 N   0  0  0  0  0  0  0  0  0  0  0  0
    7.1665   -2.1233    0.0000 N   0  0  0  0  0  0  0  0  0  0  0  0
    7.4784   -3.5905    0.0000 N   0  0  0  0  0  0  0  0  0  0  0  0
    8.8487   -4.2007    0.0000 C   0  0  0  0  0  0  0  0  0  0  0  0
    8.6919   -5.6924    0.0000 C   0  0  0  0  0  0  0  0  0  0  0  0
    7.2247   -6.0043    0.0000 C   0  0  0  0  0  0  0  0  0  0  0  0
    6.4747   -4.7053    0.0000 C   0  0  0  0  0  0  0  0  0  0  0  0
    4.9829   -4.5485    0.0000 O   0  0  0  0  0  0  0  0  0  0  0  0
    0.7500   -1.2990    0.0000 C   0  0  0  0  0  0  0  0  0  0  0  0
    1.5000    0.0000    0.0000 C   0  0  0  0  0  0  0  0  0  0  0  0
    0.7500    1.2990    0.0000 C   0  0  0  0  0  0  0  0  0  0  0  0
   -0.7500    1.2990    0.0000 C   0  0  0  0  0  0  0  0  0  0  0  0
   -1.5000    0.0000    0.0000 C   0  0  0  0  0  0  0  0  0  0  0  0
   -0.7500   -1.2990    0.0000 C   0  0  0  0  0  0  0  0  0  0  0  0
   -1.8991   -2.2632    0.0000 C   0  0  0  0  0  0  0  0  0  0  0  0
   -3.0481   -1.2990    0.0000 C   0  0  0  0  0  0  0  0  0  0  0  0
   -4.4577   -1.8121    0.0000 C   0  0  0  0  0  0  0  0  0  0  0  0
   -4.7181   -3.2893    0.0000 C   0  0  0  0  0  0  0  0  0  0  0  0
   -3.5691   -4.2535    0.0000 C   0  0  0  0  0  0  0  0  0  0  0  0
   -2.1595   -3.7404    0.0000 C   0  0  0  0  0  0  0  0  0  0  0  0
  1  2  1  0
  2  3  1  0
  3  4  2  0
  4  5  1  0
  5  6  1  0
  6  7  1  0
  7  8  2  0
  7  9  1  0
  9 10  1  0
 10 11  2  0
 11 12  1  0
 12 13  2  0
 13 14  1  0
 14 15  1  0
 15 16  1  0
 16 17  1  0
 17 18  1  0
 18 19  1  0
 19 20  2  0
  6 21  1  0
 21 22  2  0
 22 23  1  0
 23 24  2  0
 24 25  1  0
 25 26  2  0
 26 27  1  0
 27 28  2  0
 28 29  1  0
 29 30  2  0
 30 31  1  0
 31 32  2  0
 32  2  1  0
 14 10  1  0
 19 15  1  0
 26 21  1  0
 32 27  1  0
M  END
>  <Title>  (1368) 
idABYRgen6

$$$$

     RDKit          2D

 16 16  0  0  0  0  0  0  0  0999 V2000
    3.8444    0.0000    0.0000 C   0  0  0  0  0  0  0  0  0  0  0  0
    3.5517   -1.4712    0.0000 C   0  0  0  0  0  0  0  0  0  0  0  0
    2.7184   -2.7184    0.0000 C   0  0  0  0  0  0  0  0  0  0  0  0
    1.4712   -3.5517    0.0000 C   0  0  0  0  0  0  0  0  0  0  0  0
   -0.0000   -3.8444    0.0000 C   0  0  0  0  0  0  0  0  0  0  0  0
   -1.4712   -3.5517    0.0000 C   0  0  0  0  0  0  0  0  0  0  0  0
   -2.7184   -2.7184    0.0000 C   0  0  0  0  0  0  0  0  0  0  0  0
   -3.5517   -1.4712    0.0000 C   0  0  0  0  0  0  0  0  0  0  0  0
   -3.8444    0.0000    0.0000 C   0  0  0  0  0  0  0  0  0  0  0  0
   -3.5517    1.4712    0.0000 C   0  0  0  0  0  0  0  0  0  0  0  0
   -2.7184    2.7184    0.0000 C   0  0  0  0  0  0  0  0  0  0  0  0
   -1.4712    3.5517    0.0000 C   0  0  0  0  0  0  0  0  0  0  0  0
    0.0000    3.8444    0.0000 C   0  0  0  0  0  0  0  0  0  0  0  0
    1.4712    3.5517    0.0000 C   0  0  0  0  0  0  0  0  0  0  0  0
    2.7184    2.7184    0.0000 C   0  0  0  0  0  0  0  0  0  0  0  0
    3.5517    1.4712    0.0000 C   0  0  0  0  0  0  0  0  0  0  0  0
  1  2  1  0
  2  3  1  0
  3  4  1  0
  4  5  1  0
  5  6  1  0
  6  7  1  0
  7  8  1  0
  8  9  1  0
  9 10  1  0
 10 11  1  0
 11 12  1  0
 12 13  1  0
 13 14  1  0
 14 15  1  0
 15 16  1  0
 16  1  1  0
M  END
>  <Title>  (1369) 
idABYSgen6

$$$$

     RDKit          2D

 26 28  0  0  0  0  0  0  0  0999 V2000
    4.3857  -10.2444    0.0000 C   0  0  0  0  0  0  0  0  0  0  0  0
    5.5758   -9.3312    0.0000 C   0  0  0  0  0  0  0  0  0  0  0  0
    6.7658   -8.4181    0.0000 C   0  0  0  0  0  0  0  0  0  0  0  0
    6.4889  -10.5213    0.0000 C   0  0  0  0  0  0  0  0  0  0  0  0
    4.6626   -8.1412    0.0000 C   0  0  0  0  0  0  0  0  0  0  0  0
    3.7495   -6.9512    0.0000 C   0  0  0  0  0  0  0  0  0  0  0  0
    2.8363   -5.7611    0.0000 C   0  0  0  0  0  0  0  0  0  0  0  0
    1.3874   -6.1494    0.0000 C   0  0  0  0  0  0  0  0  0  0  0  0
    0.0000   -5.5525    0.0000 C   0  0  0  0  0  0  0  0  0  0  0  0
    1.4095   -5.0395    0.0000 C   0  0  0  0  0  0  0  0  0  0  0  0
    2.1595   -3.7404    0.0000 C   0  0  0  0  0  0  0  0  0  0  0  0
    1.8991   -2.2632    0.0000 C   0  0  0  0  0  0  0  0  0  0  0  0
    3.1981   -3.0132    0.0000 N   0  0  0  0  0  0  0  0  0  0  0  0
    3.5863   -4.4621    0.0000 C   0  0  0  0  0  0  0  0  0  0  0  0
    5.0735   -4.6579    0.0000 O   0  0  0  0  0  0  0  0  0  0  0  0
    0.7500   -1.2990    0.0000 C   0  0  0  0  0  0  0  0  0  0  0  0
    1.5000    0.0000    0.0000 C   0  0  0  0  0  0  0  0  0  0  0  0
    0.7500    1.2990    0.0000 C   0  0  0  0  0  0  0  0  0  0  0  0
    1.5000    2.5981    0.0000 O   0  0  0  0  0  0  0  0  0  0  0  0
   -0.7500    1.2990    0.0000 C   0  0  0  0  0  0  0  0  0  0  0  0
   -1.5000    0.0000    0.0000 C   0  0  0  0  0  0  0  0  0  0  0  0
   -0.7500   -1.2990    0.0000 C   0  0  0  0  0  0  0  0  0  0  0  0
   -1.8991   -2.2632    0.0000 N   0  0  0  0  0  0  0  0  0  0  0  0
   -2.1595   -3.7404    0.0000 C   0  0  0  0  0  0  0  0  0  0  0  0
   -3.6368   -4.0009    0.0000 O   0  0  0  0  0  0  0  0  0  0  0  0
   -1.4095   -5.0395    0.0000 N   0  0  0  0  0  0  0  0  0  0  0  0
  1  2  1  0
  2  3  1  0
  2  4  1  0
  2  5  1  0
  5  6  3  0
  6  7  1  0
  7  8  1  0
  8  9  1  0
  9 10  2  0
 10 11  1  0
 11 12  2  0
 12 13  1  0
 13 14  1  0
 14 15  2  0
 12 16  1  0
 16 17  2  0
 17 18  1  0
 18 19  1  0
 18 20  2  0
 20 21  1  0
 21 22  2  0
 22 23  1  0
 23 24  1  0
 24 25  2  0
 24 26  1  0
 14  7  1  0
 22 16  1  0
 26  9  1  0
M  END
>  <Title>  (1370) 
idABYTgen6

$$$$

     RDKit          2D

 34 39  0  0  0  0  0  0  0  0999 V2000
   -6.1972   -1.3998    0.0000 O   0  0  0  0  0  0  0  0  0  0  0  0
   -5.0071   -0.4866    0.0000 C   0  0  0  0  0  0  0  0  0  0  0  0
   -3.6213   -1.0607    0.0000 C   0  0  0  0  0  0  0  0  0  0  0  0
   -3.6213   -2.5607    0.0000 C   0  0  0  0  0  0  0  0  0  0  0  0
   -2.5607   -3.6213    0.0000 C   0  0  0  0  0  0  0  0  0  0  0  0
   -1.0607   -3.6213    0.0000 C   0  0  0  0  0  0  0  0  0  0  0  0
    0.0000   -2.5607    0.0000 C   0  0  0  0  0  0  0  0  0  0  0  0
   -0.0000   -1.0607    0.0000 C   0  0  0  0  0  0  0  0  0  0  0  0
    1.0607    0.0000    0.0000 O   0  0  0  0  0  0  0  0  0  0  0  0
    0.0000    1.0607    0.0000 C   0  0  0  0  0  0  0  0  0  0  0  0
   -1.0607    0.0000    0.0000 C   0  0  0  0  0  0  0  0  0  0  0  0
   -2.5607    0.0000    0.0000 C   0  0  0  0  0  0  0  0  0  0  0  0
   -5.2029    1.0005    0.0000 N   0  0  0  0  0  0  0  0  0  0  0  0
   -4.0129    1.9137    0.0000 C   0  0  0  0  0  0  0  0  0  0  0  0
   -4.2087    3.4008    0.0000 C   0  0  0  0  0  0  0  0  0  0  0  0
   -5.5945    3.9749    0.0000 C   0  0  0  0  0  0  0  0  0  0  0  0
   -5.7903    5.4620    0.0000 N   0  0  0  0  0  0  0  0  0  0  0  0
   -7.1085    6.1778    0.0000 C   0  0  0  0  0  0  0  0  0  0  0  0
   -6.8352    7.6527    0.0000 C   0  0  0  0  0  0  0  0  0  0  0  0
   -5.3480    7.8484    0.0000 C   0  0  0  0  0  0  0  0  0  0  0  0
   -4.6323    9.1667    0.0000 N   0  0  0  0  0  0  0  0  0  0  0  0
   -5.2780   10.5205    0.0000 C   0  0  0  0  0  0  0  0  0  0  0  0
   -4.1900   11.5531    0.0000 C   0  0  0  0  0  0  0  0  0  0  0  0
   -2.8717   10.8373    0.0000 C   0  0  0  0  0  0  0  0  0  0  0  0
   -1.5179   11.4831    0.0000 C   0  0  0  0  0  0  0  0  0  0  0  0
   -0.2817   10.6335    0.0000 C   0  0  0  0  0  0  0  0  0  0  0  0
    1.0722   11.2793    0.0000 C   0  0  0  0  0  0  0  0  0  0  0  0
    1.1899   12.7746    0.0000 C   0  0  0  0  0  0  0  0  0  0  0  0
   -0.0463   13.6243    0.0000 C   0  0  0  0  0  0  0  0  0  0  0  0
   -1.4002   12.9785    0.0000 C   0  0  0  0  0  0  0  0  0  0  0  0
   -3.1451    9.3625    0.0000 C   0  0  0  0  0  0  0  0  0  0  0  0
   -4.7022    6.4946    0.0000 C   0  0  0  0  0  0  0  0  0  0  0  0
   -6.7845    3.0617    0.0000 C   0  0  0  0  0  0  0  0  0  0  0  0
   -6.5887    1.5746    0.0000 C   0  0  0  0  0  0  0  0  0  0  0  0
  1  2  2  0
  2  3  1  0
  3  4  2  0
  4  5  1  0
  5  6  2  0
  6  7  1  0
  7  8  2  0
  8  9  1  0
  9 10  1  0
 10 11  1  0
 11 12  2  0
  2 13  1  0
 13 14  1  0
 14 15  1  0
 15 16  1  0
 16 17  1  0
 17 18  1  0
 18 19  1  0
 19 20  1  0
 20 21  1  0
 21 22  1  0
 22 23  1  0
 23 24  1  0
 24 25  1  0
 25 26  2  0
 26 27  1  0
 27 28  2  0
 28 29  1  0
 29 30  2  0
 24 31  1  0
 20 32  1  0
 16 33  1  0
 33 34  1  0
 12  3  1  0
 34 13  1  0
 11  8  1  0
 32 17  1  0
 31 21  1  0
 30 25  1  0
M  END
>  <Title>  (1371) 
idABYUgen6

$$$$

     RDKit          2D

 24 26  0  0  0  0  0  0  0  0999 V2000
    1.5000   -7.7942    0.0000 C   0  0  0  0  0  0  0  0  0  0  0  0
    0.7500   -6.4952    0.0000 C   0  0  0  0  0  0  0  0  0  0  0  0
   -0.7500   -6.4952    0.0000 O   0  0  0  0  0  0  0  0  0  0  0  0
    1.5000   -5.1962    0.0000 C   0  0  0  0  0  0  0  0  0  0  0  0
    3.0000   -5.1962    0.0000 O   0  0  0  0  0  0  0  0  0  0  0  0
    0.7500   -3.8971    0.0000 C   0  0  0  0  0  0  0  0  0  0  0  0
    1.5000   -2.5981    0.0000 C   0  0  0  0  0  0  0  0  0  0  0  0
    0.7500   -1.2990    0.0000 C   0  0  0  0  0  0  0  0  0  0  0  0
    1.5000    0.0000    0.0000 C   0  0  0  0  0  0  0  0  0  0  0  0
    0.7500    1.2990    0.0000 C   0  0  0  0  0  0  0  0  0  0  0  0
   -0.7500    1.2990    0.0000 C   0  0  0  0  0  0  0  0  0  0  0  0
   -1.5000    0.0000    0.0000 C   0  0  0  0  0  0  0  0  0  0  0  0
   -0.7500   -1.2990    0.0000 C   0  0  0  0  0  0  0  0  0  0  0  0
   -0.7500   -3.8971    0.0000 N   0  0  0  0  0  0  0  0  0  0  0  0
   -1.5000   -2.5981    0.0000 C   0  0  0  0  0  0  0  0  0  0  0  0
   -3.0000   -2.5981    0.0000 C   0  0  0  0  0  0  0  0  0  0  0  0
   -3.7500   -3.8971    0.0000 C   0  0  0  0  0  0  0  0  0  0  0  0
   -5.2500   -3.8971    0.0000 N   0  0  0  0  0  0  0  0  0  0  0  0
   -6.1317   -5.1106    0.0000 C   0  0  0  0  0  0  0  0  0  0  0  0
   -7.5583   -4.6471    0.0000 C   0  0  0  0  0  0  0  0  0  0  0  0
   -7.5583   -3.1471    0.0000 C   0  0  0  0  0  0  0  0  0  0  0  0
   -6.1317   -2.6836    0.0000 C   0  0  0  0  0  0  0  0  0  0  0  0
   -3.0000   -5.1962    0.0000 C   0  0  0  0  0  0  0  0  0  0  0  0
   -1.5000   -5.1962    0.0000 C   0  0  0  0  0  0  0  0  0  0  0  0
  1  2  1  0
  2  3  2  0
  2  4  1  0
  4  5  2  0
  4  6  1  0
  6  7  1  0
  7  8  1  0
  8  9  2  0
  9 10  1  0
 10 11  2  0
 11 12  1  0
 12 13  2  0
  6 14  1  0
 14 15  1  0
 15 16  1  0
 16 17  1  0
 17 18  1  0
 18 19  1  0
 19 20  1  0
 20 21  1  0
 21 22  1  0
 17 23  1  0
 23 24  1  0
 13  8  1  0
 24 14  1  0
 22 18  1  0
M  END
>  <Title>  (1372) 
idABYVgen6

$$$$

     RDKit          2D

 15 16  0  0  0  0  0  0  0  0999 V2000
   -5.1814   -2.6490    0.0000 C   0  0  0  0  0  0  0  0  0  0  0  0
   -3.7548   -2.1855    0.0000 C   0  0  0  0  0  0  0  0  0  0  0  0
   -3.4430   -0.7182    0.0000 O   0  0  0  0  0  0  0  0  0  0  0  0
   -2.6401   -3.1891    0.0000 C   0  0  0  0  0  0  0  0  0  0  0  0
   -1.2135   -2.7256    0.0000 N   0  0  0  0  0  0  0  0  0  0  0  0
   -0.0000   -3.6073    0.0000 C   0  0  0  0  0  0  0  0  0  0  0  0
   -0.0000   -5.1073    0.0000 O   0  0  0  0  0  0  0  0  0  0  0  0
    1.2135   -2.7256    0.0000 O   0  0  0  0  0  0  0  0  0  0  0  0
    0.7500   -1.2990    0.0000 C   0  0  0  0  0  0  0  0  0  0  0  0
    1.5000    0.0000    0.0000 C   0  0  0  0  0  0  0  0  0  0  0  0
    0.7500    1.2990    0.0000 C   0  0  0  0  0  0  0  0  0  0  0  0
   -0.7500    1.2990    0.0000 C   0  0  0  0  0  0  0  0  0  0  0  0
   -1.5000    2.5981    0.0000 O   0  0  0  0  0  0  0  0  0  0  0  0
   -1.5000    0.0000    0.0000 C   0  0  0  0  0  0  0  0  0  0  0  0
   -0.7500   -1.2990    0.0000 C   0  0  0  0  0  0  0  0  0  0  0  0
  1  2  1  0
  2  3  2  0
  2  4  1  0
  4  5  1  0
  5  6  1  0
  6  7  2  0
  6  8  1  0
  8  9  1  0
  9 10  2  0
 10 11  1  0
 11 12  2  0
 12 13  1  0
 12 14  1  0
 14 15  2  0
 15  5  1  0
 15  9  1  0
M  END
>  <Title>  (1373) 
idABYWgen6

$$$$

     RDKit          2D

  8  8  0  0  0  0  0  0  0  0999 V2000
    3.5260   -1.2990    0.0000 C   0  0  0  0  0  0  0  0  0  0  0  0
    2.7760    0.0000    0.0000 O   0  0  0  0  0  0  0  0  0  0  0  0
    1.2760    0.0000    0.0000 C   0  0  0  0  0  0  0  0  0  0  0  0
    0.3943    1.2135    0.0000 C   0  0  0  0  0  0  0  0  0  0  0  0
    0.8578    2.6401    0.0000 C   0  0  0  0  0  0  0  0  0  0  0  0
   -1.0323    0.7500    0.0000 C   0  0  0  0  0  0  0  0  0  0  0  0
   -1.0323   -0.7500    0.0000 O   0  0  0  0  0  0  0  0  0  0  0  0
    0.3943   -1.2135    0.0000 C   0  0  0  0  0  0  0  0  0  0  0  0
  1  2  1  0
  2  3  1  0
  3  4  2  0
  4  5  1  0
  4  6  1  0
  6  7  1  0
  7  8  1  0
  8  3  1  0
M  END
>  <Title>  (1374) 
idABYXgen6

$$$$

     RDKit          2D

 28 31  0  0  0  0  0  0  0  0999 V2000
   -3.4268    0.1972    0.0000 C   0  0  0  0  0  0  0  0  0  0  0  0
   -2.4231    1.3119    0.0000 C   0  0  0  0  0  0  0  0  0  0  0  0
   -3.1273    2.6363    0.0000 C   0  0  0  0  0  0  0  0  0  0  0  0
   -2.8154    4.1036    0.0000 C   0  0  0  0  0  0  0  0  0  0  0  0
   -1.6334    5.0270    0.0000 C   0  0  0  0  0  0  0  0  0  0  0  0
   -2.0969    6.4536    0.0000 N   0  0  0  0  0  0  0  0  0  0  0  0
   -1.0932    7.5683    0.0000 C   0  0  0  0  0  0  0  0  0  0  0  0
    0.3740    7.2565    0.0000 O   0  0  0  0  0  0  0  0  0  0  0  0
   -1.5567    8.9949    0.0000 C   0  0  0  0  0  0  0  0  0  0  0  0
   -0.5530   10.1096    0.0000 N   0  0  0  0  0  0  0  0  0  0  0  0
    0.9387    9.9529    0.0000 C   0  0  0  0  0  0  0  0  0  0  0  0
    1.6887    8.6538    0.0000 O   0  0  0  0  0  0  0  0  0  0  0  0
    1.5488   11.3232    0.0000 O   0  0  0  0  0  0  0  0  0  0  0  0
    0.4341   12.3269    0.0000 C   0  0  0  0  0  0  0  0  0  0  0  0
    0.4341   13.8269    0.0000 C   0  0  0  0  0  0  0  0  0  0  0  0
   -0.8649   14.5769    0.0000 C   0  0  0  0  0  0  0  0  0  0  0  0
   -2.1640   13.8269    0.0000 C   0  0  0  0  0  0  0  0  0  0  0  0
   -2.1640   12.3269    0.0000 C   0  0  0  0  0  0  0  0  0  0  0  0
   -0.8649   11.5769    0.0000 C   0  0  0  0  0  0  0  0  0  0  0  0
   -0.1343    4.9747    0.0000 C   0  0  0  0  0  0  0  0  0  0  0  0
    0.9804    3.9710    0.0000 C   0  0  0  0  0  0  0  0  0  0  0  0
    1.1892    2.4856    0.0000 C   0  0  0  0  0  0  0  0  0  0  0  0
    0.3943    1.2135    0.0000 C   0  0  0  0  0  0  0  0  0  0  0  0
    1.2760    0.0000    0.0000 C   0  0  0  0  0  0  0  0  0  0  0  0
    0.3943   -1.2135    0.0000 C   0  0  0  0  0  0  0  0  0  0  0  0
   -1.0323   -0.7500    0.0000 C   0  0  0  0  0  0  0  0  0  0  0  0
   -2.2458   -1.6317    0.0000 O   0  0  0  0  0  0  0  0  0  0  0  0
   -1.0323    0.7500    0.0000 N   0  0  0  0  0  0  0  0  0  0  0  0
  1  2  1  0
  2  3  1  0
  3  4  1  0
  4  5  1  0
  5  6  1  0
  6  7  1  0
  7  8  2  0
  7  9  1  0
  9 10  1  0
 10 11  1  0
 11 12  2  0
 11 13  1  0
 13 14  1  0
 14 15  2  0
 15 16  1  0
 16 17  2  0
 17 18  1  0
 18 19  2  0
  5 20  1  0
 20 21  2  0
 21 22  1  0
 22 23  2  0
 23 24  1  0
 24 25  1  0
 25 26  1  0
 26 27  2  0
 26 28  1  0
 28  2  1  0
 19 10  1  0
 28 23  1  0
 19 14  1  0
M  END
>  <Title>  (1375) 
idABYYgen6

$$$$

     RDKit          2D

 18 18  0  0  0  0  0  0  0  0999 V2000
    7.5000   -2.5981    0.0000 C   0  0  0  0  0  0  0  0  0  0  0  0
    6.0000   -2.5981    0.0000 C   0  0  0  0  0  0  0  0  0  0  0  0
    5.2500   -3.8971    0.0000 O   0  0  0  0  0  0  0  0  0  0  0  0
    5.2500   -1.2990    0.0000 C   0  0  0  0  0  0  0  0  0  0  0  0
    6.0000    0.0000    0.0000 C   0  0  0  0  0  0  0  0  0  0  0  0
    5.2500    1.2990    0.0000 O   0  0  0  0  0  0  0  0  0  0  0  0
    7.5000   -0.0000    0.0000 O   0  0  0  0  0  0  0  0  0  0  0  0
    3.7500   -1.2990    0.0000 C   0  0  0  0  0  0  0  0  0  0  0  0
    3.0000    0.0000    0.0000 N   0  0  0  0  0  0  0  0  0  0  0  0
    1.5000    0.0000    0.0000 C   0  0  0  0  0  0  0  0  0  0  0  0
    0.7500   -1.2990    0.0000 C   0  0  0  0  0  0  0  0  0  0  0  0
   -0.7500   -1.2990    0.0000 C   0  0  0  0  0  0  0  0  0  0  0  0
   -1.5000    0.0000    0.0000 C   0  0  0  0  0  0  0  0  0  0  0  0
   -0.7500    1.2990    0.0000 C   0  0  0  0  0  0  0  0  0  0  0  0
    0.7500    1.2990    0.0000 C   0  0  0  0  0  0  0  0  0  0  0  0
    3.0000   -2.5981    0.0000 C   0  0  0  0  0  0  0  0  0  0  0  0
    1.5000   -2.5981    0.0000 O   0  0  0  0  0  0  0  0  0  0  0  0
    3.7500   -3.8971    0.0000 O   0  0  0  0  0  0  0  0  0  0  0  0
  1  2  1  0
  2  3  2  0
  2  4  1  0
  4  5  1  0
  5  6  2  0
  5  7  1  0
  4  8  1  0
  8  9  1  0
  9 10  1  0
 10 11  2  0
 11 12  1  0
 12 13  2  0
 13 14  1  0
 14 15  2  0
  8 16  1  0
 16 17  2  0
 16 18  1  0
 15 10  1  0
M  END
>  <Title>  (1376) 
idABYZgen6

$$$$

     RDKit          2D

 33 35  0  0  0  0  0  0  0  0999 V2000
  -17.1900    0.5765    0.0000 C   0  0  0  0  0  0  0  0  0  0  0  0
  -15.8313    1.2121    0.0000 C   0  0  0  0  0  0  0  0  0  0  0  0
  -15.7024    2.7066    0.0000 O   0  0  0  0  0  0  0  0  0  0  0  0
  -14.6015    0.3533    0.0000 O   0  0  0  0  0  0  0  0  0  0  0  0
  -13.2428    0.9889    0.0000 C   0  0  0  0  0  0  0  0  0  0  0  0
  -13.1139    2.4834    0.0000 O   0  0  0  0  0  0  0  0  0  0  0  0
  -12.0130    0.1301    0.0000 C   0  0  0  0  0  0  0  0  0  0  0  0
  -10.6543    0.7657    0.0000 C   0  0  0  0  0  0  0  0  0  0  0  0
   -9.4245   -0.0931    0.0000 C   0  0  0  0  0  0  0  0  0  0  0  0
   -9.5534   -1.5876    0.0000 O   0  0  0  0  0  0  0  0  0  0  0  0
   -8.0659    0.5425    0.0000 N   0  0  0  0  0  0  0  0  0  0  0  0
   -8.1332    2.0410    0.0000 C   0  0  0  0  0  0  0  0  0  0  0  0
   -7.1212    3.1482    0.0000 C   0  0  0  0  0  0  0  0  0  0  0  0
   -5.6488    3.7965    0.0000 C   0  0  0  0  0  0  0  0  0  0  0  0
   -4.5192    4.7834    0.0000 C   0  0  0  0  0  0  0  0  0  0  0  0
   -3.0732    5.1824    0.0000 C   0  0  0  0  0  0  0  0  0  0  0  0
   -1.5973    4.9146    0.0000 C   0  0  0  0  0  0  0  0  0  0  0  0
   -0.3838    4.0329    0.0000 C   0  0  0  0  0  0  0  0  0  0  0  0
    0.3270    2.7120    0.0000 C   0  0  0  0  0  0  0  0  0  0  0  0
    0.3943    1.2135    0.0000 C   0  0  0  0  0  0  0  0  0  0  0  0
    1.2760    0.0000    0.0000 C   0  0  0  0  0  0  0  0  0  0  0  0
    0.3943   -1.2135    0.0000 C   0  0  0  0  0  0  0  0  0  0  0  0
   -1.0323   -0.7500    0.0000 C   0  0  0  0  0  0  0  0  0  0  0  0
   -1.0323    0.7500    0.0000 C   0  0  0  0  0  0  0  0  0  0  0  0
   -2.7708   -1.5517    0.0000 N   0  0  0  0  0  0  0  0  0  0  0  0
   -4.2467   -1.2839    0.0000 C   0  0  0  0  0  0  0  0  0  0  0  0
   -4.8362   -2.6632    0.0000 O   0  0  0  0  0  0  0  0  0  0  0  0
   -5.4602   -0.4022    0.0000 C   0  0  0  0  0  0  0  0  0  0  0  0
   -6.1710    0.9187    0.0000 N   0  0  0  0  0  0  0  0  0  0  0  0
   -6.2383    2.4172    0.0000 C   0  0  0  0  0  0  0  0  0  0  0  0
   -7.2799    2.0843    0.0000 O   0  0  0  0  0  0  0  0  0  0  0  0
   -6.9587   -0.4695    0.0000 C   0  0  0  0  0  0  0  0  0  0  0  0
   -7.4700   -1.8797    0.0000 O   0  0  0  0  0  0  0  0  0  0  0  0
  1  2  1  0
  2  3  2  0
  2  4  1  0
  4  5  1  0
  5  6  2  0
  5  7  1  0
  7  8  1  0
  8  9  1  0
  9 10  2  0
  9 11  1  0
 11 12  1  0
 12 13  1  0
 13 14  1  0
 14 15  1  0
 15 16  2  0
 16 17  1  0
 17 18  2  0
 18 19  1  0
 19 20  2  0
 20 21  1  0
 21 22  2  0
 22 23  1  0
 23 24  1  0
 23 25  1  0
 25 26  1  0
 26 27  2  0
 26 28  1  0
 28 29  1  0
 29 30  1  0
 30 31  2  0
 28 32  1  0
 32 33  2  0
 32 11  1  0
 30 14  1  0
 24 20  1  0
M  END
>  <Title>  (1377) 
idABZAgen6

$$$$

     RDKit          2D

 25 28  0  0  0  0  0  0  0  0999 V2000
   -3.0000   -2.5981    0.0000 C   0  0  0  0  0  0  0  0  0  0  0  0
   -1.5000   -2.5981    0.0000 C   0  0  0  0  0  0  0  0  0  0  0  0
   -0.7500   -3.8971    0.0000 C   0  0  0  0  0  0  0  0  0  0  0  0
    0.7500   -3.8971    0.0000 C   0  0  0  0  0  0  0  0  0  0  0  0
    1.5000   -2.5981    0.0000 C   0  0  0  0  0  0  0  0  0  0  0  0
    3.0000   -2.5981    0.0000 C   0  0  0  0  0  0  0  0  0  0  0  0
    3.7500   -1.2990    0.0000 O   0  0  0  0  0  0  0  0  0  0  0  0
    3.7500   -3.8971    0.0000 N   0  0  0  0  0  0  0  0  0  0  0  0
    5.2500   -3.8971    0.0000 C   0  0  0  0  0  0  0  0  0  0  0  0
    6.1317   -2.6836    0.0000 N   0  0  0  0  0  0  0  0  0  0  0  0
    7.5583   -3.1471    0.0000 N   0  0  0  0  0  0  0  0  0  0  0  0
    7.5583   -4.6471    0.0000 N   0  0  0  0  0  0  0  0  0  0  0  0
    6.1317   -5.1106    0.0000 N   0  0  0  0  0  0  0  0  0  0  0  0
    5.6682   -6.5372    0.0000 C   0  0  0  0  0  0  0  0  0  0  0  0
    4.2009   -6.8491    0.0000 C   0  0  0  0  0  0  0  0  0  0  0  0
    3.7374   -8.2757    0.0000 C   0  0  0  0  0  0  0  0  0  0  0  0
    4.7411   -9.3904    0.0000 C   0  0  0  0  0  0  0  0  0  0  0  0
    6.2083   -9.0785    0.0000 C   0  0  0  0  0  0  0  0  0  0  0  0
    6.6718   -7.6519    0.0000 N   0  0  0  0  0  0  0  0  0  0  0  0
    0.7500   -1.2990    0.0000 C   0  0  0  0  0  0  0  0  0  0  0  0
    1.5000    0.0000    0.0000 C   0  0  0  0  0  0  0  0  0  0  0  0
    0.7500    1.2990    0.0000 C   0  0  0  0  0  0  0  0  0  0  0  0
   -0.7500    1.2990    0.0000 C   0  0  0  0  0  0  0  0  0  0  0  0
   -1.5000    0.0000    0.0000 C   0  0  0  0  0  0  0  0  0  0  0  0
   -0.7500   -1.2990    0.0000 C   0  0  0  0  0  0  0  0  0  0  0  0
  1  2  1  0
  2  3  1  0
  3  4  1  0
  4  5  1  0
  5  6  1  0
  6  7  2  0
  6  8  1  0
  8  9  1  0
  9 10  2  0
 10 11  1  0
 11 12  2  0
 12 13  1  0
 13 14  1  0
 14 15  2  0
 15 16  1  0
 16 17  2  0
 17 18  1  0
 18 19  2  0
  5 20  1  0
 20 21  2  0
 21 22  1  0
 22 23  2  0
 23 24  1  0
 24 25  2  0
 25  2  1  0
 13  9  1  0
 19 14  1  0
 25 20  1  0
M  END
>  <Title>  (1378) 
idABZBgen6

$$$$

     RDKit          2D

 18 19  0  0  0  0  0  0  0  0999 V2000
    3.4598   -0.0000    0.0000 C   0  0  0  0  0  0  0  0  0  0  0  0
    1.9598    0.0000    0.0000 C   0  0  0  0  0  0  0  0  0  0  0  0
    1.3858   -1.3858    0.0000 C   0  0  0  0  0  0  0  0  0  0  0  0
   -0.0000   -1.9598    0.0000 C   0  0  0  0  0  0  0  0  0  0  0  0
   -1.3858   -1.3858    0.0000 C   0  0  0  0  0  0  0  0  0  0  0  0
   -1.9598    0.0000    0.0000 C   0  0  0  0  0  0  0  0  0  0  0  0
   -1.3858    1.3858    0.0000 C   0  0  0  0  0  0  0  0  0  0  0  0
   -2.4465    2.4465    0.0000 C   0  0  0  0  0  0  0  0  0  0  0  0
   -3.8954    2.0583    0.0000 O   0  0  0  0  0  0  0  0  0  0  0  0
   -2.0583    3.8954    0.0000 N   0  0  0  0  0  0  0  0  0  0  0  0
   -3.1189    4.9560    0.0000 C   0  0  0  0  0  0  0  0  0  0  0  0
   -2.7307    6.4049    0.0000 N   0  0  0  0  0  0  0  0  0  0  0  0
   -3.7913    7.4656    0.0000 N   0  0  0  0  0  0  0  0  0  0  0  0
   -5.2402    7.0773    0.0000 N   0  0  0  0  0  0  0  0  0  0  0  0
   -5.6285    5.6285    0.0000 N   0  0  0  0  0  0  0  0  0  0  0  0
   -4.5678    4.5678    0.0000 N   0  0  0  0  0  0  0  0  0  0  0  0
    0.0000    1.9598    0.0000 C   0  0  0  0  0  0  0  0  0  0  0  0
    1.3858    1.3858    0.0000 C   0  0  0  0  0  0  0  0  0  0  0  0
  1  2  1  0
  2  3  2  0
  3  4  1  0
  4  5  1  0
  5  6  1  0
  6  7  1  0
  7  8  1  0
  8  9  2  0
  8 10  1  0
 10 11  1  0
 11 12  2  0
 12 13  1  0
 13 14  2  0
 14 15  1  0
 15 16  2  0
  7 17  1  0
 17 18  1  0
 18  2  1  0
 16 11  1  0
M  END
>  <Title>  (1379) 
idABZCgen6

$$$$

     RDKit          2D

 22 24  0  0  0  0  0  0  0  0999 V2000
   -2.5242   -4.8694    0.0000 C   0  0  0  0  0  0  0  0  0  0  0  0
   -1.3515   -3.9342    0.0000 C   0  0  0  0  0  0  0  0  0  0  0  0
   -0.0000   -4.5850    0.0000 C   0  0  0  0  0  0  0  0  0  0  0  0
    1.3515   -3.9342    0.0000 C   0  0  0  0  0  0  0  0  0  0  0  0
    1.6852   -2.4718    0.0000 C   0  0  0  0  0  0  0  0  0  0  0  0
    3.1476   -2.1380    0.0000 C   0  0  0  0  0  0  0  0  0  0  0  0
    3.5898   -0.7046    0.0000 O   0  0  0  0  0  0  0  0  0  0  0  0
    4.1679   -3.2376    0.0000 N   0  0  0  0  0  0  0  0  0  0  0  0
    5.6303   -2.9038    0.0000 C   0  0  0  0  0  0  0  0  0  0  0  0
    6.6505   -4.0034    0.0000 N   0  0  0  0  0  0  0  0  0  0  0  0
    8.1129   -3.6696    0.0000 N   0  0  0  0  0  0  0  0  0  0  0  0
    8.5551   -2.2362    0.0000 N   0  0  0  0  0  0  0  0  0  0  0  0
    7.5348   -1.1367    0.0000 N   0  0  0  0  0  0  0  0  0  0  0  0
    6.0724   -1.4704    0.0000 N   0  0  0  0  0  0  0  0  0  0  0  0
    0.7500   -1.2990    0.0000 C   0  0  0  0  0  0  0  0  0  0  0  0
    1.5000    0.0000    0.0000 C   0  0  0  0  0  0  0  0  0  0  0  0
    0.7500    1.2990    0.0000 C   0  0  0  0  0  0  0  0  0  0  0  0
   -0.7500    1.2990    0.0000 C   0  0  0  0  0  0  0  0  0  0  0  0
   -1.5000    2.5981    0.0000 O   0  0  0  0  0  0  0  0  0  0  0  0
   -1.5000    0.0000    0.0000 C   0  0  0  0  0  0  0  0  0  0  0  0
   -0.7500   -1.2990    0.0000 C   0  0  0  0  0  0  0  0  0  0  0  0
   -1.6852   -2.4718    0.0000 C   0  0  0  0  0  0  0  0  0  0  0  0
  1  2  1  0
  2  3  1  0
  3  4  1  0
  4  5  1  0
  5  6  1  0
  6  7  2  0
  6  8  1  0
  8  9  1  0
  9 10  2  0
 10 11  1  0
 11 12  2  0
 12 13  1  0
 13 14  2  0
  5 15  1  0
 15 16  2  0
 16 17  1  0
 17 18  2  0
 18 19  1  0
 18 20  1  0
 20 21  1  0
 21 22  1  0
 22  2  1  0
 14  9  1  0
 21 15  1  0
M  END
>  <Title>  (1380) 
idABZDgen6

$$$$

     RDKit          2D

 25 27  0  0  0  0  0  0  0  0999 V2000
   -0.7500   -3.8971    0.0000 O   0  0  0  0  0  0  0  0  0  0  0  0
    0.7500   -3.8971    0.0000 C   0  0  0  0  0  0  0  0  0  0  0  0
    1.5000   -2.5981    0.0000 N   0  0  0  0  0  0  0  0  0  0  0  0
    0.7500   -1.2990    0.0000 C   0  0  0  0  0  0  0  0  0  0  0  0
    1.5000    0.0000    0.0000 C   0  0  0  0  0  0  0  0  0  0  0  0
    0.7500    1.2990    0.0000 C   0  0  0  0  0  0  0  0  0  0  0  0
   -0.7500    1.2990    0.0000 C   0  0  0  0  0  0  0  0  0  0  0  0
   -1.5000    2.5981    0.0000 N   0  0  0  0  0  0  0  0  0  0  0  0
   -1.1118    4.0470    0.0000 C   0  0  0  0  0  0  0  0  0  0  0  0
   -2.5607    4.4352    0.0000 C   0  0  0  0  0  0  0  0  0  0  0  0
   -2.9489    2.9863    0.0000 C   0  0  0  0  0  0  0  0  0  0  0  0
   -1.5000    0.0000    0.0000 C   0  0  0  0  0  0  0  0  0  0  0  0
   -0.7500   -1.2990    0.0000 C   0  0  0  0  0  0  0  0  0  0  0  0
    1.5000   -5.1962    0.0000 O   0  0  0  0  0  0  0  0  0  0  0  0
    0.7500   -6.4952    0.0000 C   0  0  0  0  0  0  0  0  0  0  0  0
   -0.7500   -6.4952    0.0000 O   0  0  0  0  0  0  0  0  0  0  0  0
    1.5000   -7.7942    0.0000 C   0  0  0  0  0  0  0  0  0  0  0  0
    3.0000   -7.7942    0.0000 O   0  0  0  0  0  0  0  0  0  0  0  0
    0.7500   -9.0933    0.0000 C   0  0  0  0  0  0  0  0  0  0  0  0
    1.5000  -10.3923    0.0000 C   0  0  0  0  0  0  0  0  0  0  0  0
    2.9918  -10.5491    0.0000 N   0  0  0  0  0  0  0  0  0  0  0  0
    3.3037  -12.0163    0.0000 N   0  0  0  0  0  0  0  0  0  0  0  0
    2.0046  -12.7663    0.0000 C   0  0  0  0  0  0  0  0  0  0  0  0
    1.8478  -14.2581    0.0000 O   0  0  0  0  0  0  0  0  0  0  0  0
    0.8899  -11.7626    0.0000 C   0  0  0  0  0  0  0  0  0  0  0  0
  1  2  2  0
  2  3  1  0
  3  4  1  0
  4  5  2  0
  5  6  1  0
  6  7  2  0
  7  8  1  0
  8  9  1  0
  9 10  2  0
 10 11  1  0
  7 12  1  0
 12 13  1  0
  2 14  1  0
 14 15  1  0
 15 16  2  0
 15 17  1  0
 17 18  1  0
 17 19  1  0
 19 20  1  0
 20 21  2  0
 21 22  1  0
 22 23  2  0
 23 24  1  0
 23 25  1  0
 13  4  1  0
 25 20  1  0
 11  8  1  0
M  END
>  <Title>  (1381) 
idABZEgen6

$$$$

     RDKit          2D

 28 31  0  0  0  0  0  0  0  0999 V2000
   -4.5474   -1.9091    0.0000 C   0  0  0  0  0  0  0  0  0  0  0  0
   -3.1771   -1.2990    0.0000 O   0  0  0  0  0  0  0  0  0  0  0  0
   -1.9635   -2.1807    0.0000 C   0  0  0  0  0  0  0  0  0  0  0  0
   -2.4271   -3.6073    0.0000 C   0  0  0  0  0  0  0  0  0  0  0  0
   -1.9635   -5.0339    0.0000 C   0  0  0  0  0  0  0  0  0  0  0  0
   -0.7500   -5.9156    0.0000 C   0  0  0  0  0  0  0  0  0  0  0  0
   -1.2135   -7.3421    0.0000 O   0  0  0  0  0  0  0  0  0  0  0  0
    0.7500   -5.9156    0.0000 C   0  0  0  0  0  0  0  0  0  0  0  0
    1.9635   -5.0339    0.0000 C   0  0  0  0  0  0  0  0  0  0  0  0
    2.4271   -3.6073    0.0000 C   0  0  0  0  0  0  0  0  0  0  0  0
    1.9635   -2.1807    0.0000 C   0  0  0  0  0  0  0  0  0  0  0  0
    3.1771   -1.2990    0.0000 C   0  0  0  0  0  0  0  0  0  0  0  0
    3.1771    0.2010    0.0000 N   0  0  0  0  0  0  0  0  0  0  0  0
    4.6036    0.6645    0.0000 N   0  0  0  0  0  0  0  0  0  0  0  0
    5.4853   -0.5490    0.0000 N   0  0  0  0  0  0  0  0  0  0  0  0
    4.6036   -1.7626    0.0000 N   0  0  0  0  0  0  0  0  0  0  0  0
    5.0672   -3.1891    0.0000 C   0  0  0  0  0  0  0  0  0  0  0  0
    4.0635   -4.3039    0.0000 C   0  0  0  0  0  0  0  0  0  0  0  0
    4.5270   -5.7305    0.0000 C   0  0  0  0  0  0  0  0  0  0  0  0
    5.9942   -6.0423    0.0000 C   0  0  0  0  0  0  0  0  0  0  0  0
    6.9979   -4.9276    0.0000 C   0  0  0  0  0  0  0  0  0  0  0  0
    6.5344   -3.5010    0.0000 C   0  0  0  0  0  0  0  0  0  0  0  0
    0.7500   -1.2990    0.0000 C   0  0  0  0  0  0  0  0  0  0  0  0
    1.5000    0.0000    0.0000 C   0  0  0  0  0  0  0  0  0  0  0  0
    0.7500    1.2990    0.0000 C   0  0  0  0  0  0  0  0  0  0  0  0
   -0.7500    1.2990    0.0000 C   0  0  0  0  0  0  0  0  0  0  0  0
   -1.5000    0.0000    0.0000 C   0  0  0  0  0  0  0  0  0  0  0  0
   -0.7500   -1.2990    0.0000 C   0  0  0  0  0  0  0  0  0  0  0  0
  1  2  1  0
  2  3  1  0
  3  4  2  0
  4  5  1  0
  5  6  2  0
  6  7  1  0
  6  8  1  0
  8  9  2  0
  9 10  1  0
 10 11  1  0
 11 12  1  0
 12 13  2  0
 13 14  1  0
 14 15  2  0
 15 16  1  0
 16 17  1  0
 17 18  2  0
 18 19  1  0
 19 20  2  0
 20 21  1  0
 21 22  2  0
 11 23  1  0
 23 24  2  0
 24 25  1  0
 25 26  2  0
 26 27  1  0
 27 28  2  0
 28  3  1  0
 16 12  1  0
 22 17  1  0
 28 23  1  0
M  END
>  <Title>  (1382) 
idABZFgen6

$$$$

     RDKit          2D

 13 13  0  0  0  0  0  0  0  0999 V2000
    5.2500   -3.8971    0.0000 O   0  0  0  0  0  0  0  0  0  0  0  0
    6.0000   -2.5981    0.0000 C   0  0  0  0  0  0  0  0  0  0  0  0
    7.5000   -2.5981    0.0000 O   0  0  0  0  0  0  0  0  0  0  0  0
    5.2500   -1.2990    0.0000 C   0  0  0  0  0  0  0  0  0  0  0  0
    3.7500   -1.2990    0.0000 C   0  0  0  0  0  0  0  0  0  0  0  0
    3.0000   -2.5981    0.0000 O   0  0  0  0  0  0  0  0  0  0  0  0
    3.0000    0.0000    0.0000 N   0  0  0  0  0  0  0  0  0  0  0  0
    1.5000    0.0000    0.0000 C   0  0  0  0  0  0  0  0  0  0  0  0
    0.7500   -1.2990    0.0000 C   0  0  0  0  0  0  0  0  0  0  0  0
   -0.7500   -1.2990    0.0000 C   0  0  0  0  0  0  0  0  0  0  0  0
   -1.5000    0.0000    0.0000 C   0  0  0  0  0  0  0  0  0  0  0  0
   -0.7500    1.2990    0.0000 C   0  0  0  0  0  0  0  0  0  0  0  0
    0.7500    1.2990    0.0000 C   0  0  0  0  0  0  0  0  0  0  0  0
  1  2  2  0
  2  3  1  0
  2  4  1  0
  4  5  1  0
  5  6  2  0
  5  7  1  0
  7  8  1  0
  8  9  2  0
  9 10  1  0
 10 11  2  0
 11 12  1  0
 12 13  2  0
 13  8  1  0
M  END
>  <Title>  (1383) 
idABZGgen6

$$$$

     RDKit          2D

 20 22  0  0  0  0  0  0  0  0999 V2000
   10.0355    0.6881    0.0000 C   0  0  0  0  0  0  0  0  0  0  0  0
    8.5683    0.3762    0.0000 C   0  0  0  0  0  0  0  0  0  0  0  0
    7.4536    1.3799    0.0000 C   0  0  0  0  0  0  0  0  0  0  0  0
    6.1545    0.6299    0.0000 C   0  0  0  0  0  0  0  0  0  0  0  0
    6.4664   -0.8373    0.0000 C   0  0  0  0  0  0  0  0  0  0  0  0
    5.4627   -1.9520    0.0000 C   0  0  0  0  0  0  0  0  0  0  0  0
    5.9262   -3.3786    0.0000 O   0  0  0  0  0  0  0  0  0  0  0  0
    3.9955   -1.6402    0.0000 N   0  0  0  0  0  0  0  0  0  0  0  0
    2.9918   -2.7549    0.0000 C   0  0  0  0  0  0  0  0  0  0  0  0
    3.3037   -4.2221    0.0000 N   0  0  0  0  0  0  0  0  0  0  0  0
    2.0046   -4.9721    0.0000 N   0  0  0  0  0  0  0  0  0  0  0  0
    0.8899   -3.9684    0.0000 N   0  0  0  0  0  0  0  0  0  0  0  0
    1.5000   -2.5981    0.0000 N   0  0  0  0  0  0  0  0  0  0  0  0
    0.7500   -1.2990    0.0000 C   0  0  0  0  0  0  0  0  0  0  0  0
    1.5000    0.0000    0.0000 C   0  0  0  0  0  0  0  0  0  0  0  0
    0.7500    1.2990    0.0000 C   0  0  0  0  0  0  0  0  0  0  0  0
   -0.7500    1.2990    0.0000 C   0  0  0  0  0  0  0  0  0  0  0  0
   -1.5000    0.0000    0.0000 C   0  0  0  0  0  0  0  0  0  0  0  0
   -0.7500   -1.2990    0.0000 C   0  0  0  0  0  0  0  0  0  0  0  0
    7.9582   -0.9941    0.0000 C   0  0  0  0  0  0  0  0  0  0  0  0
  1  2  1  0
  2  3  1  0
  3  4  2  0
  4  5  1  0
  5  6  1  0
  6  7  2  0
  6  8  1  0
  8  9  1  0
  9 10  2  0
 10 11  1  0
 11 12  2  0
 12 13  1  0
 13 14  1  0
 14 15  2  0
 15 16  1  0
 16 17  2  0
 17 18  1  0
 18 19  2  0
  5 20  1  0
 20  2  1  0
 13  9  1  0
 19 14  1  0
M  END
>  <Title>  (1384) 
idABZHgen6

$$$$

     RDKit          2D

 11 10  0  0  0  0  0  0  0  0999 V2000
    0.0000    0.0000    0.0000 C   0  0  0  0  0  0  0  0  0  0  0  0
    1.2990    0.7500    0.0000 C   0  0  0  0  0  0  0  0  0  0  0  0
    2.5981   -0.0000    0.0000 C   0  0  0  0  0  0  0  0  0  0  0  0
    3.8971    0.7500    0.0000 C   0  0  0  0  0  0  0  0  0  0  0  0
    5.1962   -0.0000    0.0000 C   0  0  0  0  0  0  0  0  0  0  0  0
    6.4952    0.7500    0.0000 C   0  0  0  0  0  0  0  0  0  0  0  0
    7.7942   -0.0000    0.0000 C   0  0  0  0  0  0  0  0  0  0  0  0
    9.0933    0.7500    0.0000 C   0  0  0  0  0  0  0  0  0  0  0  0
   10.3923   -0.0000    0.0000 C   0  0  0  0  0  0  0  0  0  0  0  0
   11.6913    0.7500    0.0000 C   0  0  0  0  0  0  0  0  0  0  0  0
   12.9904   -0.0000    0.0000 C   0  0  0  0  0  0  0  0  0  0  0  0
  1  2  2  0
  2  3  1  0
  3  4  1  0
  4  5  1  0
  5  6  1  0
  6  7  1  0
  7  8  1  0
  8  9  1  0
  9 10  1  0
 10 11  1  0
M  END
>  <Title>  (1385) 
idABZIgen6

$$$$

     RDKit          2D

 28 31  0  0  0  0  0  0  0  0999 V2000
   -6.4289   -8.5179    0.0000 O   0  0  0  0  0  0  0  0  0  0  0  0
   -5.3142   -9.5216    0.0000 C   0  0  0  0  0  0  0  0  0  0  0  0
   -5.6260  -10.9888    0.0000 N   0  0  0  0  0  0  0  0  0  0  0  0
   -7.0526  -11.4523    0.0000 C   0  0  0  0  0  0  0  0  0  0  0  0
   -8.1673  -10.4486    0.0000 C   0  0  0  0  0  0  0  0  0  0  0  0
   -9.5939  -10.9121    0.0000 C   0  0  0  0  0  0  0  0  0  0  0  0
   -9.9058  -12.3794    0.0000 C   0  0  0  0  0  0  0  0  0  0  0  0
   -8.7911  -13.3831    0.0000 C   0  0  0  0  0  0  0  0  0  0  0  0
   -7.3645  -12.9195    0.0000 C   0  0  0  0  0  0  0  0  0  0  0  0
   -3.8876   -9.0580    0.0000 C   0  0  0  0  0  0  0  0  0  0  0  0
   -2.7729  -10.0617    0.0000 O   0  0  0  0  0  0  0  0  0  0  0  0
   -3.5757   -7.5908    0.0000 N   0  0  0  0  0  0  0  0  0  0  0  0
   -2.1491   -7.1273    0.0000 C   0  0  0  0  0  0  0  0  0  0  0  0
   -1.8373   -5.6601    0.0000 C   0  0  0  0  0  0  0  0  0  0  0  0
   -2.9520   -4.6564    0.0000 C   0  0  0  0  0  0  0  0  0  0  0  0
   -2.6401   -3.1891    0.0000 C   0  0  0  0  0  0  0  0  0  0  0  0
   -3.7548   -2.1855    0.0000 O   0  0  0  0  0  0  0  0  0  0  0  0
   -1.2135   -2.7256    0.0000 N   0  0  0  0  0  0  0  0  0  0  0  0
   -0.0000   -3.6073    0.0000 C   0  0  0  0  0  0  0  0  0  0  0  0
    1.2135   -2.7256    0.0000 C   0  0  0  0  0  0  0  0  0  0  0  0
    0.7500   -1.2990    0.0000 C   0  0  0  0  0  0  0  0  0  0  0  0
    1.5000    0.0000    0.0000 C   0  0  0  0  0  0  0  0  0  0  0  0
    0.7500    1.2990    0.0000 C   0  0  0  0  0  0  0  0  0  0  0  0
   -0.7500    1.2990    0.0000 C   0  0  0  0  0  0  0  0  0  0  0  0
   -1.5000    0.0000    0.0000 C   0  0  0  0  0  0  0  0  0  0  0  0
   -0.7500   -1.2990    0.0000 C   0  0  0  0  0  0  0  0  0  0  0  0
   -4.3786   -5.1199    0.0000 C   0  0  0  0  0  0  0  0  0  0  0  0
   -4.6904   -6.5871    0.0000 C   0  0  0  0  0  0  0  0  0  0  0  0
  1  2  2  0
  2  3  1  0
  3  4  1  0
  4  5  2  0
  5  6  1  0
  6  7  2  0
  7  8  1  0
  8  9  2  0
  2 10  1  0
 10 11  2  0
 10 12  1  0
 12 13  1  0
 13 14  1  0
 14 15  1  0
 15 16  1  0
 16 17  2  0
 16 18  1  0
 18 19  1  0
 19 20  1  0
 20 21  1  0
 21 22  2  0
 22 23  1  0
 23 24  2  0
 24 25  1  0
 25 26  2  0
 15 27  1  0
 27 28  1  0
  9  4  1  0
 28 12  1  0
 26 18  1  0
 26 21  1  0
M  END
>  <Title>  (1386) 
idABZJgen6

$$$$

     RDKit          2D

 22 24  0  0  0  0  0  0  0  0999 V2000
   -0.7500   -3.8971    0.0000 O   0  0  0  0  0  0  0  0  0  0  0  0
    0.7500   -3.8971    0.0000 C   0  0  0  0  0  0  0  0  0  0  0  0
    1.5000   -2.5981    0.0000 N   0  0  0  0  0  0  0  0  0  0  0  0
    0.7500   -1.2990    0.0000 C   0  0  0  0  0  0  0  0  0  0  0  0
    1.5000    0.0000    0.0000 N   0  0  0  0  0  0  0  0  0  0  0  0
    0.7500    1.2990    0.0000 N   0  0  0  0  0  0  0  0  0  0  0  0
   -0.7500    1.2990    0.0000 N   0  0  0  0  0  0  0  0  0  0  0  0
   -1.5000    0.0000    0.0000 N   0  0  0  0  0  0  0  0  0  0  0  0
   -0.7500   -1.2990    0.0000 N   0  0  0  0  0  0  0  0  0  0  0  0
    1.5000   -5.1962    0.0000 N   0  0  0  0  0  0  0  0  0  0  0  0
    0.7500   -6.4952    0.0000 C   0  0  0  0  0  0  0  0  0  0  0  0
    1.5000   -7.7942    0.0000 C   0  0  0  0  0  0  0  0  0  0  0  0
    3.0000   -7.7942    0.0000 N   0  0  0  0  0  0  0  0  0  0  0  0
    3.7500   -9.0933    0.0000 C   0  0  0  0  0  0  0  0  0  0  0  0
    3.0000  -10.3923    0.0000 C   0  0  0  0  0  0  0  0  0  0  0  0
    3.7500  -11.6913    0.0000 C   0  0  0  0  0  0  0  0  0  0  0  0
    5.2500  -11.6913    0.0000 C   0  0  0  0  0  0  0  0  0  0  0  0
    6.0000  -12.9904    0.0000 O   0  0  0  0  0  0  0  0  0  0  0  0
    6.0000  -10.3923    0.0000 C   0  0  0  0  0  0  0  0  0  0  0  0
    5.2500   -9.0933    0.0000 C   0  0  0  0  0  0  0  0  0  0  0  0
    3.7500   -6.4952    0.0000 C   0  0  0  0  0  0  0  0  0  0  0  0
    3.0000   -5.1962    0.0000 C   0  0  0  0  0  0  0  0  0  0  0  0
  1  2  2  0
  2  3  1  0
  3  4  1  0
  4  5  2  0
  5  6  1  0
  6  7  2  0
  7  8  1  0
  8  9  2  0
  2 10  1  0
 10 11  1  0
 11 12  1  0
 12 13  1  0
 13 14  1  0
 14 15  2  0
 15 16  1  0
 16 17  2  0
 17 18  1  0
 17 19  1  0
 19 20  2  0
 13 21  1  0
 21 22  1  0
  9  4  1  0
 22 10  1  0
 20 14  1  0
M  END
>  <Title>  (1387) 
idABZKgen6

$$$$

     RDKit          2D

 22 23  0  0  0  0  0  0  0  0999 V2000
    1.6386    3.7404    0.0000 C   0  0  0  0  0  0  0  0  0  0  0  0
    0.4895    2.7762    0.0000 C   0  0  0  0  0  0  0  0  0  0  0  0
   -0.9200    3.2893    0.0000 C   0  0  0  0  0  0  0  0  0  0  0  0
   -2.0691    2.3251    0.0000 C   0  0  0  0  0  0  0  0  0  0  0  0
   -3.4786    2.8381    0.0000 C   0  0  0  0  0  0  0  0  0  0  0  0
   -1.8086    0.8479    0.0000 C   0  0  0  0  0  0  0  0  0  0  0  0
   -0.3991    0.3349    0.0000 C   0  0  0  0  0  0  0  0  0  0  0  0
   -0.1386   -1.1424    0.0000 C   0  0  0  0  0  0  0  0  0  0  0  0
    0.7500    1.2990    0.0000 C   0  0  0  0  0  0  0  0  0  0  0  0
    1.5000   -0.0000    0.0000 C   0  0  0  0  0  0  0  0  0  0  0  0
    2.1595    1.8121    0.0000 C   0  0  0  0  0  0  0  0  0  0  0  0
    3.3086    0.8479    0.0000 C   0  0  0  0  0  0  0  0  0  0  0  0
    3.0481   -0.6293    0.0000 O   0  0  0  0  0  0  0  0  0  0  0  0
    4.7181    1.3609    0.0000 N   0  0  0  0  0  0  0  0  0  0  0  0
    5.1316    2.8028    0.0000 C   0  0  0  0  0  0  0  0  0  0  0  0
    6.6307    2.8552    0.0000 C   0  0  0  0  0  0  0  0  0  0  0  0
    7.1437    1.4456    0.0000 C   0  0  0  0  0  0  0  0  0  0  0  0
    8.5856    1.0322    0.0000 C   0  0  0  0  0  0  0  0  0  0  0  0
    9.6646    2.0742    0.0000 O   0  0  0  0  0  0  0  0  0  0  0  0
    8.9485   -0.4233    0.0000 O   0  0  0  0  0  0  0  0  0  0  0  0
    5.9617    0.5221    0.0000 C   0  0  0  0  0  0  0  0  0  0  0  0
    6.0141   -0.9770    0.0000 O   0  0  0  0  0  0  0  0  0  0  0  0
  1  2  1  0
  2  3  2  0
  3  4  1  0
  4  5  1  0
  4  6  1  0
  6  7  1  0
  7  8  1  0
  7  9  1  0
  9 10  1  0
  9 11  1  0
 11 12  1  0
 12 13  2  0
 12 14  1  0
 14 15  1  0
 15 16  1  0
 16 17  1  0
 17 18  1  0
 18 19  2  0
 18 20  1  0
 17 21  1  0
 21 22  2  0
  9  2  1  0
 21 14  1  0
M  END
>  <Title>  (1388) 
idABZLgen6

$$$$

     RDKit          2D

 20 22  0  0  0  0  0  0  0  0999 V2000
   -3.0000   -2.5981    0.0000 C   0  0  0  0  0  0  0  0  0  0  0  0
   -1.5000   -2.5981    0.0000 C   0  0  0  0  0  0  0  0  0  0  0  0
   -0.7500   -3.8971    0.0000 C   0  0  0  0  0  0  0  0  0  0  0  0
    0.7500   -3.8971    0.0000 C   0  0  0  0  0  0  0  0  0  0  0  0
    1.5000   -2.5981    0.0000 C   0  0  0  0  0  0  0  0  0  0  0  0
    3.0000   -2.5981    0.0000 C   0  0  0  0  0  0  0  0  0  0  0  0
    3.7500   -1.2990    0.0000 O   0  0  0  0  0  0  0  0  0  0  0  0
    3.7500   -3.8971    0.0000 N   0  0  0  0  0  0  0  0  0  0  0  0
    5.2500   -3.8971    0.0000 C   0  0  0  0  0  0  0  0  0  0  0  0
    6.0000   -5.1962    0.0000 C   0  0  0  0  0  0  0  0  0  0  0  0
    7.5000   -5.1962    0.0000 N   0  0  0  0  0  0  0  0  0  0  0  0
    8.2500   -3.8971    0.0000 N   0  0  0  0  0  0  0  0  0  0  0  0
    7.5000   -2.5981    0.0000 N   0  0  0  0  0  0  0  0  0  0  0  0
    6.0000   -2.5981    0.0000 N   0  0  0  0  0  0  0  0  0  0  0  0
    0.7500   -1.2990    0.0000 C   0  0  0  0  0  0  0  0  0  0  0  0
    1.5000    0.0000    0.0000 C   0  0  0  0  0  0  0  0  0  0  0  0
    0.7500    1.2990    0.0000 C   0  0  0  0  0  0  0  0  0  0  0  0
   -0.7500    1.2990    0.0000 C   0  0  0  0  0  0  0  0  0  0  0  0
   -1.5000    0.0000    0.0000 C   0  0  0  0  0  0  0  0  0  0  0  0
   -0.7500   -1.2990    0.0000 C   0  0  0  0  0  0  0  0  0  0  0  0
  1  2  1  0
  2  3  1  0
  3  4  2  0
  4  5  1  0
  5  6  1  0
  6  7  2  0
  6  8  1  0
  8  9  1  0
  9 10  2  0
 10 11  1  0
 11 12  2  0
 12 13  1  0
 13 14  2  0
  5 15  1  0
 15 16  2  0
 16 17  1  0
 17 18  2  0
 18 19  1  0
 19 20  2  0
 20  2  1  0
 14  9  1  0
 20 15  1  0
M  END
>  <Title>  (1389) 
idABZMgen6

$$$$

     RDKit          2D

 28 28  0  0  0  0  0  0  0  0999 V2000
    6.6986    0.0000    0.0000 C   0  0  0  0  0  0  0  0  0  0  0  0
    6.5306   -1.4906    0.0000 C   0  0  0  0  0  0  0  0  0  0  0  0
    6.0352   -2.9064    0.0000 C   0  0  0  0  0  0  0  0  0  0  0  0
    5.2371   -4.1765    0.0000 C   0  0  0  0  0  0  0  0  0  0  0  0
    4.1765   -5.2371    0.0000 C   0  0  0  0  0  0  0  0  0  0  0  0
    2.9064   -6.0352    0.0000 C   0  0  0  0  0  0  0  0  0  0  0  0
    1.4906   -6.5306    0.0000 C   0  0  0  0  0  0  0  0  0  0  0  0
   -0.0000   -6.6986    0.0000 C   0  0  0  0  0  0  0  0  0  0  0  0
   -1.4906   -6.5306    0.0000 C   0  0  0  0  0  0  0  0  0  0  0  0
   -2.9064   -6.0352    0.0000 C   0  0  0  0  0  0  0  0  0  0  0  0
   -4.1765   -5.2371    0.0000 C   0  0  0  0  0  0  0  0  0  0  0  0
   -5.2371   -4.1765    0.0000 C   0  0  0  0  0  0  0  0  0  0  0  0
   -6.0352   -2.9064    0.0000 C   0  0  0  0  0  0  0  0  0  0  0  0
   -6.5306   -1.4906    0.0000 C   0  0  0  0  0  0  0  0  0  0  0  0
   -6.6986    0.0000    0.0000 N   0  0  0  0  0  0  0  0  0  0  0  0
   -6.5306    1.4906    0.0000 C   0  0  0  0  0  0  0  0  0  0  0  0
   -6.0352    2.9064    0.0000 C   0  0  0  0  0  0  0  0  0  0  0  0
   -5.2371    4.1765    0.0000 C   0  0  0  0  0  0  0  0  0  0  0  0
   -4.1765    5.2371    0.0000 C   0  0  0  0  0  0  0  0  0  0  0  0
   -2.9064    6.0352    0.0000 C   0  0  0  0  0  0  0  0  0  0  0  0
   -1.4906    6.5306    0.0000 C   0  0  0  0  0  0  0  0  0  0  0  0
    0.0000    6.6986    0.0000 C   0  0  0  0  0  0  0  0  0  0  0  0
    1.4906    6.5306    0.0000 C   0  0  0  0  0  0  0  0  0  0  0  0
    2.9064    6.0352    0.0000 C   0  0  0  0  0  0  0  0  0  0  0  0
    4.1765    5.2371    0.0000 C   0  0  0  0  0  0  0  0  0  0  0  0
    5.2371    4.1765    0.0000 C   0  0  0  0  0  0  0  0  0  0  0  0
    6.0352    2.9064    0.0000 C   0  0  0  0  0  0  0  0  0  0  0  0
    6.5306    1.4906    0.0000 C   0  0  0  0  0  0  0  0  0  0  0  0
  1  2  1  0
  2  3  1  0
  3  4  1  0
  4  5  1  0
  5  6  1  0
  6  7  1  0
  7  8  1  0
  8  9  1  0
  9 10  1  0
 10 11  1  0
 11 12  1  0
 12 13  1  0
 13 14  1  0
 14 15  1  0
 15 16  1  0
 16 17  1  0
 17 18  1  0
 18 19  1  0
 19 20  1  0
 20 21  1  0
 21 22  1  0
 22 23  1  0
 23 24  1  0
 24 25  1  0
 25 26  1  0
 26 27  1  0
 27 28  1  0
 28  1  1  0
M  END
>  <Title>  (1390) 
idABZNgen6

$$$$

     RDKit          2D

 18 20  0  0  0  0  0  0  0  0999 V2000
    6.4776   -9.0543    0.0000 C   0  0  0  0  0  0  0  0  0  0  0  0
    7.2276   -7.7552    0.0000 O   0  0  0  0  0  0  0  0  0  0  0  0
    6.4776   -6.4562    0.0000 C   0  0  0  0  0  0  0  0  0  0  0  0
    7.0877   -5.0859    0.0000 C   0  0  0  0  0  0  0  0  0  0  0  0
    5.9730   -4.0822    0.0000 C   0  0  0  0  0  0  0  0  0  0  0  0
    4.6740   -4.8322    0.0000 C   0  0  0  0  0  0  0  0  0  0  0  0
    3.3037   -4.2221    0.0000 N   0  0  0  0  0  0  0  0  0  0  0  0
    2.0046   -4.9721    0.0000 C   0  0  0  0  0  0  0  0  0  0  0  0
    0.8899   -3.9684    0.0000 C   0  0  0  0  0  0  0  0  0  0  0  0
    1.5000   -2.5981    0.0000 C   0  0  0  0  0  0  0  0  0  0  0  0
    0.7500   -1.2990    0.0000 C   0  0  0  0  0  0  0  0  0  0  0  0
    1.5000    0.0000    0.0000 N   0  0  0  0  0  0  0  0  0  0  0  0
    0.7500    1.2990    0.0000 N   0  0  0  0  0  0  0  0  0  0  0  0
   -0.7500    1.2990    0.0000 N   0  0  0  0  0  0  0  0  0  0  0  0
   -1.5000    0.0000    0.0000 N   0  0  0  0  0  0  0  0  0  0  0  0
   -0.7500   -1.2990    0.0000 N   0  0  0  0  0  0  0  0  0  0  0  0
    2.9918   -2.7549    0.0000 C   0  0  0  0  0  0  0  0  0  0  0  0
    4.9858   -6.2994    0.0000 C   0  0  0  0  0  0  0  0  0  0  0  0
  1  2  1  0
  2  3  1  0
  3  4  2  0
  4  5  1  0
  5  6  2  0
  6  7  1  0
  7  8  1  0
  8  9  1  0
  9 10  1  0
 10 11  1  0
 11 12  2  0
 12 13  1  0
 13 14  2  0
 14 15  1  0
 15 16  2  0
 10 17  1  0
  6 18  1  0
 18  3  1  0
 17  7  1  0
 16 11  1  0
M  END
>  <Title>  (1391) 
idABZOgen6

$$$$

     RDKit          2D

 51 55  0  0  0  0  0  0  0  0999 V2000
   -8.6583   -6.5105    0.0000 C   0  0  0  0  0  0  0  0  0  0  0  0
   -7.2317   -6.0469    0.0000 C   0  0  0  0  0  0  0  0  0  0  0  0
   -6.9199   -4.5797    0.0000 O   0  0  0  0  0  0  0  0  0  0  0  0
   -6.1170   -7.0506    0.0000 C   0  0  0  0  0  0  0  0  0  0  0  0
   -6.4289   -8.5179    0.0000 C   0  0  0  0  0  0  0  0  0  0  0  0
   -7.8555   -8.9814    0.0000 C   0  0  0  0  0  0  0  0  0  0  0  0
   -8.3190  -10.4080    0.0000 C   0  0  0  0  0  0  0  0  0  0  0  0
   -9.8190  -10.4080    0.0000 C   0  0  0  0  0  0  0  0  0  0  0  0
  -10.2825   -8.9814    0.0000 C   0  0  0  0  0  0  0  0  0  0  0  0
   -9.0690   -8.0997    0.0000 C   0  0  0  0  0  0  0  0  0  0  0  0
   -4.6904   -6.5871    0.0000 O   0  0  0  0  0  0  0  0  0  0  0  0
   -4.3786   -5.1199    0.0000 C   0  0  0  0  0  0  0  0  0  0  0  0
   -5.4933   -4.1162    0.0000 O   0  0  0  0  0  0  0  0  0  0  0  0
   -2.9520   -4.6564    0.0000 C   0  0  0  0  0  0  0  0  0  0  0  0
   -2.6401   -3.1891    0.0000 C   0  0  0  0  0  0  0  0  0  0  0  0
   -1.2135   -2.7256    0.0000 C   0  0  0  0  0  0  0  0  0  0  0  0
   -0.0000   -3.6073    0.0000 C   0  0  0  0  0  0  0  0  0  0  0  0
    1.2135   -2.7256    0.0000 S   0  0  0  0  0  0  0  0  0  0  0  0
    0.7500   -1.2990    0.0000 C   0  0  0  0  0  0  0  0  0  0  0  0
    1.5000    0.0000    0.0000 C   0  0  0  0  0  0  0  0  0  0  0  0
    0.7500    1.2990    0.0000 C   0  0  0  0  0  0  0  0  0  0  0  0
   -0.7500    1.2990    0.0000 C   0  0  0  0  0  0  0  0  0  0  0  0
   -1.5000    0.0000    0.0000 C   0  0  0  0  0  0  0  0  0  0  0  0
   -0.7500   -1.2990    0.0000 C   0  0  0  0  0  0  0  0  0  0  0  0
   -1.8373   -5.6601    0.0000 N   0  0  0  0  0  0  0  0  0  0  0  0
   -2.1491   -7.1273    0.0000 C   0  0  0  0  0  0  0  0  0  0  0  0
   -3.5757   -7.5908    0.0000 O   0  0  0  0  0  0  0  0  0  0  0  0
   -1.0344   -8.1310    0.0000 C   0  0  0  0  0  0  0  0  0  0  0  0
    0.3922   -7.6675    0.0000 C   0  0  0  0  0  0  0  0  0  0  0  0
    0.7040   -6.2002    0.0000 O   0  0  0  0  0  0  0  0  0  0  0  0
    1.5069   -8.6712    0.0000 O   0  0  0  0  0  0  0  0  0  0  0  0
   -1.3463   -9.5982    0.0000 C   0  0  0  0  0  0  0  0  0  0  0  0
   -2.7729  -10.0617    0.0000 C   0  0  0  0  0  0  0  0  0  0  0  0
   -3.0847  -11.5290    0.0000 C   0  0  0  0  0  0  0  0  0  0  0  0
   -1.9700  -12.5326    0.0000 C   0  0  0  0  0  0  0  0  0  0  0  0
   -0.5434  -12.0691    0.0000 C   0  0  0  0  0  0  0  0  0  0  0  0
   -0.2316  -10.6019    0.0000 C   0  0  0  0  0  0  0  0  0  0  0  0
    1.1950  -10.1384    0.0000 C   0  0  0  0  0  0  0  0  0  0  0  0
    2.3097  -11.1421    0.0000 C   0  0  0  0  0  0  0  0  0  0  0  0
    3.7363  -10.6785    0.0000 C   0  0  0  0  0  0  0  0  0  0  0  0
    4.8510  -11.6822    0.0000 C   0  0  0  0  0  0  0  0  0  0  0  0
    6.2776  -11.2187    0.0000 C   0  0  0  0  0  0  0  0  0  0  0  0
    6.5895   -9.7515    0.0000 C   0  0  0  0  0  0  0  0  0  0  0  0
    5.4748   -8.7478    0.0000 O   0  0  0  0  0  0  0  0  0  0  0  0
    8.0161   -9.2880    0.0000 O   0  0  0  0  0  0  0  0  0  0  0  0
    7.3923  -12.2224    0.0000 C   0  0  0  0  0  0  0  0  0  0  0  0
    7.0805  -13.6896    0.0000 C   0  0  0  0  0  0  0  0  0  0  0  0
    8.1952  -14.6933    0.0000 C   0  0  0  0  0  0  0  0  0  0  0  0
    9.6218  -14.2298    0.0000 C   0  0  0  0  0  0  0  0  0  0  0  0
    9.9336  -12.7626    0.0000 C   0  0  0  0  0  0  0  0  0  0  0  0
    8.8189  -11.7589    0.0000 C   0  0  0  0  0  0  0  0  0  0  0  0
  1  2  1  0
  2  3  2  0
  2  4  1  0
  4  5  1  0
  5  6  1  0
  6  7  2  0
  7  8  1  0
  8  9  2  0
  9 10  1  0
  4 11  1  0
 11 12  1  0
 12 13  2  0
 12 14  1  0
 14 15  1  0
 15 16  1  0
 16 17  2  0
 17 18  1  0
 18 19  1  0
 19 20  2  0
 20 21  1  0
 21 22  2  0
 22 23  1  0
 23 24  2  0
 14 25  1  0
 25 26  1  0
 26 27  2  0
 26 28  1  0
 28 29  1  0
 29 30  2  0
 29 31  1  0
 28 32  1  0
 32 33  2  0
 33 34  1  0
 34 35  2  0
 35 36  1  0
 36 37  2  0
 37 38  1  0
 38 39  1  0
 39 40  2  3
 40 41  1  0
 41 42  2  3
 42 43  1  0
 43 44  2  0
 43 45  1  0
 42 46  1  0
 46 47  2  0
 47 48  1  0
 48 49  2  0
 49 50  1  0
 50 51  2  0
 10  6  1  0
 24 16  1  0
 37 32  1  0
 51 46  1  0
 24 19  1  0
M  END
>  <Title>  (1392) 
idABZPgen6

$$$$

     RDKit          2D

  4  3  0  0  0  0  0  0  0  0999 V2000
    0.0000    0.0000    0.0000 C   0  0  0  0  0  0  0  0  0  0  0  0
    1.2990    0.7500    0.0000 C   0  0  0  0  0  0  0  0  0  0  0  0
    2.5981   -0.0000    0.0000 C   0  0  0  0  0  0  0  0  0  0  0  0
    1.2990    2.2500    0.0000 C   0  0  0  0  0  0  0  0  0  0  0  0
  1  2  2  0
  2  3  1  0
  2  4  1  0
M  END
>  <Title>  (1393) 
idABZQgen6

$$$$

     RDKit          2D

 65 70  0  0  0  0  0  0  0  0999 V2000
    8.3790   24.4261    0.0000 C   0  0  0  0  0  0  0  0  0  0  0  0
    9.2054   23.1742    0.0000 C   0  0  0  0  0  0  0  0  0  0  0  0
   10.7027   23.2639    0.0000 C   0  0  0  0  0  0  0  0  0  0  0  0
    8.5344   21.8326    0.0000 C   0  0  0  0  0  0  0  0  0  0  0  0
    9.3608   20.5808    0.0000 C   0  0  0  0  0  0  0  0  0  0  0  0
   10.8581   20.6705    0.0000 O   0  0  0  0  0  0  0  0  0  0  0  0
    8.6898   19.2392    0.0000 N   0  0  0  0  0  0  0  0  0  0  0  0
    7.1925   19.1495    0.0000 C   0  0  0  0  0  0  0  0  0  0  0  0
    9.5161   17.9874    0.0000 C   0  0  0  0  0  0  0  0  0  0  0  0
   11.0135   18.0771    0.0000 C   0  0  0  0  0  0  0  0  0  0  0  0
   11.6844   19.4186    0.0000 O   0  0  0  0  0  0  0  0  0  0  0  0
    8.8452   16.6458    0.0000 C   0  0  0  0  0  0  0  0  0  0  0  0
    9.6715   15.3939    0.0000 C   0  0  0  0  0  0  0  0  0  0  0  0
   11.1688   15.4836    0.0000 C   0  0  0  0  0  0  0  0  0  0  0  0
   11.8398   16.8252    0.0000 C   0  0  0  0  0  0  0  0  0  0  0  0
   13.3371   16.9149    0.0000 C   0  0  0  0  0  0  0  0  0  0  0  0
   14.1635   15.6630    0.0000 C   0  0  0  0  0  0  0  0  0  0  0  0
   13.4925   14.3215    0.0000 C   0  0  0  0  0  0  0  0  0  0  0  0
   11.9952   14.2318    0.0000 C   0  0  0  0  0  0  0  0  0  0  0  0
    7.3479   16.5561    0.0000 N   0  0  0  0  0  0  0  0  0  0  0  0
    6.5215   17.8079    0.0000 C   0  0  0  0  0  0  0  0  0  0  0  0
    6.6769   15.2145    0.0000 C   0  0  0  0  0  0  0  0  0  0  0  0
    5.1796   15.1248    0.0000 O   0  0  0  0  0  0  0  0  0  0  0  0
    7.5032   13.9627    0.0000 C   0  0  0  0  0  0  0  0  0  0  0  0
    9.0017   13.8954    0.0000 C   0  0  0  0  0  0  0  0  0  0  0  0
    9.4008   12.4494    0.0000 C   0  0  0  0  0  0  0  0  0  0  0  0
    8.1489   11.6231    0.0000 C   0  0  0  0  0  0  0  0  0  0  0  0
    8.0816   10.1246    0.0000 C   0  0  0  0  0  0  0  0  0  0  0  0
    6.7502    9.4336    0.0000 C   0  0  0  0  0  0  0  0  0  0  0  0
    6.6829    7.9351    0.0000 C   0  0  0  0  0  0  0  0  0  0  0  0
    5.3516    7.2442    0.0000 C   0  0  0  0  0  0  0  0  0  0  0  0
    4.0875    8.0517    0.0000 O   0  0  0  0  0  0  0  0  0  0  0  0
    4.1548    9.5502    0.0000 C   0  0  0  0  0  0  0  0  0  0  0  0
    5.4066   10.3765    0.0000 C   0  0  0  0  0  0  0  0  0  0  0  0
    5.0076   11.8225    0.0000 C   0  0  0  0  0  0  0  0  0  0  0  0
    3.5091   11.8898    0.0000 N   0  0  0  0  0  0  0  0  0  0  0  0
    2.6828   13.1416    0.0000 C   0  0  0  0  0  0  0  0  0  0  0  0
    3.3537   14.4832    0.0000 O   0  0  0  0  0  0  0  0  0  0  0  0
    1.1854   13.0519    0.0000 N   0  0  0  0  0  0  0  0  0  0  0  0
    0.3591   14.3038    0.0000 C   0  0  0  0  0  0  0  0  0  0  0  0
    1.0301   15.6453    0.0000 N   0  0  0  0  0  0  0  0  0  0  0  0
    0.2037   16.8972    0.0000 N   0  0  0  0  0  0  0  0  0  0  0  0
   -1.2936   16.8075    0.0000 N   0  0  0  0  0  0  0  0  0  0  0  0
   -1.9646   15.4659    0.0000 N   0  0  0  0  0  0  0  0  0  0  0  0
   -1.1382   14.2141    0.0000 N   0  0  0  0  0  0  0  0  0  0  0  0
    2.9820   10.4854    0.0000 C   0  0  0  0  0  0  0  0  0  0  0  0
    5.2843    5.7457    0.0000 C   0  0  0  0  0  0  0  0  0  0  0  0
    6.4570    4.8104    0.0000 C   0  0  0  0  0  0  0  0  0  0  0  0
    5.9300    3.4061    0.0000 C   0  0  0  0  0  0  0  0  0  0  0  0
    4.4315    3.4734    0.0000 C   0  0  0  0  0  0  0  0  0  0  0  0
    3.4962    2.3006    0.0000 C   0  0  0  0  0  0  0  0  0  0  0  0
    4.0442    0.9043    0.0000 O   0  0  0  0  0  0  0  0  0  0  0  0
    2.0130    2.5242    0.0000 N   0  0  0  0  0  0  0  0  0  0  0  0
    1.0777    1.3515    0.0000 C   0  0  0  0  0  0  0  0  0  0  0  0
    1.7286    0.0000    0.0000 N   0  0  0  0  0  0  0  0  0  0  0  0
    1.0777   -1.3515    0.0000 N   0  0  0  0  0  0  0  0  0  0  0  0
   -0.3846   -1.6852    0.0000 N   0  0  0  0  0  0  0  0  0  0  0  0
   -1.5574   -0.7500    0.0000 N   0  0  0  0  0  0  0  0  0  0  0  0
   -2.9088   -1.4008    0.0000 N   0  0  0  0  0  0  0  0  0  0  0  0
   -4.1482   -0.5558    0.0000 C   0  0  0  0  0  0  0  0  0  0  0  0
   -3.0209   -2.8966    0.0000 C   0  0  0  0  0  0  0  0  0  0  0  0
   -1.5574    0.7500    0.0000 C   0  0  0  0  0  0  0  0  0  0  0  0
   -0.3846    1.6852    0.0000 C   0  0  0  0  0  0  0  0  0  0  0  0
    4.0324    4.9193    0.0000 C   0  0  0  0  0  0  0  0  0  0  0  0
    6.9762   12.5583    0.0000 C   0  0  0  0  0  0  0  0  0  0  0  0
  1  2  1  0
  2  3  1  0
  2  4  1  0
  4  5  1  0
  5  6  2  0
  5  7  1  0
  7  8  1  0
  7  9  1  0
  9 10  1  0
 10 11  1  0
  9 12  1  0
 12 13  1  0
 13 14  1  0
 14 15  2  0
 15 16  1  0
 16 17  2  0
 17 18  1  0
 18 19  2  0
 12 20  1  0
 20 21  1  0
 20 22  1  0
 22 23  2  0
 22 24  1  0
 24 25  1  0
 25 26  1  0
 26 27  1  0
 27 28  2  3
 28 29  1  0
 29 30  2  3
 30 31  1  0
 31 32  1  0
 32 33  1  0
 33 34  1  0
 34 35  1  0
 35 36  1  0
 36 37  1  0
 37 38  2  0
 37 39  1  0
 39 40  1  0
 40 41  2  0
 41 42  1  0
 42 43  2  0
 43 44  1  0
 44 45  2  0
 36 46  1  0
 31 47  1  0
 47 48  2  0
 48 49  1  0
 49 50  2  0
 50 51  1  0
 51 52  2  0
 51 53  1  0
 53 54  1  0
 54 55  2  0
 55 56  1  0
 56 57  2  0
 57 58  1  0
 58 59  1  0
 59 60  1  0
 59 61  1  0
 58 62  1  0
 62 63  1  0
 50 64  1  0
 27 65  1  0
 19 14  1  0
 65 24  1  0
 46 33  1  0
 64 47  1  0
 45 40  1  0
 63 54  1  0
M  END
>  <Title>  (1394) 
idABZRgen6

$$$$

     RDKit          2D

 19 21  0  0  0  0  0  0  0  0999 V2000
    1.8107   -3.8597    0.0000 C   0  0  0  0  0  0  0  0  0  0  0  0
    0.7500   -2.7990    0.0000 C   0  0  0  0  0  0  0  0  0  0  0  0
    0.7500   -1.2990    0.0000 C   0  0  0  0  0  0  0  0  0  0  0  0
    1.5000    0.0000    0.0000 C   0  0  0  0  0  0  0  0  0  0  0  0
    0.7500    1.2990    0.0000 C   0  0  0  0  0  0  0  0  0  0  0  0
   -0.7500    1.2990    0.0000 C   0  0  0  0  0  0  0  0  0  0  0  0
   -1.5000    0.0000    0.0000 C   0  0  0  0  0  0  0  0  0  0  0  0
   -0.7500   -1.2990    0.0000 C   0  0  0  0  0  0  0  0  0  0  0  0
   -0.7500   -2.7990    0.0000 C   0  0  0  0  0  0  0  0  0  0  0  0
   -1.8107   -3.8597    0.0000 C   0  0  0  0  0  0  0  0  0  0  0  0
   -3.2595   -3.4715    0.0000 C   0  0  0  0  0  0  0  0  0  0  0  0
   -3.6478   -2.0226    0.0000 O   0  0  0  0  0  0  0  0  0  0  0  0
   -4.3202   -4.5321    0.0000 N   0  0  0  0  0  0  0  0  0  0  0  0
   -5.7691   -4.1439    0.0000 C   0  0  0  0  0  0  0  0  0  0  0  0
   -6.1573   -2.6950    0.0000 N   0  0  0  0  0  0  0  0  0  0  0  0
   -7.6062   -2.3068    0.0000 N   0  0  0  0  0  0  0  0  0  0  0  0
   -8.6669   -3.3674    0.0000 N   0  0  0  0  0  0  0  0  0  0  0  0
   -8.2786   -4.8163    0.0000 N   0  0  0  0  0  0  0  0  0  0  0  0
   -6.8298   -5.2046    0.0000 N   0  0  0  0  0  0  0  0  0  0  0  0
  1  2  1  0
  2  3  1  0
  3  4  2  0
  4  5  1  0
  5  6  2  0
  6  7  1  0
  7  8  2  0
  8  9  1  0
  9 10  1  0
 10 11  1  0
 11 12  2  0
 11 13  1  0
 13 14  1  0
 14 15  2  0
 15 16  1  0
 16 17  2  0
 17 18  1  0
 18 19  2  0
  9  2  1  0
 19 14  1  0
  8  3  1  0
M  END
>  <Title>  (1395) 
idABZSgen6

$$$$

     RDKit          2D

 27 29  0  0  0  0  0  0  0  0999 V2000
   -7.5000   -5.1962    0.0000 C   0  0  0  0  0  0  0  0  0  0  0  0
   -6.0000   -5.1962    0.0000 C   0  0  0  0  0  0  0  0  0  0  0  0
   -5.2500   -3.8971    0.0000 C   0  0  0  0  0  0  0  0  0  0  0  0
   -3.7500   -3.8971    0.0000 C   0  0  0  0  0  0  0  0  0  0  0  0
   -3.0000   -5.1962    0.0000 C   0  0  0  0  0  0  0  0  0  0  0  0
   -3.7500   -6.4952    0.0000 C   0  0  0  0  0  0  0  0  0  0  0  0
   -3.0000   -2.5981    0.0000 C   0  0  0  0  0  0  0  0  0  0  0  0
   -3.7500   -1.2990    0.0000 O   0  0  0  0  0  0  0  0  0  0  0  0
   -1.5000   -2.5981    0.0000 N   0  0  0  0  0  0  0  0  0  0  0  0
   -0.7500   -3.8971    0.0000 C   0  0  0  0  0  0  0  0  0  0  0  0
    0.7500   -3.8971    0.0000 C   0  0  0  0  0  0  0  0  0  0  0  0
    1.5000   -2.5981    0.0000 C   0  0  0  0  0  0  0  0  0  0  0  0
    3.0000   -2.5981    0.0000 C   0  0  0  0  0  0  0  0  0  0  0  0
    3.7500   -1.2990    0.0000 O   0  0  0  0  0  0  0  0  0  0  0  0
    3.7500   -3.8971    0.0000 N   0  0  0  0  0  0  0  0  0  0  0  0
    5.2500   -3.8971    0.0000 C   0  0  0  0  0  0  0  0  0  0  0  0
    6.0000   -5.1962    0.0000 N   0  0  0  0  0  0  0  0  0  0  0  0
    7.5000   -5.1962    0.0000 N   0  0  0  0  0  0  0  0  0  0  0  0
    8.2500   -3.8971    0.0000 N   0  0  0  0  0  0  0  0  0  0  0  0
    7.5000   -2.5981    0.0000 N   0  0  0  0  0  0  0  0  0  0  0  0
    6.0000   -2.5981    0.0000 N   0  0  0  0  0  0  0  0  0  0  0  0
    0.7500   -1.2990    0.0000 C   0  0  0  0  0  0  0  0  0  0  0  0
    1.5000    0.0000    0.0000 C   0  0  0  0  0  0  0  0  0  0  0  0
    0.7500    1.2990    0.0000 C   0  0  0  0  0  0  0  0  0  0  0  0
   -0.7500    1.2990    0.0000 C   0  0  0  0  0  0  0  0  0  0  0  0
   -1.5000    0.0000    0.0000 C   0  0  0  0  0  0  0  0  0  0  0  0
   -0.7500   -1.2990    0.0000 C   0  0  0  0  0  0  0  0  0  0  0  0
  1  2  1  0
  2  3  2  3
  3  4  1  0
  4  5  2  3
  5  6  1  0
  4  7  1  0
  7  8  2  0
  7  9  1  0
  9 10  1  0
 10 11  2  0
 11 12  1  0
 12 13  1  0
 13 14  2  0
 13 15  1  0
 15 16  1  0
 16 17  2  0
 17 18  1  0
 18 19  2  0
 19 20  1  0
 20 21  2  0
 12 22  1  0
 22 23  2  0
 23 24  1  0
 24 25  2  0
 25 26  1  0
 26 27  2  0
 27  9  1  0
 21 16  1  0
 27 22  1  0
M  END
>  <Title>  (1396) 
idABZTgen6

$$$$

     RDKit          2D

  6  6  0  0  0  0  0  0  0  0999 V2000
    2.7760    0.0000    0.0000 C   0  0  0  0  0  0  0  0  0  0  0  0
    1.2760    0.0000    0.0000 C   0  0  0  0  0  0  0  0  0  0  0  0
    0.3943    1.2135    0.0000 C   0  0  0  0  0  0  0  0  0  0  0  0
   -1.0323    0.7500    0.0000 C   0  0  0  0  0  0  0  0  0  0  0  0
   -1.0323   -0.7500    0.0000 C   0  0  0  0  0  0  0  0  0  0  0  0
    0.3943   -1.2135    0.0000 C   0  0  0  0  0  0  0  0  0  0  0  0
  1  2  1  0
  2  3  2  0
  3  4  1  0
  4  5  2  0
  5  6  1  0
  6  2  1  0
M  END
>  <Title>  (1397) 
idABZUgen6

$$$$

     RDKit          2D

 28 30  0  0  0  0  0  0  0  0999 V2000
   -3.1771   -1.2990    0.0000 C   0  0  0  0  0  0  0  0  0  0  0  0
   -1.9635   -2.1807    0.0000 C   0  0  0  0  0  0  0  0  0  0  0  0
   -2.4271   -3.6073    0.0000 C   0  0  0  0  0  0  0  0  0  0  0  0
   -1.9635   -5.0339    0.0000 C   0  0  0  0  0  0  0  0  0  0  0  0
   -0.7500   -5.9156    0.0000 C   0  0  0  0  0  0  0  0  0  0  0  0
    0.7500   -5.9156    0.0000 C   0  0  0  0  0  0  0  0  0  0  0  0
    1.9635   -5.0339    0.0000 C   0  0  0  0  0  0  0  0  0  0  0  0
    2.4271   -3.6073    0.0000 C   0  0  0  0  0  0  0  0  0  0  0  0
    1.9635   -2.1807    0.0000 C   0  0  0  0  0  0  0  0  0  0  0  0
    3.1771   -1.2990    0.0000 O   0  0  0  0  0  0  0  0  0  0  0  0
    4.5474   -1.9091    0.0000 C   0  0  0  0  0  0  0  0  0  0  0  0
    5.7609   -1.0275    0.0000 C   0  0  0  0  0  0  0  0  0  0  0  0
    5.6041    0.4643    0.0000 O   0  0  0  0  0  0  0  0  0  0  0  0
    7.1312   -1.6376    0.0000 N   0  0  0  0  0  0  0  0  0  0  0  0
    8.3447   -0.7559    0.0000 C   0  0  0  0  0  0  0  0  0  0  0  0
    9.7151   -1.3660    0.0000 N   0  0  0  0  0  0  0  0  0  0  0  0
   10.9286   -0.4843    0.0000 N   0  0  0  0  0  0  0  0  0  0  0  0
   10.7718    1.0075    0.0000 N   0  0  0  0  0  0  0  0  0  0  0  0
    9.4015    1.6176    0.0000 N   0  0  0  0  0  0  0  0  0  0  0  0
    8.1879    0.7359    0.0000 N   0  0  0  0  0  0  0  0  0  0  0  0
    0.7500   -1.2990    0.0000 C   0  0  0  0  0  0  0  0  0  0  0  0
    1.5000    0.0000    0.0000 C   0  0  0  0  0  0  0  0  0  0  0  0
    0.7500    1.2990    0.0000 C   0  0  0  0  0  0  0  0  0  0  0  0
   -0.7500    1.2990    0.0000 C   0  0  0  0  0  0  0  0  0  0  0  0
   -1.5000    2.5981    0.0000 C   0  0  0  0  0  0  0  0  0  0  0  0
   -2.2500    3.8971    0.0000 N   0  0  0  0  0  0  0  0  0  0  0  0
   -1.5000    0.0000    0.0000 C   0  0  0  0  0  0  0  0  0  0  0  0
   -0.7500   -1.2990    0.0000 C   0  0  0  0  0  0  0  0  0  0  0  0
  1  2  1  0
  2  3  1  0
  3  4  2  0
  4  5  1  0
  5  6  1  0
  6  7  1  0
  7  8  1  0
  8  9  1  0
  9 10  1  0
 10 11  1  0
 11 12  1  0
 12 13  2  0
 12 14  1  0
 14 15  1  0
 15 16  2  0
 16 17  1  0
 17 18  2  0
 18 19  1  0
 19 20  2  0
  9 21  1  0
 21 22  2  0
 22 23  1  0
 23 24  2  0
 24 25  1  0
 25 26  3  0
 24 27  1  0
 27 28  2  0
 28  2  1  0
 20 15  1  0
 28 21  1  0
M  END
>  <Title>  (1398) 
idABZVgen6

$$$$

     RDKit          2D

 10  9  0  0  0  0  0  0  0  0999 V2000
    0.0000    0.0000    0.0000 C   0  0  0  0  0  0  0  0  0  0  0  0
    1.2990    0.7500    0.0000 C   0  0  0  0  0  0  0  0  0  0  0  0
    2.5981    1.5000    0.0000 C   0  0  0  0  0  0  0  0  0  0  0  0
    2.0490   -0.5490    0.0000 C   0  0  0  0  0  0  0  0  0  0  0  0
    0.5490    2.0490    0.0000 C   0  0  0  0  0  0  0  0  0  0  0  0
   -0.2010    3.3481    0.0000 C   0  0  0  0  0  0  0  0  0  0  0  0
   -0.9510    4.6471    0.0000 C   0  0  0  0  0  0  0  0  0  0  0  0
   -0.2010    5.9462    0.0000 C   0  0  0  0  0  0  0  0  0  0  0  0
   -0.9510    7.2452    0.0000 C   0  0  0  0  0  0  0  0  0  0  0  0
   -1.7010    8.5442    0.0000 N   0  0  0  0  0  0  0  0  0  0  0  0
  1  2  1  0
  2  3  1  0
  2  4  1  0
  2  5  1  0
  5  6  3  0
  6  7  1  0
  7  8  1  0
  8  9  1  0
  9 10  3  0
M  END
>  <Title>  (1399) 
idABZWgen6

$$$$

     RDKit          2D

 34 38  0  0  0  0  0  0  0  0999 V2000
    3.0000   -5.1962    0.0000 O   0  0  0  0  0  0  0  0  0  0  0  0
    1.5000   -5.1962    0.0000 C   0  0  0  0  0  0  0  0  0  0  0  0
    0.7500   -3.8971    0.0000 C   0  0  0  0  0  0  0  0  0  0  0  0
    1.5000   -2.5981    0.0000 C   0  0  0  0  0  0  0  0  0  0  0  0
    3.0000   -2.5981    0.0000 O   0  0  0  0  0  0  0  0  0  0  0  0
    0.7500   -1.2990    0.0000 C   0  0  0  0  0  0  0  0  0  0  0  0
    1.5000    0.0000    0.0000 C   0  0  0  0  0  0  0  0  0  0  0  0
    0.7500    1.2990    0.0000 C   0  0  0  0  0  0  0  0  0  0  0  0
   -0.7500    1.2990    0.0000 C   0  0  0  0  0  0  0  0  0  0  0  0
   -1.5000    0.0000    0.0000 C   0  0  0  0  0  0  0  0  0  0  0  0
   -0.7500   -1.2990    0.0000 C   0  0  0  0  0  0  0  0  0  0  0  0
    0.7500   -6.4952    0.0000 N   0  0  0  0  0  0  0  0  0  0  0  0
    1.5000   -7.7942    0.0000 C   0  0  0  0  0  0  0  0  0  0  0  0
    2.9918   -7.9510    0.0000 N   0  0  0  0  0  0  0  0  0  0  0  0
    3.3037   -9.4182    0.0000 N   0  0  0  0  0  0  0  0  0  0  0  0
    2.0046  -10.1682    0.0000 N   0  0  0  0  0  0  0  0  0  0  0  0
    0.8899   -9.1645    0.0000 N   0  0  0  0  0  0  0  0  0  0  0  0
   -0.5773   -9.4764    0.0000 N   0  0  0  0  0  0  0  0  0  0  0  0
   -1.5810   -8.3617    0.0000 C   0  0  0  0  0  0  0  0  0  0  0  0
   -3.0482   -8.6736    0.0000 C   0  0  0  0  0  0  0  0  0  0  0  0
   -3.5118  -10.1001    0.0000 C   0  0  0  0  0  0  0  0  0  0  0  0
   -4.9790  -10.4120    0.0000 N   0  0  0  0  0  0  0  0  0  0  0  0
   -5.5891  -11.7823    0.0000 C   0  0  0  0  0  0  0  0  0  0  0  0
   -7.0809  -11.6255    0.0000 C   0  0  0  0  0  0  0  0  0  0  0  0
   -7.3927  -10.1583    0.0000 C   0  0  0  0  0  0  0  0  0  0  0  0
   -8.7631   -9.5482    0.0000 N   0  0  0  0  0  0  0  0  0  0  0  0
  -10.0621  -10.2982    0.0000 C   0  0  0  0  0  0  0  0  0  0  0  0
  -11.1768   -9.2945    0.0000 C   0  0  0  0  0  0  0  0  0  0  0  0
  -10.5667   -7.9242    0.0000 C   0  0  0  0  0  0  0  0  0  0  0  0
   -9.0749   -8.0810    0.0000 C   0  0  0  0  0  0  0  0  0  0  0  0
   -8.0712   -6.9663    0.0000 O   0  0  0  0  0  0  0  0  0  0  0  0
   -6.0937   -9.4083    0.0000 C   0  0  0  0  0  0  0  0  0  0  0  0
   -2.5081  -11.2149    0.0000 C   0  0  0  0  0  0  0  0  0  0  0  0
   -1.0409  -10.9030    0.0000 C   0  0  0  0  0  0  0  0  0  0  0  0
  1  2  2  0
  2  3  1  0
  3  4  1  0
  4  5  2  0
  4  6  1  0
  6  7  2  0
  7  8  1  0
  8  9  2  0
  9 10  1  0
 10 11  2  0
  2 12  1  0
 12 13  1  0
 13 14  2  0
 14 15  1  0
 15 16  2  0
 16 17  1  0
 17 18  1  0
 18 19  1  0
 19 20  1  0
 20 21  1  0
 21 22  1  0
 22 23  1  0
 23 24  1  0
 24 25  1  0
 25 26  1  0
 26 27  1  0
 27 28  1  0
 28 29  1  0
 29 30  1  0
 30 31  2  0
 25 32  1  0
 21 33  1  0
 33 34  1  0
 11  6  1  0
 17 13  1  0
 34 18  1  0
 32 22  1  0
 30 26  1  0
M  END
>  <Title>  (1400) 
idABZXgen6

$$$$

     RDKit          2D

  9  9  0  0  0  0  0  0  0  0999 V2000
    5.0260   -1.2990    0.0000 C   0  0  0  0  0  0  0  0  0  0  0  0
    3.5260   -1.2990    0.0000 C   0  0  0  0  0  0  0  0  0  0  0  0
    2.7760   -2.5981    0.0000 O   0  0  0  0  0  0  0  0  0  0  0  0
    2.7760    0.0000    0.0000 N   0  0  0  0  0  0  0  0  0  0  0  0
    1.2760    0.0000    0.0000 C   0  0  0  0  0  0  0  0  0  0  0  0
    0.3943    1.2135    0.0000 C   0  0  0  0  0  0  0  0  0  0  0  0
   -1.0323    0.7500    0.0000 C   0  0  0  0  0  0  0  0  0  0  0  0
   -1.0323   -0.7500    0.0000 C   0  0  0  0  0  0  0  0  0  0  0  0
    0.3943   -1.2135    0.0000 C   0  0  0  0  0  0  0  0  0  0  0  0
  1  2  1  0
  2  3  2  0
  2  4  1  0
  4  5  1  0
  5  6  2  0
  6  7  1  0
  7  8  1  0
  8  9  2  0
  9  5  1  0
M  END
>  <Title>  (1401) 
idABZYgen6

$$$$

     RDKit          2D

 21 23  0  0  0  0  0  0  0  0999 V2000
   -3.1476   -2.1380    0.0000 C   0  0  0  0  0  0  0  0  0  0  0  0
   -1.6852   -2.4718    0.0000 C   0  0  0  0  0  0  0  0  0  0  0  0
   -1.3515   -3.9342    0.0000 C   0  0  0  0  0  0  0  0  0  0  0  0
   -0.0000   -4.5850    0.0000 C   0  0  0  0  0  0  0  0  0  0  0  0
    1.3515   -3.9342    0.0000 C   0  0  0  0  0  0  0  0  0  0  0  0
    1.6852   -2.4718    0.0000 C   0  0  0  0  0  0  0  0  0  0  0  0
    3.1476   -2.1380    0.0000 C   0  0  0  0  0  0  0  0  0  0  0  0
    3.5898   -0.7046    0.0000 O   0  0  0  0  0  0  0  0  0  0  0  0
    4.1679   -3.2376    0.0000 N   0  0  0  0  0  0  0  0  0  0  0  0
    5.6303   -2.9038    0.0000 C   0  0  0  0  0  0  0  0  0  0  0  0
    6.6505   -4.0034    0.0000 N   0  0  0  0  0  0  0  0  0  0  0  0
    8.1129   -3.6696    0.0000 N   0  0  0  0  0  0  0  0  0  0  0  0
    8.5551   -2.2362    0.0000 N   0  0  0  0  0  0  0  0  0  0  0  0
    7.5348   -1.1367    0.0000 N   0  0  0  0  0  0  0  0  0  0  0  0
    6.0724   -1.4704    0.0000 N   0  0  0  0  0  0  0  0  0  0  0  0
    0.7500   -1.2990    0.0000 C   0  0  0  0  0  0  0  0  0  0  0  0
    1.5000    0.0000    0.0000 C   0  0  0  0  0  0  0  0  0  0  0  0
    0.7500    1.2990    0.0000 C   0  0  0  0  0  0  0  0  0  0  0  0
   -0.7500    1.2990    0.0000 C   0  0  0  0  0  0  0  0  0  0  0  0
   -1.5000    0.0000    0.0000 C   0  0  0  0  0  0  0  0  0  0  0  0
   -0.7500   -1.2990    0.0000 C   0  0  0  0  0  0  0  0  0  0  0  0
  1  2  1  0
  2  3  2  0
  3  4  1  0
  4  5  1  0
  5  6  1  0
  6  7  1  0
  7  8  2  0
  7  9  1  0
  9 10  1  0
 10 11  2  0
 11 12  1  0
 12 13  2  0
 13 14  1  0
 14 15  2  0
  6 16  1  0
 16 17  2  0
 17 18  1  0
 18 19  2  0
 19 20  1  0
 20 21  2  0
 21  2  1  0
 15 10  1  0
 21 16  1  0
M  END
>  <Title>  (1402) 
idABZZgen6

$$$$

     RDKit          2D

 31 35  0  0  0  0  0  0  0  0999 V2000
    3.0000   -2.5981    0.0000 O   0  0  0  0  0  0  0  0  0  0  0  0
    1.5000   -2.5981    0.0000 C   0  0  0  0  0  0  0  0  0  0  0  0
    0.7500   -3.8971    0.0000 N   0  0  0  0  0  0  0  0  0  0  0  0
    1.5000   -5.1962    0.0000 C   0  0  0  0  0  0  0  0  0  0  0  0
    2.9918   -5.3529    0.0000 C   0  0  0  0  0  0  0  0  0  0  0  0
    3.3037   -6.8202    0.0000 C   0  0  0  0  0  0  0  0  0  0  0  0
    2.0046   -7.5702    0.0000 C   0  0  0  0  0  0  0  0  0  0  0  0
    0.8899   -6.5665    0.0000 C   0  0  0  0  0  0  0  0  0  0  0  0
    0.7500   -1.2990    0.0000 N   0  0  0  0  0  0  0  0  0  0  0  0
    1.5000    0.0000    0.0000 C   0  0  0  0  0  0  0  0  0  0  0  0
    0.7500    1.2990    0.0000 C   0  0  0  0  0  0  0  0  0  0  0  0
   -0.7500    1.2990    0.0000 C   0  0  0  0  0  0  0  0  0  0  0  0
   -1.5000    2.5981    0.0000 N   0  0  0  0  0  0  0  0  0  0  0  0
   -2.9918    2.7549    0.0000 C   0  0  0  0  0  0  0  0  0  0  0  0
   -3.3037    4.2221    0.0000 C   0  0  0  0  0  0  0  0  0  0  0  0
   -2.0046    4.9721    0.0000 C   0  0  0  0  0  0  0  0  0  0  0  0
   -1.8478    6.4639    0.0000 N   0  0  0  0  0  0  0  0  0  0  0  0
   -0.4775    7.0740    0.0000 C   0  0  0  0  0  0  0  0  0  0  0  0
   -0.3207    8.5658    0.0000 C   0  0  0  0  0  0  0  0  0  0  0  0
   -1.5342    9.4474    0.0000 C   0  0  0  0  0  0  0  0  0  0  0  0
   -1.3774   10.9392    0.0000 C   0  0  0  0  0  0  0  0  0  0  0  0
   -0.0071   11.5493    0.0000 C   0  0  0  0  0  0  0  0  0  0  0  0
    0.1497   13.0411    0.0000 C   0  0  0  0  0  0  0  0  0  0  0  0
   -1.0639   13.9228    0.0000 C   0  0  0  0  0  0  0  0  0  0  0  0
   -2.4342   13.3127    0.0000 C   0  0  0  0  0  0  0  0  0  0  0  0
   -2.5910   11.8209    0.0000 C   0  0  0  0  0  0  0  0  0  0  0  0
   -2.9046    8.8373    0.0000 C   0  0  0  0  0  0  0  0  0  0  0  0
   -3.0613    7.3456    0.0000 C   0  0  0  0  0  0  0  0  0  0  0  0
   -0.8899    3.9684    0.0000 C   0  0  0  0  0  0  0  0  0  0  0  0
   -1.5000    0.0000    0.0000 C   0  0  0  0  0  0  0  0  0  0  0  0
   -0.7500   -1.2990    0.0000 C   0  0  0  0  0  0  0  0  0  0  0  0
  1  2  2  0
  2  3  1  0
  3  4  1  0
  4  5  2  0
  5  6  1  0
  6  7  2  0
  7  8  1  0
  2  9  1  0
  9 10  1  0
 10 11  1  0
 11 12  1  0
 12 13  1  0
 13 14  1  0
 14 15  1  0
 15 16  1  0
 16 17  1  0
 17 18  1  0
 18 19  1  0
 19 20  1  0
 20 21  1  0
 21 22  2  0
 22 23  1  0
 23 24  2  0
 24 25  1  0
 25 26  2  0
 20 27  1  0
 27 28  1  0
 16 29  1  0
 12 30  1  0
 30 31  1  0
  8  4  1  0
 31  9  1  0
 29 13  1  0
 28 17  1  0
 26 21  1  0
M  END
>  <Title>  (1403) 
idACAAgen6

$$$$

     RDKit          2D

 29 32  0  0  0  0  0  0  0  0999 V2000
   -4.7671    4.3906    0.0000 C   0  0  0  0  0  0  0  0  0  0  0  0
   -3.3405    3.9271    0.0000 C   0  0  0  0  0  0  0  0  0  0  0  0
   -2.4589    5.1406    0.0000 C   0  0  0  0  0  0  0  0  0  0  0  0
   -1.0323    5.6041    0.0000 C   0  0  0  0  0  0  0  0  0  0  0  0
    0.3943    5.1406    0.0000 C   0  0  0  0  0  0  0  0  0  0  0  0
    1.2760    6.3541    0.0000 C   0  0  0  0  0  0  0  0  0  0  0  0
    0.6659    7.7244    0.0000 O   0  0  0  0  0  0  0  0  0  0  0  0
    2.7678    6.1973    0.0000 N   0  0  0  0  0  0  0  0  0  0  0  0
    3.6494    7.4108    0.0000 C   0  0  0  0  0  0  0  0  0  0  0  0
    5.1412    7.2540    0.0000 N   0  0  0  0  0  0  0  0  0  0  0  0
    6.0229    8.4676    0.0000 N   0  0  0  0  0  0  0  0  0  0  0  0
    5.4128    9.8379    0.0000 N   0  0  0  0  0  0  0  0  0  0  0  0
    3.9210    9.9947    0.0000 N   0  0  0  0  0  0  0  0  0  0  0  0
    3.0393    8.7812    0.0000 N   0  0  0  0  0  0  0  0  0  0  0  0
    1.2760    3.9271    0.0000 C   0  0  0  0  0  0  0  0  0  0  0  0
    2.7026    4.3906    0.0000 O   0  0  0  0  0  0  0  0  0  0  0  0
    1.2760    2.4271    0.0000 O   0  0  0  0  0  0  0  0  0  0  0  0
    0.3943    1.2135    0.0000 C   0  0  0  0  0  0  0  0  0  0  0  0
    1.2760    0.0000    0.0000 C   0  0  0  0  0  0  0  0  0  0  0  0
    0.3943   -1.2135    0.0000 S   0  0  0  0  0  0  0  0  0  0  0  0
   -1.0323   -0.7500    0.0000 C   0  0  0  0  0  0  0  0  0  0  0  0
   -1.0323    0.7500    0.0000 C   0  0  0  0  0  0  0  0  0  0  0  0
   -2.4589    1.2135    0.0000 C   0  0  0  0  0  0  0  0  0  0  0  0
   -3.0690   -0.1568    0.0000 C   0  0  0  0  0  0  0  0  0  0  0  0
   -4.5608   -0.3136    0.0000 C   0  0  0  0  0  0  0  0  0  0  0  0
   -5.4424    0.8999    0.0000 C   0  0  0  0  0  0  0  0  0  0  0  0
   -6.9342    0.7431    0.0000 O   0  0  0  0  0  0  0  0  0  0  0  0
   -4.8323    2.2703    0.0000 C   0  0  0  0  0  0  0  0  0  0  0  0
   -3.3405    2.4271    0.0000 C   0  0  0  0  0  0  0  0  0  0  0  0
  1  2  1  0
  2  3  1  0
  3  4  1  0
  4  5  1  0
  5  6  1  0
  6  7  2  0
  6  8  1  0
  8  9  1  0
  9 10  2  0
 10 11  1  0
 11 12  2  0
 12 13  1  0
 13 14  2  0
  5 15  1  0
 15 16  2  0
 15 17  1  0
 17 18  1  0
 18 19  2  0
 19 20  1  0
 20 21  1  0
 21 22  2  0
 22 23  1  0
 23 24  2  0
 24 25  1  0
 25 26  2  0
 26 27  1  0
 26 28  1  0
 28 29  2  0
 29  2  1  0
 14  9  1  0
 22 18  1  0
 29 23  1  0
M  END
>  <Title>  (1404) 
idACABgen6

$$$$

     RDKit          2D

 35 39  0  0  0  0  0  0  0  0999 V2000
   -3.9205   -4.3214    0.0000 C   0  0  0  0  0  0  0  0  0  0  0  0
   -2.5242   -4.8694    0.0000 O   0  0  0  0  0  0  0  0  0  0  0  0
   -1.3515   -3.9342    0.0000 C   0  0  0  0  0  0  0  0  0  0  0  0
   -0.0000   -4.5850    0.0000 C   0  0  0  0  0  0  0  0  0  0  0  0
    1.3515   -3.9342    0.0000 C   0  0  0  0  0  0  0  0  0  0  0  0
    1.6852   -2.4718    0.0000 C   0  0  0  0  0  0  0  0  0  0  0  0
    3.1476   -2.1380    0.0000 C   0  0  0  0  0  0  0  0  0  0  0  0
    3.5898   -0.7046    0.0000 O   0  0  0  0  0  0  0  0  0  0  0  0
    4.1679   -3.2376    0.0000 N   0  0  0  0  0  0  0  0  0  0  0  0
    4.1118   -4.7365    0.0000 C   0  0  0  0  0  0  0  0  0  0  0  0
    5.6107   -4.7926    0.0000 C   0  0  0  0  0  0  0  0  0  0  0  0
    6.6310   -5.8922    0.0000 C   0  0  0  0  0  0  0  0  0  0  0  0
    8.0934   -5.5584    0.0000 O   0  0  0  0  0  0  0  0  0  0  0  0
    6.1889   -7.3256    0.0000 N   0  0  0  0  0  0  0  0  0  0  0  0
    7.2091   -8.4251    0.0000 C   0  0  0  0  0  0  0  0  0  0  0  0
    6.7670   -9.8585    0.0000 C   0  0  0  0  0  0  0  0  0  0  0  0
    7.7873  -10.9581    0.0000 C   0  0  0  0  0  0  0  0  0  0  0  0
    9.2497  -10.6243    0.0000 C   0  0  0  0  0  0  0  0  0  0  0  0
   10.2699  -11.7239    0.0000 N   0  0  0  0  0  0  0  0  0  0  0  0
    9.8278  -13.1572    0.0000 C   0  0  0  0  0  0  0  0  0  0  0  0
    8.3654  -13.4910    0.0000 O   0  0  0  0  0  0  0  0  0  0  0  0
   10.8480  -14.2568    0.0000 C   0  0  0  0  0  0  0  0  0  0  0  0
   10.7920  -15.7558    0.0000 C   0  0  0  0  0  0  0  0  0  0  0  0
   12.2909  -15.8118    0.0000 C   0  0  0  0  0  0  0  0  0  0  0  0
   12.3470  -14.3129    0.0000 C   0  0  0  0  0  0  0  0  0  0  0  0
    9.6918   -9.1909    0.0000 C   0  0  0  0  0  0  0  0  0  0  0  0
    8.6715   -8.0914    0.0000 C   0  0  0  0  0  0  0  0  0  0  0  0
    5.6668   -3.2937    0.0000 C   0  0  0  0  0  0  0  0  0  0  0  0
    0.7500   -1.2990    0.0000 C   0  0  0  0  0  0  0  0  0  0  0  0
    1.5000    0.0000    0.0000 C   0  0  0  0  0  0  0  0  0  0  0  0
    0.7500    1.2990    0.0000 C   0  0  0  0  0  0  0  0  0  0  0  0
   -0.7500    1.2990    0.0000 C   0  0  0  0  0  0  0  0  0  0  0  0
   -1.5000    0.0000    0.0000 C   0  0  0  0  0  0  0  0  0  0  0  0
   -0.7500   -1.2990    0.0000 C   0  0  0  0  0  0  0  0  0  0  0  0
   -1.6852   -2.4718    0.0000 C   0  0  0  0  0  0  0  0  0  0  0  0
  1  2  1  0
  2  3  1  0
  3  4  2  0
  4  5  1  0
  5  6  2  0
  6  7  1  0
  7  8  2  0
  7  9  1  0
  9 10  1  0
 10 11  2  0
 11 12  1  0
 12 13  2  0
 12 14  1  0
 14 15  1  0
 15 16  2  0
 16 17  1  0
 17 18  2  0
 18 19  1  0
 19 20  1  0
 20 21  2  0
 20 22  1  0
 22 23  1  0
 23 24  1  0
 24 25  1  0
 18 26  1  0
 26 27  1  0
 11 28  1  0
  6 29  1  0
 29 30  2  0
 30 31  1  0
 31 32  2  0
 32 33  1  0
 33 34  2  0
 34 35  1  0
 35  3  1  0
 28  9  1  0
 34 29  1  0
 27 15  1  0
 25 22  1  0
M  END
>  <Title>  (1405) 
idACACgen6

$$$$

     RDKit          2D

 10 10  0  0  0  0  0  0  0  0999 V2000
    3.6929    0.0000    0.0000 C   0  0  0  0  0  0  0  0  0  0  0  0
    2.1929    0.0000    0.0000 C   0  0  0  0  0  0  0  0  0  0  0  0
    1.6798    1.4095    0.0000 C   0  0  0  0  0  0  0  0  0  0  0  0
    0.3808    2.1595    0.0000 C   0  0  0  0  0  0  0  0  0  0  0  0
   -1.0964    1.8991    0.0000 C   0  0  0  0  0  0  0  0  0  0  0  0
   -2.0606    0.7500    0.0000 C   0  0  0  0  0  0  0  0  0  0  0  0
   -2.0606   -0.7500    0.0000 C   0  0  0  0  0  0  0  0  0  0  0  0
   -1.0964   -1.8991    0.0000 C   0  0  0  0  0  0  0  0  0  0  0  0
    0.3808   -2.1595    0.0000 C   0  0  0  0  0  0  0  0  0  0  0  0
    1.6798   -1.4095    0.0000 C   0  0  0  0  0  0  0  0  0  0  0  0
  1  2  1  0
  2  3  2  0
  3  4  1  0
  4  5  2  0
  5  6  1  0
  6  7  2  0
  7  8  1  0
  8  9  2  0
  9 10  1  0
 10  2  1  0
M  END
>  <Title>  (1406) 
idACADgen6

$$$$

     RDKit          2D

 14 15  0  0  0  0  0  0  0  0999 V2000
    3.3107   -8.3323    0.0000 C   0  0  0  0  0  0  0  0  0  0  0  0
    2.5607   -7.0333    0.0000 C   0  0  0  0  0  0  0  0  0  0  0  0
    1.1118   -6.6450    0.0000 C   0  0  0  0  0  0  0  0  0  0  0  0
    1.5000   -5.1962    0.0000 C   0  0  0  0  0  0  0  0  0  0  0  0
    0.7500   -3.8971    0.0000 C   0  0  0  0  0  0  0  0  0  0  0  0
   -0.7500   -3.8971    0.0000 O   0  0  0  0  0  0  0  0  0  0  0  0
    1.5000   -2.5981    0.0000 N   0  0  0  0  0  0  0  0  0  0  0  0
    0.7500   -1.2990    0.0000 C   0  0  0  0  0  0  0  0  0  0  0  0
    1.5000    0.0000    0.0000 N   0  0  0  0  0  0  0  0  0  0  0  0
    0.7500    1.2990    0.0000 N   0  0  0  0  0  0  0  0  0  0  0  0
   -0.7500    1.2990    0.0000 N   0  0  0  0  0  0  0  0  0  0  0  0
   -1.5000    0.0000    0.0000 N   0  0  0  0  0  0  0  0  0  0  0  0
   -0.7500   -1.2990    0.0000 N   0  0  0  0  0  0  0  0  0  0  0  0
    2.9489   -5.5844    0.0000 C   0  0  0  0  0  0  0  0  0  0  0  0
  1  2  1  0
  2  3  1  0
  3  4  1  0
  4  5  1  0
  5  6  2  0
  5  7  1  0
  7  8  1  0
  8  9  2  0
  9 10  1  0
 10 11  2  0
 11 12  1  0
 12 13  2  0
  4 14  1  0
 14  2  1  0
 13  8  1  0
M  END
>  <Title>  (1407) 
idACAEgen6

$$$$

     RDKit          2D

 25 27  0  0  0  0  0  0  0  0999 V2000
   -8.2500   -6.4952    0.0000 C   0  0  0  0  0  0  0  0  0  0  0  0
   -7.5000   -5.1962    0.0000 C   0  0  0  0  0  0  0  0  0  0  0  0
   -6.0000   -5.1962    0.0000 C   0  0  0  0  0  0  0  0  0  0  0  0
   -5.2500   -3.8971    0.0000 C   0  0  0  0  0  0  0  0  0  0  0  0
   -3.7500   -3.8971    0.0000 C   0  0  0  0  0  0  0  0  0  0  0  0
   -3.0000   -2.5981    0.0000 C   0  0  0  0  0  0  0  0  0  0  0  0
   -1.5000   -2.5981    0.0000 C   0  0  0  0  0  0  0  0  0  0  0  0
   -0.7500   -3.8971    0.0000 C   0  0  0  0  0  0  0  0  0  0  0  0
    0.7500   -3.8971    0.0000 C   0  0  0  0  0  0  0  0  0  0  0  0
    1.5000   -2.5981    0.0000 C   0  0  0  0  0  0  0  0  0  0  0  0
    3.0000   -2.5981    0.0000 C   0  0  0  0  0  0  0  0  0  0  0  0
    3.7500   -1.2990    0.0000 O   0  0  0  0  0  0  0  0  0  0  0  0
    3.7500   -3.8971    0.0000 N   0  0  0  0  0  0  0  0  0  0  0  0
    5.2500   -3.8971    0.0000 C   0  0  0  0  0  0  0  0  0  0  0  0
    6.0000   -5.1962    0.0000 N   0  0  0  0  0  0  0  0  0  0  0  0
    7.5000   -5.1962    0.0000 N   0  0  0  0  0  0  0  0  0  0  0  0
    8.2500   -3.8971    0.0000 N   0  0  0  0  0  0  0  0  0  0  0  0
    7.5000   -2.5981    0.0000 N   0  0  0  0  0  0  0  0  0  0  0  0
    6.0000   -2.5981    0.0000 N   0  0  0  0  0  0  0  0  0  0  0  0
    0.7500   -1.2990    0.0000 C   0  0  0  0  0  0  0  0  0  0  0  0
    1.5000    0.0000    0.0000 C   0  0  0  0  0  0  0  0  0  0  0  0
    0.7500    1.2990    0.0000 C   0  0  0  0  0  0  0  0  0  0  0  0
   -0.7500    1.2990    0.0000 C   0  0  0  0  0  0  0  0  0  0  0  0
   -1.5000    0.0000    0.0000 C   0  0  0  0  0  0  0  0  0  0  0  0
   -0.7500   -1.2990    0.0000 C   0  0  0  0  0  0  0  0  0  0  0  0
  1  2  1  0
  2  3  1  0
  3  4  1  0
  4  5  1  0
  5  6  1  0
  6  7  1  0
  7  8  1  0
  8  9  1  0
  9 10  1  0
 10 11  1  0
 11 12  2  0
 11 13  1  0
 13 14  1  0
 14 15  2  0
 15 16  1  0
 16 17  2  0
 17 18  1  0
 18 19  2  0
 10 20  1  0
 20 21  2  0
 21 22  1  0
 22 23  2  0
 23 24  1  0
 24 25  2  0
 25  7  1  0
 19 14  1  0
 25 20  1  0
M  END
>  <Title>  (1408) 
idACAFgen6

$$$$

     RDKit          2D

 49 54  0  0  0  0  0  0  0  0999 V2000
   -5.6953   -2.8553    0.0000 C   0  0  0  0  0  0  0  0  0  0  0  0
   -4.4334   -3.6662    0.0000 C   0  0  0  0  0  0  0  0  0  0  0  0
   -5.0565   -5.0307    0.0000 C   0  0  0  0  0  0  0  0  0  0  0  0
   -5.2700   -6.5154    0.0000 C   0  0  0  0  0  0  0  0  0  0  0  0
   -5.0565   -8.0001    0.0000 C   0  0  0  0  0  0  0  0  0  0  0  0
   -4.4334   -9.3646    0.0000 C   0  0  0  0  0  0  0  0  0  0  0  0
   -3.4511  -10.4982    0.0000 C   0  0  0  0  0  0  0  0  0  0  0  0
   -2.1892  -11.3092    0.0000 C   0  0  0  0  0  0  0  0  0  0  0  0
   -0.7500  -11.7318    0.0000 C   0  0  0  0  0  0  0  0  0  0  0  0
    0.7500  -11.7318    0.0000 C   0  0  0  0  0  0  0  0  0  0  0  0
    2.1892  -11.3092    0.0000 C   0  0  0  0  0  0  0  0  0  0  0  0
    3.4511  -10.4982    0.0000 C   0  0  0  0  0  0  0  0  0  0  0  0
    4.4334   -9.3646    0.0000 C   0  0  0  0  0  0  0  0  0  0  0  0
    5.0565   -8.0001    0.0000 C   0  0  0  0  0  0  0  0  0  0  0  0
    5.2700   -6.5154    0.0000 C   0  0  0  0  0  0  0  0  0  0  0  0
    5.0565   -5.0307    0.0000 C   0  0  0  0  0  0  0  0  0  0  0  0
    6.5468   -4.8597    0.0000 C   0  0  0  0  0  0  0  0  0  0  0  0
    6.8446   -3.3896    0.0000 C   0  0  0  0  0  0  0  0  0  0  0  0
    5.5385   -2.6520    0.0000 C   0  0  0  0  0  0  0  0  0  0  0  0
    5.3675   -1.1617    0.0000 O   0  0  0  0  0  0  0  0  0  0  0  0
    4.4334   -3.6662    0.0000 N   0  0  0  0  0  0  0  0  0  0  0  0
    3.4511   -2.5326    0.0000 C   0  0  0  0  0  0  0  0  0  0  0  0
    4.6123   -1.5831    0.0000 C   0  0  0  0  0  0  0  0  0  0  0  0
    4.0681   -0.1853    0.0000 C   0  0  0  0  0  0  0  0  0  0  0  0
    2.5706   -0.2709    0.0000 C   0  0  0  0  0  0  0  0  0  0  0  0
    1.6210    0.8903    0.0000 O   0  0  0  0  0  0  0  0  0  0  0  0
    2.1519    2.2932    0.0000 C   0  0  0  0  0  0  0  0  0  0  0  0
    3.6323    2.5349    0.0000 O   0  0  0  0  0  0  0  0  0  0  0  0
    1.2024    3.4544    0.0000 N   0  0  0  0  0  0  0  0  0  0  0  0
    1.7333    4.8573    0.0000 C   0  0  0  0  0  0  0  0  0  0  0  0
    3.2137    5.0990    0.0000 N   0  0  0  0  0  0  0  0  0  0  0  0
    3.7446    6.5019    0.0000 N   0  0  0  0  0  0  0  0  0  0  0  0
    2.7951    7.6632    0.0000 N   0  0  0  0  0  0  0  0  0  0  0  0
    1.3147    7.4215    0.0000 N   0  0  0  0  0  0  0  0  0  0  0  0
    0.7838    6.0185    0.0000 N   0  0  0  0  0  0  0  0  0  0  0  0
    2.1892   -1.7216    0.0000 C   0  0  0  0  0  0  0  0  0  0  0  0
    0.7500   -1.2990    0.0000 C   0  0  0  0  0  0  0  0  0  0  0  0
    1.5000    0.0000    0.0000 C   0  0  0  0  0  0  0  0  0  0  0  0
    0.7500    1.2990    0.0000 C   0  0  0  0  0  0  0  0  0  0  0  0
   -0.7500    1.2990    0.0000 C   0  0  0  0  0  0  0  0  0  0  0  0
   -1.5000    0.0000    0.0000 C   0  0  0  0  0  0  0  0  0  0  0  0
   -0.7500   -1.2990    0.0000 C   0  0  0  0  0  0  0  0  0  0  0  0
   -2.1892   -1.7216    0.0000 C   0  0  0  0  0  0  0  0  0  0  0  0
   -2.2606   -0.2233    0.0000 C   0  0  0  0  0  0  0  0  0  0  0  0
   -3.5939    0.4640    0.0000 C   0  0  0  0  0  0  0  0  0  0  0  0
   -4.8557   -0.3470    0.0000 C   0  0  0  0  0  0  0  0  0  0  0  0
   -6.1890    0.3404    0.0000 O   0  0  0  0  0  0  0  0  0  0  0  0
   -4.7844   -1.8453    0.0000 C   0  0  0  0  0  0  0  0  0  0  0  0
   -3.4511   -2.5326    0.0000 C   0  0  0  0  0  0  0  0  0  0  0  0
  1  2  1  0
  2  3  1  0
  3  4  1  0
  4  5  1  0
  5  6  1  0
  6  7  1  0
  7  8  1  0
  8  9  1  0
  9 10  1  0
 10 11  1  0
 11 12  1  0
 12 13  1  0
 13 14  1  0
 14 15  1  0
 15 16  1  0
 16 17  1  0
 17 18  1  0
 18 19  1  0
 19 20  2  0
 19 21  1  0
 21 22  1  0
 22 23  2  0
 23 24  1  0
 24 25  2  0
 25 26  1  0
 26 27  1  0
 27 28  2  0
 27 29  1  0
 29 30  1  0
 30 31  2  0
 31 32  1  0
 32 33  2  0
 33 34  1  0
 34 35  2  0
 25 36  1  0
 36 37  1  0
 37 38  2  0
 38 39  1  0
 39 40  2  0
 40 41  1  0
 41 42  2  0
 42 43  1  0
 43 44  2  0
 44 45  1  0
 45 46  2  0
 46 47  1  0
 46 48  1  0
 48 49  2  0
 49  2  1  0
 21 16  1  0
 36 22  1  0
 42 37  1  0
 49 43  1  0
 35 30  1  0
M  END
>  <Title>  (1409) 
idACAGgen6

$$$$

     RDKit          2D

 37 41  0  0  0  0  0  0  0  0999 V2000
   -3.1771   -1.2990    0.0000 C   0  0  0  0  0  0  0  0  0  0  0  0
   -1.9635   -2.1807    0.0000 C   0  0  0  0  0  0  0  0  0  0  0  0
   -2.4271   -3.6073    0.0000 C   0  0  0  0  0  0  0  0  0  0  0  0
   -1.9635   -5.0339    0.0000 C   0  0  0  0  0  0  0  0  0  0  0  0
   -0.7500   -5.9156    0.0000 C   0  0  0  0  0  0  0  0  0  0  0  0
    0.7500   -5.9156    0.0000 C   0  0  0  0  0  0  0  0  0  0  0  0
    1.9635   -5.0339    0.0000 C   0  0  0  0  0  0  0  0  0  0  0  0
    2.4271   -3.6073    0.0000 C   0  0  0  0  0  0  0  0  0  0  0  0
    1.9635   -2.1807    0.0000 C   0  0  0  0  0  0  0  0  0  0  0  0
    3.1771   -1.2990    0.0000 C   0  0  0  0  0  0  0  0  0  0  0  0
    3.1771    0.2010    0.0000 C   0  0  0  0  0  0  0  0  0  0  0  0
    4.6036    0.6645    0.0000 C   0  0  0  0  0  0  0  0  0  0  0  0
    5.4853   -0.5490    0.0000 C   0  0  0  0  0  0  0  0  0  0  0  0
    6.9853   -0.5490    0.0000 N   0  0  0  0  0  0  0  0  0  0  0  0
    7.7353   -1.8481    0.0000 C   0  0  0  0  0  0  0  0  0  0  0  0
    9.2353   -1.8481    0.0000 C   0  0  0  0  0  0  0  0  0  0  0  0
    9.9853   -0.5490    0.0000 N   0  0  0  0  0  0  0  0  0  0  0  0
   11.4853   -0.5490    0.0000 C   0  0  0  0  0  0  0  0  0  0  0  0
   12.2353    0.7500    0.0000 O   0  0  0  0  0  0  0  0  0  0  0  0
   12.2353   -1.8481    0.0000 N   0  0  0  0  0  0  0  0  0  0  0  0
   13.7353   -1.8481    0.0000 C   0  0  0  0  0  0  0  0  0  0  0  0
   14.4853   -3.1471    0.0000 N   0  0  0  0  0  0  0  0  0  0  0  0
   15.9853   -3.1471    0.0000 N   0  0  0  0  0  0  0  0  0  0  0  0
   16.7353   -1.8481    0.0000 N   0  0  0  0  0  0  0  0  0  0  0  0
   15.9853   -0.5490    0.0000 N   0  0  0  0  0  0  0  0  0  0  0  0
   14.4853   -0.5490    0.0000 N   0  0  0  0  0  0  0  0  0  0  0  0
    9.2353    0.7500    0.0000 C   0  0  0  0  0  0  0  0  0  0  0  0
    7.7353    0.7500    0.0000 C   0  0  0  0  0  0  0  0  0  0  0  0
    4.6036   -1.7626    0.0000 C   0  0  0  0  0  0  0  0  0  0  0  0
    5.0672   -3.1891    0.0000 O   0  0  0  0  0  0  0  0  0  0  0  0
    0.7500   -1.2990    0.0000 C   0  0  0  0  0  0  0  0  0  0  0  0
    1.5000    0.0000    0.0000 C   0  0  0  0  0  0  0  0  0  0  0  0
    0.7500    1.2990    0.0000 C   0  0  0  0  0  0  0  0  0  0  0  0
   -0.7500    1.2990    0.0000 C   0  0  0  0  0  0  0  0  0  0  0  0
   -1.5000    2.5981    0.0000 O   0  0  0  0  0  0  0  0  0  0  0  0
   -1.5000    0.0000    0.0000 C   0  0  0  0  0  0  0  0  0  0  0  0
   -0.7500   -1.2990    0.0000 C   0  0  0  0  0  0  0  0  0  0  0  0
  1  2  1  0
  2  3  1  0
  3  4  2  0
  4  5  1  0
  5  6  2  0
  6  7  1  0
  7  8  1  0
  8  9  1  0
  9 10  1  0
 10 11  1  0
 11 12  1  0
 12 13  1  0
 13 14  1  0
 14 15  1  0
 15 16  1  0
 16 17  1  0
 17 18  1  0
 18 19  2  0
 18 20  1  0
 20 21  1  0
 21 22  2  0
 22 23  1  0
 23 24  2  0
 24 25  1  0
 25 26  2  0
 17 27  1  0
 27 28  1  0
 13 29  1  0
 29 30  2  0
  9 31  1  0
 31 32  2  0
 32 33  1  0
 33 34  2  0
 34 35  1  0
 34 36  1  0
 36 37  2  0
 37  2  1  0
 29 10  1  0
 37 31  1  0
 28 14  1  0
 26 21  1  0
M  END
>  <Title>  (1410) 
idACAHgen6

$$$$

     RDKit          2D

 26 28  0  0  0  0  0  0  0  0999 V2000
   -3.7500   -3.8971    0.0000 C   0  0  0  0  0  0  0  0  0  0  0  0
   -3.0000   -2.5981    0.0000 C   0  0  0  0  0  0  0  0  0  0  0  0
   -3.7500   -1.2990    0.0000 C   0  0  0  0  0  0  0  0  0  0  0  0
   -5.2500   -1.2990    0.0000 C   0  0  0  0  0  0  0  0  0  0  0  0
   -6.0000   -0.0000    0.0000 C   0  0  0  0  0  0  0  0  0  0  0  0
   -7.5000   -0.0000    0.0000 C   0  0  0  0  0  0  0  0  0  0  0  0
   -8.2500    1.2990    0.0000 N   0  0  0  0  0  0  0  0  0  0  0  0
   -1.5000   -2.5981    0.0000 N   0  0  0  0  0  0  0  0  0  0  0  0
   -0.7500   -3.8971    0.0000 C   0  0  0  0  0  0  0  0  0  0  0  0
    0.7500   -3.8971    0.0000 C   0  0  0  0  0  0  0  0  0  0  0  0
    1.5000   -2.5981    0.0000 C   0  0  0  0  0  0  0  0  0  0  0  0
    3.0000   -2.5981    0.0000 C   0  0  0  0  0  0  0  0  0  0  0  0
    3.7500   -1.2990    0.0000 O   0  0  0  0  0  0  0  0  0  0  0  0
    3.7500   -3.8971    0.0000 N   0  0  0  0  0  0  0  0  0  0  0  0
    5.2500   -3.8971    0.0000 C   0  0  0  0  0  0  0  0  0  0  0  0
    6.0000   -5.1962    0.0000 N   0  0  0  0  0  0  0  0  0  0  0  0
    7.5000   -5.1962    0.0000 N   0  0  0  0  0  0  0  0  0  0  0  0
    8.2500   -3.8971    0.0000 N   0  0  0  0  0  0  0  0  0  0  0  0
    7.5000   -2.5981    0.0000 N   0  0  0  0  0  0  0  0  0  0  0  0
    6.0000   -2.5981    0.0000 N   0  0  0  0  0  0  0  0  0  0  0  0
    0.7500   -1.2990    0.0000 C   0  0  0  0  0  0  0  0  0  0  0  0
    1.5000    0.0000    0.0000 C   0  0  0  0  0  0  0  0  0  0  0  0
    0.7500    1.2990    0.0000 C   0  0  0  0  0  0  0  0  0  0  0  0
   -0.7500    1.2990    0.0000 C   0  0  0  0  0  0  0  0  0  0  0  0
   -1.5000    0.0000    0.0000 C   0  0  0  0  0  0  0  0  0  0  0  0
   -0.7500   -1.2990    0.0000 C   0  0  0  0  0  0  0  0  0  0  0  0
  1  2  1  0
  2  3  2  3
  3  4  1  0
  4  5  1  0
  5  6  2  3
  6  7  1  0
  2  8  1  0
  8  9  1  0
  9 10  2  0
 10 11  1  0
 11 12  1  0
 12 13  2  0
 12 14  1  0
 14 15  1  0
 15 16  2  0
 16 17  1  0
 17 18  2  0
 18 19  1  0
 19 20  2  0
 11 21  1  0
 21 22  2  0
 22 23  1  0
 23 24  2  0
 24 25  1  0
 25 26  2  0
 26  8  1  0
 20 15  1  0
 26 21  1  0
M  END
>  <Title>  (1411) 
idACAIgen6

$$$$

     RDKit          2D

 24 27  0  0  0  0  0  0  0  0999 V2000
    3.0000    0.0000    0.0000 C   0  0  0  0  0  0  0  0  0  0  0  0
    1.5000    0.0000    0.0000 C   0  0  0  0  0  0  0  0  0  0  0  0
    0.7500   -1.2990    0.0000 C   0  0  0  0  0  0  0  0  0  0  0  0
   -0.7500   -1.2990    0.0000 C   0  0  0  0  0  0  0  0  0  0  0  0
   -1.5000    0.0000    0.0000 C   0  0  0  0  0  0  0  0  0  0  0  0
   -3.0000    0.0000    0.0000 N   0  0  0  0  0  0  0  0  0  0  0  0
   -3.8817   -1.2135    0.0000 C   0  0  0  0  0  0  0  0  0  0  0  0
   -5.3083   -0.7500    0.0000 C   0  0  0  0  0  0  0  0  0  0  0  0
   -5.3083    0.7500    0.0000 C   0  0  0  0  0  0  0  0  0  0  0  0
   -6.5218    1.6317    0.0000 N   0  0  0  0  0  0  0  0  0  0  0  0
   -6.3650    3.1235    0.0000 C   0  0  0  0  0  0  0  0  0  0  0  0
   -7.5785    4.0051    0.0000 C   0  0  0  0  0  0  0  0  0  0  0  0
   -8.9488    3.3950    0.0000 N   0  0  0  0  0  0  0  0  0  0  0  0
  -10.1624    4.2767    0.0000 C   0  0  0  0  0  0  0  0  0  0  0  0
  -10.0056    5.7685    0.0000 C   0  0  0  0  0  0  0  0  0  0  0  0
  -11.2191    6.6502    0.0000 C   0  0  0  0  0  0  0  0  0  0  0  0
  -12.5894    6.0401    0.0000 C   0  0  0  0  0  0  0  0  0  0  0  0
  -12.7462    4.5483    0.0000 C   0  0  0  0  0  0  0  0  0  0  0  0
  -11.5327    3.6666    0.0000 C   0  0  0  0  0  0  0  0  0  0  0  0
   -9.1056    1.9033    0.0000 C   0  0  0  0  0  0  0  0  0  0  0  0
   -7.8921    1.0216    0.0000 C   0  0  0  0  0  0  0  0  0  0  0  0
   -3.8817    1.2135    0.0000 C   0  0  0  0  0  0  0  0  0  0  0  0
   -0.7500    1.2990    0.0000 C   0  0  0  0  0  0  0  0  0  0  0  0
    0.7500    1.2990    0.0000 C   0  0  0  0  0  0  0  0  0  0  0  0
  1  2  1  0
  2  3  1  0
  3  4  2  0
  4  5  1  0
  5  6  1  0
  6  7  1  0
  7  8  1  0
  8  9  1  0
  9 10  1  0
 10 11  1  0
 11 12  1  0
 12 13  1  0
 13 14  1  0
 14 15  2  0
 15 16  1  0
 16 17  2  0
 17 18  1  0
 18 19  2  0
 13 20  1  0
 20 21  1  0
  9 22  1  0
  5 23  1  0
 23 24  1  0
 24  2  1  0
 22  6  1  0
 21 10  1  0
 19 14  1  0
M  END
>  <Title>  (1412) 
idACAJgen6

$$$$

     RDKit          2D

 22 24  0  0  0  0  0  0  0  0999 V2000
   -4.1679   -3.2376    0.0000 C   0  0  0  0  0  0  0  0  0  0  0  0
   -3.1476   -2.1380    0.0000 O   0  0  0  0  0  0  0  0  0  0  0  0
   -1.6852   -2.4718    0.0000 C   0  0  0  0  0  0  0  0  0  0  0  0
   -1.3515   -3.9342    0.0000 C   0  0  0  0  0  0  0  0  0  0  0  0
   -0.0000   -4.5850    0.0000 C   0  0  0  0  0  0  0  0  0  0  0  0
    1.3515   -3.9342    0.0000 C   0  0  0  0  0  0  0  0  0  0  0  0
    1.6852   -2.4718    0.0000 C   0  0  0  0  0  0  0  0  0  0  0  0
    3.1476   -2.1380    0.0000 C   0  0  0  0  0  0  0  0  0  0  0  0
    3.5898   -0.7046    0.0000 O   0  0  0  0  0  0  0  0  0  0  0  0
    4.1679   -3.2376    0.0000 N   0  0  0  0  0  0  0  0  0  0  0  0
    5.6303   -2.9038    0.0000 C   0  0  0  0  0  0  0  0  0  0  0  0
    6.6505   -4.0034    0.0000 N   0  0  0  0  0  0  0  0  0  0  0  0
    8.1129   -3.6696    0.0000 N   0  0  0  0  0  0  0  0  0  0  0  0
    8.5551   -2.2362    0.0000 N   0  0  0  0  0  0  0  0  0  0  0  0
    7.5348   -1.1367    0.0000 N   0  0  0  0  0  0  0  0  0  0  0  0
    6.0724   -1.4704    0.0000 N   0  0  0  0  0  0  0  0  0  0  0  0
    0.7500   -1.2990    0.0000 C   0  0  0  0  0  0  0  0  0  0  0  0
    1.5000    0.0000    0.0000 C   0  0  0  0  0  0  0  0  0  0  0  0
    0.7500    1.2990    0.0000 C   0  0  0  0  0  0  0  0  0  0  0  0
   -0.7500    1.2990    0.0000 C   0  0  0  0  0  0  0  0  0  0  0  0
   -1.5000    0.0000    0.0000 C   0  0  0  0  0  0  0  0  0  0  0  0
   -0.7500   -1.2990    0.0000 C   0  0  0  0  0  0  0  0  0  0  0  0
  1  2  1  0
  2  3  1  0
  3  4  1  0
  4  5  2  0
  5  6  1  0
  6  7  1  0
  7  8  1  0
  8  9  2  0
  8 10  1  0
 10 11  1  0
 11 12  2  0
 12 13  1  0
 13 14  2  0
 14 15  1  0
 15 16  2  0
  7 17  1  0
 17 18  2  0
 18 19  1  0
 19 20  2  0
 20 21  1  0
 21 22  2  0
 22  3  1  0
 16 11  1  0
 22 17  1  0
M  END
>  <Title>  (1413) 
idACAKgen6

$$$$

     RDKit          2D

 23 25  0  0  0  0  0  0  0  0999 V2000
   -3.7500   -3.8971    0.0000 C   0  0  0  0  0  0  0  0  0  0  0  0
   -3.0000   -2.5981    0.0000 O   0  0  0  0  0  0  0  0  0  0  0  0
   -1.5000   -2.5981    0.0000 C   0  0  0  0  0  0  0  0  0  0  0  0
   -0.7500   -3.8971    0.0000 C   0  0  0  0  0  0  0  0  0  0  0  0
    0.7500   -3.8971    0.0000 C   0  0  0  0  0  0  0  0  0  0  0  0
    1.5000   -2.5981    0.0000 C   0  0  0  0  0  0  0  0  0  0  0  0
    3.0000   -2.5981    0.0000 C   0  0  0  0  0  0  0  0  0  0  0  0
    3.7500   -1.2990    0.0000 O   0  0  0  0  0  0  0  0  0  0  0  0
    3.7500   -3.8971    0.0000 N   0  0  0  0  0  0  0  0  0  0  0  0
    5.2500   -3.8971    0.0000 C   0  0  0  0  0  0  0  0  0  0  0  0
    6.0000   -5.1962    0.0000 N   0  0  0  0  0  0  0  0  0  0  0  0
    7.5000   -5.1962    0.0000 N   0  0  0  0  0  0  0  0  0  0  0  0
    8.2500   -3.8971    0.0000 N   0  0  0  0  0  0  0  0  0  0  0  0
    7.5000   -2.5981    0.0000 N   0  0  0  0  0  0  0  0  0  0  0  0
    6.0000   -2.5981    0.0000 N   0  0  0  0  0  0  0  0  0  0  0  0
    0.7500   -1.2990    0.0000 C   0  0  0  0  0  0  0  0  0  0  0  0
    1.5000    0.0000    0.0000 C   0  0  0  0  0  0  0  0  0  0  0  0
    0.7500    1.2990    0.0000 C   0  0  0  0  0  0  0  0  0  0  0  0
   -0.7500    1.2990    0.0000 C   0  0  0  0  0  0  0  0  0  0  0  0
   -1.5000    2.5981    0.0000 C   0  0  0  0  0  0  0  0  0  0  0  0
   -2.2500    3.8971    0.0000 N   0  0  0  0  0  0  0  0  0  0  0  0
   -1.5000    0.0000    0.0000 C   0  0  0  0  0  0  0  0  0  0  0  0
   -0.7500   -1.2990    0.0000 C   0  0  0  0  0  0  0  0  0  0  0  0
  1  2  1  0
  2  3  1  0
  3  4  2  0
  4  5  1  0
  5  6  2  0
  6  7  1  0
  7  8  2  0
  7  9  1  0
  9 10  1  0
 10 11  2  0
 11 12  1  0
 12 13  2  0
 13 14  1  0
 14 15  2  0
  6 16  1  0
 16 17  2  0
 17 18  1  0
 18 19  2  0
 19 20  1  0
 20 21  3  0
 19 22  1  0
 22 23  2  0
 23  3  1  0
 15 10  1  0
 23 16  1  0
M  END
>  <Title>  (1414) 
idACALgen6

$$$$

     RDKit          2D

 27 28  0  0  0  0  0  0  0  0999 V2000
   -0.6081   -8.9114    0.0000 C   0  0  0  0  0  0  0  0  0  0  0  0
   -1.3759   -7.6228    0.0000 C   0  0  0  0  0  0  0  0  0  0  0  0
   -2.7733   -8.1681    0.0000 C   0  0  0  0  0  0  0  0  0  0  0  0
   -4.2720   -8.2301    0.0000 C   0  0  0  0  0  0  0  0  0  0  0  0
   -5.7097   -7.8021    0.0000 C   0  0  0  0  0  0  0  0  0  0  0  0
   -6.9305   -6.9305    0.0000 C   0  0  0  0  0  0  0  0  0  0  0  0
   -7.8021   -5.7097    0.0000 C   0  0  0  0  0  0  0  0  0  0  0  0
   -8.2301   -4.2720    0.0000 C   0  0  0  0  0  0  0  0  0  0  0  0
   -8.1681   -2.7733    0.0000 C   0  0  0  0  0  0  0  0  0  0  0  0
   -7.6228   -1.3759    0.0000 C   0  0  0  0  0  0  0  0  0  0  0  0
   -6.6534   -0.2313    0.0000 C   0  0  0  0  0  0  0  0  0  0  0  0
   -5.3648    0.5365    0.0000 C   0  0  0  0  0  0  0  0  0  0  0  0
   -3.8967    0.8443    0.0000 C   0  0  0  0  0  0  0  0  0  0  0  0
   -2.4082    0.6588    0.0000 C   0  0  0  0  0  0  0  0  0  0  0  0
   -1.0607    0.0000    0.0000 C   0  0  0  0  0  0  0  0  0  0  0  0
   -0.0000   -1.0607    0.0000 C   0  0  0  0  0  0  0  0  0  0  0  0
    0.6588   -2.4082    0.0000 N   0  0  0  0  0  0  0  0  0  0  0  0
    0.8443   -3.8967    0.0000 N   0  0  0  0  0  0  0  0  0  0  0  0
    0.5365   -5.3648    0.0000 C   0  0  0  0  0  0  0  0  0  0  0  0
    1.9339   -5.9101    0.0000 C   0  0  0  0  0  0  0  0  0  0  0  0
    3.1048   -4.9725    0.0000 O   0  0  0  0  0  0  0  0  0  0  0  0
    2.1604   -7.3929    0.0000 O   0  0  0  0  0  0  0  0  0  0  0  0
   -0.2313   -6.6534    0.0000 C   0  0  0  0  0  0  0  0  0  0  0  0
    0.9133   -7.6228    0.0000 O   0  0  0  0  0  0  0  0  0  0  0  0
    1.0607    0.0000    0.0000 N   0  0  0  0  0  0  0  0  0  0  0  0
    0.0000    1.0607    0.0000 C   0  0  0  0  0  0  0  0  0  0  0  0
    0.0000    2.5607    0.0000 O   0  0  0  0  0  0  0  0  0  0  0  0
  1  2  1  0
  2  3  2  0
  3  4  1  0
  4  5  2  0
  5  6  1  0
  6  7  2  0
  7  8  1  0
  8  9  2  0
  9 10  1  0
 10 11  2  0
 11 12  1  0
 12 13  2  0
 13 14  1  0
 14 15  2  0
 15 16  1  0
 16 17  2  0
 17 18  1  0
 18 19  2  0
 19 20  1  0
 20 21  2  0
 20 22  1  0
 19 23  1  0
 23 24  2  0
 16 25  1  0
 25 26  1  0
 26 27  2  0
 23  2  1  0
 26 15  1  0
M  END
>  <Title>  (1415) 
idACAMgen6

$$$$

     RDKit          2D

 22 23  0  0  0  0  0  0  0  0999 V2000
    6.0000   -5.1962    0.0000 C   0  0  0  0  0  0  0  0  0  0  0  0
    5.2500   -3.8971    0.0000 C   0  0  0  0  0  0  0  0  0  0  0  0
    3.7500   -3.8971    0.0000 O   0  0  0  0  0  0  0  0  0  0  0  0
    6.0000   -2.5981    0.0000 C   0  0  0  0  0  0  0  0  0  0  0  0
    7.5000   -2.5981    0.0000 C   0  0  0  0  0  0  0  0  0  0  0  0
    5.2500   -1.2990    0.0000 C   0  0  0  0  0  0  0  0  0  0  0  0
    3.7500   -1.2990    0.0000 C   0  0  0  0  0  0  0  0  0  0  0  0
    3.0000    0.0000    0.0000 C   0  0  0  0  0  0  0  0  0  0  0  0
    3.7500    1.2990    0.0000 O   0  0  0  0  0  0  0  0  0  0  0  0
    1.5000    0.0000    0.0000 C   0  0  0  0  0  0  0  0  0  0  0  0
    0.7500   -1.2990    0.0000 C   0  0  0  0  0  0  0  0  0  0  0  0
   -0.7500   -1.2990    0.0000 S   0  0  0  0  0  4  0  0  0  0  0  0
   -1.5000    0.0000    0.0000 C   0  0  0  0  0  0  0  0  0  0  0  0
   -3.0000    0.0000    0.0000 C   0  0  0  0  0  0  0  0  0  0  0  0
   -3.7500    1.2990    0.0000 C   0  0  0  0  0  0  0  0  0  0  0  0
   -5.2500    1.2990    0.0000 C   0  0  0  0  0  0  0  0  0  0  0  0
   -6.0000    0.0000    0.0000 C   0  0  0  0  0  0  0  0  0  0  0  0
   -5.2500   -1.2990    0.0000 C   0  0  0  0  0  0  0  0  0  0  0  0
   -3.7500   -1.2990    0.0000 C   0  0  0  0  0  0  0  0  0  0  0  0
   -0.7500    1.2990    0.0000 C   0  0  0  0  0  0  0  0  0  0  0  0
   -1.5000    2.5981    0.0000 O   0  0  0  0  0  0  0  0  0  0  0  0
    0.7500    1.2990    0.0000 N   0  0  0  0  0  0  0  0  0  0  0  0
  1  2  1  0
  2  3  2  0
  2  4  1  0
  4  5  1  0
  4  6  2  3
  6  7  1  0
  7  8  2  3
  8  9  1  0
  8 10  1  0
 10 11  2  0
 11 12  1  0
 12 13  2  0
 13 14  1  0
 14 15  2  0
 15 16  1  0
 16 17  2  0
 17 18  1  0
 18 19  2  0
 13 20  1  0
 20 21  2  0
 20 22  1  0
 22 10  1  0
 19 14  1  0
M  END
>  <Title>  (1416) 
idACANgen6

$$$$

     RDKit          2D

 22 24  0  0  0  0  0  0  0  0999 V2000
   -3.1981   -1.5132    0.0000 C   0  0  0  0  0  0  0  0  0  0  0  0
   -1.8991   -2.2632    0.0000 C   0  0  0  0  0  0  0  0  0  0  0  0
   -2.1595   -3.7404    0.0000 C   0  0  0  0  0  0  0  0  0  0  0  0
   -1.4095   -5.0395    0.0000 C   0  0  0  0  0  0  0  0  0  0  0  0
   -0.0000   -5.5525    0.0000 C   0  0  0  0  0  0  0  0  0  0  0  0
    1.4095   -5.0395    0.0000 C   0  0  0  0  0  0  0  0  0  0  0  0
    2.1595   -3.7404    0.0000 C   0  0  0  0  0  0  0  0  0  0  0  0
    1.8991   -2.2632    0.0000 C   0  0  0  0  0  0  0  0  0  0  0  0
    3.1981   -1.5132    0.0000 C   0  0  0  0  0  0  0  0  0  0  0  0
    4.4971   -2.2632    0.0000 N   0  0  0  0  0  0  0  0  0  0  0  0
    5.7962   -1.5132    0.0000 N   0  0  0  0  0  0  0  0  0  0  0  0
    5.7962   -0.0132    0.0000 N   0  0  0  0  0  0  0  0  0  0  0  0
    4.4971    0.7368    0.0000 N   0  0  0  0  0  0  0  0  0  0  0  0
    3.1981   -0.0132    0.0000 N   0  0  0  0  0  0  0  0  0  0  0  0
    0.7500   -1.2990    0.0000 C   0  0  0  0  0  0  0  0  0  0  0  0
    1.5000    0.0000    0.0000 C   0  0  0  0  0  0  0  0  0  0  0  0
    0.7500    1.2990    0.0000 C   0  0  0  0  0  0  0  0  0  0  0  0
   -0.7500    1.2990    0.0000 C   0  0  0  0  0  0  0  0  0  0  0  0
   -1.5000    2.5981    0.0000 C   0  0  0  0  0  0  0  0  0  0  0  0
   -2.2500    3.8971    0.0000 N   0  0  0  0  0  0  0  0  0  0  0  0
   -1.5000    0.0000    0.0000 C   0  0  0  0  0  0  0  0  0  0  0  0
   -0.7500   -1.2990    0.0000 C   0  0  0  0  0  0  0  0  0  0  0  0
  1  2  1  0
  2  3  1  0
  3  4  2  0
  4  5  1  0
  5  6  2  0
  6  7  1  0
  7  8  2  0
  8  9  1  0
  9 10  2  0
 10 11  1  0
 11 12  2  0
 12 13  1  0
 13 14  2  0
  8 15  1  0
 15 16  2  0
 16 17  1  0
 17 18  2  0
 18 19  1  0
 19 20  3  0
 18 21  1  0
 21 22  2  0
 22  2  1  0
 14  9  1  0
 22 15  1  0
M  END
>  <Title>  (1417) 
idACAOgen6

$$$$

     RDKit          2D

 47 53  0  0  0  0  0  0  0  0999 V2000
   -4.3405    2.9406    0.0000 C   0  0  0  0  0  0  0  0  0  0  0  0
   -3.1270    2.0589    0.0000 N   0  0  0  0  0  0  0  0  0  0  0  0
   -3.4771    0.6004    0.0000 C   0  0  0  0  0  0  0  0  0  0  0  0
   -2.6934   -0.6786    0.0000 C   0  0  0  0  0  0  0  0  0  0  0  0
   -3.5751   -1.8921    0.0000 C   0  0  0  0  0  0  0  0  0  0  0  0
   -2.9650   -3.2625    0.0000 C   0  0  0  0  0  0  0  0  0  0  0  0
   -3.8466   -4.4760    0.0000 C   0  0  0  0  0  0  0  0  0  0  0  0
   -5.3384   -4.3192    0.0000 C   0  0  0  0  0  0  0  0  0  0  0  0
   -5.9485   -2.9489    0.0000 C   0  0  0  0  0  0  0  0  0  0  0  0
   -5.0668   -1.7353    0.0000 C   0  0  0  0  0  0  0  0  0  0  0  0
   -1.0323   -0.7500    0.0000 C   0  0  0  0  0  0  0  0  0  0  0  0
    0.3943   -1.2135    0.0000 C   0  0  0  0  0  0  0  0  0  0  0  0
    1.2760    0.0000    0.0000 C   0  0  0  0  0  0  0  0  0  0  0  0
    2.7760    0.0000    0.0000 C   0  0  0  0  0  0  0  0  0  0  0  0
    3.5260    1.2990    0.0000 C   0  0  0  0  0  0  0  0  0  0  0  0
    5.0260    1.2990    0.0000 C   0  0  0  0  0  0  0  0  0  0  0  0
    5.7760    0.0000    0.0000 C   0  0  0  0  0  0  0  0  0  0  0  0
    5.0260   -1.2990    0.0000 C   0  0  0  0  0  0  0  0  0  0  0  0
    3.5260   -1.2990    0.0000 C   0  0  0  0  0  0  0  0  0  0  0  0
    0.3943    1.2135    0.0000 C   0  0  0  0  0  0  0  0  0  0  0  0
   -0.3894    2.4925    0.0000 O   0  0  0  0  0  0  0  0  0  0  0  0
   -1.8480    2.8427    0.0000 C   0  0  0  0  0  0  0  0  0  0  0  0
   -1.0323    0.7500    0.0000 C   0  0  0  0  0  0  0  0  0  0  0  0
   -2.2458    1.6317    0.0000 C   0  0  0  0  0  0  0  0  0  0  0  0
   -2.0890    3.1235    0.0000 C   0  0  0  0  0  0  0  0  0  0  0  0
   -3.3025    4.0051    0.0000 C   0  0  0  0  0  0  0  0  0  0  0  0
   -3.1458    5.4969    0.0000 C   0  0  0  0  0  0  0  0  0  0  0  0
   -4.3593    6.3786    0.0000 C   0  0  0  0  0  0  0  0  0  0  0  0
   -4.2025    7.8704    0.0000 C   0  0  0  0  0  0  0  0  0  0  0  0
   -5.3172    8.8741    0.0000 C   0  0  0  0  0  0  0  0  0  0  0  0
   -4.7071   10.2444    0.0000 C   0  0  0  0  0  0  0  0  0  0  0  0
   -3.2153   10.0876    0.0000 C   0  0  0  0  0  0  0  0  0  0  0  0
   -2.9034    8.6204    0.0000 C   0  0  0  0  0  0  0  0  0  0  0  0
   -1.5331    8.0103    0.0000 C   0  0  0  0  0  0  0  0  0  0  0  0
   -0.2341    8.7603    0.0000 C   0  0  0  0  0  0  0  0  0  0  0  0
    0.8806    7.7566    0.0000 C   0  0  0  0  0  0  0  0  0  0  0  0
    0.2705    6.3863    0.0000 C   0  0  0  0  0  0  0  0  0  0  0  0
    1.0205    5.0872    0.0000 C   0  0  0  0  0  0  0  0  0  0  0  0
    2.5205    5.0872    0.0000 O   0  0  0  0  0  0  0  0  0  0  0  0
    0.2705    3.7882    0.0000 N   0  0  0  0  0  0  0  0  0  0  0  0
    1.0205    2.4891    0.0000 C   0  0  0  0  0  0  0  0  0  0  0  0
    0.2705    1.1901    0.0000 N   0  0  0  0  0  0  0  0  0  0  0  0
    1.0205   -0.1089    0.0000 N   0  0  0  0  0  0  0  0  0  0  0  0
    2.5205   -0.1089    0.0000 N   0  0  0  0  0  0  0  0  0  0  0  0
    3.2705    1.1901    0.0000 N   0  0  0  0  0  0  0  0  0  0  0  0
    2.5205    2.4891    0.0000 N   0  0  0  0  0  0  0  0  0  0  0  0
   -1.2213    6.5431    0.0000 C   0  0  0  0  0  0  0  0  0  0  0  0
  1  2  1  0
  2  3  1  0
  3  4  2  0
  4  5  1  0
  5  6  2  0
  6  7  1  0
  7  8  2  0
  8  9  1  0
  9 10  2  0
  4 11  1  0
 11 12  1  0
 12 13  2  0
 13 14  1  0
 14 15  2  0
 15 16  1  0
 16 17  2  0
 17 18  1  0
 18 19  2  0
 13 20  1  0
 20 21  1  0
 21 22  1  0
 20 23  1  0
 23 24  1  0
 24 25  1  0
 25 26  1  0
 26 27  2  3
 27 28  1  0
 28 29  2  3
 29 30  1  0
 30 31  2  0
 31 32  1  0
 32 33  2  0
 33 34  1  0
 34 35  2  0
 35 36  1  0
 36 37  2  0
 37 38  1  0
 38 39  2  0
 38 40  1  0
 40 41  1  0
 41 42  2  0
 42 43  1  0
 43 44  2  0
 44 45  1  0
 45 46  2  0
 37 47  1  0
 22  2  1  0
 33 29  1  0
 47 34  1  0
 10  5  1  0
 23 11  1  0
 46 41  1  0
 19 14  1  0
M  END
>  <Title>  (1418) 
idACAPgen6

$$$$

     RDKit          2D

 14 14  0  0  0  0  0  0  0  0999 V2000
    3.6406    0.8817    0.0000 C   0  0  0  0  0  0  0  0  0  0  0  0
    2.4271    0.0000    0.0000 C   0  0  0  0  0  0  0  0  0  0  0  0
    3.6406   -0.8817    0.0000 O   0  0  0  0  0  0  0  0  0  0  0  0
    1.9635   -1.4266    0.0000 C   0  0  0  0  0  0  0  0  0  0  0  0
    0.7500   -2.3083    0.0000 C   0  0  0  0  0  0  0  0  0  0  0  0
   -0.7500   -2.3083    0.0000 C   0  0  0  0  0  0  0  0  0  0  0  0
   -1.9635   -1.4266    0.0000 C   0  0  0  0  0  0  0  0  0  0  0  0
   -2.4271    0.0000    0.0000 C   0  0  0  0  0  0  0  0  0  0  0  0
   -1.9635    1.4266    0.0000 C   0  0  0  0  0  0  0  0  0  0  0  0
   -0.7500    2.3083    0.0000 C   0  0  0  0  0  0  0  0  0  0  0  0
    0.7500    2.3083    0.0000 C   0  0  0  0  0  0  0  0  0  0  0  0
    1.2135    3.7348    0.0000 C   0  0  0  0  0  0  0  0  0  0  0  0
    2.6807    4.0467    0.0000 O   0  0  0  0  0  0  0  0  0  0  0  0
    1.9635    1.4266    0.0000 C   0  0  0  0  0  0  0  0  0  0  0  0
  1  2  1  0
  2  3  1  0
  2  4  1  0
  4  5  1  0
  5  6  1  0
  6  7  1  0
  7  8  1  0
  8  9  3  0
  9 10  1  0
 10 11  2  0
 11 12  1  0
 12 13  1  0
 11 14  1  0
 14  2  1  0
M  END
>  <Title>  (1419) 
idACAQgen6

$$$$

     RDKit          2D

 11 10  0  0  0  0  0  0  0  0999 V2000
    0.0000    0.0000    0.0000 C   0  0  0  0  0  0  0  0  0  0  0  0
    1.2990    0.7500    0.0000 C   0  0  0  0  0  0  0  0  0  0  0  0
    2.5981   -0.0000    0.0000 C   0  0  0  0  0  0  0  0  0  0  0  0
    3.8971    0.7500    0.0000 C   0  0  0  0  0  0  0  0  0  0  0  0
    5.1962   -0.0000    0.0000 C   0  0  0  0  0  0  0  0  0  0  0  0
    6.4952    0.7500    0.0000 C   0  0  0  0  0  0  0  0  0  0  0  0
    7.7942   -0.0000    0.0000 C   0  0  0  0  0  0  0  0  0  0  0  0
    9.0933    0.7500    0.0000 C   0  0  0  0  0  0  0  0  0  0  0  0
   10.3923   -0.0000    0.0000 C   0  0  0  0  0  0  0  0  0  0  0  0
   11.6913    0.7500    0.0000 C   0  0  0  0  0  0  0  0  0  0  0  0
   12.9904   -0.0000    0.0000 C   0  0  0  0  0  0  0  0  0  0  0  0
  1  2  1  0
  2  3  1  0
  3  4  1  0
  4  5  1  0
  5  6  1  0
  6  7  1  0
  7  8  1  0
  8  9  1  0
  9 10  1  0
 10 11  1  0
M  END
>  <Title>  (1420) 
idACARgen6

$$$$

     RDKit          2D

 32 36  0  0  0  0  0  0  0  0999 V2000
    6.3723   -5.3353    0.0000 C   0  0  0  0  0  0  0  0  0  0  0  0
    5.0078   -4.7122    0.0000 C   0  0  0  0  0  0  0  0  0  0  0  0
    4.8653   -3.2190    0.0000 O   0  0  0  0  0  0  0  0  0  0  0  0
    3.7860   -5.5823    0.0000 O   0  0  0  0  0  0  0  0  0  0  0  0
    2.4215   -4.9592    0.0000 C   0  0  0  0  0  0  0  0  0  0  0  0
    2.6350   -3.4744    0.0000 C   0  0  0  0  0  0  0  0  0  0  0  0
    2.0119   -2.1100    0.0000 S   0  0  0  0  0  0  0  0  0  0  0  0
    0.7500   -1.2990    0.0000 C   0  0  0  0  0  0  0  0  0  0  0  0
    1.5000    0.0000    0.0000 C   0  0  0  0  0  0  0  0  0  0  0  0
    0.7500    1.2990    0.0000 C   0  0  0  0  0  0  0  0  0  0  0  0
   -0.7500    1.2990    0.0000 C   0  0  0  0  0  0  0  0  0  0  0  0
   -1.5000    0.0000    0.0000 C   0  0  0  0  0  0  0  0  0  0  0  0
   -0.7500   -1.2990    0.0000 C   0  0  0  0  0  0  0  0  0  0  0  0
   -2.0119   -2.1100    0.0000 C   0  0  0  0  0  0  0  0  0  0  0  0
   -2.8820   -0.8881    0.0000 C   0  0  0  0  0  0  0  0  0  0  0  0
   -4.3752   -1.0307    0.0000 C   0  0  0  0  0  0  0  0  0  0  0  0
   -4.9983   -2.3952    0.0000 C   0  0  0  0  0  0  0  0  0  0  0  0
   -4.1282   -3.6170    0.0000 C   0  0  0  0  0  0  0  0  0  0  0  0
   -2.6350   -3.4744    0.0000 C   0  0  0  0  0  0  0  0  0  0  0  0
   -2.4215   -4.9592    0.0000 C   0  0  0  0  0  0  0  0  0  0  0  0
   -3.8944   -5.2431    0.0000 C   0  0  0  0  0  0  0  0  0  0  0  0
   -4.3850   -6.6606    0.0000 C   0  0  0  0  0  0  0  0  0  0  0  0
   -3.4027   -7.7942    0.0000 C   0  0  0  0  0  0  0  0  0  0  0  0
   -1.9298   -7.5103    0.0000 C   0  0  0  0  0  0  0  0  0  0  0  0
   -1.4392   -6.0928    0.0000 C   0  0  0  0  0  0  0  0  0  0  0  0
   -0.0000   -6.5154    0.0000 C   0  0  0  0  0  0  0  0  0  0  0  0
   -0.3536   -7.9731    0.0000 C   0  0  0  0  0  0  0  0  0  0  0  0
    0.7320   -9.0082    0.0000 C   0  0  0  0  0  0  0  0  0  0  0  0
    2.1712   -8.5856    0.0000 C   0  0  0  0  0  0  0  0  0  0  0  0
    3.2568   -9.6208    0.0000 O   0  0  0  0  0  0  0  0  0  0  0  0
    2.5248   -7.1279    0.0000 C   0  0  0  0  0  0  0  0  0  0  0  0
    1.4392   -6.0928    0.0000 C   0  0  0  0  0  0  0  0  0  0  0  0
  1  2  1  0
  2  3  2  0
  2  4  1  0
  4  5  1  0
  5  6  2  0
  6  7  1  0
  7  8  1  0
  8  9  2  0
  9 10  1  0
 10 11  2  0
 11 12  1  0
 12 13  2  0
 13 14  1  0
 14 15  2  0
 15 16  1  0
 16 17  2  0
 17 18  1  0
 18 19  2  0
 19 20  1  0
 20 21  2  0
 21 22  1  0
 22 23  2  0
 23 24  1  0
 24 25  2  0
 25 26  1  0
 26 27  2  0
 27 28  1  0
 28 29  2  0
 29 30  1  0
 29 31  1  0
 31 32  2  0
 32  5  1  0
 13  8  1  0
 19 14  1  0
 25 20  1  0
 32 26  1  0
M  END
>  <Title>  (1421) 
idACASgen6

$$$$

     RDKit          2D

  4  3  0  0  0  0  0  0  0  0999 V2000
    0.0000    0.0000    0.0000 C   0  0  0  0  0  0  0  0  0  0  0  0
    1.2990    0.7500    0.0000 C   0  0  0  0  0  0  0  0  0  0  0  0
    2.5981   -0.0000    0.0000 C   0  0  0  0  0  0  0  0  0  0  0  0
    3.8971    0.7500    0.0000 O   0  0  0  0  0  0  0  0  0  0  0  0
  1  2  2  0
  2  3  1  0
  3  4  1  0
M  END
>  <Title>  (1422) 
idACATgen6

$$$$

     RDKit          2D

 41 46  0  0  0  0  0  0  0  0999 V2000
   -3.1981   -1.5132    0.0000 C   0  0  0  0  0  0  0  0  0  0  0  0
   -1.8991   -2.2632    0.0000 C   0  0  0  0  0  0  0  0  0  0  0  0
   -2.1595   -3.7404    0.0000 C   0  0  0  0  0  0  0  0  0  0  0  0
   -1.4095   -5.0395    0.0000 C   0  0  0  0  0  0  0  0  0  0  0  0
   -0.0000   -5.5525    0.0000 C   0  0  0  0  0  0  0  0  0  0  0  0
   -0.0000   -7.0525    0.0000 C   0  0  0  0  0  0  0  0  0  0  0  0
    1.2990   -7.8025    0.0000 O   0  0  0  0  0  0  0  0  0  0  0  0
   -1.2990   -7.8025    0.0000 N   0  0  0  0  0  0  0  0  0  0  0  0
   -1.2990   -9.3025    0.0000 C   0  0  0  0  0  0  0  0  0  0  0  0
   -0.0855  -10.1842    0.0000 N   0  0  0  0  0  0  0  0  0  0  0  0
   -0.5490  -11.6108    0.0000 N   0  0  0  0  0  0  0  0  0  0  0  0
   -2.0490  -11.6108    0.0000 N   0  0  0  0  0  0  0  0  0  0  0  0
   -2.5126  -10.1842    0.0000 N   0  0  0  0  0  0  0  0  0  0  0  0
   -3.9391   -9.7207    0.0000 C   0  0  0  0  0  0  0  0  0  0  0  0
   -4.2510   -8.2534    0.0000 C   0  0  0  0  0  0  0  0  0  0  0  0
   -5.6776   -7.7899    0.0000 C   0  0  0  0  0  0  0  0  0  0  0  0
   -6.7923   -8.7936    0.0000 C   0  0  0  0  0  0  0  0  0  0  0  0
   -6.4805  -10.2608    0.0000 C   0  0  0  0  0  0  0  0  0  0  0  0
   -5.0539  -10.7243    0.0000 C   0  0  0  0  0  0  0  0  0  0  0  0
   -4.7420  -12.1916    0.0000 C   0  0  0  0  0  0  0  0  0  0  0  0
   -3.3154  -12.6551    0.0000 C   0  0  0  0  0  0  0  0  0  0  0  0
   -3.0035  -14.1223    0.0000 C   0  0  0  0  0  0  0  0  0  0  0  0
   -4.1183  -15.1260    0.0000 C   0  0  0  0  0  0  0  0  0  0  0  0
   -5.5448  -14.6625    0.0000 C   0  0  0  0  0  0  0  0  0  0  0  0
   -5.8567  -13.1953    0.0000 C   0  0  0  0  0  0  0  0  0  0  0  0
   -7.2833  -12.7317    0.0000 C   0  0  0  0  0  0  0  0  0  0  0  0
   -8.3980  -13.7354    0.0000 C   0  0  0  0  0  0  0  0  0  0  0  0
   -9.8246  -13.2719    0.0000 C   0  0  0  0  0  0  0  0  0  0  0  0
  -10.1365  -11.8047    0.0000 C   0  0  0  0  0  0  0  0  0  0  0  0
   -9.0218  -10.8010    0.0000 C   0  0  0  0  0  0  0  0  0  0  0  0
   -7.5952  -11.2645    0.0000 C   0  0  0  0  0  0  0  0  0  0  0  0
    1.4095   -5.0395    0.0000 C   0  0  0  0  0  0  0  0  0  0  0  0
    2.3737   -6.1885    0.0000 O   0  0  0  0  0  0  0  0  0  0  0  0
    2.1595   -3.7404    0.0000 O   0  0  0  0  0  0  0  0  0  0  0  0
    1.8991   -2.2632    0.0000 C   0  0  0  0  0  0  0  0  0  0  0  0
    0.7500   -1.2990    0.0000 C   0  0  0  0  0  0  0  0  0  0  0  0
    1.5000    0.0000    0.0000 C   0  0  0  0  0  0  0  0  0  0  0  0
    0.7500    1.2990    0.0000 C   0  0  0  0  0  0  0  0  0  0  0  0
   -0.7500    1.2990    0.0000 C   0  0  0  0  0  0  0  0  0  0  0  0
   -1.5000    0.0000    0.0000 C   0  0  0  0  0  0  0  0  0  0  0  0
   -0.7500   -1.2990    0.0000 C   0  0  0  0  0  0  0  0  0  0  0  0
  1  2  1  0
  2  3  1  0
  3  4  1  0
  4  5  1  0
  5  6  1  0
  6  7  2  0
  6  8  1  0
  8  9  1  0
  9 10  2  0
 10 11  1  0
 11 12  2  0
 12 13  1  0
 13 14  1  0
 14 15  2  0
 15 16  1  0
 16 17  2  0
 17 18  1  0
 18 19  2  0
 19 20  1  0
 20 21  2  0
 21 22  1  0
 22 23  2  0
 23 24  1  0
 24 25  2  0
 25 26  1  0
 26 27  2  0
 27 28  1  0
 28 29  2  0
 29 30  1  0
 30 31  2  0
  5 32  1  0
 32 33  2  0
 32 34  1  0
 34 35  1  0
 35 36  1  0
 36 37  2  0
 37 38  1  0
 38 39  2  0
 39 40  1  0
 40 41  2  0
 41  2  1  0
 13  9  1  0
 19 14  1  0
 25 20  1  0
 31 26  1  0
 41 36  1  0
M  END
>  <Title>  (1423) 
idACAUgen6

$$$$

     RDKit          2D

 14 15  0  0  0  0  0  0  0  0999 V2000
    3.3107   -8.3323    0.0000 C   0  0  0  0  0  0  0  0  0  0  0  0
    2.5607   -7.0333    0.0000 C   0  0  0  0  0  0  0  0  0  0  0  0
    1.1118   -6.6450    0.0000 C   0  0  0  0  0  0  0  0  0  0  0  0
    1.5000   -5.1962    0.0000 C   0  0  0  0  0  0  0  0  0  0  0  0
    0.7500   -3.8971    0.0000 C   0  0  0  0  0  0  0  0  0  0  0  0
   -0.7500   -3.8971    0.0000 O   0  0  0  0  0  0  0  0  0  0  0  0
    1.5000   -2.5981    0.0000 N   0  0  0  0  0  0  0  0  0  0  0  0
    0.7500   -1.2990    0.0000 C   0  0  0  0  0  0  0  0  0  0  0  0
    1.5000    0.0000    0.0000 N   0  0  0  0  0  0  0  0  0  0  0  0
    0.7500    1.2990    0.0000 N   0  0  0  0  0  0  0  0  0  0  0  0
   -0.7500    1.2990    0.0000 N   0  0  0  0  0  0  0  0  0  0  0  0
   -1.5000    0.0000    0.0000 N   0  0  0  0  0  0  0  0  0  0  0  0
   -0.7500   -1.2990    0.0000 N   0  0  0  0  0  0  0  0  0  0  0  0
    2.9489   -5.5844    0.0000 C   0  0  0  0  0  0  0  0  0  0  0  0
  1  2  1  0
  2  3  2  0
  3  4  1  0
  4  5  1  0
  5  6  2  0
  5  7  1  0
  7  8  1  0
  8  9  2  0
  9 10  1  0
 10 11  2  0
 11 12  1  0
 12 13  2  0
  4 14  1  0
 14  2  1  0
 13  8  1  0
M  END
>  <Title>  (1424) 
idACAVgen6

$$$$

     RDKit          2D

 34 37  0  0  0  0  0  0  0  0999 V2000
    7.6596    1.8624    0.0000 C   0  0  0  0  0  0  0  0  0  0  0  0
    6.2738    1.2883    0.0000 C   0  0  0  0  0  0  0  0  0  0  0  0
    6.0780   -0.1988    0.0000 O   0  0  0  0  0  0  0  0  0  0  0  0
    5.0838    2.2015    0.0000 N   0  0  0  0  0  0  0  0  0  0  0  0
    3.6980    1.6274    0.0000 C   0  0  0  0  0  0  0  0  0  0  0  0
    3.7634    0.1289    0.0000 C   0  0  0  0  0  0  0  0  0  0  0  0
    2.8503   -1.0612    0.0000 S   0  0  0  0  0  0  0  0  0  0  0  0
    2.7413   -2.5572    0.0000 O   0  0  0  0  0  0  0  0  0  0  0  0
    4.2522   -1.5946    0.0000 O   0  0  0  0  0  0  0  0  0  0  0  0
    1.3858   -1.3858    0.0000 C   0  0  0  0  0  0  0  0  0  0  0  0
    1.9598    0.0000    0.0000 C   0  0  0  0  0  0  0  0  0  0  0  0
    1.3858    1.3858    0.0000 C   0  0  0  0  0  0  0  0  0  0  0  0
    0.0000    1.9598    0.0000 C   0  0  0  0  0  0  0  0  0  0  0  0
   -1.3858    1.3858    0.0000 O   0  0  0  0  0  0  0  0  0  0  0  0
   -1.9598    0.0000    0.0000 C   0  0  0  0  0  0  0  0  0  0  0  0
   -1.3858   -1.3858    0.0000 C   0  0  0  0  0  0  0  0  0  0  0  0
   -2.4465   -2.4465    0.0000 O   0  0  0  0  0  0  0  0  0  0  0  0
   -3.8954   -2.0583    0.0000 C   0  0  0  0  0  0  0  0  0  0  0  0
   -4.2836   -0.6094    0.0000 C   0  0  0  0  0  0  0  0  0  0  0  0
   -5.7325   -0.2211    0.0000 C   0  0  0  0  0  0  0  0  0  0  0  0
   -6.7931   -1.2818    0.0000 C   0  0  0  0  0  0  0  0  0  0  0  0
   -8.2420   -0.8936    0.0000 C   0  0  0  0  0  0  0  0  0  0  0  0
   -9.6909   -0.5053    0.0000 N   0  0  0  0  0  0  0  0  0  0  0  0
   -6.4049   -2.7307    0.0000 C   0  0  0  0  0  0  0  0  0  0  0  0
   -4.9560   -3.1189    0.0000 C   0  0  0  0  0  0  0  0  0  0  0  0
   -0.0000   -1.9598    0.0000 C   0  0  0  0  0  0  0  0  0  0  0  0
    1.1974    2.9291    0.0000 C   0  0  0  0  0  0  0  0  0  0  0  0
    0.6234    4.3150    0.0000 C   0  0  0  0  0  0  0  0  0  0  0  0
    1.5365    5.5050    0.0000 C   0  0  0  0  0  0  0  0  0  0  0  0
    3.0237    5.3092    0.0000 C   0  0  0  0  0  0  0  0  0  0  0  0
    3.9369    6.4992    0.0000 C   0  0  0  0  0  0  0  0  0  0  0  0
    4.8500    7.6893    0.0000 N   0  0  0  0  0  0  0  0  0  0  0  0
    3.5977    3.9234    0.0000 C   0  0  0  0  0  0  0  0  0  0  0  0
    2.6846    2.7334    0.0000 C   0  0  0  0  0  0  0  0  0  0  0  0
  1  2  1  0
  2  3  2  0
  2  4  1  0
  4  5  1  0
  5  6  2  0
  6  7  1  0
  7  8  2  0
  7  9  2  0
  7 10  1  0
 10 11  2  0
 11 12  1  0
 12 13  2  0
 13 14  1  0
 14 15  1  0
 15 16  1  0
 16 17  1  0
 17 18  1  0
 18 19  2  0
 19 20  1  0
 20 21  2  0
 21 22  1  0
 22 23  3  0
 21 24  1  0
 24 25  2  0
 16 26  1  0
 13 27  1  0
 27 28  2  0
 28 29  1  0
 29 30  2  0
 30 31  1  0
 31 32  3  0
 30 33  1  0
 33 34  2  0
 34  5  1  0
 26 10  1  0
 34 27  1  0
 25 18  1  0
M  END
>  <Title>  (1425) 
idACAWgen6

$$$$

     RDKit          2D

 40 43  0  0  0  0  0  0  0  0999 V2000
    4.8308  -11.5201    0.0000 C   0  0  0  0  0  0  0  0  0  0  0  0
    4.6740  -10.0283    0.0000 C   0  0  0  0  0  0  0  0  0  0  0  0
    5.8875   -9.1467    0.0000 O   0  0  0  0  0  0  0  0  0  0  0  0
    3.3037   -9.4182    0.0000 C   0  0  0  0  0  0  0  0  0  0  0  0
    2.9918   -7.9510    0.0000 C   0  0  0  0  0  0  0  0  0  0  0  0
    3.9955   -6.8363    0.0000 O   0  0  0  0  0  0  0  0  0  0  0  0
    1.5000   -7.7942    0.0000 C   0  0  0  0  0  0  0  0  0  0  0  0
    0.7500   -6.4952    0.0000 C   0  0  0  0  0  0  0  0  0  0  0  0
    1.5000   -5.1962    0.0000 C   0  0  0  0  0  0  0  0  0  0  0  0
    0.7500   -3.8971    0.0000 C   0  0  0  0  0  0  0  0  0  0  0  0
    1.5000   -2.5981    0.0000 C   0  0  0  0  0  0  0  0  0  0  0  0
    0.7500   -1.2990    0.0000 C   0  0  0  0  0  0  0  0  0  0  0  0
    1.5000    0.0000    0.0000 C   0  0  0  0  0  0  0  0  0  0  0  0
    0.7500    1.2990    0.0000 C   0  0  0  0  0  0  0  0  0  0  0  0
    1.5000    2.5981    0.0000 C   0  0  0  0  0  0  0  0  0  0  0  0
    0.7500    3.8971    0.0000 O   0  0  0  0  0  0  0  0  0  0  0  0
    3.0000    2.5981    0.0000 O   0  0  0  0  0  0  0  0  0  0  0  0
    3.7500    3.8971    0.0000 C   0  0  0  0  0  0  0  0  0  0  0  0
    5.2500    3.8971    0.0000 C   0  0  0  0  0  0  0  0  0  0  0  0
    6.0000    5.1962    0.0000 C   0  0  0  0  0  0  0  0  0  0  0  0
    5.2500    6.4952    0.0000 C   0  0  0  0  0  0  0  0  0  0  0  0
    6.0000    7.7942    0.0000 C   0  0  0  0  0  0  0  0  0  0  0  0
    6.7500    9.0933    0.0000 N   0  0  0  0  0  0  0  0  0  0  0  0
    3.7500    6.4952    0.0000 C   0  0  0  0  0  0  0  0  0  0  0  0
    3.0000    5.1962    0.0000 C   0  0  0  0  0  0  0  0  0  0  0  0
   -0.7500    1.2990    0.0000 C   0  0  0  0  0  0  0  0  0  0  0  0
   -1.5000    0.0000    0.0000 C   0  0  0  0  0  0  0  0  0  0  0  0
   -3.0000    0.0000    0.0000 O   0  0  0  0  0  0  0  0  0  0  0  0
   -0.7500   -1.2990    0.0000 N   0  0  0  0  0  0  0  0  0  0  0  0
    0.8899   -9.1645    0.0000 N   0  0  0  0  0  0  0  0  0  0  0  0
   -0.5773   -9.4764    0.0000 C   0  0  0  0  0  0  0  0  0  0  0  0
   -1.0409  -10.9030    0.0000 C   0  0  0  0  0  0  0  0  0  0  0  0
   -2.5081  -11.2149    0.0000 C   0  0  0  0  0  0  0  0  0  0  0  0
   -3.7661  -10.3979    0.0000 C   0  0  0  0  0  0  0  0  0  0  0  0
   -4.0779   -8.9307    0.0000 O   0  0  0  0  0  0  0  0  0  0  0  0
   -4.5830  -11.6559    0.0000 O   0  0  0  0  0  0  0  0  0  0  0  0
   -3.3250  -12.4729    0.0000 C   0  0  0  0  0  0  0  0  0  0  0  0
   -3.0132  -13.9401    0.0000 O   0  0  0  0  0  0  0  0  0  0  0  0
    2.0046  -10.1682    0.0000 C   0  0  0  0  0  0  0  0  0  0  0  0
    1.8478  -11.6600    0.0000 O   0  0  0  0  0  0  0  0  0  0  0  0
  1  2  1  0
  2  3  2  0
  2  4  1  0
  4  5  1  0
  5  6  2  0
  5  7  1  0
  7  8  2  3
  8  9  1  0
  9 10  2  3
 10 11  1  0
 11 12  2  3
 12 13  1  0
 13 14  2  0
 14 15  1  0
 15 16  2  0
 15 17  1  0
 17 18  1  0
 18 19  2  0
 19 20  1  0
 20 21  2  0
 21 22  1  0
 22 23  3  0
 21 24  1  0
 24 25  1  0
 14 26  1  0
 26 27  1  0
 27 28  2  0
 27 29  1  0
  7 30  1  0
 30 31  1  0
 31 32  1  0
 32 33  1  0
 33 34  1  0
 34 35  2  0
 34 36  1  0
 36 37  1  0
 37 38  2  0
 30 39  1  0
 39 40  2  0
 39  4  1  0
 29 12  1  0
 37 33  1  0
 25 18  1  0
M  END
>  <Title>  (1426) 
idACAXgen6

$$$$

     RDKit          2D

 29 32  0  0  0  0  0  0  0  0999 V2000
    3.0000    0.0000    0.0000 C   0  0  0  0  0  0  0  0  0  0  0  0
    1.5000    0.0000    0.0000 C   0  0  0  0  0  0  0  0  0  0  0  0
    0.7500   -1.2990    0.0000 C   0  0  0  0  0  0  0  0  0  0  0  0
   -0.7500   -1.2990    0.0000 C   0  0  0  0  0  0  0  0  0  0  0  0
   -1.5000    0.0000    0.0000 C   0  0  0  0  0  0  0  0  0  0  0  0
   -3.0000    0.0000    0.0000 C   0  0  0  0  0  0  0  0  0  0  0  0
   -3.7500   -1.2990    0.0000 O   0  0  0  0  0  0  0  0  0  0  0  0
   -3.7500    1.2990    0.0000 N   0  0  0  0  0  0  0  0  0  0  0  0
   -5.2500    1.2990    0.0000 C   0  0  0  0  0  0  0  0  0  0  0  0
   -6.1317    0.0855    0.0000 N   0  0  0  0  0  0  0  0  0  0  0  0
   -7.5583    0.5490    0.0000 N   0  0  0  0  0  0  0  0  0  0  0  0
   -7.5583    2.0490    0.0000 N   0  0  0  0  0  0  0  0  0  0  0  0
   -6.1317    2.5126    0.0000 N   0  0  0  0  0  0  0  0  0  0  0  0
   -5.6682    3.9391    0.0000 N   0  0  0  0  0  0  0  0  0  0  0  0
   -4.2009    4.2510    0.0000 C   0  0  0  0  0  0  0  0  0  0  0  0
   -3.7374    5.6776    0.0000 C   0  0  0  0  0  0  0  0  0  0  0  0
   -4.7411    6.7923    0.0000 N   0  0  0  0  0  0  0  0  0  0  0  0
   -4.2776    8.2189    0.0000 C   0  0  0  0  0  0  0  0  0  0  0  0
   -5.2813    9.3336    0.0000 O   0  0  0  0  0  0  0  0  0  0  0  0
   -2.8104    8.5308    0.0000 C   0  0  0  0  0  0  0  0  0  0  0  0
   -1.8067    7.4161    0.0000 C   0  0  0  0  0  0  0  0  0  0  0  0
   -0.3394    7.7279    0.0000 C   0  0  0  0  0  0  0  0  0  0  0  0
    0.1241    9.1545    0.0000 C   0  0  0  0  0  0  0  0  0  0  0  0
   -0.8796   10.2692    0.0000 C   0  0  0  0  0  0  0  0  0  0  0  0
   -2.3468    9.9574    0.0000 C   0  0  0  0  0  0  0  0  0  0  0  0
   -6.2083    6.4805    0.0000 C   0  0  0  0  0  0  0  0  0  0  0  0
   -6.6718    5.0539    0.0000 C   0  0  0  0  0  0  0  0  0  0  0  0
   -0.7500    1.2990    0.0000 C   0  0  0  0  0  0  0  0  0  0  0  0
    0.7500    1.2990    0.0000 C   0  0  0  0  0  0  0  0  0  0  0  0
  1  2  1  0
  2  3  1  0
  3  4  2  0
  4  5  1  0
  5  6  1  0
  6  7  2  0
  6  8  1  0
  8  9  1  0
  9 10  2  0
 10 11  1  0
 11 12  2  0
 12 13  1  0
 13 14  1  0
 14 15  1  0
 15 16  1  0
 16 17  1  0
 17 18  1  0
 18 19  2  0
 18 20  1  0
 20 21  2  0
 21 22  1  0
 22 23  2  0
 23 24  1  0
 24 25  2  0
 17 26  1  0
 26 27  1  0
  5 28  1  0
 28 29  2  0
 29  2  1  0
 13  9  1  0
 27 14  1  0
 25 20  1  0
M  END
>  <Title>  (1427) 
idACAYgen6

$$$$

     RDKit          2D

 25 27  0  0  0  0  0  0  0  0999 V2000
    3.3890    5.7754    0.0000 C   0  0  0  0  0  0  0  0  0  0  0  0
    1.9581    6.2253    0.0000 O   0  0  0  0  0  0  0  0  0  0  0  0
    0.8530    5.2111    0.0000 C   0  0  0  0  0  0  0  0  0  0  0  0
    1.5148    3.8650    0.0000 C   0  0  0  0  0  0  0  0  0  0  0  0
    1.3438    2.3747    0.0000 C   0  0  0  0  0  0  0  0  0  0  0  0
    0.3943    1.2135    0.0000 C   0  0  0  0  0  0  0  0  0  0  0  0
    1.2760    0.0000    0.0000 C   0  0  0  0  0  0  0  0  0  0  0  0
    0.3943   -1.2135    0.0000 C   0  0  0  0  0  0  0  0  0  0  0  0
   -1.0323   -0.7500    0.0000 C   0  0  0  0  0  0  0  0  0  0  0  0
   -1.0323    0.7500    0.0000 C   0  0  0  0  0  0  0  0  0  0  0  0
   -2.4830    1.1313    0.0000 C   0  0  0  0  0  0  0  0  0  0  0  0
   -2.7146   -0.3507    0.0000 C   0  0  0  0  0  0  0  0  0  0  0  0
   -4.0177   -1.0936    0.0000 C   0  0  0  0  0  0  0  0  0  0  0  0
   -5.4110   -0.5380    0.0000 C   0  0  0  0  0  0  0  0  0  0  0  0
   -6.5162   -1.5523    0.0000 C   0  0  0  0  0  0  0  0  0  0  0  0
   -7.6213   -2.5665    0.0000 N   0  0  0  0  0  0  0  0  0  0  0  0
   -5.8454    0.8977    0.0000 C   0  0  0  0  0  0  0  0  0  0  0  0
   -7.3274    1.1294    0.0000 C   0  0  0  0  0  0  0  0  0  0  0  0
   -8.8094    1.3610    0.0000 N   0  0  0  0  0  0  0  0  0  0  0  0
   -4.9937    2.1325    0.0000 C   0  0  0  0  0  0  0  0  0  0  0  0
   -3.4973    2.2364    0.0000 C   0  0  0  0  0  0  0  0  0  0  0  0
   -3.7531    3.7145    0.0000 C   0  0  0  0  0  0  0  0  0  0  0  0
   -3.1691    5.0962    0.0000 C   0  0  0  0  0  0  0  0  0  0  0  0
   -1.9309    5.9428    0.0000 C   0  0  0  0  0  0  0  0  0  0  0  0
   -0.4316    5.9857    0.0000 C   0  0  0  0  0  0  0  0  0  0  0  0
  1  2  1  0
  2  3  1  0
  3  4  2  0
  4  5  1  0
  5  6  2  0
  6  7  1  0
  7  8  2  0
  8  9  1  0
  9 10  2  0
 10 11  1  0
 11 12  2  0
 12 13  1  0
 13 14  2  0
 14 15  1  0
 15 16  3  0
 14 17  1  0
 17 18  1  0
 18 19  3  0
 17 20  2  0
 20 21  1  0
 21 22  2  0
 22 23  1  0
 23 24  2  0
 24 25  1  0
 25  3  1  0
 10  6  1  0
 21 11  1  0
M  END
>  <Title>  (1428) 
idACAZgen6

$$$$

     RDKit          2D

 12 12  0  0  0  0  0  0  0  0999 V2000
    5.2500   -1.2990    0.0000 C   0  0  0  0  0  0  0  0  0  0  0  0
    3.7500   -1.2990    0.0000 C   0  0  0  0  0  0  0  0  0  0  0  0
    3.0000   -2.5981    0.0000 O   0  0  0  0  0  0  0  0  0  0  0  0
    3.0000    0.0000    0.0000 C   0  0  0  0  0  0  0  0  0  0  0  0
    3.7500    1.2990    0.0000 O   0  0  0  0  0  0  0  0  0  0  0  0
    1.5000    0.0000    0.0000 C   0  0  0  0  0  0  0  0  0  0  0  0
    0.7500   -1.2990    0.0000 C   0  0  0  0  0  0  0  0  0  0  0  0
   -0.7500   -1.2990    0.0000 C   0  0  0  0  0  0  0  0  0  0  0  0
   -1.5000    0.0000    0.0000 C   0  0  0  0  0  0  0  0  0  0  0  0
   -0.7500    1.2990    0.0000 C   0  0  0  0  0  0  0  0  0  0  0  0
   -1.5000    2.5981    0.0000 O   0  0  0  0  0  0  0  0  0  0  0  0
    0.7500    1.2990    0.0000 N   0  0  0  0  0  0  0  0  0  0  0  0
  1  2  1  0
  2  3  2  0
  2  4  1  0
  4  5  2  0
  4  6  1  0
  6  7  1  0
  7  8  1  0
  8  9  1  0
  9 10  1  0
 10 11  2  0
 10 12  1  0
 12  6  1  0
M  END
>  <Title>  (1429) 
idACBAgen6

$$$$

     RDKit          2D

 28 30  0  0  0  0  0  0  0  0999 V2000
   -7.9263  -10.4690    0.0000 C   0  0  0  0  0  0  0  0  0  0  0  0
   -6.4263  -10.4690    0.0000 C   0  0  0  0  0  0  0  0  0  0  0  0
   -5.6763   -9.1700    0.0000 O   0  0  0  0  0  0  0  0  0  0  0  0
   -5.6763  -11.7680    0.0000 C   0  0  0  0  0  0  0  0  0  0  0  0
   -6.4263  -13.0671    0.0000 O   0  0  0  0  0  0  0  0  0  0  0  0
   -4.1763  -11.7680    0.0000 C   0  0  0  0  0  0  0  0  0  0  0  0
   -3.2947  -12.9816    0.0000 C   0  0  0  0  0  0  0  0  0  0  0  0
   -1.8681  -12.5180    0.0000 C   0  0  0  0  0  0  0  0  0  0  0  0
   -1.8681  -11.0180    0.0000 C   0  0  0  0  0  0  0  0  0  0  0  0
   -0.6546  -10.1364    0.0000 O   0  0  0  0  0  0  0  0  0  0  0  0
   -0.8113   -8.6446    0.0000 C   0  0  0  0  0  0  0  0  0  0  0  0
    0.4022   -7.7629    0.0000 C   0  0  0  0  0  0  0  0  0  0  0  0
    1.7725   -8.3730    0.0000 O   0  0  0  0  0  0  0  0  0  0  0  0
    0.2454   -6.2711    0.0000 N   0  0  0  0  0  0  0  0  0  0  0  0
   -1.0537   -5.5211    0.0000 C   0  0  0  0  0  0  0  0  0  0  0  0
   -0.7418   -4.0539    0.0000 C   0  0  0  0  0  0  0  0  0  0  0  0
    0.7500   -3.8971    0.0000 N   0  0  0  0  0  0  0  0  0  0  0  0
    1.5000   -2.5981    0.0000 C   0  0  0  0  0  0  0  0  0  0  0  0
    3.0000   -2.5981    0.0000 O   0  0  0  0  0  0  0  0  0  0  0  0
    0.7500   -1.2990    0.0000 C   0  0  0  0  0  0  0  0  0  0  0  0
    1.5000    0.0000    0.0000 C   0  0  0  0  0  0  0  0  0  0  0  0
    0.7500    1.2990    0.0000 C   0  0  0  0  0  0  0  0  0  0  0  0
   -0.7500    1.2990    0.0000 C   0  0  0  0  0  0  0  0  0  0  0  0
   -1.5000    0.0000    0.0000 C   0  0  0  0  0  0  0  0  0  0  0  0
   -0.7500   -1.2990    0.0000 C   0  0  0  0  0  0  0  0  0  0  0  0
    1.3601   -5.2674    0.0000 C   0  0  0  0  0  0  0  0  0  0  0  0
    2.8273   -5.5793    0.0000 O   0  0  0  0  0  0  0  0  0  0  0  0
   -3.2947  -10.5545    0.0000 N   0  0  0  0  0  0  0  0  0  0  0  0
  1  2  1  0
  2  3  2  0
  2  4  1  0
  4  5  2  0
  4  6  1  0
  6  7  2  0
  7  8  1  0
  8  9  2  0
  9 10  1  0
 10 11  1  0
 11 12  1  0
 12 13  2  0
 12 14  1  0
 14 15  1  0
 15 16  1  0
 16 17  1  0
 17 18  1  0
 18 19  2  0
 18 20  1  0
 20 21  2  0
 21 22  1  0
 22 23  2  0
 23 24  1  0
 24 25  2  0
 17 26  1  0
 26 27  2  0
  9 28  1  0
 28  6  1  0
 26 14  1  0
 25 20  1  0
M  END
>  <Title>  (1430) 
idACBBgen6

$$$$

     RDKit          2D

 32 34  0  0  0  0  0  0  0  0999 V2000
    5.2500   -3.8971    0.0000 C   0  0  0  0  0  0  0  0  0  0  0  0
    3.7500   -3.8971    0.0000 C   0  0  0  0  0  0  0  0  0  0  0  0
    3.0000   -5.1962    0.0000 C   0  0  0  0  0  0  0  0  0  0  0  0
    3.7500   -6.4952    0.0000 C   0  0  0  0  0  0  0  0  0  0  0  0
    1.5000   -5.1962    0.0000 C   0  0  0  0  0  0  0  0  0  0  0  0
    0.7500   -6.4952    0.0000 O   0  0  0  0  0  0  0  0  0  0  0  0
    0.7500   -3.8971    0.0000 C   0  0  0  0  0  0  0  0  0  0  0  0
    1.5000   -2.5981    0.0000 C   0  0  0  0  0  0  0  0  0  0  0  0
    0.7500   -1.2990    0.0000 C   0  0  0  0  0  0  0  0  0  0  0  0
    1.5000    0.0000    0.0000 C   0  0  0  0  0  0  0  0  0  0  0  0
    0.7500    1.2990    0.0000 C   0  0  0  0  0  0  0  0  0  0  0  0
   -0.7500    1.2990    0.0000 C   0  0  0  0  0  0  0  0  0  0  0  0
   -1.5000    2.5981    0.0000 O   0  0  0  0  0  0  0  0  0  0  0  0
   -1.5000    0.0000    0.0000 C   0  0  0  0  0  0  0  0  0  0  0  0
   -0.7500   -1.2990    0.0000 C   0  0  0  0  0  0  0  0  0  0  0  0
   -0.7500   -3.8971    0.0000 N   0  0  0  0  0  0  0  0  0  0  0  0
   -1.5000   -5.1962    0.0000 C   0  0  0  0  0  0  0  0  0  0  0  0
   -0.7500   -6.4952    0.0000 O   0  0  0  0  0  0  0  0  0  0  0  0
   -3.0000   -5.1962    0.0000 C   0  0  0  0  0  0  0  0  0  0  0  0
   -3.7500   -6.4952    0.0000 C   0  0  0  0  0  0  0  0  0  0  0  0
   -5.2500   -6.4952    0.0000 C   0  0  0  0  0  0  0  0  0  0  0  0
   -6.0000   -5.1962    0.0000 C   0  0  0  0  0  0  0  0  0  0  0  0
   -7.5000   -5.1962    0.0000 C   0  0  0  0  0  0  0  0  0  0  0  0
   -8.2500   -6.4952    0.0000 C   0  0  0  0  0  0  0  0  0  0  0  0
   -7.5000   -7.7942    0.0000 C   0  0  0  0  0  0  0  0  0  0  0  0
   -6.0000   -7.7942    0.0000 C   0  0  0  0  0  0  0  0  0  0  0  0
   -3.7500   -3.8971    0.0000 C   0  0  0  0  0  0  0  0  0  0  0  0
   -3.0000   -2.5981    0.0000 C   0  0  0  0  0  0  0  0  0  0  0  0
   -3.7500   -1.2990    0.0000 C   0  0  0  0  0  0  0  0  0  0  0  0
   -5.2500   -1.2990    0.0000 C   0  0  0  0  0  0  0  0  0  0  0  0
   -6.0000   -2.5981    0.0000 C   0  0  0  0  0  0  0  0  0  0  0  0
   -5.2500   -3.8971    0.0000 C   0  0  0  0  0  0  0  0  0  0  0  0
  1  2  1  0
  2  3  2  3
  3  4  1  0
  3  5  1  0
  5  6  2  0
  5  7  1  0
  7  8  1  0
  8  9  1  0
  9 10  2  0
 10 11  1  0
 11 12  2  0
 12 13  1  0
 12 14  1  0
 14 15  2  0
  7 16  1  0
 16 17  1  0
 17 18  2  0
 17 19  1  0
 19 20  1  0
 20 21  1  0
 21 22  2  0
 22 23  1  0
 23 24  2  0
 24 25  1  0
 25 26  2  0
 19 27  1  0
 27 28  2  0
 28 29  1  0
 29 30  2  0
 30 31  1  0
 31 32  2  0
 15  9  1  0
 26 21  1  0
 32 27  1  0
M  END
>  <Title>  (1431) 
idACBCgen6

$$$$

     RDKit          2D

 16 17  0  0  0  0  0  0  0  0999 V2000
    3.0000    0.0000    0.0000 C   0  0  0  0  0  0  0  0  0  0  0  0
    1.5000    0.0000    0.0000 C   0  0  0  0  0  0  0  0  0  0  0  0
    0.7500   -1.2990    0.0000 C   0  0  0  0  0  0  0  0  0  0  0  0
   -0.7500   -1.2990    0.0000 C   0  0  0  0  0  0  0  0  0  0  0  0
   -1.5000    0.0000    0.0000 C   0  0  0  0  0  0  0  0  0  0  0  0
   -0.7500    1.2990    0.0000 C   0  0  0  0  0  0  0  0  0  0  0  0
   -1.5000    2.5981    0.0000 C   0  0  0  0  0  0  0  0  0  0  0  0
   -3.0000    2.5981    0.0000 O   0  0  0  0  0  0  0  0  0  0  0  0
   -0.7500    3.8971    0.0000 N   0  0  0  0  0  0  0  0  0  0  0  0
   -1.5000    5.1962    0.0000 C   0  0  0  0  0  0  0  0  0  0  0  0
   -0.7500    6.4952    0.0000 N   0  0  0  0  0  0  0  0  0  0  0  0
   -1.5000    7.7942    0.0000 N   0  0  0  0  0  0  0  0  0  0  0  0
   -3.0000    7.7942    0.0000 N   0  0  0  0  0  0  0  0  0  0  0  0
   -3.7500    6.4952    0.0000 N   0  0  0  0  0  0  0  0  0  0  0  0
   -3.0000    5.1962    0.0000 N   0  0  0  0  0  0  0  0  0  0  0  0
    0.7500    1.2990    0.0000 C   0  0  0  0  0  0  0  0  0  0  0  0
  1  2  1  0
  2  3  1  0
  3  4  2  0
  4  5  1  0
  5  6  1  0
  6  7  1  0
  7  8  2  0
  7  9  1  0
  9 10  1  0
 10 11  2  0
 11 12  1  0
 12 13  2  0
 13 14  1  0
 14 15  2  0
  6 16  1  0
 16  2  1  0
 15 10  1  0
M  END
>  <Title>  (1432) 
idACBDgen6

$$$$

     RDKit          2D

 32 36  0  0  0  0  0  0  0  0999 V2000
    3.0000    0.0000    0.0000 C   0  0  0  0  0  0  0  0  0  0  0  0
    1.5000    0.0000    0.0000 C   0  0  0  0  0  0  0  0  0  0  0  0
    0.7500   -1.2990    0.0000 C   0  0  0  0  0  0  0  0  0  0  0  0
   -0.7500   -1.2990    0.0000 C   0  0  0  0  0  0  0  0  0  0  0  0
   -1.5000    0.0000    0.0000 C   0  0  0  0  0  0  0  0  0  0  0  0
   -3.0000    0.0000    0.0000 C   0  0  0  0  0  0  0  0  0  0  0  0
   -3.7500   -1.2990    0.0000 O   0  0  0  0  0  0  0  0  0  0  0  0
   -3.7500    1.2990    0.0000 N   0  0  0  0  0  0  0  0  0  0  0  0
   -5.2500    1.2990    0.0000 C   0  0  0  0  0  0  0  0  0  0  0  0
   -6.1317    0.0855    0.0000 N   0  0  0  0  0  0  0  0  0  0  0  0
   -7.5583    0.5490    0.0000 N   0  0  0  0  0  0  0  0  0  0  0  0
   -7.5583    2.0490    0.0000 N   0  0  0  0  0  0  0  0  0  0  0  0
   -6.1317    2.5126    0.0000 N   0  0  0  0  0  0  0  0  0  0  0  0
   -5.6682    3.9391    0.0000 C   0  0  0  0  0  0  0  0  0  0  0  0
   -4.2009    4.2510    0.0000 C   0  0  0  0  0  0  0  0  0  0  0  0
   -3.7374    5.6776    0.0000 C   0  0  0  0  0  0  0  0  0  0  0  0
   -4.7411    6.7923    0.0000 C   0  0  0  0  0  0  0  0  0  0  0  0
   -6.2083    6.4805    0.0000 C   0  0  0  0  0  0  0  0  0  0  0  0
   -6.6718    5.0539    0.0000 C   0  0  0  0  0  0  0  0  0  0  0  0
   -8.1391    4.7420    0.0000 C   0  0  0  0  0  0  0  0  0  0  0  0
   -9.1428    5.8567    0.0000 C   0  0  0  0  0  0  0  0  0  0  0  0
  -10.6100    5.5448    0.0000 C   0  0  0  0  0  0  0  0  0  0  0  0
  -11.0735    4.1183    0.0000 C   0  0  0  0  0  0  0  0  0  0  0  0
  -10.0698    3.0035    0.0000 C   0  0  0  0  0  0  0  0  0  0  0  0
   -8.6026    3.3154    0.0000 C   0  0  0  0  0  0  0  0  0  0  0  0
   -0.7500    1.2990    0.0000 C   0  0  0  0  0  0  0  0  0  0  0  0
    0.7500    1.2990    0.0000 C   0  0  0  0  0  0  0  0  0  0  0  0
    1.5000    2.5981    0.0000 C   0  0  0  0  0  0  0  0  0  0  0  0
    0.8899    3.9684    0.0000 C   0  0  0  0  0  0  0  0  0  0  0  0
    2.0046    4.9721    0.0000 C   0  0  0  0  0  0  0  0  0  0  0  0
    3.3037    4.2221    0.0000 C   0  0  0  0  0  0  0  0  0  0  0  0
    2.9918    2.7549    0.0000 C   0  0  0  0  0  0  0  0  0  0  0  0
  1  2  1  0
  2  3  2  0
  3  4  1  0
  4  5  2  0
  5  6  1  0
  6  7  2  0
  6  8  1  0
  8  9  1  0
  9 10  2  0
 10 11  1  0
 11 12  2  0
 12 13  1  0
 13 14  1  0
 14 15  2  0
 15 16  1  0
 16 17  2  0
 17 18  1  0
 18 19  2  0
 19 20  1  0
 20 21  2  0
 21 22  1  0
 22 23  2  0
 23 24  1  0
 24 25  2  0
  5 26  1  0
 26 27  2  0
 27 28  1  0
 28 29  2  0
 29 30  1  0
 30 31  2  0
 31 32  1  0
 27  2  1  0
 32 28  1  0
 13  9  1  0
 19 14  1  0
 25 20  1  0
M  END
>  <Title>  (1433) 
idACBEgen6

$$$$

     RDKit          2D

 14 14  0  0  0  0  0  0  0  0999 V2000
    3.3705    0.0000    0.0000 C   0  0  0  0  0  0  0  0  0  0  0  0
    3.0367   -1.4624    0.0000 C   0  0  0  0  0  0  0  0  0  0  0  0
    2.1015   -2.6351    0.0000 C   0  0  0  0  0  0  0  0  0  0  0  0
    0.7500   -3.2860    0.0000 C   0  0  0  0  0  0  0  0  0  0  0  0
   -0.7500   -3.2860    0.0000 C   0  0  0  0  0  0  0  0  0  0  0  0
   -2.1015   -2.6351    0.0000 C   0  0  0  0  0  0  0  0  0  0  0  0
   -3.0367   -1.4624    0.0000 C   0  0  0  0  0  0  0  0  0  0  0  0
   -3.3705    0.0000    0.0000 C   0  0  0  0  0  0  0  0  0  0  0  0
   -3.0367    1.4624    0.0000 C   0  0  0  0  0  0  0  0  0  0  0  0
   -2.1015    2.6351    0.0000 C   0  0  0  0  0  0  0  0  0  0  0  0
   -0.7500    3.2860    0.0000 C   0  0  0  0  0  0  0  0  0  0  0  0
    0.7500    3.2860    0.0000 C   0  0  0  0  0  0  0  0  0  0  0  0
    2.1015    2.6351    0.0000 C   0  0  0  0  0  0  0  0  0  0  0  0
    3.0367    1.4624    0.0000 C   0  0  0  0  0  0  0  0  0  0  0  0
  1  2  1  0
  2  3  1  0
  3  4  1  0
  4  5  1  0
  5  6  1  0
  6  7  1  0
  7  8  1  0
  8  9  1  0
  9 10  1  0
 10 11  1  0
 11 12  1  0
 12 13  1  0
 13 14  1  0
 14  1  1  0
M  END
>  <Title>  (1434) 
idACBFgen6

$$$$

     RDKit          2D

 22 24  0  0  0  0  0  0  0  0999 V2000
    3.0000    0.0000    0.0000 C   0  0  0  0  0  0  0  0  0  0  0  0
    1.5000    0.0000    0.0000 C   0  0  0  0  0  0  0  0  0  0  0  0
    0.7500   -1.2990    0.0000 C   0  0  0  0  0  0  0  0  0  0  0  0
   -0.7500   -1.2990    0.0000 C   0  0  0  0  0  0  0  0  0  0  0  0
   -1.5000    0.0000    0.0000 C   0  0  0  0  0  0  0  0  0  0  0  0
   -3.0000    0.0000    0.0000 N   0  0  0  0  0  0  0  0  0  0  0  0
   -3.7500    1.2990    0.0000 C   0  0  0  0  0  0  0  0  0  0  0  0
   -5.2500    1.2990    0.0000 C   0  0  0  0  0  0  0  0  0  0  0  0
   -6.0000    0.0000    0.0000 C   0  0  0  0  0  0  0  0  0  0  0  0
   -7.5000    0.0000    0.0000 C   0  0  0  0  0  0  0  0  0  0  0  0
   -8.2500   -1.2990    0.0000 O   0  0  0  0  0  0  0  0  0  0  0  0
   -8.2500    1.2990    0.0000 O   0  0  0  0  0  0  0  0  0  0  0  0
   -9.7500    1.2990    0.0000 C   0  0  0  0  0  0  0  0  0  0  0  0
  -10.5000    2.5981    0.0000 C   0  0  0  0  0  0  0  0  0  0  0  0
  -12.0000    2.5981    0.0000 C   0  0  0  0  0  0  0  0  0  0  0  0
  -12.7500    1.2990    0.0000 C   0  0  0  0  0  0  0  0  0  0  0  0
  -12.0000    0.0000    0.0000 C   0  0  0  0  0  0  0  0  0  0  0  0
  -10.5000    0.0000    0.0000 C   0  0  0  0  0  0  0  0  0  0  0  0
   -5.2500   -1.2990    0.0000 C   0  0  0  0  0  0  0  0  0  0  0  0
   -3.7500   -1.2990    0.0000 C   0  0  0  0  0  0  0  0  0  0  0  0
   -0.7500    1.2990    0.0000 C   0  0  0  0  0  0  0  0  0  0  0  0
    0.7500    1.2990    0.0000 C   0  0  0  0  0  0  0  0  0  0  0  0
  1  2  1  0
  2  3  2  0
  3  4  1  0
  4  5  2  0
  5  6  1  0
  6  7  1  0
  7  8  1  0
  8  9  1  0
  9 10  1  0
 10 11  2  0
 10 12  1  0
 12 13  1  0
 13 14  2  0
 14 15  1  0
 15 16  2  0
 16 17  1  0
 17 18  2  0
  9 19  1  0
 19 20  1  0
  5 21  1  0
 21 22  1  0
 22  2  1  0
 20  6  1  0
 18 13  1  0
M  END
>  <Title>  (1435) 
idACBGgen6

$$$$

     RDKit          2D

 17 18  0  0  0  0  0  0  0  0999 V2000
    6.4598   -2.5981    0.0000 C   0  0  0  0  0  0  0  0  0  0  0  0
    5.7098   -1.2990    0.0000 C   0  0  0  0  0  0  0  0  0  0  0  0
    6.4598    0.0000    0.0000 O   0  0  0  0  0  0  0  0  0  0  0  0
    4.2098   -1.2990    0.0000 O   0  0  0  0  0  0  0  0  0  0  0  0
    3.4598   -0.0000    0.0000 C   0  0  0  0  0  0  0  0  0  0  0  0
    4.2098    1.2990    0.0000 O   0  0  0  0  0  0  0  0  0  0  0  0
    1.9598    0.0000    0.0000 C   0  0  0  0  0  0  0  0  0  0  0  0
    1.3858   -1.3858    0.0000 C   0  0  0  0  0  0  0  0  0  0  0  0
   -0.0000   -1.9598    0.0000 C   0  0  0  0  0  0  0  0  0  0  0  0
   -1.3858   -1.3858    0.0000 C   0  0  0  0  0  0  0  0  0  0  0  0
   -2.7716   -1.9598    0.0000 C   0  0  0  0  0  0  0  0  0  0  0  0
   -3.3457   -3.3457    0.0000 O   0  0  0  0  0  0  0  0  0  0  0  0
   -3.3457   -0.5740    0.0000 O   0  0  0  0  0  0  0  0  0  0  0  0
   -1.9598    0.0000    0.0000 C   0  0  0  0  0  0  0  0  0  0  0  0
   -1.3858    1.3858    0.0000 C   0  0  0  0  0  0  0  0  0  0  0  0
    0.0000    1.9598    0.0000 C   0  0  0  0  0  0  0  0  0  0  0  0
    1.3858    1.3858    0.0000 C   0  0  0  0  0  0  0  0  0  0  0  0
  1  2  1  0
  2  3  2  0
  2  4  1  0
  4  5  1  0
  5  6  2  0
  5  7  1  0
  7  8  2  0
  8  9  1  0
  9 10  2  0
 10 11  1  0
 11 12  2  0
 11 13  1  0
 13 14  1  0
 14 15  2  0
 15 16  1  0
 16 17  2  0
 17  7  1  0
 14 10  1  0
M  END
>  <Title>  (1436) 
idACBHgen6

$$$$

     RDKit          2D

 27 30  0  0  0  0  0  0  0  0999 V2000
   -1.3240   -6.3062    0.0000 C   0  0  0  0  0  0  0  0  0  0  0  0
   -0.7500   -4.9204    0.0000 C   0  0  0  0  0  0  0  0  0  0  0  0
    0.7500   -4.9204    0.0000 C   0  0  0  0  0  0  0  0  0  0  0  0
    1.8107   -3.8597    0.0000 C   0  0  0  0  0  0  0  0  0  0  0  0
    1.8107   -2.3597    0.0000 C   0  0  0  0  0  0  0  0  0  0  0  0
    3.1965   -1.7857    0.0000 C   0  0  0  0  0  0  0  0  0  0  0  0
    3.3923   -0.2985    0.0000 O   0  0  0  0  0  0  0  0  0  0  0  0
    4.3865   -2.6988    0.0000 N   0  0  0  0  0  0  0  0  0  0  0  0
    5.7723   -2.1248    0.0000 C   0  0  0  0  0  0  0  0  0  0  0  0
    6.9624   -3.0379    0.0000 N   0  0  0  0  0  0  0  0  0  0  0  0
    8.3482   -2.4639    0.0000 N   0  0  0  0  0  0  0  0  0  0  0  0
    8.5440   -0.9767    0.0000 N   0  0  0  0  0  0  0  0  0  0  0  0
    7.3539   -0.0636    0.0000 N   0  0  0  0  0  0  0  0  0  0  0  0
    5.9681   -0.6376    0.0000 N   0  0  0  0  0  0  0  0  0  0  0  0
    0.7500   -1.2990    0.0000 C   0  0  0  0  0  0  0  0  0  0  0  0
    1.5000    0.0000    0.0000 C   0  0  0  0  0  0  0  0  0  0  0  0
    0.7500    1.2990    0.0000 C   0  0  0  0  0  0  0  0  0  0  0  0
   -0.7500    1.2990    0.0000 C   0  0  0  0  0  0  0  0  0  0  0  0
   -1.5000    0.0000    0.0000 C   0  0  0  0  0  0  0  0  0  0  0  0
   -0.7500   -1.2990    0.0000 C   0  0  0  0  0  0  0  0  0  0  0  0
   -1.8107   -2.3597    0.0000 C   0  0  0  0  0  0  0  0  0  0  0  0
   -3.1097   -1.6097    0.0000 C   0  0  0  0  0  0  0  0  0  0  0  0
   -4.4087   -2.3597    0.0000 C   0  0  0  0  0  0  0  0  0  0  0  0
   -4.4087   -3.8597    0.0000 C   0  0  0  0  0  0  0  0  0  0  0  0
   -5.7078   -4.6097    0.0000 O   0  0  0  0  0  0  0  0  0  0  0  0
   -3.1097   -4.6097    0.0000 C   0  0  0  0  0  0  0  0  0  0  0  0
   -1.8107   -3.8597    0.0000 C   0  0  0  0  0  0  0  0  0  0  0  0
  1  2  1  0
  2  3  1  0
  3  4  1  0
  4  5  1  0
  5  6  1  0
  6  7  2  0
  6  8  1  0
  8  9  1  0
  9 10  2  0
 10 11  1  0
 11 12  2  0
 12 13  1  0
 13 14  2  0
  5 15  1  0
 15 16  2  0
 16 17  1  0
 17 18  2  0
 18 19  1  0
 19 20  2  0
 20 21  1  0
 21 22  2  0
 22 23  1  0
 23 24  2  0
 24 25  1  0
 24 26  1  0
 26 27  2  0
 27  2  1  0
 14  9  1  0
 20 15  1  0
 27 21  1  0
M  END
>  <Title>  (1437) 
idACBIgen6

$$$$

     RDKit          2D

 36 38  0  0  0  0  0  0  0  0999 V2000
    5.8191    0.0000    0.0000 C   0  0  0  0  0  0  0  0  0  0  0  0
    4.3191    0.0000    0.0000 C   0  0  0  0  0  0  0  0  0  0  0  0
    4.0586   -1.4772    0.0000 C   0  0  0  0  0  0  0  0  0  0  0  0
    3.3086   -2.7762    0.0000 C   0  0  0  0  0  0  0  0  0  0  0  0
    2.1595   -3.7404    0.0000 C   0  0  0  0  0  0  0  0  0  0  0  0
    0.7500   -4.2535    0.0000 C   0  0  0  0  0  0  0  0  0  0  0  0
   -0.7500   -4.2535    0.0000 C   0  0  0  0  0  0  0  0  0  0  0  0
   -2.1595   -3.7404    0.0000 C   0  0  0  0  0  0  0  0  0  0  0  0
   -3.3086   -2.7762    0.0000 C   0  0  0  0  0  0  0  0  0  0  0  0
   -4.0586   -1.4772    0.0000 C   0  0  0  0  0  0  0  0  0  0  0  0
   -4.3191    0.0000    0.0000 C   0  0  0  0  0  0  0  0  0  0  0  0
   -4.0586    1.4772    0.0000 C   0  0  0  0  0  0  0  0  0  0  0  0
   -3.3086    2.7762    0.0000 C   0  0  0  0  0  0  0  0  0  0  0  0
   -2.1595    3.7404    0.0000 C   0  0  0  0  0  0  0  0  0  0  0  0
   -0.7500    4.2535    0.0000 C   0  0  0  0  0  0  0  0  0  0  0  0
    0.7500    4.2535    0.0000 C   0  0  0  0  0  0  0  0  0  0  0  0
    2.1595    3.7404    0.0000 C   0  0  0  0  0  0  0  0  0  0  0  0
    2.9095    5.0395    0.0000 N   0  0  0  0  0  0  0  0  0  0  0  0
    4.4095    5.0395    0.0000 C   0  0  0  0  0  0  0  0  0  0  0  0
    5.1595    3.7404    0.0000 O   0  0  0  0  0  0  0  0  0  0  0  0
    5.1595    6.3385    0.0000 N   0  0  0  0  0  0  0  0  0  0  0  0
    4.5494    7.7088    0.0000 C   0  0  0  0  0  0  0  0  0  0  0  0
    5.6642    8.7125    0.0000 C   0  0  0  0  0  0  0  0  0  0  0  0
    6.9632    7.9625    0.0000 C   0  0  0  0  0  0  0  0  0  0  0  0
    8.3335    8.5726    0.0000 C   0  0  0  0  0  0  0  0  0  0  0  0
    8.4903   10.0644    0.0000 O   0  0  0  0  0  0  0  0  0  0  0  0
    9.5470    7.6909    0.0000 N   0  0  0  0  0  0  0  0  0  0  0  0
   10.9174    8.3011    0.0000 C   0  0  0  0  0  0  0  0  0  0  0  0
   12.1309    7.4194    0.0000 N   0  0  0  0  0  0  0  0  0  0  0  0
   13.5012    8.0295    0.0000 N   0  0  0  0  0  0  0  0  0  0  0  0
   13.6580    9.5213    0.0000 N   0  0  0  0  0  0  0  0  0  0  0  0
   12.4445   10.4029    0.0000 N   0  0  0  0  0  0  0  0  0  0  0  0
   11.0741    9.7928    0.0000 N   0  0  0  0  0  0  0  0  0  0  0  0
    6.6513    6.4953    0.0000 C   0  0  0  0  0  0  0  0  0  0  0  0
    3.3086    2.7762    0.0000 O   0  0  0  0  0  0  0  0  0  0  0  0
    4.0586    1.4772    0.0000 C   0  0  0  0  0  0  0  0  0  0  0  0
  1  2  1  0
  2  3  1  0
  3  4  1  0
  4  5  1  0
  5  6  1  0
  6  7  1  0
  7  8  1  0
  8  9  1  0
  9 10  1  0
 10 11  1  0
 11 12  1  0
 12 13  1  0
 13 14  1  0
 14 15  1  0
 15 16  1  0
 16 17  1  0
 17 18  1  0
 18 19  1  0
 19 20  2  0
 19 21  1  0
 21 22  1  0
 22 23  1  0
 23 24  1  0
 24 25  1  0
 25 26  2  0
 25 27  1  0
 27 28  1  0
 28 29  2  0
 29 30  1  0
 30 31  2  0
 31 32  1  0
 32 33  2  0
 24 34  1  0
 17 35  1  0
 35 36  1  0
 36  2  1  0
 34 21  1  0
 33 28  1  0
M  END
>  <Title>  (1438) 
idACBJgen6

$$$$

     RDKit          2D

 13 13  0  0  0  0  0  0  0  0999 V2000
    5.0260   -1.2990    0.0000 C   0  0  0  0  0  0  0  0  0  0  0  0
    3.5260   -1.2990    0.0000 C   0  0  0  0  0  0  0  0  0  0  0  0
    2.7760   -2.5981    0.0000 O   0  0  0  0  0  0  0  0  0  0  0  0
    2.7760    0.0000    0.0000 O   0  0  0  0  0  0  0  0  0  0  0  0
    1.2760    0.0000    0.0000 C   0  0  0  0  0  0  0  0  0  0  0  0
    0.3943    1.2135    0.0000 C   0  0  0  0  0  0  0  0  0  0  0  0
   -1.0323    0.7500    0.0000 C   0  0  0  0  0  0  0  0  0  0  0  0
   -2.2458    1.6317    0.0000 C   0  0  0  0  0  0  0  0  0  0  0  0
   -3.6161    1.0216    0.0000 O   0  0  0  0  0  0  0  0  0  0  0  0
   -2.0890    3.1235    0.0000 O   0  0  0  0  0  0  0  0  0  0  0  0
   -1.0323   -0.7500    0.0000 C   0  0  0  0  0  0  0  0  0  0  0  0
   -2.2458   -1.6317    0.0000 O   0  0  0  0  0  0  0  0  0  0  0  0
    0.3943   -1.2135    0.0000 O   0  0  0  0  0  0  0  0  0  0  0  0
  1  2  1  0
  2  3  2  0
  2  4  1  0
  4  5  1  0
  5  6  2  0
  6  7  1  0
  7  8  1  0
  8  9  2  0
  8 10  1  0
  7 11  1  0
 11 12  2  0
 11 13  1  0
 13  5  1  0
M  END
>  <Title>  (1439) 
idACBKgen6

$$$$

     RDKit          2D

  9  9  0  0  0  0  0  0  0  0999 V2000
    5.2500   -1.2990    0.0000 C   0  0  0  0  0  0  0  0  0  0  0  0
    3.7500   -1.2990    0.0000 C   0  0  0  0  0  0  0  0  0  0  0  0
    3.0000    0.0000    0.0000 C   0  0  0  0  0  0  0  0  0  0  0  0
    1.5000    0.0000    0.0000 C   0  0  0  0  0  0  0  0  0  0  0  0
    0.7500   -1.2990    0.0000 C   0  0  0  0  0  0  0  0  0  0  0  0
   -0.7500   -1.2990    0.0000 C   0  0  0  0  0  0  0  0  0  0  0  0
   -1.5000    0.0000    0.0000 C   0  0  0  0  0  0  0  0  0  0  0  0
   -0.7500    1.2990    0.0000 C   0  0  0  0  0  0  0  0  0  0  0  0
    0.7500    1.2990    0.0000 C   0  0  0  0  0  0  0  0  0  0  0  0
  1  2  1  0
  2  3  1  0
  3  4  1  0
  4  5  2  0
  5  6  1  0
  6  7  2  0
  7  8  1  0
  8  9  2  0
  9  4  1  0
M  END
>  <Title>  (1440) 
idACBLgen6

$$$$

     RDKit          2D

 15 16  0  0  0  0  0  0  0  0999 V2000
   -6.4306    3.0101    0.0000 C   0  0  0  0  0  0  0  0  0  0  0  0
   -4.9547    2.7422    0.0000 C   0  0  0  0  0  0  0  0  0  0  0  0
   -3.9848    3.8865    0.0000 O   0  0  0  0  0  0  0  0  0  0  0  0
   -4.4487    1.3301    0.0000 C   0  0  0  0  0  0  0  0  0  0  0  0
   -2.9728    1.0623    0.0000 C   0  0  0  0  0  0  0  0  0  0  0  0
   -2.0911    2.2758    0.0000 C   0  0  0  0  0  0  0  0  0  0  0  0
   -0.5926    2.3431    0.0000 S   0  0  0  0  0  6  0  0  0  0  0  0
    0.7283    3.0539    0.0000 C   0  0  0  0  0  0  0  0  0  0  0  0
   -0.9917    3.7891    0.0000 O   0  0  0  0  0  0  0  0  0  0  0  0
    0.3943    1.2135    0.0000 C   0  0  0  0  0  0  0  0  0  0  0  0
    1.2760    0.0000    0.0000 C   0  0  0  0  0  0  0  0  0  0  0  0
    0.3943   -1.2135    0.0000 C   0  0  0  0  0  0  0  0  0  0  0  0
   -1.0323   -0.7500    0.0000 C   0  0  0  0  0  0  0  0  0  0  0  0
   -1.0323    0.7500    0.0000 C   0  0  0  0  0  0  0  0  0  0  0  0
   -2.5737   -0.3836    0.0000 N   0  0  0  0  0  0  0  0  0  0  0  0
  1  2  1  0
  2  3  2  0
  2  4  1  0
  4  5  1  0
  5  6  2  0
  6  7  1  0
  7  8  1  0
  7  9  2  0
  7 10  1  0
 10 11  1  0
 11 12  1  0
 12 13  1  0
 13 14  1  0
 13 15  1  0
 15  5  1  0
 14 10  1  0
M  END
>  <Title>  (1441) 
idACBMgen6

$$$$

     RDKit          2D

 42 46  0  0  0  0  0  0  0  0999 V2000
    4.1621    0.0000    0.0000 C   0  0  0  0  0  0  0  0  0  0  0  0
    2.6621    0.0000    0.0000 C   0  0  0  0  0  0  0  0  0  0  0  0
    2.2395    1.4392    0.0000 C   0  0  0  0  0  0  0  0  0  0  0  0
    1.1059    2.4215    0.0000 C   0  0  0  0  0  0  0  0  0  0  0  0
    1.7290    3.7860    0.0000 O   0  0  0  0  0  0  0  0  0  0  0  0
   -0.3789    2.6350    0.0000 C   0  0  0  0  0  0  0  0  0  0  0  0
   -1.7433    2.0119    0.0000 C   0  0  0  0  0  0  0  0  0  0  0  0
   -2.5543    0.7500    0.0000 C   0  0  0  0  0  0  0  0  0  0  0  0
   -2.5543   -0.7500    0.0000 C   0  0  0  0  0  0  0  0  0  0  0  0
   -1.7433   -2.0119    0.0000 C   0  0  0  0  0  0  0  0  0  0  0  0
   -0.3789   -2.6350    0.0000 C   0  0  0  0  0  0  0  0  0  0  0  0
   -0.5923   -4.1197    0.0000 O   0  0  0  0  0  0  0  0  0  0  0  0
   -1.9849   -4.6772    0.0000 C   0  0  0  0  0  0  0  0  0  0  0  0
   -2.1984   -6.1620    0.0000 C   0  0  0  0  0  0  0  0  0  0  0  0
   -1.0193   -7.0892    0.0000 O   0  0  0  0  0  0  0  0  0  0  0  0
   -3.5909   -6.7195    0.0000 C   0  0  0  0  0  0  0  0  0  0  0  0
   -3.9584   -8.1737    0.0000 C   0  0  0  0  0  0  0  0  0  0  0  0
   -5.4551   -8.2736    0.0000 C   0  0  0  0  0  0  0  0  0  0  0  0
   -6.0126   -6.8811    0.0000 C   0  0  0  0  0  0  0  0  0  0  0  0
   -4.8604   -5.9205    0.0000 C   0  0  0  0  0  0  0  0  0  0  0  0
   -4.9603   -4.4239    0.0000 C   0  0  0  0  0  0  0  0  0  0  0  0
   -3.7141   -3.5890    0.0000 C   0  0  0  0  0  0  0  0  0  0  0  0
   -3.8140   -2.0924    0.0000 C   0  0  0  0  0  0  0  0  0  0  0  0
   -5.1601   -1.4305    0.0000 C   0  0  0  0  0  0  0  0  0  0  0  0
   -6.4063   -2.2654    0.0000 C   0  0  0  0  0  0  0  0  0  0  0  0
   -6.3064   -3.7620    0.0000 C   0  0  0  0  0  0  0  0  0  0  0  0
   -7.5526   -4.5969    0.0000 C   0  0  0  0  0  0  0  0  0  0  0  0
   -7.4528   -6.0936    0.0000 C   0  0  0  0  0  0  0  0  0  0  0  0
   -8.6990   -6.9284    0.0000 C   0  0  0  0  0  0  0  0  0  0  0  0
  -10.0451   -6.2666    0.0000 C   0  0  0  0  0  0  0  0  0  0  0  0
  -11.2913   -7.1014    0.0000 O   0  0  0  0  0  0  0  0  0  0  0  0
  -10.1450   -4.7699    0.0000 C   0  0  0  0  0  0  0  0  0  0  0  0
   -8.8987   -3.9350    0.0000 C   0  0  0  0  0  0  0  0  0  0  0  0
   -8.9986   -2.4384    0.0000 C   0  0  0  0  0  0  0  0  0  0  0  0
  -10.3447   -1.7765    0.0000 C   0  0  0  0  0  0  0  0  0  0  0  0
  -10.4446   -0.2799    0.0000 C   0  0  0  0  0  0  0  0  0  0  0  0
   -9.1984    0.5550    0.0000 C   0  0  0  0  0  0  0  0  0  0  0  0
   -7.8523   -0.1069    0.0000 C   0  0  0  0  0  0  0  0  0  0  0  0
   -7.7524   -1.6035    0.0000 C   0  0  0  0  0  0  0  0  0  0  0  0
    1.1059   -2.4215    0.0000 C   0  0  0  0  0  0  0  0  0  0  0  0
    1.7290   -3.7860    0.0000 O   0  0  0  0  0  0  0  0  0  0  0  0
    2.2395   -1.4392    0.0000 O   0  0  0  0  0  0  0  0  0  0  0  0
  1  2  1  0
  2  3  1  0
  3  4  2  0
  4  5  1  0
  4  6  1  0
  6  7  1  0
  7  8  1  0
  8  9  1  0
  9 10  1  0
 10 11  1  0
 11 12  1  0
 12 13  1  0
 13 14  1  0
 14 15  2  0
 14 16  1  0
 16 17  2  0
 17 18  1  0
 18 19  2  0
 19 20  1  0
 20 21  1  0
 21 22  2  0
 22 23  1  0
 23 24  2  0
 24 25  1  0
 25 26  2  0
 26 27  1  0
 27 28  2  0
 28 29  1  0
 29 30  2  0
 30 31  1  0
 30 32  1  0
 32 33  2  0
 33 34  1  0
 34 35  2  0
 35 36  1  0
 36 37  2  0
 37 38  1  0
 38 39  2  0
 11 40  1  0
 40 41  2  0
 40 42  1  0
 42  2  1  0
 20 16  1  0
 26 21  1  0
 33 27  1  0
 39 34  1  0
M  END
>  <Title>  (1442) 
idACBNgen6

$$$$

     RDKit          2D

 42 43  0  0  0  0  0  0  0  0999 V2000
    8.6053    0.0000    0.0000 C   0  0  0  0  0  0  0  0  0  0  0  0
    8.4746   -1.4943    0.0000 C   0  0  0  0  0  0  0  0  0  0  0  0
    8.0863   -2.9432    0.0000 C   0  0  0  0  0  0  0  0  0  0  0  0
    7.4524   -4.3026    0.0000 C   0  0  0  0  0  0  0  0  0  0  0  0
    6.5920   -5.5314    0.0000 C   0  0  0  0  0  0  0  0  0  0  0  0
    5.5314   -6.5920    0.0000 C   0  0  0  0  0  0  0  0  0  0  0  0
    4.3026   -7.4524    0.0000 C   0  0  0  0  0  0  0  0  0  0  0  0
    2.9432   -8.0863    0.0000 C   0  0  0  0  0  0  0  0  0  0  0  0
    1.4943   -8.4746    0.0000 C   0  0  0  0  0  0  0  0  0  0  0  0
   -0.0000   -8.6053    0.0000 C   0  0  0  0  0  0  0  0  0  0  0  0
   -1.4943   -8.4746    0.0000 C   0  0  0  0  0  0  0  0  0  0  0  0
   -2.9432   -8.0863    0.0000 C   0  0  0  0  0  0  0  0  0  0  0  0
   -4.3026   -7.4524    0.0000 C   0  0  0  0  0  0  0  0  0  0  0  0
   -5.5314   -6.5920    0.0000 C   0  0  0  0  0  0  0  0  0  0  0  0
   -6.5920   -5.5314    0.0000 C   0  0  0  0  0  0  0  0  0  0  0  0
   -7.4524   -4.3026    0.0000 C   0  0  0  0  0  0  0  0  0  0  0  0
   -8.0863   -2.9432    0.0000 C   0  0  0  0  0  0  0  0  0  0  0  0
   -8.4746   -1.4943    0.0000 C   0  0  0  0  0  0  0  0  0  0  0  0
   -8.6053    0.0000    0.0000 N   0  0  0  0  0  0  0  0  0  0  0  0
  -10.1053    0.0000    0.0000 C   0  0  0  0  0  0  0  0  0  0  0  0
  -10.8553    1.2990    0.0000 N   0  0  0  0  0  0  0  0  0  0  0  0
  -12.3553    1.2990    0.0000 N   0  0  0  0  0  0  0  0  0  0  0  0
  -13.1053   -0.0000    0.0000 N   0  0  0  0  0  0  0  0  0  0  0  0
  -12.3553   -1.2990    0.0000 N   0  0  0  0  0  0  0  0  0  0  0  0
  -10.8553   -1.2990    0.0000 N   0  0  0  0  0  0  0  0  0  0  0  0
   -8.4746    1.4943    0.0000 C   0  0  0  0  0  0  0  0  0  0  0  0
   -8.0863    2.9432    0.0000 C   0  0  0  0  0  0  0  0  0  0  0  0
   -7.4524    4.3026    0.0000 C   0  0  0  0  0  0  0  0  0  0  0  0
   -6.5920    5.5314    0.0000 C   0  0  0  0  0  0  0  0  0  0  0  0
   -5.5314    6.5920    0.0000 C   0  0  0  0  0  0  0  0  0  0  0  0
   -4.3026    7.4524    0.0000 C   0  0  0  0  0  0  0  0  0  0  0  0
   -2.9432    8.0863    0.0000 C   0  0  0  0  0  0  0  0  0  0  0  0
   -1.4943    8.4746    0.0000 C   0  0  0  0  0  0  0  0  0  0  0  0
    0.0000    8.6053    0.0000 C   0  0  0  0  0  0  0  0  0  0  0  0
    1.4943    8.4746    0.0000 C   0  0  0  0  0  0  0  0  0  0  0  0
    2.9432    8.0863    0.0000 C   0  0  0  0  0  0  0  0  0  0  0  0
    4.3026    7.4524    0.0000 C   0  0  0  0  0  0  0  0  0  0  0  0
    5.5314    6.5920    0.0000 C   0  0  0  0  0  0  0  0  0  0  0  0
    6.5920    5.5314    0.0000 C   0  0  0  0  0  0  0  0  0  0  0  0
    7.4524    4.3026    0.0000 C   0  0  0  0  0  0  0  0  0  0  0  0
    8.0863    2.9432    0.0000 C   0  0  0  0  0  0  0  0  0  0  0  0
    8.4746    1.4943    0.0000 C   0  0  0  0  0  0  0  0  0  0  0  0
  1  2  1  0
  2  3  1  0
  3  4  1  0
  4  5  1  0
  5  6  1  0
  6  7  1  0
  7  8  1  0
  8  9  1  0
  9 10  1  0
 10 11  1  0
 11 12  1  0
 12 13  1  0
 13 14  1  0
 14 15  1  0
 15 16  1  0
 16 17  1  0
 17 18  1  0
 18 19  1  0
 19 20  1  0
 20 21  2  0
 21 22  1  0
 22 23  2  0
 23 24  1  0
 24 25  2  0
 19 26  1  0
 26 27  1  0
 27 28  1  0
 28 29  1  0
 29 30  1  0
 30 31  1  0
 31 32  1  0
 32 33  1  0
 33 34  1  0
 34 35  1  0
 35 36  1  0
 36 37  1  0
 37 38  1  0
 38 39  1  0
 39 40  1  0
 40 41  1  0
 41 42  1  0
 42  1  1  0
 25 20  1  0
M  END
>  <Title>  (1443) 
idACBOgen6

$$$$

     RDKit          2D

 19 20  0  0  0  0  0  0  0  0999 V2000
    3.2286   -0.0000    0.0000 C   0  0  0  0  0  0  0  0  0  0  0  0
    1.7286    0.0000    0.0000 C   0  0  0  0  0  0  0  0  0  0  0  0
    1.0777    1.3515    0.0000 C   0  0  0  0  0  0  0  0  0  0  0  0
   -0.3846    1.6852    0.0000 C   0  0  0  0  0  0  0  0  0  0  0  0
   -1.5574    0.7500    0.0000 C   0  0  0  0  0  0  0  0  0  0  0  0
   -2.9088    1.4008    0.0000 O   0  0  0  0  0  0  0  0  0  0  0  0
   -1.5574   -0.7500    0.0000 C   0  0  0  0  0  0  0  0  0  0  0  0
   -2.9088   -1.4008    0.0000 C   0  0  0  0  0  0  0  0  0  0  0  0
   -4.1482   -0.5558    0.0000 C   0  0  0  0  0  0  0  0  0  0  0  0
   -4.0361    0.9400    0.0000 O   0  0  0  0  0  0  0  0  0  0  0  0
   -5.4997   -1.2067    0.0000 O   0  0  0  0  0  0  0  0  0  0  0  0
   -6.7390   -0.3617    0.0000 C   0  0  0  0  0  0  0  0  0  0  0  0
   -6.6269    1.1341    0.0000 N   0  0  0  0  0  0  0  0  0  0  0  0
   -7.8663    1.9791    0.0000 N   0  0  0  0  0  0  0  0  0  0  0  0
   -9.2177    1.3283    0.0000 N   0  0  0  0  0  0  0  0  0  0  0  0
   -9.3298   -0.1675    0.0000 N   0  0  0  0  0  0  0  0  0  0  0  0
   -8.0905   -1.0125    0.0000 N   0  0  0  0  0  0  0  0  0  0  0  0
   -0.3846   -1.6852    0.0000 C   0  0  0  0  0  0  0  0  0  0  0  0
    1.0777   -1.3515    0.0000 C   0  0  0  0  0  0  0  0  0  0  0  0
  1  2  1  0
  2  3  1  0
  3  4  1  0
  4  5  1  0
  5  6  1  0
  5  7  1  0
  7  8  1  0
  8  9  1  0
  9 10  2  0
  9 11  1  0
 11 12  1  0
 12 13  2  0
 13 14  1  0
 14 15  2  0
 15 16  1  0
 16 17  2  0
  7 18  1  0
 18 19  1  0
 19  2  1  0
 17 12  1  0
M  END
>  <Title>  (1444) 
idACBPgen6

$$$$

     RDKit          2D

  7  8  0  0  0  0  0  0  0  0999 V2000
    1.5000    0.0000    0.0000 C   0  0  0  0  0  0  0  0  0  0  0  0
    0.7500   -1.2990    0.0000 C   0  0  0  0  0  0  0  0  0  0  0  0
   -0.7500   -1.2990    0.0000 O   0  0  0  0  0  0  0  0  0  0  0  0
   -1.5000    0.0000    0.0000 C   0  0  0  0  0  0  0  0  0  0  0  0
   -2.2500    1.2990    0.0000 C   0  0  0  0  0  0  0  0  0  0  0  0
   -0.7500    1.2990    0.0000 C   0  0  0  0  0  0  0  0  0  0  0  0
    0.7500    1.2990    0.0000 C   0  0  0  0  0  0  0  0  0  0  0  0
  1  2  1  0
  2  3  1  0
  3  4  1  0
  4  5  1  0
  5  6  1  0
  6  7  1  0
  7  1  1  0
  6  4  1  0
M  END
>  <Title>  (1445) 
idACBQgen6

$$$$

     RDKit          2D

 34 38  0  0  0  0  0  0  0  0999 V2000
    6.0000   -5.1962    0.0000 C   0  0  0  0  0  0  0  0  0  0  0  0
    5.2500   -3.8971    0.0000 C   0  0  0  0  0  0  0  0  0  0  0  0
    6.0000   -2.5981    0.0000 O   0  0  0  0  0  0  0  0  0  0  0  0
    3.7500   -3.8971    0.0000 C   0  0  0  0  0  0  0  0  0  0  0  0
    3.0000   -2.5981    0.0000 C   0  0  0  0  0  0  0  0  0  0  0  0
    3.7500   -1.2990    0.0000 O   0  0  0  0  0  0  0  0  0  0  0  0
    1.5000   -2.5981    0.0000 N   0  0  0  0  0  0  0  0  0  0  0  0
    0.7500   -1.2990    0.0000 N   0  0  0  0  0  0  0  0  0  0  0  0
    1.5000    0.0000    0.0000 C   0  0  0  0  0  0  0  0  0  0  0  0
    0.7500    1.2990    0.0000 C   0  0  0  0  0  0  0  0  0  0  0  0
   -0.7500    1.2990    0.0000 C   0  0  0  0  0  0  0  0  0  0  0  0
   -1.5000    0.0000    0.0000 C   0  0  0  0  0  0  0  0  0  0  0  0
   -3.0000    0.0000    0.0000 C   0  0  0  0  0  0  0  0  0  0  0  0
   -3.7500   -1.2990    0.0000 C   0  0  0  0  0  0  0  0  0  0  0  0
   -3.0000   -2.5981    0.0000 C   0  0  0  0  0  0  0  0  0  0  0  0
   -3.7500   -3.8971    0.0000 C   0  0  0  0  0  0  0  0  0  0  0  0
   -4.5000   -5.1962    0.0000 N   0  0  0  0  0  0  0  0  0  0  0  0
   -1.5000   -2.5981    0.0000 C   0  0  0  0  0  0  0  0  0  0  0  0
   -0.7500   -1.2990    0.0000 C   0  0  0  0  0  0  0  0  0  0  0  0
    3.0000   -5.1962    0.0000 N   0  0  0  0  0  0  0  0  0  0  0  0
    1.5082   -5.3529    0.0000 C   0  0  0  0  0  0  0  0  0  0  0  0
    1.1963   -6.8202    0.0000 C   0  0  0  0  0  0  0  0  0  0  0  0
   -0.1740   -7.4303    0.0000 C   0  0  0  0  0  0  0  0  0  0  0  0
   -1.3875   -6.5486    0.0000 C   0  0  0  0  0  0  0  0  0  0  0  0
   -2.7578   -7.1587    0.0000 C   0  0  0  0  0  0  0  0  0  0  0  0
   -2.9146   -8.6505    0.0000 C   0  0  0  0  0  0  0  0  0  0  0  0
   -1.7011   -9.5322    0.0000 C   0  0  0  0  0  0  0  0  0  0  0  0
   -0.3308   -8.9221    0.0000 C   0  0  0  0  0  0  0  0  0  0  0  0
    2.4954   -7.5702    0.0000 C   0  0  0  0  0  0  0  0  0  0  0  0
    2.8073   -9.0374    0.0000 C   0  0  0  0  0  0  0  0  0  0  0  0
    4.2338   -9.5009    0.0000 C   0  0  0  0  0  0  0  0  0  0  0  0
    5.3486   -8.4972    0.0000 C   0  0  0  0  0  0  0  0  0  0  0  0
    5.0367   -7.0300    0.0000 C   0  0  0  0  0  0  0  0  0  0  0  0
    3.6101   -6.5665    0.0000 C   0  0  0  0  0  0  0  0  0  0  0  0
  1  2  1  0
  2  3  2  0
  2  4  1  0
  4  5  1  0
  5  6  2  0
  5  7  1  0
  7  8  1  0
  8  9  1  0
  9 10  2  0
 10 11  1  0
 11 12  1  0
 12 13  2  0
 13 14  1  0
 14 15  2  0
 15 16  1  0
 16 17  3  0
 15 18  1  0
 18 19  2  0
  4 20  1  0
 20 21  1  0
 21 22  2  0
 22 23  1  0
 23 24  2  0
 24 25  1  0
 25 26  2  0
 26 27  1  0
 27 28  2  0
 22 29  1  0
 29 30  2  0
 30 31  1  0
 31 32  2  0
 32 33  1  0
 33 34  2  0
 19  8  1  0
 34 20  1  0
 19 12  1  0
 28 23  1  0
 34 29  1  0
M  END
>  <Title>  (1446) 
idACBRgen6

$$$$

     RDKit          2D

 24 26  0  0  0  0  0  0  0  0999 V2000
    5.7098   -1.2990    0.0000 C   0  0  0  0  0  0  0  0  0  0  0  0
    4.2098   -1.2990    0.0000 C   0  0  0  0  0  0  0  0  0  0  0  0
    3.4598   -2.5981    0.0000 O   0  0  0  0  0  0  0  0  0  0  0  0
    3.4598   -0.0000    0.0000 O   0  0  0  0  0  0  0  0  0  0  0  0
    1.9598    0.0000    0.0000 C   0  0  0  0  0  0  0  0  0  0  0  0
    1.3858   -1.3858    0.0000 C   0  0  0  0  0  0  0  0  0  0  0  0
   -0.0000   -1.9598    0.0000 C   0  0  0  0  0  0  0  0  0  0  0  0
   -1.3858   -1.3858    0.0000 C   0  0  0  0  0  0  0  0  0  0  0  0
   -1.9598    0.0000    0.0000 C   0  0  0  0  0  0  0  0  0  0  0  0
   -3.4598    0.0000    0.0000 O   0  0  0  0  0  0  0  0  0  0  0  0
   -4.2098    1.2990    0.0000 C   0  0  0  0  0  0  0  0  0  0  0  0
   -5.7016    1.4558    0.0000 C   0  0  0  0  0  0  0  0  0  0  0  0
   -6.0135    2.9231    0.0000 C   0  0  0  0  0  0  0  0  0  0  0  0
   -4.7145    3.6731    0.0000 C   0  0  0  0  0  0  0  0  0  0  0  0
   -4.5577    5.1648    0.0000 O   0  0  0  0  0  0  0  0  0  0  0  0
   -3.1873    5.7749    0.0000 C   0  0  0  0  0  0  0  0  0  0  0  0
   -3.0306    7.2667    0.0000 C   0  0  0  0  0  0  0  0  0  0  0  0
   -1.8648    8.2107    0.0000 C   0  0  0  0  0  0  0  0  0  0  0  0
   -2.8088    9.3764    0.0000 C   0  0  0  0  0  0  0  0  0  0  0  0
   -3.9745    8.4324    0.0000 C   0  0  0  0  0  0  0  0  0  0  0  0
   -3.5997    2.6694    0.0000 C   0  0  0  0  0  0  0  0  0  0  0  0
   -1.3858    1.3858    0.0000 C   0  0  0  0  0  0  0  0  0  0  0  0
    0.0000    1.9598    0.0000 C   0  0  0  0  0  0  0  0  0  0  0  0
    1.3858    1.3858    0.0000 C   0  0  0  0  0  0  0  0  0  0  0  0
  1  2  1  0
  2  3  2  0
  2  4  1  0
  4  5  1  0
  5  6  2  0
  6  7  1  0
  7  8  2  0
  8  9  1  0
  9 10  1  0
 10 11  1  0
 11 12  2  0
 12 13  1  0
 13 14  2  0
 14 15  1  0
 15 16  1  0
 16 17  1  0
 17 18  2  0
 18 19  1  0
 19 20  2  0
 14 21  1  0
  9 22  1  0
 22 23  1  0
 23 24  2  0
 24  5  1  0
 21 11  1  0
 20 17  1  0
M  END
>  <Title>  (1447) 
idACBSgen6

$$$$

     RDKit          2D

  8  8  0  0  0  0  0  0  0  0999 V2000
    2.7760    0.0000    0.0000 C   0  0  0  0  0  0  0  0  0  0  0  0
    1.2760    0.0000    0.0000 C   0  0  0  0  0  0  0  0  0  0  0  0
    0.3943    1.2135    0.0000 C   0  0  0  0  0  0  0  0  0  0  0  0
   -1.0323    0.7500    0.0000 C   0  0  0  0  0  0  0  0  0  0  0  0
   -1.0323   -0.7500    0.0000 C   0  0  0  0  0  0  0  0  0  0  0  0
   -2.2458   -1.6317    0.0000 O   0  0  0  0  0  0  0  0  0  0  0  0
    0.3943   -1.2135    0.0000 C   0  0  0  0  0  0  0  0  0  0  0  0
    0.8578   -2.6401    0.0000 N   0  0  0  0  0  0  0  0  0  0  0  0
  1  2  1  0
  2  3  1  0
  3  4  1  0
  4  5  1  0
  5  6  1  0
  5  7  1  0
  7  8  1  0
  7  2  1  0
M  END
>  <Title>  (1448) 
idACBTgen6

$$$$

     RDKit          2D

 21 23  0  0  0  0  0  0  0  0999 V2000
   -0.7500   -3.8971    0.0000 O   0  0  0  0  0  0  0  0  0  0  0  0
    0.7500   -3.8971    0.0000 C   0  0  0  0  0  0  0  0  0  0  0  0
    1.5000   -2.5981    0.0000 N   0  0  0  0  0  0  0  0  0  0  0  0
    0.7500   -1.2990    0.0000 C   0  0  0  0  0  0  0  0  0  0  0  0
    1.5000    0.0000    0.0000 N   0  0  0  0  0  0  0  0  0  0  0  0
    0.7500    1.2990    0.0000 N   0  0  0  0  0  0  0  0  0  0  0  0
   -0.7500    1.2990    0.0000 N   0  0  0  0  0  0  0  0  0  0  0  0
   -1.5000    0.0000    0.0000 N   0  0  0  0  0  0  0  0  0  0  0  0
   -0.7500   -1.2990    0.0000 N   0  0  0  0  0  0  0  0  0  0  0  0
    1.5000   -5.1962    0.0000 N   0  0  0  0  0  0  0  0  0  0  0  0
    0.7500   -6.4952    0.0000 C   0  0  0  0  0  0  0  0  0  0  0  0
    1.5000   -7.7942    0.0000 C   0  0  0  0  0  0  0  0  0  0  0  0
    3.0000   -7.7942    0.0000 N   0  0  0  0  0  0  0  0  0  0  0  0
    3.7500   -9.0933    0.0000 C   0  0  0  0  0  0  0  0  0  0  0  0
    3.0000  -10.3923    0.0000 N   0  0  0  0  0  0  0  0  0  0  0  0
    3.7500  -11.6913    0.0000 N   0  0  0  0  0  0  0  0  0  0  0  0
    5.2500  -11.6913    0.0000 N   0  0  0  0  0  0  0  0  0  0  0  0
    6.0000  -10.3923    0.0000 N   0  0  0  0  0  0  0  0  0  0  0  0
    5.2500   -9.0933    0.0000 N   0  0  0  0  0  0  0  0  0  0  0  0
    3.7500   -6.4952    0.0000 C   0  0  0  0  0  0  0  0  0  0  0  0
    3.0000   -5.1962    0.0000 C   0  0  0  0  0  0  0  0  0  0  0  0
  1  2  2  0
  2  3  1  0
  3  4  1  0
  4  5  2  0
  5  6  1  0
  6  7  2  0
  7  8  1  0
  8  9  2  0
  2 10  1  0
 10 11  1  0
 11 12  1  0
 12 13  1  0
 13 14  1  0
 14 15  2  0
 15 16  1  0
 16 17  2  0
 17 18  1  0
 18 19  2  0
 13 20  1  0
 20 21  1  0
  9  4  1  0
 21 10  1  0
 19 14  1  0
M  END
>  <Title>  (1449) 
idACBUgen6

$$$$

     RDKit          2D

 13 14  0  0  0  0  0  0  0  0999 V2000
   -8.2272   -0.7500    0.0000 C   0  0  0  0  0  0  0  0  0  0  0  0
   -6.9282   -1.5000    0.0000 C   0  0  0  0  0  0  0  0  0  0  0  0
   -6.9282   -3.0000    0.0000 O   0  0  0  0  0  0  0  0  0  0  0  0
   -5.6292   -0.7500    0.0000 C   0  0  0  0  0  0  0  0  0  0  0  0
   -5.6292    0.7500    0.0000 O   0  0  0  0  0  0  0  0  0  0  0  0
   -4.3301   -1.5000    0.0000 C   0  0  0  0  0  0  0  0  0  0  0  0
   -3.0311   -0.7500    0.0000 C   0  0  0  0  0  0  0  0  0  0  0  0
   -3.0311    0.7500    0.0000 C   0  0  0  0  0  0  0  0  0  0  0  0
   -1.7321    1.5000    0.0000 C   0  0  0  0  0  0  0  0  0  0  0  0
   -0.4330    0.7500    0.0000 C   0  0  0  0  0  0  0  0  0  0  0  0
    0.8660    0.0000    0.0000 O   0  0  0  0  0  0  0  0  0  0  0  0
   -0.4330   -0.7500    0.0000 C   0  0  0  0  0  0  0  0  0  0  0  0
   -1.7321   -1.5000    0.0000 C   0  0  0  0  0  0  0  0  0  0  0  0
  1  2  1  0
  2  3  2  0
  2  4  1  0
  4  5  2  0
  4  6  1  0
  6  7  1  0
  7  8  2  0
  8  9  1  0
  9 10  2  0
 10 11  1  0
 11 12  1  0
 12 13  2  0
 13  7  1  0
 12 10  1  0
M  END
>  <Title>  (1450) 
idACBVgen6

$$$$

     RDKit          2D

 11 11  0  0  0  0  0  0  0  0999 V2000
    5.0260   -1.2990    0.0000 C   0  0  0  0  0  0  0  0  0  0  0  0
    3.5260   -1.2990    0.0000 C   0  0  0  0  0  0  0  0  0  0  0  0
    2.7760   -2.5981    0.0000 O   0  0  0  0  0  0  0  0  0  0  0  0
    2.7760    0.0000    0.0000 C   0  0  0  0  0  0  0  0  0  0  0  0
    3.5260    1.2990    0.0000 O   0  0  0  0  0  0  0  0  0  0  0  0
    1.2760    0.0000    0.0000 C   0  0  0  0  0  0  0  0  0  0  0  0
    0.3943    1.2135    0.0000 C   0  0  0  0  0  0  0  0  0  0  0  0
   -1.0323    0.7500    0.0000 C   0  0  0  0  0  0  0  0  0  0  0  0
   -1.0323   -0.7500    0.0000 C   0  0  0  0  0  0  0  0  0  0  0  0
   -2.2458   -1.6317    0.0000 O   0  0  0  0  0  0  0  0  0  0  0  0
    0.3943   -1.2135    0.0000 N   0  0  0  0  0  0  0  0  0  0  0  0
  1  2  1  0
  2  3  2  0
  2  4  1  0
  4  5  2  0
  4  6  1  0
  6  7  1  0
  7  8  1  0
  8  9  1  0
  9 10  2  0
  9 11  1  0
 11  6  1  0
M  END
>  <Title>  (1451) 
idACBWgen6

$$$$

     RDKit          2D

  8  8  0  0  0  0  0  0  0  0999 V2000
    3.7500   -1.2990    0.0000 C   0  0  0  0  0  0  0  0  0  0  0  0
    3.0000    0.0000    0.0000 C   0  0  0  0  0  0  0  0  0  0  0  0
    1.5000    0.0000    0.0000 C   0  0  0  0  0  0  0  0  0  0  0  0
    0.7500   -1.2990    0.0000 C   0  0  0  0  0  0  0  0  0  0  0  0
   -0.7500   -1.2990    0.0000 C   0  0  0  0  0  0  0  0  0  0  0  0
   -1.5000    0.0000    0.0000 C   0  0  0  0  0  0  0  0  0  0  0  0
   -0.7500    1.2990    0.0000 C   0  0  0  0  0  0  0  0  0  0  0  0
    0.7500    1.2990    0.0000 C   0  0  0  0  0  0  0  0  0  0  0  0
  1  2  1  0
  2  3  1  0
  3  4  2  0
  4  5  1  0
  5  6  2  0
  6  7  1  0
  7  8  2  0
  8  3  1  0
M  END
>  <Title>  (1452) 
idACBXgen6

$$$$

     RDKit          2D

 35 38  0  0  0  0  0  0  0  0999 V2000
   -7.5293  -13.0313    0.0000 C   0  0  0  0  0  0  0  0  0  0  0  0
   -6.9192  -11.6609    0.0000 C   0  0  0  0  0  0  0  0  0  0  0  0
   -6.3091  -10.2906    0.0000 C   0  0  0  0  0  0  0  0  0  0  0  0
   -8.2895  -11.0508    0.0000 C   0  0  0  0  0  0  0  0  0  0  0  0
   -5.5489  -12.2710    0.0000 C   0  0  0  0  0  0  0  0  0  0  0  0
   -4.1786  -12.8811    0.0000 C   0  0  0  0  0  0  0  0  0  0  0  0
   -2.8082  -13.4913    0.0000 N   0  0  0  0  0  0  0  0  0  0  0  0
   -1.5947  -12.6096    0.0000 C   0  0  0  0  0  0  0  0  0  0  0  0
   -0.2244  -13.2197    0.0000 C   0  0  0  0  0  0  0  0  0  0  0  0
    0.9891  -12.3380    0.0000 C   0  0  0  0  0  0  0  0  0  0  0  0
    0.8323  -10.8462    0.0000 O   0  0  0  0  0  0  0  0  0  0  0  0
    2.3594  -12.9481    0.0000 C   0  0  0  0  0  0  0  0  0  0  0  0
    2.6713  -14.4153    0.0000 C   0  0  0  0  0  0  0  0  0  0  0  0
    4.1631  -14.5721    0.0000 C   0  0  0  0  0  0  0  0  0  0  0  0
    4.7732  -13.2018    0.0000 C   0  0  0  0  0  0  0  0  0  0  0  0
    6.2404  -12.8899    0.0000 O   0  0  0  0  0  0  0  0  0  0  0  0
    3.6585  -12.1981    0.0000 C   0  0  0  0  0  0  0  0  0  0  0  0
    3.8153  -10.7063    0.0000 C   0  0  0  0  0  0  0  0  0  0  0  0
    2.7006   -9.7026    0.0000 C   0  0  0  0  0  0  0  0  0  0  0  0
    3.3107   -8.3323    0.0000 C   0  0  0  0  0  0  0  0  0  0  0  0
    2.5607   -7.0333    0.0000 C   0  0  0  0  0  0  0  0  0  0  0  0
    1.0607   -7.0333    0.0000 O   0  0  0  0  0  0  0  0  0  0  0  0
    3.3107   -5.7342    0.0000 O   0  0  0  0  0  0  0  0  0  0  0  0
    2.5607   -4.4352    0.0000 C   0  0  0  0  0  0  0  0  0  0  0  0
    2.9489   -2.9863    0.0000 C   0  0  0  0  0  0  0  0  0  0  0  0
    1.5000   -2.5981    0.0000 C   0  0  0  0  0  0  0  0  0  0  0  0
    0.7500   -1.2990    0.0000 C   0  0  0  0  0  0  0  0  0  0  0  0
    1.5000    0.0000    0.0000 C   0  0  0  0  0  0  0  0  0  0  0  0
    0.7500    1.2990    0.0000 C   0  0  0  0  0  0  0  0  0  0  0  0
   -0.7500    1.2990    0.0000 C   0  0  0  0  0  0  0  0  0  0  0  0
   -1.5000    0.0000    0.0000 C   0  0  0  0  0  0  0  0  0  0  0  0
   -0.7500   -1.2990    0.0000 C   0  0  0  0  0  0  0  0  0  0  0  0
    1.1118   -4.0470    0.0000 C   0  0  0  0  0  0  0  0  0  0  0  0
    4.8024   -8.4891    0.0000 O   0  0  0  0  0  0  0  0  0  0  0  0
    5.1143   -9.9563    0.0000 C   0  0  0  0  0  0  0  0  0  0  0  0
  1  2  1  0
  2  3  1  0
  2  4  1  0
  2  5  1  0
  5  6  3  0
  6  7  1  0
  7  8  1  0
  8  9  1  0
  9 10  2  3
 10 11  1  0
 10 12  1  0
 12 13  2  0
 13 14  1  0
 14 15  2  0
 15 16  1  0
 15 17  1  0
 17 18  1  0
 18 19  1  0
 19 20  2  0
 20 21  1  0
 21 22  2  0
 21 23  1  0
 23 24  1  0
 24 25  2  0
 25 26  1  0
 26 27  1  0
 27 28  2  0
 28 29  1  0
 29 30  2  0
 30 31  1  0
 31 32  2  0
 26 33  1  0
 20 34  1  0
 34 35  1  0
 17 12  1  0
 35 18  1  0
 33 24  1  0
 32 27  1  0
M  END
>  <Title>  (1453) 
idACBYgen6

$$$$

     RDKit          2D

 10 10  0  0  0  0  0  0  0  0999 V2000
    5.0260   -1.2990    0.0000 C   0  0  0  0  0  0  0  0  0  0  0  0
    3.5260   -1.2990    0.0000 C   0  0  0  0  0  0  0  0  0  0  0  0
    2.7760   -2.5981    0.0000 O   0  0  0  0  0  0  0  0  0  0  0  0
    2.7760    0.0000    0.0000 C   0  0  0  0  0  0  0  0  0  0  0  0
    3.5260    1.2990    0.0000 O   0  0  0  0  0  0  0  0  0  0  0  0
    1.2760    0.0000    0.0000 C   0  0  0  0  0  0  0  0  0  0  0  0
    0.3943    1.2135    0.0000 N   0  0  0  0  0  0  0  0  0  0  0  0
   -1.0323    0.7500    0.0000 N   0  0  0  0  0  0  0  0  0  0  0  0
   -1.0323   -0.7500    0.0000 N   0  0  0  0  0  0  0  0  0  0  0  0
    0.3943   -1.2135    0.0000 N   0  0  0  0  0  0  0  0  0  0  0  0
  1  2  1  0
  2  3  2  0
  2  4  1  0
  4  5  2  0
  4  6  1  0
  6  7  2  0
  7  8  1  0
  8  9  2  0
  9 10  1  0
 10  6  1  0
M  END
>  <Title>  (1454) 
idACBZgen6

$$$$

     RDKit          2D

 36 39  0  0  0  0  0  0  0  0999 V2000
    3.3939  -11.1662    0.0000 C   0  0  0  0  0  0  0  0  0  0  0  0
    3.7821   -9.7173    0.0000 C   0  0  0  0  0  0  0  0  0  0  0  0
    5.2310   -9.3291    0.0000 O   0  0  0  0  0  0  0  0  0  0  0  0
    2.7215   -8.6567    0.0000 C   0  0  0  0  0  0  0  0  0  0  0  0
    3.1097   -7.2078    0.0000 O   0  0  0  0  0  0  0  0  0  0  0  0
    2.0490   -6.1471    0.0000 C   0  0  0  0  0  0  0  0  0  0  0  0
    2.7990   -4.8481    0.0000 C   0  0  0  0  0  0  0  0  0  0  0  0
    2.7990   -3.3481    0.0000 C   0  0  0  0  0  0  0  0  0  0  0  0
    2.0490   -2.0490    0.0000 C   0  0  0  0  0  0  0  0  0  0  0  0
    3.1097   -0.9884    0.0000 C   0  0  0  0  0  0  0  0  0  0  0  0
    0.7500   -1.2990    0.0000 C   0  0  0  0  0  0  0  0  0  0  0  0
    1.5000    0.0000    0.0000 C   0  0  0  0  0  0  0  0  0  0  0  0
    0.7500    1.2990    0.0000 C   0  0  0  0  0  0  0  0  0  0  0  0
   -0.7500    1.2990    0.0000 C   0  0  0  0  0  0  0  0  0  0  0  0
   -1.5000    0.0000    0.0000 C   0  0  0  0  0  0  0  0  0  0  0  0
   -0.7500   -1.2990    0.0000 C   0  0  0  0  0  0  0  0  0  0  0  0
   -2.0490   -2.0490    0.0000 C   0  0  0  0  0  0  0  0  0  0  0  0
   -2.7990   -3.3481    0.0000 C   0  0  0  0  0  0  0  0  0  0  0  0
   -2.7990   -4.8481    0.0000 C   0  0  0  0  0  0  0  0  0  0  0  0
   -2.0490   -6.1471    0.0000 C   0  0  0  0  0  0  0  0  0  0  0  0
   -0.7500   -6.8971    0.0000 O   0  0  0  0  0  0  0  0  0  0  0  0
    0.7500   -6.8971    0.0000 C   0  0  0  0  0  0  0  0  0  0  0  0
    1.1382   -8.3460    0.0000 O   0  0  0  0  0  0  0  0  0  0  0  0
   -3.4135   -6.7702    0.0000 C   0  0  0  0  0  0  0  0  0  0  0  0
   -2.8560   -8.1628    0.0000 C   0  0  0  0  0  0  0  0  0  0  0  0
   -3.7832   -9.3419    0.0000 C   0  0  0  0  0  0  0  0  0  0  0  0
   -5.2680   -9.1284    0.0000 C   0  0  0  0  0  0  0  0  0  0  0  0
   -5.8255   -7.7358    0.0000 C   0  0  0  0  0  0  0  0  0  0  0  0
   -4.8982   -6.5568    0.0000 C   0  0  0  0  0  0  0  0  0  0  0  0
   -6.0318   -5.5745    0.0000 C   0  0  0  0  0  0  0  0  0  0  0  0
   -7.2937   -6.3854    0.0000 O   0  0  0  0  0  0  0  0  0  0  0  0
   -6.4544   -4.1352    0.0000 N   0  0  0  0  0  0  0  0  0  0  0  0
   -6.0318   -2.6960    0.0000 C   0  0  0  0  0  0  0  0  0  0  0  0
   -4.8982   -1.7137    0.0000 C   0  0  0  0  0  0  0  0  0  0  0  0
   -5.5213   -0.3493    0.0000 O   0  0  0  0  0  0  0  0  0  0  0  0
   -3.4135   -1.5002    0.0000 N   0  0  0  0  0  0  0  0  0  0  0  0
  1  2  1  0
  2  3  2  0
  2  4  1  0
  4  5  1  0
  5  6  1  0
  6  7  1  0
  7  8  1  0
  8  9  1  0
  9 10  1  0
  9 11  1  0
 11 12  2  0
 12 13  1  0
 13 14  2  0
 14 15  1  0
 15 16  2  0
 16 17  1  0
 17 18  2  0
 18 19  1  0
 19 20  2  0
 20 21  1  0
 21 22  1  0
 22 23  2  0
 20 24  1  0
 24 25  2  0
 25 26  1  0
 26 27  2  0
 27 28  1  0
 28 29  2  0
 29 30  1  0
 30 31  2  0
 30 32  1  0
 32 33  1  0
 33 34  1  0
 34 35  2  0
 34 36  1  0
 22  6  1  0
 29 24  1  0
 16 11  1  0
 36 17  1  0
M  END
>  <Title>  (1455) 
idACCAgen6

$$$$

     RDKit          2D

 30 34  0  0  0  0  0  0  0  0999 V2000
    1.7461   -2.1381    0.0000 C   0  0  0  0  0  0  0  0  0  0  0  0
    2.7498   -1.0234    0.0000 C   0  0  0  0  0  0  0  0  0  0  0  0
    4.2171   -1.3353    0.0000 O   0  0  0  0  0  0  0  0  0  0  0  0
    2.2863    0.4032    0.0000 N   0  0  0  0  0  0  0  0  0  0  0  0
    3.2900    1.5179    0.0000 C   0  0  0  0  0  0  0  0  0  0  0  0
    4.7818    1.3611    0.0000 N   0  0  0  0  0  0  0  0  0  0  0  0
    5.3919    2.7314    0.0000 N   0  0  0  0  0  0  0  0  0  0  0  0
    4.2772    3.7351    0.0000 N   0  0  0  0  0  0  0  0  0  0  0  0
    2.9781    2.9851    0.0000 N   0  0  0  0  0  0  0  0  0  0  0  0
    1.6078    3.5952    0.0000 N   0  0  0  0  0  0  0  0  0  0  0  0
    0.3943    2.7135    0.0000 C   0  0  0  0  0  0  0  0  0  0  0  0
    0.3943    1.2135    0.0000 C   0  0  0  0  0  0  0  0  0  0  0  0
    1.2760    0.0000    0.0000 C   0  0  0  0  0  0  0  0  0  0  0  0
    0.3943   -1.2135    0.0000 C   0  0  0  0  0  0  0  0  0  0  0  0
   -1.0323   -0.7500    0.0000 C   0  0  0  0  0  0  0  0  0  0  0  0
   -1.0323    0.7500    0.0000 C   0  0  0  0  0  0  0  0  0  0  0  0
   -1.9140    1.9635    0.0000 C   0  0  0  0  0  0  0  0  0  0  0  0
   -3.3405    2.4271    0.0000 C   0  0  0  0  0  0  0  0  0  0  0  0
   -4.5541    1.5454    0.0000 C   0  0  0  0  0  0  0  0  0  0  0  0
   -4.3973    0.0536    0.0000 O   0  0  0  0  0  0  0  0  0  0  0  0
   -5.9244    2.1555    0.0000 N   0  0  0  0  0  0  0  0  0  0  0  0
   -7.1379    1.2738    0.0000 C   0  0  0  0  0  0  0  0  0  0  0  0
   -8.5082    1.8839    0.0000 N   0  0  0  0  0  0  0  0  0  0  0  0
   -9.7218    1.0022    0.0000 N   0  0  0  0  0  0  0  0  0  0  0  0
   -9.5650   -0.4896    0.0000 N   0  0  0  0  0  0  0  0  0  0  0  0
   -8.1947   -1.0997    0.0000 N   0  0  0  0  0  0  0  0  0  0  0  0
   -6.9811   -0.2180    0.0000 N   0  0  0  0  0  0  0  0  0  0  0  0
   -3.3405    3.9271    0.0000 C   0  0  0  0  0  0  0  0  0  0  0  0
   -1.9140    4.3906    0.0000 C   0  0  0  0  0  0  0  0  0  0  0  0
   -1.0323    3.1771    0.0000 C   0  0  0  0  0  0  0  0  0  0  0  0
  1  2  1  0
  2  3  2  0
  2  4  1  0
  4  5  1  0
  5  6  2  0
  6  7  1  0
  7  8  2  0
  8  9  1  0
  9 10  1  0
 10 11  2  3
 11 12  1  0
 12 13  2  0
 13 14  1  0
 14 15  2  0
 15 16  1  0
 16 17  2  0
 17 18  1  0
 18 19  1  0
 19 20  2  0
 19 21  1  0
 21 22  1  0
 22 23  2  0
 23 24  1  0
 24 25  2  0
 25 26  1  0
 26 27  2  0
 18 28  2  0
 28 29  1  0
 29 30  2  0
  9  5  1  0
 30 11  1  0
 16 12  1  0
 30 17  1  0
 27 22  1  0
M  END
>  <Title>  (1456) 
idACCBgen6

$$$$

     RDKit          2D

 13 14  0  0  0  0  0  0  0  0999 V2000
   -1.2990   -6.3481    0.0000 C   0  0  0  0  0  0  0  0  0  0  0  0
   -1.2990   -4.8481    0.0000 C   0  0  0  0  0  0  0  0  0  0  0  0
   -2.5981   -4.0981    0.0000 O   0  0  0  0  0  0  0  0  0  0  0  0
   -0.0000   -4.0981    0.0000 C   0  0  0  0  0  0  0  0  0  0  0  0
    1.2990   -4.8481    0.0000 O   0  0  0  0  0  0  0  0  0  0  0  0
   -0.0000   -2.5981    0.0000 C   0  0  0  0  0  0  0  0  0  0  0  0
    0.7500   -1.2990    0.0000 C   0  0  0  0  0  0  0  0  0  0  0  0
    1.5000    0.0000    0.0000 C   0  0  0  0  0  0  0  0  0  0  0  0
    0.7500    1.2990    0.0000 C   0  0  0  0  0  0  0  0  0  0  0  0
   -0.7500    1.2990    0.0000 C   0  0  0  0  0  0  0  0  0  0  0  0
   -1.5000    2.5981    0.0000 O   0  0  0  0  0  0  0  0  0  0  0  0
   -1.5000    0.0000    0.0000 C   0  0  0  0  0  0  0  0  0  0  0  0
   -0.7500   -1.2990    0.0000 C   0  0  0  0  0  0  0  0  0  0  0  0
  1  2  1  0
  2  3  2  0
  2  4  1  0
  4  5  2  0
  4  6  1  0
  6  7  1  0
  7  8  2  0
  8  9  1  0
  9 10  2  0
 10 11  1  0
 10 12  1  0
 12 13  2  0
 13  6  1  0
 13  7  1  0
M  END
>  <Title>  (1457) 
idACCCgen6

$$$$

     RDKit          2D

  7  7  0  0  0  0  0  0  0  0999 V2000
    3.0000    0.0000    0.0000 C   0  0  0  0  0  0  0  0  0  0  0  0
    1.5000    0.0000    0.0000 C   0  0  0  0  0  0  0  0  0  0  0  0
    0.7500   -1.2990    0.0000 C   0  0  0  0  0  0  0  0  0  0  0  0
   -0.7500   -1.2990    0.0000 C   0  0  0  0  0  0  0  0  0  0  0  0
   -1.5000    0.0000    0.0000 C   0  0  0  0  0  0  0  0  0  0  0  0
   -0.7500    1.2990    0.0000 C   0  0  0  0  0  0  0  0  0  0  0  0
    0.7500    1.2990    0.0000 C   0  0  0  0  0  0  0  0  0  0  0  0
  1  2  1  0
  2  3  1  0
  3  4  2  0
  4  5  1  0
  5  6  2  0
  6  7  1  0
  7  2  1  0
M  END
>  <Title>  (1458) 
idACCDgen6

$$$$

     RDKit          2D

 31 33  0  0  0  0  0  0  0  0999 V2000
    4.7943    0.0000    0.0000 C   0  0  0  0  0  0  0  0  0  0  0  0
    4.5597   -1.4815    0.0000 C   0  0  0  0  0  0  0  0  0  0  0  0
    3.8787   -2.8180    0.0000 C   0  0  0  0  0  0  0  0  0  0  0  0
    2.8180   -3.8787    0.0000 C   0  0  0  0  0  0  0  0  0  0  0  0
    1.4815   -4.5597    0.0000 C   0  0  0  0  0  0  0  0  0  0  0  0
   -0.0000   -4.7943    0.0000 C   0  0  0  0  0  0  0  0  0  0  0  0
   -1.4815   -4.5597    0.0000 C   0  0  0  0  0  0  0  0  0  0  0  0
   -2.8180   -3.8787    0.0000 C   0  0  0  0  0  0  0  0  0  0  0  0
   -3.8787   -2.8180    0.0000 C   0  0  0  0  0  0  0  0  0  0  0  0
   -4.5597   -1.4815    0.0000 C   0  0  0  0  0  0  0  0  0  0  0  0
   -4.7943    0.0000    0.0000 C   0  0  0  0  0  0  0  0  0  0  0  0
   -4.5597    1.4815    0.0000 C   0  0  0  0  0  0  0  0  0  0  0  0
   -3.8787    2.8180    0.0000 C   0  0  0  0  0  0  0  0  0  0  0  0
   -2.8180    3.8787    0.0000 C   0  0  0  0  0  0  0  0  0  0  0  0
   -1.4815    4.5597    0.0000 C   0  0  0  0  0  0  0  0  0  0  0  0
    0.0000    4.7943    0.0000 C   0  0  0  0  0  0  0  0  0  0  0  0
    1.4815    4.5597    0.0000 C   0  0  0  0  0  0  0  0  0  0  0  0
    2.8180    3.8787    0.0000 C   0  0  0  0  0  0  0  0  0  0  0  0
    3.8787    2.8180    0.0000 C   0  0  0  0  0  0  0  0  0  0  0  0
    4.5597    1.4815    0.0000 C   0  0  0  0  0  0  0  0  0  0  0  0
   -4.3179    3.9001    0.0000 C   0  0  0  0  0  0  0  0  0  0  0  0
   -5.5912    3.1073    0.0000 C   0  0  0  0  0  0  0  0  0  0  0  0
   -6.2338    1.7519    0.0000 C   0  0  0  0  0  0  0  0  0  0  0  0
   -6.0415    0.2642    0.0000 C   0  0  0  0  0  0  0  0  0  0  0  0
   -5.0755   -0.8833    0.0000 C   0  0  0  0  0  0  0  0  0  0  0  0
   -3.7023   -0.2797    0.0000 C   0  0  0  0  0  0  0  0  0  0  0  0
   -2.4930   -1.1672    0.0000 N   0  0  0  0  0  0  0  0  0  0  0  0
   -1.1198   -0.5636    0.0000 N   0  0  0  0  0  0  0  0  0  0  0  0
   -0.9559    0.9274    0.0000 N   0  0  0  0  0  0  0  0  0  0  0  0
   -2.1652    1.8149    0.0000 N   0  0  0  0  0  0  0  0  0  0  0  0
   -3.5384    1.2113    0.0000 N   0  0  0  0  0  0  0  0  0  0  0  0
  1  2  1  0
  2  3  1  0
  3  4  1  0
  4  5  1  0
  5  6  1  0
  6  7  1  0
  7  8  1  0
  8  9  1  0
  9 10  1  0
 10 11  1  0
 11 12  1  0
 12 13  1  0
 13 14  1  0
 14 15  1  0
 15 16  1  0
 16 17  1  0
 17 18  1  0
 18 19  1  0
 19 20  1  0
 14 21  1  0
 21 22  1  0
 22 23  1  0
 23 24  1  0
 24 25  1  0
 25 26  1  0
 26 27  2  0
 27 28  1  0
 28 29  2  0
 29 30  1  0
 30 31  2  0
 20  1  1  0
 31 26  1  0
 25  9  1  0
M  END
>  <Title>  (1459) 
idACCEgen6

$$$$

     RDKit          2D

  7  7  0  0  0  0  0  0  0  0999 V2000
    2.7760    0.0000    0.0000 C   0  0  0  0  0  0  0  0  0  0  0  0
    1.2760    0.0000    0.0000 C   0  0  0  0  0  0  0  0  0  0  0  0
    0.3943    1.2135    0.0000 C   0  0  0  0  0  0  0  0  0  0  0  0
   -1.0323    0.7500    0.0000 C   0  0  0  0  0  0  0  0  0  0  0  0
   -1.0323   -0.7500    0.0000 C   0  0  0  0  0  0  0  0  0  0  0  0
   -2.2458   -1.6317    0.0000 C   0  0  0  0  0  0  0  0  0  0  0  0
    0.3943   -1.2135    0.0000 C   0  0  0  0  0  0  0  0  0  0  0  0
  1  2  1  0
  2  3  1  0
  3  4  1  0
  4  5  1  0
  5  6  1  0
  5  7  1  0
  7  2  1  0
M  END
>  <Title>  (1460) 
idACCFgen6

$$$$

     RDKit          2D

 22 23  0  0  0  0  0  0  0  0999 V2000
    5.9147    3.2498    0.0000 C   0  0  0  0  0  0  0  0  0  0  0  0
    4.4315    3.4734    0.0000 C   0  0  0  0  0  0  0  0  0  0  0  0
    3.8835    4.8697    0.0000 O   0  0  0  0  0  0  0  0  0  0  0  0
    3.4962    2.3006    0.0000 C   0  0  0  0  0  0  0  0  0  0  0  0
    2.0130    2.5242    0.0000 C   0  0  0  0  0  0  0  0  0  0  0  0
    1.0777    1.3515    0.0000 C   0  0  0  0  0  0  0  0  0  0  0  0
    1.7286    0.0000    0.0000 C   0  0  0  0  0  0  0  0  0  0  0  0
    1.0777   -1.3515    0.0000 C   0  0  0  0  0  0  0  0  0  0  0  0
   -0.3846   -1.6852    0.0000 C   0  0  0  0  0  0  0  0  0  0  0  0
   -1.5574   -0.7500    0.0000 C   0  0  0  0  0  0  0  0  0  0  0  0
   -1.5574    0.7500    0.0000 O   0  0  0  0  0  0  0  0  0  0  0  0
   -0.3846    1.6852    0.0000 C   0  0  0  0  0  0  0  0  0  0  0  0
    4.0442    0.9043    0.0000 N   0  0  0  0  0  0  0  0  0  0  0  0
    5.5275    0.6808    0.0000 C   0  0  0  0  0  0  0  0  0  0  0  0
    6.4627    1.8535    0.0000 O   0  0  0  0  0  0  0  0  0  0  0  0
    6.0755   -0.7155    0.0000 N   0  0  0  0  0  0  0  0  0  0  0  0
    7.5587   -0.9391    0.0000 C   0  0  0  0  0  0  0  0  0  0  0  0
    8.1068   -2.3354    0.0000 C   0  0  0  0  0  0  0  0  0  0  0  0
    9.5900   -2.5590    0.0000 C   0  0  0  0  0  0  0  0  0  0  0  0
   10.5252   -1.3862    0.0000 C   0  0  0  0  0  0  0  0  0  0  0  0
    9.9772    0.0101    0.0000 C   0  0  0  0  0  0  0  0  0  0  0  0
    8.4940    0.2336    0.0000 C   0  0  0  0  0  0  0  0  0  0  0  0
  1  2  1  0
  2  3  2  0
  2  4  1  0
  4  5  1  0
  5  6  1  0
  6  7  2  0
  7  8  1  0
  8  9  2  0
  9 10  1  0
 10 11  1  0
 11 12  1  0
  4 13  1  0
 13 14  1  0
 14 15  2  0
 14 16  1  0
 16 17  1  0
 17 18  2  0
 18 19  1  0
 19 20  2  0
 20 21  1  0
 21 22  2  0
 12  6  1  0
 22 17  1  0
M  END
>  <Title>  (1461) 
idACCGgen6

$$$$

     RDKit          2D

 41 46  0  0  0  0  0  0  0  0999 V2000
   -3.1476   -2.1380    0.0000 C   0  0  0  0  0  0  0  0  0  0  0  0
   -1.6852   -2.4718    0.0000 C   0  0  0  0  0  0  0  0  0  0  0  0
   -1.3515   -3.9342    0.0000 C   0  0  0  0  0  0  0  0  0  0  0  0
   -0.0000   -4.5850    0.0000 C   0  0  0  0  0  0  0  0  0  0  0  0
    1.3515   -3.9342    0.0000 C   0  0  0  0  0  0  0  0  0  0  0  0
    1.6852   -2.4718    0.0000 C   0  0  0  0  0  0  0  0  0  0  0  0
    3.1476   -2.1380    0.0000 C   0  0  0  0  0  0  0  0  0  0  0  0
    3.5898   -0.7046    0.0000 O   0  0  0  0  0  0  0  0  0  0  0  0
    4.1679   -3.2376    0.0000 N   0  0  0  0  0  0  0  0  0  0  0  0
    5.6303   -2.9038    0.0000 C   0  0  0  0  0  0  0  0  0  0  0  0
    6.2198   -1.5245    0.0000 N   0  0  0  0  0  0  0  0  0  0  0  0
    7.7138   -1.6590    0.0000 N   0  0  0  0  0  0  0  0  0  0  0  0
    8.0476   -3.1214    0.0000 N   0  0  0  0  0  0  0  0  0  0  0  0
    6.7599   -3.8907    0.0000 N   0  0  0  0  0  0  0  0  0  0  0  0
    6.6254   -5.3847    0.0000 C   0  0  0  0  0  0  0  0  0  0  0  0
    5.2644   -6.0152    0.0000 C   0  0  0  0  0  0  0  0  0  0  0  0
    5.1299   -7.5092    0.0000 C   0  0  0  0  0  0  0  0  0  0  0  0
    6.3565   -8.3726    0.0000 C   0  0  0  0  0  0  0  0  0  0  0  0
    6.2220   -9.8666    0.0000 C   0  0  0  0  0  0  0  0  0  0  0  0
    6.0876  -11.3605    0.0000 N   0  0  0  0  0  0  0  0  0  0  0  0
    7.7175   -7.7421    0.0000 C   0  0  0  0  0  0  0  0  0  0  0  0
    7.8520   -6.2481    0.0000 C   0  0  0  0  0  0  0  0  0  0  0  0
    9.2130   -5.6176    0.0000 C   0  0  0  0  0  0  0  0  0  0  0  0
    9.3475   -4.1236    0.0000 C   0  0  0  0  0  0  0  0  0  0  0  0
   10.7085   -3.4931    0.0000 C   0  0  0  0  0  0  0  0  0  0  0  0
   11.9351   -4.3565    0.0000 C   0  0  0  0  0  0  0  0  0  0  0  0
   13.2962   -3.7260    0.0000 O   0  0  0  0  0  0  0  0  0  0  0  0
   11.8007   -5.8504    0.0000 C   0  0  0  0  0  0  0  0  0  0  0  0
   10.4396   -6.4810    0.0000 C   0  0  0  0  0  0  0  0  0  0  0  0
   10.3052   -7.9749    0.0000 C   0  0  0  0  0  0  0  0  0  0  0  0
   11.5317   -8.8384    0.0000 C   0  0  0  0  0  0  0  0  0  0  0  0
   11.3973  -10.3323    0.0000 C   0  0  0  0  0  0  0  0  0  0  0  0
   10.0362  -10.9629    0.0000 C   0  0  0  0  0  0  0  0  0  0  0  0
    8.8097  -10.0994    0.0000 C   0  0  0  0  0  0  0  0  0  0  0  0
    8.9441   -8.6055    0.0000 C   0  0  0  0  0  0  0  0  0  0  0  0
    0.7500   -1.2990    0.0000 C   0  0  0  0  0  0  0  0  0  0  0  0
    1.5000    0.0000    0.0000 C   0  0  0  0  0  0  0  0  0  0  0  0
    0.7500    1.2990    0.0000 C   0  0  0  0  0  0  0  0  0  0  0  0
   -0.7500    1.2990    0.0000 C   0  0  0  0  0  0  0  0  0  0  0  0
   -1.5000    0.0000    0.0000 C   0  0  0  0  0  0  0  0  0  0  0  0
   -0.7500   -1.2990    0.0000 C   0  0  0  0  0  0  0  0  0  0  0  0
  1  2  1  0
  2  3  1  0
  3  4  2  0
  4  5  1  0
  5  6  2  0
  6  7  1  0
  7  8  2  0
  7  9  1  0
  9 10  1  0
 10 11  2  0
 11 12  1  0
 12 13  2  0
 13 14  1  0
 14 15  1  0
 15 16  2  0
 16 17  1  0
 17 18  2  0
 18 19  1  0
 19 20  3  0
 18 21  1  0
 21 22  2  0
 22 23  1  0
 23 24  2  0
 24 25  1  0
 25 26  2  0
 26 27  1  0
 26 28  1  0
 28 29  2  0
 29 30  1  0
 30 31  2  0
 31 32  1  0
 32 33  2  0
 33 34  1  0
 34 35  2  0
  6 36  1  0
 36 37  2  0
 37 38  1  0
 38 39  2  0
 39 40  1  0
 40 41  2  0
 41  2  1  0
 14 10  1  0
 22 15  1  0
 29 23  1  0
 35 30  1  0
 41 36  1  0
M  END
>  <Title>  (1462) 
idACCHgen6

$$$$

     RDKit          2D

 17 18  0  0  0  0  0  0  0  0999 V2000
    3.9271    0.0000    0.0000 C   0  0  0  0  0  0  0  0  0  0  0  0
    2.4271    0.0000    0.0000 C   0  0  0  0  0  0  0  0  0  0  0  0
    1.9635   -1.4266    0.0000 C   0  0  0  0  0  0  0  0  0  0  0  0
    0.7500   -2.3083    0.0000 C   0  0  0  0  0  0  0  0  0  0  0  0
   -0.7500   -2.3083    0.0000 C   0  0  0  0  0  0  0  0  0  0  0  0
   -1.9635   -1.4266    0.0000 C   0  0  0  0  0  0  0  0  0  0  0  0
   -2.4271    0.0000    0.0000 C   0  0  0  0  0  0  0  0  0  0  0  0
   -1.9635    1.4266    0.0000 C   0  0  0  0  0  0  0  0  0  0  0  0
   -0.7500    2.3083    0.0000 C   0  0  0  0  0  0  0  0  0  0  0  0
    0.7500    2.3083    0.0000 C   0  0  0  0  0  0  0  0  0  0  0  0
    1.2135    3.7348    0.0000 N   0  0  0  0  0  0  0  0  0  0  0  0
    0.3318    4.9484    0.0000 C   0  0  0  0  0  0  0  0  0  0  0  0
    1.2135    6.1619    0.0000 C   0  0  0  0  0  0  0  0  0  0  0  0
    2.6401    5.6984    0.0000 C   0  0  0  0  0  0  0  0  0  0  0  0
    2.6401    4.1984    0.0000 C   0  0  0  0  0  0  0  0  0  0  0  0
    3.8536    3.3167    0.0000 O   0  0  0  0  0  0  0  0  0  0  0  0
    1.9635    1.4266    0.0000 N   0  0  0  0  0  0  0  0  0  0  0  0
  1  2  1  0
  2  3  1  0
  3  4  1  0
  4  5  1  0
  5  6  1  0
  6  7  1  0
  7  8  1  0
  8  9  1  0
  9 10  1  0
 10 11  1  0
 11 12  1  0
 12 13  1  0
 13 14  1  0
 14 15  1  0
 15 16  2  0
 10 17  1  0
 17  2  1  0
 15 11  1  0
M  END
>  <Title>  (1463) 
idACCIgen6

$$$$
